
  -OEChem-04042322293D

 87 95  0     1  0  0  0  0  0999 V2000
  -16.9117  -28.3398   24.4334 C   0  0  0  0  0  0  0  0  0  0  0  0
  -18.0218  -27.5025   24.3855 C   0  0  0  0  0  0  0  0  0  0  0  0
  -26.5986  -12.4338   21.5480 C   0  0  0  0  0  0  0  0  0  0  0  0
  -26.1902  -13.4928   19.4152 C   0  0  0  0  0  0  0  0  0  0  0  0
  -16.8389  -29.4478   23.5903 C   0  0  0  0  0  0  0  0  0  0  0  0
  -19.0592  -27.7723   23.4937 C   0  0  0  0  0  0  0  0  0  0  0  0
  -26.1702  -27.1840   22.8585 C   0  0  0  0  0  0  0  0  0  0  0  0
  -29.6735  -23.2174   18.5540 C   0  0  0  0  0  0  0  0  0  0  0  0
  -30.0903  -22.1280   19.3189 C   0  0  0  0  0  0  0  0  0  0  0  0
  -25.2785  -11.9842   21.5776 C   0  0  0  0  0  0  0  0  0  0  0  0
  -24.8701  -13.0432   19.4447 C   0  0  0  0  0  0  0  0  0  0  0  0
  -27.1359  -26.6827   21.9867 C   0  0  0  0  0  0  0  0  0  0  0  0
  -23.4625   -9.4965   20.1826 C   0  0  0  0  0  0  0  0  0  0  0  0
  -23.2372   -8.1714   20.5554 C   0  0  0  0  0  0  0  0  0  0  0  0
  -26.9374  -28.6701   20.6338 C   0  0  0  0  0  0  0  0  0  0  0  0
  -29.5614  -20.6412   17.4895 C   0  0  0  0  0  0  0  0  0  0  0  0
  -21.8911   -8.9236   22.4153 C   0  0  0  0  0  0  0  0  0  0  0  0
  -27.0544  -13.1881   20.4668 C   0  0  0  0  0  0  0  0  0  0  0  0
  -29.5315  -12.9863   19.8914 C   0  0  0  0  0  0  0  0  0  0  0  0
  -17.8803  -29.7368   22.6945 C   0  0  0  0  0  0  0  0  0  0  0  0
  -25.5720  -28.4293   22.6181 C   0  0  0  0  0  0  0  0  0  0  0  0
  -18.9996  -28.8845   22.6368 C   0  0  0  0  0  0  0  0  0  0  0  0
  -25.9663  -29.1860   21.5054 C   0  0  0  0  0  0  0  0  0  0  0  0
  -29.2007  -23.0187   17.2569 C   0  0  0  0  0  0  0  0  0  0  0  0
  -29.1446  -21.7307   16.7246 C   0  0  0  0  0  0  0  0  0  0  0  0
  -30.0342  -20.8399   18.7867 C   0  0  0  0  0  0  0  0  0  0  0  0
  -24.4143  -12.2889   20.5259 C   0  0  0  0  0  0  0  0  0  0  0  0
  -27.5175  -27.4245   20.8726 C   0  0  0  0  0  0  0  0  0  0  0  0
  -22.9022  -10.5351   20.9262 C   0  0  0  0  0  0  0  0  0  0  0  0
  -22.4514   -7.8849   21.6717 C   0  0  0  0  0  0  0  0  0  0  0  0
  -22.1164  -10.2487   22.0425 C   0  0  0  0  0  0  0  0  0  0  0  0
  -28.4178  -13.6533   20.4360 C   0  0  0  0  0  0  0  0  0  0  0  0
  -30.5847  -13.8397   20.1125 C   0  0  0  0  0  0  0  0  0  0  0  0
  -29.6071  -11.7095   19.2435 C   0  0  0  0  0  0  0  0  0  0  0  0
  -22.6069  -29.4198   22.0426 C   0  0  0  0  0  0  0  0  0  0  0  0
  -23.9644  -32.3585   22.2512 C   0  0  0  0  0  0  0  0  0  0  0  0
  -28.9712  -26.2833   17.7928 C   0  0  0  0  0  0  0  0  0  0  0  0
  -26.7789  -34.2735   22.0105 C   0  0  0  0  0  0  0  0  0  0  0  0
  -30.9566  -19.7558   20.8652 C   0  0  0  0  0  0  0  0  0  0  0  0
  -17.7351  -30.9192   21.7696 C   0  0  0  0  0  0  0  0  0  0  0  0
  -24.5512  -28.9679   23.5826 C   0  0  0  0  0  0  0  0  0  0  0  0
  -25.3691  -30.5376   21.2137 C   0  0  0  0  0  0  0  0  0  0  0  0
  -19.0472  -31.3467   21.1169 C   0  0  0  0  0  0  0  0  0  0  0  0
  -32.0741  -17.2466   23.1306 C   0  0  0  0  0  0  0  0  0  0  0  0
  -19.7935  -30.1325   20.5733 C   0  0  0  0  0  0  0  0  0  0  0  0
  -31.3694  -15.9784   22.6434 C   0  0  0  0  0  0  0  0  0  0  0  0
  -31.1853  -18.4806   22.9857 C   0  0  0  0  0  0  0  0  0  0  0  0
  -29.9202  -17.4199   21.1571 C   0  0  0  0  0  0  0  0  0  0  0  0
  -20.1564  -29.1579   21.7003 C   0  0  1  0  0  0  0  0  0  0  0  0
  -23.6361  -30.0176   22.9597 C   0  0  1  0  0  0  0  0  0  0  0  0
  -30.7998  -16.1606   21.2229 C   0  0  2  0  0  0  0  0  0  0  0  0
  -27.5678  -36.6483   22.1987 C   0  0  0  0  0  0  0  0  0  0  0  0
  -22.7498  -32.9757   19.5210 C   0  0  0  0  0  0  0  0  0  0  0  0
  -24.3141  -34.9224   19.3428 C   0  0  0  0  0  0  0  0  0  0  0  0
  -22.6172  -34.8514   21.1699 C   0  0  0  0  0  0  0  0  0  0  0  0
  -26.7752  -25.2333   17.6392 C   0  0  0  0  0  0  0  0  0  0  0  0
  -28.6097  -33.6109   24.2395 C   0  0  0  0  0  0  0  0  0  0  0  0
  -28.7570  -24.2068   16.4532 C   0  0  0  0  0  0  0  0  0  0  0  0
  -28.3615  -27.3296   18.6512 C   0  0  0  0  0  0  0  0  0  1  0  0
  -24.6161  -33.3069   21.2741 C   0  0  1  0  0  0  0  0  0  0  0  0
  -27.3588  -35.3321   22.9312 C   0  0  2  0  0  0  0  0  0  0  0  0
  -28.6440  -21.4941   15.3375 C   0  0  0  0  0  0  0  0  0  0  0  0
  -23.5843  -33.9878   20.3311 C   0  0  0  0  0  0  0  0  0  0  0  0
  -28.7341  -14.8389   20.9635 N   0  0  0  0  0  0  0  0  0  0  0  0
  -30.0584  -14.9236   20.7515 N   0  0  0  0  0  0  0  0  0  0  0  0
  -24.3705  -31.0183   22.1828 N   0  0  0  0  0  0  0  0  0  0  0  0
  -30.6858  -18.5906   21.6134 N   0  0  0  0  0  0  0  0  0  0  0  0
  -31.9004  -13.7612   19.8207 N   0  0  0  0  0  0  0  0  0  0  0  0
  -28.4299  -10.9628   19.0990 N   0  0  0  0  0  0  0  0  0  0  0  0
  -30.4593  -19.7331   19.5626 N   0  0  0  0  0  0  0  0  0  0  0  0
  -21.3022  -29.6436   22.4390 N   0  0  0  0  0  0  0  0  0  0  0  0
  -25.4019  -34.2405   22.0737 N   0  0  0  0  0  0  0  0  0  0  0  0
  -28.2135  -25.2802   17.3082 N   0  0  0  0  0  0  0  0  0  0  0  0
  -30.2756  -26.4369   17.5704 N   0  3  0  0  0  0  0  0  0  0  0  0
  -28.6718  -34.8830   23.4747 N   0  3  0  0  0  0  0  0  0  0  0  0
  -30.6895  -11.2374   18.8203 O   0  0  0  0  0  0  0  0  0  0  0  0
  -22.9697  -28.8024   21.0481 O   0  0  0  0  0  0  0  0  0  0  0  0
  -23.1310  -32.7923   23.0506 O   0  0  0  0  0  0  0  0  0  0  0  0
  -27.4775  -33.5509   21.3031 O   0  0  0  0  0  0  0  0  0  0  0  0
  -31.6068  -20.6927   21.3358 O   0  0  0  0  0  0  0  0  0  0  0  0
  -23.1262  -11.8501   20.5543 O   0  0  0  0  0  0  0  0  0  0  0  0
  -28.4594  -26.9373   20.0197 O   0  0  0  0  0  0  0  0  0  1  0  0
  -22.2339   -6.6124   22.0287 F   0  0  0  0  0  0  0  0  0  0  0  0
  -21.5745  -11.2422   22.7601 F   0  0  0  0  0  0  0  0  0  0  0  0
  -29.2166  -20.4076   14.7354 F   0  0  0  0  0  0  0  0  0  0  0  0
  -28.8972  -22.5357   14.4879 F   0  0  0  0  0  0  0  0  0  0  0  0
  -26.8768  -21.2324   15.3682 Cl  0  0  0  0  0  0  0  0  0  0  0  0
  1  2  1  0  0  0  0
  1  5  2  0  0  0  0
  2  6  2  0  0  0  0
  3 10  2  0  0  0  0
  3 18  1  0  0  0  0
  4 11  1  0  0  0  0
  4 18  2  0  0  0  0
  5 20  1  0  0  0  0
  6 22  1  0  0  0  0
  7 12  2  0  0  0  0
  7 21  1  0  0  0  0
  8  9  2  0  0  0  0
  8 24  1  0  0  0  0
  9 26  1  0  0  0  0
 10 27  1  0  0  0  0
 11 27  2  0  0  0  0
 12 28  1  0  0  0  0
 13 14  2  0  0  0  0
 13 29  1  0  0  0  0
 14 30  1  0  0  0  0
 15 23  1  0  0  0  0
 15 28  2  0  0  0  0
 16 25  1  0  0  0  0
 16 26  2  0  0  0  0
 17 30  2  0  0  0  0
 17 31  1  0  0  0  0
 18 32  1  0  0  0  0
 19 32  1  0  0  0  0
 19 33  2  0  0  0  0
 19 34  1  0  0  0  0
 20 22  2  0  0  0  0
 20 40  1  0  0  0  0
 21 23  2  0  0  0  0
 21 41  1  0  0  0  0
 22 49  1  0  0  0  0
 23 42  1  0  0  0  0
 24 25  2  0  0  0  0
 24 58  1  0  0  0  0
 25 62  1  0  0  0  0
 26 70  1  0  0  0  0
 27 81  1  0  0  0  0
 28 82  1  0  0  0  0
 29 31  2  0  0  0  0
 29 81  1  0  0  0  0
 30 83  1  0  0  0  0
 31 84  1  0  0  0  0
 32 64  2  0  0  0  0
 33 65  1  0  0  0  0
 33 68  1  0  0  0  0
 34 69  1  0  0  0  0
 34 76  2  0  0  0  0
 35 50  1  0  0  0  0
 35 71  1  0  0  0  0
 35 77  2  0  0  0  0
 36 60  1  0  0  0  0
 36 66  1  0  0  0  0
 36 78  2  0  0  0  0
 37 59  1  0  0  0  0
 37 73  1  0  0  0  0
 37 74  2  0  0  0  0
 38 61  1  0  0  0  0
 38 72  1  0  0  0  0
 38 79  2  0  0  0  0
 39 67  1  0  0  0  0
 39 70  1  0  0  0  0
 39 80  2  0  0  0  0
 40 43  1  0  0  0  0
 41 50  1  0  0  0  0
 42 66  1  0  0  0  0
 43 45  1  0  0  0  0
 44 46  1  0  0  0  0
 44 47  1  0  0  0  0
 45 49  1  0  0  0  0
 46 51  1  0  0  0  0
 47 67  1  0  0  0  0
 48 51  1  0  0  0  0
 48 67  1  0  0  0  0
 49 71  1  0  0  0  0
 50 66  1  0  0  0  0
 51 65  1  0  0  0  0
 52 61  1  0  0  0  0
 53 63  1  0  0  0  0
 54 63  1  0  0  0  0
 55 63  1  0  0  0  0
 56 73  1  0  0  0  0
 57 75  1  0  0  0  0
 58 73  1  0  0  0  0
 59 82  1  0  0  0  0
 60 63  1  0  0  0  0
 60 72  1  0  0  0  0
 61 75  1  0  0  0  0
 62 85  1  0  0  0  0
 62 86  1  0  0  0  0
 62 87  1  0  0  0  0
 64 65  1  0  0  0  0
M  CHG  2  74   1  75   1
M  ISO  4  39 100  59 101  70 100  82 101
M  END
> <Batch ID>
0048

> <Smiles>
CNC(C)C(=O)NC(C(=O)N1Cc2cc([101O:1][101CH2:1]C(=N)N(C)Cc3ccc([100NH:0][100C:0](=O)N4CCCC(n5nc(-c6ccc(Oc7ccc(F)cc7F)cc6)c(C(N)=O)c5N)C4)cc3C(F)(F)Cl)ccc2CC1C(=O)NC1CCCc2ccccc21)C(C)(C)C

> <Shape>
0.306

> <Color>
0.098

> <Negative vol penalty>
0.000

$$$$

  -OEChem-04042322293D

 92101  0     1  0  0  0  0  0999 V2000
  -25.4253  -29.1675   20.0677 C   0  0  0  0  0  0  0  0  0  0  0  0
  -24.9759  -27.9499   19.5668 C   0  0  0  0  0  0  0  0  0  0  0  0
  -23.8457  -13.1583   23.9129 C   0  0  0  0  0  0  0  0  0  0  0  0
  -24.0179  -15.2192   22.6637 C   0  0  0  0  0  0  0  0  0  0  0  0
  -26.7725  -29.3346   20.3856 C   0  0  0  0  0  0  0  0  0  0  0  0
  -25.8737  -26.8990   19.3826 C   0  0  0  0  0  0  0  0  0  0  0  0
  -26.0952  -19.0091   15.9646 C   0  0  0  0  0  0  0  0  0  0  0  0
  -24.0615  -22.4786   21.0622 C   0  0  0  0  0  0  0  0  0  0  0  0
  -27.2584  -18.3063   16.2784 C   0  0  0  0  0  0  0  0  0  0  0  0
  -23.2602  -13.8499   24.9732 C   0  0  0  0  0  0  0  0  0  0  0  0
  -23.4323  -15.9108   23.7241 C   0  0  0  0  0  0  0  0  0  0  0  0
  -23.1365  -21.8208   20.2526 C   0  0  0  0  0  0  0  0  0  0  0  0
  -20.3271  -16.3997   24.9647 C   0  0  0  0  0  0  0  0  0  0  0  0
  -19.3266  -17.3228   24.6606 C   0  0  0  0  0  0  0  0  0  0  0  0
  -24.8864  -20.3726   19.4403 C   0  0  0  0  0  0  0  0  0  0  0  0
  -26.8104  -16.7604   14.4764 C   0  0  0  0  0  0  0  0  0  0  0  0
  -20.6500  -19.0840   25.6524 C   0  0  0  0  0  0  0  0  0  0  0  0
  -24.2247  -13.8430   22.7581 C   0  0  0  0  0  0  0  0  0  0  0  0
  -24.2684  -12.0707   20.9237 C   0  0  0  0  0  0  0  0  0  0  0  0
  -27.6855  -28.2822   20.2143 C   0  0  0  0  0  0  0  0  0  0  0  0
  -25.4102  -22.0948   21.0588 C   0  0  0  0  0  0  0  0  0  0  0  0
  -27.2346  -27.0526   19.6973 C   0  0  0  0  0  0  0  0  0  0  0  0
  -25.2895  -18.5876   14.9068 C   0  0  0  0  0  0  0  0  0  0  0  0
  -25.8260  -21.0255   20.2527 C   0  0  0  0  0  0  0  0  0  0  0  0
  -27.6160  -17.1819   15.5343 C   0  0  0  0  0  0  0  0  0  0  0  0
  -25.6471  -17.4633   14.1627 C   0  0  0  0  0  0  0  0  0  0  0  0
  -23.0535  -15.2262   24.8788 C   0  0  0  0  0  0  0  0  0  0  0  0
  -23.5494  -20.7695   19.4393 C   0  0  0  0  0  0  0  0  0  0  0  0
  -21.4891  -16.8188   25.6127 C   0  0  0  0  0  0  0  0  0  0  0  0
  -19.4880  -18.6649   25.0044 C   0  0  0  0  0  0  0  0  0  0  0  0
  -21.6506  -18.1610   25.9565 C   0  0  0  0  0  0  0  0  0  0  0  0
  -24.8301  -13.1292   21.6626 C   0  0  0  0  0  0  0  0  0  0  0  0
  -25.2344  -11.7437   20.0038 C   0  0  0  0  0  0  0  0  0  0  0  0
  -22.9947  -19.2849   15.7140 C   0  0  0  0  0  0  0  0  0  0  0  0
  -22.9879  -11.4397   21.0570 C   0  0  0  0  0  0  0  0  0  0  0  0
  -28.1469  -23.5234   20.3015 C   0  0  0  0  0  0  0  0  0  0  0  0
  -22.8226  -15.7805   12.5954 C   0  0  0  0  0  0  0  0  0  0  0  0
  -29.4457  -20.7881   21.4652 C   0  0  0  0  0  0  0  0  0  0  0  0
  -29.0659  -17.4696   22.1650 C   0  0  0  0  0  0  0  0  0  0  0  0
  -29.7404  -14.8304   17.5503 C   0  0  0  0  0  0  0  0  0  0  0  0
  -29.1406  -28.5253   20.5275 C   0  0  0  0  0  0  0  0  0  0  0  0
  -26.3904  -22.7971   21.9578 C   0  0  0  0  0  0  0  0  0  0  0  0
  -27.2587  -20.5616   20.2277 C   0  0  0  0  0  0  0  0  0  0  0  0
  -29.9586  -27.2428   20.6556 C   0  0  0  0  0  0  0  0  0  0  0  0
  -23.1019  -21.5660   13.8826 C   0  0  0  0  0  0  0  0  0  0  0  0
  -29.9778  -11.7850   19.3794 C   0  0  0  0  0  0  0  0  0  0  0  0
  -24.3772  -20.7963   14.1616 C   0  0  0  0  0  0  0  0  0  0  0  0
  -29.6498  -26.2951   19.5009 C   0  0  0  0  0  0  0  0  0  0  0  0
  -28.6347  -11.6886   20.1053 C   0  0  0  0  0  0  0  0  0  0  0  0
  -22.2737  -21.6378   15.1499 C   0  0  0  0  0  0  0  0  0  0  0  0
  -30.4702  -13.2279   19.2927 C   0  0  0  0  0  0  0  0  0  0  0  0
  -28.1623  -14.0810   19.4330 C   0  0  0  0  0  0  0  0  0  0  0  0
  -24.0269  -19.3699   14.5836 C   0  0  1  0  0  0  0  0  0  0  0  0
  -28.1733  -25.8810   19.5068 C   0  0  1  0  0  0  0  0  0  0  0  0
  -27.8359  -22.6583   21.4900 C   0  0  1  0  0  0  0  0  0  0  0  0
  -27.5978  -12.6515   19.4962 C   0  0  2  0  0  0  0  0  0  0  0  0
  -21.5514  -15.0190   12.8798 C   0  0  0  0  0  0  0  0  0  0  0  0
  -23.1966  -15.9798   11.1484 C   0  0  0  0  0  0  0  0  0  0  0  0
  -30.3150  -15.4929   23.0760 C   0  0  0  0  0  0  0  0  0  0  0  0
  -30.9621  -20.5348   18.8296 C   0  0  0  0  0  0  0  0  0  0  0  0
  -31.4177  -18.1404   19.4022 C   0  0  0  0  0  0  0  0  0  0  0  0
  -32.3004  -19.9600   20.8626 C   0  0  0  0  0  0  0  0  0  0  0  0
  -27.1600  -17.1517   24.4068 C   0  0  0  0  0  0  0  0  0  0  0  0
  -24.8000  -16.9930   13.0260 C   0  0  0  0  0  0  0  0  0  0  0  0
  -28.8595  -16.4303   15.8700 C   0  0  0  0  0  0  0  0  0  0  0  0
  -21.0636  -20.3155   16.8499 C   0  0  0  0  0  0  0  0  0  0  0  0
  -21.5403  -20.8888   18.1724 C   0  0  0  0  0  0  0  0  0  1  0  0
  -29.8242  -19.4500   20.8776 C   0  0  1  0  0  0  0  0  0  0  0  0
  -29.3941  -16.6576   23.4049 C   0  0  2  0  0  0  0  0  0  0  0  0
  -31.0994  -19.5311   19.9918 C   0  0  0  0  0  0  0  0  0  0  0  0
  -26.0578  -13.4529   21.2480 N   0  0  0  0  0  0  0  0  0  0  0  0
  -23.6016  -16.2813   13.4851 N   0  0  0  0  0  0  0  0  0  0  0  0
  -26.2756  -12.5928   20.2386 N   0  0  0  0  0  0  0  0  0  0  0  0
  -22.1077  -20.3562   15.8339 N   0  0  0  0  0  0  0  0  0  0  0  0
  -28.1806  -21.2841   21.1198 N   0  0  0  0  0  0  0  0  0  0  0  0
  -29.4408  -14.0886   18.7049 N   0  0  0  0  0  0  0  0  0  0  0  0
  -25.2863  -10.8154   19.0250 N   0  0  0  0  0  0  0  0  0  0  0  0
  -21.9095  -11.9554   20.3252 N   0  0  0  0  0  0  0  0  0  0  0  0
  -27.9354  -24.8719   20.5165 N   0  0  0  0  0  0  0  0  0  0  0  0
  -29.9354  -18.5272   22.0021 N   0  0  0  0  0  0  0  0  0  0  0  0
  -28.7066  -15.6155   17.0547 N   0  0  0  0  0  0  0  0  0  0  0  0
  -28.1469  -16.1135   24.0129 N   0  3  0  0  0  0  0  0  0  0  0  0
  -22.9261  -18.2683   16.4119 O   0  0  0  0  0  0  0  0  0  0  0  0
  -22.8017  -10.4580   21.8154 O   0  0  0  0  0  0  0  0  0  0  0  0
  -28.5504  -23.0059   19.2666 O   0  0  0  0  0  0  0  0  0  0  0  0
  -30.2403  -21.3685   22.2090 O   0  0  0  0  0  0  0  0  0  0  0  0
  -28.1338  -17.1911   21.4138 O   0  0  0  0  0  0  0  0  0  0  0  0
  -30.8455  -14.7914   16.9987 O   0  0  0  0  0  0  0  0  0  0  0  0
  -22.4819  -15.9013   25.9132 O   0  0  0  0  0  0  0  0  0  0  0  0
  -22.6488  -20.1261   18.6476 O   0  0  0  0  0  0  0  0  0  1  0  0
  -18.5278  -19.5515   24.7109 F   0  0  0  0  0  0  0  0  0  0  0  0
  -22.7652  -18.5697   26.5781 F   0  0  0  0  0  0  0  0  0  0  0  0
  1  2  1  0  0  0  0
  1  5  2  0  0  0  0
  2  6  2  0  0  0  0
  3 10  2  0  0  0  0
  3 18  1  0  0  0  0
  4 11  1  0  0  0  0
  4 18  2  0  0  0  0
  5 20  1  0  0  0  0
  6 22  1  0  0  0  0
  7  9  2  0  0  0  0
  7 23  1  0  0  0  0
  8 12  2  0  0  0  0
  8 21  1  0  0  0  0
  9 25  1  0  0  0  0
 10 27  1  0  0  0  0
 11 27  2  0  0  0  0
 12 28  1  0  0  0  0
 13 14  2  0  0  0  0
 13 29  1  0  0  0  0
 14 30  1  0  0  0  0
 15 24  1  0  0  0  0
 15 28  2  0  0  0  0
 16 25  2  0  0  0  0
 16 26  1  0  0  0  0
 17 30  2  0  0  0  0
 17 31  1  0  0  0  0
 18 32  1  0  0  0  0
 19 32  1  0  0  0  0
 19 33  2  0  0  0  0
 19 35  1  0  0  0  0
 20 22  2  0  0  0  0
 20 41  1  0  0  0  0
 21 24  2  0  0  0  0
 21 42  1  0  0  0  0
 22 54  1  0  0  0  0
 23 26  2  0  0  0  0
 23 53  1  0  0  0  0
 24 43  1  0  0  0  0
 25 65  1  0  0  0  0
 26 64  1  0  0  0  0
 27 89  1  0  0  0  0
 28 90  1  0  0  0  0
 29 31  2  0  0  0  0
 29 89  1  0  0  0  0
 30 91  1  0  0  0  0
 31 92  1  0  0  0  0
 32 71  2  0  0  0  0
 33 73  1  0  0  0  0
 33 77  1  0  0  0  0
 34 53  1  0  0  0  0
 34 74  1  0  0  0  0
 34 83  2  0  0  0  0
 35 78  1  0  0  0  0
 35 84  2  0  0  0  0
 36 55  1  0  0  0  0
 36 79  1  0  0  0  0
 36 85  2  0  0  0  0
 37 57  1  0  0  0  0
 37 58  1  0  0  0  0
 37 72  2  0  0  0  0
 38 68  1  0  0  0  0
 38 75  1  0  0  0  0
 38 86  2  0  0  0  0
 39 69  1  0  0  0  0
 39 80  1  0  0  0  0
 39 87  2  0  0  0  0
 40 76  1  0  0  0  0
 40 81  1  0  0  0  0
 40 88  2  0  0  0  0
 41 44  1  0  0  0  0
 42 55  1  0  0  0  0
 43 75  1  0  0  0  0
 44 48  1  0  0  0  0
 45 47  1  0  0  0  0
 45 50  1  0  0  0  0
 46 49  1  0  0  0  0
 46 51  1  0  0  0  0
 47 53  1  0  0  0  0
 48 54  1  0  0  0  0
 49 56  1  0  0  0  0
 50 74  1  0  0  0  0
 51 76  1  0  0  0  0
 52 56  1  0  0  0  0
 52 76  1  0  0  0  0
 54 79  1  0  0  0  0
 55 75  1  0  0  0  0
 56 73  1  0  0  0  0
 59 69  1  0  0  0  0
 60 70  1  0  0  0  0
 61 70  1  0  0  0  0
 62 70  1  0  0  0  0
 63 82  1  0  0  0  0
 64 72  1  0  0  0  0
 65 81  1  0  0  0  0
 66 67  1  0  0  0  0
 66 74  1  0  0  0  0
 67 90  1  0  0  0  0
 68 70  1  0  0  0  0
 68 80  1  0  0  0  0
 69 82  1  0  0  0  0
 71 73  1  0  0  0  0
M  CHG  1  82   1
M  ISO  4  40 100  67 101  81 100  90 101
M  END
> <Batch ID>
0048

> <Smiles>
CNC(C)C(=O)NC(C(=O)N1Cc2cc([101O:1][101CH2:1]CN3CCCC(c4ccc(C[100NH:0][100C:0](=O)N5CCCC(n6nc(-c7ccc(Oc8ccc(F)cc8F)cc7)c(C(N)=O)c6N)C5)cc4CN=C(C)C)C3=O)ccc2CC1C(=O)NC1CCCc2ccccc21)C(C)(C)C

> <Shape>
0.176

> <Color>
0.067

> <Negative vol penalty>
0.000

$$$$

  -OEChem-04042322293D

 88 96  0     1  0  0  0  0  0999 V2000
  -24.5967  -31.0296   12.0529 C   0  0  0  0  0  0  0  0  0  0  0  0
  -24.2097  -30.5956   13.3168 C   0  0  0  0  0  0  0  0  0  0  0  0
  -31.3365  -19.0529   20.5435 C   0  0  0  0  0  0  0  0  0  0  0  0
  -23.0277   -9.8976   19.9711 C   0  0  0  0  0  0  0  0  0  0  0  0
  -23.7602   -9.9417   22.2730 C   0  0  0  0  0  0  0  0  0  0  0  0
  -25.4547  -30.2474   11.2809 C   0  0  0  0  0  0  0  0  0  0  0  0
  -24.6797  -29.3785   13.8090 C   0  0  0  0  0  0  0  0  0  0  0  0
  -26.0274  -28.0350   19.6300 C   0  0  0  0  0  0  0  0  0  0  0  0
  -30.6090  -19.8781   21.4010 C   0  0  0  0  0  0  0  0  0  0  0  0
  -31.1452  -17.6715   20.5760 C   0  0  0  0  0  0  0  0  0  0  0  0
  -22.2742   -8.7533   20.2328 C   0  0  0  0  0  0  0  0  0  0  0  0
  -23.0066   -8.7975   22.5347 C   0  0  0  0  0  0  0  0  0  0  0  0
  -25.3133  -27.3766   20.6302 C   0  0  0  0  0  0  0  0  0  0  0  0
  -23.2846   -5.4644   22.0408 C   0  0  0  0  0  0  0  0  0  0  0  0
  -23.8855   -4.4487   22.7845 C   0  0  0  0  0  0  0  0  0  0  0  0
  -26.4527  -25.3220   20.0828 C   0  0  0  0  0  0  0  0  0  0  0  0
  -22.1648   -4.6628   24.4670 C   0  0  0  0  0  0  0  0  0  0  0  0
  -23.7708  -10.4917   20.9912 C   0  0  0  0  0  0  0  0  0  0  0  0
  -24.1288  -13.0123   20.8298 C   0  0  0  0  0  0  0  0  0  0  0  0
  -25.9431  -29.0247   11.7678 C   0  0  0  0  0  0  0  0  0  0  0  0
  -26.9531  -27.3382   18.8401 C   0  0  0  0  0  0  0  0  0  0  0  0
  -25.5440  -28.5786   13.0422 C   0  0  0  0  0  0  0  0  0  0  0  0
  -27.1791  -25.9744   19.0749 C   0  0  0  0  0  0  0  0  0  0  0  0
  -29.6903  -19.3220   22.2911 C   0  0  0  0  0  0  0  0  0  0  0  0
  -29.4990  -17.9407   22.3237 C   0  0  0  0  0  0  0  0  0  0  0  0
  -30.2265  -17.1155   21.4661 C   0  0  0  0  0  0  0  0  0  0  0  0
  -22.2636   -8.2033   21.5146 C   0  0  0  0  0  0  0  0  0  0  0  0
  -25.5238  -26.0193   20.8548 C   0  0  0  0  0  0  0  0  0  0  0  0
  -22.1239   -6.0793   22.5102 C   0  0  0  0  0  0  0  0  0  0  0  0
  -23.3256   -4.0479   23.9975 C   0  0  0  0  0  0  0  0  0  0  0  0
  -21.5640   -5.6785   23.7233 C   0  0  0  0  0  0  0  0  0  0  0  0
  -24.5499  -11.6734   20.7213 C   0  0  0  0  0  0  0  0  0  0  0  0
  -25.2296  -13.7489   20.4663 C   0  0  0  0  0  0  0  0  0  0  0  0
  -22.8565  -13.5428   21.2241 C   0  0  0  0  0  0  0  0  0  0  0  0
  -27.2149  -26.6860   15.7401 C   0  0  0  0  0  0  0  0  0  0  0  0
  -30.0820  -25.4627   16.6378 C   0  0  0  0  0  0  0  0  0  0  0  0
  -26.6451  -21.2282   23.4177 C   0  0  0  0  0  0  0  0  0  0  0  0
  -24.2373  -23.4398   23.1303 C   0  0  0  0  0  0  0  0  0  0  0  0
  -32.0187  -24.1376   19.1157 C   0  0  0  0  0  0  0  0  0  0  0  0
  -30.6994  -14.7666   20.6880 C   0  0  0  0  0  0  0  0  0  0  0  0
  -26.8308  -28.1915   10.8777 C   0  0  0  0  0  0  0  0  0  0  0  0
  -27.7348  -28.0689   17.7830 C   0  0  0  0  0  0  0  0  0  0  0  0
  -28.1765  -25.1854   18.2680 C   0  0  0  0  0  0  0  0  0  0  0  0
  -27.5820  -27.0920   11.6241 C   0  0  0  0  0  0  0  0  0  0  0  0
  -29.5992  -12.3167   18.3503 C   0  0  0  0  0  0  0  0  0  0  0  0
  -26.6386  -26.3398   12.5573 C   0  0  0  0  0  0  0  0  0  0  0  0
  -28.1529  -12.0411   18.7677 C   0  0  0  0  0  0  0  0  0  0  0  0
  -30.5012  -12.5620   19.5586 C   0  0  0  0  0  0  0  0  0  0  0  0
  -28.5822  -13.3221   20.9035 C   0  0  0  0  0  0  0  0  0  0  0  0
  -26.0523  -27.2760   13.6209 C   0  0  1  0  0  0  0  0  0  0  0  0
  -28.2784  -27.1459   16.6968 C   0  0  1  0  0  0  0  0  0  0  0  0
  -27.6225  -13.1331   19.7174 C   0  0  2  0  0  0  0  0  0  0  0  0
  -28.5120  -17.3487   23.2804 C   0  0  0  0  0  0  0  0  0  0  0  0
  -34.3067  -23.1970   19.5375 C   0  0  0  0  0  0  0  0  0  0  0  0
  -29.2696  -22.8702   15.2489 C   0  0  0  0  0  0  0  0  0  0  0  0
  -31.1096  -21.7108   16.4893 C   0  0  0  0  0  0  0  0  0  0  0  0
  -31.6504  -23.5453   14.8879 C   0  0  0  0  0  0  0  0  0  0  0  0
  -23.6149  -21.4551   24.5180 C   0  0  0  0  0  0  0  0  0  0  0  0
  -32.6435  -26.2401   21.1027 C   0  0  0  0  0  0  0  0  0  0  0  0
  -28.9205  -20.2331   23.2030 C   0  0  0  0  0  0  0  0  0  0  0  0
  -25.2998  -21.2076   22.7381 C   0  0  0  0  0  0  0  0  0  0  0  0
  -25.0933  -23.9831   22.0056 C   0  0  0  0  0  0  0  0  0  1  0  0
  -30.5696  -24.1116   17.1022 C   0  0  1  0  0  0  0  0  0  0  0  0
  -33.4379  -24.4451   19.5582 C   0  0  2  0  0  0  0  0  0  0  0  0
  -30.6295  -23.0736   15.9462 C   0  0  0  0  0  0  0  0  0  0  0  0
  -25.8191  -11.5628   20.3201 N   0  0  0  0  0  0  0  0  0  0  0  0
  -26.2050  -12.8417   20.1732 N   0  0  0  0  0  0  0  0  0  0  0  0
  -28.9115  -25.9432   17.2418 N   0  0  0  0  0  0  0  0  0  0  0  0
  -29.9379  -13.6117   20.4105 N   0  0  0  0  0  0  0  0  0  0  0  0
  -25.4487  -15.0776   20.3719 N   0  0  0  0  0  0  0  0  0  0  0  0
  -21.8353  -12.6456   21.5654 N   0  0  0  0  0  0  0  0  0  0  0  0
  -30.0477  -15.7099   21.4818 N   0  0  0  0  0  0  0  0  0  0  0  0
  -27.0246  -27.5296   14.6624 N   0  0  0  0  0  0  0  0  0  0  0  0
  -27.5526  -20.4031   22.7689 N   0  0  0  0  0  0  0  0  0  0  0  0
  -31.8493  -24.3445   17.7630 N   0  0  0  0  0  0  0  0  0  0  0  0
  -24.3777  -22.0890   23.4498 N   0  0  0  0  0  0  0  0  0  0  0  0
  -33.4408  -24.9968   20.9425 N   0  3  0  0  0  0  0  0  0  0  0  0
  -22.6268  -14.7756   21.2564 O   0  0  0  0  0  0  0  0  0  0  0  0
  -26.6126  -25.6422   15.9625 O   0  0  0  0  0  0  0  0  0  0  0  0
  -30.7201  -26.0725   15.7761 O   0  0  0  0  0  0  0  0  0  0  0  0
  -26.8872  -21.8998   24.4171 O   0  0  0  0  0  0  0  0  0  0  0  0
  -23.4668  -24.2085   23.7137 O   0  0  0  0  0  0  0  0  0  0  0  0
  -31.1485  -23.7489   19.8917 O   0  0  0  0  0  0  0  0  0  0  0  0
  -31.8350  -14.9204   20.2311 O   0  0  0  0  0  0  0  0  0  0  0  0
  -21.5282   -7.0869   21.7704 O   0  0  0  0  0  0  0  0  0  0  0  0
  -24.8276  -25.3741   21.8300 O   0  0  0  0  0  0  0  0  0  1  0  0
  -23.9018   -3.0715   24.7108 F   0  0  0  0  0  0  0  0  0  0  0  0
  -20.4484   -6.2647   24.1788 F   0  0  0  0  0  0  0  0  0  0  0  0
  1  2  1  0  0  0  0
  1  6  2  0  0  0  0
  2  7  2  0  0  0  0
  3  9  2  0  0  0  0
  3 10  1  0  0  0  0
  4 11  2  0  0  0  0
  4 18  1  0  0  0  0
  5 12  1  0  0  0  0
  5 18  2  0  0  0  0
  6 20  1  0  0  0  0
  7 22  1  0  0  0  0
  8 13  2  0  0  0  0
  8 21  1  0  0  0  0
  9 24  1  0  0  0  0
 10 26  2  0  0  0  0
 11 27  1  0  0  0  0
 12 27  2  0  0  0  0
 13 28  1  0  0  0  0
 14 15  2  0  0  0  0
 14 29  1  0  0  0  0
 15 30  1  0  0  0  0
 16 23  1  0  0  0  0
 16 28  2  0  0  0  0
 17 30  2  0  0  0  0
 17 31  1  0  0  0  0
 18 32  1  0  0  0  0
 19 32  1  0  0  0  0
 19 33  2  0  0  0  0
 19 34  1  0  0  0  0
 20 22  2  0  0  0  0
 20 41  1  0  0  0  0
 21 23  2  0  0  0  0
 21 42  1  0  0  0  0
 22 50  1  0  0  0  0
 23 43  1  0  0  0  0
 24 25  2  0  0  0  0
 24 60  1  0  0  0  0
 25 26  1  0  0  0  0
 25 53  1  0  0  0  0
 26 72  1  0  0  0  0
 27 85  1  0  0  0  0
 28 86  1  0  0  0  0
 29 31  2  0  0  0  0
 29 85  1  0  0  0  0
 30 87  1  0  0  0  0
 31 88  1  0  0  0  0
 32 66  2  0  0  0  0
 33 67  1  0  0  0  0
 33 70  1  0  0  0  0
 34 71  1  0  0  0  0
 34 78  2  0  0  0  0
 35 51  1  0  0  0  0
 35 73  1  0  0  0  0
 35 79  2  0  0  0  0
 36 63  1  0  0  0  0
 36 68  1  0  0  0  0
 36 80  2  0  0  0  0
 37 61  1  0  0  0  0
 37 74  1  0  0  0  0
 37 81  2  0  0  0  0
 38 62  1  0  0  0  0
 38 76  1  0  0  0  0
 38 82  2  0  0  0  0
 39 64  1  0  0  0  0
 39 75  1  0  0  0  0
 39 83  2  0  0  0  0
 40 69  1  0  0  0  0
 40 72  1  0  0  0  0
 40 84  2  0  0  0  0
 41 44  1  0  0  0  0
 42 51  1  0  0  0  0
 43 68  1  0  0  0  0
 44 46  1  0  0  0  0
 45 47  1  0  0  0  0
 45 48  1  0  0  0  0
 46 50  1  0  0  0  0
 47 52  1  0  0  0  0
 48 69  1  0  0  0  0
 49 52  1  0  0  0  0
 49 69  1  0  0  0  0
 50 73  1  0  0  0  0
 51 68  1  0  0  0  0
 52 67  1  0  0  0  0
 54 64  1  0  0  0  0
 55 65  1  0  0  0  0
 56 65  1  0  0  0  0
 57 65  1  0  0  0  0
 58 76  1  0  0  0  0
 59 77  1  0  0  0  0
 60 74  1  0  0  0  0
 61 76  1  0  0  0  0
 62 86  1  0  0  0  0
 63 65  1  0  0  0  0
 63 75  1  0  0  0  0
 64 77  1  0  0  0  0
 66 67  1  0  0  0  0
M  CHG  1  77   1
M  ISO  4  40 100  62 101  72 100  86 101
M  END
> <Batch ID>
0048

> <Smiles>
CNC(C)C(=O)NC(C(=O)N1Cc2cc([101O:1][101CH2:1]C(=O)N(C)CC(=O)NCc3cccc([100NH:0][100C:0](=O)N4CCCC(n5nc(-c6ccc(Oc7ccc(F)cc7F)cc6)c(C(N)=O)c5N)C4)c3C)ccc2CC1C(=O)NC1CCCc2ccccc21)C(C)(C)C

> <Shape>
0.235

> <Color>
0.197

> <Negative vol penalty>
0.000

$$$$

  -OEChem-04042322293D

 85 93  0     1  0  0  0  0  0999 V2000
  -17.6164  -25.2255   23.6200 C   0  0  0  0  0  0  0  0  0  0  0  0
  -18.9254  -25.1710   23.1522 C   0  0  0  0  0  0  0  0  0  0  0  0
  -24.1613   -8.9301   20.8785 C   0  0  0  0  0  0  0  0  0  0  0  0
  -22.9200  -10.9998   20.7662 C   0  0  0  0  0  0  0  0  0  0  0  0
  -16.9533  -26.4499   23.6916 C   0  0  0  0  0  0  0  0  0  0  0  0
  -19.5718  -26.3409   22.7546 C   0  0  0  0  0  0  0  0  0  0  0  0
  -24.3075  -26.6409   24.5231 C   0  0  0  0  0  0  0  0  0  0  0  0
  -29.6238  -19.9653   16.8555 C   0  0  0  0  0  0  0  0  0  0  0  0
  -23.0660   -8.3055   21.4747 C   0  0  0  0  0  0  0  0  0  0  0  0
  -21.8246  -10.3751   21.3624 C   0  0  0  0  0  0  0  0  0  0  0  0
  -25.2810  -25.8886   23.8672 C   0  0  0  0  0  0  0  0  0  0  0  0
  -21.6548   -8.1468   24.5419 C   0  0  0  0  0  0  0  0  0  0  0  0
  -21.8969   -7.3330   25.6486 C   0  0  0  0  0  0  0  0  0  0  0  0
  -28.9898  -18.8926   16.2287 C   0  0  0  0  0  0  0  0  0  0  0  0
  -25.9946  -27.8615   22.6765 C   0  0  0  0  0  0  0  0  0  0  0  0
  -30.1021  -18.5662   18.7662 C   0  0  0  0  0  0  0  0  0  0  0  0
  -20.9645   -5.4449   24.4642 C   0  0  0  0  0  0  0  0  0  0  0  0
  -24.0884  -10.2773   20.5242 C   0  0  0  0  0  0  0  0  0  0  0  0
  -25.5002  -11.0171   18.5325 C   0  0  0  0  0  0  0  0  0  0  0  0
  -17.5952  -27.6366   23.3037 C   0  0  0  0  0  0  0  0  0  0  0  0
  -24.1629  -28.0091   24.2522 C   0  0  0  0  0  0  0  0  0  0  0  0
  -18.9162  -27.5821   22.8198 C   0  0  0  0  0  0  0  0  0  0  0  0
  -25.0203  -28.6294   23.3322 C   0  0  0  0  0  0  0  0  0  0  0  0
  -30.1800  -19.8021   18.1243 C   0  0  0  0  0  0  0  0  0  0  0  0
  -29.4680  -17.4935   18.1394 C   0  0  0  0  0  0  0  0  0  0  0  0
  -21.8976   -9.0279   21.7166 C   0  0  0  0  0  0  0  0  0  0  0  0
  -26.1228  -26.4983   22.9416 C   0  0  0  0  0  0  0  0  0  0  0  0
  -21.0674   -7.6096   23.3964 C   0  0  0  0  0  0  0  0  0  0  0  0
  -21.5518   -5.9821   25.6098 C   0  0  0  0  0  0  0  0  0  0  0  0
  -20.7223   -6.2587   23.3575 C   0  0  0  0  0  0  0  0  0  0  0  0
  -28.9118  -17.6567   16.8707 C   0  0  0  0  0  0  0  0  0  0  0  0
  -25.2198  -10.9233   19.9088 C   0  0  0  0  0  0  0  0  0  0  0  0
  -26.6779  -11.7210   18.4692 C   0  0  0  0  0  0  0  0  0  0  0  0
  -28.4426  -22.9524   20.8767 C   0  0  0  0  0  0  0  0  0  0  0  0
  -27.5309  -23.9343   20.8585 C   0  0  0  0  0  0  0  0  0  0  0  0
  -24.7621  -10.5130   17.4114 C   0  0  0  0  0  0  0  0  0  0  0  0
  -29.1481  -22.5576   19.6263 C   0  0  0  0  0  0  0  0  0  0  0  0
  -21.8387  -29.8289   23.0730 C   0  0  0  0  0  0  0  0  0  0  0  0
  -23.8673  -32.2403   23.8427 C   0  0  0  0  0  0  0  0  0  0  0  0
  -27.0718  -33.2517   24.4386 C   0  0  0  0  0  0  0  0  0  0  0  0
  -29.9151  -15.9541   20.0829 C   0  0  0  0  0  0  0  0  0  0  0  0
  -16.8216  -28.9303   23.3544 C   0  0  0  0  0  0  0  0  0  0  0  0
  -23.1255  -28.8122   24.9879 C   0  0  0  0  0  0  0  0  0  0  0  0
  -24.9193  -30.0995   23.0207 C   0  0  0  0  0  0  0  0  0  0  0  0
  -17.7051  -30.1721   23.2668 C   0  0  0  0  0  0  0  0  0  0  0  0
  -29.9315  -13.0328   22.1182 C   0  0  0  0  0  0  0  0  0  0  0  0
  -18.7271  -30.0222   22.1444 C   0  0  0  0  0  0  0  0  0  0  0  0
  -28.7302  -12.2313   21.6116 C   0  0  0  0  0  0  0  0  0  0  0  0
  -29.6564  -14.5354   22.1065 C   0  0  0  0  0  0  0  0  0  0  0  0
  -27.9858  -14.2692   20.3156 C   0  0  0  0  0  0  0  0  0  0  0  0
  -19.6596  -28.8325   22.4026 C   0  0  1  0  0  0  0  0  0  0  0  0
  -22.7288  -30.0901   24.2551 C   0  0  1  0  0  0  0  0  0  0  0  0
  -28.2385  -12.7542   20.2477 C   0  0  2  0  0  0  0  0  0  0  0  0
  -28.4207  -35.2901   25.0062 C   0  0  0  0  0  0  0  0  0  0  0  0
  -23.6023  -33.2145   20.9633 C   0  0  0  0  0  0  0  0  0  0  0  0
  -25.6417  -34.6209   21.3251 C   0  0  0  0  0  0  0  0  0  0  0  0
  -23.5901  -35.0294   22.6840 C   0  0  0  0  0  0  0  0  0  0  0  0
  -28.0210  -32.0593   26.9755 C   0  0  0  0  0  0  0  0  0  0  0  0
  -30.8628  -20.9569   18.7984 C   0  0  0  0  0  0  0  0  0  0  0  0
  -26.7885  -24.3861   22.0747 C   0  0  0  0  0  0  0  0  0  1  0  0
  -24.9827  -32.9672   23.1311 C   0  0  1  0  0  0  0  0  0  0  0  0
  -27.6739  -34.0847   25.5557 C   0  0  2  0  0  0  0  0  0  0  0  0
  -24.4551  -33.9299   22.0301 C   0  0  0  0  0  0  0  0  0  0  0  0
  -26.1450  -11.5198   20.6654 N   0  0  0  0  0  0  0  0  0  0  0  0
  -27.0183  -11.9951   19.7612 N   0  0  0  0  0  0  0  0  0  0  0  0
  -23.8851  -30.8407   23.7613 N   0  0  0  0  0  0  0  0  0  0  0  0
  -29.1987  -14.9595   20.7816 N   0  0  0  0  0  0  0  0  0  0  0  0
  -27.4453  -12.1260   17.4350 N   0  0  0  0  0  0  0  0  0  0  0  0
  -23.5730   -9.8122   17.6549 N   0  0  0  0  0  0  0  0  0  0  0  0
  -29.4051  -16.2520   18.8196 N   0  0  0  0  0  0  0  0  0  0  0  0
  -30.0486  -21.5294   19.8471 N   0  0  0  0  0  0  0  0  0  0  0  0
  -20.6604  -29.1796   23.3886 N   0  0  0  0  0  0  0  0  0  0  0  0
  -25.7710  -33.6218   24.1696 N   0  0  0  0  0  0  0  0  0  0  0  0
  -28.6275  -33.2658   26.3562 N   0  3  0  0  0  0  0  0  0  0  0  0
  -25.1542  -10.6650   16.2296 O   0  0  0  0  0  0  0  0  0  0  0  0
  -28.9303  -23.0996   18.5477 O   0  0  0  0  0  0  0  0  0  0  0  0
  -22.1939  -30.1910   21.9575 O   0  0  0  0  0  0  0  0  0  0  0  0
  -23.0157  -32.8901   24.4544 O   0  0  0  0  0  0  0  0  0  0  0  0
  -27.6944  -32.3641   23.8597 O   0  0  0  0  0  0  0  0  0  0  0  0
  -30.9239  -16.4819   20.5581 O   0  0  0  0  0  0  0  0  0  0  0  0
  -20.8284   -8.4186   22.2982 O   0  0  0  0  0  0  0  0  0  0  0  0
  -27.0734  -25.7662   22.2995 O   0  0  0  0  0  0  0  0  0  1  0  0
  -21.7858   -5.2004   26.6720 F   0  0  0  0  0  0  0  0  0  0  0  0
  -20.1589   -5.7367   22.2594 F   0  0  0  0  0  0  0  0  0  0  0  0
  -28.1173  -16.3554   16.0582 Cl  0  0  0  0  0  0  0  0  0  0  0  0
  1  2  1  0  0  0  0
  1  5  2  0  0  0  0
  2  6  2  0  0  0  0
  3  9  2  0  0  0  0
  3 18  1  0  0  0  0
  4 10  1  0  0  0  0
  4 18  2  0  0  0  0
  5 20  1  0  0  0  0
  6 22  1  0  0  0  0
  7 11  2  0  0  0  0
  7 21  1  0  0  0  0
  8 14  2  0  0  0  0
  8 24  1  0  0  0  0
  9 26  1  0  0  0  0
 10 26  2  0  0  0  0
 11 27  1  0  0  0  0
 12 13  2  0  0  0  0
 12 28  1  0  0  0  0
 13 29  1  0  0  0  0
 14 31  1  0  0  0  0
 15 23  1  0  0  0  0
 15 27  2  0  0  0  0
 16 24  2  0  0  0  0
 16 25  1  0  0  0  0
 17 29  2  0  0  0  0
 17 30  1  0  0  0  0
 18 32  1  0  0  0  0
 19 32  1  0  0  0  0
 19 33  2  0  0  0  0
 19 36  1  0  0  0  0
 20 22  2  0  0  0  0
 20 42  1  0  0  0  0
 21 23  2  0  0  0  0
 21 43  1  0  0  0  0
 22 51  1  0  0  0  0
 23 44  1  0  0  0  0
 24 59  1  0  0  0  0
 25 31  2  0  0  0  0
 25 70  1  0  0  0  0
 26 81  1  0  0  0  0
 27 82  1  0  0  0  0
 28 30  2  0  0  0  0
 28 81  1  0  0  0  0
 29 83  1  0  0  0  0
 30 84  1  0  0  0  0
 31 85  1  0  0  0  0
 32 64  2  0  0  0  0
 33 65  1  0  0  0  0
 33 68  1  0  0  0  0
 34 35  2  0  0  0  0
 34 37  1  0  0  0  0
 35 60  1  0  0  0  0
 36 69  1  0  0  0  0
 36 75  2  0  0  0  0
 37 71  1  0  0  0  0
 37 76  2  0  0  0  0
 38 52  1  0  0  0  0
 38 72  1  0  0  0  0
 38 77  2  0  0  0  0
 39 61  1  0  0  0  0
 39 66  1  0  0  0  0
 39 78  2  0  0  0  0
 40 62  1  0  0  0  0
 40 73  1  0  0  0  0
 40 79  2  0  0  0  0
 41 67  1  0  0  0  0
 41 70  1  0  0  0  0
 41 80  2  0  0  0  0
 42 45  1  0  0  0  0
 43 52  1  0  0  0  0
 44 66  1  0  0  0  0
 45 47  1  0  0  0  0
 46 48  1  0  0  0  0
 46 49  1  0  0  0  0
 47 51  1  0  0  0  0
 48 53  1  0  0  0  0
 49 67  1  0  0  0  0
 50 53  1  0  0  0  0
 50 67  1  0  0  0  0
 51 72  1  0  0  0  0
 52 66  1  0  0  0  0
 53 65  1  0  0  0  0
 54 62  1  0  0  0  0
 55 63  1  0  0  0  0
 56 63  1  0  0  0  0
 57 63  1  0  0  0  0
 58 74  1  0  0  0  0
 59 71  1  0  0  0  0
 60 82  1  0  0  0  0
 61 63  1  0  0  0  0
 61 73  1  0  0  0  0
 62 74  1  0  0  0  0
 64 65  1  0  0  0  0
M  CHG  1  74   1
M  ISO  4  41 100  60 101  70 100  82 101
M  END
> <Batch ID>
0048

> <Smiles>
CNC(C)C(=O)NC(C(=O)N1Cc2cc([101O:1][101CH2:1]C=CC(=O)NCc3ccc(Cl)c([100NH:0][100C:0](=O)N4CCCC(n5nc(-c6ccc(Oc7ccc(F)cc7F)cc6)c(C(N)=O)c5N)C4)c3)ccc2CC1C(=O)NC1CCCc2ccccc21)C(C)(C)C

> <Shape>
0.289

> <Color>
0.094

> <Negative vol penalty>
0.000

$$$$

  -OEChem-04042322293D

 86 94  0     1  0  0  0  0  0999 V2000
  -18.5753  -27.0456   23.1625 C   0  0  0  0  0  0  0  0  0  0  0  0
  -19.4321  -26.1310   22.5587 C   0  0  0  0  0  0  0  0  0  0  0  0
  -31.6076  -18.6103   23.7515 C   0  0  0  0  0  0  0  0  0  0  0  0
  -23.3801   -9.6469   20.0043 C   0  0  0  0  0  0  0  0  0  0  0  0
  -23.7507  -10.0349   22.3599 C   0  0  0  0  0  0  0  0  0  0  0  0
  -19.0273  -28.3302   23.4615 C   0  0  0  0  0  0  0  0  0  0  0  0
  -20.7413  -26.5008   22.2524 C   0  0  0  0  0  0  0  0  0  0  0  0
  -24.1153  -22.9527   23.5454 C   0  0  0  0  0  0  0  0  0  0  0  0
  -30.6446  -19.4901   24.2457 C   0  0  0  0  0  0  0  0  0  0  0  0
  -31.2302  -17.5643   22.9094 C   0  0  0  0  0  0  0  0  0  0  0  0
  -22.7041   -8.4645   20.3053 C   0  0  0  0  0  0  0  0  0  0  0  0
  -23.0746   -8.8525   22.6610 C   0  0  0  0  0  0  0  0  0  0  0  0
  -24.2364  -21.8510   22.6997 C   0  0  0  0  0  0  0  0  0  0  0  0
  -19.8693   -7.8046   22.8806 C   0  0  0  0  0  0  0  0  0  0  0  0
  -18.9367   -7.8391   23.9173 C   0  0  0  0  0  0  0  0  0  0  0  0
  -26.2037  -22.8350   21.7093 C   0  0  0  0  0  0  0  0  0  0  0  0
  -20.1978   -6.1569   25.1077 C   0  0  0  0  0  0  0  0  0  0  0  0
  -23.9035  -10.4321   21.0316 C   0  0  0  0  0  0  0  0  0  0  0  0
  -24.0486  -12.9415   20.5963 C   0  0  0  0  0  0  0  0  0  0  0  0
  -20.3455  -28.7129   23.1676 C   0  0  0  0  0  0  0  0  0  0  0  0
  -25.0327  -24.0107   23.4718 C   0  0  0  0  0  0  0  0  0  0  0  0
  -21.2109  -27.7922   22.5466 C   0  0  0  0  0  0  0  0  0  0  0  0
  -26.0935  -23.9479   22.5570 C   0  0  0  0  0  0  0  0  0  0  0  0
  -29.3040  -19.3237   23.8979 C   0  0  0  0  0  0  0  0  0  0  0  0
  -28.9265  -18.2777   23.0558 C   0  0  0  0  0  0  0  0  0  0  0  0
  -29.8896  -17.3980   22.5616 C   0  0  0  0  0  0  0  0  0  0  0  0
  -22.5513   -8.0674   21.6337 C   0  0  0  0  0  0  0  0  0  0  0  0
  -25.2790  -21.7933   21.7795 C   0  0  0  0  0  0  0  0  0  0  0  0
  -20.9661   -6.9462   22.9574 C   0  0  0  0  0  0  0  0  0  0  0  0
  -19.1009   -7.0152   25.0308 C   0  0  0  0  0  0  0  0  0  0  0  0
  -21.1304   -6.1224   24.0710 C   0  0  0  0  0  0  0  0  0  0  0  0
  -24.6024  -11.6532   20.7212 C   0  0  0  0  0  0  0  0  0  0  0  0
  -25.1192  -13.7478   20.2960 C   0  0  0  0  0  0  0  0  0  0  0  0
  -22.6881  -13.3709   20.7391 C   0  0  0  0  0  0  0  0  0  0  0  0
  -24.8341  -27.1084   22.7872 C   0  0  0  0  0  0  0  0  0  0  0  0
  -27.9608  -27.1014   23.6510 C   0  0  0  0  0  0  0  0  0  0  0  0
  -30.8554  -25.3357   24.0389 C   0  0  0  0  0  0  0  0  0  0  0  0
  -30.3763  -15.3780   21.1371 C   0  0  0  0  0  0  0  0  0  0  0  0
  -20.7745  -30.1276   23.4665 C   0  0  0  0  0  0  0  0  0  0  0  0
  -24.9038  -25.1798   24.4094 C   0  0  0  0  0  0  0  0  0  0  0  0
  -27.1166  -25.0482   22.4521 C   0  0  0  0  0  0  0  0  0  0  0  0
  -22.2886  -30.3212   23.4508 C   0  0  0  0  0  0  0  0  0  0  0  0
  -29.8703  -12.5703   19.0069 C   0  0  0  0  0  0  0  0  0  0  0  0
  -22.8986  -29.6604   22.2187 C   0  0  0  0  0  0  0  0  0  0  0  0
  -28.4091  -12.1874   19.2527 C   0  0  0  0  0  0  0  0  0  0  0  0
  -30.5538  -13.0501   20.2861 C   0  0  0  0  0  0  0  0  0  0  0  0
  -28.3926  -13.7443   21.2434 C   0  0  0  0  0  0  0  0  0  0  0  0
  -22.6455  -28.1480   22.2215 C   0  0  1  0  0  0  0  0  0  0  0  0
  -25.5966  -26.4378   23.8947 C   0  0  1  0  0  0  0  0  0  0  0  0
  -27.6438  -13.3163   19.9706 C   0  0  2  0  0  0  0  0  0  0  0  0
  -33.2535  -25.6104   24.7252 C   0  0  0  0  0  0  0  0  0  0  0  0
  -25.7156  -18.2614   19.3667 C   0  0  0  0  0  0  0  0  0  0  0  0
  -27.7202  -19.8058   25.7735 C   0  0  0  0  0  0  0  0  0  0  0  0
  -28.5761  -28.4147   20.9665 C   0  0  0  0  0  0  0  0  0  0  0  0
  -30.9806  -27.7999   21.2957 C   0  0  0  0  0  0  0  0  0  0  0  0
  -29.8590  -29.3449   22.9012 C   0  0  0  0  0  0  0  0  0  0  0  0
  -30.5510  -23.4345   26.2866 C   0  0  0  0  0  0  0  0  0  0  0  0
  -27.4835  -18.1029   22.6844 C   0  0  0  0  0  0  0  0  0  0  0  0
  -24.9249  -19.4659   21.4425 C   0  0  0  0  0  0  0  0  0  1  0  0
  -29.2690  -26.8866   22.9288 C   0  0  1  0  0  0  0  0  0  0  0  0
  -31.8462  -25.2653   25.1869 C   0  0  2  0  0  0  0  0  0  0  0  0
  -25.7655  -18.3228   20.8847 C   0  0  2  0  0  0  0  0  0  0  0  0
  -28.2932  -20.2799   24.4410 C   0  0  0  0  0  0  0  0  0  0  0  0
  -29.6509  -28.0915   22.0234 C   0  0  0  0  0  0  0  0  0  0  0  0
  -25.9222  -11.6373   20.5168 N   0  0  0  0  0  0  0  0  0  0  0  0
  -26.2067  -12.9255   20.2603 N   0  0  0  0  0  0  0  0  0  0  0  0
  -26.9440  -26.1731   23.3862 N   0  0  0  0  0  0  0  0  0  0  0  0
  -29.7746  -14.1224   20.9089 N   0  0  0  0  0  0  0  0  0  0  0  0
  -25.2269  -15.0729   20.0615 N   0  0  0  0  0  0  0  0  0  0  0  0
  -21.7140  -12.4122   21.0495 N   0  0  0  0  0  0  0  0  0  0  0  0
  -29.5287  -16.3290   21.7044 N   0  0  0  0  0  0  0  0  0  0  0  0
  -23.5512  -27.4857   23.1355 N   0  0  0  0  0  0  0  0  0  0  0  0
  -30.2563  -26.5749   23.9566 N   0  0  0  0  0  0  0  0  0  0  0  0
  -31.8661  -23.8943   25.7707 N   0  3  0  0  0  0  0  0  0  0  0  0
  -27.1838  -18.5341   21.2953 N   0  3  0  0  0  0  0  0  0  0  0  0
  -22.3439  -14.5665   20.5796 O   0  0  0  0  0  0  0  0  0  0  0  0
  -25.3706  -27.2729   21.6978 O   0  0  0  0  0  0  0  0  0  0  0  0
  -27.8478  -28.0535   24.4271 O   0  0  0  0  0  0  0  0  0  0  0  0
  -30.6377  -24.3875   23.2879 O   0  0  0  0  0  0  0  0  0  0  0  0
  -31.5487  -15.6021   20.8252 O   0  0  0  0  0  0  0  0  0  0  0  0
  -21.8915   -6.9138   21.9278 O   0  0  0  0  0  0  0  0  0  0  0  0
  -25.3992  -20.7193   20.9524 O   0  0  0  0  0  0  0  0  0  1  0  0
  -18.2061   -7.0495   26.0269 F   0  0  0  0  0  0  0  0  0  0  0  0
  -22.1827   -5.2966   24.1510 F   0  0  0  0  0  0  0  0  0  0  0  0
  -27.2335  -20.4753   23.5936 F   0  0  0  0  0  0  0  0  0  0  0  0
  -28.8023  -21.5363   24.6455 F   0  0  0  0  0  0  0  0  0  0  0  0
  1  2  1  0  0  0  0
  1  6  2  0  0  0  0
  2  7  2  0  0  0  0
  3  9  2  0  0  0  0
  3 10  1  0  0  0  0
  4 11  2  0  0  0  0
  4 18  1  0  0  0  0
  5 12  1  0  0  0  0
  5 18  2  0  0  0  0
  6 20  1  0  0  0  0
  7 22  1  0  0  0  0
  8 13  2  0  0  0  0
  8 21  1  0  0  0  0
  9 24  1  0  0  0  0
 10 26  2  0  0  0  0
 11 27  1  0  0  0  0
 12 27  2  0  0  0  0
 13 28  1  0  0  0  0
 14 15  2  0  0  0  0
 14 29  1  0  0  0  0
 15 30  1  0  0  0  0
 16 23  1  0  0  0  0
 16 28  2  0  0  0  0
 17 30  2  0  0  0  0
 17 31  1  0  0  0  0
 18 32  1  0  0  0  0
 19 32  1  0  0  0  0
 19 33  2  0  0  0  0
 19 34  1  0  0  0  0
 20 22  2  0  0  0  0
 20 39  1  0  0  0  0
 21 23  2  0  0  0  0
 21 40  1  0  0  0  0
 22 48  1  0  0  0  0
 23 41  1  0  0  0  0
 24 25  2  0  0  0  0
 24 63  1  0  0  0  0
 25 26  1  0  0  0  0
 25 58  1  0  0  0  0
 26 71  1  0  0  0  0
 27 81  1  0  0  0  0
 28 82  1  0  0  0  0
 29 31  2  0  0  0  0
 29 81  1  0  0  0  0
 30 83  1  0  0  0  0
 31 84  1  0  0  0  0
 32 65  2  0  0  0  0
 33 66  1  0  0  0  0
 33 69  1  0  0  0  0
 34 70  1  0  0  0  0
 34 76  2  0  0  0  0
 35 49  1  0  0  0  0
 35 72  1  0  0  0  0
 35 77  2  0  0  0  0
 36 60  1  0  0  0  0
 36 67  1  0  0  0  0
 36 78  2  0  0  0  0
 37 61  1  0  0  0  0
 37 73  1  0  0  0  0
 37 79  2  0  0  0  0
 38 68  1  0  0  0  0
 38 71  1  0  0  0  0
 38 80  2  0  0  0  0
 39 42  1  0  0  0  0
 40 49  1  0  0  0  0
 41 67  1  0  0  0  0
 42 44  1  0  0  0  0
 43 45  1  0  0  0  0
 43 46  1  0  0  0  0
 44 48  1  0  0  0  0
 45 50  1  0  0  0  0
 46 68  1  0  0  0  0
 47 50  1  0  0  0  0
 47 68  1  0  0  0  0
 48 72  1  0  0  0  0
 49 67  1  0  0  0  0
 50 66  1  0  0  0  0
 51 61  1  0  0  0  0
 52 62  1  0  0  0  0
 53 63  1  0  0  0  0
 54 64  1  0  0  0  0
 55 64  1  0  0  0  0
 56 64  1  0  0  0  0
 57 74  1  0  0  0  0
 58 75  1  0  0  0  0
 59 62  1  0  0  0  0
 59 82  1  0  0  0  0
 60 64  1  0  0  0  0
 60 73  1  0  0  0  0
 61 74  1  0  0  0  0
 62 75  1  0  0  0  0
 63 85  1  0  0  0  0
 63 86  1  0  0  0  0
 65 66  1  0  0  0  0
M  CHG  2  74   1  75   1
M  ISO  4  38 100  59 101  71 100  82 101
M  END
> <Batch ID>
0048

> <Smiles>
CNC(C)C(=O)NC(C(=O)N1Cc2cc([101O:1][101CH2:1]C(C)NCc3c([100NH:0][100C:0](=O)N4CCCC(n5nc(-c6ccc(Oc7ccc(F)cc7F)cc6)c(C(N)=O)c5N)C4)cccc3C(C)(F)F)ccc2CC1C(=O)NC1CCCc2ccccc21)C(C)(C)C

> <Shape>
0.243

> <Color>
0.172

> <Negative vol penalty>
0.000

$$$$

  -OEChem-04042322293D

 86 94  0     1  0  0  0  0  0999 V2000
  -17.6747  -25.2085   25.1413 C   0  0  0  0  0  0  0  0  0  0  0  0
  -19.0329  -24.9075   25.1390 C   0  0  0  0  0  0  0  0  0  0  0  0
  -30.8527  -19.4413   21.0824 C   0  0  0  0  0  0  0  0  0  0  0  0
  -23.3246   -9.6878   19.9085 C   0  0  0  0  0  0  0  0  0  0  0  0
  -23.5512  -10.0267   22.2899 C   0  0  0  0  0  0  0  0  0  0  0  0
  -29.9199  -20.2959   21.6699 C   0  0  0  0  0  0  0  0  0  0  0  0
  -17.2112  -26.3390   24.4697 C   0  0  0  0  0  0  0  0  0  0  0  0
  -19.9284  -25.7363   24.4640 C   0  0  0  0  0  0  0  0  0  0  0  0
  -24.0927  -26.7134   27.1749 C   0  0  0  0  0  0  0  0  0  0  0  0
  -30.7286  -18.0606   21.2379 C   0  0  0  0  0  0  0  0  0  0  0  0
  -22.5914   -8.5247   20.1438 C   0  0  0  0  0  0  0  0  0  0  0  0
  -22.8180   -8.8637   22.5252 C   0  0  0  0  0  0  0  0  0  0  0  0
  -25.0662  -25.7168   27.2280 C   0  0  0  0  0  0  0  0  0  0  0  0
  -23.3618   -5.5269   22.4947 C   0  0  0  0  0  0  0  0  0  0  0  0
  -23.8425   -4.6419   23.4597 C   0  0  0  0  0  0  0  0  0  0  0  0
  -26.3397  -26.8794   25.5411 C   0  0  0  0  0  0  0  0  0  0  0  0
  -21.7967   -4.9032   24.7182 C   0  0  0  0  0  0  0  0  0  0  0  0
  -23.8045  -10.4388   20.9816 C   0  0  0  0  0  0  0  0  0  0  0  0
  -28.8631  -19.7700   22.4129 C   0  0  0  0  0  0  0  0  0  0  0  0
  -24.0610  -12.9482   20.6009 C   0  0  0  0  0  0  0  0  0  0  0  0
  -18.1026  -27.1874   23.7943 C   0  0  0  0  0  0  0  0  0  0  0  0
  -24.2302  -27.7967   26.2952 C   0  0  0  0  0  0  0  0  0  0  0  0
  -19.4762  -26.8785   23.7816 C   0  0  0  0  0  0  0  0  0  0  0  0
  -25.3677  -27.8898   25.4806 C   0  0  0  0  0  0  0  0  0  0  0  0
  -28.7389  -18.3893   22.5684 C   0  0  0  0  0  0  0  0  0  0  0  0
  -29.6717  -17.5347   21.9809 C   0  0  0  0  0  0  0  0  0  0  0  0
  -22.3381   -8.1127   21.4521 C   0  0  0  0  0  0  0  0  0  0  0  0
  -26.1885  -25.7982   26.4089 C   0  0  0  0  0  0  0  0  0  0  0  0
  -22.0986   -6.1001   22.6414 C   0  0  0  0  0  0  0  0  0  0  0  0
  -23.0599   -4.3300   24.5715 C   0  0  0  0  0  0  0  0  0  0  0  0
  -21.3161   -5.7882   23.7532 C   0  0  0  0  0  0  0  0  0  0  0  0
  -24.5624  -11.6400   20.7392 C   0  0  0  0  0  0  0  0  0  0  0  0
  -25.1751  -13.7220   20.3857 C   0  0  0  0  0  0  0  0  0  0  0  0
  -27.8856  -20.7063   23.0251 C   0  0  0  0  0  0  0  0  0  0  0  0
  -22.7090  -13.4215   20.6618 C   0  0  0  0  0  0  0  0  0  0  0  0
  -22.5649  -28.9061   23.8255 C   0  0  0  0  0  0  0  0  0  0  0  0
  -24.6987  -31.3443   23.9817 C   0  0  0  0  0  0  0  0  0  0  0  0
  -27.7850  -32.4361   24.9460 C   0  0  0  0  0  0  0  0  0  0  0  0
  -30.4162  -15.1587   21.5981 C   0  0  0  0  0  0  0  0  0  0  0  0
  -17.5490  -28.3720   23.0427 C   0  0  0  0  0  0  0  0  0  0  0  0
  -23.1842  -28.8772   26.2692 C   0  0  0  0  0  0  0  0  0  0  0  0
  -25.5726  -29.0428   24.5335 C   0  0  0  0  0  0  0  0  0  0  0  0
  -18.6089  -29.4041   22.6664 C   0  0  0  0  0  0  0  0  0  0  0  0
  -29.9596  -12.4029   19.3903 C   0  0  0  0  0  0  0  0  0  0  0  0
  -19.8334  -28.7183   22.0689 C   0  0  0  0  0  0  0  0  0  0  0  0
  -28.4735  -12.0664   19.5330 C   0  0  0  0  0  0  0  0  0  0  0  0
  -30.5725  -12.8394   20.7198 C   0  0  0  0  0  0  0  0  0  0  0  0
  -28.3769  -13.5922   21.5454 C   0  0  0  0  0  0  0  0  0  0  0  0
  -20.4818  -27.7667   23.0816 C   0  0  1  0  0  0  0  0  0  0  0  0
  -23.1764  -29.6700   24.9658 C   0  0  1  0  0  0  0  0  0  0  0  0
  -27.7001  -13.2096   20.2190 C   0  0  2  0  0  0  0  0  0  0  0  0
  -27.6043  -17.8262   23.3665 C   0  0  0  0  0  0  0  0  0  0  0  0
  -29.2578  -34.4674   24.9039 C   0  0  0  0  0  0  0  0  0  0  0  0
  -25.2828  -30.8566   21.0268 C   0  0  0  0  0  0  0  0  0  0  0  0
  -27.3690  -32.2161   21.2865 C   0  0  0  0  0  0  0  0  0  0  0  0
  -25.1408  -33.2670   21.6782 C   0  0  0  0  0  0  0  0  0  0  0  0
  -29.0673  -22.6333   26.6750 C   0  0  0  0  0  0  0  0  0  0  0  0
  -27.1190  -21.0530   26.6031 C   0  0  0  0  0  0  0  0  0  0  0  0
  -27.9049  -32.5531   27.9008 C   0  0  0  0  0  0  0  0  0  0  0  0
  -27.5802  -22.5768   24.6264 C   0  0  0  0  0  0  0  0  0  0  0  0
  -26.7072  -23.5105   26.8004 C   0  0  0  0  0  0  0  0  0  1  0  0
  -26.0504  -31.6229   23.3698 C   0  0  1  0  0  0  0  0  0  0  0  0
  -28.2243  -33.6811   25.6953 C   0  0  2  0  0  0  0  0  0  0  0  0
  -25.9562  -31.9678   21.8567 C   0  0  0  0  0  0  0  0  0  0  0  0
  -27.6258  -22.4400   26.1671 C   0  0  0  0  0  0  0  0  0  0  0  0
  -25.8916  -11.5822   20.6215 N   0  0  0  0  0  0  0  0  0  0  0  0
  -26.2349  -12.8637   20.4069 N   0  0  0  0  0  0  0  0  0  0  0  0
  -24.5188  -30.0709   24.5400 N   0  0  0  0  0  0  0  0  0  0  0  0
  -29.7897  -13.9279   21.3089 N   0  0  0  0  0  0  0  0  0  0  0  0
  -25.3419  -15.0460   20.1821 N   0  0  0  0  0  0  0  0  0  0  0  0
  -21.6853  -12.4920   20.8907 N   0  0  0  0  0  0  0  0  0  0  0  0
  -29.5649  -16.1292   22.1253 N   0  0  0  0  0  0  0  0  0  0  0  0
  -28.4030  -21.6221   23.9330 N   0  0  0  0  0  0  0  0  0  0  0  0
  -21.2596  -28.5114   24.0486 N   0  0  0  0  0  0  0  0  0  0  0  0
  -26.6594  -32.6689   24.1843 N   0  0  0  0  0  0  0  0  0  0  0  0
  -28.8208  -33.3111   27.0099 N   0  3  0  0  0  0  0  0  0  0  0  0
  -26.6982  -20.6155   22.7242 O   0  0  0  0  0  0  0  0  0  0  0  0
  -22.4157  -14.6305   20.5010 O   0  0  0  0  0  0  0  0  0  0  0  0
  -23.2278  -28.6921   22.8173 O   0  0  0  0  0  0  0  0  0  0  0  0
  -23.8367  -32.2266   23.9711 O   0  0  0  0  0  0  0  0  0  0  0  0
  -28.3828  -31.3652   25.0254 O   0  0  0  0  0  0  0  0  0  0  0  0
  -31.6134  -15.3473   21.3678 O   0  0  0  0  0  0  0  0  0  0  0  0
  -21.6225   -6.9779   21.6820 O   0  0  0  0  0  0  0  0  0  0  0  0
  -27.1400  -24.8266   26.4583 O   0  0  0  0  0  0  0  0  0  1  0  0
  -23.5210   -3.4789   25.4974 F   0  0  0  0  0  0  0  0  0  0  0  0
  -20.1013   -6.3349   23.8990 F   0  0  0  0  0  0  0  0  0  0  0  0
  1  2  1  0  0  0  0
  1  7  2  0  0  0  0
  2  8  2  0  0  0  0
  3  6  2  0  0  0  0
  3 10  1  0  0  0  0
  4 11  2  0  0  0  0
  4 18  1  0  0  0  0
  5 12  1  0  0  0  0
  5 18  2  0  0  0  0
  6 19  1  0  0  0  0
  7 21  1  0  0  0  0
  8 23  1  0  0  0  0
  9 13  2  0  0  0  0
  9 22  1  0  0  0  0
 10 26  2  0  0  0  0
 11 27  1  0  0  0  0
 12 27  2  0  0  0  0
 13 28  1  0  0  0  0
 14 15  2  0  0  0  0
 14 29  1  0  0  0  0
 15 30  1  0  0  0  0
 16 24  1  0  0  0  0
 16 28  2  0  0  0  0
 17 30  2  0  0  0  0
 17 31  1  0  0  0  0
 18 32  1  0  0  0  0
 19 25  2  0  0  0  0
 19 34  1  0  0  0  0
 20 32  1  0  0  0  0
 20 33  2  0  0  0  0
 20 35  1  0  0  0  0
 21 23  2  0  0  0  0
 21 40  1  0  0  0  0
 22 24  2  0  0  0  0
 22 41  1  0  0  0  0
 23 49  1  0  0  0  0
 24 42  1  0  0  0  0
 25 26  1  0  0  0  0
 25 52  1  0  0  0  0
 26 72  1  0  0  0  0
 27 83  1  0  0  0  0
 28 84  1  0  0  0  0
 29 31  2  0  0  0  0
 29 83  1  0  0  0  0
 30 85  1  0  0  0  0
 31 86  1  0  0  0  0
 32 66  2  0  0  0  0
 33 67  1  0  0  0  0
 33 70  1  0  0  0  0
 34 73  1  0  0  0  0
 34 77  2  0  0  0  0
 35 71  1  0  0  0  0
 35 78  2  0  0  0  0
 36 50  1  0  0  0  0
 36 74  1  0  0  0  0
 36 79  2  0  0  0  0
 37 62  1  0  0  0  0
 37 68  1  0  0  0  0
 37 80  2  0  0  0  0
 38 63  1  0  0  0  0
 38 75  1  0  0  0  0
 38 81  2  0  0  0  0
 39 69  1  0  0  0  0
 39 72  1  0  0  0  0
 39 82  2  0  0  0  0
 40 43  1  0  0  0  0
 41 50  1  0  0  0  0
 42 68  1  0  0  0  0
 43 45  1  0  0  0  0
 44 46  1  0  0  0  0
 44 47  1  0  0  0  0
 45 49  1  0  0  0  0
 46 51  1  0  0  0  0
 47 69  1  0  0  0  0
 48 51  1  0  0  0  0
 48 69  1  0  0  0  0
 49 74  1  0  0  0  0
 50 68  1  0  0  0  0
 51 67  1  0  0  0  0
 53 63  1  0  0  0  0
 54 64  1  0  0  0  0
 55 64  1  0  0  0  0
 56 64  1  0  0  0  0
 57 65  1  0  0  0  0
 58 65  1  0  0  0  0
 59 76  1  0  0  0  0
 60 65  1  0  0  0  0
 60 73  1  0  0  0  0
 61 65  1  0  0  0  0
 61 84  1  0  0  0  0
 62 64  1  0  0  0  0
 62 75  1  0  0  0  0
 63 76  1  0  0  0  0
 66 67  1  0  0  0  0
M  CHG  1  76   1
M  ISO  4  39 100  61 101  72 100  84 101
M  END
> <Batch ID>
0048

> <Smiles>
CNC(C)C(=O)NC(C(=O)N1Cc2cc([101O:1][101CH2:1]C(C)(C)CNC(=O)c3cccc([100NH:0][100C:0](=O)N4CCCC(n5nc(-c6ccc(Oc7ccc(F)cc7F)cc6)c(C(N)=O)c5N)C4)c3C)ccc2CC1C(=O)NC1CCCc2ccccc21)C(C)(C)C

> <Shape>
0.305

> <Color>
0.219

> <Negative vol penalty>
0.000

$$$$

  -OEChem-04042322293D

 87 95  0     1  0  0  0  0  0999 V2000
  -20.9438  -30.7290   14.8424 C   0  0  0  0  0  0  0  0  0  0  0  0
  -22.1887  -30.2664   15.2567 C   0  0  0  0  0  0  0  0  0  0  0  0
  -22.8521  -13.9872   24.7707 C   0  0  0  0  0  0  0  0  0  0  0  0
  -22.0172  -15.4902   23.0733 C   0  0  0  0  0  0  0  0  0  0  0  0
  -20.3545  -31.8149   15.4884 C   0  0  0  0  0  0  0  0  0  0  0  0
  -22.8455  -30.8903   16.3168 C   0  0  0  0  0  0  0  0  0  0  0  0
  -24.8253  -27.5772   19.5953 C   0  0  0  0  0  0  0  0  0  0  0  0
  -27.0440  -19.7792   18.3304 C   0  0  0  0  0  0  0  0  0  0  0  0
  -21.7990  -14.3502   25.6101 C   0  0  0  0  0  0  0  0  0  0  0  0
  -20.9640  -15.8532   23.9127 C   0  0  0  0  0  0  0  0  0  0  0  0
  -26.0191  -26.9562   19.2305 C   0  0  0  0  0  0  0  0  0  0  0  0
  -21.0132  -16.9312   27.6462 C   0  0  0  0  0  0  0  0  0  0  0  0
  -21.3133  -17.2023   28.9811 C   0  0  0  0  0  0  0  0  0  0  0  0
  -26.9729  -21.0428   17.7442 C   0  0  0  0  0  0  0  0  0  0  0  0
  -27.2412  -28.5012   20.6229 C   0  0  0  0  0  0  0  0  0  0  0  0
  -29.2111  -20.3264   19.2474 C   0  0  0  0  0  0  0  0  0  0  0  0
  -19.8339  -15.4227   29.6752 C   0  0  0  0  0  0  0  0  0  0  0  0
  -22.9613  -14.5573   23.5022 C   0  0  0  0  0  0  0  0  0  0  0  0
  -24.0663  -13.1335   21.6968 C   0  0  0  0  0  0  0  0  0  0  0  0
  -21.0001  -32.4463   16.5632 C   0  0  0  0  0  0  0  0  0  0  0  0
  -24.8315  -28.6735   20.4696 C   0  0  0  0  0  0  0  0  0  0  0  0
  -22.2650  -31.9865   16.9770 C   0  0  0  0  0  0  0  0  0  0  0  0
  -26.0459  -29.1327   20.9993 C   0  0  0  0  0  0  0  0  0  0  0  0
  -29.1402  -21.5901   18.6612 C   0  0  0  0  0  0  0  0  0  0  0  0
  -28.1631  -19.4209   19.0821 C   0  0  0  0  0  0  0  0  0  0  0  0
  -20.8549  -15.2832   25.1812 C   0  0  0  0  0  0  0  0  0  0  0  0
  -27.2275  -27.4201   19.7420 C   0  0  0  0  0  0  0  0  0  0  0  0
  -20.1234  -15.9059   27.3258 C   0  0  0  0  0  0  0  0  0  0  0  0
  -20.7237  -16.4481   29.9956 C   0  0  0  0  0  0  0  0  0  0  0  0
  -19.5338  -15.1517   28.3402 C   0  0  0  0  0  0  0  0  0  0  0  0
  -28.0210  -21.9483   17.9095 C   0  0  0  0  0  0  0  0  0  0  0  0
  -24.0493  -14.1831   22.6348 C   0  0  0  0  0  0  0  0  0  0  0  0
  -25.3181  -13.1955   21.1348 C   0  0  0  0  0  0  0  0  0  0  0  0
  -31.0982  -22.3057   23.6562 C   0  0  0  0  0  0  0  0  0  0  0  0
  -30.9815  -23.0711   22.5661 C   0  0  0  0  0  0  0  0  0  0  0  0
  -23.0422  -12.1871   21.3633 C   0  0  0  0  0  0  0  0  0  0  0  0
  -31.0365  -22.4537   21.2103 C   0  0  0  0  0  0  0  0  0  0  0  0
  -23.9560  -31.7214   20.2516 C   0  0  0  0  0  0  0  0  0  0  0  0
  -24.6469  -31.7417   23.4209 C   0  0  0  0  0  0  0  0  0  0  0  0
  -26.3666  -30.3513   26.0202 C   0  0  0  0  0  0  0  0  0  0  0  0
  -29.2725  -17.6233   20.4546 C   0  0  0  0  0  0  0  0  0  0  0  0
  -20.3450  -33.6464   17.1998 C   0  0  0  0  0  0  0  0  0  0  0  0
  -23.5328  -29.3154   20.8743 C   0  0  0  0  0  0  0  0  0  0  0  0
  -26.1049  -30.2933   21.9573 C   0  0  0  0  0  0  0  0  0  0  0  0
  -20.9379  -34.0153   18.5573 C   0  0  0  0  0  0  0  0  0  0  0  0
  -29.8085  -14.5285   22.1316 C   0  0  0  0  0  0  0  0  0  0  0  0
  -22.4619  -34.0139   18.4925 C   0  0  0  0  0  0  0  0  0  0  0  0
  -28.3942  -13.9903   22.3601 C   0  0  0  0  0  0  0  0  0  0  0  0
  -29.8684  -16.0476   22.2814 C   0  0  0  0  0  0  0  0  0  0  0  0
  -27.4844  -16.2523   21.6951 C   0  0  0  0  0  0  0  0  0  0  0  0
  -22.9977  -32.6212   18.1390 C   0  0  1  0  0  0  0  0  0  0  0  0
  -23.7031  -30.7486   21.3684 C   0  0  1  0  0  0  0  0  0  0  0  0
  -27.3611  -14.7335   21.4908 C   0  0  2  0  0  0  0  0  0  0  0  0
  -26.7575  -30.6088   28.4856 C   0  0  0  0  0  0  0  0  0  0  0  0
  -26.4734  -34.1252   22.8799 C   0  0  0  0  0  0  0  0  0  0  0  0
  -27.5309  -33.7335   25.1152 C   0  0  0  0  0  0  0  0  0  0  0  0
  -25.1083  -34.3097   24.9672 C   0  0  0  0  0  0  0  0  0  0  0  0
  -25.2736  -27.6611   26.5921 C   0  0  0  0  0  0  0  0  0  0  0  0
  -30.2887  -22.5357   18.8628 C   0  0  0  0  0  0  0  0  0  0  0  0
  -30.2926  -25.5762   20.1725 C   0  0  0  0  0  0  0  0  0  0  0  0
  -29.4955  -24.2985   20.3984 C   0  0  0  0  0  0  0  0  0  0  0  0
  -29.4533  -26.8366   20.3432 C   0  0  0  0  0  0  0  0  0  1  0  0
  -25.8828  -32.0142   24.2439 C   0  0  1  0  0  0  0  0  0  0  0  0
  -25.9242  -29.9297   27.4098 C   0  0  2  0  0  0  0  0  0  0  0  0
  -26.2482  -33.5250   24.2820 C   0  0  0  0  0  0  0  0  0  0  0  0
  -25.1990  -14.8621   22.6698 N   0  0  0  0  0  0  0  0  0  0  0  0
  -25.9502  -14.2377   21.7468 N   0  0  0  0  0  0  0  0  0  0  0  0
  -24.8088  -30.8916   22.3177 N   0  0  0  0  0  0  0  0  0  0  0  0
  -28.8648  -16.6841   21.4255 N   0  0  0  0  0  0  0  0  0  0  0  0
  -25.9287  -12.4597   20.1819 N   0  0  0  0  0  0  0  0  0  0  0  0
  -21.8155  -12.2650   22.0367 N   0  0  0  0  0  0  0  0  0  0  0  0
  -28.2345  -18.1375   19.6783 N   0  0  0  0  0  0  0  0  0  0  0  0
  -22.9568  -31.7549   19.2976 N   0  0  0  0  0  0  0  0  0  0  0  0
  -25.6374  -31.4256   25.5561 N   0  0  0  0  0  0  0  0  0  0  0  0
  -30.2915  -23.1172   20.2109 N   0  0  0  0  0  0  0  0  0  0  0  0
  -26.0601  -28.4545   27.5714 N   0  3  0  0  0  0  0  0  0  0  0  0
  -23.2157  -11.2885   20.5055 O   0  0  0  0  0  0  0  0  0  0  0  0
  -31.6856  -21.4212   21.0352 O   0  0  0  0  0  0  0  0  0  0  0  0
  -24.9810  -32.3930   20.2558 O   0  0  0  0  0  0  0  0  0  0  0  0
  -23.5759  -32.2582   23.7489 O   0  0  0  0  0  0  0  0  0  0  0  0
  -27.2712  -29.7866   25.4092 O   0  0  0  0  0  0  0  0  0  0  0  0
  -30.4586  -17.9271   20.3035 O   0  0  0  0  0  0  0  0  0  0  0  0
  -19.8270  -15.6374   25.9999 O   0  0  0  0  0  0  0  0  0  0  0  0
  -28.3942  -26.8162   19.3870 O   0  0  0  0  0  0  0  0  0  1  0  0
  -21.0132  -16.7075   31.2774 F   0  0  0  0  0  0  0  0  0  0  0  0
  -18.6791  -14.1646   28.0385 F   0  0  0  0  0  0  0  0  0  0  0  0
  -27.8971  -23.5028   17.1698 Cl  0  0  0  0  0  0  0  0  0  0  0  0
  1  2  1  0  0  0  0
  1  5  2  0  0  0  0
  2  6  2  0  0  0  0
  3  9  2  0  0  0  0
  3 18  1  0  0  0  0
  4 10  1  0  0  0  0
  4 18  2  0  0  0  0
  5 20  1  0  0  0  0
  6 22  1  0  0  0  0
  7 11  2  0  0  0  0
  7 21  1  0  0  0  0
  8 14  2  0  0  0  0
  8 25  1  0  0  0  0
  9 26  1  0  0  0  0
 10 26  2  0  0  0  0
 11 27  1  0  0  0  0
 12 13  2  0  0  0  0
 12 28  1  0  0  0  0
 13 29  1  0  0  0  0
 14 31  1  0  0  0  0
 15 23  1  0  0  0  0
 15 27  2  0  0  0  0
 16 24  1  0  0  0  0
 16 25  2  0  0  0  0
 17 29  2  0  0  0  0
 17 30  1  0  0  0  0
 18 32  1  0  0  0  0
 19 32  1  0  0  0  0
 19 33  2  0  0  0  0
 19 36  1  0  0  0  0
 20 22  2  0  0  0  0
 20 42  1  0  0  0  0
 21 23  2  0  0  0  0
 21 43  1  0  0  0  0
 22 51  1  0  0  0  0
 23 44  1  0  0  0  0
 24 31  2  0  0  0  0
 24 59  1  0  0  0  0
 25 72  1  0  0  0  0
 26 83  1  0  0  0  0
 27 84  1  0  0  0  0
 28 30  2  0  0  0  0
 28 83  1  0  0  0  0
 29 85  1  0  0  0  0
 30 86  1  0  0  0  0
 31 87  1  0  0  0  0
 32 66  2  0  0  0  0
 33 67  1  0  0  0  0
 33 70  1  0  0  0  0
 34 35  2  0  0  0  0
 35 37  1  0  0  0  0
 36 71  1  0  0  0  0
 36 77  2  0  0  0  0
 37 75  1  0  0  0  0
 37 78  2  0  0  0  0
 38 52  1  0  0  0  0
 38 73  1  0  0  0  0
 38 79  2  0  0  0  0
 39 63  1  0  0  0  0
 39 68  1  0  0  0  0
 39 80  2  0  0  0  0
 40 64  1  0  0  0  0
 40 74  1  0  0  0  0
 40 81  2  0  0  0  0
 41 69  1  0  0  0  0
 41 72  1  0  0  0  0
 41 82  2  0  0  0  0
 42 45  1  0  0  0  0
 43 52  1  0  0  0  0
 44 68  1  0  0  0  0
 45 47  1  0  0  0  0
 46 48  1  0  0  0  0
 46 49  1  0  0  0  0
 47 51  1  0  0  0  0
 48 53  1  0  0  0  0
 49 69  1  0  0  0  0
 50 53  1  0  0  0  0
 50 69  1  0  0  0  0
 51 73  1  0  0  0  0
 52 68  1  0  0  0  0
 53 67  1  0  0  0  0
 54 64  1  0  0  0  0
 55 65  1  0  0  0  0
 56 65  1  0  0  0  0
 57 65  1  0  0  0  0
 58 76  1  0  0  0  0
 59 75  1  0  0  0  0
 60 61  1  0  0  0  0
 60 62  1  0  0  0  0
 61 75  1  0  0  0  0
 62 84  1  0  0  0  0
 63 65  1  0  0  0  0
 63 74  1  0  0  0  0
 64 76  1  0  0  0  0
 66 67  1  0  0  0  0
M  CHG  1  76   1
M  ISO  4  41 100  62 101  72 100  84 101
M  END
> <Batch ID>
0048

> <Smiles>
C=CC(=O)N(CC[101CH2:1][101O:1]c1ccc2c(c1)CN(C(=O)C(NC(=O)C(C)NC)C(C)(C)C)C(C(=O)NC1CCCc3ccccc31)C2)Cc1cc([100NH:0][100C:0](=O)N2CCCC(n3nc(-c4ccc(Oc5ccc(F)cc5F)cc4)c(C(N)=O)c3N)C2)ccc1Cl

> <Shape>
0.257

> <Color>
0.108

> <Negative vol penalty>
0.000

$$$$

  -OEChem-04042322293D

 87 96  0     1  0  0  0  0  0999 V2000
  -17.7809  -25.6217   22.5724 C   0  0  0  0  0  0  0  0  0  0  0  0
  -19.0968  -25.1849   22.4588 C   0  0  0  0  0  0  0  0  0  0  0  0
  -25.8938  -15.7648   22.1157 C   0  0  0  0  0  0  0  0  0  0  0  0
  -23.5919  -15.4533   21.4514 C   0  0  0  0  0  0  0  0  0  0  0  0
  -17.4546  -26.9387   22.2514 C   0  0  0  0  0  0  0  0  0  0  0  0
  -20.0872  -26.0645   22.0232 C   0  0  0  0  0  0  0  0  0  0  0  0
  -25.9330  -26.2196   23.8419 C   0  0  0  0  0  0  0  0  0  0  0  0
  -26.6244  -24.8887   16.3087 C   0  0  0  0  0  0  0  0  0  0  0  0
  -25.6739  -24.3921   17.2006 C   0  0  0  0  0  0  0  0  0  0  0  0
  -26.1946  -14.4749   21.6783 C   0  0  0  0  0  0  0  0  0  0  0  0
  -23.8927  -14.1634   21.0139 C   0  0  0  0  0  0  0  0  0  0  0  0
  -27.1039  -25.7122   23.2802 C   0  0  0  0  0  0  0  0  0  0  0  0
  -24.3766  -11.1146   22.3928 C   0  0  0  0  0  0  0  0  0  0  0  0
  -23.4984  -10.0897   22.7447 C   0  0  0  0  0  0  0  0  0  0  0  0
  -27.5480  -27.8617   22.2793 C   0  0  0  0  0  0  0  0  0  0  0  0
  -27.4297  -23.3469   18.4897 C   0  0  0  0  0  0  0  0  0  0  0  0
  -23.0959   -9.6319   20.4068 C   0  0  0  0  0  0  0  0  0  0  0  0
  -24.5924  -16.2540   22.0023 C   0  0  0  0  0  0  0  0  0  0  0  0
  -24.4238  -18.0963   23.7588 C   0  0  0  0  0  0  0  0  0  0  0  0
  -18.4432  -27.8376   21.8208 C   0  0  0  0  0  0  0  0  0  0  0  0
  -25.5546  -27.5510   23.6171 C   0  0  0  0  0  0  0  0  0  0  0  0
  -19.7736  -27.3944   21.6948 C   0  0  0  0  0  0  0  0  0  0  0  0
  -26.3732  -28.3842   22.8414 C   0  0  0  0  0  0  0  0  0  0  0  0
  -27.9776  -24.6144   16.5072 C   0  0  0  0  0  0  0  0  0  0  0  0
  -28.3802  -23.8435   17.5978 C   0  0  0  0  0  0  0  0  0  0  0  0
  -26.0766  -23.6212   18.2911 C   0  0  0  0  0  0  0  0  0  0  0  0
  -25.1941  -13.6743   21.1274 C   0  0  0  0  0  0  0  0  0  0  0  0
  -27.9101  -26.5325   22.4964 C   0  0  0  0  0  0  0  0  0  0  0  0
  -24.6145  -11.3983   21.0479 C   0  0  0  0  0  0  0  0  0  0  0  0
  -22.8581   -9.3483   21.7517 C   0  0  0  0  0  0  0  0  0  0  0  0
  -23.9742  -10.6569   20.0550 C   0  0  0  0  0  0  0  0  0  0  0  0
  -24.2810  -17.5862   22.4545 C   0  0  0  0  0  0  0  0  0  0  0  0
  -23.9959  -19.3982   23.6670 C   0  0  0  0  0  0  0  0  0  0  0  0
  -30.4743  -24.5119   20.0003 C   0  0  0  0  0  0  0  0  0  0  0  0
  -24.9007  -17.4510   24.9470 C   0  0  0  0  0  0  0  0  0  0  0  0
  -23.0691  -28.9745   22.2387 C   0  0  0  0  0  0  0  0  0  0  0  0
  -24.4830  -31.6676   23.3659 C   0  0  0  0  0  0  0  0  0  0  0  0
  -27.3367  -33.2240   24.4053 C   0  0  0  0  0  0  0  0  0  0  0  0
  -23.7297  -23.2988   19.1482 C   0  0  0  0  0  0  0  0  0  0  0  0
  -18.0343  -29.2385   21.4399 C   0  0  0  0  0  0  0  0  0  0  0  0
  -24.3024  -28.0906   24.2522 C   0  0  0  0  0  0  0  0  0  0  0  0
  -26.0220  -29.8265   22.5866 C   0  0  0  0  0  0  0  0  0  0  0  0
  -19.2073  -30.2106   21.3443 C   0  0  0  0  0  0  0  0  0  0  0  0
  -30.2993  -21.8481   21.2228 C   0  0  0  0  0  0  0  0  0  0  0  0
  -21.0151  -22.1931   21.1695 C   0  0  0  0  0  0  0  0  0  0  0  0
  -20.3542  -29.5874   20.5549 C   0  0  0  0  0  0  0  0  0  0  0  0
  -31.1624  -22.9161   21.8659 C   0  0  0  0  0  0  0  0  0  0  0  0
  -21.5596  -20.9361   21.8518 C   0  0  0  0  0  0  0  0  0  0  0  0
  -30.3223  -22.0136   19.7154 C   0  0  0  0  0  0  0  0  0  0  0  0
  -21.5205  -22.3233   19.7337 C   0  0  0  0  0  0  0  0  0  0  0  0
  -23.5234  -20.9895   20.2619 C   0  0  0  0  0  0  0  0  0  0  0  0
  -20.8803  -28.3255   21.2495 C   0  0  1  0  0  0  0  0  0  0  0  0
  -30.6689  -24.3114   21.4992 C   0  0  2  0  0  0  0  0  0  0  0  0
  -23.7491  -29.3175   23.5340 C   0  0  1  0  0  0  0  0  0  0  0  0
  -23.0937  -20.8492   21.7313 C   0  0  2  0  0  0  0  0  0  0  0  0
  -28.9767  -25.1563   15.5384 C   0  0  0  0  0  0  0  0  0  0  0  0
  -28.1851  -35.4371   25.2299 C   0  0  0  0  0  0  0  0  0  0  0  0
  -24.3637  -32.7698   20.5232 C   0  0  0  0  0  0  0  0  0  0  0  0
  -26.0322  -34.5087   21.2019 C   0  0  0  0  0  0  0  0  0  0  0  0
  -23.7983  -34.4267   22.3091 C   0  0  0  0  0  0  0  0  0  0  0  0
  -28.2045  -32.0613   26.9848 C   0  0  0  0  0  0  0  0  0  0  0  0
  -29.8311  -23.5372   17.8328 C   0  0  0  0  0  0  0  0  0  0  0  0
  -29.3656  -24.6731   22.2136 C   0  0  0  0  0  0  0  0  0  1  0  0
  -25.5081  -32.6398   22.8339 C   0  0  1  0  0  0  0  0  0  0  0  0
  -27.6315  -34.0771   25.6258 C   0  0  2  0  0  0  0  0  0  0  0  0
  -24.9315  -33.5586   21.7201 C   0  0  0  0  0  0  0  0  0  0  0  0
  -23.7998  -18.4902   21.5970 N   0  0  0  0  0  0  0  0  0  0  0  0
  -23.6364  -19.5815   22.3642 N   0  0  0  0  0  0  0  0  0  0  0  0
  -30.1340  -23.3870   19.2499 N   0  0  0  0  0  0  0  0  0  0  0  0
  -24.7844  -30.3057   23.2240 N   0  0  0  0  0  0  0  0  0  0  0  0
  -22.9820  -22.2361   19.6980 N   0  0  0  0  0  0  0  0  0  0  0  0
  -23.8957  -20.3926   24.5745 N   0  0  0  0  0  0  0  0  0  0  0  0
  -25.3005  -16.1103   24.8646 N   0  0  0  0  0  0  0  0  0  0  0  0
  -25.1115  -23.1182   19.1985 N   0  0  0  0  0  0  0  0  0  0  0  0
  -21.7254  -28.6802   22.3695 N   0  0  0  0  0  0  0  0  0  0  0  0
  -26.0282  -33.3588   23.9919 N   0  0  0  0  0  0  0  0  0  0  0  0
  -28.6292  -33.4005   26.5020 N   0  3  0  0  0  0  0  0  0  0  0  0
  -30.5388  -25.6545   19.5362 O   0  0  0  0  0  0  0  0  0  0  0  0
  -24.9548  -18.0410   26.0527 O   0  0  0  0  0  0  0  0  0  0  0  0
  -23.7154  -28.9780   21.1976 O   0  0  0  0  0  0  0  0  0  0  0  0
  -23.4560  -32.1007   23.8944 O   0  0  0  0  0  0  0  0  0  0  0  0
  -28.1836  -32.5124   23.8697 O   0  0  0  0  0  0  0  0  0  0  0  0
  -23.1852  -24.3079   18.6929 O   0  0  0  0  0  0  0  0  0  0  0  0
  -25.4873  -12.4156   20.7002 O   0  0  0  0  0  0  0  0  0  0  0  0
  -29.0531  -26.0396   21.9464 O   0  0  0  0  0  0  0  0  0  1  0  0
  -22.0159   -8.3631   22.0897 F   0  0  0  0  0  0  0  0  0  0  0  0
  -24.1996  -10.9240   18.7613 F   0  0  0  0  0  0  0  0  0  0  0  0
  1  2  1  0  0  0  0
  1  5  2  0  0  0  0
  2  6  2  0  0  0  0
  3 10  2  0  0  0  0
  3 18  1  0  0  0  0
  4 11  1  0  0  0  0
  4 18  2  0  0  0  0
  5 20  1  0  0  0  0
  6 22  1  0  0  0  0
  7 12  2  0  0  0  0
  7 21  1  0  0  0  0
  8  9  2  0  0  0  0
  8 24  1  0  0  0  0
  9 26  1  0  0  0  0
 10 27  1  0  0  0  0
 11 27  2  0  0  0  0
 12 28  1  0  0  0  0
 13 14  2  0  0  0  0
 13 29  1  0  0  0  0
 14 30  1  0  0  0  0
 15 23  1  0  0  0  0
 15 28  2  0  0  0  0
 16 25  1  0  0  0  0
 16 26  2  0  0  0  0
 17 30  2  0  0  0  0
 17 31  1  0  0  0  0
 18 32  1  0  0  0  0
 19 32  1  0  0  0  0
 19 33  2  0  0  0  0
 19 35  1  0  0  0  0
 20 22  2  0  0  0  0
 20 40  1  0  0  0  0
 21 23  2  0  0  0  0
 21 41  1  0  0  0  0
 22 52  1  0  0  0  0
 23 42  1  0  0  0  0
 24 25  2  0  0  0  0
 24 56  1  0  0  0  0
 25 62  1  0  0  0  0
 26 74  1  0  0  0  0
 27 84  1  0  0  0  0
 28 85  1  0  0  0  0
 29 31  2  0  0  0  0
 29 84  1  0  0  0  0
 30 86  1  0  0  0  0
 31 87  1  0  0  0  0
 32 67  2  0  0  0  0
 33 68  1  0  0  0  0
 33 72  1  0  0  0  0
 34 53  1  0  0  0  0
 34 69  1  0  0  0  0
 34 78  2  0  0  0  0
 35 73  1  0  0  0  0
 35 79  2  0  0  0  0
 36 54  1  0  0  0  0
 36 75  1  0  0  0  0
 36 80  2  0  0  0  0
 37 64  1  0  0  0  0
 37 70  1  0  0  0  0
 37 81  2  0  0  0  0
 38 65  1  0  0  0  0
 38 76  1  0  0  0  0
 38 82  2  0  0  0  0
 39 71  1  0  0  0  0
 39 74  1  0  0  0  0
 39 83  2  0  0  0  0
 40 43  1  0  0  0  0
 41 54  1  0  0  0  0
 42 70  1  0  0  0  0
 43 46  1  0  0  0  0
 44 47  1  0  0  0  0
 44 49  1  0  0  0  0
 45 48  1  0  0  0  0
 45 50  1  0  0  0  0
 46 52  1  0  0  0  0
 47 53  1  0  0  0  0
 48 55  1  0  0  0  0
 49 69  1  0  0  0  0
 50 71  1  0  0  0  0
 51 55  1  0  0  0  0
 51 71  1  0  0  0  0
 52 75  1  0  0  0  0
 53 63  1  0  0  0  0
 54 70  1  0  0  0  0
 55 68  1  0  0  0  0
 57 65  1  0  0  0  0
 58 66  1  0  0  0  0
 59 66  1  0  0  0  0
 60 66  1  0  0  0  0
 61 77  1  0  0  0  0
 62 69  1  0  0  0  0
 63 85  1  0  0  0  0
 64 66  1  0  0  0  0
 64 76  1  0  0  0  0
 65 77  1  0  0  0  0
 67 68  1  0  0  0  0
M  CHG  1  77   1
M  ISO  4  39 100  63 101  74 100  85 101
M  END
> <Batch ID>
0048

> <Smiles>
CNC(C)C(=O)NC(C(=O)N1Cc2cc([101O:1][101CH2:1]C3CCCN(Cc4cc([100NH:0][100C:0](=O)N5CCCC(n6nc(-c7ccc(Oc8ccc(F)cc8F)cc7)c(C(N)=O)c6N)C5)ccc4C)C3=O)ccc2CC1C(=O)NC1CCCc2ccccc21)C(C)(C)C

> <Shape>
0.218

> <Color>
0.075

> <Negative vol penalty>
0.000

$$$$

  -OEChem-04042322293D

 89 98  0     1  0  0  0  0  0999 V2000
  -26.4985  -31.2781   22.0859 C   0  0  0  0  0  0  0  0  0  0  0  0
  -27.4934  -30.3588   22.4028 C   0  0  0  0  0  0  0  0  0  0  0  0
  -22.9994   -9.8947   19.9840 C   0  0  0  0  0  0  0  0  0  0  0  0
  -23.7238   -9.9481   22.2882 C   0  0  0  0  0  0  0  0  0  0  0  0
  -25.4141  -31.4537   22.9445 C   0  0  0  0  0  0  0  0  0  0  0  0
  -27.4051  -29.6153   23.5792 C   0  0  0  0  0  0  0  0  0  0  0  0
  -28.4911  -24.7202   22.8696 C   0  0  0  0  0  0  0  0  0  0  0  0
  -32.6475  -17.4491   23.4521 C   0  0  0  0  0  0  0  0  0  0  0  0
  -32.0594  -16.5502   22.5623 C   0  0  0  0  0  0  0  0  0  0  0  0
  -22.2321   -8.7610   20.2515 C   0  0  0  0  0  0  0  0  0  0  0  0
  -22.9564   -8.8144   22.5557 C   0  0  0  0  0  0  0  0  0  0  0  0
  -29.8378  -24.3759   22.7616 C   0  0  0  0  0  0  0  0  0  0  0  0
  -23.1988   -5.4748   22.0881 C   0  0  0  0  0  0  0  0  0  0  0  0
  -23.7855   -4.4582   22.8417 C   0  0  0  0  0  0  0  0  0  0  0  0
  -29.8331  -23.6598   25.0652 C   0  0  0  0  0  0  0  0  0  0  0  0
  -29.8811  -17.4506   23.0926 C   0  0  0  0  0  0  0  0  0  0  0  0
  -22.0612   -4.7042   24.5160 C   0  0  0  0  0  0  0  0  0  0  0  0
  -23.7453  -10.4882   21.0023 C   0  0  0  0  0  0  0  0  0  0  0  0
  -24.1322  -13.0034   20.8233 C   0  0  0  0  0  0  0  0  0  0  0  0
  -25.3075  -30.7050   24.1272 C   0  0  0  0  0  0  0  0  0  0  0  0
  -27.8070  -24.5468   24.0814 C   0  0  0  0  0  0  0  0  0  0  0  0
  -26.3189  -29.7820   24.4551 C   0  0  0  0  0  0  0  0  0  0  0  0
  -28.4771  -24.0003   25.1852 C   0  0  0  0  0  0  0  0  0  0  0  0
  -31.8524  -18.3487   24.1622 C   0  0  0  0  0  0  0  0  0  0  0  0
  -30.4692  -18.3494   23.9824 C   0  0  0  0  0  0  0  0  0  0  0  0
  -30.6762  -16.5510   22.3825 C   0  0  0  0  0  0  0  0  0  0  0  0
  -22.2105   -8.2209   21.5373 C   0  0  0  0  0  0  0  0  0  0  0  0
  -30.5098  -23.8484   23.8603 C   0  0  0  0  0  0  0  0  0  0  0  0
  -22.0434   -6.1062   22.5485 C   0  0  0  0  0  0  0  0  0  0  0  0
  -23.2167   -4.0729   24.0556 C   0  0  0  0  0  0  0  0  0  0  0  0
  -21.4746   -5.7209   23.7624 C   0  0  0  0  0  0  0  0  0  0  0  0
  -24.5386  -11.6590   20.7265 C   0  0  0  0  0  0  0  0  0  0  0  0
  -25.2425  -13.7248   20.4584 C   0  0  0  0  0  0  0  0  0  0  0  0
  -32.8228  -21.2930   23.7551 C   0  0  0  0  0  0  0  0  0  0  0  0
  -32.7424  -21.1993   22.4176 C   0  0  0  0  0  0  0  0  0  0  0  0
  -22.8644  -13.5510   21.2087 C   0  0  0  0  0  0  0  0  0  0  0  0
  -26.3454  -26.4885   26.1300 C   0  0  0  0  0  0  0  0  0  0  0  0
  -25.4925  -23.7039   27.5585 C   0  0  0  0  0  0  0  0  0  0  0  0
  -26.1502  -20.3964   28.0826 C   0  0  0  0  0  0  0  0  0  0  0  0
  -30.7225  -14.6828   20.6930 C   0  0  0  0  0  0  0  0  0  0  0  0
  -24.1409  -30.9636   25.0474 C   0  0  0  0  0  0  0  0  0  0  0  0
  -26.3474  -24.8982   24.1738 C   0  0  0  0  0  0  0  0  0  0  0  0
  -27.7828  -23.7754   26.5027 C   0  0  0  0  0  0  0  0  0  0  0  0
  -23.9316  -29.8670   26.0886 C   0  0  0  0  0  0  0  0  0  0  0  0
  -29.6035  -12.2277   18.3698 C   0  0  0  0  0  0  0  0  0  0  0  0
  -34.0306  -21.8414   26.2968 C   0  0  0  0  0  0  0  0  0  0  0  0
  -25.2575  -29.4923   26.7431 C   0  0  0  0  0  0  0  0  0  0  0  0
  -33.3688  -22.9717   25.5166 C   0  0  0  0  0  0  0  0  0  0  0  0
  -28.1526  -11.9715   18.7838 C   0  0  0  0  0  0  0  0  0  0  0  0
  -30.5038  -12.4721   19.5796 C   0  0  0  0  0  0  0  0  0  0  0  0
  -28.5884  -13.2638   20.9115 C   0  0  0  0  0  0  0  0  0  0  0  0
  -34.5683  -20.7610   25.3641 C   0  0  0  0  0  0  0  0  0  0  0  0
  -26.2460  -28.9389   25.7097 C   0  0  1  0  0  0  0  0  0  0  0  0
  -32.2857  -22.4428   24.5775 C   0  0  1  0  0  0  0  0  0  1  0  0
  -25.8849  -25.1585   25.6041 C   0  0  1  0  0  0  0  0  0  0  0  0
  -27.6311  -13.0765   19.7232 C   0  0  2  0  0  0  0  0  0  0  0  0
  -25.7915  -18.0529   28.9051 C   0  0  0  0  0  0  0  0  0  0  0  0
  -26.6529  -24.8227   30.1492 C   0  0  0  0  0  0  0  0  0  0  0  0
  -26.6449  -22.4967   31.0755 C   0  0  0  0  0  0  0  0  0  0  0  0
  -24.4974  -23.5840   30.4209 C   0  0  0  0  0  0  0  0  0  0  0  0
  -24.6368  -19.6508   25.6510 C   0  0  0  0  0  0  0  0  0  0  0  0
  -32.5077  -19.3053   25.1142 C   0  0  0  0  0  0  0  0  0  0  0  0
  -26.0979  -22.8177   28.6201 C   0  0  1  0  0  0  0  0  0  0  0  0
  -25.2576  -19.1700   28.0221 C   0  0  2  0  0  0  0  0  0  0  0  0
  -29.5982  -19.3048   24.7303 C   0  0  0  0  0  0  0  0  0  0  0  0
  -25.9872  -23.4362   30.0423 C   0  0  0  0  0  0  0  0  0  0  0  0
  -25.8079  -11.5312   20.3309 N   0  0  0  0  0  0  0  0  0  0  0  0
  -26.2087  -12.8046   20.1759 N   0  0  0  0  0  0  0  0  0  0  0  0
  -26.3572  -24.1406   26.5449 N   0  0  0  0  0  0  0  0  0  0  0  0
  -29.9491  -13.5344   20.4214 N   0  0  0  0  0  0  0  0  0  0  0  0
  -25.4768  -15.0502   20.3547 N   0  0  0  0  0  0  0  0  0  0  0  0
  -21.8320  -12.6680   21.5530 N   0  0  0  0  0  0  0  0  0  0  0  0
  -30.0786  -15.6394   21.4772 N   0  0  0  0  0  0  0  0  0  0  0  0
  -25.9186  -27.5682   25.3805 N   0  0  0  0  0  0  0  0  0  0  0  0
  -25.4526  -21.5165   28.4825 N   0  0  0  0  0  0  0  0  0  0  0  0
  -33.4996  -20.2163   24.4447 N   0  3  1  0  0  0  0  0  0  0  0  0
  -25.1691  -18.6622   26.6238 N   0  3  0  0  0  0  0  0  0  0  0  0
  -22.6485  -14.7865   21.2308 O   0  0  0  0  0  0  0  0  0  0  0  0
  -27.0355  -26.5322   27.1417 O   0  0  0  0  0  0  0  0  0  0  0  0
  -24.2947  -23.9920   27.6221 O   0  0  0  0  0  0  0  0  0  0  0  0
  -27.3473  -20.3632   27.8066 O   0  0  0  0  0  0  0  0  0  0  0  0
  -31.8614  -14.8205   20.2392 O   0  0  0  0  0  0  0  0  0  0  0  0
  -21.4617   -7.1148   21.7988 O   0  0  0  0  0  0  0  0  0  0  0  0
  -31.8244  -23.5121   23.7579 O   0  0  0  0  0  0  0  0  0  1  0  0
  -23.7793   -3.0955   24.7785 F   0  0  0  0  0  0  0  0  0  0  0  0
  -20.3639   -6.3230   24.2093 F   0  0  0  0  0  0  0  0  0  0  0  0
  -28.2709  -19.1759   24.4382 F   0  0  0  0  0  0  0  0  0  0  0  0
  -29.6810  -19.1702   26.0862 F   0  0  0  0  0  0  0  0  0  0  0  0
  -29.9072  -20.6077   24.4702 F   0  0  0  0  0  0  0  0  0  0  0  0
  1  2  1  0  0  0  0
  1  5  2  0  0  0  0
  2  6  2  0  0  0  0
  3 10  2  0  0  0  0
  3 18  1  0  0  0  0
  4 11  1  0  0  0  0
  4 18  2  0  0  0  0
  5 20  1  0  0  0  0
  6 22  1  0  0  0  0
  7 12  2  0  0  0  0
  7 21  1  0  0  0  0
  8  9  2  0  0  0  0
  8 24  1  0  0  0  0
  9 26  1  0  0  0  0
 10 27  1  0  0  0  0
 11 27  2  0  0  0  0
 12 28  1  0  0  0  0
 13 14  2  0  0  0  0
 13 29  1  0  0  0  0
 14 30  1  0  0  0  0
 15 23  1  0  0  0  0
 15 28  2  0  0  0  0
 16 25  1  0  0  0  0
 16 26  2  0  0  0  0
 17 30  2  0  0  0  0
 17 31  1  0  0  0  0
 18 32  1  0  0  0  0
 19 32  1  0  0  0  0
 19 33  2  0  0  0  0
 19 36  1  0  0  0  0
 20 22  2  0  0  0  0
 20 41  1  0  0  0  0
 21 23  2  0  0  0  0
 21 42  1  0  0  0  0
 22 53  1  0  0  0  0
 23 43  1  0  0  0  0
 24 25  2  0  0  0  0
 24 62  1  0  0  0  0
 25 65  1  0  0  0  0
 26 73  1  0  0  0  0
 27 83  1  0  0  0  0
 28 84  1  0  0  0  0
 29 31  2  0  0  0  0
 29 83  1  0  0  0  0
 30 85  1  0  0  0  0
 31 86  1  0  0  0  0
 32 67  2  0  0  0  0
 33 68  1  0  0  0  0
 33 71  1  0  0  0  0
 34 35  2  0  0  0  0
 34 54  1  0  0  0  0
 34 76  1  0  0  0  0
 36 72  1  0  0  0  0
 36 78  2  0  0  0  0
 37 55  1  0  0  0  0
 37 74  1  0  0  0  0
 37 79  2  0  0  0  0
 38 63  1  0  0  0  0
 38 69  1  0  0  0  0
 38 80  2  0  0  0  0
 39 64  1  0  0  0  0
 39 75  1  0  0  0  0
 39 81  2  0  0  0  0
 40 70  1  0  0  0  0
 40 73  1  0  0  0  0
 40 82  2  0  0  0  0
 41 44  1  0  0  0  0
 42 55  1  0  0  0  0
 43 69  1  0  0  0  0
 44 47  1  0  0  0  0
 45 49  1  0  0  0  0
 45 50  1  0  0  0  0
 46 48  1  0  0  0  0
 46 52  1  0  0  0  0
 47 53  1  0  0  0  0
 48 54  1  0  0  0  0
 49 56  1  0  0  0  0
 50 70  1  0  0  0  0
 51 56  1  0  0  0  0
 51 70  1  0  0  0  0
 52 76  1  0  0  0  0
 53 74  1  0  0  0  0
 54 84  1  0  0  0  0
 55 69  1  0  0  0  0
 56 68  1  0  0  0  0
 57 64  1  0  0  0  0
 58 66  1  0  0  0  0
 59 66  1  0  0  0  0
 60 66  1  0  0  0  0
 61 77  1  0  0  0  0
 62 76  1  0  0  0  0
 63 66  1  0  0  0  0
 63 75  1  0  0  0  0
 64 77  1  0  0  0  0
 65 87  1  0  0  0  0
 65 88  1  0  0  0  0
 65 89  1  0  0  0  0
 67 68  1  0  0  0  0
M  CHG  2  76   1  77   1
M  ISO  4  40 100  54 101  73 100  84 101
M  END
> <Batch ID>
0048

> <Smiles>
C=C1N(Cc2ccc([100NH:0][100C:0](=O)N3CCCC(n4nc(-c5ccc(Oc6ccc(F)cc6F)cc5)c(C(N)=O)c4N)C3)cc2C(F)(F)F)CCC[101CH:1]1[101O:1]c1ccc2c(c1)CN(C(=O)C(NC(=O)C(C)NC)C(C)(C)C)C(C(=O)NC1CCCc3ccccc31)C2

> <Shape>
0.217

> <Color>
0.193

> <Negative vol penalty>
0.000

$$$$

  -OEChem-04042322293D

 86 95  0     1  0  0  0  0  0999 V2000
  -25.4868  -32.7033   28.8736 C   0  0  0  0  0  0  0  0  0  0  0  0
  -24.4771  -31.7599   28.7133 C   0  0  0  0  0  0  0  0  0  0  0  0
  -26.4622  -12.5149   19.8064 C   0  0  0  0  0  0  0  0  0  0  0  0
  -26.2721  -13.7973   21.8451 C   0  0  0  0  0  0  0  0  0  0  0  0
  -26.1642  -33.1941   27.7582 C   0  0  0  0  0  0  0  0  0  0  0  0
  -24.1433  -31.3075   27.4372 C   0  0  0  0  0  0  0  0  0  0  0  0
  -21.8162  -25.4580   24.0190 C   0  0  0  0  0  0  0  0  0  0  0  0
  -22.7381  -19.3484   19.8163 C   0  0  0  0  0  0  0  0  0  0  0  0
  -24.1118  -19.1068   19.8063 C   0  0  0  0  0  0  0  0  0  0  0  0
  -25.2089  -11.9509   20.0442 C   0  0  0  0  0  0  0  0  0  0  0  0
  -25.0187  -13.2333   22.0830 C   0  0  0  0  0  0  0  0  0  0  0  0
  -20.8164  -25.0528   23.1358 C   0  0  0  0  0  0  0  0  0  0  0  0
  -22.2149   -9.9030   20.3006 C   0  0  0  0  0  0  0  0  0  0  0  0
  -22.0759   -8.5272   20.1180 C   0  0  0  0  0  0  0  0  0  0  0  0
  -22.1082  -25.9124   21.2888 C   0  0  0  0  0  0  0  0  0  0  0  0
  -23.0183  -20.8643   21.6766 C   0  0  0  0  0  0  0  0  0  0  0  0
  -23.7624   -8.1332   21.8025 C   0  0  0  0  0  0  0  0  0  0  0  0
  -26.9939  -13.4381   20.7068 C   0  0  0  0  0  0  0  0  0  0  0  0
  -29.5164  -13.3426   20.3387 C   0  0  0  0  0  0  0  0  0  0  0  0
  -25.8451  -32.7404   26.4686 C   0  0  0  0  0  0  0  0  0  0  0  0
  -22.9665  -26.1043   23.5441 C   0  0  0  0  0  0  0  0  0  0  0  0
  -24.8161  -31.7937   26.3034 C   0  0  0  0  0  0  0  0  0  0  0  0
  -23.1223  -26.3225   22.1678 C   0  0  0  0  0  0  0  0  0  0  0  0
  -22.1913  -20.2272   20.7515 C   0  0  0  0  0  0  0  0  0  0  0  0
  -24.3920  -20.6226   21.6666 C   0  0  0  0  0  0  0  0  0  0  0  0
  -24.9387  -19.7438   20.7314 C   0  0  0  0  0  0  0  0  0  0  0  0
  -24.4871  -12.3101   21.1825 C   0  0  0  0  0  0  0  0  0  0  0  0
  -20.9610  -25.2826   21.7707 C   0  0  0  0  0  0  0  0  0  0  0  0
  -23.1277  -10.3940   21.2341 C   0  0  0  0  0  0  0  0  0  0  0  0
  -22.8496   -7.6423   20.8689 C   0  0  0  0  0  0  0  0  0  0  0  0
  -23.9014   -9.5091   21.9851 C   0  0  0  0  0  0  0  0  0  0  0  0
  -28.2888  -14.0206   20.4620 C   0  0  0  0  0  0  0  0  0  0  0  0
  -30.4366  -14.3370   20.1132 C   0  0  0  0  0  0  0  0  0  0  0  0
  -18.8521  -21.1998   19.3848 C   0  0  0  0  0  0  0  0  0  0  0  0
  -18.4957  -20.4824   18.3086 C   0  0  0  0  0  0  0  0  0  0  0  0
  -29.7995  -11.9395   20.4206 C   0  0  0  0  0  0  0  0  0  0  0  0
  -24.2748  -28.9673   23.9857 C   0  0  0  0  0  0  0  0  0  0  0  0
  -26.6877  -27.7056   22.2228 C   0  0  0  0  0  0  0  0  0  0  0  0
  -26.9983  -25.6302   19.2879 C   0  0  0  0  0  0  0  0  0  0  0  0
  -27.0292  -18.6383   19.8385 C   0  0  0  0  0  0  0  0  0  0  0  0
  -26.5727  -33.3352   25.2890 C   0  0  0  0  0  0  0  0  0  0  0  0
  -24.0479  -26.5112   24.5071 C   0  0  0  0  0  0  0  0  0  0  0  0
  -24.3473  -26.9941   21.6050 C   0  0  0  0  0  0  0  0  0  0  0  0
  -17.8543  -21.8503   20.3041 C   0  0  0  0  0  0  0  0  0  0  0  0
  -26.4135  -32.5264   24.0042 C   0  0  0  0  0  0  0  0  0  0  0  0
  -18.2015  -23.3199   20.5087 C   0  0  0  0  0  0  0  0  0  0  0  0
  -30.5893  -19.0241   21.2678 C   0  0  0  0  0  0  0  0  0  0  0  0
  -24.9523  -32.1431   23.7924 C   0  0  0  0  0  0  0  0  0  0  0  0
  -30.7917  -17.5145   21.2305 C   0  0  0  0  0  0  0  0  0  0  0  0
  -29.1078  -19.3629   21.1275 C   0  0  0  0  0  0  0  0  0  0  0  0
  -29.2819  -17.8245   19.1691 C   0  0  0  0  0  0  0  0  0  0  0  0
  -20.5841  -22.8367   19.8347 C   0  0  0  0  0  0  0  0  0  0  0  0
  -24.4420  -31.2601   24.9375 C   0  0  1  0  0  0  0  0  0  0  0  0
  -24.9430  -27.6217   23.9659 C   0  0  1  0  0  0  0  0  0  0  0  0
  -30.2771  -16.9078   19.9098 C   0  0  2  0  0  0  0  0  0  0  0  0
  -19.6764  -23.4983   20.8685 C   0  0  1  0  0  0  0  0  0  1  0  0
  -25.2536  -21.3166   22.6714 C   0  0  0  0  0  0  0  0  0  0  0  0
  -28.8304  -24.0679   18.5809 C   0  0  0  0  0  0  0  0  0  0  0  0
  -27.7417  -30.1094   20.6669 C   0  0  0  0  0  0  0  0  0  0  0  0
  -28.3796  -28.5454   18.8189 C   0  0  0  0  0  0  0  0  0  0  0  0
  -29.4277  -28.3068   21.0699 C   0  0  0  0  0  0  0  0  0  0  0  0
  -25.1187  -23.3593   19.0249 C   0  0  0  0  0  0  0  0  0  0  0  0
  -20.7134  -20.4852   20.7637 C   0  0  0  0  0  0  0  0  0  0  0  0
  -27.0117  -27.6343   20.7501 C   0  0  1  0  0  0  0  0  0  0  0  0
  -27.4655  -24.1866   19.2410 C   0  0  2  0  0  0  0  0  0  0  0  0
  -28.1133  -28.6502   20.3357 C   0  0  0  0  0  0  0  0  0  0  0  0
  -28.4144  -15.3434   20.3262 N   0  0  0  0  0  0  0  0  0  0  0  0
  -29.7318  -15.5046   20.1154 N   0  0  0  0  0  0  0  0  0  0  0  0
  -25.3739  -27.3792   22.5876 N   0  0  0  0  0  0  0  0  0  0  0  0
  -28.4265  -18.5979   20.0728 N   0  0  0  0  0  0  0  0  0  0  0  0
  -31.7719  -14.3177   19.9153 N   0  0  0  0  0  0  0  0  0  0  0  0
  -30.1127  -11.3930   21.6727 N   0  0  0  0  0  0  0  0  0  0  0  0
  -26.3324  -19.4849   20.7050 N   0  0  0  0  0  0  0  0  0  0  0  0
  -24.9147  -29.9017   24.7775 N   0  0  0  0  0  0  0  0  0  0  0  0
  -27.3481  -26.2420   20.4731 N   0  0  0  0  0  0  0  0  0  0  0  0
  -20.2614  -21.3754   19.6393 N   0  3  1  0  0  0  0  0  0  0  0  0
  -26.4978  -23.3537   18.4725 N   0  3  0  0  0  0  0  0  0  0  0  0
  -29.7915  -11.1955   19.4107 O   0  0  0  0  0  0  0  0  0  0  0  0
  -23.2549  -29.1452   23.3300 O   0  0  0  0  0  0  0  0  0  0  0  0
  -27.5699  -28.0317   23.0209 O   0  0  0  0  0  0  0  0  0  0  0  0
  -26.3876  -26.1630   18.3640 O   0  0  0  0  0  0  0  0  0  0  0  0
  -26.5036  -17.9776   18.9402 O   0  0  0  0  0  0  0  0  0  0  0  0
  -23.2639  -11.7601   21.4148 O   0  0  0  0  0  0  0  0  0  0  0  0
  -19.9864  -24.8887   20.9065 O   0  0  0  0  0  0  0  0  0  1  0  0
  -22.7149   -6.3210   20.6946 F   0  0  0  0  0  0  0  0  0  0  0  0
  -24.7791   -9.9748   22.8843 F   0  0  0  0  0  0  0  0  0  0  0  0
  1  2  1  0  0  0  0
  1  5  2  0  0  0  0
  2  6  2  0  0  0  0
  3 10  2  0  0  0  0
  3 18  1  0  0  0  0
  4 11  1  0  0  0  0
  4 18  2  0  0  0  0
  5 20  1  0  0  0  0
  6 22  1  0  0  0  0
  7 12  2  0  0  0  0
  7 21  1  0  0  0  0
  8  9  2  0  0  0  0
  8 24  1  0  0  0  0
  9 26  1  0  0  0  0
 10 27  1  0  0  0  0
 11 27  2  0  0  0  0
 12 28  1  0  0  0  0
 13 14  2  0  0  0  0
 13 29  1  0  0  0  0
 14 30  1  0  0  0  0
 15 23  1  0  0  0  0
 15 28  2  0  0  0  0
 16 24  2  0  0  0  0
 16 25  1  0  0  0  0
 17 30  2  0  0  0  0
 17 31  1  0  0  0  0
 18 32  1  0  0  0  0
 19 32  1  0  0  0  0
 19 33  2  0  0  0  0
 19 36  1  0  0  0  0
 20 22  2  0  0  0  0
 20 41  1  0  0  0  0
 21 23  2  0  0  0  0
 21 42  1  0  0  0  0
 22 53  1  0  0  0  0
 23 43  1  0  0  0  0
 24 63  1  0  0  0  0
 25 26  2  0  0  0  0
 25 57  1  0  0  0  0
 26 73  1  0  0  0  0
 27 83  1  0  0  0  0
 28 84  1  0  0  0  0
 29 31  2  0  0  0  0
 29 83  1  0  0  0  0
 30 85  1  0  0  0  0
 31 86  1  0  0  0  0
 32 67  2  0  0  0  0
 33 68  1  0  0  0  0
 33 71  1  0  0  0  0
 34 35  2  0  0  0  0
 34 44  1  0  0  0  0
 34 76  1  0  0  0  0
 36 72  1  0  0  0  0
 36 78  2  0  0  0  0
 37 54  1  0  0  0  0
 37 74  1  0  0  0  0
 37 79  2  0  0  0  0
 38 64  1  0  0  0  0
 38 69  1  0  0  0  0
 38 80  2  0  0  0  0
 39 65  1  0  0  0  0
 39 75  1  0  0  0  0
 39 81  2  0  0  0  0
 40 70  1  0  0  0  0
 40 73  1  0  0  0  0
 40 82  2  0  0  0  0
 41 45  1  0  0  0  0
 42 54  1  0  0  0  0
 43 69  1  0  0  0  0
 44 46  1  0  0  0  0
 45 48  1  0  0  0  0
 46 56  1  0  0  0  0
 47 49  1  0  0  0  0
 47 50  1  0  0  0  0
 48 53  1  0  0  0  0
 49 55  1  0  0  0  0
 50 70  1  0  0  0  0
 51 55  1  0  0  0  0
 51 70  1  0  0  0  0
 52 56  1  0  0  0  0
 52 76  1  0  0  0  0
 53 74  1  0  0  0  0
 54 69  1  0  0  0  0
 55 68  1  0  0  0  0
 56 84  1  0  0  0  0
 58 65  1  0  0  0  0
 59 66  1  0  0  0  0
 60 66  1  0  0  0  0
 61 66  1  0  0  0  0
 62 77  1  0  0  0  0
 63 76  1  0  0  0  0
 64 66  1  0  0  0  0
 64 75  1  0  0  0  0
 65 77  1  0  0  0  0
 67 68  1  0  0  0  0
M  CHG  2  76   1  77   1
M  ISO  4  40 100  56 101  73 100  84 101
M  END
> <Batch ID>
0048

> <Smiles>
C=C1CC[101CH:1]([101O:1]c2ccc3c(c2)CN(C(=O)C(NC(=O)C(C)NC)C(C)(C)C)C(C(=O)NC2CCCc4ccccc42)C3)CN1Cc1ccc([100NH:0][100C:0](=O)N2CCCC(n3nc(-c4ccc(Oc5ccc(F)cc5F)cc4)c(C(N)=O)c3N)C2)c(C)c1

> <Shape>
0.249

> <Color>
0.063

> <Negative vol penalty>
0.000

$$$$

  -OEChem-04042322293D

 85 93  0     1  0  0  0  0  0999 V2000
  -32.2360  -14.5461   21.2673 C   0  0  0  0  0  0  0  0  0  0  0  0
  -31.3379  -15.5843   21.4933 C   0  0  0  0  0  0  0  0  0  0  0  0
  -21.5332  -29.7531   26.9537 C   0  0  0  0  0  0  0  0  0  0  0  0
  -27.8016  -24.7480   18.5677 C   0  0  0  0  0  0  0  0  0  0  0  0
  -25.9903  -23.7192   19.7915 C   0  0  0  0  0  0  0  0  0  0  0  0
  -31.8125  -13.3894   20.6142 C   0  0  0  0  0  0  0  0  0  0  0  0
  -30.0160  -15.4667   21.0654 C   0  0  0  0  0  0  0  0  0  0  0  0
  -25.0350  -17.6991   23.8424 C   0  0  0  0  0  0  0  0  0  0  0  0
  -20.7148  -28.6295   27.0687 C   0  0  0  0  0  0  0  0  0  0  0  0
  -22.1849  -30.0211   25.7498 C   0  0  0  0  0  0  0  0  0  0  0  0
  -28.5781  -23.6047   18.7556 C   0  0  0  0  0  0  0  0  0  0  0  0
  -26.7668  -22.5758   19.9795 C   0  0  0  0  0  0  0  0  0  0  0  0
  -24.2776  -18.8497   23.6275 C   0  0  0  0  0  0  0  0  0  0  0  0
  -29.2910  -21.5825   21.9976 C   0  0  0  0  0  0  0  0  0  0  0  0
  -29.3109  -21.0149   23.2715 C   0  0  0  0  0  0  0  0  0  0  0  0
  -22.7335  -17.5747   22.2824 C   0  0  0  0  0  0  0  0  0  0  0  0
  -28.4218  -18.9578   22.3688 C   0  0  0  0  0  0  0  0  0  0  0  0
  -26.5077  -24.8053   19.0856 C   0  0  0  0  0  0  0  0  0  0  0  0
  -24.8302  -26.2538   17.8224 C   0  0  0  0  0  0  0  0  0  0  0  0
  -30.4823  -13.2536   20.1866 C   0  0  0  0  0  0  0  0  0  0  0  0
  -24.6527  -16.4779   23.2690 C   0  0  0  0  0  0  0  0  0  0  0  0
  -29.5746  -14.3077   20.4047 C   0  0  0  0  0  0  0  0  0  0  0  0
  -23.4864  -16.4096   22.4936 C   0  0  0  0  0  0  0  0  0  0  0  0
  -20.5481  -27.7738   25.9798 C   0  0  0  0  0  0  0  0  0  0  0  0
  -21.1997  -28.0417   24.7760 C   0  0  0  0  0  0  0  0  0  0  0  0
  -22.0181  -29.1654   24.6610 C   0  0  0  0  0  0  0  0  0  0  0  0
  -28.0607  -22.5185   19.4615 C   0  0  0  0  0  0  0  0  0  0  0  0
  -23.1282  -18.7883   22.8450 C   0  0  0  0  0  0  0  0  0  0  0  0
  -28.8364  -20.8378   20.9092 C   0  0  0  0  0  0  0  0  0  0  0  0
  -28.8763  -19.7025   23.4572 C   0  0  0  0  0  0  0  0  0  0  0  0
  -28.4019  -19.5255   21.0948 C   0  0  0  0  0  0  0  0  0  0  0  0
  -25.7053  -25.9864   18.8923 C   0  0  0  0  0  0  0  0  0  0  0  0
  -24.3138  -27.4951   18.1033 C   0  0  0  0  0  0  0  0  0  0  0  0
  -24.5126  -25.4518   16.6772 C   0  0  0  0  0  0  0  0  0  0  0  0
  -25.9666  -14.4695   21.1848 C   0  0  0  0  0  0  0  0  0  0  0  0
  -23.4063  -12.6261   21.9393 C   0  0  0  0  0  0  0  0  0  0  0  0
  -21.3620  -24.6996   23.1807 C   0  0  0  0  0  0  0  0  0  0  0  0
  -20.2087  -12.4518   23.1190 C   0  0  0  0  0  0  0  0  0  0  0  0
  -23.5327  -30.5366   23.1871 C   0  0  0  0  0  0  0  0  0  0  0  0
  -30.0828  -12.0039   19.4428 C   0  0  0  0  0  0  0  0  0  0  0  0
  -25.4658  -15.2402   23.5324 C   0  0  0  0  0  0  0  0  0  0  0  0
  -23.0217  -15.1187   21.8723 C   0  0  0  0  0  0  0  0  0  0  0  0
  -28.5720  -11.8045   19.3542 C   0  0  0  0  0  0  0  0  0  0  0  0
  -25.4033  -31.5846   20.3446 C   0  0  0  0  0  0  0  0  0  0  0  0
  -27.8855  -13.1027   18.9416 C   0  0  0  0  0  0  0  0  0  0  0  0
  -25.6081  -30.2933   19.5492 C   0  0  0  0  0  0  0  0  0  0  0  0
  -25.4681  -31.3391   21.8510 C   0  0  0  0  0  0  0  0  0  0  0  0
  -24.7804  -28.9925   21.5516 C   0  0  0  0  0  0  0  0  0  0  0  0
  -28.1263  -14.2075   19.9775 C   0  0  1  0  0  0  0  0  0  0  0  0
  -25.2652  -14.1575   22.4765 C   0  0  1  0  0  0  0  0  0  0  0  0
  -24.6589  -29.1785   20.0303 C   0  0  2  0  0  0  0  0  0  0  0  0
  -19.6661  -26.5777   26.1299 C   0  0  0  0  0  0  0  0  0  0  0  0
  -18.3674  -10.8116   23.5844 C   0  0  0  0  0  0  0  0  0  0  0  0
  -22.8076  -12.4544   18.9523 C   0  0  0  0  0  0  0  0  0  0  0  0
  -20.5087  -11.6488   19.5303 C   0  0  0  0  0  0  0  0  0  0  0  0
  -22.5032  -10.3098   20.2022 C   0  0  0  0  0  0  0  0  0  0  0  0
  -20.1898  -13.1146   26.0033 C   0  0  0  0  0  0  0  0  0  0  0  0
  -21.0171  -27.1178   23.6067 C   0  0  0  0  0  0  0  0  0  0  0  0
  -22.3216  -23.5680   23.5028 C   0  0  0  0  0  0  0  0  0  0  0  0
  -21.8988  -22.2471   22.8699 C   0  0  0  0  0  0  0  0  0  0  0  0
  -22.8461  -21.1160   23.2428 C   0  0  0  0  0  0  0  0  0  1  0  0
  -22.0023  -12.4763   21.4052 C   0  0  1  0  0  0  0  0  0  0  0  0
  -19.5661  -11.5509   24.1581 C   0  0  2  0  0  0  0  0  0  0  0  0
  -21.9650  -11.7472   20.0325 C   0  0  0  0  0  0  0  0  0  0  0  0
  -25.7452  -26.9781   19.7861 N   0  0  0  0  0  0  0  0  0  0  0  0
  -24.8888  -27.8809   19.2784 N   0  0  0  0  0  0  0  0  0  0  0  0
  -23.8540  -13.9374   22.1537 N   0  0  0  0  0  0  0  0  0  0  0  0
  -24.5395  -30.2735   22.2342 N   0  0  0  0  0  0  0  0  0  0  0  0
  -23.4286  -28.2835   17.4573 N   0  0  0  0  0  0  0  0  0  0  0  0
  -25.1331  -24.2023   16.5436 N   0  0  0  0  0  0  0  0  0  0  0  0
  -22.6891  -29.4572   23.4476 N   0  0  0  0  0  0  0  0  0  0  0  0
  -27.2706  -14.0160   21.1288 N   0  0  0  0  0  0  0  0  0  0  0  0
  -21.7633  -25.8921   23.7649 N   0  0  0  0  0  0  0  0  0  0  0  0
  -21.2349  -11.8141   22.4546 N   0  0  0  0  0  0  0  0  0  0  0  0
  -19.1079  -12.3534   25.3273 N   0  3  0  0  0  0  0  0  0  0  0  0
  -23.7149  -25.8391   15.7899 O   0  0  0  0  0  0  0  0  0  0  0  0
  -25.3683  -15.0755   20.3035 O   0  0  0  0  0  0  0  0  0  0  0  0
  -24.0785  -11.6166   22.1648 O   0  0  0  0  0  0  0  0  0  0  0  0
  -20.3595  -24.5570   22.4860 O   0  0  0  0  0  0  0  0  0  0  0  0
  -19.8351  -13.6047   22.9144 O   0  0  0  0  0  0  0  0  0  0  0  0
  -23.4098  -31.6463   23.7118 O   0  0  0  0  0  0  0  0  0  0  0  0
  -28.8180  -21.4026   19.6449 O   0  0  0  0  0  0  0  0  0  0  0  0
  -22.3875  -19.9100   22.6331 O   0  0  0  0  0  0  0  0  0  1  0  0
  -28.8969  -19.1570   24.6803 F   0  0  0  0  0  0  0  0  0  0  0  0
  -27.9652  -18.8047   20.0529 F   0  0  0  0  0  0  0  0  0  0  0  0
  1  2  1  0  0  0  0
  1  6  2  0  0  0  0
  2  7  2  0  0  0  0
  3  9  1  0  0  0  0
  3 10  2  0  0  0  0
  4 11  2  0  0  0  0
  4 18  1  0  0  0  0
  5 12  1  0  0  0  0
  5 18  2  0  0  0  0
  6 20  1  0  0  0  0
  7 22  1  0  0  0  0
  8 13  2  0  0  0  0
  8 21  1  0  0  0  0
  9 24  2  0  0  0  0
 10 26  1  0  0  0  0
 11 27  1  0  0  0  0
 12 27  2  0  0  0  0
 13 28  1  0  0  0  0
 14 15  2  0  0  0  0
 14 29  1  0  0  0  0
 15 30  1  0  0  0  0
 16 23  1  0  0  0  0
 16 28  2  0  0  0  0
 17 30  2  0  0  0  0
 17 31  1  0  0  0  0
 18 32  1  0  0  0  0
 19 32  1  0  0  0  0
 19 33  2  0  0  0  0
 19 34  1  0  0  0  0
 20 22  2  0  0  0  0
 20 40  1  0  0  0  0
 21 23  2  0  0  0  0
 21 41  1  0  0  0  0
 22 49  1  0  0  0  0
 23 42  1  0  0  0  0
 24 25  1  0  0  0  0
 24 52  1  0  0  0  0
 25 26  2  0  0  0  0
 25 58  1  0  0  0  0
 26 71  1  0  0  0  0
 27 82  1  0  0  0  0
 28 83  1  0  0  0  0
 29 31  2  0  0  0  0
 29 82  1  0  0  0  0
 30 84  1  0  0  0  0
 31 85  1  0  0  0  0
 32 65  2  0  0  0  0
 33 66  1  0  0  0  0
 33 69  1  0  0  0  0
 34 70  1  0  0  0  0
 34 76  2  0  0  0  0
 35 50  1  0  0  0  0
 35 72  1  0  0  0  0
 35 77  2  0  0  0  0
 36 62  1  0  0  0  0
 36 67  1  0  0  0  0
 36 78  2  0  0  0  0
 37 59  1  0  0  0  0
 37 73  1  0  0  0  0
 37 79  2  0  0  0  0
 38 63  1  0  0  0  0
 38 74  1  0  0  0  0
 38 80  2  0  0  0  0
 39 68  1  0  0  0  0
 39 71  1  0  0  0  0
 39 81  2  0  0  0  0
 40 43  1  0  0  0  0
 41 50  1  0  0  0  0
 42 67  1  0  0  0  0
 43 45  1  0  0  0  0
 44 46  1  0  0  0  0
 44 47  1  0  0  0  0
 45 49  1  0  0  0  0
 46 51  1  0  0  0  0
 47 68  1  0  0  0  0
 48 51  1  0  0  0  0
 48 68  1  0  0  0  0
 49 72  1  0  0  0  0
 50 67  1  0  0  0  0
 51 66  1  0  0  0  0
 53 63  1  0  0  0  0
 54 64  1  0  0  0  0
 55 64  1  0  0  0  0
 56 64  1  0  0  0  0
 57 75  1  0  0  0  0
 58 73  1  0  0  0  0
 59 60  1  0  0  0  0
 60 61  1  0  0  0  0
 61 83  1  0  0  0  0
 62 64  1  0  0  0  0
 62 74  1  0  0  0  0
 63 75  1  0  0  0  0
 65 66  1  0  0  0  0
M  CHG  1  75   1
M  ISO  4  39 100  61 101  71 100  83 101
M  END
> <Batch ID>
0048

> <Smiles>
CNC(C)C(=O)NC(C(=O)N1Cc2cc([101O:1][101CH2:1]CCC(=O)NCc3c(C)cccc3[100NH:0][100C:0](=O)N3CCCC(n4nc(-c5ccc(Oc6ccc(F)cc6F)cc5)c(C(N)=O)c4N)C3)ccc2CC1C(=O)NC1CCCc2ccccc21)C(C)(C)C

> <Shape>
0.222

> <Color>
0.077

> <Negative vol penalty>
0.000

$$$$

  -OEChem-04042322293D

 85 93  0     1  0  0  0  0  0999 V2000
  -22.1270  -12.2586   17.9953 C   0  0  0  0  0  0  0  0  0  0  0  0
  -22.0385  -13.5816   18.4162 C   0  0  0  0  0  0  0  0  0  0  0  0
  -28.3828  -26.6894   18.2201 C   0  0  0  0  0  0  0  0  0  0  0  0
  -26.3850  -25.4028   18.6563 C   0  0  0  0  0  0  0  0  0  0  0  0
  -23.0685  -11.4066   18.5711 C   0  0  0  0  0  0  0  0  0  0  0  0
  -22.8908  -14.0531   19.4140 C   0  0  0  0  0  0  0  0  0  0  0  0
  -25.2745  -19.6763   19.8654 C   0  0  0  0  0  0  0  0  0  0  0  0
  -29.1521  -25.5306   18.3252 C   0  0  0  0  0  0  0  0  0  0  0  0
  -27.1542  -24.2440   18.7614 C   0  0  0  0  0  0  0  0  0  0  0  0
  -24.9056  -20.7943   20.6122 C   0  0  0  0  0  0  0  0  0  0  0  0
  -31.6816  -22.9683   18.8350 C   0  0  0  0  0  0  0  0  0  0  0  0
  -32.8581  -23.0346   19.5813 C   0  0  0  0  0  0  0  0  0  0  0  0
  -20.3941  -27.5067   23.5536 C   0  0  0  0  0  0  0  0  0  0  0  0
  -18.6596  -26.3382   22.3441 C   0  0  0  0  0  0  0  0  0  0  0  0
  -26.5025  -20.1782   22.3121 C   0  0  0  0  0  0  0  0  0  0  0  0
  -18.9018  -28.7295   22.0993 C   0  0  0  0  0  0  0  0  0  0  0  0
  -31.5823  -23.6516   21.5379 C   0  0  0  0  0  0  0  0  0  0  0  0
  -26.9993  -26.6255   18.3857 C   0  0  0  0  0  0  0  0  0  0  0  0
  -19.7352  -26.3201   23.2321 C   0  0  0  0  0  0  0  0  0  0  0  0
  -25.6117  -28.3472   17.1138 C   0  0  0  0  0  0  0  0  0  0  0  0
  -23.9393  -11.8705   19.5697 C   0  0  0  0  0  0  0  0  0  0  0  0
  -26.2541  -18.7934   20.3422 C   0  0  0  0  0  0  0  0  0  0  0  0
  -23.8440  -13.2062   20.0047 C   0  0  0  0  0  0  0  0  0  0  0  0
  -26.8839  -19.0511   21.5682 C   0  0  0  0  0  0  0  0  0  0  0  0
  -19.9774  -28.7115   22.9873 C   0  0  0  0  0  0  0  0  0  0  0  0
  -28.5378  -24.3079   18.5958 C   0  0  0  0  0  0  0  0  0  0  0  0
  -25.5176  -21.0438   21.8371 C   0  0  0  0  0  0  0  0  0  0  0  0
  -30.4554  -23.2438   19.4402 C   0  0  0  0  0  0  0  0  0  0  0  0
  -32.8085  -23.3762   20.9327 C   0  0  0  0  0  0  0  0  0  0  0  0
  -18.2429  -27.5429   21.7777 C   0  0  0  0  0  0  0  0  0  0  0  0
  -30.4057  -23.5854   20.7916 C   0  0  0  0  0  0  0  0  0  0  0  0
  -26.2042  -27.8223   18.2779 C   0  0  0  0  0  0  0  0  0  0  0  0
  -24.9704  -29.4853   17.5381 C   0  0  0  0  0  0  0  0  0  0  0  0
  -23.3981  -23.2664   23.6912 C   0  0  0  0  0  0  0  0  0  0  0  0
  -23.8570  -22.2391   22.9705 C   0  0  0  0  0  0  0  0  0  1  0  0
  -20.1760  -25.0446   23.8315 C   0  0  0  0  0  0  0  0  0  0  0  0
  -25.6385  -27.8505   15.7691 C   0  0  0  0  0  0  0  0  0  0  0  0
  -26.3031  -15.7178   21.1436 C   0  0  0  0  0  0  0  0  0  0  0  0
  -29.4874  -16.2515   21.4568 C   0  0  0  0  0  0  0  0  0  0  0  0
  -32.0115  -18.4840   21.9965 C   0  0  0  0  0  0  0  0  0  0  0  0
  -22.7886  -31.1982   22.8444 C   0  0  0  0  0  0  0  0  0  0  0  0
  -24.9089  -10.8996   20.1957 C   0  0  0  0  0  0  0  0  0  0  0  0
  -26.6598  -17.6065   19.5121 C   0  0  0  0  0  0  0  0  0  0  0  0
  -27.9556  -18.1452   22.1150 C   0  0  0  0  0  0  0  0  0  0  0  0
  -26.0270  -11.5778   20.9833 C   0  0  0  0  0  0  0  0  0  0  0  0
  -25.2219  -32.9000   20.8799 C   0  0  0  0  0  0  0  0  0  0  0  0
  -25.4582  -12.6660   21.8883 C   0  0  0  0  0  0  0  0  0  0  0  0
  -25.6961  -31.8390   19.8852 C   0  0  0  0  0  0  0  0  0  0  0  0
  -24.9284  -32.2965   22.2516 C   0  0  0  0  0  0  0  0  0  0  0  0
  -24.4677  -30.0949   21.2445 C   0  0  0  0  0  0  0  0  0  0  0  0
  -24.7676  -13.7615   21.0670 C   0  0  1  0  0  0  0  0  0  0  0  0
  -27.3032  -16.4941   20.3343 C   0  0  1  0  0  0  0  0  0  0  0  0
  -24.7228  -30.6461   19.8312 C   0  0  2  0  0  0  0  0  0  0  0  0
  -34.3635  -19.3354   22.1984 C   0  0  0  0  0  0  0  0  0  0  0  0
  -29.2758  -15.1020   24.2753 C   0  0  0  0  0  0  0  0  0  0  0  0
  -31.5075  -16.1172   24.7818 C   0  0  0  0  0  0  0  0  0  0  0  0
  -31.3044  -14.3796   23.0036 C   0  0  0  0  0  0  0  0  0  0  0  0
  -32.1584  -19.1045   19.1064 C   0  0  0  0  0  0  0  0  0  0  0  0
  -20.6816  -29.9804   23.3308 C   0  0  0  0  0  0  0  0  0  0  0  0
  -21.9815  -23.3894   24.1428 C   0  0  0  0  0  0  0  0  0  0  0  0
  -30.3910  -16.6987   22.5804 C   0  0  1  0  0  0  0  0  0  0  0  0
  -33.3293  -18.7079   21.2768 C   0  0  2  0  0  0  0  0  0  0  0  0
  -30.5981  -15.5906   23.6512 C   0  0  0  0  0  0  0  0  0  0  0  0
  -25.9611  -28.5659   19.3605 N   0  0  0  0  0  0  0  0  0  0  0  0
  -25.2088  -29.5697   18.8784 N   0  0  0  0  0  0  0  0  0  0  0  0
  -28.3131  -16.9943   21.2693 N   0  0  0  0  0  0  0  0  0  0  0  0
  -23.9981  -31.1714   22.1307 N   0  0  0  0  0  0  0  0  0  0  0  0
  -24.2316  -30.4120   16.8918 N   0  0  0  0  0  0  0  0  0  0  0  0
  -19.3011  -24.3624   24.5705 N   0  0  0  0  0  0  0  0  0  0  0  0
  -26.3439  -26.6679   15.5076 N   0  0  0  0  0  0  0  0  0  0  0  0
  -25.7499  -14.6433   20.4737 N   0  0  0  0  0  0  0  0  0  0  0  0
  -31.6241  -17.1614   21.9530 N   0  0  0  0  0  0  0  0  0  0  0  0
  -21.9617  -30.0955   22.6684 N   0  0  0  0  0  0  0  0  0  0  0  0
  -21.4316  -24.6342   23.6075 N   0  3  0  0  0  0  0  0  0  0  0  0
  -33.1337  -19.6098   20.1067 N   0  3  0  0  0  0  0  0  0  0  0  0
  -25.0680  -28.4467   14.8243 O   0  0  0  0  0  0  0  0  0  0  0  0
  -26.0531  -16.0670   22.2913 O   0  0  0  0  0  0  0  0  0  0  0  0
  -29.8150  -15.2833   20.7663 O   0  0  0  0  0  0  0  0  0  0  0  0
  -31.3900  -19.3910   22.5457 O   0  0  0  0  0  0  0  0  0  0  0  0
  -22.4669  -32.1379   23.5796 O   0  0  0  0  0  0  0  0  0  0  0  0
  -29.2881  -23.1769   18.6981 O   0  0  0  0  0  0  0  0  0  0  0  0
  -25.1589  -22.1340   22.5684 O   0  0  0  0  0  0  0  0  0  1  0  0
  -33.9383  -23.4382   21.6496 F   0  0  0  0  0  0  0  0  0  0  0  0
  -17.2100  -27.5602   20.9250 F   0  0  0  0  0  0  0  0  0  0  0  0
  -29.2306  -23.8500   21.3788 F   0  0  0  0  0  0  0  0  0  0  0  0
  1  2  1  0  0  0  0
  1  5  2  0  0  0  0
  2  6  2  0  0  0  0
  3  8  2  0  0  0  0
  3 18  1  0  0  0  0
  4  9  1  0  0  0  0
  4 18  2  0  0  0  0
  5 21  1  0  0  0  0
  6 23  1  0  0  0  0
  7 10  2  0  0  0  0
  7 22  1  0  0  0  0
  8 26  1  0  0  0  0
  9 26  2  0  0  0  0
 10 27  1  0  0  0  0
 11 12  2  0  0  0  0
 11 28  1  0  0  0  0
 12 29  1  0  0  0  0
 13 19  2  0  0  0  0
 13 25  1  0  0  0  0
 14 19  1  0  0  0  0
 14 30  2  0  0  0  0
 15 24  1  0  0  0  0
 15 27  2  0  0  0  0
 16 25  2  0  0  0  0
 16 30  1  0  0  0  0
 17 29  2  0  0  0  0
 17 31  1  0  0  0  0
 18 32  1  0  0  0  0
 19 36  1  0  0  0  0
 20 32  1  0  0  0  0
 20 33  2  0  0  0  0
 20 37  1  0  0  0  0
 21 23  2  0  0  0  0
 21 42  1  0  0  0  0
 22 24  2  0  0  0  0
 22 43  1  0  0  0  0
 23 51  1  0  0  0  0
 24 44  1  0  0  0  0
 25 59  1  0  0  0  0
 26 81  1  0  0  0  0
 27 82  1  0  0  0  0
 28 31  2  0  0  0  0
 28 81  1  0  0  0  0
 29 83  1  0  0  0  0
 30 84  1  0  0  0  0
 31 85  1  0  0  0  0
 32 64  2  0  0  0  0
 33 65  1  0  0  0  0
 33 68  1  0  0  0  0
 34 35  2  0  0  0  0
 34 60  1  0  0  0  0
 35 82  1  0  0  0  0
 36 69  1  0  0  0  0
 36 74  2  0  0  0  0
 37 70  1  0  0  0  0
 37 76  2  0  0  0  0
 38 52  1  0  0  0  0
 38 71  1  0  0  0  0
 38 77  2  0  0  0  0
 39 61  1  0  0  0  0
 39 66  1  0  0  0  0
 39 78  2  0  0  0  0
 40 62  1  0  0  0  0
 40 72  1  0  0  0  0
 40 79  2  0  0  0  0
 41 67  1  0  0  0  0
 41 73  1  0  0  0  0
 41 80  2  0  0  0  0
 42 45  1  0  0  0  0
 43 52  1  0  0  0  0
 44 66  1  0  0  0  0
 45 47  1  0  0  0  0
 46 48  1  0  0  0  0
 46 49  1  0  0  0  0
 47 51  1  0  0  0  0
 48 53  1  0  0  0  0
 49 67  1  0  0  0  0
 50 53  1  0  0  0  0
 50 67  1  0  0  0  0
 51 71  1  0  0  0  0
 52 66  1  0  0  0  0
 53 65  1  0  0  0  0
 54 62  1  0  0  0  0
 55 63  1  0  0  0  0
 56 63  1  0  0  0  0
 57 63  1  0  0  0  0
 58 75  1  0  0  0  0
 59 73  1  0  0  0  0
 60 74  1  0  0  0  0
 61 63  1  0  0  0  0
 61 72  1  0  0  0  0
 62 75  1  0  0  0  0
 64 65  1  0  0  0  0
M  CHG  2  74   1  75   1
M  ISO  4  35 101  41 100  73 100  82 101
M  END
> <Batch ID>
0048

> <Smiles>
CNC(C)C(=O)NC(C(=O)N1Cc2cc([101O:1][101CH:1]=CCNC(=N)c3cc(F)cc(C[100NH:0][100C:0](=O)N4CCCC(n5nc(-c6ccc(Oc7ccc(F)cc7F)cc6)c(C(N)=O)c5N)C4)c3)ccc2CC1C(=O)NC1CCCc2ccccc21)C(C)(C)C

> <Shape>
0.206

> <Color>
0.078

> <Negative vol penalty>
0.000

$$$$

  -OEChem-04042322293D

 86 95  0     1  0  0  0  0  0999 V2000
  -16.6950  -30.0015   23.7032 C   0  0  0  0  0  0  0  0  0  0  0  0
  -17.0954  -28.6939   23.9589 C   0  0  0  0  0  0  0  0  0  0  0  0
  -32.6926  -17.4509   23.4230 C   0  0  0  0  0  0  0  0  0  0  0  0
  -22.6540  -10.2052   20.2635 C   0  0  0  0  0  0  0  0  0  0  0  0
  -24.3068   -9.4939   21.8758 C   0  0  0  0  0  0  0  0  0  0  0  0
  -17.5149  -30.8471   22.9572 C   0  0  0  0  0  0  0  0  0  0  0  0
  -18.3156  -28.2309   23.4677 C   0  0  0  0  0  0  0  0  0  0  0  0
  -23.6587  -23.7521   25.1133 C   0  0  0  0  0  0  0  0  0  0  0  0
  -31.9253  -18.2955   24.2252 C   0  0  0  0  0  0  0  0  0  0  0  0
  -32.0692  -16.5974   22.5127 C   0  0  0  0  0  0  0  0  0  0  0  0
  -21.9257   -9.0383   20.4953 C   0  0  0  0  0  0  0  0  0  0  0  0
  -23.5785   -8.3270   22.1076 C   0  0  0  0  0  0  0  0  0  0  0  0
  -24.3849  -22.6950   24.5667 C   0  0  0  0  0  0  0  0  0  0  0  0
  -19.7897   -7.8587   22.8360 C   0  0  0  0  0  0  0  0  0  0  0  0
  -18.4093   -7.9774   22.9970 C   0  0  0  0  0  0  0  0  0  0  0  0
  -25.7551  -24.2695   23.3573 C   0  0  0  0  0  0  0  0  0  0  0  0
  -18.0628   -6.5347   21.0903 C   0  0  0  0  0  0  0  0  0  0  0  0
  -23.8446  -10.4329   20.9538 C   0  0  0  0  0  0  0  0  0  0  0  0
  -24.1634  -12.9634   20.9039 C   0  0  0  0  0  0  0  0  0  0  0  0
  -18.7501  -30.3972   22.4648 C   0  0  0  0  0  0  0  0  0  0  0  0
  -23.9687  -25.0777   24.7770 C   0  0  0  0  0  0  0  0  0  0  0  0
  -19.1521  -29.0709   22.7132 C   0  0  0  0  0  0  0  0  0  0  0  0
  -25.0329  -25.3418   23.9030 C   0  0  0  0  0  0  0  0  0  0  0  0
  -30.5346  -18.2866   24.1171 C   0  0  0  0  0  0  0  0  0  0  0  0
  -29.9113  -17.4330   23.2068 C   0  0  0  0  0  0  0  0  0  0  0  0
  -30.6786  -16.5884   22.4046 C   0  0  0  0  0  0  0  0  0  0  0  0
  -22.3879   -8.0993   21.4173 C   0  0  0  0  0  0  0  0  0  0  0  0
  -25.4314  -22.9534   23.6863 C   0  0  0  0  0  0  0  0  0  0  0  0
  -20.3067   -7.0781   21.8020 C   0  0  0  0  0  0  0  0  0  0  0  0
  -17.5458   -7.3154   22.1242 C   0  0  0  0  0  0  0  0  0  0  0  0
  -19.4433   -6.4161   20.9292 C   0  0  0  0  0  0  0  0  0  0  0  0
  -24.5976  -11.6378   20.7144 C   0  0  0  0  0  0  0  0  0  0  0  0
  -25.2402  -13.7332   20.5374 C   0  0  0  0  0  0  0  0  0  0  0  0
  -27.8514  -20.6170   24.1924 C   0  0  0  0  0  0  0  0  0  0  0  0
  -22.8996  -13.4551   21.3697 C   0  0  0  0  0  0  0  0  0  0  0  0
  -22.4125  -27.4517   23.3466 C   0  0  0  0  0  0  0  0  0  0  0  0
  -25.0446  -29.1567   24.1756 C   0  0  0  0  0  0  0  0  0  0  0  0
  -28.6151  -28.6390   24.2080 C   0  0  0  0  0  0  0  0  0  0  0  0
  -30.7007  -14.8201   20.6104 C   0  0  0  0  0  0  0  0  0  0  0  0
  -19.5807  -31.3335   21.6233 C   0  0  0  0  0  0  0  0  0  0  0  0
  -23.1930  -26.2079   25.3960 C   0  0  0  0  0  0  0  0  0  0  0  0
  -25.4190  -26.7479   23.5256 C   0  0  0  0  0  0  0  0  0  0  0  0
  -21.0288  -30.8804   21.4568 C   0  0  0  0  0  0  0  0  0  0  0  0
  -29.8195  -21.7978   22.3340 C   0  0  0  0  0  0  0  0  0  0  0  0
  -29.5470  -12.4710   18.1963 C   0  0  0  0  0  0  0  0  0  0  0  0
  -21.0869  -29.3979   21.1022 C   0  0  0  0  0  0  0  0  0  0  0  0
  -28.3121  -21.9073   22.1121 C   0  0  0  0  0  0  0  0  0  0  0  0
  -28.1208  -12.1539   18.6518 C   0  0  0  0  0  0  0  0  0  0  0  0
  -30.1867  -21.3095   23.7325 C   0  0  0  0  0  0  0  0  0  0  0  0
  -30.4898  -12.6705   19.3817 C   0  0  0  0  0  0  0  0  0  0  0  0
  -28.6120  -13.3355   20.8312 C   0  0  0  0  0  0  0  0  0  0  0  0
  -20.4799  -28.5395   22.2185 C   0  0  1  0  0  0  0  0  0  0  0  0
  -27.5317  -21.8899   23.4203 C   0  0  1  0  0  0  0  0  0  1  0  0
  -23.2644  -27.4972   24.5835 C   0  0  1  0  0  0  0  0  0  0  0  0
  -27.6116  -13.1903   19.6727 C   0  0  2  0  0  0  0  0  0  0  0  0
  -28.4189  -17.4271   23.0943 C   0  0  0  0  0  0  0  0  0  0  0  0
  -30.3997  -29.6668   25.6418 C   0  0  0  0  0  0  0  0  0  0  0  0
  -25.3283  -31.1535   21.8860 C   0  0  0  0  0  0  0  0  0  0  0  0
  -27.8040  -31.1219   22.2577 C   0  0  0  0  0  0  0  0  0  0  0  0
  -26.2832  -31.9230   24.0656 C   0  0  0  0  0  0  0  0  0  0  0  0
  -29.5956  -25.9893   25.0892 C   0  0  0  0  0  0  0  0  0  0  0  0
  -29.7327  -19.2058   24.9924 C   0  0  0  0  0  0  0  0  0  0  0  0
  -26.3739  -29.4548   23.5252 C   0  0  1  0  0  0  0  0  0  0  0  0
  -29.4966  -28.4616   25.4310 C   0  0  2  0  0  0  0  0  0  0  0  0
  -26.4332  -30.8892   22.9282 C   0  0  0  0  0  0  0  0  0  0  0  0
  -25.8524  -11.5659   20.2624 N   0  0  0  0  0  0  0  0  0  0  0  0
  -26.2159  -12.8560   20.1648 N   0  0  0  0  0  0  0  0  0  0  0  0
  -29.2216  -20.3496   24.2559 N   0  0  0  0  0  0  0  0  0  0  0  0
  -24.6264  -27.8187   24.1522 N   0  0  0  0  0  0  0  0  0  0  0  0
  -29.9446  -13.6689   20.3041 N   0  0  0  0  0  0  0  0  0  0  0  0
  -25.4383  -15.0680   20.5007 N   0  0  0  0  0  0  0  0  0  0  0  0
  -21.9036  -12.5272   21.7033 N   0  0  0  0  0  0  0  0  0  0  0  0
  -30.0665  -15.7138   21.4728 N   0  0  0  0  0  0  0  0  0  0  0  0
  -21.4127  -28.4052   23.3168 N   0  0  0  0  0  0  0  0  0  0  0  0
  -27.3919  -29.1852   24.5348 N   0  0  0  0  0  0  0  0  0  0  0  0
  -30.3542  -27.2522   25.2803 N   0  3  0  0  0  0  0  0  0  0  0  0
  -26.9723  -19.9262   24.7043 O   0  0  0  0  0  0  0  0  0  0  0  0
  -22.6552  -14.6812   21.4710 O   0  0  0  0  0  0  0  0  0  0  0  0
  -22.6459  -26.6146   22.4826 O   0  0  0  0  0  0  0  0  0  0  0  0
  -24.4043  -30.0761   24.6919 O   0  0  0  0  0  0  0  0  0  0  0  0
  -28.9769  -28.3279   23.0753 O   0  0  0  0  0  0  0  0  0  0  0  0
  -31.8165  -15.0130   20.1207 O   0  0  0  0  0  0  0  0  0  0  0  0
  -21.6774   -6.9607   21.6439 O   0  0  0  0  0  0  0  0  0  0  0  0
  -26.1415  -21.9234   23.1508 O   0  0  0  0  0  0  0  0  0  1  0  0
  -16.2202   -7.4282   22.2799 F   0  0  0  0  0  0  0  0  0  0  0  0
  -19.9340   -5.6638   19.9347 F   0  0  0  0  0  0  0  0  0  0  0  0
  1  2  1  0  0  0  0
  1  6  2  0  0  0  0
  2  7  2  0  0  0  0
  3  9  2  0  0  0  0
  3 10  1  0  0  0  0
  4 11  2  0  0  0  0
  4 18  1  0  0  0  0
  5 12  1  0  0  0  0
  5 18  2  0  0  0  0
  6 20  1  0  0  0  0
  7 22  1  0  0  0  0
  8 13  2  0  0  0  0
  8 21  1  0  0  0  0
  9 24  1  0  0  0  0
 10 26  2  0  0  0  0
 11 27  1  0  0  0  0
 12 27  2  0  0  0  0
 13 28  1  0  0  0  0
 14 15  2  0  0  0  0
 14 29  1  0  0  0  0
 15 30  1  0  0  0  0
 16 23  1  0  0  0  0
 16 28  2  0  0  0  0
 17 30  2  0  0  0  0
 17 31  1  0  0  0  0
 18 32  1  0  0  0  0
 19 32  1  0  0  0  0
 19 33  2  0  0  0  0
 19 35  1  0  0  0  0
 20 22  2  0  0  0  0
 20 40  1  0  0  0  0
 21 23  2  0  0  0  0
 21 41  1  0  0  0  0
 22 52  1  0  0  0  0
 23 42  1  0  0  0  0
 24 25  2  0  0  0  0
 24 62  1  0  0  0  0
 25 26  1  0  0  0  0
 25 56  1  0  0  0  0
 26 73  1  0  0  0  0
 27 83  1  0  0  0  0
 28 84  1  0  0  0  0
 29 31  2  0  0  0  0
 29 83  1  0  0  0  0
 30 85  1  0  0  0  0
 31 86  1  0  0  0  0
 32 66  2  0  0  0  0
 33 67  1  0  0  0  0
 33 71  1  0  0  0  0
 34 53  1  0  0  0  0
 34 68  1  0  0  0  0
 34 77  2  0  0  0  0
 35 72  1  0  0  0  0
 35 78  2  0  0  0  0
 36 54  1  0  0  0  0
 36 74  1  0  0  0  0
 36 79  2  0  0  0  0
 37 63  1  0  0  0  0
 37 69  1  0  0  0  0
 37 80  2  0  0  0  0
 38 64  1  0  0  0  0
 38 75  1  0  0  0  0
 38 81  2  0  0  0  0
 39 70  1  0  0  0  0
 39 73  1  0  0  0  0
 39 82  2  0  0  0  0
 40 43  1  0  0  0  0
 41 54  1  0  0  0  0
 42 69  1  0  0  0  0
 43 46  1  0  0  0  0
 44 47  1  0  0  0  0
 44 49  1  0  0  0  0
 45 48  1  0  0  0  0
 45 50  1  0  0  0  0
 46 52  1  0  0  0  0
 47 53  1  0  0  0  0
 48 55  1  0  0  0  0
 49 68  1  0  0  0  0
 50 70  1  0  0  0  0
 51 55  1  0  0  0  0
 51 70  1  0  0  0  0
 52 74  1  0  0  0  0
 53 84  1  0  0  0  0
 54 69  1  0  0  0  0
 55 67  1  0  0  0  0
 57 64  1  0  0  0  0
 58 65  1  0  0  0  0
 59 65  1  0  0  0  0
 60 65  1  0  0  0  0
 61 76  1  0  0  0  0
 62 68  1  0  0  0  0
 63 65  1  0  0  0  0
 63 75  1  0  0  0  0
 64 76  1  0  0  0  0
 66 67  1  0  0  0  0
M  CHG  1  76   1
M  ISO  4  39 100  53 101  73 100  84 101
M  END
> <Batch ID>
0048

> <Smiles>
CNC(C)C(=O)NC(C(=O)N1Cc2cc([101O:1][101CH:1]3CCCN(Cc4cccc([100NH:0][100C:0](=O)N5CCCC(n6nc(-c7ccc(Oc8ccc(F)cc8F)cc7)c(C(N)=O)c6N)C5)c4C)C3=O)ccc2CC1C(=O)NC1CCCc2ccccc21)C(C)(C)C

> <Shape>
0.266

> <Color>
0.218

> <Negative vol penalty>
0.000

$$$$

  -OEChem-04042322293D

 83 91  0     1  0  0  0  0  0999 V2000
  -37.9259  -32.3573   16.7668 C   0  0  0  0  0  0  0  0  0  0  0  0
  -37.9670  -31.1227   17.4068 C   0  0  0  0  0  0  0  0  0  0  0  0
  -23.1019   -9.8340   19.9980 C   0  0  0  0  0  0  0  0  0  0  0  0
  -23.8232   -9.9443   22.3012 C   0  0  0  0  0  0  0  0  0  0  0  0
  -36.9012  -33.2574   17.0561 C   0  0  0  0  0  0  0  0  0  0  0  0
  -36.9840  -30.7880   18.3375 C   0  0  0  0  0  0  0  0  0  0  0  0
  -34.6227  -25.2308   19.3609 C   0  0  0  0  0  0  0  0  0  0  0  0
  -32.5903  -17.6452   23.3205 C   0  0  0  0  0  0  0  0  0  0  0  0
  -32.0048  -16.7265   22.4494 C   0  0  0  0  0  0  0  0  0  0  0  0
  -22.3610   -8.6876   20.2849 C   0  0  0  0  0  0  0  0  0  0  0  0
  -23.0822   -8.7979   22.5881 C   0  0  0  0  0  0  0  0  0  0  0  0
  -34.8915  -24.2605   20.3253 C   0  0  0  0  0  0  0  0  0  0  0  0
  -19.8493   -8.0047   23.1710 C   0  0  0  0  0  0  0  0  0  0  0  0
  -19.0731   -8.0098   24.3298 C   0  0  0  0  0  0  0  0  0  0  0  0
  -33.0577  -25.0855   21.6578 C   0  0  0  0  0  0  0  0  0  0  0  0
  -30.4063  -18.5268   23.8588 C   0  0  0  0  0  0  0  0  0  0  0  0
  -20.3137   -6.1141   25.1692 C   0  0  0  0  0  0  0  0  0  0  0  0
  -23.8331  -10.4624   21.0061 C   0  0  0  0  0  0  0  0  0  0  0  0
  -24.1615  -12.9823   20.7835 C   0  0  0  0  0  0  0  0  0  0  0  0
  -35.8997  -32.9297   17.9837 C   0  0  0  0  0  0  0  0  0  0  0  0
  -33.5745  -26.1442   19.5432 C   0  0  0  0  0  0  0  0  0  0  0  0
  -35.9457  -31.6852   18.6405 C   0  0  0  0  0  0  0  0  0  0  0  0
  -32.7761  -26.0648   20.6931 C   0  0  0  0  0  0  0  0  0  0  0  0
  -31.7910  -18.5453   24.0252 C   0  0  0  0  0  0  0  0  0  0  0  0
  -29.8207  -17.6080   22.9877 C   0  0  0  0  0  0  0  0  0  0  0  0
  -30.6200  -16.7079   22.2830 C   0  0  0  0  0  0  0  0  0  0  0  0
  -22.3511   -8.1695   21.5800 C   0  0  0  0  0  0  0  0  0  0  0  0
  -34.1108  -24.1896   21.4753 C   0  0  0  0  0  0  0  0  0  0  0  0
  -20.8577   -7.0543   23.0111 C   0  0  0  0  0  0  0  0  0  0  0  0
  -19.3053   -7.0645   25.3289 C   0  0  0  0  0  0  0  0  0  0  0  0
  -21.0899   -6.1090   24.0102 C   0  0  0  0  0  0  0  0  0  0  0  0
  -24.5991  -11.6463   20.7103 C   0  0  0  0  0  0  0  0  0  0  0  0
  -25.2550  -13.7230   20.4065 C   0  0  0  0  0  0  0  0  0  0  0  0
  -22.8811  -13.5070   21.1589 C   0  0  0  0  0  0  0  0  0  0  0  0
  -33.3752  -29.3049   19.8152 C   0  0  0  0  0  0  0  0  0  0  0  0
  -30.1854  -28.7184   19.7574 C   0  0  0  0  0  0  0  0  0  0  0  0
  -33.5022  -21.3440   23.6387 C   0  0  0  0  0  0  0  0  0  0  0  0
  -27.6346  -26.5151   20.2922 C   0  0  0  0  0  0  0  0  0  0  0  0
  -30.7111  -14.8122   20.6264 C   0  0  0  0  0  0  0  0  0  0  0  0
  -34.8387  -33.9542   18.2987 C   0  0  0  0  0  0  0  0  0  0  0  0
  -33.2806  -27.1679   18.4810 C   0  0  0  0  0  0  0  0  0  0  0  0
  -31.6262  -27.0090   20.9269 C   0  0  0  0  0  0  0  0  0  0  0  0
  -33.6256  -33.3727   19.0202 C   0  0  0  0  0  0  0  0  0  0  0  0
  -29.6513  -12.2917   18.3458 C   0  0  0  0  0  0  0  0  0  0  0  0
  -34.0689  -32.4641   20.1625 C   0  0  0  0  0  0  0  0  0  0  0  0
  -28.2064  -12.0090   18.7637 C   0  0  0  0  0  0  0  0  0  0  0  0
  -30.5447  -12.5780   19.5515 C   0  0  0  0  0  0  0  0  0  0  0  0
  -28.6104  -13.3479   20.8687 C   0  0  0  0  0  0  0  0  0  0  0  0
  -34.8836  -31.2757   19.6377 C   0  0  1  0  0  0  0  0  0  0  0  0
  -32.5121  -28.3747   19.0106 C   0  0  1  0  0  0  0  0  0  0  0  0
  -27.6586  -13.1178   19.6835 C   0  0  2  0  0  0  0  0  0  0  0  0
  -28.3350  -17.6128   22.8267 C   0  0  0  0  0  0  0  0  0  0  0  0
  -25.1335  -26.3358   20.1945 C   0  0  0  0  0  0  0  0  0  0  0  0
  -29.9722  -30.3116   22.3509 C   0  0  0  0  0  0  0  0  0  0  0  0
  -27.7019  -29.3139   22.6955 C   0  0  0  0  0  0  0  0  0  0  0  0
  -28.1421  -30.7500   20.7038 C   0  0  0  0  0  0  0  0  0  0  0  0
  -27.7521  -24.3665   18.2604 C   0  0  0  0  0  0  0  0  0  0  0  0
  -32.4216  -19.5358   24.9609 C   0  0  0  0  0  0  0  0  0  0  0  0
  -33.2654  -22.7685   23.1846 C   0  0  0  0  0  0  0  0  0  1  0  0
  -29.1331  -28.4260   20.7996 C   0  0  1  0  0  0  0  0  0  0  0  0
  -26.4381  -26.1332   19.4397 C   0  0  2  0  0  0  0  0  0  0  0  0
  -28.7601  -29.6837   21.6343 C   0  0  0  0  0  0  0  0  0  0  0  0
  -25.8714  -11.5413   20.3174 N   0  0  0  0  0  0  0  0  0  0  0  0
  -26.2426  -12.8207   20.1403 N   0  0  0  0  0  0  0  0  0  0  0  0
  -31.3827  -27.9963   19.8623 N   0  0  0  0  0  0  0  0  0  0  0  0
  -29.9648  -13.6416   20.3744 N   0  0  0  0  0  0  0  0  0  0  0  0
  -25.4585  -15.0515   20.2799 N   0  0  0  0  0  0  0  0  0  0  0  0
  -21.8692  -12.6062   21.5181 N   0  0  0  0  0  0  0  0  0  0  0  0
  -30.0444  -15.7670   21.3935 N   0  0  0  0  0  0  0  0  0  0  0  0
  -34.0080  -30.2767   19.0637 N   0  0  0  0  0  0  0  0  0  0  0  0
  -32.4475  -20.8674   24.4014 N   0  0  0  0  0  0  0  0  0  0  0  0
  -28.0095  -27.8263   20.0882 N   0  0  0  0  0  0  0  0  0  0  0  0
  -26.5280  -24.7026   19.0321 N   0  3  0  0  0  0  0  0  0  0  0  0
  -22.6364  -14.7373   21.1594 O   0  0  0  0  0  0  0  0  0  0  0  0
  -33.4596  -29.1532   21.0283 O   0  0  0  0  0  0  0  0  0  0  0  0
  -29.9509  -29.5514   18.8784 O   0  0  0  0  0  0  0  0  0  0  0  0
  -34.5166  -20.7148   23.3507 O   0  0  0  0  0  0  0  0  0  0  0  0
  -28.1797  -25.7300   21.0649 O   0  0  0  0  0  0  0  0  0  0  0  0
  -31.8468  -14.9684   20.1706 O   0  0  0  0  0  0  0  0  0  0  0  0
  -21.6280   -7.0510   21.8603 O   0  0  0  0  0  0  0  0  0  0  0  0
  -34.3715  -23.2439   22.4185 O   0  0  0  0  0  0  0  0  0  1  0  0
  -18.5608   -7.0705   26.4424 F   0  0  0  0  0  0  0  0  0  0  0  0
  -22.0581   -5.1942   23.8629 F   0  0  0  0  0  0  0  0  0  0  0  0
  1  2  1  0  0  0  0
  1  5  2  0  0  0  0
  2  6  2  0  0  0  0
  3 10  2  0  0  0  0
  3 18  1  0  0  0  0
  4 11  1  0  0  0  0
  4 18  2  0  0  0  0
  5 20  1  0  0  0  0
  6 22  1  0  0  0  0
  7 12  2  0  0  0  0
  7 21  1  0  0  0  0
  8  9  2  0  0  0  0
  8 24  1  0  0  0  0
  9 26  1  0  0  0  0
 10 27  1  0  0  0  0
 11 27  2  0  0  0  0
 12 28  1  0  0  0  0
 13 14  2  0  0  0  0
 13 29  1  0  0  0  0
 14 30  1  0  0  0  0
 15 23  1  0  0  0  0
 15 28  2  0  0  0  0
 16 24  2  0  0  0  0
 16 25  1  0  0  0  0
 17 30  2  0  0  0  0
 17 31  1  0  0  0  0
 18 32  1  0  0  0  0
 19 32  1  0  0  0  0
 19 33  2  0  0  0  0
 19 34  1  0  0  0  0
 20 22  2  0  0  0  0
 20 40  1  0  0  0  0
 21 23  2  0  0  0  0
 21 41  1  0  0  0  0
 22 49  1  0  0  0  0
 23 42  1  0  0  0  0
 24 58  1  0  0  0  0
 25 26  2  0  0  0  0
 25 52  1  0  0  0  0
 26 69  1  0  0  0  0
 27 80  1  0  0  0  0
 28 81  1  0  0  0  0
 29 31  2  0  0  0  0
 29 80  1  0  0  0  0
 30 82  1  0  0  0  0
 31 83  1  0  0  0  0
 32 63  2  0  0  0  0
 33 64  1  0  0  0  0
 33 67  1  0  0  0  0
 34 68  1  0  0  0  0
 34 74  2  0  0  0  0
 35 50  1  0  0  0  0
 35 70  1  0  0  0  0
 35 75  2  0  0  0  0
 36 60  1  0  0  0  0
 36 65  1  0  0  0  0
 36 76  2  0  0  0  0
 37 59  1  0  0  0  0
 37 71  1  0  0  0  0
 37 77  2  0  0  0  0
 38 61  1  0  0  0  0
 38 72  1  0  0  0  0
 38 78  2  0  0  0  0
 39 66  1  0  0  0  0
 39 69  1  0  0  0  0
 39 79  2  0  0  0  0
 40 43  1  0  0  0  0
 41 50  1  0  0  0  0
 42 65  1  0  0  0  0
 43 45  1  0  0  0  0
 44 46  1  0  0  0  0
 44 47  1  0  0  0  0
 45 49  1  0  0  0  0
 46 51  1  0  0  0  0
 47 66  1  0  0  0  0
 48 51  1  0  0  0  0
 48 66  1  0  0  0  0
 49 70  1  0  0  0  0
 50 65  1  0  0  0  0
 51 64  1  0  0  0  0
 53 61  1  0  0  0  0
 54 62  1  0  0  0  0
 55 62  1  0  0  0  0
 56 62  1  0  0  0  0
 57 73  1  0  0  0  0
 58 71  1  0  0  0  0
 59 81  1  0  0  0  0
 60 62  1  0  0  0  0
 60 72  1  0  0  0  0
 61 73  1  0  0  0  0
 63 64  1  0  0  0  0
M  CHG  1  73   1
M  ISO  4  39 100  59 101  69 100  81 101
M  END
> <Batch ID>
0048

> <Smiles>
CNC(C)C(=O)NC(C(=O)N1Cc2cc([101O:1][101CH2:1]C(=O)NCc3ccc([100NH:0][100C:0](=O)N4CCCC(n5nc(-c6ccc(Oc7ccc(F)cc7F)cc6)c(C(N)=O)c5N)C4)c(C)c3)ccc2CC1C(=O)NC1CCCc2ccccc21)C(C)(C)C

> <Shape>
0.225

> <Color>
0.193

> <Negative vol penalty>
0.000

$$$$

  -OEChem-04042322293D

 86 95  0     1  0  0  0  0  0999 V2000
  -18.1531  -26.8978   22.4181 C   0  0  0  0  0  0  0  0  0  0  0  0
  -18.5682  -27.9375   21.5923 C   0  0  0  0  0  0  0  0  0  0  0  0
  -30.3190  -24.6139   18.2227 C   0  0  0  0  0  0  0  0  0  0  0  0
  -27.2521  -15.2689   19.7542 C   0  0  0  0  0  0  0  0  0  0  0  0
  -25.9726  -15.2848   21.8035 C   0  0  0  0  0  0  0  0  0  0  0  0
  -18.9635  -26.4812   23.4734 C   0  0  0  0  0  0  0  0  0  0  0  0
  -19.7935  -28.5622   21.8220 C   0  0  0  0  0  0  0  0  0  0  0  0
  -24.8991  -28.6932   16.7418 C   0  0  0  0  0  0  0  0  0  0  0  0
  -29.0240  -24.6893   18.7353 C   0  0  0  0  0  0  0  0  0  0  0  0
  -30.5684  -24.9822   16.9007 C   0  0  0  0  0  0  0  0  0  0  0  0
  -27.0419  -13.8953   19.6336 C   0  0  0  0  0  0  0  0  0  0  0  0
  -25.7623  -13.9112   21.6829 C   0  0  0  0  0  0  0  0  0  0  0  0
  -25.8454  -28.9438   15.7480 C   0  0  0  0  0  0  0  0  0  0  0  0
  -23.7518  -11.8463   19.9181 C   0  0  0  0  0  0  0  0  0  0  0  0
  -22.4618  -11.3672   20.1459 C   0  0  0  0  0  0  0  0  0  0  0  0
  -27.2572  -30.0647   17.3600 C   0  0  0  0  0  0  0  0  0  0  0  0
  -28.2276  -25.5012   16.6037 C   0  0  0  0  0  0  0  0  0  0  0  0
  -23.2910   -9.9934   21.9522 C   0  0  0  0  0  0  0  0  0  0  0  0
  -26.7175  -15.9637   20.8392 C   0  0  0  0  0  0  0  0  0  0  0  0
  -28.1712  -18.0471   21.0708 C   0  0  0  0  0  0  0  0  0  0  0  0
  -20.2038  -27.0946   23.7102 C   0  0  0  0  0  0  0  0  0  0  0  0
  -25.1354  -29.1144   18.0533 C   0  0  0  0  0  0  0  0  0  0  0  0
  -20.6207  -28.1543   22.8822 C   0  0  0  0  0  0  0  0  0  0  0  0
  -26.3185  -29.8056   18.3623 C   0  0  0  0  0  0  0  0  0  0  0  0
  -27.9783  -25.1330   17.9258 C   0  0  0  0  0  0  0  0  0  0  0  0
  -29.5227  -25.4258   16.0912 C   0  0  0  0  0  0  0  0  0  0  0  0
  -26.2970  -13.2164   20.5979 C   0  0  0  0  0  0  0  0  0  0  0  0
  -27.0214  -29.6280   16.0563 C   0  0  0  0  0  0  0  0  0  0  0  0
  -24.8115  -11.3989   20.7073 C   0  0  0  0  0  0  0  0  0  0  0  0
  -22.2313  -10.4408   21.1629 C   0  0  0  0  0  0  0  0  0  0  0  0
  -24.5810  -10.4725   21.7243 C   0  0  0  0  0  0  0  0  0  0  0  0
  -26.9347  -17.3826   20.9647 C   0  0  0  0  0  0  0  0  0  0  0  0
  -27.8395  -19.3766   21.1659 C   0  0  0  0  0  0  0  0  0  0  0  0
  -30.7348  -27.4703   13.1636 C   0  0  0  0  0  0  0  0  0  0  0  0
  -31.9936  -27.3358   12.7196 C   0  0  0  0  0  0  0  0  0  0  0  0
  -29.5008  -17.5107   21.0823 C   0  0  0  0  0  0  0  0  0  0  0  0
  -23.8990  -29.2686   21.5922 C   0  0  0  0  0  0  0  0  0  0  0  0
  -26.9070  -28.6813   21.7241 C   0  0  0  0  0  0  0  0  0  0  0  0
  -30.0371  -27.6300   22.5812 C   0  0  0  0  0  0  0  0  0  0  0  0
  -24.8441  -23.7770   19.4897 C   0  0  0  0  0  0  0  0  0  0  0  0
  -21.0239  -26.6414   24.8921 C   0  0  0  0  0  0  0  0  0  0  0  0
  -24.1163  -28.9203   19.1431 C   0  0  0  0  0  0  0  0  0  0  0  0
  -26.5146  -30.2703   19.7795 C   0  0  0  0  0  0  0  0  0  0  0  0
  -29.6079  -27.9640   12.2975 C   0  0  0  0  0  0  0  0  0  0  0  0
  -22.4771  -27.1058   24.8391 C   0  0  0  0  0  0  0  0  0  0  0  0
  -28.8632  -29.0979   12.9918 C   0  0  0  0  0  0  0  0  0  0  0  0
  -23.3581  -21.6078   21.8904 C   0  0  0  0  0  0  0  0  0  0  0  0
  -22.5519  -28.5847   24.4731 C   0  0  0  0  0  0  0  0  0  0  0  0
  -24.2542  -20.3683   21.8676 C   0  0  0  0  0  0  0  0  0  0  0  0
  -23.2043  -22.2187   20.4993 C   0  0  0  0  0  0  0  0  0  0  0  0
  -25.3698  -21.2808   19.7888 C   0  0  0  0  0  0  0  0  0  0  0  0
  -29.7389  -28.2924   15.2164 C   0  0  0  0  0  0  0  0  0  0  0  0
  -21.9544  -28.8403   23.0842 C   0  0  1  0  0  0  0  0  0  0  0  0
  -24.7491  -28.6522   20.5203 C   0  0  1  0  0  0  0  0  0  0  0  0
  -25.6001  -20.6620   21.1781 C   0  0  2  0  0  0  0  0  0  0  0  0
  -28.5047  -28.7289   14.4312 C   0  0  1  0  0  0  0  0  0  1  0  0
  -31.6931  -27.7050   24.4652 C   0  0  0  0  0  0  0  0  0  0  0  0
  -27.5635  -31.5773   21.0269 C   0  0  0  0  0  0  0  0  0  0  0  0
  -29.7547  -31.2894   22.2033 C   0  0  0  0  0  0  0  0  0  0  0  0
  -27.6196  -31.0540   23.4717 C   0  0  0  0  0  0  0  0  0  0  0  0
  -30.0448  -24.6823   22.8458 C   0  0  0  0  0  0  0  0  0  0  0  0
  -26.5941  -25.2147   18.4751 C   0  0  0  0  0  0  0  0  0  0  0  0
  -29.7909  -25.8213   14.6690 C   0  0  0  0  0  0  0  0  0  0  0  0
  -28.3012  -29.2424   21.8453 C   0  0  1  0  0  0  0  0  0  0  0  0
  -30.5589  -26.9241   23.8197 C   0  0  2  0  0  0  0  0  0  0  0  0
  -28.3025  -30.7735   22.1154 C   0  0  0  0  0  0  0  0  0  0  0  0
  -25.8951  -18.2207   20.9901 N   0  0  0  0  0  0  0  0  0  0  0  0
  -26.4775  -19.4255   21.1133 N   0  0  0  0  0  0  0  0  0  0  0  0
  -26.0953  -29.2163   20.7164 N   0  0  0  0  0  0  0  0  0  0  0  0
  -24.5169  -22.4745   19.9014 N   0  0  0  0  0  0  0  0  0  0  0  0
  -28.5829  -20.4967   21.2886 N   0  0  0  0  0  0  0  0  0  0  0  0
  -30.0692  -17.1601   22.3146 N   0  0  0  0  0  0  0  0  0  0  0  0
  -22.8886  -28.4456   22.0517 N   0  0  0  0  0  0  0  0  0  0  0  0
  -28.9707  -28.4536   22.8740 N   0  0  0  0  0  0  0  0  0  0  0  0
  -26.1103  -23.9336   18.9392 N   0  0  0  0  0  0  0  0  0  0  0  0
  -30.4726  -27.1560   14.5471 N   0  3  1  0  0  0  0  0  0  0  0  0
  -31.0633  -25.5666   23.4684 N   0  3  0  0  0  0  0  0  0  0  0  0
  -30.1713  -17.3624   20.0326 O   0  0  0  0  0  0  0  0  0  0  0  0
  -24.1419  -30.4067   21.9761 O   0  0  0  0  0  0  0  0  0  0  0  0
  -26.5429  -27.7967   22.5040 O   0  0  0  0  0  0  0  0  0  0  0  0
  -30.5288  -27.4699   21.4663 O   0  0  0  0  0  0  0  0  0  0  0  0
  -24.0676  -24.7307   19.6093 O   0  0  0  0  0  0  0  0  0  0  0  0
  -26.0915  -11.8761   20.4804 O   0  0  0  0  0  0  0  0  0  0  0  0
  -27.9431  -29.8654   15.0822 O   0  0  0  0  0  0  0  0  0  1  0  0
  -20.9922   -9.9819   21.3826 F   0  0  0  0  0  0  0  0  0  0  0  0
  -25.5948  -10.0400   22.4865 F   0  0  0  0  0  0  0  0  0  0  0  0
  1  2  1  0  0  0  0
  1  6  2  0  0  0  0
  2  7  2  0  0  0  0
  3  9  1  0  0  0  0
  3 10  2  0  0  0  0
  4 11  2  0  0  0  0
  4 19  1  0  0  0  0
  5 12  1  0  0  0  0
  5 19  2  0  0  0  0
  6 21  1  0  0  0  0
  7 23  1  0  0  0  0
  8 13  2  0  0  0  0
  8 22  1  0  0  0  0
  9 25  2  0  0  0  0
 10 26  1  0  0  0  0
 11 27  1  0  0  0  0
 12 27  2  0  0  0  0
 13 28  1  0  0  0  0
 14 15  2  0  0  0  0
 14 29  1  0  0  0  0
 15 30  1  0  0  0  0
 16 24  1  0  0  0  0
 16 28  2  0  0  0  0
 17 25  1  0  0  0  0
 17 26  2  0  0  0  0
 18 30  2  0  0  0  0
 18 31  1  0  0  0  0
 19 32  1  0  0  0  0
 20 32  1  0  0  0  0
 20 33  2  0  0  0  0
 20 36  1  0  0  0  0
 21 23  2  0  0  0  0
 21 41  1  0  0  0  0
 22 24  2  0  0  0  0
 22 42  1  0  0  0  0
 23 53  1  0  0  0  0
 24 43  1  0  0  0  0
 25 62  1  0  0  0  0
 26 63  1  0  0  0  0
 27 83  1  0  0  0  0
 28 84  1  0  0  0  0
 29 31  2  0  0  0  0
 29 83  1  0  0  0  0
 30 85  1  0  0  0  0
 31 86  1  0  0  0  0
 32 67  2  0  0  0  0
 33 68  1  0  0  0  0
 33 71  1  0  0  0  0
 34 35  2  0  0  0  0
 34 44  1  0  0  0  0
 34 76  1  0  0  0  0
 36 72  1  0  0  0  0
 36 78  2  0  0  0  0
 37 54  1  0  0  0  0
 37 73  1  0  0  0  0
 37 79  2  0  0  0  0
 38 64  1  0  0  0  0
 38 69  1  0  0  0  0
 38 80  2  0  0  0  0
 39 65  1  0  0  0  0
 39 74  1  0  0  0  0
 39 81  2  0  0  0  0
 40 70  1  0  0  0  0
 40 75  1  0  0  0  0
 40 82  2  0  0  0  0
 41 45  1  0  0  0  0
 42 54  1  0  0  0  0
 43 69  1  0  0  0  0
 44 46  1  0  0  0  0
 45 48  1  0  0  0  0
 46 56  1  0  0  0  0
 47 49  1  0  0  0  0
 47 50  1  0  0  0  0
 48 53  1  0  0  0  0
 49 55  1  0  0  0  0
 50 70  1  0  0  0  0
 51 55  1  0  0  0  0
 51 70  1  0  0  0  0
 52 56  1  0  0  0  0
 52 76  1  0  0  0  0
 53 73  1  0  0  0  0
 54 69  1  0  0  0  0
 55 68  1  0  0  0  0
 56 84  1  0  0  0  0
 57 65  1  0  0  0  0
 58 66  1  0  0  0  0
 59 66  1  0  0  0  0
 60 66  1  0  0  0  0
 61 77  1  0  0  0  0
 62 75  1  0  0  0  0
 63 76  1  0  0  0  0
 64 66  1  0  0  0  0
 64 74  1  0  0  0  0
 65 77  1  0  0  0  0
 67 68  1  0  0  0  0
M  CHG  2  76   1  77   1
M  ISO  4  40 100  56 101  75 100  84 101
M  END
> <Batch ID>
0048

> <Smiles>
C=C1CC[101CH:1]([101O:1]c2ccc3c(c2)CN(C(=O)C(NC(=O)C(C)NC)C(C)(C)C)C(C(=O)NC2CCCc4ccccc42)C3)CN1Cc1cccc(C[100NH:0][100C:0](=O)N2CCCC(n3nc(-c4ccc(Oc5ccc(F)cc5F)cc4)c(C(N)=O)c3N)C2)c1

> <Shape>
0.223

> <Color>
0.058

> <Negative vol penalty>
0.000

$$$$

  -OEChem-04042322293D

 86 95  0     1  0  0  0  0  0999 V2000
  -23.2394  -17.8481   25.8818 C   0  0  0  0  0  0  0  0  0  0  0  0
  -23.9292  -19.0394   26.0761 C   0  0  0  0  0  0  0  0  0  0  0  0
  -26.0181  -14.2946   21.3597 C   0  0  0  0  0  0  0  0  0  0  0  0
  -25.7122  -16.2245   19.9388 C   0  0  0  0  0  0  0  0  0  0  0  0
  -22.3985  -17.7057   24.7801 C   0  0  0  0  0  0  0  0  0  0  0  0
  -23.7692  -20.0930   25.1754 C   0  0  0  0  0  0  0  0  0  0  0  0
  -26.5188  -25.5238   24.9030 C   0  0  0  0  0  0  0  0  0  0  0  0
  -30.2070  -23.1192   16.4199 C   0  0  0  0  0  0  0  0  0  0  0  0
  -30.4112  -22.0268   17.2629 C   0  0  0  0  0  0  0  0  0  0  0  0
  -24.6384  -14.0911   21.3804 C   0  0  0  0  0  0  0  0  0  0  0  0
  -24.3324  -16.0210   19.9594 C   0  0  0  0  0  0  0  0  0  0  0  0
  -27.6392  -26.0802   24.2876 C   0  0  0  0  0  0  0  0  0  0  0  0
  -22.2834  -12.7770   19.3407 C   0  0  0  0  0  0  0  0  0  0  0  0
  -21.8173  -11.4755   19.1556 C   0  0  0  0  0  0  0  0  0  0  0  0
  -26.2427  -26.8994   22.4993 C   0  0  0  0  0  0  0  0  0  0  0  0
  -31.1685  -23.5156   19.0085 C   0  0  0  0  0  0  0  0  0  0  0  0
  -20.7567  -11.5468   21.3252 C   0  0  0  0  0  0  0  0  0  0  0  0
  -26.5551  -15.3614   20.6389 C   0  0  0  0  0  0  0  0  0  0  0  0
  -28.9646  -14.6817   20.1494 C   0  0  0  0  0  0  0  0  0  0  0  0
  -22.2382  -18.7542   23.8592 C   0  0  0  0  0  0  0  0  0  0  0  0
  -25.2514  -25.6418   24.3146 C   0  0  0  0  0  0  0  0  0  0  0  0
  -22.9065  -19.9773   24.0704 C   0  0  0  0  0  0  0  0  0  0  0  0
  -25.1074  -26.3457   23.1106 C   0  0  0  0  0  0  0  0  0  0  0  0
  -30.4836  -24.4098   16.8711 C   0  0  0  0  0  0  0  0  0  0  0  0
  -30.9643  -24.6080   18.1654 C   0  0  0  0  0  0  0  0  0  0  0  0
  -30.8919  -22.2250   18.5572 C   0  0  0  0  0  0  0  0  0  0  0  0
  -23.7955  -14.9543   20.6802 C   0  0  0  0  0  0  0  0  0  0  0  0
  -27.5018  -26.7657   23.0841 C   0  0  0  0  0  0  0  0  0  0  0  0
  -21.9863  -13.4635   20.5181 C   0  0  0  0  0  0  0  0  0  0  0  0
  -21.0539  -10.8603   20.1478 C   0  0  0  0  0  0  0  0  0  0  0  0
  -21.2229  -12.8483   21.5103 C   0  0  0  0  0  0  0  0  0  0  0  0
  -27.9802  -15.5725   20.6176 C   0  0  0  0  0  0  0  0  0  0  0  0
  -30.1504  -15.3464   20.3455 C   0  0  0  0  0  0  0  0  0  0  0  0
  -29.7951  -26.4314   20.5994 C   0  0  0  0  0  0  0  0  0  0  0  0
  -28.8201  -13.3706   19.5873 C   0  0  0  0  0  0  0  0  0  0  0  0
  -23.1013  -23.5894   23.1884 C   0  0  0  0  0  0  0  0  0  0  0  0
  -21.2913  -26.2622   22.8689 C   0  0  0  0  0  0  0  0  0  0  0  0
  -21.7901  -29.6657   21.7804 C   0  0  0  0  0  0  0  0  0  0  0  0
  -31.5688  -21.1385   20.7269 C   0  0  0  0  0  0  0  0  0  0  0  0
  -21.3094  -18.5489   22.6885 C   0  0  0  0  0  0  0  0  0  0  0  0
  -24.0487  -25.0589   25.0047 C   0  0  0  0  0  0  0  0  0  0  0  0
  -23.7657  -26.5180   22.4482 C   0  0  0  0  0  0  0  0  0  0  0  0
  -21.5463  -19.5468   21.5596 C   0  0  0  0  0  0  0  0  0  0  0  0
  -32.0361  -25.9303   22.4198 C   0  0  0  0  0  0  0  0  0  0  0  0
  -32.1778  -18.6310   23.1802 C   0  0  0  0  0  0  0  0  0  0  0  0
  -21.5944  -20.9613   22.1178 C   0  0  0  0  0  0  0  0  0  0  0  0
  -30.8955  -26.8248   22.8584 C   0  0  0  0  0  0  0  0  0  0  0  0
  -31.2646  -17.4787   22.7554 C   0  0  0  0  0  0  0  0  0  0  0  0
  -32.2734  -26.0990   20.9298 C   0  0  0  0  0  0  0  0  0  0  0  0
  -31.5283  -19.9910   22.9307 C   0  0  0  0  0  0  0  0  0  0  0  0
  -30.1240  -19.0507   21.1383 C   0  0  0  0  0  0  0  0  0  0  0  0
  -22.7716  -21.1260   23.0873 C   0  0  1  0  0  0  0  0  0  0  0  0
  -29.6375  -26.4217   22.1146 C   0  0  1  0  0  0  0  0  0  1  0  0
  -22.8835  -24.7971   24.0553 C   0  0  1  0  0  0  0  0  0  0  0  0
  -30.7612  -17.6621   21.3102 C   0  0  2  0  0  0  0  0  0  0  0  0
  -30.2579  -25.5635   15.9501 C   0  0  0  0  0  0  0  0  0  0  0  0
  -20.5697  -31.7706   22.3948 C   0  0  0  0  0  0  0  0  0  0  0  0
  -19.6283  -25.6813   20.3775 C   0  0  0  0  0  0  0  0  0  0  0  0
  -19.6018  -28.1401   19.9068 C   0  0  0  0  0  0  0  0  0  0  0  0
  -18.5633  -27.2610   21.9976 C   0  0  0  0  0  0  0  0  0  0  0  0
  -24.2904  -31.0080   22.6204 C   0  0  0  0  0  0  0  0  0  0  0  0
  -31.2670  -25.9880   18.6735 C   0  0  0  0  0  0  0  0  0  0  0  0
  -21.0821  -27.2881   21.7812 C   0  0  1  0  0  0  0  0  0  0  0  0
  -21.7949  -30.9076   22.6534 C   0  0  2  0  0  0  0  0  0  0  0  0
  -19.7435  -27.0787   21.0185 C   0  0  0  0  0  0  0  0  0  0  0  0
  -28.4959  -16.7158   21.0768 N   0  0  0  0  0  0  0  0  0  0  0  0
  -29.8172  -16.5480   20.8981 N   0  0  0  0  0  0  0  0  0  0  0  0
  -31.0597  -26.0971   20.1114 N   0  0  0  0  0  0  0  0  0  0  0  0
  -22.6209  -25.9246   23.1586 N   0  0  0  0  0  0  0  0  0  0  0  0
  -31.0800  -20.0943   21.5403 N   0  0  0  0  0  0  0  0  0  0  0  0
  -31.4352  -15.0144   20.0975 N   0  0  0  0  0  0  0  0  0  0  0  0
  -27.5302  -12.8380   19.4572 N   0  0  0  0  0  0  0  0  0  0  0  0
  -31.0976  -21.1159   19.4146 N   0  0  0  0  0  0  0  0  0  0  0  0
  -22.6611  -22.4064   23.7508 N   0  0  0  0  0  0  0  0  0  0  0  0
  -21.2073  -28.5930   22.4214 N   0  0  0  0  0  0  0  0  0  0  0  0
  -23.0112  -31.7254   22.3840 N   0  3  0  0  0  0  0  0  0  0  0  0
  -28.8184  -26.6611   19.8814 O   0  0  0  0  0  0  0  0  0  0  0  0
  -29.8067  -12.6850   19.2268 O   0  0  0  0  0  0  0  0  0  0  0  0
  -23.6281  -23.7212   22.0899 O   0  0  0  0  0  0  0  0  0  0  0  0
  -20.3113  -25.7835   23.4452 O   0  0  0  0  0  0  0  0  0  0  0  0
  -22.2533  -29.6499   20.6421 O   0  0  0  0  0  0  0  0  0  0  0  0
  -32.3691  -21.9741   21.1549 O   0  0  0  0  0  0  0  0  0  0  0  0
  -22.4491  -14.7559   20.7000 O   0  0  0  0  0  0  0  0  0  0  0  0
  -28.5939  -27.3092   22.4810 O   0  0  0  0  0  0  0  0  0  1  0  0
  -20.6051   -9.6110   19.9693 F   0  0  0  0  0  0  0  0  0  0  0  0
  -20.9331  -13.5032   22.6430 F   0  0  0  0  0  0  0  0  0  0  0  0
  1  2  1  0  0  0  0
  1  5  2  0  0  0  0
  2  6  2  0  0  0  0
  3 10  2  0  0  0  0
  3 18  1  0  0  0  0
  4 11  1  0  0  0  0
  4 18  2  0  0  0  0
  5 20  1  0  0  0  0
  6 22  1  0  0  0  0
  7 12  2  0  0  0  0
  7 21  1  0  0  0  0
  8  9  2  0  0  0  0
  8 24  1  0  0  0  0
  9 26  1  0  0  0  0
 10 27  1  0  0  0  0
 11 27  2  0  0  0  0
 12 28  1  0  0  0  0
 13 14  2  0  0  0  0
 13 29  1  0  0  0  0
 14 30  1  0  0  0  0
 15 23  1  0  0  0  0
 15 28  2  0  0  0  0
 16 25  1  0  0  0  0
 16 26  2  0  0  0  0
 17 30  2  0  0  0  0
 17 31  1  0  0  0  0
 18 32  1  0  0  0  0
 19 32  1  0  0  0  0
 19 33  2  0  0  0  0
 19 35  1  0  0  0  0
 20 22  2  0  0  0  0
 20 40  1  0  0  0  0
 21 23  2  0  0  0  0
 21 41  1  0  0  0  0
 22 52  1  0  0  0  0
 23 42  1  0  0  0  0
 24 25  2  0  0  0  0
 24 56  1  0  0  0  0
 25 62  1  0  0  0  0
 26 73  1  0  0  0  0
 27 83  1  0  0  0  0
 28 84  1  0  0  0  0
 29 31  2  0  0  0  0
 29 83  1  0  0  0  0
 30 85  1  0  0  0  0
 31 86  1  0  0  0  0
 32 66  2  0  0  0  0
 33 67  1  0  0  0  0
 33 71  1  0  0  0  0
 34 53  1  0  0  0  0
 34 68  1  0  0  0  0
 34 77  2  0  0  0  0
 35 72  1  0  0  0  0
 35 78  2  0  0  0  0
 36 54  1  0  0  0  0
 36 74  1  0  0  0  0
 36 79  2  0  0  0  0
 37 63  1  0  0  0  0
 37 69  1  0  0  0  0
 37 80  2  0  0  0  0
 38 64  1  0  0  0  0
 38 75  1  0  0  0  0
 38 81  2  0  0  0  0
 39 70  1  0  0  0  0
 39 73  1  0  0  0  0
 39 82  2  0  0  0  0
 40 43  1  0  0  0  0
 41 54  1  0  0  0  0
 42 69  1  0  0  0  0
 43 46  1  0  0  0  0
 44 47  1  0  0  0  0
 44 49  1  0  0  0  0
 45 48  1  0  0  0  0
 45 50  1  0  0  0  0
 46 52  1  0  0  0  0
 47 53  1  0  0  0  0
 48 55  1  0  0  0  0
 49 68  1  0  0  0  0
 50 70  1  0  0  0  0
 51 55  1  0  0  0  0
 51 70  1  0  0  0  0
 52 74  1  0  0  0  0
 53 84  1  0  0  0  0
 54 69  1  0  0  0  0
 55 67  1  0  0  0  0
 57 64  1  0  0  0  0
 58 65  1  0  0  0  0
 59 65  1  0  0  0  0
 60 65  1  0  0  0  0
 61 76  1  0  0  0  0
 62 68  1  0  0  0  0
 63 65  1  0  0  0  0
 63 75  1  0  0  0  0
 64 76  1  0  0  0  0
 66 67  1  0  0  0  0
M  CHG  1  76   1
M  ISO  4  39 100  53 101  73 100  84 101
M  END
> <Batch ID>
0048

> <Smiles>
CNC(C)C(=O)NC(C(=O)N1Cc2cc([101O:1][101CH:1]3CCCN(Cc4cc([100NH:0][100C:0](=O)N5CCCC(n6nc(-c7ccc(Oc8ccc(F)cc8F)cc7)c(C(N)=O)c6N)C5)ccc4C)C3=O)ccc2CC1C(=O)NC1CCCc2ccccc21)C(C)(C)C

> <Shape>
0.230

> <Color>
0.059

> <Negative vol penalty>
0.000

$$$$

  -OEChem-04042322293D

 86 95  0     1  0  0  0  0  0999 V2000
  -29.3174  -11.4107   20.1158 C   0  0  0  0  0  0  0  0  0  0  0  0
  -29.9293  -12.0436   19.0397 C   0  0  0  0  0  0  0  0  0  0  0  0
  -18.9683  -21.8937   14.6827 C   0  0  0  0  0  0  0  0  0  0  0  0
  -25.9611  -29.8219   20.5498 C   0  0  0  0  0  0  0  0  0  0  0  0
  -23.6332  -29.1753   20.5638 C   0  0  0  0  0  0  0  0  0  0  0  0
  -28.1742  -11.9651   20.6874 C   0  0  0  0  0  0  0  0  0  0  0  0
  -29.4052  -13.2373   18.5426 C   0  0  0  0  0  0  0  0  0  0  0  0
  -28.8054  -19.6036   13.8168 C   0  0  0  0  0  0  0  0  0  0  0  0
  -18.5244  -22.8855   15.5573 C   0  0  0  0  0  0  0  0  0  0  0  0
  -20.0592  -22.1371   13.8481 C   0  0  0  0  0  0  0  0  0  0  0  0
  -25.7092  -30.7504   21.5597 C   0  0  0  0  0  0  0  0  0  0  0  0
  -23.3814  -30.1038   21.5738 C   0  0  0  0  0  0  0  0  0  0  0  0
  -27.9179  -20.5874   13.3827 C   0  0  0  0  0  0  0  0  0  0  0  0
  -25.2709  -30.7270   24.9124 C   0  0  0  0  0  0  0  0  0  0  0  0
  -26.1667  -30.7825   25.9801 C   0  0  0  0  0  0  0  0  0  0  0  0
  -27.5039  -21.2165   15.6744 C   0  0  0  0  0  0  0  0  0  0  0  0
  -26.6480  -33.0914   25.4563 C   0  0  0  0  0  0  0  0  0  0  0  0
  -24.9230  -29.0343   20.0518 C   0  0  0  0  0  0  0  0  0  0  0  0
  -26.0684  -26.9825   19.0590 C   0  0  0  0  0  0  0  0  0  0  0  0
  -27.6293  -13.1597   20.1884 C   0  0  0  0  0  0  0  0  0  0  0  0
  -29.0409  -19.4114   15.1857 C   0  0  0  0  0  0  0  0  0  0  0  0
  -28.2660  -13.8254   19.1213 C   0  0  0  0  0  0  0  0  0  0  0  0
  -28.3967  -20.2314   16.1232 C   0  0  0  0  0  0  0  0  0  0  0  0
  -19.1713  -24.1206   15.5973 C   0  0  0  0  0  0  0  0  0  0  0  0
  -20.7060  -23.3722   13.8881 C   0  0  0  0  0  0  0  0  0  0  0  0
  -20.2621  -24.3640   14.7627 C   0  0  0  0  0  0  0  0  0  0  0  0
  -24.4194  -30.8914   22.0717 C   0  0  0  0  0  0  0  0  0  0  0  0
  -27.2648  -21.3921   14.3117 C   0  0  0  0  0  0  0  0  0  0  0  0
  -25.0637  -31.8537   24.1165 C   0  0  0  0  0  0  0  0  0  0  0  0
  -26.8553  -31.9647   26.2520 C   0  0  0  0  0  0  0  0  0  0  0  0
  -25.7522  -33.0359   24.3885 C   0  0  0  0  0  0  0  0  0  0  0  0
  -25.1824  -28.0753   19.0082 C   0  0  0  0  0  0  0  0  0  0  0  0
  -25.9507  -26.3875   17.8266 C   0  0  0  0  0  0  0  0  0  0  0  0
  -23.4878  -22.8495   14.6247 C   0  0  0  0  0  0  0  0  0  0  0  0
  -23.2631  -23.0430   15.9332 C   0  0  0  0  0  0  0  0  0  0  0  0
  -26.9214  -26.5442   20.1248 C   0  0  0  0  0  0  0  0  0  0  0  0
  -28.6034  -17.0097   17.2215 C   0  0  0  0  0  0  0  0  0  0  0  0
  -30.1684  -18.9766   19.2720 C   0  0  0  0  0  0  0  0  0  0  0  0
  -30.1622  -22.4959   20.0667 C   0  0  0  0  0  0  0  0  0  0  0  0
  -21.5786  -26.2611   13.7555 C   0  0  0  0  0  0  0  0  0  0  0  0
  -26.3948  -13.7199   20.8500 C   0  0  0  0  0  0  0  0  0  0  0  0
  -30.0214  -18.3637   15.6366 C   0  0  0  0  0  0  0  0  0  0  0  0
  -28.6303  -20.0789   17.6032 C   0  0  0  0  0  0  0  0  0  0  0  0
  -24.1097  -21.5913   14.0760 C   0  0  0  0  0  0  0  0  0  0  0  0
  -25.6640  -14.7374   19.9801 C   0  0  0  0  0  0  0  0  0  0  0  0
  -24.9152  -27.4017   13.2622 C   0  0  0  0  0  0  0  0  0  0  0  0
  -26.6479  -15.7690   19.4487 C   0  0  0  0  0  0  0  0  0  0  0  0
  -25.4450  -27.5986   14.6844 C   0  0  0  0  0  0  0  0  0  0  0  0
  -24.8908  -23.0187   12.1389 C   0  0  0  0  0  0  0  0  0  0  0  0
  -23.4418  -27.7886   13.1472 C   0  0  0  0  0  0  0  0  0  0  0  0
  -23.0821  -27.3388   15.5425 C   0  0  0  0  0  0  0  0  0  0  0  0
  -24.3216  -24.2554   12.8328 C   0  0  0  0  0  0  0  0  0  0  0  0
  -27.6961  -15.1086   18.5441 C   0  0  1  0  0  0  0  0  0  0  0  0
  -29.7949  -17.9135   17.0765 C   0  0  1  0  0  0  0  0  0  0  0  0
  -24.5448  -26.9008   15.7228 C   0  0  2  0  0  0  0  0  0  0  0  0
  -25.2675  -21.9208   13.1335 C   0  0  1  0  0  0  0  0  0  1  0  0
  -18.6724  -25.1632   16.5449 C   0  0  0  0  0  0  0  0  0  0  0  0
  -31.9705  -23.9590   21.0083 C   0  0  0  0  0  0  0  0  0  0  0  0
  -28.8815  -18.3394   21.9642 C   0  0  0  0  0  0  0  0  0  0  0  0
  -29.3276  -20.7032   22.6582 C   0  0  0  0  0  0  0  0  0  0  0  0
  -31.2300  -19.1874   22.1051 C   0  0  0  0  0  0  0  0  0  0  0  0
  -29.9594  -24.3981   17.8085 C   0  0  0  0  0  0  0  0  0  0  0  0
  -21.8765  -23.6031   12.9783 C   0  0  0  0  0  0  0  0  0  0  0  0
  -29.7551  -20.0552   20.2440 C   0  0  1  0  0  0  0  0  0  0  0  0
  -31.2537  -23.5015   19.7475 C   0  0  2  0  0  0  0  0  0  0  0  0
  -29.7833  -19.5657   21.7195 C   0  0  0  0  0  0  0  0  0  0  0  0
  -24.5488  -28.1714   17.8363 N   0  0  0  0  0  0  0  0  0  0  0  0
  -25.0373  -27.1314   17.1393 N   0  0  0  0  0  0  0  0  0  0  0  0
  -29.5933  -19.0363   17.9946 N   0  0  0  0  0  0  0  0  0  0  0  0
  -22.6498  -27.0859   14.1591 N   0  0  0  0  0  0  0  0  0  0  0  0
  -26.5405  -25.3059   17.2747 N   0  0  0  0  0  0  0  0  0  0  0  0
  -26.4127  -25.6254   21.0529 N   0  0  0  0  0  0  0  0  0  0  0  0
  -20.9191  -25.6188   14.8030 N   0  0  0  0  0  0  0  0  0  0  0  0
  -28.7260  -16.0748   18.2316 N   0  0  0  0  0  0  0  0  0  0  0  0
  -30.6209  -21.1987   19.9772 N   0  0  0  0  0  0  0  0  0  0  0  0
  -23.1459  -23.9190   13.7199 N   0  3  1  0  0  0  0  0  0  0  0  0
  -30.6744  -24.6989   19.0755 N   0  3  0  0  0  0  0  0  0  0  0  0
  -28.0944  -26.9677   20.2599 O   0  0  0  0  0  0  0  0  0  0  0  0
  -27.6432  -17.1511   16.4733 O   0  0  0  0  0  0  0  0  0  0  0  0
  -30.9772  -18.1170   19.6305 O   0  0  0  0  0  0  0  0  0  0  0  0
  -29.0182  -22.8280   20.3691 O   0  0  0  0  0  0  0  0  0  0  0  0
  -21.2863  -26.1125   12.5662 O   0  0  0  0  0  0  0  0  0  0  0  0
  -24.1734  -31.7972   23.0574 O   0  0  0  0  0  0  0  0  0  0  0  0
  -26.3976  -22.3526   13.8907 O   0  0  0  0  0  0  0  0  0  1  0  0
  -27.7143  -32.0182   27.2783 F   0  0  0  0  0  0  0  0  0  0  0  0
  -25.5564  -34.1219   23.6282 F   0  0  0  0  0  0  0  0  0  0  0  0
  1  2  1  0  0  0  0
  1  6  2  0  0  0  0
  2  7  2  0  0  0  0
  3  9  1  0  0  0  0
  3 10  2  0  0  0  0
  4 11  2  0  0  0  0
  4 18  1  0  0  0  0
  5 12  1  0  0  0  0
  5 18  2  0  0  0  0
  6 20  1  0  0  0  0
  7 22  1  0  0  0  0
  8 13  2  0  0  0  0
  8 21  1  0  0  0  0
  9 24  2  0  0  0  0
 10 25  1  0  0  0  0
 11 27  1  0  0  0  0
 12 27  2  0  0  0  0
 13 28  1  0  0  0  0
 14 15  2  0  0  0  0
 14 29  1  0  0  0  0
 15 30  1  0  0  0  0
 16 23  1  0  0  0  0
 16 28  2  0  0  0  0
 17 30  2  0  0  0  0
 17 31  1  0  0  0  0
 18 32  1  0  0  0  0
 19 32  1  0  0  0  0
 19 33  2  0  0  0  0
 19 36  1  0  0  0  0
 20 22  2  0  0  0  0
 20 41  1  0  0  0  0
 21 23  2  0  0  0  0
 21 42  1  0  0  0  0
 22 53  1  0  0  0  0
 23 43  1  0  0  0  0
 24 26  1  0  0  0  0
 24 57  1  0  0  0  0
 25 26  2  0  0  0  0
 25 63  1  0  0  0  0
 26 73  1  0  0  0  0
 27 83  1  0  0  0  0
 28 84  1  0  0  0  0
 29 31  2  0  0  0  0
 29 83  1  0  0  0  0
 30 85  1  0  0  0  0
 31 86  1  0  0  0  0
 32 67  2  0  0  0  0
 33 68  1  0  0  0  0
 33 71  1  0  0  0  0
 34 35  2  0  0  0  0
 34 44  1  0  0  0  0
 34 76  1  0  0  0  0
 36 72  1  0  0  0  0
 36 78  2  0  0  0  0
 37 54  1  0  0  0  0
 37 74  1  0  0  0  0
 37 79  2  0  0  0  0
 38 64  1  0  0  0  0
 38 69  1  0  0  0  0
 38 80  2  0  0  0  0
 39 65  1  0  0  0  0
 39 75  1  0  0  0  0
 39 81  2  0  0  0  0
 40 70  1  0  0  0  0
 40 73  1  0  0  0  0
 40 82  2  0  0  0  0
 41 45  1  0  0  0  0
 42 54  1  0  0  0  0
 43 69  1  0  0  0  0
 44 56  1  0  0  0  0
 45 47  1  0  0  0  0
 46 48  1  0  0  0  0
 46 50  1  0  0  0  0
 47 53  1  0  0  0  0
 48 55  1  0  0  0  0
 49 52  1  0  0  0  0
 49 56  1  0  0  0  0
 50 70  1  0  0  0  0
 51 55  1  0  0  0  0
 51 70  1  0  0  0  0
 52 76  1  0  0  0  0
 53 74  1  0  0  0  0
 54 69  1  0  0  0  0
 55 68  1  0  0  0  0
 56 84  1  0  0  0  0
 58 65  1  0  0  0  0
 59 66  1  0  0  0  0
 60 66  1  0  0  0  0
 61 66  1  0  0  0  0
 62 77  1  0  0  0  0
 63 76  1  0  0  0  0
 64 66  1  0  0  0  0
 64 75  1  0  0  0  0
 65 77  1  0  0  0  0
 67 68  1  0  0  0  0
M  CHG  2  76   1  77   1
M  ISO  4  40 100  56 101  73 100  84 101
M  END
> <Batch ID>
0048

> <Smiles>
C=C1C[101CH:1]([101O:1]c2ccc3c(c2)CN(C(=O)C(NC(=O)C(C)NC)C(C)(C)C)C(C(=O)NC2CCCc4ccccc42)C3)CCN1Cc1cccc(C)c1[100NH:0][100C:0](=O)N1CCCC(n2nc(-c3ccc(Oc4ccc(F)cc4F)cc3)c(C(N)=O)c2N)C1

> <Shape>
0.229

> <Color>
0.069

> <Negative vol penalty>
0.000

$$$$

  -OEChem-04042322293D

 87 96  0     1  0  0  0  0  0999 V2000
  -16.6365  -29.7932   23.8180 C   0  0  0  0  0  0  0  0  0  0  0  0
  -17.0452  -28.4848   24.0560 C   0  0  0  0  0  0  0  0  0  0  0  0
  -22.6627  -10.2019   20.2047 C   0  0  0  0  0  0  0  0  0  0  0  0
  -24.3138   -9.4578   21.8039 C   0  0  0  0  0  0  0  0  0  0  0  0
  -17.4577  -30.6584   23.0962 C   0  0  0  0  0  0  0  0  0  0  0  0
  -18.2749  -28.0406   23.5713 C   0  0  0  0  0  0  0  0  0  0  0  0
  -23.6369  -23.5793   25.2029 C   0  0  0  0  0  0  0  0  0  0  0  0
  -32.7257  -17.3595   23.4843 C   0  0  0  0  0  0  0  0  0  0  0  0
  -32.0992  -16.5243   22.5593 C   0  0  0  0  0  0  0  0  0  0  0  0
  -21.9308   -9.0336   20.4167 C   0  0  0  0  0  0  0  0  0  0  0  0
  -23.5819   -8.2895   22.0159 C   0  0  0  0  0  0  0  0  0  0  0  0
  -24.3785  -22.5379   24.6468 C   0  0  0  0  0  0  0  0  0  0  0  0
  -20.8332   -7.3534   23.7448 C   0  0  0  0  0  0  0  0  0  0  0  0
  -20.6468   -6.9375   25.0631 C   0  0  0  0  0  0  0  0  0  0  0  0
  -25.7491  -24.1444   23.4807 C   0  0  0  0  0  0  0  0  0  0  0  0
  -21.7767   -4.8603   24.5675 C   0  0  0  0  0  0  0  0  0  0  0  0
  -23.8543  -10.4140   20.8983 C   0  0  0  0  0  0  0  0  0  0  0  0
  -24.1812  -12.9440   20.8917 C   0  0  0  0  0  0  0  0  0  0  0  0
  -18.7024  -30.2274   22.6107 C   0  0  0  0  0  0  0  0  0  0  0  0
  -23.9394  -24.9131   24.8929 C   0  0  0  0  0  0  0  0  0  0  0  0
  -19.1129  -28.9005   22.8412 C   0  0  0  0  0  0  0  0  0  0  0  0
  -25.0114  -25.2010   24.0361 C   0  0  0  0  0  0  0  0  0  0  0  0
  -31.9615  -18.1922   24.3019 C   0  0  0  0  0  0  0  0  0  0  0  0
  -30.5708  -18.1897   24.1943 C   0  0  0  0  0  0  0  0  0  0  0  0
  -29.9443  -17.3546   23.2693 C   0  0  0  0  0  0  0  0  0  0  0  0
  -30.7085  -16.5219   22.4518 C   0  0  0  0  0  0  0  0  0  0  0  0
  -22.3904   -8.0774   21.3223 C   0  0  0  0  0  0  0  0  0  0  0  0
  -25.4329  -22.8202   23.7833 C   0  0  0  0  0  0  0  0  0  0  0  0
  -21.4913   -6.5227   22.8378 C   0  0  0  0  0  0  0  0  0  0  0  0
  -21.1185   -5.6910   25.4745 C   0  0  0  0  0  0  0  0  0  0  0  0
  -21.9630   -5.2762   23.2492 C   0  0  0  0  0  0  0  0  0  0  0  0
  -24.6111  -11.6204   20.6793 C   0  0  0  0  0  0  0  0  0  0  0  0
  -25.2604  -13.7165   20.5381 C   0  0  0  0  0  0  0  0  0  0  0  0
  -27.8669  -20.4959   24.2779 C   0  0  0  0  0  0  0  0  0  0  0  0
  -22.9192  -13.4316   21.3664 C   0  0  0  0  0  0  0  0  0  0  0  0
  -22.3795  -27.2981   23.4851 C   0  0  0  0  0  0  0  0  0  0  0  0
  -24.9871  -29.0107   24.3738 C   0  0  0  0  0  0  0  0  0  0  0  0
  -28.5612  -28.5226   24.4392 C   0  0  0  0  0  0  0  0  0  0  0  0
  -30.7243  -14.7846   20.6276 C   0  0  0  0  0  0  0  0  0  0  0  0
  -19.5345  -31.1849   21.7951 C   0  0  0  0  0  0  0  0  0  0  0  0
  -23.1469  -26.0259   25.5219 C   0  0  0  0  0  0  0  0  0  0  0  0
  -25.3897  -26.6166   23.6873 C   0  0  0  0  0  0  0  0  0  0  0  0
  -20.9884  -30.7469   21.6379 C   0  0  0  0  0  0  0  0  0  0  0  0
  -29.8461  -21.7249   22.4631 C   0  0  0  0  0  0  0  0  0  0  0  0
  -29.5623  -12.4809   18.1740 C   0  0  0  0  0  0  0  0  0  0  0  0
  -21.0634  -29.2713   21.2588 C   0  0  0  0  0  0  0  0  0  0  0  0
  -28.3405  -21.8255   22.2255 C   0  0  0  0  0  0  0  0  0  0  0  0
  -28.1352  -12.1606   18.6245 C   0  0  0  0  0  0  0  0  0  0  0  0
  -30.2013  -21.2158   23.8573 C   0  0  0  0  0  0  0  0  0  0  0  0
  -30.5061  -12.6570   19.3622 C   0  0  0  0  0  0  0  0  0  0  0  0
  -28.6309  -13.3030   20.8236 C   0  0  0  0  0  0  0  0  0  0  0  0
  -20.4508  -28.3888   22.3531 C   0  0  1  0  0  0  0  0  0  0  0  0
  -27.5452  -21.7791   23.5239 C   0  0  1  0  0  0  0  0  0  1  0  0
  -23.2167  -27.3295   24.7324 C   0  0  1  0  0  0  0  0  0  0  0  0
  -27.6297  -13.1809   19.6633 C   0  0  2  0  0  0  0  0  0  0  0  0
  -32.6575  -19.0765   25.2839 C   0  0  0  0  0  0  0  0  0  0  0  0
  -28.4517  -17.3535   23.1557 C   0  0  0  0  0  0  0  0  0  0  0  0
  -30.3203  -29.5406   25.9112 C   0  0  0  0  0  0  0  0  0  0  0  0
  -25.2800  -31.0488   22.1221 C   0  0  0  0  0  0  0  0  0  0  0  0
  -27.7515  -31.0317   22.5222 C   0  0  0  0  0  0  0  0  0  0  0  0
  -26.2030  -31.7887   24.3255 C   0  0  0  0  0  0  0  0  0  0  0  0
  -29.5542  -25.8665   25.2866 C   0  0  0  0  0  0  0  0  0  0  0  0
  -29.7509  -19.0870   25.0757 C   0  0  0  0  0  0  0  0  0  0  0  0
  -26.3212  -29.3311   23.7442 C   0  0  1  0  0  0  0  0  0  0  0  0
  -29.4300  -28.3316   25.6694 C   0  0  2  0  0  0  0  0  0  0  0  0
  -26.3751  -30.7759   23.1725 C   0  0  0  0  0  0  0  0  0  0  0  0
  -25.8655  -11.5522   20.2257 N   0  0  0  0  0  0  0  0  0  0  0  0
  -26.2331  -12.8427   20.1501 N   0  0  0  0  0  0  0  0  0  0  0  0
  -29.2386  -20.2389   24.3529 N   0  0  0  0  0  0  0  0  0  0  0  0
  -24.5807  -27.6698   24.3227 N   0  0  0  0  0  0  0  0  0  0  0  0
  -29.9644  -13.6412   20.3019 N   0  0  0  0  0  0  0  0  0  0  0  0
  -25.4627  -15.0511   20.5242 N   0  0  0  0  0  0  0  0  0  0  0  0
  -21.9203  -12.5013   21.6844 N   0  0  0  0  0  0  0  0  0  0  0  0
  -30.0933  -15.6654   21.5054 N   0  0  0  0  0  0  0  0  0  0  0  0
  -21.3720  -28.2435   23.4598 N   0  0  0  0  0  0  0  0  0  0  0  0
  -27.3297  -29.0528   24.7610 N   0  0  0  0  0  0  0  0  0  0  0  0
  -30.2998  -27.1322   25.5081 N   0  3  0  0  0  0  0  0  0  0  0  0
  -26.9879  -19.7890   24.7676 O   0  0  0  0  0  0  0  0  0  0  0  0
  -22.6787  -14.6566   21.4888 O   0  0  0  0  0  0  0  0  0  0  0  0
  -22.6301  -26.4779   22.6097 O   0  0  0  0  0  0  0  0  0  0  0  0
  -24.3330  -29.9156   24.8982 O   0  0  0  0  0  0  0  0  0  0  0  0
  -28.9388  -28.2340   23.3058 O   0  0  0  0  0  0  0  0  0  0  0  0
  -31.8405  -14.9822   20.1408 O   0  0  0  0  0  0  0  0  0  0  0  0
  -21.6763   -6.9374   21.5296 O   0  0  0  0  0  0  0  0  0  0  0  0
  -26.1580  -21.8055   23.2387 O   0  0  0  0  0  0  0  0  0  1  0  0
  -20.9408   -5.2924   26.7408 F   0  0  0  0  0  0  0  0  0  0  0  0
  -22.5971   -4.4743   22.3828 F   0  0  0  0  0  0  0  0  0  0  0  0
  1  2  1  0  0  0  0
  1  5  2  0  0  0  0
  2  6  2  0  0  0  0
  3 10  2  0  0  0  0
  3 17  1  0  0  0  0
  4 11  1  0  0  0  0
  4 17  2  0  0  0  0
  5 19  1  0  0  0  0
  6 21  1  0  0  0  0
  7 12  2  0  0  0  0
  7 20  1  0  0  0  0
  8  9  1  0  0  0  0
  8 23  2  0  0  0  0
  9 26  2  0  0  0  0
 10 27  1  0  0  0  0
 11 27  2  0  0  0  0
 12 28  1  0  0  0  0
 13 14  2  0  0  0  0
 13 29  1  0  0  0  0
 14 30  1  0  0  0  0
 15 22  1  0  0  0  0
 15 28  2  0  0  0  0
 16 30  2  0  0  0  0
 16 31  1  0  0  0  0
 17 32  1  0  0  0  0
 18 32  1  0  0  0  0
 18 33  2  0  0  0  0
 18 35  1  0  0  0  0
 19 21  2  0  0  0  0
 19 40  1  0  0  0  0
 20 22  2  0  0  0  0
 20 41  1  0  0  0  0
 21 52  1  0  0  0  0
 22 42  1  0  0  0  0
 23 24  1  0  0  0  0
 23 56  1  0  0  0  0
 24 25  2  0  0  0  0
 24 63  1  0  0  0  0
 25 26  1  0  0  0  0
 25 57  1  0  0  0  0
 26 74  1  0  0  0  0
 27 84  1  0  0  0  0
 28 85  1  0  0  0  0
 29 31  2  0  0  0  0
 29 84  1  0  0  0  0
 30 86  1  0  0  0  0
 31 87  1  0  0  0  0
 32 67  2  0  0  0  0
 33 68  1  0  0  0  0
 33 72  1  0  0  0  0
 34 53  1  0  0  0  0
 34 69  1  0  0  0  0
 34 78  2  0  0  0  0
 35 73  1  0  0  0  0
 35 79  2  0  0  0  0
 36 54  1  0  0  0  0
 36 75  1  0  0  0  0
 36 80  2  0  0  0  0
 37 64  1  0  0  0  0
 37 70  1  0  0  0  0
 37 81  2  0  0  0  0
 38 65  1  0  0  0  0
 38 76  1  0  0  0  0
 38 82  2  0  0  0  0
 39 71  1  0  0  0  0
 39 74  1  0  0  0  0
 39 83  2  0  0  0  0
 40 43  1  0  0  0  0
 41 54  1  0  0  0  0
 42 70  1  0  0  0  0
 43 46  1  0  0  0  0
 44 47  1  0  0  0  0
 44 49  1  0  0  0  0
 45 48  1  0  0  0  0
 45 50  1  0  0  0  0
 46 52  1  0  0  0  0
 47 53  1  0  0  0  0
 48 55  1  0  0  0  0
 49 69  1  0  0  0  0
 50 71  1  0  0  0  0
 51 55  1  0  0  0  0
 51 71  1  0  0  0  0
 52 75  1  0  0  0  0
 53 85  1  0  0  0  0
 54 70  1  0  0  0  0
 55 68  1  0  0  0  0
 58 65  1  0  0  0  0
 59 66  1  0  0  0  0
 60 66  1  0  0  0  0
 61 66  1  0  0  0  0
 62 77  1  0  0  0  0
 63 69  1  0  0  0  0
 64 66  1  0  0  0  0
 64 76  1  0  0  0  0
 65 77  1  0  0  0  0
 67 68  1  0  0  0  0
M  CHG  1  77   1
M  ISO  4  39 100  53 101  74 100  85 101
M  END
> <Batch ID>
0048

> <Smiles>
CNC(C)C(=O)NC(C(=O)N1Cc2cc([101O:1][101CH:1]3CCCN(Cc4c(C)ccc([100NH:0][100C:0](=O)N5CCCC(n6nc(-c7ccc(Oc8ccc(F)cc8F)cc7)c(C(N)=O)c6N)C5)c4C)C3=O)ccc2CC1C(=O)NC1CCCc2ccccc21)C(C)(C)C

> <Shape>
0.305

> <Color>
0.225

> <Negative vol penalty>
0.000

$$$$

  -OEChem-04042322293D

 91100  0     1  0  0  0  0  0999 V2000
  -24.3375  -32.7524   28.7846 C   0  0  0  0  0  0  0  0  0  0  0  0
  -23.7724  -31.4833   28.7112 C   0  0  0  0  0  0  0  0  0  0  0  0
  -22.9750  -10.1593   21.6972 C   0  0  0  0  0  0  0  0  0  0  0  0
  -24.4386  -10.6990   23.5421 C   0  0  0  0  0  0  0  0  0  0  0  0
  -24.7585  -33.3952   27.6212 C   0  0  0  0  0  0  0  0  0  0  0  0
  -23.6269  -30.8567   27.4740 C   0  0  0  0  0  0  0  0  0  0  0  0
  -23.7206  -24.3575   24.4625 C   0  0  0  0  0  0  0  0  0  0  0  0
  -29.4487  -19.8784   21.1076 C   0  0  0  0  0  0  0  0  0  0  0  0
  -22.3254   -9.2127   22.4894 C   0  0  0  0  0  0  0  0  0  0  0  0
  -23.7890   -9.7524   24.3343 C   0  0  0  0  0  0  0  0  0  0  0  0
  -22.9475  -23.5413   23.6380 C   0  0  0  0  0  0  0  0  0  0  0  0
  -22.8820   -6.0542   23.5566 C   0  0  0  0  0  0  0  0  0  0  0  0
  -22.6158   -4.8082   22.9891 C   0  0  0  0  0  0  0  0  0  0  0  0
  -28.4979  -20.8639   21.3726 C   0  0  0  0  0  0  0  0  0  0  0  0
  -23.7832  -24.7147   21.7031 C   0  0  0  0  0  0  0  0  0  0  0  0
  -27.9450  -18.8551   19.5174 C   0  0  0  0  0  0  0  0  0  0  0  0
  -20.2510   -5.1508   23.3462 C   0  0  0  0  0  0  0  0  0  0  0  0
  -24.0316  -10.9024   22.2235 C   0  0  0  0  0  0  0  0  0  0  0  0
  -24.1332  -13.0117   20.7923 C   0  0  0  0  0  0  0  0  0  0  0  0
  -24.6269  -32.7721   26.3702 C   0  0  0  0  0  0  0  0  0  0  0  0
  -24.5238  -25.3674   23.9134 C   0  0  0  0  0  0  0  0  0  0  0  0
  -24.0453  -31.4923   26.2926 C   0  0  0  0  0  0  0  0  0  0  0  0
  -24.5675  -25.5408   22.5226 C   0  0  0  0  0  0  0  0  0  0  0  0
  -29.1723  -18.8740   20.1799 C   0  0  0  0  0  0  0  0  0  0  0  0
  -26.9941  -19.8406   19.7824 C   0  0  0  0  0  0  0  0  0  0  0  0
  -22.7324   -9.0092   23.8079 C   0  0  0  0  0  0  0  0  0  0  0  0
  -22.9765  -23.7217   22.2582 C   0  0  0  0  0  0  0  0  0  0  0  0
  -21.8327   -6.8486   24.0189 C   0  0  0  0  0  0  0  0  0  0  0  0
  -21.3003   -4.3564   22.8839 C   0  0  0  0  0  0  0  0  0  0  0  0
  -20.5173   -6.3968   23.9137 C   0  0  0  0  0  0  0  0  0  0  0  0
  -27.2706  -20.8450   20.7100 C   0  0  0  0  0  0  0  0  0  0  0  0
  -24.7034  -11.8800   21.4055 C   0  0  0  0  0  0  0  0  0  0  0  0
  -25.1801  -13.6098   20.1345 C   0  0  0  0  0  0  0  0  0  0  0  0
  -22.5663  -19.6322   20.4785 C   0  0  0  0  0  0  0  0  0  0  0  0
  -23.6772  -18.4930   18.5613 C   0  0  0  0  0  0  0  0  0  0  0  0
  -25.0179  -17.6439   15.2490 C   0  0  0  0  0  0  0  0  0  0  0  0
  -21.8024  -20.7085   20.7176 C   0  0  0  0  0  0  0  0  0  0  0  0
  -23.7317  -18.1970   17.2529 C   0  0  0  0  0  0  0  0  0  0  0  0
  -24.9642  -17.9387   16.5528 C   0  0  0  0  0  0  0  0  0  0  0  0
  -22.7784  -13.4803   20.8154 C   0  0  0  0  0  0  0  0  0  0  0  0
  -24.6205  -28.5355   24.1527 C   0  0  0  0  0  0  0  0  0  0  0  0
  -27.3149  -28.1977   22.3783 C   0  0  0  0  0  0  0  0  0  0  0  0
  -29.1116  -26.3181   20.1679 C   0  0  0  0  0  0  0  0  0  0  0  0
  -30.4784  -15.3572   19.9940 C   0  0  0  0  0  0  0  0  0  0  0  0
  -25.0532  -33.5260   25.1354 C   0  0  0  0  0  0  0  0  0  0  0  0
  -25.3723  -26.2219   24.8146 C   0  0  0  0  0  0  0  0  0  0  0  0
  -25.4287  -26.5972   21.8819 C   0  0  0  0  0  0  0  0  0  0  0  0
  -22.3708  -18.7589   19.2685 C   0  0  0  0  0  0  0  0  0  0  0  0
  -23.7138  -19.2655   21.3858 C   0  0  0  0  0  0  0  0  0  0  0  0
  -25.2070  -32.6386   23.9028 C   0  0  0  0  0  0  0  0  0  0  0  0
  -29.8626  -11.9424   19.1963 C   0  0  0  0  0  0  0  0  0  0  0  0
  -24.0077  -31.7064   23.7631 C   0  0  0  0  0  0  0  0  0  0  0  0
  -28.4213  -11.7138   19.6549 C   0  0  0  0  0  0  0  0  0  0  0  0
  -30.6102  -12.8875   20.1343 C   0  0  0  0  0  0  0  0  0  0  0  0
  -28.4995  -13.9511   20.8326 C   0  0  0  0  0  0  0  0  0  0  0  0
  -24.6639  -18.2374   20.7658 C   0  0  0  0  0  0  0  0  0  0  0  0
  -23.8934  -30.7696   24.9717 C   0  0  1  0  0  0  0  0  0  0  0  0
  -25.7592  -27.5556   24.1829 C   0  0  1  0  0  0  0  0  0  0  0  0
  -27.6884  -13.0488   19.8871 C   0  0  2  0  0  0  0  0  0  0  0  0
  -31.0577  -25.6273   18.7421 C   0  0  0  0  0  0  0  0  0  0  0  0
  -26.1244  -30.2079   20.4157 C   0  0  0  0  0  0  0  0  0  0  0  0
  -27.8184  -29.4605   18.7304 C   0  0  0  0  0  0  0  0  0  0  0  0
  -28.5657  -30.5103   20.8664 C   0  0  0  0  0  0  0  0  0  0  0  0
  -30.3371  -24.7823   22.3812 C   0  0  0  0  0  0  0  0  0  0  0  0
  -30.1893  -17.8202   19.8970 C   0  0  0  0  0  0  0  0  0  0  0  0
  -25.6869  -19.7854   19.0482 C   0  0  0  0  0  0  0  0  0  0  0  0
  -21.9648  -21.5986   21.9049 C   0  0  0  0  0  0  0  0  0  1  0  0
  -27.6250  -28.1638   20.9012 C   0  0  1  0  0  0  0  0  0  0  0  0
  -30.5696  -25.8954   20.1573 C   0  0  2  0  0  0  0  0  0  0  0  0
  -27.5155  -29.5669   20.2403 C   0  0  0  0  0  0  0  0  0  0  0  0
  -26.0110  -11.7638   21.1591 N   0  0  0  0  0  0  0  0  0  0  0  0
  -26.2711  -12.8302   20.3837 N   0  0  0  0  0  0  0  0  0  0  0  0
  -26.2354  -27.4117   22.8057 N   0  0  0  0  0  0  0  0  0  0  0  0
  -29.8629  -14.1350   20.3110 N   0  0  0  0  0  0  0  0  0  0  0  0
  -25.2646  -14.7213   19.3730 N   0  0  0  0  0  0  0  0  0  0  0  0
  -22.3957  -14.3680   21.8302 N   0  0  0  0  0  0  0  0  0  0  0  0
  -24.8553  -29.6932   24.8696 N   0  0  0  0  0  0  0  0  0  0  0  0
  -28.9398  -27.5445   20.7743 N   0  0  0  0  0  0  0  0  0  0  0  0
  -29.6980  -16.4910   20.1845 N   0  0  0  0  0  0  0  0  0  0  0  0
  -24.9212  -18.5124   19.3008 N   0  3  2  0  0  0  0  0  0  0  0  0
  -30.7550  -24.6544   20.9614 N   0  3  0  0  0  0  0  0  0  0  0  0
  -21.9280  -13.1097   19.9710 O   0  0  0  0  0  0  0  0  0  0  0  0
  -23.6047  -28.2621   23.5241 O   0  0  0  0  0  0  0  0  0  0  0  0
  -28.0095  -28.8903   23.1263 O   0  0  0  0  0  0  0  0  0  0  0  0
  -28.2153  -25.6309   19.6832 O   0  0  0  0  0  0  0  0  0  0  0  0
  -31.6358  -15.4320   19.5675 O   0  0  0  0  0  0  0  0  0  0  0  0
  -22.0986   -8.0858   24.5813 O   0  0  0  0  0  0  0  0  0  0  0  0
  -22.2225  -22.9268   21.4511 O   0  0  0  0  0  0  0  0  0  1  0  0
  -21.0447   -3.1605   22.3376 F   0  0  0  0  0  0  0  0  0  0  0  0
  -19.5050   -7.1560   24.3550 F   0  0  0  0  0  0  0  0  0  0  0  0
  -26.1184  -22.0807   21.0631 Cl  0  0  0  0  0  0  0  0  0  0  0  0
  1  2  1  0  0  0  0
  1  5  2  0  0  0  0
  2  6  2  0  0  0  0
  3  9  2  0  0  0  0
  3 18  1  0  0  0  0
  4 10  1  0  0  0  0
  4 18  2  0  0  0  0
  5 20  1  0  0  0  0
  6 22  1  0  0  0  0
  7 11  2  0  0  0  0
  7 21  1  0  0  0  0
  8 14  2  0  0  0  0
  8 24  1  0  0  0  0
  9 26  1  0  0  0  0
 10 26  2  0  0  0  0
 11 27  1  0  0  0  0
 12 13  2  0  0  0  0
 12 28  1  0  0  0  0
 13 29  1  0  0  0  0
 14 31  1  0  0  0  0
 15 23  1  0  0  0  0
 15 27  2  0  0  0  0
 16 24  2  0  0  0  0
 16 25  1  0  0  0  0
 17 29  2  0  0  0  0
 17 30  1  0  0  0  0
 18 32  1  0  0  0  0
 19 32  1  0  0  0  0
 19 33  2  0  0  0  0
 19 40  1  0  0  0  0
 20 22  2  0  0  0  0
 20 45  1  0  0  0  0
 21 23  2  0  0  0  0
 21 46  1  0  0  0  0
 22 57  1  0  0  0  0
 23 47  1  0  0  0  0
 24 65  1  0  0  0  0
 25 31  2  0  0  0  0
 25 66  1  0  0  0  0
 26 87  1  0  0  0  0
 27 88  1  0  0  0  0
 28 30  2  0  0  0  0
 28 87  1  0  0  0  0
 29 89  1  0  0  0  0
 30 90  1  0  0  0  0
 31 91  1  0  0  0  0
 32 71  2  0  0  0  0
 33 72  1  0  0  0  0
 33 75  1  0  0  0  0
 34 37  2  0  0  0  0
 34 48  1  0  0  0  0
 34 49  1  0  0  0  0
 35 38  2  0  0  0  0
 35 48  1  0  0  0  0
 35 80  1  0  0  0  0
 36 39  2  0  0  0  0
 37 67  1  0  0  0  0
 38 39  1  0  0  0  0
 40 76  1  0  0  0  0
 40 82  2  0  0  0  0
 41 58  1  0  0  0  0
 41 77  1  0  0  0  0
 41 83  2  0  0  0  0
 42 68  1  0  0  0  0
 42 73  1  0  0  0  0
 42 84  2  0  0  0  0
 43 69  1  0  0  0  0
 43 78  1  0  0  0  0
 43 85  2  0  0  0  0
 44 74  1  0  0  0  0
 44 79  1  0  0  0  0
 44 86  2  0  0  0  0
 45 50  1  0  0  0  0
 46 58  1  0  0  0  0
 47 73  1  0  0  0  0
 49 56  1  0  0  0  0
 50 52  1  0  0  0  0
 51 53  1  0  0  0  0
 51 54  1  0  0  0  0
 52 57  1  0  0  0  0
 53 59  1  0  0  0  0
 54 74  1  0  0  0  0
 55 59  1  0  0  0  0
 55 74  1  0  0  0  0
 56 80  1  0  0  0  0
 57 77  1  0  0  0  0
 58 73  1  0  0  0  0
 59 72  1  0  0  0  0
 60 69  1  0  0  0  0
 61 70  1  0  0  0  0
 62 70  1  0  0  0  0
 63 70  1  0  0  0  0
 64 81  1  0  0  0  0
 65 79  1  0  0  0  0
 66 80  1  0  0  0  0
 67 88  1  0  0  0  0
 68 70  1  0  0  0  0
 68 78  1  0  0  0  0
 69 81  1  0  0  0  0
 71 72  1  0  0  0  0
M  CHG  2  80   1  81   1
M  ISO  4  44 100  67 101  79 100  88 101
M  END
> <Batch ID>
0048

> <Smiles>
C=CC=C1CC(=C[101CH2:1][101O:1]c2ccc3c(c2)CN(C(=O)C(NC(=O)C(C)NC)C(C)(C)C)C(C(=O)NC2CCCc4ccccc42)C3)CCN1Cc1cc(C[100NH:0][100C:0](=O)N2CCCC(n3nc(-c4ccc(Oc5ccc(F)cc5F)cc4)c(C(N)=O)c3N)C2)ccc1Cl

> <Shape>
0.260

> <Color>
0.102

> <Negative vol penalty>
0.000

$$$$

  -OEChem-04042322293D

 89 98  0     1  0  0  0  0  0999 V2000
  -27.5647  -34.7016   23.6012 C   0  0  0  0  0  0  0  0  0  0  0  0
  -27.8279  -33.3650   23.3189 C   0  0  0  0  0  0  0  0  0  0  0  0
  -22.5910  -12.6705   22.7224 C   0  0  0  0  0  0  0  0  0  0  0  0
  -23.0657  -14.9820   22.2040 C   0  0  0  0  0  0  0  0  0  0  0  0
  -26.3061  -35.0798   24.0670 C   0  0  0  0  0  0  0  0  0  0  0  0
  -26.8330  -32.4056   23.5034 C   0  0  0  0  0  0  0  0  0  0  0  0
  -26.5260  -29.1559   19.6316 C   0  0  0  0  0  0  0  0  0  0  0  0
  -29.0569  -20.1326   17.9969 C   0  0  0  0  0  0  0  0  0  0  0  0
  -28.8239  -18.7912   18.2999 C   0  0  0  0  0  0  0  0  0  0  0  0
  -21.5598  -13.0727   23.5712 C   0  0  0  0  0  0  0  0  0  0  0  0
  -22.0345  -15.3842   23.0528 C   0  0  0  0  0  0  0  0  0  0  0  0
  -27.4821  -28.1429   19.5733 C   0  0  0  0  0  0  0  0  0  0  0  0
  -18.3622  -14.1320   23.2781 C   0  0  0  0  0  0  0  0  0  0  0  0
  -17.1482  -13.4507   23.1913 C   0  0  0  0  0  0  0  0  0  0  0  0
  -25.8906  -26.5949   20.5168 C   0  0  0  0  0  0  0  0  0  0  0  0
  -30.9650  -18.6707   19.4127 C   0  0  0  0  0  0  0  0  0  0  0  0
  -17.3507  -12.7949   25.5078 C   0  0  0  0  0  0  0  0  0  0  0  0
  -23.3440  -13.6252   22.0388 C   0  0  0  0  0  0  0  0  0  0  0  0
  -24.3028  -12.3906   20.0228 C   0  0  0  0  0  0  0  0  0  0  0  0
  -25.2923  -34.1258   24.2481 C   0  0  0  0  0  0  0  0  0  0  0  0
  -25.2463  -28.8983   20.1439 C   0  0  0  0  0  0  0  0  0  0  0  0
  -25.5601  -32.7711   23.9734 C   0  0  0  0  0  0  0  0  0  0  0  0
  -24.9193  -27.6058   20.5782 C   0  0  0  0  0  0  0  0  0  0  0  0
  -30.2440  -20.7431   18.4017 C   0  0  0  0  0  0  0  0  0  0  0  0
  -31.1980  -20.0121   19.1096 C   0  0  0  0  0  0  0  0  0  0  0  0
  -29.7779  -18.0602   19.0079 C   0  0  0  0  0  0  0  0  0  0  0  0
  -21.2816  -14.4295   23.7364 C   0  0  0  0  0  0  0  0  0  0  0  0
  -27.1654  -26.8628   20.0186 C   0  0  0  0  0  0  0  0  0  0  0  0
  -19.0705  -14.1447   24.4797 C   0  0  0  0  0  0  0  0  0  0  0  0
  -16.6424  -12.7822   24.3061 C   0  0  0  0  0  0  0  0  0  0  0  0
  -18.5647  -13.4762   25.5945 C   0  0  0  0  0  0  0  0  0  0  0  0
  -24.4097  -13.2104   21.1622 C   0  0  0  0  0  0  0  0  0  0  0  0
  -25.5872  -12.2972   19.5453 C   0  0  0  0  0  0  0  0  0  0  0  0
  -30.5652  -24.4704   18.8705 C   0  0  0  0  0  0  0  0  0  0  0  0
  -31.7331  -25.0089   19.2525 C   0  0  0  0  0  0  0  0  0  0  0  0
  -23.1459  -11.7692   19.4474 C   0  0  0  0  0  0  0  0  0  0  0  0
  -23.5565  -29.9829   22.6080 C   0  0  0  0  0  0  0  0  0  0  0  0
  -21.2051  -28.1795   21.2884 C   0  0  0  0  0  0  0  0  0  0  0  0
  -20.9279  -24.9236   19.7589 C   0  0  0  0  0  0  0  0  0  0  0  0
  -30.3831  -15.8307   20.0125 C   0  0  0  0  0  0  0  0  0  0  0  0
  -23.9622  -34.5757   24.7988 C   0  0  0  0  0  0  0  0  0  0  0  0
  -24.2179  -29.9955   20.1752 C   0  0  0  0  0  0  0  0  0  0  0  0
  -23.5533  -27.2725   21.1180 C   0  0  0  0  0  0  0  0  0  0  0  0
  -29.5162  -25.2401   18.1103 C   0  0  0  0  0  0  0  0  0  0  0  0
  -22.8470  -33.5505   24.6108 C   0  0  0  0  0  0  0  0  0  0  0  0
  -30.1451  -12.4210   21.0097 C   0  0  0  0  0  0  0  0  0  0  0  0
  -23.3266  -32.1598   25.0143 C   0  0  0  0  0  0  0  0  0  0  0  0
  -28.6377  -12.1601   21.0524 C   0  0  0  0  0  0  0  0  0  0  0  0
  -27.8420  -23.6348   19.1201 C   0  0  0  0  0  0  0  0  0  0  0  0
  -30.4903  -13.8314   21.4844 C   0  0  0  0  0  0  0  0  0  0  0  0
  -28.2558  -14.6499   20.8467 C   0  0  0  0  0  0  0  0  0  0  0  0
  -28.9637  -22.9919   19.9345 C   0  0  0  0  0  0  0  0  0  0  0  0
  -24.4991  -31.7045   24.1371 C   0  0  1  0  0  0  0  0  0  0  0  0
  -23.1092  -29.7463   21.1932 C   0  0  1  0  0  0  0  0  0  0  0  0
  -27.8537  -13.2641   20.3161 C   0  0  2  0  0  0  0  0  0  0  0  0
  -28.1449  -25.0915   18.7698 C   0  0  1  0  0  0  0  0  0  1  0  0
  -19.3016  -24.0535   18.0573 C   0  0  0  0  0  0  0  0  0  0  0  0
  -19.6344  -27.2025   23.7149 C   0  0  0  0  0  0  0  0  0  0  0  0
  -19.0657  -25.1328   22.4262 C   0  0  0  0  0  0  0  0  0  0  0  0
  -18.3020  -27.3609   21.6045 C   0  0  0  0  0  0  0  0  0  0  0  0
  -23.1042  -24.0900   17.9346 C   0  0  0  0  0  0  0  0  0  0  0  0
  -30.4724  -22.1868   18.0633 C   0  0  0  0  0  0  0  0  0  0  0  0
  -20.7486  -26.7476   21.4307 C   0  0  1  0  0  0  0  0  0  0  0  0
  -20.6908  -24.6273   18.2890 C   0  0  2  0  0  0  0  0  0  0  0  0
  -32.4752  -20.6453   19.5550 C   0  0  0  0  0  0  0  0  0  0  0  0
  -19.4648  -26.6184   22.2983 C   0  0  0  0  0  0  0  0  0  0  0  0
  -25.6630  -13.6093   21.3947 N   0  0  0  0  0  0  0  0  0  0  0  0
  -26.3555  -13.0376   20.3948 N   0  0  0  0  0  0  0  0  0  0  0  0
  -22.5841  -28.3807   21.1341 N   0  0  0  0  0  0  0  0  0  0  0  0
  -29.7129  -14.8244   20.7397 N   0  0  0  0  0  0  0  0  0  0  0  0
  -26.1231  -11.6547   18.4858 N   0  0  0  0  0  0  0  0  0  0  0  0
  -21.9036  -11.9688   20.0648 N   0  0  0  0  0  0  0  0  0  0  0  0
  -29.5408  -16.6980   19.3177 N   0  0  0  0  0  0  0  0  0  0  0  0
  -24.0214  -31.2625   22.8445 N   0  0  0  0  0  0  0  0  0  0  0  0
  -20.6086  -26.2272   20.0750 N   0  0  0  0  0  0  0  0  0  0  0  0
  -30.3029  -23.1026   19.2440 N   0  3  1  0  0  0  0  0  0  0  0  0
  -21.6943  -23.6448   17.7902 N   0  3  0  0  0  0  0  0  0  0  0  0
  -23.2143  -11.0446   18.4258 O   0  0  0  0  0  0  0  0  0  0  0  0
  -23.4836  -29.0725   23.4250 O   0  0  0  0  0  0  0  0  0  0  0  0
  -20.3683  -29.0857   21.3061 O   0  0  0  0  0  0  0  0  0  0  0  0
  -21.3504  -24.0818   20.5484 O   0  0  0  0  0  0  0  0  0  0  0  0
  -31.6146  -15.9003   19.9847 O   0  0  0  0  0  0  0  0  0  0  0  0
  -20.2753  -14.8223   24.5645 O   0  0  0  0  0  0  0  0  0  0  0  0
  -28.0969  -25.8723   19.9635 O   0  0  0  0  0  0  0  0  0  1  0  0
  -15.4758  -12.1292   24.2231 F   0  0  0  0  0  0  0  0  0  0  0  0
  -19.2401  -13.4859   26.7519 F   0  0  0  0  0  0  0  0  0  0  0  0
  -33.2972  -19.7945   20.2362 F   0  0  0  0  0  0  0  0  0  0  0  0
  -33.2321  -21.1270   18.5262 F   0  0  0  0  0  0  0  0  0  0  0  0
  -32.2705  -21.7053   20.3889 F   0  0  0  0  0  0  0  0  0  0  0  0
  1  2  1  0  0  0  0
  1  5  2  0  0  0  0
  2  6  2  0  0  0  0
  3 10  2  0  0  0  0
  3 18  1  0  0  0  0
  4 11  1  0  0  0  0
  4 18  2  0  0  0  0
  5 20  1  0  0  0  0
  6 22  1  0  0  0  0
  7 12  2  0  0  0  0
  7 21  1  0  0  0  0
  8  9  2  0  0  0  0
  8 24  1  0  0  0  0
  9 26  1  0  0  0  0
 10 27  1  0  0  0  0
 11 27  2  0  0  0  0
 12 28  1  0  0  0  0
 13 14  2  0  0  0  0
 13 29  1  0  0  0  0
 14 30  1  0  0  0  0
 15 23  1  0  0  0  0
 15 28  2  0  0  0  0
 16 25  1  0  0  0  0
 16 26  2  0  0  0  0
 17 30  2  0  0  0  0
 17 31  1  0  0  0  0
 18 32  1  0  0  0  0
 19 32  1  0  0  0  0
 19 33  2  0  0  0  0
 19 36  1  0  0  0  0
 20 22  2  0  0  0  0
 20 41  1  0  0  0  0
 21 23  2  0  0  0  0
 21 42  1  0  0  0  0
 22 53  1  0  0  0  0
 23 43  1  0  0  0  0
 24 25  2  0  0  0  0
 24 62  1  0  0  0  0
 25 65  1  0  0  0  0
 26 73  1  0  0  0  0
 27 83  1  0  0  0  0
 28 84  1  0  0  0  0
 29 31  2  0  0  0  0
 29 83  1  0  0  0  0
 30 85  1  0  0  0  0
 31 86  1  0  0  0  0
 32 67  2  0  0  0  0
 33 68  1  0  0  0  0
 33 71  1  0  0  0  0
 34 35  2  0  0  0  0
 34 44  1  0  0  0  0
 34 76  1  0  0  0  0
 36 72  1  0  0  0  0
 36 78  2  0  0  0  0
 37 54  1  0  0  0  0
 37 74  1  0  0  0  0
 37 79  2  0  0  0  0
 38 63  1  0  0  0  0
 38 69  1  0  0  0  0
 38 80  2  0  0  0  0
 39 64  1  0  0  0  0
 39 75  1  0  0  0  0
 39 81  2  0  0  0  0
 40 70  1  0  0  0  0
 40 73  1  0  0  0  0
 40 82  2  0  0  0  0
 41 45  1  0  0  0  0
 42 54  1  0  0  0  0
 43 69  1  0  0  0  0
 44 56  1  0  0  0  0
 45 47  1  0  0  0  0
 46 48  1  0  0  0  0
 46 50  1  0  0  0  0
 47 53  1  0  0  0  0
 48 55  1  0  0  0  0
 49 52  1  0  0  0  0
 49 56  1  0  0  0  0
 50 70  1  0  0  0  0
 51 55  1  0  0  0  0
 51 70  1  0  0  0  0
 52 76  1  0  0  0  0
 53 74  1  0  0  0  0
 54 69  1  0  0  0  0
 55 68  1  0  0  0  0
 56 84  1  0  0  0  0
 57 64  1  0  0  0  0
 58 66  1  0  0  0  0
 59 66  1  0  0  0  0
 60 66  1  0  0  0  0
 61 77  1  0  0  0  0
 62 76  1  0  0  0  0
 63 66  1  0  0  0  0
 63 75  1  0  0  0  0
 64 77  1  0  0  0  0
 65 87  1  0  0  0  0
 65 88  1  0  0  0  0
 65 89  1  0  0  0  0
 67 68  1  0  0  0  0
M  CHG  2  76   1  77   1
M  ISO  4  40 100  56 101  73 100  84 101
M  END
> <Batch ID>
0048

> <Smiles>
C=C1C[101CH:1]([101O:1]c2ccc3c(c2)CN(C(=O)C(NC(=O)C(C)NC)C(C)(C)C)C(C(=O)NC2CCCc4ccccc42)C3)CCN1Cc1ccc([100NH:0][100C:0](=O)N2CCCC(n3nc(-c4ccc(Oc5ccc(F)cc5F)cc4)c(C(N)=O)c3N)C2)cc1C(F)(F)F

> <Shape>
0.295

> <Color>
0.067

> <Negative vol penalty>
0.000

$$$$

  -OEChem-04042322293D

 88 97  0     1  0  0  0  0  0999 V2000
  -16.6429  -29.9094   24.2107 C   0  0  0  0  0  0  0  0  0  0  0  0
  -16.9964  -29.1980   23.0697 C   0  0  0  0  0  0  0  0  0  0  0  0
  -26.5415  -13.1314   20.4069 C   0  0  0  0  0  0  0  0  0  0  0  0
  -24.2219  -13.2053   21.0786 C   0  0  0  0  0  0  0  0  0  0  0  0
  -17.5701  -30.7557   24.8150 C   0  0  0  0  0  0  0  0  0  0  0  0
  -18.2809  -29.3236   22.5395 C   0  0  0  0  0  0  0  0  0  0  0  0
  -25.6939  -28.2551   18.8914 C   0  0  0  0  0  0  0  0  0  0  0  0
  -28.7149  -24.7740   19.1970 C   0  0  0  0  0  0  0  0  0  0  0  0
  -27.6911  -23.8670   19.4702 C   0  0  0  0  0  0  0  0  0  0  0  0
  -26.3680  -11.8245   19.9513 C   0  0  0  0  0  0  0  0  0  0  0  0
  -24.0483  -11.8984   20.6229 C   0  0  0  0  0  0  0  0  0  0  0  0
  -26.9920  -28.6846   19.1638 C   0  0  0  0  0  0  0  0  0  0  0  0
  -24.7291   -8.7700   21.7096 C   0  0  0  0  0  0  0  0  0  0  0  0
  -24.0302   -7.8850   22.5304 C   0  0  0  0  0  0  0  0  0  0  0  0
  -26.6136  -28.3157   21.5175 C   0  0  0  0  0  0  0  0  0  0  0  0
  -30.2162  -23.5015   20.5984 C   0  0  0  0  0  0  0  0  0  0  0  0
  -22.3855   -7.5688   20.7891 C   0  0  0  0  0  0  0  0  0  0  0  0
  -25.4685  -13.8217   20.9706 C   0  0  0  0  0  0  0  0  0  0  0  0
  -26.5346  -15.6122   22.4421 C   0  0  0  0  0  0  0  0  0  0  0  0
  -18.8624  -30.9006   24.2841 C   0  0  0  0  0  0  0  0  0  0  0  0
  -24.8408  -27.8623   19.9328 C   0  0  0  0  0  0  0  0  0  0  0  0
  -19.2386  -30.1543   23.1488 C   0  0  0  0  0  0  0  0  0  0  0  0
  -25.3060  -27.8792   21.2554 C   0  0  0  0  0  0  0  0  0  0  0  0
  -29.9775  -24.5913   19.7610 C   0  0  0  0  0  0  0  0  0  0  0  0
  -29.1924  -22.5945   20.8717 C   0  0  0  0  0  0  0  0  0  0  0  0
  -27.9298  -22.7773   20.3075 C   0  0  0  0  0  0  0  0  0  0  0  0
  -25.1214  -11.2080   20.0593 C   0  0  0  0  0  0  0  0  0  0  0  0
  -27.4511  -28.7177   20.4773 C   0  0  0  0  0  0  0  0  0  0  0  0
  -24.2562   -9.0546   20.4286 C   0  0  0  0  0  0  0  0  0  0  0  0
  -22.8584   -7.2843   22.0702 C   0  0  0  0  0  0  0  0  0  0  0  0
  -23.0844   -8.4539   19.9683 C   0  0  0  0  0  0  0  0  0  0  0  0
  -25.6472  -15.1715   21.4420 C   0  0  0  0  0  0  0  0  0  0  0  0
  -26.3231  -16.9673   22.5160 C   0  0  0  0  0  0  0  0  0  0  0  0
  -32.4515  -27.3864   20.2962 C   0  0  0  0  0  0  0  0  0  0  0  0
  -27.4669  -14.8636   23.2334 C   0  0  0  0  0  0  0  0  0  0  0  0
  -33.6529  -27.1321   20.8364 C   0  0  0  0  0  0  0  0  0  0  0  0
  -22.0580  -28.9003   21.0652 C   0  0  0  0  0  0  0  0  0  0  0  0
  -22.2756  -26.2570   22.9328 C   0  0  0  0  0  0  0  0  0  0  0  0
  -24.8536  -24.5540   24.7959 C   0  0  0  0  0  0  0  0  0  0  0  0
  -25.5716  -21.9196   20.0844 C   0  0  0  0  0  0  0  0  0  0  0  0
  -19.8288  -31.8243   24.9828 C   0  0  0  0  0  0  0  0  0  0  0  0
  -23.4522  -27.3762   19.6198 C   0  0  0  0  0  0  0  0  0  0  0  0
  -24.4365  -27.4485   22.4074 C   0  0  0  0  0  0  0  0  0  0  0  0
  -32.1859  -28.5712   19.4078 C   0  0  0  0  0  0  0  0  0  0  0  0
  -21.0061  -32.2297   24.1020 C   0  0  0  0  0  0  0  0  0  0  0  0
  -30.9638  -29.3383   19.8982 C   0  0  0  0  0  0  0  0  0  0  0  0
  -22.6994  -19.8517   20.4737 C   0  0  0  0  0  0  0  0  0  0  0  0
  -21.6252  -30.9962   23.4618 C   0  0  0  0  0  0  0  0  0  0  0  0
  -23.2833  -18.4860   20.8426 C   0  0  0  0  0  0  0  0  0  0  0  0
  -23.5716  -20.5853   19.4563 C   0  0  0  0  0  0  0  0  0  0  0  0
  -25.5695  -19.3501   20.1993 C   0  0  0  0  0  0  0  0  0  0  0  0
  -30.1686  -27.2713   21.1065 C   0  0  0  0  0  0  0  0  0  0  0  0
  -20.6202  -30.2984   22.5366 C   0  0  1  0  0  0  0  0  0  0  0  0
  -22.4988  -27.4875   20.8055 C   0  0  1  0  0  0  0  0  0  0  0  0
  -24.7596  -18.6012   21.2702 C   0  0  2  0  0  0  0  0  0  0  0  0
  -29.7840  -28.4005   20.1539 C   0  0  1  0  0  0  0  0  0  1  0  0
  -29.4756  -21.4379   21.7746 C   0  0  0  0  0  0  0  0  0  0  0  0
  -33.8896  -25.9428   21.7189 C   0  0  0  0  0  0  0  0  0  0  0  0
  -34.8358  -28.0214   20.5927 C   0  0  0  0  0  0  0  0  0  0  0  0
  -25.0744  -22.1394   25.4428 C   0  0  0  0  0  0  0  0  0  0  0  0
  -20.9377  -27.1310   25.5321 C   0  0  0  0  0  0  0  0  0  0  0  0
  -22.4539  -25.5612   26.7589 C   0  0  0  0  0  0  0  0  0  0  0  0
  -20.8354  -24.6732   25.0812 C   0  0  0  0  0  0  0  0  0  0  0  0
  -27.5236  -24.3408   23.5371 C   0  0  0  0  0  0  0  0  0  0  0  0
  -31.0780  -25.5683   19.4689 C   0  0  0  0  0  0  0  0  0  0  0  0
  -22.8675  -25.9509   24.2874 C   0  0  1  0  0  0  0  0  0  0  0  0
  -25.4897  -23.2185   24.4549 C   0  0  2  0  0  0  0  0  0  0  0  0
  -21.7843  -25.8495   25.3983 C   0  0  0  0  0  0  0  0  0  0  0  0
  -24.9256  -16.1660   20.9183 N   0  0  0  0  0  0  0  0  0  0  0  0
  -25.3592  -17.2451   21.5919 N   0  0  0  0  0  0  0  0  0  0  0  0
  -23.0846  -26.9873   22.0508 N   0  0  0  0  0  0  0  0  0  0  0  0
  -24.9551  -20.6598   19.9307 N   0  0  0  0  0  0  0  0  0  0  0  0
  -26.8694  -17.9365   23.2807 N   0  0  0  0  0  0  0  0  0  0  0  0
  -27.5568  -13.4800   23.0291 N   0  0  0  0  0  0  0  0  0  0  0  0
  -26.8767  -21.8672   20.5729 N   0  0  0  0  0  0  0  0  0  0  0  0
  -21.1692  -29.0283   22.1155 N   0  0  0  0  0  0  0  0  0  0  0  0
  -23.6666  -24.7418   24.1199 N   0  0  0  0  0  0  0  0  0  0  0  0
  -31.3661  -26.4926   20.6195 N   0  3  1  0  0  0  0  0  0  0  0  0
  -26.9755  -23.3312   24.4791 N   0  3  0  0  0  0  0  0  0  0  0  0
  -28.1867  -15.4032   24.1076 O   0  0  0  0  0  0  0  0  0  0  0  0
  -22.4933  -29.8073   20.3655 O   0  0  0  0  0  0  0  0  0  0  0  0
  -21.1401  -25.8566   22.6645 O   0  0  0  0  0  0  0  0  0  0  0  0
  -25.3573  -25.3493   25.5860 O   0  0  0  0  0  0  0  0  0  0  0  0
  -24.9756  -22.9692   19.8290 O   0  0  0  0  0  0  0  0  0  0  0  0
  -24.9516   -9.9329   19.6146 O   0  0  0  0  0  0  0  0  0  0  0  0
  -28.7175  -29.1371   20.7460 O   0  0  0  0  0  0  0  0  0  1  0  0
  -22.1882   -6.4332   22.8580 F   0  0  0  0  0  0  0  0  0  0  0  0
  -22.6258   -8.7225   18.7381 F   0  0  0  0  0  0  0  0  0  0  0  0
  1  2  1  0  0  0  0
  1  5  2  0  0  0  0
  2  6  2  0  0  0  0
  3 10  2  0  0  0  0
  3 18  1  0  0  0  0
  4 11  1  0  0  0  0
  4 18  2  0  0  0  0
  5 20  1  0  0  0  0
  6 22  1  0  0  0  0
  7 12  2  0  0  0  0
  7 21  1  0  0  0  0
  8  9  2  0  0  0  0
  8 24  1  0  0  0  0
  9 26  1  0  0  0  0
 10 27  1  0  0  0  0
 11 27  2  0  0  0  0
 12 28  1  0  0  0  0
 13 14  2  0  0  0  0
 13 29  1  0  0  0  0
 14 30  1  0  0  0  0
 15 23  1  0  0  0  0
 15 28  2  0  0  0  0
 16 24  2  0  0  0  0
 16 25  1  0  0  0  0
 17 30  2  0  0  0  0
 17 31  1  0  0  0  0
 18 32  1  0  0  0  0
 19 32  1  0  0  0  0
 19 33  2  0  0  0  0
 19 35  1  0  0  0  0
 20 22  2  0  0  0  0
 20 41  1  0  0  0  0
 21 23  2  0  0  0  0
 21 42  1  0  0  0  0
 22 53  1  0  0  0  0
 23 43  1  0  0  0  0
 24 65  1  0  0  0  0
 25 26  2  0  0  0  0
 25 57  1  0  0  0  0
 26 75  1  0  0  0  0
 27 85  1  0  0  0  0
 28 86  1  0  0  0  0
 29 31  2  0  0  0  0
 29 85  1  0  0  0  0
 30 87  1  0  0  0  0
 31 88  1  0  0  0  0
 32 69  2  0  0  0  0
 33 70  1  0  0  0  0
 33 73  1  0  0  0  0
 34 36  2  0  0  0  0
 34 44  1  0  0  0  0
 34 78  1  0  0  0  0
 35 74  1  0  0  0  0
 35 80  2  0  0  0  0
 36 58  1  0  0  0  0
 36 59  1  0  0  0  0
 37 54  1  0  0  0  0
 37 76  1  0  0  0  0
 37 81  2  0  0  0  0
 38 66  1  0  0  0  0
 38 71  1  0  0  0  0
 38 82  2  0  0  0  0
 39 67  1  0  0  0  0
 39 77  1  0  0  0  0
 39 83  2  0  0  0  0
 40 72  1  0  0  0  0
 40 75  1  0  0  0  0
 40 84  2  0  0  0  0
 41 45  1  0  0  0  0
 42 54  1  0  0  0  0
 43 71  1  0  0  0  0
 44 46  1  0  0  0  0
 45 48  1  0  0  0  0
 46 56  1  0  0  0  0
 47 49  1  0  0  0  0
 47 50  1  0  0  0  0
 48 53  1  0  0  0  0
 49 55  1  0  0  0  0
 50 72  1  0  0  0  0
 51 55  1  0  0  0  0
 51 72  1  0  0  0  0
 52 56  1  0  0  0  0
 52 78  1  0  0  0  0
 53 76  1  0  0  0  0
 54 71  1  0  0  0  0
 55 70  1  0  0  0  0
 56 86  1  0  0  0  0
 60 67  1  0  0  0  0
 61 68  1  0  0  0  0
 62 68  1  0  0  0  0
 63 68  1  0  0  0  0
 64 79  1  0  0  0  0
 65 78  1  0  0  0  0
 66 68  1  0  0  0  0
 66 77  1  0  0  0  0
 67 79  1  0  0  0  0
 69 70  1  0  0  0  0
M  CHG  2  78   1  79   1
M  ISO  4  40 100  56 101  75 100  86 101
M  END
> <Batch ID>
0048

> <Smiles>
CNC(C)C(=O)NC(C(=O)N1Cc2cc([101O:1][101CH:1]3CCC(=C(C)C)N(Cc4ccc([100NH:0][100C:0](=O)N5CCCC(n6nc(-c7ccc(Oc8ccc(F)cc8F)cc7)c(C(N)=O)c6N)C5)c(C)c4)C3)ccc2CC1C(=O)NC1CCCc2ccccc21)C(C)(C)C

> <Shape>
0.232

> <Color>
0.072

> <Negative vol penalty>
0.000

$$$$

  -OEChem-04042322293D

 84 92  0     1  0  0  0  0  0999 V2000
  -26.5407  -26.9678   13.7032 C   0  0  0  0  0  0  0  0  0  0  0  0
  -27.4323  -26.1996   14.4450 C   0  0  0  0  0  0  0  0  0  0  0  0
  -23.6403   -9.5852   20.7879 C   0  0  0  0  0  0  0  0  0  0  0  0
  -24.2312  -10.2810   23.0248 C   0  0  0  0  0  0  0  0  0  0  0  0
  -26.0476  -28.1620   14.2273 C   0  0  0  0  0  0  0  0  0  0  0  0
  -27.8321  -26.6257   15.7111 C   0  0  0  0  0  0  0  0  0  0  0  0
  -27.7757  -22.8874   19.1268 C   0  0  0  0  0  0  0  0  0  0  0  0
  -23.0903   -8.4096   21.2988 C   0  0  0  0  0  0  0  0  0  0  0  0
  -23.6811   -9.1054   23.5357 C   0  0  0  0  0  0  0  0  0  0  0  0
  -28.8393  -21.9863   19.1021 C   0  0  0  0  0  0  0  0  0  0  0  0
  -20.6047   -7.8984   24.2424 C   0  0  0  0  0  0  0  0  0  0  0  0
  -19.7885   -8.0027   25.3687 C   0  0  0  0  0  0  0  0  0  0  0  0
  -29.8652  -23.1560   20.9456 C   0  0  0  0  0  0  0  0  0  0  0  0
  -32.0756  -16.0295   22.4924 C   0  0  0  0  0  0  0  0  0  0  0  0
  -21.2916   -6.5594   26.5914 C   0  0  0  0  0  0  0  0  0  0  0  0
  -31.2792  -16.1928   25.1610 C   0  0  0  0  0  0  0  0  0  0  0  0
  -24.2108  -10.5209   21.6509 C   0  0  0  0  0  0  0  0  0  0  0  0
  -24.1213  -12.9621   20.9160 C   0  0  0  0  0  0  0  0  0  0  0  0
  -26.4341  -28.5981   15.5044 C   0  0  0  0  0  0  0  0  0  0  0  0
  -27.7543  -23.9378   20.0555 C   0  0  0  0  0  0  0  0  0  0  0  0
  -27.3448  -27.8275   16.2523 C   0  0  0  0  0  0  0  0  0  0  0  0
  -28.7990  -24.0676   20.9816 C   0  0  0  0  0  0  0  0  0  0  0  0
  -32.5517  -17.0620   23.3003 C   0  0  0  0  0  0  0  0  0  0  0  0
  -31.2012  -15.0786   23.0187 C   0  0  0  0  0  0  0  0  0  0  0  0
  -23.1107   -8.1697   22.6727 C   0  0  0  0  0  0  0  0  0  0  0  0
  -29.8857  -22.1222   20.0097 C   0  0  0  0  0  0  0  0  0  0  0  0
  -21.7643   -7.1246   24.2905 C   0  0  0  0  0  0  0  0  0  0  0  0
  -20.1320   -7.3332   26.5432 C   0  0  0  0  0  0  0  0  0  0  0  0
  -22.1077   -6.4551   25.4650 C   0  0  0  0  0  0  0  0  0  0  0  0
  -32.1536  -17.1437   24.6346 C   0  0  0  0  0  0  0  0  0  0  0  0
  -30.8031  -15.1602   24.3530 C   0  0  0  0  0  0  0  0  0  0  0  0
  -24.7796  -11.7352   21.1236 C   0  0  0  0  0  0  0  0  0  0  0  0
  -25.0905  -13.7894   20.4036 C   0  0  0  0  0  0  0  0  0  0  0  0
  -22.7558  -13.3218   21.1643 C   0  0  0  0  0  0  0  0  0  0  0  0
  -27.7500  -27.1101   19.8542 C   0  0  0  0  0  0  0  0  0  0  0  0
  -27.3437  -26.9244   23.0671 C   0  0  0  0  0  0  0  0  0  0  0  0
  -32.1740  -19.5917   21.2377 C   0  0  0  0  0  0  0  0  0  0  0  0
  -27.7299  -25.1178   25.9366 C   0  0  0  0  0  0  0  0  0  0  0  0
  -31.0506  -13.8461   20.8268 C   0  0  0  0  0  0  0  0  0  0  0  0
  -25.9111  -29.9195   16.0093 C   0  0  0  0  0  0  0  0  0  0  0  0
  -26.5867  -24.8856   20.0866 C   0  0  0  0  0  0  0  0  0  0  0  0
  -28.8135  -25.1660   22.0120 C   0  0  0  0  0  0  0  0  0  0  0  0
  -26.0940  -30.1127   17.5125 C   0  0  0  0  0  0  0  0  0  0  0  0
  -29.1299  -13.6820   17.8333 C   0  0  0  0  0  0  0  0  0  0  0  0
  -27.5079  -29.7237   17.9326 C   0  0  0  0  0  0  0  0  0  0  0  0
  -27.7349  -13.2817   18.3191 C   0  0  0  0  0  0  0  0  0  0  0  0
  -30.2302  -12.9957   18.6407 C   0  0  0  0  0  0  0  0  0  0  0  0
  -28.7319  -12.7602   20.5821 C   0  0  0  0  0  0  0  0  0  0  0  0
  -27.7829  -28.2439   17.6396 C   0  0  1  0  0  0  0  0  0  0  0  0
  -26.9203  -26.2235   20.7392 C   0  0  1  0  0  0  0  0  0  0  0  0
  -27.5909  -13.4764   19.8412 C   0  0  2  0  0  0  0  0  0  0  0  0
  -27.3373  -25.2443   28.4119 C   0  0  0  0  0  0  0  0  0  0  0  0
  -29.7573  -28.7690   23.3532 C   0  0  0  0  0  0  0  0  0  0  0  0
  -29.8953  -28.1001   25.7618 C   0  0  0  0  0  0  0  0  0  0  0  0
  -27.8668  -29.2757   24.9099 C   0  0  0  0  0  0  0  0  0  0  0  0
  -25.9036  -22.7895   25.8832 C   0  0  0  0  0  0  0  0  0  0  0  0
  -33.4902  -18.0656   22.6951 C   0  0  0  0  0  0  0  0  0  0  0  0
  -31.5835  -20.9855   21.2267 C   0  0  0  0  0  0  0  0  0  1  0  0
  -28.2672  -26.8655   24.2599 C   0  0  1  0  0  0  0  0  0  0  0  0
  -26.7683  -24.8100   27.0702 C   0  0  2  0  0  0  0  0  0  0  0  0
  -28.9476  -28.2329   24.5506 C   0  0  0  0  0  0  0  0  0  0  0  0
  -26.0674  -11.7750   20.7716 N   0  0  0  0  0  0  0  0  0  0  0  0
  -26.2261  -13.0370   20.3376 N   0  0  0  0  0  0  0  0  0  0  0  0
  -27.6526  -26.0713   21.9981 N   0  0  0  0  0  0  0  0  0  0  0  0
  -30.0310  -13.2271   20.0731 N   0  0  0  0  0  0  0  0  0  0  0  0
  -25.0736  -15.0799   20.0074 N   0  0  0  0  0  0  0  0  0  0  0  0
  -21.8946  -12.3507   21.6931 N   0  0  0  0  0  0  0  0  0  0  0  0
  -30.7352  -14.0435   22.1707 N   0  0  0  0  0  0  0  0  0  0  0  0
  -27.1586  -27.4059   18.6409 N   0  0  0  0  0  0  0  0  0  0  0  0
  -32.8352  -19.3248   22.4263 N   0  0  0  0  0  0  0  0  0  0  0  0
  -27.4713  -26.3466   25.3671 N   0  0  0  0  0  0  0  0  0  0  0  0
  -26.4888  -23.3473   27.1296 N   0  3  0  0  0  0  0  0  0  0  0  0
  -22.3084  -14.4656   20.9091 O   0  0  0  0  0  0  0  0  0  0  0  0
  -28.8450  -27.4984   20.2440 O   0  0  0  0  0  0  0  0  0  0  0  0
  -26.3796  -27.6936   23.0862 O   0  0  0  0  0  0  0  0  0  0  0  0
  -32.0644  -18.8162   20.2919 O   0  0  0  0  0  0  0  0  0  0  0  0
  -28.6235  -24.3470   25.5933 O   0  0  0  0  0  0  0  0  0  0  0  0
  -32.1138  -14.2015   20.3116 O   0  0  0  0  0  0  0  0  0  0  0  0
  -22.5739   -7.0227   23.1717 O   0  0  0  0  0  0  0  0  0  0  0  0
  -30.9253  -21.2444   19.9873 O   0  0  0  0  0  0  0  0  0  1  0  0
  -19.3490   -7.4346   27.6252 F   0  0  0  0  0  0  0  0  0  0  0  0
  -23.2211   -5.7112   25.5176 F   0  0  0  0  0  0  0  0  0  0  0  0
  -32.7228  -18.4070   25.6637 Cl  0  0  0  0  0  0  0  0  0  0  0  0
  -29.7221  -14.0033   25.0448 Cl  0  0  0  0  0  0  0  0  0  0  0  0
  1  2  1  0  0  0  0
  1  5  2  0  0  0  0
  2  6  2  0  0  0  0
  3  8  2  0  0  0  0
  3 17  1  0  0  0  0
  4  9  1  0  0  0  0
  4 17  2  0  0  0  0
  5 19  1  0  0  0  0
  6 21  1  0  0  0  0
  7 10  2  0  0  0  0
  7 20  1  0  0  0  0
  8 25  1  0  0  0  0
  9 25  2  0  0  0  0
 10 26  1  0  0  0  0
 11 12  2  0  0  0  0
 11 27  1  0  0  0  0
 12 28  1  0  0  0  0
 13 22  1  0  0  0  0
 13 26  2  0  0  0  0
 14 23  1  0  0  0  0
 14 24  2  0  0  0  0
 15 28  2  0  0  0  0
 15 29  1  0  0  0  0
 16 30  1  0  0  0  0
 16 31  2  0  0  0  0
 17 32  1  0  0  0  0
 18 32  1  0  0  0  0
 18 33  2  0  0  0  0
 18 34  1  0  0  0  0
 19 21  2  0  0  0  0
 19 40  1  0  0  0  0
 20 22  2  0  0  0  0
 20 41  1  0  0  0  0
 21 49  1  0  0  0  0
 22 42  1  0  0  0  0
 23 30  2  0  0  0  0
 23 57  1  0  0  0  0
 24 31  1  0  0  0  0
 24 68  1  0  0  0  0
 25 79  1  0  0  0  0
 26 80  1  0  0  0  0
 27 29  2  0  0  0  0
 27 79  1  0  0  0  0
 28 81  1  0  0  0  0
 29 82  1  0  0  0  0
 30 83  1  0  0  0  0
 31 84  1  0  0  0  0
 32 62  2  0  0  0  0
 33 63  1  0  0  0  0
 33 66  1  0  0  0  0
 34 67  1  0  0  0  0
 34 73  2  0  0  0  0
 35 50  1  0  0  0  0
 35 69  1  0  0  0  0
 35 74  2  0  0  0  0
 36 59  1  0  0  0  0
 36 64  1  0  0  0  0
 36 75  2  0  0  0  0
 37 58  1  0  0  0  0
 37 70  1  0  0  0  0
 37 76  2  0  0  0  0
 38 60  1  0  0  0  0
 38 71  1  0  0  0  0
 38 77  2  0  0  0  0
 39 65  1  0  0  0  0
 39 68  1  0  0  0  0
 39 78  2  0  0  0  0
 40 43  1  0  0  0  0
 41 50  1  0  0  0  0
 42 64  1  0  0  0  0
 43 45  1  0  0  0  0
 44 46  1  0  0  0  0
 44 47  1  0  0  0  0
 45 49  1  0  0  0  0
 46 51  1  0  0  0  0
 47 65  1  0  0  0  0
 48 51  1  0  0  0  0
 48 65  1  0  0  0  0
 49 69  1  0  0  0  0
 50 64  1  0  0  0  0
 51 63  1  0  0  0  0
 52 60  1  0  0  0  0
 53 61  1  0  0  0  0
 54 61  1  0  0  0  0
 55 61  1  0  0  0  0
 56 72  1  0  0  0  0
 57 70  1  0  0  0  0
 58 80  1  0  0  0  0
 59 61  1  0  0  0  0
 59 71  1  0  0  0  0
 60 72  1  0  0  0  0
 62 63  1  0  0  0  0
M  CHG  1  72   1
M  ISO  4  39 100  58 101  68 100  80 101
M  END
> <Batch ID>
0048

> <Smiles>
CNC(C)C(=O)NC(C(=O)N1Cc2cc([101O:1][101CH2:1]C(=O)NCc3cc([100NH:0][100C:0](=O)N4CCCC(n5nc(-c6ccc(Oc7ccc(F)cc7F)cc6)c(C(N)=O)c5N)C4)c(Cl)cc3Cl)ccc2CC1C(=O)NC1CCCc2ccccc21)C(C)(C)C

> <Shape>
0.201

> <Color>
0.149

> <Negative vol penalty>
0.000

$$$$

  -OEChem-04042322293D

 86 94  0     1  0  0  0  0  0999 V2000
  -17.4904  -26.7202   22.9756 C   0  0  0  0  0  0  0  0  0  0  0  0
  -18.2862  -26.6673   21.8357 C   0  0  0  0  0  0  0  0  0  0  0  0
  -26.7194  -13.2112   21.3505 C   0  0  0  0  0  0  0  0  0  0  0  0
  -25.3195  -14.5832   19.9381 C   0  0  0  0  0  0  0  0  0  0  0  0
  -17.6112  -27.7916   23.8595 C   0  0  0  0  0  0  0  0  0  0  0  0
  -19.2025  -27.6865   21.5785 C   0  0  0  0  0  0  0  0  0  0  0  0
  -24.6958  -27.1169   18.9318 C   0  0  0  0  0  0  0  0  0  0  0  0
  -25.7899  -12.1748   21.2650 C   0  0  0  0  0  0  0  0  0  0  0  0
  -24.3899  -13.5467   19.8526 C   0  0  0  0  0  0  0  0  0  0  0  0
  -25.1349  -27.3327   17.6263 C   0  0  0  0  0  0  0  0  0  0  0  0
  -24.9223   -9.7843   19.0366 C   0  0  0  0  0  0  0  0  0  0  0  0
  -25.4060   -8.4978   18.7988 C   0  0  0  0  0  0  0  0  0  0  0  0
  -29.9099  -24.3671   18.3206 C   0  0  0  0  0  0  0  0  0  0  0  0
  -25.8641  -29.5476   18.2441 C   0  0  0  0  0  0  0  0  0  0  0  0
  -29.0120  -24.4971   20.9587 C   0  0  0  0  0  0  0  0  0  0  0  0
  -24.4413   -7.7498   20.8838 C   0  0  0  0  0  0  0  0  0  0  0  0
  -26.4842  -14.4155   20.6871 C   0  0  0  0  0  0  0  0  0  0  0  0
  -29.5625  -25.5971   18.8792 C   0  0  0  0  0  0  0  0  0  0  0  0
  -28.5368  -15.7217   19.9199 C   0  0  0  0  0  0  0  0  0  0  0  0
  -18.5362  -28.8195   23.6181 C   0  0  0  0  0  0  0  0  0  0  0  0
  -24.8279  -28.1205   19.9023 C   0  0  0  0  0  0  0  0  0  0  0  0
  -19.3348  -28.7733   22.4594 C   0  0  0  0  0  0  0  0  0  0  0  0
  -25.4283  -29.3411   19.5619 C   0  0  0  0  0  0  0  0  0  0  0  0
  -29.8082  -23.2021   19.0809 C   0  0  0  0  0  0  0  0  0  0  0  0
  -29.1136  -25.6621   20.1983 C   0  0  0  0  0  0  0  0  0  0  0  0
  -29.3593  -23.2671   20.4000 C   0  0  0  0  0  0  0  0  0  0  0  0
  -24.6252  -12.3425   20.5161 C   0  0  0  0  0  0  0  0  0  0  0  0
  -25.7165  -28.5492   17.2815 C   0  0  0  0  0  0  0  0  0  0  0  0
  -24.1982  -10.0536   20.1980 C   0  0  0  0  0  0  0  0  0  0  0  0
  -25.1655   -7.4805   19.7223 C   0  0  0  0  0  0  0  0  0  0  0  0
  -23.9577   -9.0364   21.1216 C   0  0  0  0  0  0  0  0  0  0  0  0
  -27.4437  -15.4867   20.7754 C   0  0  0  0  0  0  0  0  0  0  0  0
  -29.1321  -16.8513   20.4257 C   0  0  0  0  0  0  0  0  0  0  0  0
  -29.6775  -26.8183   18.0571 C   0  0  0  0  0  0  0  0  0  0  0  0
  -28.9747  -14.9847   18.7707 C   0  0  0  0  0  0  0  0  0  0  0  0
  -22.8002  -29.7964   21.6865 C   0  0  0  0  0  0  0  0  0  0  0  0
  -25.5261  -30.9062   23.0503 C   0  0  0  0  0  0  0  0  0  0  0  0
  -28.8756  -31.4955   22.7669 C   0  0  0  0  0  0  0  0  0  0  0  0
  -28.8191  -22.0043   22.5118 C   0  0  0  0  0  0  0  0  0  0  0  0
  -18.5975  -29.9813   24.5780 C   0  0  0  0  0  0  0  0  0  0  0  0
  -24.3735  -27.8623   21.3127 C   0  0  0  0  0  0  0  0  0  0  0  0
  -25.6117  -30.4435   20.5716 C   0  0  0  0  0  0  0  0  0  0  0  0
  -19.8567  -30.8308   24.4265 C   0  0  0  0  0  0  0  0  0  0  0  0
  -28.3720  -19.3034   24.7882 C   0  0  0  0  0  0  0  0  0  0  0  0
  -20.1211  -31.1358   22.9555 C   0  0  0  0  0  0  0  0  0  0  0  0
  -28.1806  -18.0890   23.8768 C   0  0  0  0  0  0  0  0  0  0  0  0
  -27.7206  -20.5570   24.2070 C   0  0  0  0  0  0  0  0  0  0  0  0
  -27.9250  -19.6666   21.9191 C   0  0  0  0  0  0  0  0  0  0  0  0
  -20.3578  -29.8472   22.1587 C   0  0  1  0  0  0  0  0  0  0  0  0
  -24.0903  -29.1422   22.0930 C   0  0  1  0  0  0  0  0  0  0  0  0
  -28.6198  -18.3944   22.4313 C   0  0  2  0  0  0  0  0  0  0  0  0
  -30.1869  -21.8983   18.4568 C   0  0  0  0  0  0  0  0  0  0  0  0
  -28.7360  -26.9674   20.8185 C   0  0  0  0  0  0  0  0  0  0  0  0
  -31.1929  -32.1491   23.4743 C   0  0  0  0  0  0  0  0  0  0  0  0
  -25.6847  -27.4384   14.0632 C   0  0  0  0  0  0  0  0  0  0  0  0
  -24.5105  -33.7279   22.4874 C   0  0  0  0  0  0  0  0  0  0  0  0
  -26.8361  -34.5682   22.8799 C   0  0  0  0  0  0  0  0  0  0  0  0
  -25.5935  -33.4355   24.7226 C   0  0  0  0  0  0  0  0  0  0  0  0
  -29.4947  -28.7509   23.6848 C   0  0  0  0  0  0  0  0  0  0  0  0
  -28.0551  -27.8061   14.8539 C   0  0  0  0  0  0  0  0  0  0  0  0
  -28.9911  -28.0528   16.0318 C   0  0  0  0  0  0  0  0  0  0  0  0
  -26.4604  -32.0620   22.7851 C   0  0  1  0  0  0  0  0  0  0  0  0
  -30.0345  -31.1896   23.6984 C   0  0  2  0  0  0  0  0  0  0  0  0
  -26.5913  -27.6235   15.2731 C   0  0  1  0  0  0  0  0  0  1  0  0
  -25.8450  -33.4285   23.1990 C   0  0  0  0  0  0  0  0  0  0  0  0
  -27.3481  -16.3941   21.7508 N   0  0  0  0  0  0  0  0  0  0  0  0
  -28.3887  -17.2102   21.5114 N   0  0  0  0  0  0  0  0  0  0  0  0
  -25.1456  -30.1452   21.9359 N   0  0  0  0  0  0  0  0  0  0  0  0
  -28.1871  -20.7856   22.8377 N   0  0  0  0  0  0  0  0  0  0  0  0
  -30.2138  -17.5627   20.0433 N   0  0  0  0  0  0  0  0  0  0  0  0
  -30.4917  -27.7855   18.4794 N   0  0  0  0  0  0  0  0  0  0  0  0
  -28.2481  -13.8487   18.3887 N   0  0  0  0  0  0  0  0  0  0  0  0
  -29.2492  -22.0949   21.1884 N   0  0  0  0  0  0  0  0  0  0  0  0
  -21.6971  -29.3496   22.3887 N   0  0  0  0  0  0  0  0  0  0  0  0
  -27.7111  -31.7398   23.4636 N   0  0  0  0  0  0  0  0  0  0  0  0
  -28.9586  -26.8979   16.9298 N   0  3  0  0  0  0  0  0  0  0  0  0
  -30.5254  -29.8002   23.4756 N   0  3  0  0  0  0  0  0  0  0  0  0
  -29.9902  -15.3140   18.1120 O   0  0  0  0  0  0  0  0  0  0  0  0
  -22.8053  -30.6448   20.8023 O   0  0  0  0  0  0  0  0  0  0  0  0
  -25.1534  -30.6825   24.2047 O   0  0  0  0  0  0  0  0  0  0  0  0
  -28.9926  -31.5193   21.5437 O   0  0  0  0  0  0  0  0  0  0  0  0
  -28.9922  -22.8907   23.3523 O   0  0  0  0  0  0  0  0  0  0  0  0
  -23.7181  -11.3312   20.4323 O   0  0  0  0  0  0  0  0  0  0  0  0
  -26.1453  -28.7627   16.0078 O   0  0  0  0  0  0  0  0  0  1  0  0
  -25.6286   -6.2448   19.4931 F   0  0  0  0  0  0  0  0  0  0  0  0
  -23.2617   -9.2887   22.2386 F   0  0  0  0  0  0  0  0  0  0  0  0
  1  2  1  0  0  0  0
  1  5  2  0  0  0  0
  2  6  2  0  0  0  0
  3  8  2  0  0  0  0
  3 17  1  0  0  0  0
  4  9  1  0  0  0  0
  4 17  2  0  0  0  0
  5 20  1  0  0  0  0
  6 22  1  0  0  0  0
  7 10  2  0  0  0  0
  7 21  1  0  0  0  0
  8 27  1  0  0  0  0
  9 27  2  0  0  0  0
 10 28  1  0  0  0  0
 11 12  2  0  0  0  0
 11 29  1  0  0  0  0
 12 30  1  0  0  0  0
 13 18  1  0  0  0  0
 13 24  2  0  0  0  0
 14 23  1  0  0  0  0
 14 28  2  0  0  0  0
 15 25  1  0  0  0  0
 15 26  2  0  0  0  0
 16 30  2  0  0  0  0
 16 31  1  0  0  0  0
 17 32  1  0  0  0  0
 18 25  2  0  0  0  0
 18 34  1  0  0  0  0
 19 32  1  0  0  0  0
 19 33  2  0  0  0  0
 19 35  1  0  0  0  0
 20 22  2  0  0  0  0
 20 40  1  0  0  0  0
 21 23  2  0  0  0  0
 21 41  1  0  0  0  0
 22 49  1  0  0  0  0
 23 42  1  0  0  0  0
 24 26  1  0  0  0  0
 24 52  1  0  0  0  0
 25 53  1  0  0  0  0
 26 73  1  0  0  0  0
 27 83  1  0  0  0  0
 28 84  1  0  0  0  0
 29 31  2  0  0  0  0
 29 83  1  0  0  0  0
 30 85  1  0  0  0  0
 31 86  1  0  0  0  0
 32 66  2  0  0  0  0
 33 67  1  0  0  0  0
 33 70  1  0  0  0  0
 34 71  1  0  0  0  0
 34 76  2  0  0  0  0
 35 72  1  0  0  0  0
 35 78  2  0  0  0  0
 36 50  1  0  0  0  0
 36 74  1  0  0  0  0
 36 79  2  0  0  0  0
 37 62  1  0  0  0  0
 37 68  1  0  0  0  0
 37 80  2  0  0  0  0
 38 63  1  0  0  0  0
 38 75  1  0  0  0  0
 38 81  2  0  0  0  0
 39 69  1  0  0  0  0
 39 73  1  0  0  0  0
 39 82  2  0  0  0  0
 40 43  1  0  0  0  0
 41 50  1  0  0  0  0
 42 68  1  0  0  0  0
 43 45  1  0  0  0  0
 44 46  1  0  0  0  0
 44 47  1  0  0  0  0
 45 49  1  0  0  0  0
 46 51  1  0  0  0  0
 47 69  1  0  0  0  0
 48 51  1  0  0  0  0
 48 69  1  0  0  0  0
 49 74  1  0  0  0  0
 50 68  1  0  0  0  0
 51 67  1  0  0  0  0
 54 63  1  0  0  0  0
 55 64  1  0  0  0  0
 56 65  1  0  0  0  0
 57 65  1  0  0  0  0
 58 65  1  0  0  0  0
 59 77  1  0  0  0  0
 60 61  1  0  0  0  0
 60 64  1  0  0  0  0
 61 76  1  0  0  0  0
 62 65  1  0  0  0  0
 62 75  1  0  0  0  0
 63 77  1  0  0  0  0
 64 84  1  0  0  0  0
 66 67  1  0  0  0  0
M  CHG  2  76   1  77   1
M  ISO  4  39 100  64 101  73 100  84 101
M  END
> <Batch ID>
0048

> <Smiles>
CNC(C)C(=O)NC(C(=O)N1Cc2cc([101O:1][101CH:1](C)CCNC(=N)c3cc(C)c([100NH:0][100C:0](=O)N4CCCC(n5nc(-c6ccc(Oc7ccc(F)cc7F)cc6)c(C(N)=O)c5N)C4)cc3C)ccc2CC1C(=O)NC1CCCc2ccccc21)C(C)(C)C

> <Shape>
0.302

> <Color>
0.064

> <Negative vol penalty>
0.000

$$$$

  -OEChem-04042322293D

 89 97  0     1  0  0  0  0  0999 V2000
  -16.7178  -29.3129   24.0090 C   0  0  0  0  0  0  0  0  0  0  0  0
  -17.0800  -28.8533   22.7469 C   0  0  0  0  0  0  0  0  0  0  0  0
  -26.9767  -12.9852   22.9312 C   0  0  0  0  0  0  0  0  0  0  0  0
  -26.2403  -13.0173   20.6304 C   0  0  0  0  0  0  0  0  0  0  0  0
  -27.7680  -21.4819   14.2554 C   0  0  0  0  0  0  0  0  0  0  0  0
  -17.6078  -30.0909   24.7483 C   0  0  0  0  0  0  0  0  0  0  0  0
  -18.3323  -29.1724   22.2229 C   0  0  0  0  0  0  0  0  0  0  0  0
  -21.8252  -25.6519   18.6296 C   0  0  0  0  0  0  0  0  0  0  0  0
  -29.0435  -21.4881   14.8199 C   0  0  0  0  0  0  0  0  0  0  0  0
  -25.8579  -12.2282   23.2788 C   0  0  0  0  0  0  0  0  0  0  0  0
  -25.1215  -12.2601   20.9780 C   0  0  0  0  0  0  0  0  0  0  0  0
  -22.0201  -25.6223   17.2495 C   0  0  0  0  0  0  0  0  0  0  0  0
  -22.2584  -10.0299   21.1949 C   0  0  0  0  0  0  0  0  0  0  0  0
  -21.9193   -8.9567   20.3710 C   0  0  0  0  0  0  0  0  0  0  0  0
  -23.9856  -26.9977   17.5037 C   0  0  0  0  0  0  0  0  0  0  0  0
  -24.0705   -7.9454   20.8028 C   0  0  0  0  0  0  0  0  0  0  0  0
  -27.1678  -13.3798   21.6070 C   0  0  0  0  0  0  0  0  0  0  0  0
  -26.6999  -20.9159   14.9516 C   0  0  0  0  0  0  0  0  0  0  0  0
  -29.5813  -13.6820   20.8378 C   0  0  0  0  0  0  0  0  0  0  0  0
  -18.8752  -30.4116   24.2371 C   0  0  0  0  0  0  0  0  0  0  0  0
  -22.7042  -26.3648   19.4575 C   0  0  0  0  0  0  0  0  0  0  0  0
  -19.2395  -29.9565   22.9555 C   0  0  0  0  0  0  0  0  0  0  0  0
  -23.8010  -27.0326   18.8944 C   0  0  0  0  0  0  0  0  0  0  0  0
  -29.2510  -20.9282   16.0805 C   0  0  0  0  0  0  0  0  0  0  0  0
  -26.9075  -20.3560   16.2121 C   0  0  0  0  0  0  0  0  0  0  0  0
  -28.1830  -20.3621   16.7766 C   0  0  0  0  0  0  0  0  0  0  0  0
  -24.9303  -11.8656   22.3022 C   0  0  0  0  0  0  0  0  0  0  0  0
  -23.0988  -26.2976   16.6860 C   0  0  0  0  0  0  0  0  0  0  0  0
  -23.5037  -10.0609   21.8227 C   0  0  0  0  0  0  0  0  0  0  0  0
  -22.8253   -7.9144   20.1750 C   0  0  0  0  0  0  0  0  0  0  0  0
  -24.4097   -9.0186   21.6266 C   0  0  0  0  0  0  0  0  0  0  0  0
  -28.3230  -14.1624   21.2474 C   0  0  0  0  0  0  0  0  0  0  0  0
  -30.3252  -14.8147   20.6146 C   0  0  0  0  0  0  0  0  0  0  0  0
  -25.3533  -20.9280   14.3243 C   0  0  0  0  0  0  0  0  0  0  0  0
  -30.0368  -12.3325   20.6737 C   0  0  0  0  0  0  0  0  0  0  0  0
  -22.4155  -28.8370   21.4346 C   0  0  0  0  0  0  0  0  0  0  0  0
  -23.7321  -24.8402   13.4358 C   0  0  0  0  0  0  0  0  0  0  0  0
  -25.5047  -28.1382   22.1353 C   0  0  0  0  0  0  0  0  0  0  0  0
  -28.4467  -26.7128   21.1557 C   0  0  0  0  0  0  0  0  0  0  0  0
  -28.8772  -20.4361   19.1972 C   0  0  0  0  0  0  0  0  0  0  0  0
  -19.7850  -31.2950   25.0535 C   0  0  0  0  0  0  0  0  0  0  0  0
  -22.4953  -26.3647   20.9471 C   0  0  0  0  0  0  0  0  0  0  0  0
  -24.7852  -27.7957   19.7415 C   0  0  0  0  0  0  0  0  0  0  0  0
  -21.2369  -31.2750   24.5824 C   0  0  0  0  0  0  0  0  0  0  0  0
  -30.7340  -19.3680   22.0412 C   0  0  0  0  0  0  0  0  0  0  0  0
  -21.3081  -31.4243   23.0660 C   0  0  0  0  0  0  0  0  0  0  0  0
  -30.4458  -17.8670   22.1195 C   0  0  0  0  0  0  0  0  0  0  0  0
  -29.5087  -20.1577   21.5844 C   0  0  0  0  0  0  0  0  0  0  0  0
  -28.6087  -18.1858   20.4135 C   0  0  0  0  0  0  0  0  0  0  0  0
  -20.5985  -30.2608   22.3631 C   0  0  1  0  0  0  0  0  0  0  0  0
  -23.1595  -27.5484   21.6437 C   0  0  1  0  0  0  0  0  0  0  0  0
  -29.8321  -17.3418   20.8069 C   0  0  2  0  0  0  0  0  0  0  0  0
  -30.6293  -20.9494   16.6579 C   0  0  0  0  0  0  0  0  0  0  0  0
  -25.7580  -19.7519   16.9576 C   0  0  0  0  0  0  0  0  0  0  0  0
  -30.8129  -25.8970   21.3372 C   0  0  0  0  0  0  0  0  0  0  0  0
  -24.3746  -23.5427   11.3588 C   0  0  0  0  0  0  0  0  0  0  0  0
  -21.9758  -23.7588   12.0092 C   0  0  0  0  0  0  0  0  0  0  0  0
  -26.1728  -31.0504   21.5168 C   0  0  0  0  0  0  0  0  0  0  0  0
  -28.5844  -30.3936   21.3716 C   0  0  0  0  0  0  0  0  0  0  0  0
  -27.3443  -30.1136   23.5179 C   0  0  0  0  0  0  0  0  0  0  0  0
  -27.5816  -24.0784   22.1904 C   0  0  0  0  0  0  0  0  0  0  0  0
  -22.8459  -25.1079   14.6424 C   0  0  0  0  0  0  0  0  0  1  0  0
  -23.5270  -22.3569   13.4418 C   0  0  0  0  0  0  0  0  0  0  0  0
  -26.8468  -28.5591   21.5871 C   0  0  1  0  0  0  0  0  0  0  0  0
  -29.3945  -25.7665   21.8701 C   0  0  2  0  0  0  0  0  0  0  0  0
  -23.4105  -23.6123   12.5536 C   0  0  0  0  0  0  0  0  0  0  0  0
  -27.2176  -30.0165   21.9819 C   0  0  0  0  0  0  0  0  0  0  0  0
  -28.2671  -15.4964   21.2834 N   0  0  0  0  0  0  0  0  0  0  0  0
  -29.4996  -15.8639   20.8935 N   0  0  0  0  0  0  0  0  0  0  0  0
  -24.5345  -27.7711   21.1920 N   0  0  0  0  0  0  0  0  0  0  0  0
  -28.9843  -19.6061   20.3331 N   0  0  0  0  0  0  0  0  0  0  0  0
  -31.5986  -15.0057   20.2089 N   0  0  0  0  0  0  0  0  0  0  0  0
  -29.1431  -11.2878   20.9460 N   0  0  0  0  0  0  0  0  0  0  0  0
  -28.3964  -19.7934   18.0568 N   0  0  0  0  0  0  0  0  0  0  0  0
  -24.8282  -22.1800   14.0279 N   0  0  0  0  0  0  0  0  0  0  0  0
  -21.4328  -29.0783   22.3756 N   0  0  0  0  0  0  0  0  0  0  0  0
  -27.8049  -27.5556   22.0383 N   0  0  0  0  0  0  0  0  0  0  0  0
  -28.9521  -24.3551   21.6882 N   0  3  0  0  0  0  0  0  0  0  0  0
  -24.7759  -19.8629   14.1223 O   0  0  0  0  0  0  0  0  0  0  0  0
  -31.2070  -12.0608   20.3125 O   0  0  0  0  0  0  0  0  0  0  0  0
  -22.7120  -29.5595   20.4903 O   0  0  0  0  0  0  0  0  0  0  0  0
  -24.6523  -25.6117   13.1534 O   0  0  0  0  0  0  0  0  0  0  0  0
  -25.3260  -28.1284   23.3558 O   0  0  0  0  0  0  0  0  0  0  0  0
  -28.2938  -26.7076   19.9362 O   0  0  0  0  0  0  0  0  0  0  0  0
  -29.2148  -21.6223   19.2260 O   0  0  0  0  0  0  0  0  0  0  0  0
  -23.8387  -11.1267   22.6409 O   0  0  0  0  0  0  0  0  0  0  0  0
  -23.2911  -26.2710   15.3391 O   0  0  0  0  0  0  0  0  0  1  0  0
  -22.4988   -6.8831   19.3850 F   0  0  0  0  0  0  0  0  0  0  0  0
  -25.6071   -9.0422   22.2280 F   0  0  0  0  0  0  0  0  0  0  0  0
  1  2  1  0  0  0  0
  1  6  2  0  0  0  0
  2  7  2  0  0  0  0
  3 10  2  0  0  0  0
  3 17  1  0  0  0  0
  4 11  1  0  0  0  0
  4 17  2  0  0  0  0
  5  9  2  0  0  0  0
  5 18  1  0  0  0  0
  6 20  1  0  0  0  0
  7 22  1  0  0  0  0
  8 12  2  0  0  0  0
  8 21  1  0  0  0  0
  9 24  1  0  0  0  0
 10 27  1  0  0  0  0
 11 27  2  0  0  0  0
 12 28  1  0  0  0  0
 13 14  2  0  0  0  0
 13 29  1  0  0  0  0
 14 30  1  0  0  0  0
 15 23  1  0  0  0  0
 15 28  2  0  0  0  0
 16 30  2  0  0  0  0
 16 31  1  0  0  0  0
 17 32  1  0  0  0  0
 18 25  2  0  0  0  0
 18 34  1  0  0  0  0
 19 32  1  0  0  0  0
 19 33  2  0  0  0  0
 19 35  1  0  0  0  0
 20 22  2  0  0  0  0
 20 41  1  0  0  0  0
 21 23  2  0  0  0  0
 21 42  1  0  0  0  0
 22 50  1  0  0  0  0
 23 43  1  0  0  0  0
 24 26  2  0  0  0  0
 24 53  1  0  0  0  0
 25 26  1  0  0  0  0
 25 54  1  0  0  0  0
 26 74  1  0  0  0  0
 27 86  1  0  0  0  0
 28 87  1  0  0  0  0
 29 31  2  0  0  0  0
 29 86  1  0  0  0  0
 30 88  1  0  0  0  0
 31 89  1  0  0  0  0
 32 68  2  0  0  0  0
 33 69  1  0  0  0  0
 33 72  1  0  0  0  0
 34 75  1  0  0  0  0
 34 79  2  0  0  0  0
 35 73  1  0  0  0  0
 35 80  2  0  0  0  0
 36 51  1  0  0  0  0
 36 76  1  0  0  0  0
 36 81  2  0  0  0  0
 37 62  1  0  0  0  0
 37 66  1  0  0  0  0
 37 82  2  0  0  0  0
 38 64  1  0  0  0  0
 38 70  1  0  0  0  0
 38 83  2  0  0  0  0
 39 65  1  0  0  0  0
 39 77  1  0  0  0  0
 39 84  2  0  0  0  0
 40 71  1  0  0  0  0
 40 74  1  0  0  0  0
 40 85  2  0  0  0  0
 41 44  1  0  0  0  0
 42 51  1  0  0  0  0
 43 70  1  0  0  0  0
 44 46  1  0  0  0  0
 45 47  1  0  0  0  0
 45 48  1  0  0  0  0
 46 50  1  0  0  0  0
 47 52  1  0  0  0  0
 48 71  1  0  0  0  0
 49 52  1  0  0  0  0
 49 71  1  0  0  0  0
 50 76  1  0  0  0  0
 51 70  1  0  0  0  0
 52 69  1  0  0  0  0
 55 65  1  0  0  0  0
 56 66  1  0  0  0  0
 57 66  1  0  0  0  0
 58 67  1  0  0  0  0
 59 67  1  0  0  0  0
 60 67  1  0  0  0  0
 61 78  1  0  0  0  0
 62 87  1  0  0  0  0
 63 66  1  0  0  0  0
 63 75  1  0  0  0  0
 64 67  1  0  0  0  0
 64 77  1  0  0  0  0
 65 78  1  0  0  0  0
 68 69  1  0  0  0  0
M  CHG  1  78   1
M  ISO  4  40 100  62 101  74 100  87 101
M  END
> <Batch ID>
0048

> <Smiles>
CNC(C)C(=O)NC(C(=O)N1Cc2cc([101O:1][101CH2:1]C(=O)C(C)(C)CNC(=O)c3ccc(C)c([100NH:0][100C:0](=O)N4CCCC(n5nc(-c6ccc(Oc7ccc(F)cc7F)cc6)c(C(N)=O)c5N)C4)c3C)ccc2CC1C(=O)NC1CCCc2ccccc21)C(C)(C)C

> <Shape>
0.256

> <Color>
0.094

> <Negative vol penalty>
0.000

$$$$

  -OEChem-04042322293D

 85 94  0     1  0  0  0  0  0999 V2000
  -16.7989  -28.1439   23.1076 C   0  0  0  0  0  0  0  0  0  0  0  0
  -17.8609  -27.2558   23.2450 C   0  0  0  0  0  0  0  0  0  0  0  0
  -29.5904  -17.6049   18.6033 C   0  0  0  0  0  0  0  0  0  0  0  0
  -30.7990  -18.2590   20.5903 C   0  0  0  0  0  0  0  0  0  0  0  0
  -16.9860  -29.3550   22.4425 C   0  0  0  0  0  0  0  0  0  0  0  0
  -19.1105  -27.5779   22.7165 C   0  0  0  0  0  0  0  0  0  0  0  0
  -26.1046  -26.6571   23.9618 C   0  0  0  0  0  0  0  0  0  0  0  0
  -36.5957  -26.6877   21.0412 C   0  0  0  0  0  0  0  0  0  0  0  0
  -35.6583  -25.9585   21.7727 C   0  0  0  0  0  0  0  0  0  0  0  0
  -30.0441  -16.2951   18.7584 C   0  0  0  0  0  0  0  0  0  0  0  0
  -31.2528  -16.9492   20.7455 C   0  0  0  0  0  0  0  0  0  0  0  0
  -27.2635  -26.2177   23.3235 C   0  0  0  0  0  0  0  0  0  0  0  0
  -29.2794  -13.6022   20.6549 C   0  0  0  0  0  0  0  0  0  0  0  0
  -28.3521  -12.5721   20.4980 C   0  0  0  0  0  0  0  0  0  0  0  0
  -27.4899  -28.3729   22.2639 C   0  0  0  0  0  0  0  0  0  0  0  0
  -35.2029  -26.5064   19.0755 C   0  0  0  0  0  0  0  0  0  0  0  0
  -29.6620  -11.6699   18.6794 C   0  0  0  0  0  0  0  0  0  0  0  0
  -29.9679  -18.5869   19.5192 C   0  0  0  0  0  0  0  0  0  0  0  0
  -28.3232  -20.5013   19.8904 C   0  0  0  0  0  0  0  0  0  0  0  0
  -18.2410  -29.6963   21.9140 C   0  0  0  0  0  0  0  0  0  0  0  0
  -25.6227  -27.9564   23.7471 C   0  0  0  0  0  0  0  0  0  0  0  0
  -19.3142  -28.7940   22.0425 C   0  0  0  0  0  0  0  0  0  0  0  0
  -26.3260  -28.8273   22.9027 C   0  0  0  0  0  0  0  0  0  0  0  0
  -36.3680  -26.9618   19.6926 C   0  0  0  0  0  0  0  0  0  0  0  0
  -34.4932  -25.5031   21.1555 C   0  0  0  0  0  0  0  0  0  0  0  0
  -34.2655  -25.7771   19.8069 C   0  0  0  0  0  0  0  0  0  0  0  0
  -30.8753  -15.9672   19.8296 C   0  0  0  0  0  0  0  0  0  0  0  0
  -27.9548  -27.0747   22.4721 C   0  0  0  0  0  0  0  0  0  0  0  0
  -30.3979  -13.6662   19.8239 C   0  0  0  0  0  0  0  0  0  0  0  0
  -28.5434  -11.6059   19.5103 C   0  0  0  0  0  0  0  0  0  0  0  0
  -30.5892  -12.7001   18.8362 C   0  0  0  0  0  0  0  0  0  0  0  0
  -29.5000  -19.9402   19.3591 C   0  0  0  0  0  0  0  0  0  0  0  0
  -28.3366  -21.8037   19.4546 C   0  0  0  0  0  0  0  0  0  0  0  0
  -31.0236  -25.1964   21.9941 C   0  0  0  0  0  0  0  0  0  0  0  0
  -27.3088  -19.8990   20.7052 C   0  0  0  0  0  0  0  0  0  0  0  0
  -22.9552  -29.1876   22.5337 C   0  0  0  0  0  0  0  0  0  0  0  0
  -24.2625  -31.9882   23.5184 C   0  0  0  0  0  0  0  0  0  0  0  0
  -27.0727  -33.7480   24.3263 C   0  0  0  0  0  0  0  0  0  0  0  0
  -32.7250  -25.5198   17.8303 C   0  0  0  0  0  0  0  0  0  0  0  0
  -18.3829  -30.9959   21.1620 C   0  0  0  0  0  0  0  0  0  0  0  0
  -24.3859  -28.4240   24.4640 C   0  0  0  0  0  0  0  0  0  0  0  0
  -25.8617  -30.2384   22.6544 C   0  0  0  0  0  0  0  0  0  0  0  0
  -19.8332  -31.4264   20.9582 C   0  0  0  0  0  0  0  0  0  0  0  0
  -29.9312  -24.5321   15.8563 C   0  0  0  0  0  0  0  0  0  0  0  0
  -20.6755  -30.2515   20.4715 C   0  0  0  0  0  0  0  0  0  0  0  0
  -29.3928  -23.2971   16.5823 C   0  0  0  0  0  0  0  0  0  0  0  0
  -31.1208  -27.3915   22.9198 C   0  0  0  0  0  0  0  0  0  0  0  0
  -31.4568  -24.5972   15.9028 C   0  0  0  0  0  0  0  0  0  0  0  0
  -32.4547  -26.7013   23.1268 C   0  0  0  0  0  0  0  0  0  0  0  0
  -31.5035  -23.2607   17.9718 C   0  0  0  0  0  0  0  0  0  0  0  0
  -20.6910  -29.1184   21.5045 C   0  0  1  0  0  0  0  0  0  0  0  0
  -30.1529  -26.2403   22.6649 C   0  0  1  0  0  0  0  0  0  1  0  0
  -23.7017  -29.5984   23.7713 C   0  0  1  0  0  0  0  0  0  0  0  0
  -29.9684  -23.1859   18.0078 C   0  0  2  0  0  0  0  0  0  0  0  0
  -37.3708  -27.7418   18.9113 C   0  0  0  0  0  0  0  0  0  0  0  0
  -27.8279  -36.0269   25.0569 C   0  0  0  0  0  0  0  0  0  0  0  0
  -23.8665  -33.0276   20.6771 C   0  0  0  0  0  0  0  0  0  0  0  0
  -25.4590  -34.8848   21.2091 C   0  0  0  0  0  0  0  0  0  0  0  0
  -23.3207  -34.6764   22.4767 C   0  0  0  0  0  0  0  0  0  0  0  0
  -28.1989  -32.6926   26.8516 C   0  0  0  0  0  0  0  0  0  0  0  0
  -33.5024  -24.7198   21.9672 C   0  0  0  0  0  0  0  0  0  0  0  0
  -25.1795  -33.0158   22.9001 C   0  0  1  0  0  0  0  0  0  0  0  0
  -27.3963  -34.6410   25.5105 C   0  0  2  0  0  0  0  0  0  0  0  0
  -24.4644  -33.8740   21.8187 C   0  0  0  0  0  0  0  0  0  0  0  0
  -30.2092  -20.8146   18.6405 N   0  0  0  0  0  0  0  0  0  0  0  0
  -29.4760  -21.9383   18.7171 N   0  0  0  0  0  0  0  0  0  0  0  0
  -32.3423  -25.5109   22.3160 N   0  0  0  0  0  0  0  0  0  0  0  0
  -24.6436  -30.6467   23.3735 N   0  0  0  0  0  0  0  0  0  0  0  0
  -31.9297  -24.4900   17.2847 N   0  0  0  0  0  0  0  0  0  0  0  0
  -27.4848  -22.8355   19.6339 N   0  0  0  0  0  0  0  0  0  0  0  0
  -27.4510  -18.5510   21.0616 N   0  0  0  0  0  0  0  0  0  0  0  0
  -33.0878  -25.3238   19.1624 N   0  0  0  0  0  0  0  0  0  0  0  0
  -21.5967  -29.4346   22.5881 N   0  0  0  0  0  0  0  0  0  0  0  0
  -25.7319  -33.7887   24.0073 N   0  0  0  0  0  0  0  0  0  0  0  0
  -28.4973  -34.0477   26.3211 N   0  3  0  0  0  0  0  0  0  0  0  0
  -30.6103  -24.2634   21.3225 O   0  0  0  0  0  0  0  0  0  0  0  0
  -26.2977  -20.5329   21.0918 O   0  0  0  0  0  0  0  0  0  0  0  0
  -23.5667  -28.6850   21.5982 O   0  0  0  0  0  0  0  0  0  0  0  0
  -23.2493  -32.3624   24.1142 O   0  0  0  0  0  0  0  0  0  0  0  0
  -27.9249  -33.0839   23.7404 O   0  0  0  0  0  0  0  0  0  0  0  0
  -33.0368  -26.5163   17.1732 O   0  0  0  0  0  0  0  0  0  0  0  0
  -31.3180  -14.6891   19.9814 O   0  0  0  0  0  0  0  0  0  0  0  0
  -29.0859  -26.6481   21.8473 O   0  0  0  0  0  0  0  0  0  1  0  0
  -27.6536  -10.6159   19.3608 F   0  0  0  0  0  0  0  0  0  0  0  0
  -31.6625  -12.7557   18.0357 F   0  0  0  0  0  0  0  0  0  0  0  0
  1  2  1  0  0  0  0
  1  5  2  0  0  0  0
  2  6  2  0  0  0  0
  3 10  2  0  0  0  0
  3 18  1  0  0  0  0
  4 11  1  0  0  0  0
  4 18  2  0  0  0  0
  5 20  1  0  0  0  0
  6 22  1  0  0  0  0
  7 12  2  0  0  0  0
  7 21  1  0  0  0  0
  8  9  2  0  0  0  0
  8 24  1  0  0  0  0
  9 25  1  0  0  0  0
 10 27  1  0  0  0  0
 11 27  2  0  0  0  0
 12 28  1  0  0  0  0
 13 14  2  0  0  0  0
 13 29  1  0  0  0  0
 14 30  1  0  0  0  0
 15 23  1  0  0  0  0
 15 28  2  0  0  0  0
 16 24  2  0  0  0  0
 16 26  1  0  0  0  0
 17 30  2  0  0  0  0
 17 31  1  0  0  0  0
 18 32  1  0  0  0  0
 19 32  1  0  0  0  0
 19 33  2  0  0  0  0
 19 35  1  0  0  0  0
 20 22  2  0  0  0  0
 20 40  1  0  0  0  0
 21 23  2  0  0  0  0
 21 41  1  0  0  0  0
 22 51  1  0  0  0  0
 23 42  1  0  0  0  0
 24 55  1  0  0  0  0
 25 26  2  0  0  0  0
 25 61  1  0  0  0  0
 26 72  1  0  0  0  0
 27 82  1  0  0  0  0
 28 83  1  0  0  0  0
 29 31  2  0  0  0  0
 29 82  1  0  0  0  0
 30 84  1  0  0  0  0
 31 85  1  0  0  0  0
 32 65  2  0  0  0  0
 33 66  1  0  0  0  0
 33 70  1  0  0  0  0
 34 52  1  0  0  0  0
 34 67  1  0  0  0  0
 34 76  2  0  0  0  0
 35 71  1  0  0  0  0
 35 77  2  0  0  0  0
 36 53  1  0  0  0  0
 36 73  1  0  0  0  0
 36 78  2  0  0  0  0
 37 62  1  0  0  0  0
 37 68  1  0  0  0  0
 37 79  2  0  0  0  0
 38 63  1  0  0  0  0
 38 74  1  0  0  0  0
 38 80  2  0  0  0  0
 39 69  1  0  0  0  0
 39 72  1  0  0  0  0
 39 81  2  0  0  0  0
 40 43  1  0  0  0  0
 41 53  1  0  0  0  0
 42 68  1  0  0  0  0
 43 45  1  0  0  0  0
 44 46  1  0  0  0  0
 44 48  1  0  0  0  0
 45 51  1  0  0  0  0
 46 54  1  0  0  0  0
 47 49  1  0  0  0  0
 47 52  1  0  0  0  0
 48 69  1  0  0  0  0
 49 67  1  0  0  0  0
 50 54  1  0  0  0  0
 50 69  1  0  0  0  0
 51 73  1  0  0  0  0
 52 83  1  0  0  0  0
 53 68  1  0  0  0  0
 54 66  1  0  0  0  0
 56 63  1  0  0  0  0
 57 64  1  0  0  0  0
 58 64  1  0  0  0  0
 59 64  1  0  0  0  0
 60 75  1  0  0  0  0
 61 67  1  0  0  0  0
 62 64  1  0  0  0  0
 62 74  1  0  0  0  0
 63 75  1  0  0  0  0
 65 66  1  0  0  0  0
M  CHG  1  75   1
M  ISO  4  39 100  52 101  72 100  83 101
M  END
> <Batch ID>
0048

> <Smiles>
CNC(C)C(=O)NC(C(=O)N1Cc2cc([101O:1][101CH:1]3CCN(Cc4ccc(C)cc4[100NH:0][100C:0](=O)N4CCCC(n5nc(-c6ccc(Oc7ccc(F)cc7F)cc6)c(C(N)=O)c5N)C4)C3=O)ccc2CC1C(=O)NC1CCCc2ccccc21)C(C)(C)C

> <Shape>
0.252

> <Color>
0.092

> <Negative vol penalty>
0.000

$$$$

  -OEChem-04042322293D

 85 93  0     1  0  0  0  0  0999 V2000
  -34.5596  -17.9427   25.9117 C   0  0  0  0  0  0  0  0  0  0  0  0
  -33.5832  -18.8966   25.6432 C   0  0  0  0  0  0  0  0  0  0  0  0
  -28.8464  -26.1322   19.6433 C   0  0  0  0  0  0  0  0  0  0  0  0
  -26.7656  -25.0912   18.9926 C   0  0  0  0  0  0  0  0  0  0  0  0
  -34.7352  -16.8637   25.0463 C   0  0  0  0  0  0  0  0  0  0  0  0
  -32.7824  -18.7725   24.5084 C   0  0  0  0  0  0  0  0  0  0  0  0
  -26.8953  -20.3703   23.9644 C   0  0  0  0  0  0  0  0  0  0  0  0
  -18.0866  -30.2502   24.0721 C   0  0  0  0  0  0  0  0  0  0  0  0
  -29.5108  -24.9198   19.4585 C   0  0  0  0  0  0  0  0  0  0  0  0
  -27.4300  -23.8787   18.8078 C   0  0  0  0  0  0  0  0  0  0  0  0
  -26.2754  -21.5009   23.4341 C   0  0  0  0  0  0  0  0  0  0  0  0
  -29.3964  -22.4505   16.4596 C   0  0  0  0  0  0  0  0  0  0  0  0
  -29.1071  -21.7242   15.3044 C   0  0  0  0  0  0  0  0  0  0  0  0
  -17.2767  -29.6357   25.0270 C   0  0  0  0  0  0  0  0  0  0  0  0
  -25.9659  -20.3421   21.3412 C   0  0  0  0  0  0  0  0  0  0  0  0
  -17.8979  -27.4682   24.1590 C   0  0  0  0  0  0  0  0  0  0  0  0
  -28.3522  -19.8712   16.6586 C   0  0  0  0  0  0  0  0  0  0  0  0
  -27.4738  -26.2179   19.4104 C   0  0  0  0  0  0  0  0  0  0  0  0
  -26.5800  -28.4811   18.6441 C   0  0  0  0  0  0  0  0  0  0  0  0
  -33.9296  -16.7212   23.9055 C   0  0  0  0  0  0  0  0  0  0  0  0
  -27.0652  -19.2189   23.1822 C   0  0  0  0  0  0  0  0  0  0  0  0
  -32.9482  -17.6913   23.6262 C   0  0  0  0  0  0  0  0  0  0  0  0
  -26.5860  -19.1973   21.8647 C   0  0  0  0  0  0  0  0  0  0  0  0
  -18.8022  -29.4738   23.1605 C   0  0  0  0  0  0  0  0  0  0  0  0
  -18.7078  -28.0828   23.2040 C   0  0  0  0  0  0  0  0  0  0  0  0
  -28.8027  -23.7931   19.0407 C   0  0  0  0  0  0  0  0  0  0  0  0
  -25.8131  -21.4879   22.1214 C   0  0  0  0  0  0  0  0  0  0  0  0
  -29.1637  -21.8872   17.7143 C   0  0  0  0  0  0  0  0  0  0  0  0
  -28.5850  -20.4346   15.4039 C   0  0  0  0  0  0  0  0  0  0  0  0
  -28.6416  -20.5976   17.8138 C   0  0  0  0  0  0  0  0  0  0  0  0
  -17.1823  -28.2447   25.0705 C   0  0  0  0  0  0  0  0  0  0  0  0
  -26.7868  -27.4699   19.6016 C   0  0  0  0  0  0  0  0  0  0  0  0
  -25.8819  -29.4537   19.3172 C   0  0  0  0  0  0  0  0  0  0  0  0
  -26.9830  -28.5361   17.2693 C   0  0  0  0  0  0  0  0  0  0  0  0
  -29.5719  -17.5718   22.1298 C   0  0  0  0  0  0  0  0  0  0  0  0
  -27.2898  -15.5217   21.0755 C   0  0  0  0  0  0  0  0  0  0  0  0
  -24.0508  -15.0363   20.1163 C   0  0  0  0  0  0  0  0  0  0  0  0
  -21.8064  -30.0218   23.3893 C   0  0  0  0  0  0  0  0  0  0  0  0
  -34.1882  -15.5634   22.9743 C   0  0  0  0  0  0  0  0  0  0  0  0
  -27.7120  -17.9984   23.7776 C   0  0  0  0  0  0  0  0  0  0  0  0
  -26.7257  -17.9793   20.9898 C   0  0  0  0  0  0  0  0  0  0  0  0
  -33.0475  -15.3040   21.9935 C   0  0  0  0  0  0  0  0  0  0  0  0
  -25.2473  -30.6232   24.0787 C   0  0  0  0  0  0  0  0  0  0  0  0
  -32.5823  -16.6105   21.3583 C   0  0  0  0  0  0  0  0  0  0  0  0
  -25.9758  -29.9654   22.9055 C   0  0  0  0  0  0  0  0  0  0  0  0
  -24.0138  -29.8254   24.4960 C   0  0  0  0  0  0  0  0  0  0  0  0
  -23.7934  -28.8784   22.2314 C   0  0  0  0  0  0  0  0  0  0  0  0
  -32.0432  -17.5782   22.4186 C   0  0  1  0  0  0  0  0  0  0  0  0
  -28.2926  -17.0571   22.7267 C   0  0  1  0  0  0  0  0  0  0  0  0
  -25.0127  -29.6763   21.7384 C   0  0  2  0  0  0  0  0  0  0  0  0
  -22.4915  -13.2609   19.2714 C   0  0  0  0  0  0  0  0  0  0  0  0
  -28.5665  -15.7193   18.3113 C   0  0  0  0  0  0  0  0  0  0  0  0
  -26.4751  -14.7328   17.3515 C   0  0  0  0  0  0  0  0  0  0  0  0
  -27.8467  -13.4154   18.9657 C   0  0  0  0  0  0  0  0  0  0  0  0
  -22.2791  -15.3083   22.4713 C   0  0  0  0  0  0  0  0  0  0  0  0
  -19.6623  -30.1538   22.1465 C   0  0  0  0  0  0  0  0  0  0  0  0
  -19.4668  -27.2273   22.2330 C   0  0  0  0  0  0  0  0  0  0  0  0
  -22.5416  -25.0163   22.6787 C   0  0  0  0  0  0  0  0  0  0  0  0
  -23.3592  -24.1113   21.7602 C   0  0  0  0  0  0  0  0  0  0  0  0
  -21.3846  -25.6566   21.9263 C   0  0  0  0  0  0  0  0  0  0  0  0
  -24.4955  -23.4295   22.5090 C   0  0  0  0  0  0  0  0  0  1  0  0
  -26.4884  -15.3758   19.8045 C   0  0  1  0  0  0  0  0  0  0  0  0
  -23.0351  -13.9750   20.4991 C   0  0  2  0  0  0  0  0  0  0  0  0
  -27.3431  -14.8346   18.6238 C   0  0  0  0  0  0  0  0  0  0  0  0
  -26.2625  -27.7723   20.7923 N   0  0  0  0  0  0  0  0  0  0  0  0
  -25.7196  -28.9845   20.5875 N   0  0  0  0  0  0  0  0  0  0  0  0
  -27.3708  -16.8131   21.6154 N   0  0  0  0  0  0  0  0  0  0  0  0
  -23.1411  -29.5866   23.3439 N   0  0  0  0  0  0  0  0  0  0  0  0
  -25.3973  -30.6561   18.9405 N   0  0  0  0  0  0  0  0  0  0  0  0
  -27.6930  -27.4512   16.7372 N   0  0  0  0  0  0  0  0  0  0  0  0
  -30.7072  -17.1939   22.8210 N   0  0  0  0  0  0  0  0  0  0  0  0
  -25.3383  -14.5434   20.1404 N   0  0  0  0  0  0  0  0  0  0  0  0
  -21.0499  -29.7614   22.2532 N   0  0  0  0  0  0  0  0  0  0  0  0
  -21.8915  -14.5918   21.2289 N   0  3  0  0  0  0  0  0  0  0  0  0
  -20.6484  -26.5589   22.8441 N   0  3  0  0  0  0  0  0  0  0  0  0
  -26.7354  -29.5254   16.5388 O   0  0  0  0  0  0  0  0  0  0  0  0
  -29.5319  -18.2595   21.1164 O   0  0  0  0  0  0  0  0  0  0  0  0
  -27.8183  -14.5253   21.5749 O   0  0  0  0  0  0  0  0  0  0  0  0
  -23.7334  -16.1865   19.8215 O   0  0  0  0  0  0  0  0  0  0  0  0
  -21.3260  -30.6044   24.3674 O   0  0  0  0  0  0  0  0  0  0  0  0
  -29.4507  -22.6099   18.8601 O   0  0  0  0  0  0  0  0  0  0  0  0
  -25.2083  -22.5903   21.6011 O   0  0  0  0  0  0  0  0  0  1  0  0
  -28.3057  -19.7378   14.2946 F   0  0  0  0  0  0  0  0  0  0  0  0
  -28.4147  -20.0515   19.0164 F   0  0  0  0  0  0  0  0  0  0  0  0
  -16.1817  -27.4871   26.2475 Cl  0  0  0  0  0  0  0  0  0  0  0  0
  1  2  1  0  0  0  0
  1  5  2  0  0  0  0
  2  6  2  0  0  0  0
  3  9  2  0  0  0  0
  3 18  1  0  0  0  0
  4 10  1  0  0  0  0
  4 18  2  0  0  0  0
  5 20  1  0  0  0  0
  6 22  1  0  0  0  0
  7 11  2  0  0  0  0
  7 21  1  0  0  0  0
  8 14  2  0  0  0  0
  8 24  1  0  0  0  0
  9 26  1  0  0  0  0
 10 26  2  0  0  0  0
 11 27  1  0  0  0  0
 12 13  2  0  0  0  0
 12 28  1  0  0  0  0
 13 29  1  0  0  0  0
 14 31  1  0  0  0  0
 15 23  1  0  0  0  0
 15 27  2  0  0  0  0
 16 25  1  0  0  0  0
 16 31  2  0  0  0  0
 17 29  2  0  0  0  0
 17 30  1  0  0  0  0
 18 32  1  0  0  0  0
 19 32  1  0  0  0  0
 19 33  2  0  0  0  0
 19 34  1  0  0  0  0
 20 22  2  0  0  0  0
 20 39  1  0  0  0  0
 21 23  2  0  0  0  0
 21 40  1  0  0  0  0
 22 48  1  0  0  0  0
 23 41  1  0  0  0  0
 24 25  2  0  0  0  0
 24 56  1  0  0  0  0
 25 57  1  0  0  0  0
 26 81  1  0  0  0  0
 27 82  1  0  0  0  0
 28 30  2  0  0  0  0
 28 81  1  0  0  0  0
 29 83  1  0  0  0  0
 30 84  1  0  0  0  0
 31 85  1  0  0  0  0
 32 65  2  0  0  0  0
 33 66  1  0  0  0  0
 33 69  1  0  0  0  0
 34 70  1  0  0  0  0
 34 76  2  0  0  0  0
 35 49  1  0  0  0  0
 35 71  1  0  0  0  0
 35 77  2  0  0  0  0
 36 62  1  0  0  0  0
 36 67  1  0  0  0  0
 36 78  2  0  0  0  0
 37 63  1  0  0  0  0
 37 72  1  0  0  0  0
 37 79  2  0  0  0  0
 38 68  1  0  0  0  0
 38 73  1  0  0  0  0
 38 80  2  0  0  0  0
 39 42  1  0  0  0  0
 40 49  1  0  0  0  0
 41 67  1  0  0  0  0
 42 44  1  0  0  0  0
 43 45  1  0  0  0  0
 43 46  1  0  0  0  0
 44 48  1  0  0  0  0
 45 50  1  0  0  0  0
 46 68  1  0  0  0  0
 47 50  1  0  0  0  0
 47 68  1  0  0  0  0
 48 71  1  0  0  0  0
 49 67  1  0  0  0  0
 50 66  1  0  0  0  0
 51 63  1  0  0  0  0
 52 64  1  0  0  0  0
 53 64  1  0  0  0  0
 54 64  1  0  0  0  0
 55 74  1  0  0  0  0
 56 73  1  0  0  0  0
 57 75  1  0  0  0  0
 58 59  1  0  0  0  0
 58 60  1  0  0  0  0
 59 61  1  0  0  0  0
 60 75  1  0  0  0  0
 61 82  1  0  0  0  0
 62 64  1  0  0  0  0
 62 72  1  0  0  0  0
 63 74  1  0  0  0  0
 65 66  1  0  0  0  0
M  CHG  2  74   1  75   1
M  ISO  4  38 100  61 101  73 100  82 101
M  END
> <Batch ID>
0048

> <Smiles>
CNC(C)C(=O)NC(C(=O)N1Cc2cc([101O:1][101CH2:1]CCCNCc3cc(Cl)ccc3C[100NH:0][100C:0](=O)N3CCCC(n4nc(-c5ccc(Oc6ccc(F)cc6F)cc5)c(C(N)=O)c4N)C3)ccc2CC1C(=O)NC1CCCc2ccccc21)C(C)(C)C

> <Shape>
0.212

> <Color>
0.067

> <Negative vol penalty>
0.000

$$$$

  -OEChem-04042322293D

 84 92  0     1  0  0  0  0  0999 V2000
  -23.1715  -18.7593   23.8205 C   0  0  0  0  0  0  0  0  0  0  0  0
  -24.4848  -18.8571   24.2688 C   0  0  0  0  0  0  0  0  0  0  0  0
  -23.0734   -9.8699   19.9416 C   0  0  0  0  0  0  0  0  0  0  0  0
  -23.8314   -9.8779   22.2356 C   0  0  0  0  0  0  0  0  0  0  0  0
  -22.3349  -19.8736   23.8687 C   0  0  0  0  0  0  0  0  0  0  0  0
  -24.9627  -20.0697   24.7645 C   0  0  0  0  0  0  0  0  0  0  0  0
  -27.6245  -19.5086   29.0359 C   0  0  0  0  0  0  0  0  0  0  0  0
  -22.3284   -8.7175   20.1917 C   0  0  0  0  0  0  0  0  0  0  0  0
  -23.0863   -8.7256   22.4858 C   0  0  0  0  0  0  0  0  0  0  0  0
  -28.9355  -19.0502   28.9136 C   0  0  0  0  0  0  0  0  0  0  0  0
  -19.3782   -7.9245   21.6411 C   0  0  0  0  0  0  0  0  0  0  0  0
  -18.0717   -7.8790   21.1548 C   0  0  0  0  0  0  0  0  0  0  0  0
  -29.7415  -21.3120   29.1452 C   0  0  0  0  0  0  0  0  0  0  0  0
  -29.8804  -17.4567   23.1397 C   0  0  0  0  0  0  0  0  0  0  0  0
  -32.0640  -16.6054   22.5526 C   0  0  0  0  0  0  0  0  0  0  0  0
  -18.6309   -5.9345   19.8344 C   0  0  0  0  0  0  0  0  0  0  0  0
  -23.8250  -10.4501   20.9635 C   0  0  0  0  0  0  0  0  0  0  0  0
  -31.8540  -18.3572   24.2031 C   0  0  0  0  0  0  0  0  0  0  0  0
  -24.1690  -12.9748   20.8419 C   0  0  0  0  0  0  0  0  0  0  0  0
  -22.7998  -21.0979   24.3742 C   0  0  0  0  0  0  0  0  0  0  0  0
  -27.3612  -20.8758   29.2031 C   0  0  0  0  0  0  0  0  0  0  0  0
  -24.1319  -21.2018   24.8182 C   0  0  0  0  0  0  0  0  0  0  0  0
  -28.4264  -21.7849   29.2720 C   0  0  0  0  0  0  0  0  0  0  0  0
  -30.4683  -18.3407   24.0443 C   0  0  0  0  0  0  0  0  0  0  0  0
  -30.6783  -16.5889   22.3938 C   0  0  0  0  0  0  0  0  0  0  0  0
  -22.3348   -8.1454   21.4638 C   0  0  0  0  0  0  0  0  0  0  0  0
  -29.9941  -19.9523   28.9654 C   0  0  0  0  0  0  0  0  0  0  0  0
  -20.3112   -6.9750   21.2240 C   0  0  0  0  0  0  0  0  0  0  0  0
  -17.6981   -6.8840   20.2515 C   0  0  0  0  0  0  0  0  0  0  0  0
  -32.6519  -17.4896   23.4573 C   0  0  0  0  0  0  0  0  0  0  0  0
  -19.9375   -5.9800   20.3207 C   0  0  0  0  0  0  0  0  0  0  0  0
  -24.5953  -11.6401   20.7055 C   0  0  0  0  0  0  0  0  0  0  0  0
  -25.2621  -13.7231   20.4790 C   0  0  0  0  0  0  0  0  0  0  0  0
  -32.5022  -19.2895   25.1611 C   0  0  0  0  0  0  0  0  0  0  0  0
  -22.8986  -13.4920   21.2594 C   0  0  0  0  0  0  0  0  0  0  0  0
  -25.7957  -23.0796   27.5309 C   0  0  0  0  0  0  0  0  0  0  0  0
  -26.4216  -24.9295   30.1210 C   0  0  0  0  0  0  0  0  0  0  0  0
  -28.3867  -25.5297   32.8458 C   0  0  0  0  0  0  0  0  0  0  0  0
  -30.7290  -14.7643   20.6576 C   0  0  0  0  0  0  0  0  0  0  0  0
  -21.8725  -22.2873   24.3625 C   0  0  0  0  0  0  0  0  0  0  0  0
  -25.9428  -21.3510   29.3603 C   0  0  0  0  0  0  0  0  0  0  0  0
  -28.1982  -23.2604   29.4704 C   0  0  0  0  0  0  0  0  0  0  0  0
  -22.3443  -23.4362   25.2499 C   0  0  0  0  0  0  0  0  0  0  0  0
  -29.6146  -12.3497   18.2902 C   0  0  0  0  0  0  0  0  0  0  0  0
  -23.8266  -23.7141   25.0205 C   0  0  0  0  0  0  0  0  0  0  0  0
  -28.1743  -12.0596   18.7187 C   0  0  0  0  0  0  0  0  0  0  0  0
  -30.5289  -12.5786   19.4924 C   0  0  0  0  0  0  0  0  0  0  0  0
  -28.6213  -13.3057   20.8715 C   0  0  0  0  0  0  0  0  0  0  0  0
  -24.6797  -22.4933   25.3858 C   0  0  1  0  0  0  0  0  0  0  0  0
  -25.7645  -22.8255   29.0115 C   0  0  1  0  0  0  0  0  0  0  0  0
  -27.6494  -13.1324   19.6930 C   0  0  2  0  0  0  0  0  0  0  0  0
  -29.5901  -19.2593   24.8300 C   0  0  0  0  0  0  0  0  0  0  0  0
  -28.6744  -27.1369   34.7515 C   0  0  0  0  0  0  0  0  0  0  0  0
  -27.6424  -26.9719   28.2110 C   0  0  0  0  0  0  0  0  0  0  0  0
  -28.7336  -28.0609   30.1838 C   0  0  0  0  0  0  0  0  0  0  0  0
  -26.2456  -27.9561   30.0371 C   0  0  0  0  0  0  0  0  0  0  0  0
  -27.9505  -23.4032   34.8574 C   0  0  0  0  0  0  0  0  0  0  0  0
  -33.2652  -19.6050   27.5008 C   0  0  0  0  0  0  0  0  0  0  0  0
  -32.2208  -20.4021   28.2617 C   0  0  0  0  0  0  0  0  0  1  0  0
  -27.5479  -25.8465   30.5327 C   0  0  1  0  0  0  0  0  0  0  0  0
  -28.0382  -25.8344   34.2916 C   0  0  2  0  0  0  0  0  0  0  0  0
  -27.5469  -27.1813   29.7355 C   0  0  0  0  0  0  0  0  0  0  0  0
  -25.8604  -11.5429   20.2884 N   0  0  0  0  0  0  0  0  0  0  0  0
  -26.2385  -12.8261   20.1595 N   0  0  0  0  0  0  0  0  0  0  0  0
  -26.7932  -23.6768   29.6126 N   0  0  0  0  0  0  0  0  0  0  0  0
  -29.9700  -13.6105   20.3686 N   0  0  0  0  0  0  0  0  0  0  0  0
  -25.4737  -15.0544   20.4052 N   0  0  0  0  0  0  0  0  0  0  0  0
  -21.8856  -12.5839   21.5965 N   0  0  0  0  0  0  0  0  0  0  0  0
  -30.0817  -15.6905   21.4748 N   0  0  0  0  0  0  0  0  0  0  0  0
  -32.6757  -18.8127   26.4544 N   0  0  0  0  0  0  0  0  0  0  0  0
  -24.8290  -22.3924   26.8217 N   0  0  0  0  0  0  0  0  0  0  0  0
  -27.4311  -26.0133   31.9774 N   0  0  0  0  0  0  0  0  0  0  0  0
  -28.5155  -24.7384   35.1815 N   0  3  0  0  0  0  0  0  0  0  0  0
  -32.8255  -20.4117   24.7808 O   0  0  0  0  0  0  0  0  0  0  0  0
  -22.6633  -14.7229   21.3156 O   0  0  0  0  0  0  0  0  0  0  0  0
  -26.6336  -23.8436   27.0665 O   0  0  0  0  0  0  0  0  0  0  0  0
  -25.2549  -25.3079   30.2524 O   0  0  0  0  0  0  0  0  0  0  0  0
  -29.4066  -24.9266   32.5194 O   0  0  0  0  0  0  0  0  0  0  0  0
  -31.8586  -14.9318   20.1908 O   0  0  0  0  0  0  0  0  0  0  0  0
  -21.6077   -7.0211   21.7084 O   0  0  0  0  0  0  0  0  0  0  0  0
  -31.2746  -19.5076   28.8456 O   0  0  0  0  0  0  0  0  0  1  0  0
  -16.4430   -6.8395   19.7857 F   0  0  0  0  0  0  0  0  0  0  0  0
  -33.9848  -17.4955   23.6011 F   0  0  0  0  0  0  0  0  0  0  0  0
  -20.8290   -5.0644   19.9173 F   0  0  0  0  0  0  0  0  0  0  0  0
  1  2  1  0  0  0  0
  1  5  2  0  0  0  0
  2  6  2  0  0  0  0
  3  8  2  0  0  0  0
  3 17  1  0  0  0  0
  4  9  1  0  0  0  0
  4 17  2  0  0  0  0
  5 20  1  0  0  0  0
  6 22  1  0  0  0  0
  7 10  2  0  0  0  0
  7 21  1  0  0  0  0
  8 26  1  0  0  0  0
  9 26  2  0  0  0  0
 10 27  1  0  0  0  0
 11 12  2  0  0  0  0
 11 28  1  0  0  0  0
 12 29  1  0  0  0  0
 13 23  1  0  0  0  0
 13 27  2  0  0  0  0
 14 24  2  0  0  0  0
 14 25  1  0  0  0  0
 15 25  2  0  0  0  0
 15 30  1  0  0  0  0
 16 29  2  0  0  0  0
 16 31  1  0  0  0  0
 17 32  1  0  0  0  0
 18 24  1  0  0  0  0
 18 30  2  0  0  0  0
 18 34  1  0  0  0  0
 19 32  1  0  0  0  0
 19 33  2  0  0  0  0
 19 35  1  0  0  0  0
 20 22  2  0  0  0  0
 20 40  1  0  0  0  0
 21 23  2  0  0  0  0
 21 41  1  0  0  0  0
 22 49  1  0  0  0  0
 23 42  1  0  0  0  0
 24 52  1  0  0  0  0
 25 69  1  0  0  0  0
 26 80  1  0  0  0  0
 27 81  1  0  0  0  0
 28 31  2  0  0  0  0
 28 80  1  0  0  0  0
 29 82  1  0  0  0  0
 30 83  1  0  0  0  0
 31 84  1  0  0  0  0
 32 63  2  0  0  0  0
 33 64  1  0  0  0  0
 33 67  1  0  0  0  0
 34 70  1  0  0  0  0
 34 74  2  0  0  0  0
 35 68  1  0  0  0  0
 35 75  2  0  0  0  0
 36 50  1  0  0  0  0
 36 71  1  0  0  0  0
 36 76  2  0  0  0  0
 37 60  1  0  0  0  0
 37 65  1  0  0  0  0
 37 77  2  0  0  0  0
 38 61  1  0  0  0  0
 38 72  1  0  0  0  0
 38 78  2  0  0  0  0
 39 66  1  0  0  0  0
 39 69  1  0  0  0  0
 39 79  2  0  0  0  0
 40 43  1  0  0  0  0
 41 50  1  0  0  0  0
 42 65  1  0  0  0  0
 43 45  1  0  0  0  0
 44 46  1  0  0  0  0
 44 47  1  0  0  0  0
 45 49  1  0  0  0  0
 46 51  1  0  0  0  0
 47 66  1  0  0  0  0
 48 51  1  0  0  0  0
 48 66  1  0  0  0  0
 49 71  1  0  0  0  0
 50 65  1  0  0  0  0
 51 64  1  0  0  0  0
 53 61  1  0  0  0  0
 54 62  1  0  0  0  0
 55 62  1  0  0  0  0
 56 62  1  0  0  0  0
 57 73  1  0  0  0  0
 58 59  1  0  0  0  0
 58 70  1  0  0  0  0
 59 81  1  0  0  0  0
 60 62  1  0  0  0  0
 60 72  1  0  0  0  0
 61 73  1  0  0  0  0
 63 64  1  0  0  0  0
M  CHG  1  73   1
M  ISO  4  39 100  59 101  69 100  81 101
M  END
> <Batch ID>
0048

> <Smiles>
CNC(C)C(=O)NC(C(=O)N1Cc2cc([101O:1][101CH2:1]CNC(=O)c3c(C)cc([100NH:0][100C:0](=O)N4CCCC(n5nc(-c6ccc(Oc7ccc(F)cc7F)cc6)c(C(N)=O)c5N)C4)cc3F)ccc2CC1C(=O)NC1CCCc2ccccc21)C(C)(C)C

> <Shape>
0.146

> <Color>
0.191

> <Negative vol penalty>
0.000

$$$$

  -OEChem-04042322293D

 88 97  0     1  0  0  0  0  0999 V2000
  -28.7178  -11.1206   19.0296 C   0  0  0  0  0  0  0  0  0  0  0  0
  -28.0545  -12.0657   19.8055 C   0  0  0  0  0  0  0  0  0  0  0  0
  -25.5554  -31.6117   22.9310 C   0  0  0  0  0  0  0  0  0  0  0  0
  -25.5458  -29.7435   24.4629 C   0  0  0  0  0  0  0  0  0  0  0  0
  -29.9519  -11.4303   18.4596 C   0  0  0  0  0  0  0  0  0  0  0  0
  -28.6254  -13.3209   20.0127 C   0  0  0  0  0  0  0  0  0  0  0  0
  -25.2850  -17.0882   19.4700 C   0  0  0  0  0  0  0  0  0  0  0  0
  -26.4602  -32.2820   23.7540 C   0  0  0  0  0  0  0  0  0  0  0  0
  -26.4507  -30.4138   25.2860 C   0  0  0  0  0  0  0  0  0  0  0  0
  -24.4089  -17.3199   20.5295 C   0  0  0  0  0  0  0  0  0  0  0  0
  -29.0499  -34.3343   25.2695 C   0  0  0  0  0  0  0  0  0  0  0  0
  -30.1378  -34.9612   24.6620 C   0  0  0  0  0  0  0  0  0  0  0  0
  -25.7953  -19.1507   21.2678 C   0  0  0  0  0  0  0  0  0  0  0  0
  -20.9946  -23.7051   18.2868 C   0  0  0  0  0  0  0  0  0  0  0  0
  -30.8698  -32.8350   23.7786 C   0  0  0  0  0  0  0  0  0  0  0  0
  -22.4668  -21.9753   17.4635 C   0  0  0  0  0  0  0  0  0  0  0  0
  -25.0981  -30.3424   23.2854 C   0  0  0  0  0  0  0  0  0  0  0  0
  -24.3525  -29.2727   21.0928 C   0  0  0  0  0  0  0  0  0  0  0  0
  -30.5338  -12.6933   18.6519 C   0  0  0  0  0  0  0  0  0  0  0  0
  -26.4306  -17.8805   19.3075 C   0  0  0  0  0  0  0  0  0  0  0  0
  -29.8691  -13.6474   19.4458 C   0  0  0  0  0  0  0  0  0  0  0  0
  -26.6830  -18.9287   20.2039 C   0  0  0  0  0  0  0  0  0  0  0  0
  -20.4939  -22.8231   19.2444 C   0  0  0  0  0  0  0  0  0  0  0  0
  -20.9797  -21.5173   19.3116 C   0  0  0  0  0  0  0  0  0  0  0  0
  -26.9079  -31.6831   24.9315 C   0  0  0  0  0  0  0  0  0  0  0  0
  -24.6654  -18.3494   21.4302 C   0  0  0  0  0  0  0  0  0  0  0  0
  -28.8720  -32.9576   25.1317 C   0  0  0  0  0  0  0  0  0  0  0  0
  -31.0477  -34.2116   23.9165 C   0  0  0  0  0  0  0  0  0  0  0  0
  -21.9810  -23.2811   17.3962 C   0  0  0  0  0  0  0  0  0  0  0  0
  -29.7819  -32.2080   24.3862 C   0  0  0  0  0  0  0  0  0  0  0  0
  -21.9661  -21.0934   18.4212 C   0  0  0  0  0  0  0  0  0  0  0  0
  -24.1629  -29.6497   22.4359 C   0  0  0  0  0  0  0  0  0  0  0  0
  -23.1803  -28.6483   20.7428 C   0  0  0  0  0  0  0  0  0  0  0  0
  -20.0559  -20.3184   22.7283 C   0  0  0  0  0  0  0  0  0  0  0  0
  -19.2462  -21.1657   23.3812 C   0  0  0  0  0  0  0  0  0  0  0  0
  -25.4868  -29.4692   20.2382 C   0  0  0  0  0  0  0  0  0  0  0  0
  -29.5607  -17.3273   19.3193 C   0  0  0  0  0  0  0  0  0  0  0  0
  -29.7211  -20.4470   18.4451 C   0  0  0  0  0  0  0  0  0  0  0  0
  -28.0792  -23.5262   19.3614 C   0  0  0  0  0  0  0  0  0  0  0  0
  -19.0412  -25.0796   21.8732 C   0  0  0  0  0  0  0  0  0  0  0  0
  -31.8916  -12.9655   18.0546 C   0  0  0  0  0  0  0  0  0  0  0  0
  -27.3516  -17.6348   18.1440 C   0  0  0  0  0  0  0  0  0  0  0  0
  -27.8882  -19.8208   20.0618 C   0  0  0  0  0  0  0  0  0  0  0  0
  -20.1016  -18.8422   23.0152 C   0  0  0  0  0  0  0  0  0  0  0  0
  -32.2527  -14.4482   18.0133 C   0  0  0  0  0  0  0  0  0  0  0  0
  -21.5392  -18.3905   23.2426 C   0  0  0  0  0  0  0  0  0  0  0  0
  -18.7412  -28.3882   23.1539 C   0  0  0  0  0  0  0  0  0  0  0  0
  -31.9416  -15.1109   19.3515 C   0  0  0  0  0  0  0  0  0  0  0  0
  -20.1416  -28.9776   22.9762 C   0  0  0  0  0  0  0  0  0  0  0  0
  -18.7949  -26.9081   23.5262 C   0  0  0  0  0  0  0  0  0  0  0  0
  -20.9893  -26.6570   22.4329 C   0  0  0  0  0  0  0  0  0  0  0  0
  -22.3601  -20.4130   21.9776 C   0  0  0  0  0  0  0  0  0  0  0  0
  -30.4445  -15.0285   19.6731 C   0  0  1  0  0  0  0  0  0  0  0  0
  -28.7599  -18.1753   18.3722 C   0  0  1  0  0  0  0  0  0  0  0  0
  -20.9856  -28.1337   22.0021 C   0  0  2  0  0  0  0  0  0  0  0  0
  -22.4635  -18.8983   22.1360 C   0  0  1  0  0  0  0  0  0  1  0  0
  -27.6920  -25.6245   18.0405 C   0  0  0  0  0  0  0  0  0  0  0  0
  -32.3049  -21.4037   19.7560 C   0  0  0  0  0  0  0  0  0  0  0  0
  -31.2819  -23.6807   19.9489 C   0  0  0  0  0  0  0  0  0  0  0  0
  -31.6487  -22.6666   17.6995 C   0  0  0  0  0  0  0  0  0  0  0  0
  -25.1590  -23.4212   19.8308 C   0  0  0  0  0  0  0  0  0  0  0  0
  -19.4379  -23.3042   20.1852 C   0  0  0  0  0  0  0  0  0  0  0  0
  -20.4303  -20.5815   20.3477 C   0  0  0  0  0  0  0  0  0  0  0  0
  -29.8128  -21.7607   19.1831 C   0  0  1  0  0  0  0  0  0  0  0  0
  -27.0898  -24.3135   18.5213 C   0  0  2  0  0  0  0  0  0  0  0  0
  -31.2492  -22.3553   19.1584 C   0  0  0  0  0  0  0  0  0  0  0  0
  -22.9646  -29.2946   22.9069 N   0  0  0  0  0  0  0  0  0  0  0  0
  -22.3905  -28.6880   21.8540 N   0  0  0  0  0  0  0  0  0  0  0  0
  -28.7622  -19.5366   18.9117 N   0  0  0  0  0  0  0  0  0  0  0  0
  -19.6090  -26.1640   22.5622 N   0  0  0  0  0  0  0  0  0  0  0  0
  -22.7583  -28.0747   19.5959 N   0  0  0  0  0  0  0  0  0  0  0  0
  -26.4803  -28.4811   20.2086 N   0  0  0  0  0  0  0  0  0  0  0  0
  -29.7089  -16.0153   18.9118 N   0  0  0  0  0  0  0  0  0  0  0  0
  -28.7965  -22.6290   18.5987 N   0  0  0  0  0  0  0  0  0  0  0  0
  -19.8796  -24.4332   20.9733 N   0  0  0  0  0  0  0  0  0  0  0  0
  -20.9426  -20.8689   21.7320 N   0  3  1  0  0  0  0  0  0  0  0  0
  -25.8663  -24.6213   19.3147 N   0  3  0  0  0  0  0  0  0  0  0  0
  -25.6235  -30.4985   19.5343 O   0  0  0  0  0  0  0  0  0  0  0  0
  -30.0121  -17.8267   20.3433 O   0  0  0  0  0  0  0  0  0  0  0  0
  -30.4676  -20.2391   17.4854 O   0  0  0  0  0  0  0  0  0  0  0  0
  -28.2059  -23.6933   20.5724 O   0  0  0  0  0  0  0  0  0  0  0  0
  -17.8719  -24.7180   22.0433 O   0  0  0  0  0  0  0  0  0  0  0  0
  -27.7910  -32.3368   25.7348 O   0  0  0  0  0  0  0  0  0  0  0  0
  -23.8122  -18.5772   22.4656 O   0  0  0  0  0  0  0  0  0  1  0  0
  -32.0915  -34.8140   23.3319 F   0  0  0  0  0  0  0  0  0  0  0  0
  -22.4618  -24.1281   16.4765 F   0  0  0  0  0  0  0  0  0  0  0  0
  -29.6156  -30.8854   24.2492 F   0  0  0  0  0  0  0  0  0  0  0  0
  -22.5940  -19.4859   18.4710 Cl  0  0  0  0  0  0  0  0  0  0  0  0
  1  2  1  0  0  0  0
  1  5  2  0  0  0  0
  2  6  2  0  0  0  0
  3  8  2  0  0  0  0
  3 17  1  0  0  0  0
  4  9  1  0  0  0  0
  4 17  2  0  0  0  0
  5 19  1  0  0  0  0
  6 21  1  0  0  0  0
  7 10  2  0  0  0  0
  7 20  1  0  0  0  0
  8 25  1  0  0  0  0
  9 25  2  0  0  0  0
 10 26  1  0  0  0  0
 11 12  2  0  0  0  0
 11 27  1  0  0  0  0
 12 28  1  0  0  0  0
 13 22  1  0  0  0  0
 13 26  2  0  0  0  0
 14 23  1  0  0  0  0
 14 29  2  0  0  0  0
 15 28  2  0  0  0  0
 15 30  1  0  0  0  0
 16 29  1  0  0  0  0
 16 31  2  0  0  0  0
 17 32  1  0  0  0  0
 18 32  1  0  0  0  0
 18 33  2  0  0  0  0
 18 36  1  0  0  0  0
 19 21  2  0  0  0  0
 19 41  1  0  0  0  0
 20 22  2  0  0  0  0
 20 42  1  0  0  0  0
 21 53  1  0  0  0  0
 22 43  1  0  0  0  0
 23 24  2  0  0  0  0
 23 62  1  0  0  0  0
 24 31  1  0  0  0  0
 24 63  1  0  0  0  0
 25 83  1  0  0  0  0
 26 84  1  0  0  0  0
 27 30  2  0  0  0  0
 27 83  1  0  0  0  0
 28 85  1  0  0  0  0
 29 86  1  0  0  0  0
 30 87  1  0  0  0  0
 31 88  1  0  0  0  0
 32 67  2  0  0  0  0
 33 68  1  0  0  0  0
 33 71  1  0  0  0  0
 34 35  2  0  0  0  0
 34 44  1  0  0  0  0
 34 76  1  0  0  0  0
 36 72  1  0  0  0  0
 36 78  2  0  0  0  0
 37 54  1  0  0  0  0
 37 73  1  0  0  0  0
 37 79  2  0  0  0  0
 38 64  1  0  0  0  0
 38 69  1  0  0  0  0
 38 80  2  0  0  0  0
 39 65  1  0  0  0  0
 39 74  1  0  0  0  0
 39 81  2  0  0  0  0
 40 70  1  0  0  0  0
 40 75  1  0  0  0  0
 40 82  2  0  0  0  0
 41 45  1  0  0  0  0
 42 54  1  0  0  0  0
 43 69  1  0  0  0  0
 44 46  1  0  0  0  0
 45 48  1  0  0  0  0
 46 56  1  0  0  0  0
 47 49  1  0  0  0  0
 47 50  1  0  0  0  0
 48 53  1  0  0  0  0
 49 55  1  0  0  0  0
 50 70  1  0  0  0  0
 51 55  1  0  0  0  0
 51 70  1  0  0  0  0
 52 56  1  0  0  0  0
 52 76  1  0  0  0  0
 53 73  1  0  0  0  0
 54 69  1  0  0  0  0
 55 68  1  0  0  0  0
 56 84  1  0  0  0  0
 57 65  1  0  0  0  0
 58 66  1  0  0  0  0
 59 66  1  0  0  0  0
 60 66  1  0  0  0  0
 61 77  1  0  0  0  0
 62 75  1  0  0  0  0
 63 76  1  0  0  0  0
 64 66  1  0  0  0  0
 64 74  1  0  0  0  0
 65 77  1  0  0  0  0
 67 68  1  0  0  0  0
M  CHG  2  76   1  77   1
M  ISO  4  40 100  56 101  75 100  84 101
M  END
> <Batch ID>
0048

> <Smiles>
C=C1CC[101CH:1]([101O:1]c2ccc3c(c2)CN(C(=O)C(NC(=O)C(C)NC)C(C)(C)C)C(C(=O)NC2CCCc4ccccc42)C3)CN1Cc1c(Cl)cc(F)cc1C[100NH:0][100C:0](=O)N1CCCC(n2nc(-c3ccc(Oc4ccc(F)cc4F)cc3)c(C(N)=O)c2N)C1

> <Shape>
0.246

> <Color>
0.052

> <Negative vol penalty>
0.000

$$$$

  -OEChem-04042322293D

 89 98  0     1  0  0  0  0  0999 V2000
  -30.0717  -35.1737   18.6099 C   0  0  0  0  0  0  0  0  0  0  0  0
  -30.0348  -33.8308   18.9715 C   0  0  0  0  0  0  0  0  0  0  0  0
  -26.6917  -13.7668   19.8497 C   0  0  0  0  0  0  0  0  0  0  0  0
  -25.0756  -15.3142   20.7614 C   0  0  0  0  0  0  0  0  0  0  0  0
  -29.2204  -36.0856   19.2326 C   0  0  0  0  0  0  0  0  0  0  0  0
  -29.1474  -33.3992   19.9567 C   0  0  0  0  0  0  0  0  0  0  0  0
  -26.7438  -29.1312   18.6716 C   0  0  0  0  0  0  0  0  0  0  0  0
  -25.8649  -12.6985   20.1972 C   0  0  0  0  0  0  0  0  0  0  0  0
  -24.2488  -14.2459   21.1089 C   0  0  0  0  0  0  0  0  0  0  0  0
  -27.4535  -27.9378   18.7984 C   0  0  0  0  0  0  0  0  0  0  0  0
  -25.0953  -10.9494   22.9851 C   0  0  0  0  0  0  0  0  0  0  0  0
  -25.6877   -9.8447   23.5969 C   0  0  0  0  0  0  0  0  0  0  0  0
  -26.3341  -27.5013   20.8902 C   0  0  0  0  0  0  0  0  0  0  0  0
  -25.0447  -19.7480   21.5502 C   0  0  0  0  0  0  0  0  0  0  0  0
  -26.6451  -21.5188   20.1060 C   0  0  0  0  0  0  0  0  0  0  0  0
  -24.9362   -8.4371   21.7828 C   0  0  0  0  0  0  0  0  0  0  0  0
  -26.2971  -15.0747   20.1318 C   0  0  0  0  0  0  0  0  0  0  0  0
  -28.4658  -16.4151   20.2175 C   0  0  0  0  0  0  0  0  0  0  0  0
  -28.3154  -35.6634   20.2191 C   0  0  0  0  0  0  0  0  0  0  0  0
  -25.8303  -29.5245   19.6602 C   0  0  0  0  0  0  0  0  0  0  0  0
  -28.2842  -34.3066   20.5940 C   0  0  0  0  0  0  0  0  0  0  0  0
  -25.6122  -28.6988   20.7723 C   0  0  0  0  0  0  0  0  0  0  0  0
  -26.3863  -19.9144   21.8937 C   0  0  0  0  0  0  0  0  0  0  0  0
  -24.5033  -20.4670   20.4845 C   0  0  0  0  0  0  0  0  0  0  0  0
  -27.1865  -20.7998   21.1716 C   0  0  0  0  0  0  0  0  0  0  0  0
  -25.3034  -21.3524   19.7625 C   0  0  0  0  0  0  0  0  0  0  0  0
  -24.6435  -12.9380   20.8267 C   0  0  0  0  0  0  0  0  0  0  0  0
  -27.2508  -27.1241   19.9092 C   0  0  0  0  0  0  0  0  0  0  0  0
  -24.4233  -10.7980   21.7722 C   0  0  0  0  0  0  0  0  0  0  0  0
  -25.6082   -8.5886   22.9957 C   0  0  0  0  0  0  0  0  0  0  0  0
  -24.3437   -9.5419   21.1711 C   0  0  0  0  0  0  0  0  0  0  0  0
  -27.1510  -16.1786   19.7736 C   0  0  0  0  0  0  0  0  0  0  0  0
  -28.8343  -17.5817   19.5932 C   0  0  0  0  0  0  0  0  0  0  0  0
  -29.2768  -23.2879   20.8722 C   0  0  0  0  0  0  0  0  0  0  0  0
  -29.2812  -15.6488   21.1139 C   0  0  0  0  0  0  0  0  0  0  0  0
  -25.6015  -31.9945   21.6478 C   0  0  0  0  0  0  0  0  0  0  0  0
  -22.7353  -30.6542   22.3625 C   0  0  0  0  0  0  0  0  0  0  0  0
  -20.7858  -27.8542   22.4429 C   0  0  0  0  0  0  0  0  0  0  0  0
  -25.2543  -22.0077   17.3419 C   0  0  0  0  0  0  0  0  0  0  0  0
  -27.4480  -36.6940   20.8974 C   0  0  0  0  0  0  0  0  0  0  0  0
  -25.0530  -30.8016   19.4955 C   0  0  0  0  0  0  0  0  0  0  0  0
  -24.6279  -29.0659   21.8516 C   0  0  0  0  0  0  0  0  0  0  0  0
  -26.2748  -36.0919   21.6663 C   0  0  0  0  0  0  0  0  0  0  0  0
  -29.4335  -23.9661   23.7665 C   0  0  0  0  0  0  0  0  0  0  0  0
  -28.0029  -20.1806   15.6686 C   0  0  0  0  0  0  0  0  0  0  0  0
  -26.7416  -34.9147   22.5167 C   0  0  0  0  0  0  0  0  0  0  0  0
  -30.2407  -24.6814   22.6936 C   0  0  0  0  0  0  0  0  0  0  0  0
  -28.1472  -18.9249   16.5264 C   0  0  0  0  0  0  0  0  0  0  0  0
  -28.6208  -22.7871   23.2382 C   0  0  0  0  0  0  0  0  0  0  0  0
  -26.5769  -20.7224   15.6929 C   0  0  0  0  0  0  0  0  0  0  0  0
  -26.2068  -19.7260   17.9316 C   0  0  0  0  0  0  0  0  0  0  0  0
  -27.3180  -33.7957   21.6408 C   0  0  1  0  0  0  0  0  0  0  0  0
  -29.5227  -24.7106   21.3486 C   0  0  2  0  0  0  0  0  0  0  0  0
  -24.5260  -31.3549   20.8160 C   0  0  1  0  0  0  0  0  0  0  0  0
  -27.6437  -19.1838   17.9559 C   0  0  1  0  0  0  0  0  0  0  0  0
  -26.9441  -19.1336   23.0381 C   0  0  0  0  0  0  0  0  0  0  0  0
  -23.0630  -20.2690   20.1388 C   0  0  0  0  0  0  0  0  0  0  0  0
  -18.5010  -27.0633   23.1148 C   0  0  0  0  0  0  0  0  0  0  0  0
  -23.5790  -30.7150   25.2941 C   0  0  0  0  0  0  0  0  0  0  0  0
  -21.7363  -29.0930   25.7859 C   0  0  0  0  0  0  0  0  0  0  0  0
  -21.1968  -31.3540   24.8807 C   0  0  0  0  0  0  0  0  0  0  0  0
  -23.8429  -23.2000   18.9599 C   0  0  0  0  0  0  0  0  0  0  0  0
  -20.1278  -27.0374   19.6755 C   0  0  0  0  0  0  0  0  0  0  0  0
  -28.6331  -20.9952   21.5228 C   0  0  0  0  0  0  0  0  0  0  0  0
  -28.2258  -25.5125   21.3611 C   0  0  0  0  0  0  0  0  0  1  0  0
  -22.2532  -29.6308   23.3621 C   0  0  1  0  0  0  0  0  0  0  0  0
  -19.3604  -27.6057   21.9835 C   0  0  2  0  0  0  0  0  0  0  0  0
  -22.2114  -30.1919   24.8115 C   0  0  0  0  0  0  0  0  0  0  0  0
  -26.7136  -17.1194   18.9324 N   0  0  0  0  0  0  0  0  0  0  0  0
  -27.7596  -17.9585   18.8428 N   0  0  0  0  0  0  0  0  0  0  0  0
  -28.9275  -22.3778   21.8697 N   0  0  0  0  0  0  0  0  0  0  0  0
  -23.8968  -30.3275   21.6483 N   0  0  0  0  0  0  0  0  0  0  0  0
  -26.0897  -20.9070   17.0608 N   0  0  0  0  0  0  0  0  0  0  0  0
  -29.9696  -18.3117   19.6184 N   0  0  0  0  0  0  0  0  0  0  0  0
  -28.7473  -14.4764   21.6660 N   0  0  0  0  0  0  0  0  0  0  0  0
  -26.2515  -33.0398   21.0198 N   0  0  0  0  0  0  0  0  0  0  0  0
  -20.9660  -29.1532   22.8689 N   0  0  0  0  0  0  0  0  0  0  0  0
  -24.7623  -22.1052   18.6574 N   0  0  0  0  0  0  0  0  0  0  0  0
  -19.3410  -26.6212   20.8649 N   0  3  0  0  0  0  0  0  0  0  0  0
  -29.3739  -23.0135   19.6748 O   0  0  0  0  0  0  0  0  0  0  0  0
  -30.4428  -16.0022   21.4293 O   0  0  0  0  0  0  0  0  0  0  0  0
  -25.8240  -31.5721   22.7763 O   0  0  0  0  0  0  0  0  0  0  0  0
  -22.1006  -31.7016   22.2156 O   0  0  0  0  0  0  0  0  0  0  0  0
  -21.6517  -26.9822   22.4290 O   0  0  0  0  0  0  0  0  0  0  0  0
  -24.9234  -22.8181   16.4676 O   0  0  0  0  0  0  0  0  0  0  0  0
  -23.8363  -11.8959   21.1658 O   0  0  0  0  0  0  0  0  0  0  0  0
  -27.9427  -25.9591   20.0357 O   0  0  0  0  0  0  0  0  0  1  0  0
  -26.1785   -7.5281   23.5825 F   0  0  0  0  0  0  0  0  0  0  0  0
  -23.7004   -9.3904   20.0053 F   0  0  0  0  0  0  0  0  0  0  0  0
  1  2  1  0  0  0  0
  1  5  2  0  0  0  0
  2  6  2  0  0  0  0
  3  8  2  0  0  0  0
  3 17  1  0  0  0  0
  4  9  1  0  0  0  0
  4 17  2  0  0  0  0
  5 19  1  0  0  0  0
  6 21  1  0  0  0  0
  7 10  2  0  0  0  0
  7 20  1  0  0  0  0
  8 27  1  0  0  0  0
  9 27  2  0  0  0  0
 10 28  1  0  0  0  0
 11 12  2  0  0  0  0
 11 29  1  0  0  0  0
 12 30  1  0  0  0  0
 13 22  1  0  0  0  0
 13 28  2  0  0  0  0
 14 23  1  0  0  0  0
 14 24  2  0  0  0  0
 15 25  1  0  0  0  0
 15 26  2  0  0  0  0
 16 30  2  0  0  0  0
 16 31  1  0  0  0  0
 17 32  1  0  0  0  0
 18 32  1  0  0  0  0
 18 33  2  0  0  0  0
 18 35  1  0  0  0  0
 19 21  2  0  0  0  0
 19 40  1  0  0  0  0
 20 22  2  0  0  0  0
 20 41  1  0  0  0  0
 21 52  1  0  0  0  0
 22 42  1  0  0  0  0
 23 25  2  0  0  0  0
 23 56  1  0  0  0  0
 24 26  1  0  0  0  0
 24 57  1  0  0  0  0
 25 64  1  0  0  0  0
 26 78  1  0  0  0  0
 27 86  1  0  0  0  0
 28 87  1  0  0  0  0
 29 31  2  0  0  0  0
 29 86  1  0  0  0  0
 30 88  1  0  0  0  0
 31 89  1  0  0  0  0
 32 69  2  0  0  0  0
 33 70  1  0  0  0  0
 33 74  1  0  0  0  0
 34 53  1  0  0  0  0
 34 71  1  0  0  0  0
 34 80  2  0  0  0  0
 35 75  1  0  0  0  0
 35 81  2  0  0  0  0
 36 54  1  0  0  0  0
 36 76  1  0  0  0  0
 36 82  2  0  0  0  0
 37 66  1  0  0  0  0
 37 72  1  0  0  0  0
 37 83  2  0  0  0  0
 38 67  1  0  0  0  0
 38 77  1  0  0  0  0
 38 84  2  0  0  0  0
 39 73  1  0  0  0  0
 39 78  1  0  0  0  0
 39 85  2  0  0  0  0
 40 43  1  0  0  0  0
 41 54  1  0  0  0  0
 42 72  1  0  0  0  0
 43 46  1  0  0  0  0
 44 47  1  0  0  0  0
 44 49  1  0  0  0  0
 45 48  1  0  0  0  0
 45 50  1  0  0  0  0
 46 52  1  0  0  0  0
 47 53  1  0  0  0  0
 48 55  1  0  0  0  0
 49 71  1  0  0  0  0
 50 73  1  0  0  0  0
 51 55  1  0  0  0  0
 51 73  1  0  0  0  0
 52 76  1  0  0  0  0
 53 65  1  0  0  0  0
 54 72  1  0  0  0  0
 55 70  1  0  0  0  0
 58 67  1  0  0  0  0
 59 68  1  0  0  0  0
 60 68  1  0  0  0  0
 61 68  1  0  0  0  0
 62 78  1  0  0  0  0
 63 79  1  0  0  0  0
 64 71  1  0  0  0  0
 65 87  1  0  0  0  0
 66 68  1  0  0  0  0
 66 77  1  0  0  0  0
 67 79  1  0  0  0  0
 69 70  1  0  0  0  0
M  CHG  1  79   1
M  ISO  4  39 100  65 101  78 100  87 101
M  END
> <Batch ID>
0048

> <Smiles>
CNC(C)C(=O)NC(C(=O)N1Cc2cc([101O:1][101CH2:1]C3CCCN(Cc4cc([100N:0](C)[100C:0](=O)N5CCCC(n6nc(-c7ccc(Oc8ccc(F)cc8F)cc7)c(C(N)=O)c6N)C5)c(C)cc4C)C3=O)ccc2CC1C(=O)NC1CCCc2ccccc21)C(C)(C)C

> <Shape>
0.257

> <Color>
0.074

> <Negative vol penalty>
0.000

$$$$

  -OEChem-04042322293D

 93101  0     1  0  0  0  0  0999 V2000
  -31.5563  -26.1483   17.5784 C   0  0  0  0  0  0  0  0  0  0  0  0
  -30.1704  -26.0500   17.5073 C   0  0  0  0  0  0  0  0  0  0  0  0
  -27.6781  -12.2317   20.1169 C   0  0  0  0  0  0  0  0  0  0  0  0
  -28.9268  -14.2889   19.9036 C   0  0  0  0  0  0  0  0  0  0  0  0
  -32.1630  -26.5960   18.7512 C   0  0  0  0  0  0  0  0  0  0  0  0
  -29.3904  -26.3982   18.6095 C   0  0  0  0  0  0  0  0  0  0  0  0
  -23.8560  -29.0190   18.5223 C   0  0  0  0  0  0  0  0  0  0  0  0
  -28.6170  -11.5789   19.3182 C   0  0  0  0  0  0  0  0  0  0  0  0
  -29.8658  -13.6362   19.1049 C   0  0  0  0  0  0  0  0  0  0  0  0
  -22.5690  -28.4972   18.6455 C   0  0  0  0  0  0  0  0  0  0  0  0
  -30.8778   -9.2848   17.6327 C   0  0  0  0  0  0  0  0  0  0  0  0
  -31.3236   -8.0305   18.0494 C   0  0  0  0  0  0  0  0  0  0  0  0
  -22.7456  -21.7822   20.7205 C   0  0  0  0  0  0  0  0  0  0  0  0
  -22.5843  -29.0311   20.9980 C   0  0  0  0  0  0  0  0  0  0  0  0
  -25.1068  -21.6046   20.2407 C   0  0  0  0  0  0  0  0  0  0  0  0
  -32.1566   -9.0067   20.0964 C   0  0  0  0  0  0  0  0  0  0  0  0
  -27.8329  -13.5867   20.4096 C   0  0  0  0  0  0  0  0  0  0  0  0
  -22.9314  -23.0968   21.1482 C   0  0  0  0  0  0  0  0  0  0  0  0
  -26.8839  -14.3945   22.6354 C   0  0  0  0  0  0  0  0  0  0  0  0
  -31.3895  -26.9591   19.8650 C   0  0  0  0  0  0  0  0  0  0  0  0
  -24.5221  -29.5417   19.6400 C   0  0  0  0  0  0  0  0  0  0  0  0
  -29.9874  -26.8499   19.7987 C   0  0  0  0  0  0  0  0  0  0  0  0
  -23.8787  -29.5613   20.8857 C   0  0  0  0  0  0  0  0  0  0  0  0
  -25.2927  -22.9192   20.6684 C   0  0  0  0  0  0  0  0  0  0  0  0
  -24.2049  -23.6653   21.1222 C   0  0  0  0  0  0  0  0  0  0  0  0
  -23.8333  -21.0361   20.2667 C   0  0  0  0  0  0  0  0  0  0  0  0
  -29.7109  -12.2811   18.8122 C   0  0  0  0  0  0  0  0  0  0  0  0
  -21.9341  -28.5005   19.8841 C   0  0  0  0  0  0  0  0  0  0  0  0
  -31.0714  -10.4001   18.4478 C   0  0  0  0  0  0  0  0  0  0  0  0
  -31.9630   -7.8915   19.2812 C   0  0  0  0  0  0  0  0  0  0  0  0
  -31.7108  -10.2610   19.6797 C   0  0  0  0  0  0  0  0  0  0  0  0
  -26.8630  -14.2617   21.2341 C   0  0  0  0  0  0  0  0  0  0  0  0
  -25.7511  -15.1136   22.9290 C   0  0  0  0  0  0  0  0  0  0  0  0
  -21.7653  -23.8679   21.6236 C   0  0  0  0  0  0  0  0  0  0  0  0
  -27.8416  -13.9113   23.5866 C   0  0  0  0  0  0  0  0  0  0  0  0
  -27.1895  -28.8102   21.2065 C   0  0  0  0  0  0  0  0  0  0  0  0
  -26.5115  -31.5282   22.8422 C   0  0  0  0  0  0  0  0  0  0  0  0
  -24.1649  -33.7858   23.8639 C   0  0  0  0  0  0  0  0  0  0  0  0
  -28.3480  -21.6252   20.2825 C   0  0  0  0  0  0  0  0  0  0  0  0
  -22.4475  -18.9852   19.7981 C   0  0  0  0  0  0  0  0  0  0  0  0
  -32.0927  -27.3925   21.1269 C   0  0  0  0  0  0  0  0  0  0  0  0
  -25.8998  -30.1252   19.4851 C   0  0  0  0  0  0  0  0  0  0  0  0
  -24.5427  -30.1294   22.1124 C   0  0  0  0  0  0  0  0  0  0  0  0
  -31.1763  -28.0982   22.1232 C   0  0  0  0  0  0  0  0  0  0  0  0
  -21.3265  -15.9597   21.3037 C   0  0  0  0  0  0  0  0  0  0  0  0
  -29.8726  -27.3241   22.2903 C   0  0  0  0  0  0  0  0  0  0  0  0
  -22.6213  -15.1956   21.5898 C   0  0  0  0  0  0  0  0  0  0  0  0
  -21.4052  -16.7377   19.9914 C   0  0  0  0  0  0  0  0  0  0  0  0
  -23.8602  -16.8652   20.1529 C   0  0  0  0  0  0  0  0  0  0  0  0
  -29.1060  -27.2420   20.9647 C   0  0  1  0  0  0  0  0  0  0  0  0
  -26.6832  -30.1633   20.7935 C   0  0  1  0  0  0  0  0  0  0  0  0
  -23.8524  -16.1183   21.4966 C   0  0  2  0  0  0  0  0  0  0  0  0
  -24.4059  -25.0754   21.5801 C   0  0  0  0  0  0  0  0  0  0  0  0
  -23.9062  -35.8803   25.2216 C   0  0  0  0  0  0  0  0  0  0  0  0
  -29.3834  -21.9333   22.5502 C   0  0  0  0  0  0  0  0  0  0  0  0
  -26.7241  -29.8890   25.4069 C   0  0  0  0  0  0  0  0  0  0  0  0
  -25.5502  -31.7455   26.6083 C   0  0  0  0  0  0  0  0  0  0  0  0
  -27.7619  -32.1609   25.5319 C   0  0  0  0  0  0  0  0  0  0  0  0
  -27.6513  -23.0789   18.4178 C   0  0  0  0  0  0  0  0  0  0  0  0
  -23.1968  -35.3204   21.5258 C   0  0  0  0  0  0  0  0  0  0  0  0
  -27.3221  -19.0224   21.2458 C   0  0  0  0  0  0  0  0  0  0  0  0
  -26.6666  -23.5042   20.6321 C   0  0  0  0  0  0  0  0  0  0  0  0
  -19.3222  -26.0199   19.8245 C   0  0  0  0  0  0  0  0  0  0  0  0
  -19.8975  -25.3892   21.0817 C   0  0  0  0  0  0  0  0  0  0  0  0
  -20.3159  -26.9344   19.1194 C   0  0  0  0  0  0  0  0  0  1  0  0
  -25.7139  -31.8601   24.0803 C   0  0  1  0  0  0  0  0  0  0  0  0
  -24.1477  -35.3035   23.8354 C   0  0  2  0  0  0  0  0  0  0  0  0
  -28.2565  -21.2802   21.7636 C   0  0  2  0  0  0  0  0  0  0  0  0
  -26.4255  -31.4013   25.3843 C   0  0  0  0  0  0  0  0  0  0  0  0
  -25.8011  -14.8490   20.6762 N   0  0  0  0  0  0  0  0  0  0  0  0
  -25.1440  -15.3578   21.7324 N   0  0  0  0  0  0  0  0  0  0  0  0
  -25.8921  -30.6826   21.9110 N   0  0  0  0  0  0  0  0  0  0  0  0
  -22.5938  -17.5932   19.9765 N   0  0  0  0  0  0  0  0  0  0  0  0
  -25.2249  -15.5543   24.0915 N   0  0  0  0  0  0  0  0  0  0  0  0
  -21.4618  -23.8125   22.9204 N   0  0  0  0  0  0  0  0  0  0  0  0
  -28.9470  -13.1905   23.1145 N   0  0  0  0  0  0  0  0  0  0  0  0
  -23.6443  -19.7000   19.8344 N   0  0  0  0  0  0  0  0  0  0  0  0
  -28.4323  -28.4935   20.6921 N   0  0  0  0  0  0  0  0  0  0  0  0
  -25.4431  -33.2923   24.0195 N   0  0  0  0  0  0  0  0  0  0  0  0
  -27.5738  -22.7171   19.8377 N   0  0  0  0  0  0  0  0  0  0  0  0
  -21.0673  -24.5832   20.7318 N   0  3  0  0  0  0  0  0  0  0  0  0
  -23.0707  -35.7923   22.9288 N   0  3  0  0  0  0  0  0  0  0  0  0
  -28.3716  -19.8001   21.9485 N   0  3  0  0  0  0  0  0  0  0  0  0
  -27.7122  -14.0985   24.8202 O   0  0  0  0  0  0  0  0  0  0  0  0
  -26.5040  -28.1064   21.9389 O   0  0  0  0  0  0  0  0  0  0  0  0
  -27.6396  -32.0074   22.7031 O   0  0  0  0  0  0  0  0  0  0  0  0
  -23.1460  -33.1060   23.7622 O   0  0  0  0  0  0  0  0  0  0  0  0
  -29.0842  -20.9599   19.5461 O   0  0  0  0  0  0  0  0  0  0  0  0
  -21.3396  -19.5080   19.6530 O   0  0  0  0  0  0  0  0  0  0  0  0
  -30.6274  -11.6445   18.0331 O   0  0  0  0  0  0  0  0  0  0  0  0
  -20.6782  -27.9912   20.0073 O   0  0  0  0  0  0  0  0  0  1  0  0
  -32.3898   -6.6867   19.6819 F   0  0  0  0  0  0  0  0  0  0  0  0
  -31.8985  -11.3286   20.4676 F   0  0  0  0  0  0  0  0  0  0  0  0
  1  2  1  0  0  0  0
  1  5  2  0  0  0  0
  2  6  2  0  0  0  0
  3  8  2  0  0  0  0
  3 17  1  0  0  0  0
  4  9  1  0  0  0  0
  4 17  2  0  0  0  0
  5 20  1  0  0  0  0
  6 22  1  0  0  0  0
  7 10  2  0  0  0  0
  7 21  1  0  0  0  0
  8 27  1  0  0  0  0
  9 27  2  0  0  0  0
 10 28  1  0  0  0  0
 11 12  2  0  0  0  0
 11 29  1  0  0  0  0
 12 30  1  0  0  0  0
 13 18  1  0  0  0  0
 13 26  2  0  0  0  0
 14 23  1  0  0  0  0
 14 28  2  0  0  0  0
 15 24  2  0  0  0  0
 15 26  1  0  0  0  0
 16 30  2  0  0  0  0
 16 31  1  0  0  0  0
 17 32  1  0  0  0  0
 18 25  2  0  0  0  0
 18 34  1  0  0  0  0
 19 32  1  0  0  0  0
 19 33  2  0  0  0  0
 19 35  1  0  0  0  0
 20 22  2  0  0  0  0
 20 41  1  0  0  0  0
 21 23  2  0  0  0  0
 21 42  1  0  0  0  0
 22 50  1  0  0  0  0
 23 43  1  0  0  0  0
 24 25  1  0  0  0  0
 24 62  1  0  0  0  0
 25 53  1  0  0  0  0
 26 77  1  0  0  0  0
 27 90  1  0  0  0  0
 28 91  1  0  0  0  0
 29 31  2  0  0  0  0
 29 90  1  0  0  0  0
 30 92  1  0  0  0  0
 31 93  1  0  0  0  0
 32 70  2  0  0  0  0
 33 71  1  0  0  0  0
 33 74  1  0  0  0  0
 34 75  1  0  0  0  0
 34 81  2  0  0  0  0
 35 76  1  0  0  0  0
 35 84  2  0  0  0  0
 36 51  1  0  0  0  0
 36 78  1  0  0  0  0
 36 85  2  0  0  0  0
 37 66  1  0  0  0  0
 37 72  1  0  0  0  0
 37 86  2  0  0  0  0
 38 67  1  0  0  0  0
 38 79  1  0  0  0  0
 38 87  2  0  0  0  0
 39 68  1  0  0  0  0
 39 80  1  0  0  0  0
 39 88  2  0  0  0  0
 40 73  1  0  0  0  0
 40 77  1  0  0  0  0
 40 89  2  0  0  0  0
 41 44  1  0  0  0  0
 42 51  1  0  0  0  0
 43 72  1  0  0  0  0
 44 46  1  0  0  0  0
 45 47  1  0  0  0  0
 45 48  1  0  0  0  0
 46 50  1  0  0  0  0
 47 52  1  0  0  0  0
 48 73  1  0  0  0  0
 49 52  1  0  0  0  0
 49 73  1  0  0  0  0
 50 78  1  0  0  0  0
 51 72  1  0  0  0  0
 52 71  1  0  0  0  0
 54 67  1  0  0  0  0
 55 68  1  0  0  0  0
 56 69  1  0  0  0  0
 57 69  1  0  0  0  0
 58 69  1  0  0  0  0
 59 80  1  0  0  0  0
 60 82  1  0  0  0  0
 61 83  1  0  0  0  0
 62 80  1  0  0  0  0
 63 64  1  0  0  0  0
 63 65  1  0  0  0  0
 64 81  1  0  0  0  0
 65 91  1  0  0  0  0
 66 69  1  0  0  0  0
 66 79  1  0  0  0  0
 67 82  1  0  0  0  0
 68 83  1  0  0  0  0
 70 71  1  0  0  0  0
M  CHG  3  81   1  82   1  83   1
M  ISO  4  40 100  65 101  77 100  91 101
M  END
> <Batch ID>
0048

> <Smiles>
CNC(C)C(=O)NC(C(=O)N1Cc2cc([101O:1][101CH2:1]CCNC(=N)c3cc([100NH:0][100C:0](=O)N4CCCC(n5nc(-c6ccc(Oc7ccc(F)cc7F)cc6)c(C(N)=O)c5N)C4)cc(CN(C)C(=O)C(C)NC)c3C)ccc2CC1C(=O)NC1CCCc2ccccc21)C(C)(C)C

> <Shape>
0.269

> <Color>
0.088

> <Negative vol penalty>
0.000

$$$$

  -OEChem-04042322293D

 88 97  0     1  0  0  0  0  0999 V2000
  -29.4985  -35.2801   23.5241 C   0  0  0  0  0  0  0  0  0  0  0  0
  -29.4752  -33.9084   23.2931 C   0  0  0  0  0  0  0  0  0  0  0  0
  -22.5853  -11.8922   22.6120 C   0  0  0  0  0  0  0  0  0  0  0  0
  -22.2329  -13.9557   21.4059 C   0  0  0  0  0  0  0  0  0  0  0  0
  -28.3494  -35.9299   23.9727 C   0  0  0  0  0  0  0  0  0  0  0  0
  -28.3029  -33.1855   23.5117 C   0  0  0  0  0  0  0  0  0  0  0  0
  -27.3015  -29.9290   19.7651 C   0  0  0  0  0  0  0  0  0  0  0  0
  -21.3134  -12.0032   23.1737 C   0  0  0  0  0  0  0  0  0  0  0  0
  -20.9609  -14.0667   21.9676 C   0  0  0  0  0  0  0  0  0  0  0  0
  -28.0246  -28.7371   19.7472 C   0  0  0  0  0  0  0  0  0  0  0  0
  -17.8960  -12.7320   21.4725 C   0  0  0  0  0  0  0  0  0  0  0  0
  -16.8434  -13.0799   20.6259 C   0  0  0  0  0  0  0  0  0  0  0  0
  -26.1505  -27.5921   20.7453 C   0  0  0  0  0  0  0  0  0  0  0  0
  -28.4986  -19.8844   18.3389 C   0  0  0  0  0  0  0  0  0  0  0  0
  -27.2871  -21.0875   16.6296 C   0  0  0  0  0  0  0  0  0  0  0  0
  -26.7967  -18.7586   17.0454 C   0  0  0  0  0  0  0  0  0  0  0  0
  -16.4274  -15.0544   21.9545 C   0  0  0  0  0  0  0  0  0  0  0  0
  -23.0451  -12.8684   21.7281 C   0  0  0  0  0  0  0  0  0  0  0  0
  -24.8439  -11.7085   20.3401 C   0  0  0  0  0  0  0  0  0  0  0  0
  -27.1598  -35.2162   24.1877 C   0  0  0  0  0  0  0  0  0  0  0  0
  -25.9993  -29.9637   20.2842 C   0  0  0  0  0  0  0  0  0  0  0  0
  -27.1372  -33.8262   23.9649 C   0  0  0  0  0  0  0  0  0  0  0  0
  -25.4121  -28.7852   20.7663 C   0  0  0  0  0  0  0  0  0  0  0  0
  -28.2583  -21.0617   17.6305 C   0  0  0  0  0  0  0  0  0  0  0  0
  -27.7678  -18.7328   18.0463 C   0  0  0  0  0  0  0  0  0  0  0  0
  -20.5012  -13.0905   22.8515 C   0  0  0  0  0  0  0  0  0  0  0  0
  -27.4502  -27.5690   20.2400 C   0  0  0  0  0  0  0  0  0  0  0  0
  -18.2142  -13.5454   22.5602 C   0  0  0  0  0  0  0  0  0  0  0  0
  -16.1091  -14.2411   20.8669 C   0  0  0  0  0  0  0  0  0  0  0  0
  -17.4799  -14.7066   22.8011 C   0  0  0  0  0  0  0  0  0  0  0  0
  -26.5563  -19.9360   16.3370 C   0  0  0  0  0  0  0  0  0  0  0  0
  -24.3590  -12.7545   21.1479 C   0  0  0  0  0  0  0  0  0  0  0  0
  -26.1366  -12.0702   20.0493 C   0  0  0  0  0  0  0  0  0  0  0  0
  -29.6627  -23.8081   19.7388 C   0  0  0  0  0  0  0  0  0  0  0  0
  -30.8440  -21.6272   22.4467 C   0  0  0  0  0  0  0  0  0  0  0  0
  -30.3650  -23.3607   20.7907 C   0  0  0  0  0  0  0  0  0  0  0  0
  -30.1435  -22.0728   21.3978 C   0  0  0  0  0  0  0  0  0  0  0  0
  -24.1847  -10.5166   19.8925 C   0  0  0  0  0  0  0  0  0  0  0  0
  -24.5876  -31.4688   22.7019 C   0  0  0  0  0  0  0  0  0  0  0  0
  -21.9039  -30.1482   21.4466 C   0  0  0  0  0  0  0  0  0  0  0  0
  -20.9440  -26.9671   20.0408 C   0  0  0  0  0  0  0  0  0  0  0  0
  -28.9405  -17.3404   19.7877 C   0  0  0  0  0  0  0  0  0  0  0  0
  -25.9562  -35.9543   24.7182 C   0  0  0  0  0  0  0  0  0  0  0  0
  -25.2227  -31.2518   20.2718 C   0  0  0  0  0  0  0  0  0  0  0  0
  -24.0098  -28.7650   21.3155 C   0  0  0  0  0  0  0  0  0  0  0  0
  -29.8987  -25.1562   19.1078 C   0  0  0  0  0  0  0  0  0  0  0  0
  -24.6504  -35.1783   24.5668 C   0  0  0  0  0  0  0  0  0  0  0  0
  -29.8195  -14.5598   21.8305 C   0  0  0  0  0  0  0  0  0  0  0  0
  -24.8315  -33.7342   25.0237 C   0  0  0  0  0  0  0  0  0  0  0  0
  -28.5652  -13.6832   21.8088 C   0  0  0  0  0  0  0  0  0  0  0  0
  -27.4854  -25.0441   18.3574 C   0  0  0  0  0  0  0  0  0  0  0  0
  -29.4716  -16.0473   21.8422 C   0  0  0  0  0  0  0  0  0  0  0  0
  -27.3070  -15.6038   20.7528 C   0  0  0  0  0  0  0  0  0  0  0  0
  -27.3178  -23.7327   19.1236 C   0  0  0  0  0  0  0  0  0  0  0  0
  -25.8779  -33.0116   24.1667 C   0  0  1  0  0  0  0  0  0  0  0  0
  -24.0925  -31.2780   21.2961 C   0  0  1  0  0  0  0  0  0  0  0  0
  -27.6073  -14.0980   20.6748 C   0  0  2  0  0  0  0  0  0  0  0  0
  -28.5855  -25.9233   18.9518 C   0  0  1  0  0  0  0  0  0  1  0  0
  -19.1618  -26.3928   18.3700 C   0  0  0  0  0  0  0  0  0  0  0  0
  -20.1780  -29.6123   23.9051 C   0  0  0  0  0  0  0  0  0  0  0  0
  -19.1821  -27.6603   22.6944 C   0  0  0  0  0  0  0  0  0  0  0  0
  -18.8957  -29.9664   21.7874 C   0  0  0  0  0  0  0  0  0  0  0  0
  -22.8874  -25.6296   18.2539 C   0  0  0  0  0  0  0  0  0  0  0  0
  -29.0449  -22.3000   17.9447 C   0  0  0  0  0  0  0  0  0  0  0  0
  -21.1593  -28.8496   21.6421 C   0  0  1  0  0  0  0  0  0  0  0  0
  -20.6415  -26.6720   18.5827 C   0  0  2  0  0  0  0  0  0  0  0  0
  -19.8819  -29.0239   22.5112 C   0  0  0  0  0  0  0  0  0  0  0  0
  -25.2696  -13.7091   21.3571 N   0  0  0  0  0  0  0  0  0  0  0  0
  -26.3397  -13.2642   20.6765 N   0  0  0  0  0  0  0  0  0  0  0  0
  -23.2935  -30.0510   21.2877 N   0  0  0  0  0  0  0  0  0  0  0  0
  -28.5646  -16.3673   20.7378 N   0  0  0  0  0  0  0  0  0  0  0  0
  -27.1081  -11.4802   19.3209 N   0  0  0  0  0  0  0  0  0  0  0  0
  -22.8561  -10.3009   20.2835 N   0  0  0  0  0  0  0  0  0  0  0  0
  -28.0127  -17.5367   18.7653 N   0  0  0  0  0  0  0  0  0  0  0  0
  -25.3109  -32.6310   22.8908 N   0  0  0  0  0  0  0  0  0  0  0  0
  -20.9057  -28.3195   20.3067 N   0  0  0  0  0  0  0  0  0  0  0  0
  -28.6140  -22.9631   19.2237 N   0  3  1  0  0  0  0  0  0  0  0  0
  -21.4148  -25.4836   18.1236 N   0  3  0  0  0  0  0  0  0  0  0  0
  -24.7620   -9.6600   19.1809 O   0  0  0  0  0  0  0  0  0  0  0  0
  -24.3311  -30.6249   23.5526 O   0  0  0  0  0  0  0  0  0  0  0  0
  -21.2748  -31.2091   21.4282 O   0  0  0  0  0  0  0  0  0  0  0  0
  -21.1860  -26.0857   20.8625 O   0  0  0  0  0  0  0  0  0  0  0  0
  -30.0191  -17.9349   19.8596 O   0  0  0  0  0  0  0  0  0  0  0  0
  -19.2600  -13.1991   23.3993 O   0  0  0  0  0  0  0  0  0  0  0  0
  -28.1541  -26.4045   20.2242 O   0  0  0  0  0  0  0  0  0  1  0  0
  -15.0994  -14.5758   20.0529 F   0  0  0  0  0  0  0  0  0  0  0  0
  -17.7817  -15.4925   23.8437 F   0  0  0  0  0  0  0  0  0  0  0  0
  -25.3593  -19.9670   15.1008 Cl  0  0  0  0  0  0  0  0  0  0  0  0
  1  2  1  0  0  0  0
  1  5  2  0  0  0  0
  2  6  2  0  0  0  0
  3  8  2  0  0  0  0
  3 18  1  0  0  0  0
  4  9  1  0  0  0  0
  4 18  2  0  0  0  0
  5 20  1  0  0  0  0
  6 22  1  0  0  0  0
  7 10  2  0  0  0  0
  7 21  1  0  0  0  0
  8 26  1  0  0  0  0
  9 26  2  0  0  0  0
 10 27  1  0  0  0  0
 11 12  2  0  0  0  0
 11 28  1  0  0  0  0
 12 29  1  0  0  0  0
 13 23  1  0  0  0  0
 13 27  2  0  0  0  0
 14 24  2  0  0  0  0
 14 25  1  0  0  0  0
 15 24  1  0  0  0  0
 15 31  2  0  0  0  0
 16 25  2  0  0  0  0
 16 31  1  0  0  0  0
 17 29  2  0  0  0  0
 17 30  1  0  0  0  0
 18 32  1  0  0  0  0
 19 32  1  0  0  0  0
 19 33  2  0  0  0  0
 19 38  1  0  0  0  0
 20 22  2  0  0  0  0
 20 43  1  0  0  0  0
 21 23  2  0  0  0  0
 21 44  1  0  0  0  0
 22 55  1  0  0  0  0
 23 45  1  0  0  0  0
 24 64  1  0  0  0  0
 25 74  1  0  0  0  0
 26 84  1  0  0  0  0
 27 85  1  0  0  0  0
 28 30  2  0  0  0  0
 28 84  1  0  0  0  0
 29 86  1  0  0  0  0
 30 87  1  0  0  0  0
 31 88  1  0  0  0  0
 32 68  2  0  0  0  0
 33 69  1  0  0  0  0
 33 72  1  0  0  0  0
 34 36  2  0  0  0  0
 34 46  1  0  0  0  0
 34 77  1  0  0  0  0
 35 37  2  0  0  0  0
 36 37  1  0  0  0  0
 38 73  1  0  0  0  0
 38 79  2  0  0  0  0
 39 56  1  0  0  0  0
 39 75  1  0  0  0  0
 39 80  2  0  0  0  0
 40 65  1  0  0  0  0
 40 70  1  0  0  0  0
 40 81  2  0  0  0  0
 41 66  1  0  0  0  0
 41 76  1  0  0  0  0
 41 82  2  0  0  0  0
 42 71  1  0  0  0  0
 42 74  1  0  0  0  0
 42 83  2  0  0  0  0
 43 47  1  0  0  0  0
 44 56  1  0  0  0  0
 45 70  1  0  0  0  0
 46 58  1  0  0  0  0
 47 49  1  0  0  0  0
 48 50  1  0  0  0  0
 48 52  1  0  0  0  0
 49 55  1  0  0  0  0
 50 57  1  0  0  0  0
 51 54  1  0  0  0  0
 51 58  1  0  0  0  0
 52 71  1  0  0  0  0
 53 57  1  0  0  0  0
 53 71  1  0  0  0  0
 54 77  1  0  0  0  0
 55 75  1  0  0  0  0
 56 70  1  0  0  0  0
 57 69  1  0  0  0  0
 58 85  1  0  0  0  0
 59 66  1  0  0  0  0
 60 67  1  0  0  0  0
 61 67  1  0  0  0  0
 62 67  1  0  0  0  0
 63 78  1  0  0  0  0
 64 77  1  0  0  0  0
 65 67  1  0  0  0  0
 65 76  1  0  0  0  0
 66 78  1  0  0  0  0
 68 69  1  0  0  0  0
M  CHG  2  77   1  78   1
M  ISO  4  42 100  58 101  74 100  85 101
M  END
> <Batch ID>
0048

> <Smiles>
C=CC=C1C[101CH:1]([101O:1]c2ccc3c(c2)CN(C(=O)C(NC(=O)C(C)NC)C(C)(C)C)C(C(=O)NC2CCCc4ccccc42)C3)CCN1Cc1cc(Cl)cc([100NH:0][100C:0](=O)N2CCCC(n3nc(-c4ccc(Oc5ccc(F)cc5F)cc4)c(C(N)=O)c3N)C2)c1

> <Shape>
0.307

> <Color>
0.079

> <Negative vol penalty>
0.000

$$$$

  -OEChem-04042322293D

 85 93  0     1  0  0  0  0  0999 V2000
  -27.7909  -18.1476   20.0204 C   0  0  0  0  0  0  0  0  0  0  0  0
  -27.2180  -19.2083   19.3279 C   0  0  0  0  0  0  0  0  0  0  0  0
  -24.8754  -15.4104   18.6220 C   0  0  0  0  0  0  0  0  0  0  0  0
  -24.1665  -15.5878   20.9249 C   0  0  0  0  0  0  0  0  0  0  0  0
  -28.4155  -18.3756   21.2447 C   0  0  0  0  0  0  0  0  0  0  0  0
  -27.2799  -20.4993   19.8538 C   0  0  0  0  0  0  0  0  0  0  0  0
  -24.9987  -27.2477   19.0390 C   0  0  0  0  0  0  0  0  0  0  0  0
  -19.8960  -27.6778   22.6483 C   0  0  0  0  0  0  0  0  0  0  0  0
  -21.5784  -28.4067   24.2216 C   0  0  0  0  0  0  0  0  0  0  0  0
  -20.2370  -26.3488   22.8994 C   0  0  0  0  0  0  0  0  0  0  0  0
  -21.9193  -27.0777   24.4728 C   0  0  0  0  0  0  0  0  0  0  0  0
  -25.6210  -14.2750   18.9390 C   0  0  0  0  0  0  0  0  0  0  0  0
  -24.9121  -14.4523   21.2418 C   0  0  0  0  0  0  0  0  0  0  0  0
  -24.3088  -28.2958   19.6469 C   0  0  0  0  0  0  0  0  0  0  0  0
  -28.5975  -13.5720   20.3779 C   0  0  0  0  0  0  0  0  0  0  0  0
  -29.8927  -13.4848   19.8674 C   0  0  0  0  0  0  0  0  0  0  0  0
  -26.2559  -28.7963   20.9801 C   0  0  0  0  0  0  0  0  0  0  0  0
  -29.2974  -11.4527   18.7041 C   0  0  0  0  0  0  0  0  0  0  0  0
  -24.1482  -16.0668   19.6150 C   0  0  0  0  0  0  0  0  0  0  0  0
  -22.3181  -17.3317   18.3666 C   0  0  0  0  0  0  0  0  0  0  0  0
  -28.4737  -19.6683   21.7911 C   0  0  0  0  0  0  0  0  0  0  0  0
  -26.3211  -26.9588   19.4056 C   0  0  0  0  0  0  0  0  0  0  0  0
  -27.9268  -20.7536   21.0767 C   0  0  0  0  0  0  0  0  0  0  0  0
  -26.9613  -27.7457   20.3736 C   0  0  0  0  0  0  0  0  0  0  0  0
  -20.5667  -28.7068   23.3094 C   0  0  0  0  0  0  0  0  0  0  0  0
  -21.2486  -26.0487   23.8116 C   0  0  0  0  0  0  0  0  0  0  0  0
  -25.6394  -13.7959   20.2489 C   0  0  0  0  0  0  0  0  0  0  0  0
  -24.9365  -29.0684   20.6196 C   0  0  0  0  0  0  0  0  0  0  0  0
  -27.6523  -12.5995   20.0515 C   0  0  0  0  0  0  0  0  0  0  0  0
  -30.2426  -12.4251   19.0305 C   0  0  0  0  0  0  0  0  0  0  0  0
  -28.0022  -11.5399   19.2146 C   0  0  0  0  0  0  0  0  0  0  0  0
  -23.3782  -17.2401   19.2883 C   0  0  0  0  0  0  0  0  0  0  0  0
  -21.9266  -18.6470   18.4233 C   0  0  0  0  0  0  0  0  0  0  0  0
  -21.7391  -16.3185   17.5336 C   0  0  0  0  0  0  0  0  0  0  0  0
  -27.7954  -24.4549   20.6943 C   0  0  0  0  0  0  0  0  0  0  0  0
  -30.4569  -26.2157   20.1129 C   0  0  0  0  0  0  0  0  0  0  0  0
  -21.6003  -31.0070   21.1783 C   0  0  0  0  0  0  0  0  0  0  0  0
  -31.8420  -29.2946   19.6139 C   0  0  0  0  0  0  0  0  0  0  0  0
  -22.3290  -22.6896   22.7071 C   0  0  0  0  0  0  0  0  0  0  0  0
  -29.1688  -19.8597   23.1161 C   0  0  0  0  0  0  0  0  0  0  0  0
  -27.0603  -25.8417   18.7214 C   0  0  0  0  0  0  0  0  0  0  0  0
  -28.3864  -27.4894   20.7882 C   0  0  0  0  0  0  0  0  0  0  0  0
  -28.7972  -21.1723   23.7982 C   0  0  0  0  0  0  0  0  0  0  0  0
  -23.6281  -23.0243   19.3459 C   0  0  0  0  0  0  0  0  0  0  0  0
  -28.9320  -22.3254   22.8149 C   0  0  0  0  0  0  0  0  0  0  0  0
  -23.6070  -21.5721   18.8656 C   0  0  0  0  0  0  0  0  0  0  0  0
  -24.0163  -23.1138   20.8188 C   0  0  0  0  0  0  0  0  0  0  0  0
  -23.1383  -20.8525   21.2536 C   0  0  0  0  0  0  0  0  0  0  0  0
  -27.9551  -22.1614   21.6437 C   0  0  1  0  0  0  0  0  0  0  0  0
  -28.2333  -25.3118   19.5403 C   0  0  1  0  0  0  0  0  0  0  0  0
  -22.7308  -20.6930   19.7776 C   0  0  2  0  0  0  0  0  0  0  0  0
  -34.0473  -30.4193   19.2026 C   0  0  0  0  0  0  0  0  0  0  0  0
  -31.1892  -25.8497   23.0523 C   0  0  0  0  0  0  0  0  0  0  0  0
  -32.8259  -27.7282   22.8064 C   0  0  0  0  0  0  0  0  0  0  0  0
  -33.1109  -25.6444   21.4651 C   0  0  0  0  0  0  0  0  0  0  0  0
  -25.0211  -31.9092   19.9821 C   0  0  0  0  0  0  0  0  0  0  0  0
  -30.9414  -30.3643   17.0056 C   0  0  0  0  0  0  0  0  0  0  0  0
  -20.2003  -30.1376   23.0397 C   0  0  0  0  0  0  0  0  0  0  0  0
  -21.6114  -24.6273   24.0809 C   0  0  0  0  0  0  0  0  0  0  0  0
  -22.8122  -31.8813   20.9300 C   0  0  0  0  0  0  0  0  0  0  0  0
  -31.2451  -27.2480   20.8826 C   0  0  1  0  0  0  0  0  0  0  0  0
  -32.8119  -29.8045   18.5633 C   0  0  2  0  0  0  0  0  0  0  0  0
  -32.0653  -26.6214   22.0454 C   0  0  0  0  0  0  0  0  0  0  0  0
  -23.6433  -18.4044   19.8867 N   0  0  0  0  0  0  0  0  0  0  0  0
  -22.7443  -19.2402   19.3396 N   0  0  0  0  0  0  0  0  0  0  0  0
  -29.0649  -26.3820   20.0947 N   0  0  0  0  0  0  0  0  0  0  0  0
  -23.1324  -22.2689   21.6343 N   0  0  0  0  0  0  0  0  0  0  0  0
  -20.9661  -19.3425   17.7781 N   0  0  0  0  0  0  0  0  0  0  0  0
  -20.6680  -15.5694   18.0394 N   0  0  0  0  0  0  0  0  0  0  0  0
  -28.2563  -23.1535   20.6353 N   0  0  0  0  0  0  0  0  0  0  0  0
  -21.3205  -30.8962   22.5333 N   0  0  0  0  0  0  0  0  0  0  0  0
  -32.0521  -27.9620   19.8991 N   0  0  0  0  0  0  0  0  0  0  0  0
  -22.3861  -24.0450   23.0077 N   0  0  0  0  0  0  0  0  0  0  0  0
  -23.8338  -31.0970   20.2394 N   0  0  2  0  0  0  0  0  0  1  0  0
  -32.1580  -30.8394   17.7135 N   0  3  0  0  0  0  0  0  0  0  0  0
  -22.1697  -16.0733   16.3813 O   0  0  0  0  0  0  0  0  0  0  0  0
  -27.0927  -24.9389   21.5738 O   0  0  0  0  0  0  0  0  0  0  0  0
  -31.0549  -25.2998   19.5428 O   0  0  0  0  0  0  0  0  0  0  0  0
  -20.9439  -30.4858   20.2799 O   0  0  0  0  0  0  0  0  0  0  0  0
  -30.9862  -30.0081   20.1326 O   0  0  0  0  0  0  0  0  0  0  0  0
  -21.6093  -21.9151   23.3469 O   0  0  0  0  0  0  0  0  0  0  0  0
  -26.3667  -12.6879   20.5585 O   0  0  0  0  0  0  0  0  0  0  0  0
  -24.2651  -30.0916   21.2149 O   0  0  0  0  0  0  0  0  0  1  0  0
  -31.4860  -12.3424   18.5392 F   0  0  0  0  0  0  0  0  0  0  0  0
  -27.0981  -10.6032   18.8966 F   0  0  0  0  0  0  0  0  0  0  0  0
  1  2  1  0  0  0  0
  1  5  2  0  0  0  0
  2  6  2  0  0  0  0
  3 12  2  0  0  0  0
  3 19  1  0  0  0  0
  4 13  1  0  0  0  0
  4 19  2  0  0  0  0
  5 21  1  0  0  0  0
  6 23  1  0  0  0  0
  7 14  2  0  0  0  0
  7 22  1  0  0  0  0
  8 10  2  0  0  0  0
  8 25  1  0  0  0  0
  9 11  1  0  0  0  0
  9 25  2  0  0  0  0
 10 26  1  0  0  0  0
 11 26  2  0  0  0  0
 12 27  1  0  0  0  0
 13 27  2  0  0  0  0
 14 28  1  0  0  0  0
 15 16  2  0  0  0  0
 15 29  1  0  0  0  0
 16 30  1  0  0  0  0
 17 24  1  0  0  0  0
 17 28  2  0  0  0  0
 18 30  2  0  0  0  0
 18 31  1  0  0  0  0
 19 32  1  0  0  0  0
 20 32  1  0  0  0  0
 20 33  2  0  0  0  0
 20 34  1  0  0  0  0
 21 23  2  0  0  0  0
 21 40  1  0  0  0  0
 22 24  2  0  0  0  0
 22 41  1  0  0  0  0
 23 49  1  0  0  0  0
 24 42  1  0  0  0  0
 25 58  1  0  0  0  0
 26 59  1  0  0  0  0
 27 82  1  0  0  0  0
 28 83  1  0  0  0  0
 29 31  2  0  0  0  0
 29 82  1  0  0  0  0
 30 84  1  0  0  0  0
 31 85  1  0  0  0  0
 32 64  2  0  0  0  0
 33 65  1  0  0  0  0
 33 68  1  0  0  0  0
 34 69  1  0  0  0  0
 34 76  2  0  0  0  0
 35 50  1  0  0  0  0
 35 70  1  0  0  0  0
 35 77  2  0  0  0  0
 36 61  1  0  0  0  0
 36 66  1  0  0  0  0
 36 78  2  0  0  0  0
 37 60  1  0  0  0  0
 37 71  1  0  0  0  0
 37 79  2  0  0  0  0
 38 62  1  0  0  0  0
 38 72  1  0  0  0  0
 38 80  2  0  0  0  0
 39 67  1  0  0  0  0
 39 73  1  0  0  0  0
 39 81  2  0  0  0  0
 40 43  1  0  0  0  0
 41 50  1  0  0  0  0
 42 66  1  0  0  0  0
 43 45  1  0  0  0  0
 44 46  1  0  0  0  0
 44 47  1  0  0  0  0
 45 49  1  0  0  0  0
 46 51  1  0  0  0  0
 47 67  1  0  0  0  0
 48 51  1  0  0  0  0
 48 67  1  0  0  0  0
 49 70  1  0  0  0  0
 50 66  1  0  0  0  0
 51 65  1  0  0  0  0
 52 62  1  0  0  0  0
 53 63  1  0  0  0  0
 54 63  1  0  0  0  0
 55 63  1  0  0  0  0
 56 74  1  0  0  0  0
 57 75  1  0  0  0  0
 58 71  1  0  0  0  0
 59 73  1  0  0  0  0
 60 74  1  0  0  0  0
 61 63  1  0  0  0  0
 61 72  1  0  0  0  0
 62 75  1  0  0  0  0
 64 65  1  0  0  0  0
 74 83  1  0  0  0  0
M  CHG  1  75   1
M  ISO  4  39 100  73 100  74 101  83 101
M  END
> <Batch ID>
0048

> <Smiles>
CNC(C)C(=O)NC(C(=O)N1Cc2cc([101O:1][101N:1](C)CC(=O)NCc3ccc(C[100NH:0][100C:0](=O)N4CCCC(n5nc(-c6ccc(Oc7ccc(F)cc7F)cc6)c(C(N)=O)c5N)C4)cc3)ccc2CC1C(=O)NC1CCCc2ccccc21)C(C)(C)C

> <Shape>
0.238

> <Color>
0.059

> <Negative vol penalty>
0.000

$$$$

  -OEChem-04042322293D

 87 96  0     1  0  0  0  0  0999 V2000
  -20.8692  -31.1943   26.8949 C   0  0  0  0  0  0  0  0  0  0  0  0
  -22.0868  -30.7072   26.4307 C   0  0  0  0  0  0  0  0  0  0  0  0
  -23.6090   -9.7102   21.2264 C   0  0  0  0  0  0  0  0  0  0  0  0
  -24.1912  -10.6490   23.3751 C   0  0  0  0  0  0  0  0  0  0  0  0
  -19.6788  -30.7624   26.3115 C   0  0  0  0  0  0  0  0  0  0  0  0
  -22.1147  -29.7870   25.3833 C   0  0  0  0  0  0  0  0  0  0  0  0
  -26.3526  -29.3433   20.9845 C   0  0  0  0  0  0  0  0  0  0  0  0
  -29.3294  -20.1864   22.1172 C   0  0  0  0  0  0  0  0  0  0  0  0
  -28.9482  -18.9554   21.5834 C   0  0  0  0  0  0  0  0  0  0  0  0
  -23.0302   -8.6123   21.8630 C   0  0  0  0  0  0  0  0  0  0  0  0
  -23.6123   -9.5511   24.0116 C   0  0  0  0  0  0  0  0  0  0  0  0
  -27.4608  -28.5115   20.8302 C   0  0  0  0  0  0  0  0  0  0  0  0
  -20.1373   -7.8998   23.4619 C   0  0  0  0  0  0  0  0  0  0  0  0
  -18.8907   -7.4698   23.0073 C   0  0  0  0  0  0  0  0  0  0  0  0
  -26.1455  -27.0234   19.4609 C   0  0  0  0  0  0  0  0  0  0  0  0
  -31.2718  -18.3298   21.3669 C   0  0  0  0  0  0  0  0  0  0  0  0
  -19.8295   -5.3075   22.4781 C   0  0  0  0  0  0  0  0  0  0  0  0
  -24.1895  -10.7285   21.9825 C   0  0  0  0  0  0  0  0  0  0  0  0
  -24.1569  -13.0695   20.9694 C   0  0  0  0  0  0  0  0  0  0  0  0
  -19.6926  -29.8438   25.2501 C   0  0  0  0  0  0  0  0  0  0  0  0
  -25.1275  -29.0152   20.3862 C   0  0  0  0  0  0  0  0  0  0  0  0
  -20.9233  -29.3414   24.7860 C   0  0  0  0  0  0  0  0  0  0  0  0
  -25.0240  -27.8540   19.6071 C   0  0  0  0  0  0  0  0  0  0  0  0
  -30.6818  -20.4892   22.2757 C   0  0  0  0  0  0  0  0  0  0  0  0
  -29.9194  -18.0271   21.2083 C   0  0  0  0  0  0  0  0  0  0  0  0
  -23.0318   -8.5328   23.2556 C   0  0  0  0  0  0  0  0  0  0  0  0
  -27.3565  -27.3499   20.0707 C   0  0  0  0  0  0  0  0  0  0  0  0
  -21.2301   -7.0336   23.4246 C   0  0  0  0  0  0  0  0  0  0  0  0
  -18.7368   -6.1737   22.5154 C   0  0  0  0  0  0  0  0  0  0  0  0
  -31.6529  -19.5609   21.9006 C   0  0  0  0  0  0  0  0  0  0  0  0
  -21.0761   -5.7375   22.9327 C   0  0  0  0  0  0  0  0  0  0  0  0
  -24.7881  -11.8626   21.3255 C   0  0  0  0  0  0  0  0  0  0  0  0
  -25.1478  -13.8134   20.3768 C   0  0  0  0  0  0  0  0  0  0  0  0
  -29.6503  -24.6759   20.7807 C   0  0  0  0  0  0  0  0  0  0  0  0
  -29.7405  -23.6222   21.8449 C   0  0  0  0  0  0  0  0  0  0  0  0
  -28.6220  -25.5362   20.8321 C   0  0  0  0  0  0  0  0  0  1  0  0
  -22.7965  -13.4814   21.1575 C   0  0  0  0  0  0  0  0  0  0  0  0
  -22.2088  -28.3629   21.4629 C   0  0  0  0  0  0  0  0  0  0  0  0
  -21.4650  -28.3716   18.3055 C   0  0  0  0  0  0  0  0  0  0  0  0
  -22.5183  -28.0077   15.0799 C   0  0  0  0  0  0  0  0  0  0  0  0
  -30.3685  -15.7446   20.2414 C   0  0  0  0  0  0  0  0  0  0  0  0
  -18.3779  -29.3704   24.6827 C   0  0  0  0  0  0  0  0  0  0  0  0
  -23.9488  -29.9368   20.5403 C   0  0  0  0  0  0  0  0  0  0  0  0
  -23.7368  -27.4674   18.9273 C   0  0  0  0  0  0  0  0  0  0  0  0
  -30.7037  -24.7673   19.7205 C   0  0  0  0  0  0  0  0  0  0  0  0
  -18.5127  -28.6784   23.3287 C   0  0  0  0  0  0  0  0  0  0  0  0
  -32.0654  -24.4337   20.2982 C   0  0  0  0  0  0  0  0  0  0  0  0
  -29.8028  -12.5031   18.8813 C   0  0  0  0  0  0  0  0  0  0  0  0
  -19.6562  -27.6692   23.3564 C   0  0  0  0  0  0  0  0  0  0  0  0
  -28.3958  -12.1468   19.3666 C   0  0  0  0  0  0  0  0  0  0  0  0
  -32.0211  -23.0525   20.9240 C   0  0  0  0  0  0  0  0  0  0  0  0
  -30.5838  -13.2882   19.9336 C   0  0  0  0  0  0  0  0  0  0  0  0
  -28.4949  -14.1252   20.9361 C   0  0  0  0  0  0  0  0  0  0  0  0
  -20.9959  -28.3611   23.6354 C   0  0  1  0  0  0  0  0  0  0  0  0
  -22.6113  -29.2397   20.3110 C   0  0  1  0  0  0  0  0  0  0  0  0
  -27.6469  -13.3900   19.8853 C   0  0  2  0  0  0  0  0  0  0  0  0
  -21.6735  -28.0333   12.7170 C   0  0  0  0  0  0  0  0  0  0  0  0
  -20.2523  -25.6013   18.7117 C   0  0  0  0  0  0  0  0  0  0  0  0
  -20.2980  -25.2935   16.2275 C   0  0  0  0  0  0  0  0  0  0  0  0
  -18.9218  -27.1157   17.2316 C   0  0  0  0  0  0  0  0  0  0  0  0
  -24.2671  -30.2831   14.3565 C   0  0  0  0  0  0  0  0  0  0  0  0
  -31.0877  -21.8146   22.8524 C   0  0  0  0  0  0  0  0  0  0  0  0
  -21.4405  -27.3331   17.2101 C   0  0  1  0  0  0  0  0  0  0  0  0
  -22.2837  -28.8546   13.8421 C   0  0  2  0  0  0  0  0  0  0  0  0
  -20.2520  -26.3419   17.3595 C   0  0  0  0  0  0  0  0  0  0  0  0
  -26.0800  -11.8370   20.9872 N   0  0  0  0  0  0  0  0  0  0  0  0
  -26.2686  -13.0370   20.4123 N   0  0  0  0  0  0  0  0  0  0  0  0
  -30.9338  -22.8981   21.8902 N   0  0  0  0  0  0  0  0  0  0  0  0
  -22.6109  -28.3976   19.1130 N   0  0  0  0  0  0  0  0  0  0  0  0
  -29.8147  -14.4538   20.3748 N   0  0  0  0  0  0  0  0  0  0  0  0
  -25.1611  -15.0493   19.8339 N   0  0  0  0  0  0  0  0  0  0  0  0
  -21.9105  -12.5945   21.7843 N   0  0  0  0  0  0  0  0  0  0  0  0
  -29.5323  -16.7773   20.6643 N   0  0  0  0  0  0  0  0  0  0  0  0
  -21.4845  -29.0168   22.4414 N   0  0  0  0  0  0  0  0  0  0  0  0
  -21.4505  -28.0686   15.9502 N   0  0  0  0  0  0  0  0  0  0  0  0
  -23.5696  -29.4321   13.3583 N   0  3  0  0  0  0  0  0  0  0  0  0
  -28.7990  -23.4383   22.6180 O   0  0  0  0  0  0  0  0  0  0  0  0
  -22.3750  -14.5962   20.7662 O   0  0  0  0  0  0  0  0  0  0  0  0
  -22.5301  -27.1804   21.4633 O   0  0  0  0  0  0  0  0  0  0  0  0
  -20.5058  -29.1363   18.4354 O   0  0  0  0  0  0  0  0  0  0  0  0
  -23.5444  -27.3544   15.2553 O   0  0  0  0  0  0  0  0  0  0  0  0
  -31.4904  -15.9229   19.7602 O   0  0  0  0  0  0  0  0  0  0  0  0
  -22.4669   -7.4617   23.8770 O   0  0  0  0  0  0  0  0  0  0  0  0
  -28.4365  -26.5359   19.9189 O   0  0  0  0  0  0  0  0  0  1  0  0
  -17.5393   -5.7604   22.0803 F   0  0  0  0  0  0  0  0  0  0  0  0
  -32.9548  -19.8427   22.0492 F   0  0  0  0  0  0  0  0  0  0  0  0
  -22.1220   -4.9004   22.8955 F   0  0  0  0  0  0  0  0  0  0  0  0
  1  2  1  0  0  0  0
  1  5  2  0  0  0  0
  2  6  2  0  0  0  0
  3 10  2  0  0  0  0
  3 18  1  0  0  0  0
  4 11  1  0  0  0  0
  4 18  2  0  0  0  0
  5 20  1  0  0  0  0
  6 22  1  0  0  0  0
  7 12  2  0  0  0  0
  7 21  1  0  0  0  0
  8  9  2  0  0  0  0
  8 24  1  0  0  0  0
  9 25  1  0  0  0  0
 10 26  1  0  0  0  0
 11 26  2  0  0  0  0
 12 27  1  0  0  0  0
 13 14  2  0  0  0  0
 13 28  1  0  0  0  0
 14 29  1  0  0  0  0
 15 23  1  0  0  0  0
 15 27  2  0  0  0  0
 16 25  2  0  0  0  0
 16 30  1  0  0  0  0
 17 29  2  0  0  0  0
 17 31  1  0  0  0  0
 18 32  1  0  0  0  0
 19 32  1  0  0  0  0
 19 33  2  0  0  0  0
 19 37  1  0  0  0  0
 20 22  2  0  0  0  0
 20 42  1  0  0  0  0
 21 23  2  0  0  0  0
 21 43  1  0  0  0  0
 22 54  1  0  0  0  0
 23 44  1  0  0  0  0
 24 30  2  0  0  0  0
 24 62  1  0  0  0  0
 25 73  1  0  0  0  0
 26 83  1  0  0  0  0
 27 84  1  0  0  0  0
 28 31  2  0  0  0  0
 28 83  1  0  0  0  0
 29 85  1  0  0  0  0
 30 86  1  0  0  0  0
 31 87  1  0  0  0  0
 32 66  2  0  0  0  0
 33 67  1  0  0  0  0
 33 71  1  0  0  0  0
 34 35  1  0  0  0  0
 34 36  2  0  0  0  0
 34 45  1  0  0  0  0
 35 68  1  0  0  0  0
 35 77  2  0  0  0  0
 36 84  1  0  0  0  0
 37 72  1  0  0  0  0
 37 78  2  0  0  0  0
 38 55  1  0  0  0  0
 38 74  1  0  0  0  0
 38 79  2  0  0  0  0
 39 63  1  0  0  0  0
 39 69  1  0  0  0  0
 39 80  2  0  0  0  0
 40 64  1  0  0  0  0
 40 75  1  0  0  0  0
 40 81  2  0  0  0  0
 41 70  1  0  0  0  0
 41 73  1  0  0  0  0
 41 82  2  0  0  0  0
 42 46  1  0  0  0  0
 43 55  1  0  0  0  0
 44 69  1  0  0  0  0
 45 47  1  0  0  0  0
 46 49  1  0  0  0  0
 47 51  1  0  0  0  0
 48 50  1  0  0  0  0
 48 52  1  0  0  0  0
 49 54  1  0  0  0  0
 50 56  1  0  0  0  0
 51 68  1  0  0  0  0
 52 70  1  0  0  0  0
 53 56  1  0  0  0  0
 53 70  1  0  0  0  0
 54 74  1  0  0  0  0
 55 69  1  0  0  0  0
 56 67  1  0  0  0  0
 57 64  1  0  0  0  0
 58 65  1  0  0  0  0
 59 65  1  0  0  0  0
 60 65  1  0  0  0  0
 61 76  1  0  0  0  0
 62 68  1  0  0  0  0
 63 65  1  0  0  0  0
 63 75  1  0  0  0  0
 64 76  1  0  0  0  0
 66 67  1  0  0  0  0
M  CHG  1  76   1
M  ISO  4  36 101  41 100  73 100  84 101
M  END
> <Batch ID>
0048

> <Smiles>
CNC(C)C(=O)NC(C(=O)N1Cc2cc([101O:1][101CH:1]=C3CCCN(Cc4ccc([100NH:0][100C:0](=O)N5CCCC(n6nc(-c7ccc(Oc8ccc(F)cc8F)cc7)c(C(N)=O)c6N)C5)cc4F)C3=O)ccc2CC1C(=O)NC1CCCc2ccccc21)C(C)(C)C

> <Shape>
0.283

> <Color>
0.186

> <Negative vol penalty>
0.000

$$$$

  -OEChem-04042322293D

 85 93  0     1  0  0  0  0  0999 V2000
  -29.3112  -16.5837   19.0884 C   0  0  0  0  0  0  0  0  0  0  0  0
  -28.0806  -17.1808   18.8342 C   0  0  0  0  0  0  0  0  0  0  0  0
  -28.7278  -26.3605   19.2412 C   0  0  0  0  0  0  0  0  0  0  0  0
  -26.6354  -25.3504   18.5791 C   0  0  0  0  0  0  0  0  0  0  0  0
  -29.3646  -15.2709   19.5547 C   0  0  0  0  0  0  0  0  0  0  0  0
  -26.9027  -16.4650   19.0453 C   0  0  0  0  0  0  0  0  0  0  0  0
  -23.3769  -19.1913   21.4496 C   0  0  0  0  0  0  0  0  0  0  0  0
  -19.5842  -28.7991   23.8868 C   0  0  0  0  0  0  0  0  0  0  0  0
  -29.3502  -25.1140   19.1761 C   0  0  0  0  0  0  0  0  0  0  0  0
  -27.2578  -24.1038   18.5139 C   0  0  0  0  0  0  0  0  0  0  0  0
  -22.6668  -20.1227   20.6933 C   0  0  0  0  0  0  0  0  0  0  0  0
  -29.5695  -22.3369   21.0903 C   0  0  0  0  0  0  0  0  0  0  0  0
  -30.4173  -21.9811   22.1393 C   0  0  0  0  0  0  0  0  0  0  0  0
  -18.3857  -28.1551   24.1941 C   0  0  0  0  0  0  0  0  0  0  0  0
  -19.5332  -27.8369   21.6713 C   0  0  0  0  0  0  0  0  0  0  0  0
  -20.8253  -18.5735   20.5255 C   0  0  0  0  0  0  0  0  0  0  0  0
  -32.2563  -21.7815   20.5852 C   0  0  0  0  0  0  0  0  0  0  0  0
  -27.3703  -26.4787   18.9427 C   0  0  0  0  0  0  0  0  0  0  0  0
  -18.3347  -27.1928   21.9786 C   0  0  0  0  0  0  0  0  0  0  0  0
  -26.5998  -28.7086   17.9725 C   0  0  0  0  0  0  0  0  0  0  0  0
  -28.1864  -14.5418   19.7808 C   0  0  0  0  0  0  0  0  0  0  0  0
  -22.8199  -17.9377   21.7408 C   0  0  0  0  0  0  0  0  0  0  0  0
  -26.9404  -15.1407   19.5138 C   0  0  0  0  0  0  0  0  0  0  0  0
  -21.5293  -17.6290   21.2878 C   0  0  0  0  0  0  0  0  0  0  0  0
  -20.1579  -28.6401   22.6253 C   0  0  0  0  0  0  0  0  0  0  0  0
  -28.6153  -23.9856   18.8125 C   0  0  0  0  0  0  0  0  0  0  0  0
  -21.3920  -19.8128   20.2287 C   0  0  0  0  0  0  0  0  0  0  0  0
  -30.0651  -22.4149   19.7888 C   0  0  0  0  0  0  0  0  0  0  0  0
  -31.7607  -21.7034   21.8867 C   0  0  0  0  0  0  0  0  0  0  0  0
  -31.4085  -22.1373   19.5362 C   0  0  0  0  0  0  0  0  0  0  0  0
  -17.7610  -27.3519   23.2400 C   0  0  0  0  0  0  0  0  0  0  0  0
  -26.7266  -27.7660   19.0104 C   0  0  0  0  0  0  0  0  0  0  0  0
  -25.9142  -29.7545   18.5404 C   0  0  0  0  0  0  0  0  0  0  0  0
  -18.0131  -22.7603   20.1898 C   0  0  0  0  0  0  0  0  0  0  0  0
  -18.7400  -22.0527   19.3128 C   0  0  0  0  0  0  0  0  0  0  0  0
  -17.7008  -26.3514   20.9438 C   0  0  0  0  0  0  0  0  0  0  0  0
  -27.0605  -28.6445   16.6162 C   0  0  0  0  0  0  0  0  0  0  0  0
  -23.6007  -14.9281   21.0803 C   0  0  0  0  0  0  0  0  0  0  0  0
  -21.1112  -14.2601   23.0497 C   0  0  0  0  0  0  0  0  0  0  0  0
  -18.1794  -15.2858   24.4636 C   0  0  0  0  0  0  0  0  0  0  0  0
  -22.1221  -30.1302   23.1430 C   0  0  0  0  0  0  0  0  0  0  0  0
  -28.2959  -13.1096   20.2404 C   0  0  0  0  0  0  0  0  0  0  0  0
  -23.5881  -16.9542   22.5805 C   0  0  0  0  0  0  0  0  0  0  0  0
  -20.8784  -16.3048   21.5902 C   0  0  0  0  0  0  0  0  0  0  0  0
  -26.9899  -12.5462   20.7948 C   0  0  0  0  0  0  0  0  0  0  0  0
  -25.1848  -31.9045   22.7570 C   0  0  0  0  0  0  0  0  0  0  0  0
  -25.8261  -12.8874   19.8697 C   0  0  0  0  0  0  0  0  0  0  0  0
  -25.9136  -31.1339   21.6537 C   0  0  0  0  0  0  0  0  0  0  0  0
  -24.3987  -30.9712   23.6762 C   0  0  0  0  0  0  0  0  0  0  0  0
  -24.2032  -29.2882   21.8879 C   0  0  0  0  0  0  0  0  0  0  0  0
  -25.6399  -14.4051   19.7540 C   0  0  1  0  0  0  0  0  0  0  0  0
  -23.1297  -15.5128   22.3818 C   0  0  1  0  0  0  0  0  0  0  0  0
  -24.9564  -30.1916   20.8978 C   0  0  2  0  0  0  0  0  0  0  0  0
  -16.3550  -14.5068   26.0005 C   0  0  0  0  0  0  0  0  0  0  0  0
  -19.9658  -12.5326   20.8106 C   0  0  0  0  0  0  0  0  0  0  0  0
  -17.7656  -12.5660   22.0049 C   0  0  0  0  0  0  0  0  0  0  0  0
  -19.7613  -11.5446   23.0989 C   0  0  0  0  0  0  0  0  0  0  0  0
  -18.7310  -17.4509   26.4045 C   0  0  0  0  0  0  0  0  0  0  0  0
  -17.4705  -24.1220   19.9078 C   0  0  0  0  0  0  0  0  0  0  0  0
  -19.2739  -20.6855   19.5897 C   0  0  0  0  0  0  0  0  0  1  0  0
  -19.6265  -14.0585   22.8654 C   0  0  1  0  0  0  0  0  0  0  0  0
  -17.6827  -15.2412   25.8974 C   0  0  2  0  0  0  0  0  0  0  0  0
  -19.2926  -12.6997   22.1874 C   0  0  0  0  0  0  0  0  0  0  0  0
  -26.1667  -28.1769   20.1513 N   0  0  0  0  0  0  0  0  0  0  0  0
  -25.6814  -29.3892   19.8336 N   0  0  0  0  0  0  0  0  0  0  0  0
  -21.6722  -15.3742   22.4095 N   0  0  0  0  0  0  0  0  0  0  0  0
  -23.5102  -30.1118   22.8910 N   0  0  0  0  0  0  0  0  0  0  0  0
  -25.4938  -30.9419   18.0547 N   0  0  0  0  0  0  0  0  0  0  0  0
  -16.8302  -26.9259   20.1138 N   0  0  0  0  0  0  0  0  0  0  0  0
  -27.7478  -27.4970   16.1976 N   0  0  0  0  0  0  0  0  0  0  0  0
  -21.3742  -29.2963   22.3124 N   0  0  0  0  0  0  0  0  0  0  0  0
  -24.9743  -14.9238   20.9298 N   0  0  0  0  0  0  0  0  0  0  0  0
  -19.0243  -14.2329   24.1828 N   0  0  0  0  0  0  0  0  0  0  0  0
  -18.0273  -25.0532   20.8885 N   0  3  0  0  0  0  0  0  0  0  0  0
  -17.4978  -16.6227   26.4247 N   0  3  0  0  0  0  0  0  0  0  0  0
  -26.8827  -29.5840   15.8043 O   0  0  0  0  0  0  0  0  0  0  0  0
  -22.7788  -14.5104   20.2730 O   0  0  0  0  0  0  0  0  0  0  0  0
  -21.7485  -13.4625   23.7422 O   0  0  0  0  0  0  0  0  0  0  0  0
  -17.8478  -16.1645   23.6708 O   0  0  0  0  0  0  0  0  0  0  0  0
  -21.6298  -30.8544   24.0120 O   0  0  0  0  0  0  0  0  0  0  0  0
  -29.2224  -22.7691   18.7486 O   0  0  0  0  0  0  0  0  0  0  0  0
  -20.6970  -20.7199   19.4897 O   0  0  0  0  0  0  0  0  0  1  0  0
  -32.5750  -21.3633   22.8944 F   0  0  0  0  0  0  0  0  0  0  0  0
  -31.8907  -22.2117   18.2881 F   0  0  0  0  0  0  0  0  0  0  0  0
  -16.2802  -26.5694   23.6584 Cl  0  0  0  0  0  0  0  0  0  0  0  0
  1  2  1  0  0  0  0
  1  5  2  0  0  0  0
  2  6  2  0  0  0  0
  3  9  2  0  0  0  0
  3 18  1  0  0  0  0
  4 10  1  0  0  0  0
  4 18  2  0  0  0  0
  5 21  1  0  0  0  0
  6 23  1  0  0  0  0
  7 11  2  0  0  0  0
  7 22  1  0  0  0  0
  8 14  2  0  0  0  0
  8 25  1  0  0  0  0
  9 26  1  0  0  0  0
 10 26  2  0  0  0  0
 11 27  1  0  0  0  0
 12 13  2  0  0  0  0
 12 28  1  0  0  0  0
 13 29  1  0  0  0  0
 14 31  1  0  0  0  0
 15 19  1  0  0  0  0
 15 25  2  0  0  0  0
 16 24  1  0  0  0  0
 16 27  2  0  0  0  0
 17 29  2  0  0  0  0
 17 30  1  0  0  0  0
 18 32  1  0  0  0  0
 19 31  2  0  0  0  0
 19 36  1  0  0  0  0
 20 32  1  0  0  0  0
 20 33  2  0  0  0  0
 20 37  1  0  0  0  0
 21 23  2  0  0  0  0
 21 42  1  0  0  0  0
 22 24  2  0  0  0  0
 22 43  1  0  0  0  0
 23 51  1  0  0  0  0
 24 44  1  0  0  0  0
 25 71  1  0  0  0  0
 26 81  1  0  0  0  0
 27 82  1  0  0  0  0
 28 30  2  0  0  0  0
 28 81  1  0  0  0  0
 29 83  1  0  0  0  0
 30 84  1  0  0  0  0
 31 85  1  0  0  0  0
 32 64  2  0  0  0  0
 33 65  1  0  0  0  0
 33 68  1  0  0  0  0
 34 35  2  0  0  0  0
 34 59  1  0  0  0  0
 35 60  1  0  0  0  0
 36 69  1  0  0  0  0
 36 74  2  0  0  0  0
 37 70  1  0  0  0  0
 37 76  2  0  0  0  0
 38 52  1  0  0  0  0
 38 72  1  0  0  0  0
 38 77  2  0  0  0  0
 39 61  1  0  0  0  0
 39 66  1  0  0  0  0
 39 78  2  0  0  0  0
 40 62  1  0  0  0  0
 40 73  1  0  0  0  0
 40 79  2  0  0  0  0
 41 67  1  0  0  0  0
 41 71  1  0  0  0  0
 41 80  2  0  0  0  0
 42 45  1  0  0  0  0
 43 52  1  0  0  0  0
 44 66  1  0  0  0  0
 45 47  1  0  0  0  0
 46 48  1  0  0  0  0
 46 49  1  0  0  0  0
 47 51  1  0  0  0  0
 48 53  1  0  0  0  0
 49 67  1  0  0  0  0
 50 53  1  0  0  0  0
 50 67  1  0  0  0  0
 51 72  1  0  0  0  0
 52 66  1  0  0  0  0
 53 65  1  0  0  0  0
 54 62  1  0  0  0  0
 55 63  1  0  0  0  0
 56 63  1  0  0  0  0
 57 63  1  0  0  0  0
 58 75  1  0  0  0  0
 59 74  1  0  0  0  0
 60 82  1  0  0  0  0
 61 63  1  0  0  0  0
 61 73  1  0  0  0  0
 62 75  1  0  0  0  0
 64 65  1  0  0  0  0
M  CHG  2  74   1  75   1
M  ISO  4  41 100  60 101  71 100  82 101
M  END
> <Batch ID>
0048

> <Smiles>
CNC(C)C(=O)NC(C(=O)N1Cc2cc([101O:1][101CH2:1]C=CCNC(=N)c3cc([100NH:0][100C:0](=O)N4CCCC(n5nc(-c6ccc(Oc7ccc(F)cc7F)cc6)c(C(N)=O)c5N)C4)ccc3Cl)ccc2CC1C(=O)NC1CCCc2ccccc21)C(C)(C)C

> <Shape>
0.203

> <Color>
0.082

> <Negative vol penalty>
0.000

$$$$

  -OEChem-04042322293D

 91100  0     1  0  0  0  0  0999 V2000
  -16.8149  -30.0140   23.7415 C   0  0  0  0  0  0  0  0  0  0  0  0
  -17.7499  -29.8757   24.7624 C   0  0  0  0  0  0  0  0  0  0  0  0
  -27.2421  -17.3029   19.5133 C   0  0  0  0  0  0  0  0  0  0  0  0
  -28.4536  -17.6129   21.5805 C   0  0  0  0  0  0  0  0  0  0  0  0
  -17.0451  -29.4192   22.5017 C   0  0  0  0  0  0  0  0  0  0  0  0
  -18.9151  -29.1415   24.5444 C   0  0  0  0  0  0  0  0  0  0  0  0
  -25.8213  -28.9376   26.4363 C   0  0  0  0  0  0  0  0  0  0  0  0
  -34.1876  -24.3821   23.8215 C   0  0  0  0  0  0  0  0  0  0  0  0
  -27.1976  -15.9283   19.7455 C   0  0  0  0  0  0  0  0  0  0  0  0
  -28.4090  -16.2382   21.8127 C   0  0  0  0  0  0  0  0  0  0  0  0
  -26.7723  -28.0558   26.9479 C   0  0  0  0  0  0  0  0  0  0  0  0
  -25.4041  -13.7793   21.6424 C   0  0  0  0  0  0  0  0  0  0  0  0
  -24.1899  -13.1255   21.4331 C   0  0  0  0  0  0  0  0  0  0  0  0
  -34.8783  -24.5432   25.0226 C   0  0  0  0  0  0  0  0  0  0  0  0
  -27.1007  -27.1390   24.7409 C   0  0  0  0  0  0  0  0  0  0  0  0
  -25.2325  -11.7233   19.7646 C   0  0  0  0  0  0  0  0  0  0  0  0
  -27.8702  -18.1453   20.4308 C   0  0  0  0  0  0  0  0  0  0  0  0
  -26.8232  -20.4394   20.0458 C   0  0  0  0  0  0  0  0  0  0  0  0
  -18.2183  -28.6854   22.2653 C   0  0  0  0  0  0  0  0  0  0  0  0
  -25.4944  -28.9193   25.0728 C   0  0  0  0  0  0  0  0  0  0  0  0
  -19.1606  -28.5352   23.3007 C   0  0  0  0  0  0  0  0  0  0  0  0
  -26.1470  -28.0234   24.2140 C   0  0  0  0  0  0  0  0  0  0  0  0
  -32.2203  -23.6961   25.0447 C   0  0  0  0  0  0  0  0  0  0  0  0
  -32.9110  -23.8571   26.2458 C   0  0  0  0  0  0  0  0  0  0  0  0
  -32.8586  -23.9586   23.8326 C   0  0  0  0  0  0  0  0  0  0  0  0
  -27.7810  -15.3959   20.8952 C   0  0  0  0  0  0  0  0  0  0  0  0
  -27.4101  -27.1543   26.1007 C   0  0  0  0  0  0  0  0  0  0  0  0
  -26.5325  -13.4051   20.9128 C   0  0  0  0  0  0  0  0  0  0  0  0
  -24.1040  -12.0975   20.4943 C   0  0  0  0  0  0  0  0  0  0  0  0
  -26.4467  -12.3771   19.9739 C   0  0  0  0  0  0  0  0  0  0  0  0
  -34.2400  -24.2807   26.2348 C   0  0  0  0  0  0  0  0  0  0  0  0
  -27.9170  -19.5653   20.1912 C   0  0  0  0  0  0  0  0  0  0  0  0
  -27.3935  -21.6713   19.8371 C   0  0  0  0  0  0  0  0  0  0  0  0
  -31.1036  -25.6779   28.0385 C   0  0  0  0  0  0  0  0  0  0  0  0
  -33.2908  -28.2067   26.5198 C   0  0  0  0  0  0  0  0  0  0  0  0
  -31.5072  -26.7979   27.4152 C   0  0  0  0  0  0  0  0  0  0  0  0
  -32.8896  -27.0915   27.1403 C   0  0  0  0  0  0  0  0  0  0  0  0
  -25.4172  -20.1625   20.0949 C   0  0  0  0  0  0  0  0  0  0  0  0
  -22.8490  -28.3415   23.4079 C   0  0  0  0  0  0  0  0  0  0  0  0
  -24.6908  -29.2644   20.9023 C   0  0  0  0  0  0  0  0  0  0  0  0
  -28.0845  -28.7409   19.7950 C   0  0  0  0  0  0  0  0  0  0  0  0
  -32.6813  -24.0259   21.3205 C   0  0  0  0  0  0  0  0  0  0  0  0
  -18.4011  -28.0210   20.9238 C   0  0  0  0  0  0  0  0  0  0  0  0
  -24.4857  -29.8952   24.5318 C   0  0  0  0  0  0  0  0  0  0  0  0
  -25.8466  -27.9774   22.7388 C   0  0  0  0  0  0  0  0  0  0  0  0
  -19.8359  -27.5739   20.6559 C   0  0  0  0  0  0  0  0  0  0  0  0
  -31.3321  -23.7186   18.0399 C   0  0  0  0  0  0  0  0  0  0  0  0
  -30.6085  -23.9464   30.2678 C   0  0  0  0  0  0  0  0  0  0  0  0
  -20.4036  -26.8457   21.8701 C   0  0  0  0  0  0  0  0  0  0  0  0
  -29.5465  -24.9592   29.8473 C   0  0  0  0  0  0  0  0  0  0  0  0
  -30.1998  -22.7028   18.2072 C   0  0  0  0  0  0  0  0  0  0  0  0
  -32.5310  -23.3825   18.9250 C   0  0  0  0  0  0  0  0  0  0  0  0
  -31.0863  -22.1760   20.5145 C   0  0  0  0  0  0  0  0  0  0  0  0
  -32.0110  -24.4291   29.9192 C   0  0  0  0  0  0  0  0  0  0  0  0
  -20.4483  -27.7673   23.0949 C   0  0  1  0  0  0  0  0  0  0  0  0
  -29.6622  -25.3116   28.3566 C   0  0  1  0  0  0  0  0  0  0  0  0
  -23.8576  -29.4390   23.2185 C   0  0  1  0  0  0  0  0  0  0  0  0
  -29.8313  -22.5090   19.6912 C   0  0  2  0  0  0  0  0  0  0  0  0
  -30.6689  -21.7451   25.3153 C   0  0  0  0  0  0  0  0  0  0  0  0
  -29.5736  -30.1699   18.3674 C   0  0  0  0  0  0  0  0  0  0  0  0
  -23.6485  -27.5483   18.6048 C   0  0  0  0  0  0  0  0  0  0  0  0
  -25.9464  -27.6045   17.6125 C   0  0  0  0  0  0  0  0  0  0  0  0
  -24.6637  -29.7240   17.9046 C   0  0  0  0  0  0  0  0  0  0  0  0
  -30.2084  -28.7891   21.8555 C   0  0  0  0  0  0  0  0  0  0  0  0
  -30.7937  -23.2422   25.0568 C   0  0  0  0  0  0  0  0  0  0  0  0
  -32.2117  -23.5707   27.5420 C   0  0  0  0  0  0  0  0  0  0  0  0
  -28.6099  -26.3656   27.9965 C   0  0  0  0  0  0  0  0  0  1  0  0
  -25.6144  -28.5603   19.9378 C   0  0  1  0  0  0  0  0  0  0  0  0
  -29.2056  -29.7644   19.7862 C   0  0  2  0  0  0  0  0  0  0  0  0
  -24.9641  -28.3496   18.5413 C   0  0  0  0  0  0  0  0  0  0  0  0
  -29.0933  -20.1890   20.0839 N   0  0  0  0  0  0  0  0  0  0  0  0
  -28.7417  -21.4681   19.8687 N   0  0  0  0  0  0  0  0  0  0  0  0
  -24.8484  -28.9473   22.2589 N   0  0  0  0  0  0  0  0  0  0  0  0
  -32.1066  -23.2176   20.3169 N   0  0  0  0  0  0  0  0  0  0  0  0
  -26.8681  -22.8978   19.6314 N   0  0  0  0  0  0  0  0  0  0  0  0
  -25.0037  -18.8421   20.3183 N   0  0  0  0  0  0  0  0  0  0  0  0
  -32.1760  -23.8020   22.6008 N   0  0  0  0  0  0  0  0  0  0  0  0
  -21.5709  -28.6761   23.0030 N   0  0  0  0  0  0  0  0  0  0  0  0
  -26.8477  -29.3393   19.9113 N   0  0  0  0  0  0  0  0  0  0  0  0
  -32.1485  -24.7649   28.4539 N   0  3  1  0  0  0  0  0  0  0  0  0
  -30.4204  -29.2076   20.4459 N   0  3  0  0  0  0  0  0  0  0  0  0
  -24.5533  -21.0567   19.9289 O   0  0  0  0  0  0  0  0  0  0  0  0
  -23.2043  -27.2701   23.8847 O   0  0  0  0  0  0  0  0  0  0  0  0
  -23.8649  -30.0716   20.4687 O   0  0  0  0  0  0  0  0  0  0  0  0
  -28.2856  -27.5319   19.7038 O   0  0  0  0  0  0  0  0  0  0  0  0
  -33.5377  -24.8745   21.0590 O   0  0  0  0  0  0  0  0  0  0  0  0
  -27.7375  -14.0546   21.1222 O   0  0  0  0  0  0  0  0  0  0  0  0
  -28.3382  -26.2921   26.5975 O   0  0  0  0  0  0  0  0  0  1  0  0
  -22.9383  -11.4688   20.2945 F   0  0  0  0  0  0  0  0  0  0  0  0
  -27.5276  -12.0124   19.2708 F   0  0  0  0  0  0  0  0  0  0  0  0
  -35.1317  -24.4904   27.6983 Cl  0  0  0  0  0  0  0  0  0  0  0  0
  1  2  1  0  0  0  0
  1  5  2  0  0  0  0
  2  6  2  0  0  0  0
  3  9  2  0  0  0  0
  3 17  1  0  0  0  0
  4 10  1  0  0  0  0
  4 17  2  0  0  0  0
  5 19  1  0  0  0  0
  6 21  1  0  0  0  0
  7 11  2  0  0  0  0
  7 20  1  0  0  0  0
  8 14  1  0  0  0  0
  8 25  2  0  0  0  0
  9 26  1  0  0  0  0
 10 26  2  0  0  0  0
 11 27  1  0  0  0  0
 12 13  2  0  0  0  0
 12 28  1  0  0  0  0
 13 29  1  0  0  0  0
 14 31  2  0  0  0  0
 15 22  1  0  0  0  0
 15 27  2  0  0  0  0
 16 29  2  0  0  0  0
 16 30  1  0  0  0  0
 17 32  1  0  0  0  0
 18 32  1  0  0  0  0
 18 33  2  0  0  0  0
 18 38  1  0  0  0  0
 19 21  2  0  0  0  0
 19 43  1  0  0  0  0
 20 22  2  0  0  0  0
 20 44  1  0  0  0  0
 21 55  1  0  0  0  0
 22 45  1  0  0  0  0
 23 24  2  0  0  0  0
 23 25  1  0  0  0  0
 23 65  1  0  0  0  0
 24 31  1  0  0  0  0
 24 66  1  0  0  0  0
 25 77  1  0  0  0  0
 26 87  1  0  0  0  0
 27 88  1  0  0  0  0
 28 30  2  0  0  0  0
 28 87  1  0  0  0  0
 29 89  1  0  0  0  0
 30 90  1  0  0  0  0
 31 91  1  0  0  0  0
 32 71  2  0  0  0  0
 33 72  1  0  0  0  0
 33 75  1  0  0  0  0
 34 36  2  0  0  0  0
 34 56  1  0  0  0  0
 34 80  1  0  0  0  0
 35 37  2  0  0  0  0
 36 37  1  0  0  0  0
 38 76  1  0  0  0  0
 38 82  2  0  0  0  0
 39 57  1  0  0  0  0
 39 78  1  0  0  0  0
 39 83  2  0  0  0  0
 40 68  1  0  0  0  0
 40 73  1  0  0  0  0
 40 84  2  0  0  0  0
 41 69  1  0  0  0  0
 41 79  1  0  0  0  0
 41 85  2  0  0  0  0
 42 74  1  0  0  0  0
 42 77  1  0  0  0  0
 42 86  2  0  0  0  0
 43 46  1  0  0  0  0
 44 57  1  0  0  0  0
 45 73  1  0  0  0  0
 46 49  1  0  0  0  0
 47 51  1  0  0  0  0
 47 52  1  0  0  0  0
 48 50  1  0  0  0  0
 48 54  1  0  0  0  0
 49 55  1  0  0  0  0
 50 56  1  0  0  0  0
 51 58  1  0  0  0  0
 52 74  1  0  0  0  0
 53 58  1  0  0  0  0
 53 74  1  0  0  0  0
 54 80  1  0  0  0  0
 55 78  1  0  0  0  0
 56 67  1  0  0  0  0
 57 73  1  0  0  0  0
 58 72  1  0  0  0  0
 59 65  1  0  0  0  0
 60 69  1  0  0  0  0
 61 70  1  0  0  0  0
 62 70  1  0  0  0  0
 63 70  1  0  0  0  0
 64 81  1  0  0  0  0
 66 80  1  0  0  0  0
 67 88  1  0  0  0  0
 68 70  1  0  0  0  0
 68 79  1  0  0  0  0
 69 81  1  0  0  0  0
 71 72  1  0  0  0  0
M  CHG  2  80   1  81   1
M  ISO  4  42 100  67 101  77 100  88 101
M  END
> <Batch ID>
0048

> <Smiles>
C=CC=C1C([101CH2:1][101O:1]c2ccc3c(c2)CN(C(=O)C(NC(=O)C(C)NC)C(C)(C)C)C(C(=O)NC2CCCc4ccccc42)C3)CCCN1Cc1c(Cl)ccc([100NH:0][100C:0](=O)N2CCCC(n3nc(-c4ccc(Oc5ccc(F)cc5F)cc4)c(C(N)=O)c3N)C2)c1CC

> <Shape>
0.224

> <Color>
0.082

> <Negative vol penalty>
0.000

$$$$

  -OEChem-04042322293D

 88 97  0     1  0  0  0  0  0999 V2000
  -29.4985  -35.2801   23.5241 C   0  0  0  0  0  0  0  0  0  0  0  0
  -29.4752  -33.9084   23.2931 C   0  0  0  0  0  0  0  0  0  0  0  0
  -22.5853  -11.8922   22.6120 C   0  0  0  0  0  0  0  0  0  0  0  0
  -22.2329  -13.9557   21.4059 C   0  0  0  0  0  0  0  0  0  0  0  0
  -28.3494  -35.9299   23.9727 C   0  0  0  0  0  0  0  0  0  0  0  0
  -28.3029  -33.1855   23.5117 C   0  0  0  0  0  0  0  0  0  0  0  0
  -27.3015  -29.9290   19.7651 C   0  0  0  0  0  0  0  0  0  0  0  0
  -21.3134  -12.0032   23.1737 C   0  0  0  0  0  0  0  0  0  0  0  0
  -20.9609  -14.0667   21.9676 C   0  0  0  0  0  0  0  0  0  0  0  0
  -28.0246  -28.7371   19.7472 C   0  0  0  0  0  0  0  0  0  0  0  0
  -17.8960  -12.7320   21.4725 C   0  0  0  0  0  0  0  0  0  0  0  0
  -16.8434  -13.0799   20.6259 C   0  0  0  0  0  0  0  0  0  0  0  0
  -26.1505  -27.5921   20.7453 C   0  0  0  0  0  0  0  0  0  0  0  0
  -28.4986  -19.8844   18.3389 C   0  0  0  0  0  0  0  0  0  0  0  0
  -27.2871  -21.0875   16.6296 C   0  0  0  0  0  0  0  0  0  0  0  0
  -26.7967  -18.7586   17.0454 C   0  0  0  0  0  0  0  0  0  0  0  0
  -16.4274  -15.0544   21.9545 C   0  0  0  0  0  0  0  0  0  0  0  0
  -23.0451  -12.8684   21.7281 C   0  0  0  0  0  0  0  0  0  0  0  0
  -24.8439  -11.7085   20.3401 C   0  0  0  0  0  0  0  0  0  0  0  0
  -27.1598  -35.2162   24.1877 C   0  0  0  0  0  0  0  0  0  0  0  0
  -25.9993  -29.9637   20.2842 C   0  0  0  0  0  0  0  0  0  0  0  0
  -27.1372  -33.8262   23.9649 C   0  0  0  0  0  0  0  0  0  0  0  0
  -25.4121  -28.7852   20.7663 C   0  0  0  0  0  0  0  0  0  0  0  0
  -28.2583  -21.0617   17.6305 C   0  0  0  0  0  0  0  0  0  0  0  0
  -27.7678  -18.7328   18.0463 C   0  0  0  0  0  0  0  0  0  0  0  0
  -20.5012  -13.0905   22.8515 C   0  0  0  0  0  0  0  0  0  0  0  0
  -27.4502  -27.5690   20.2400 C   0  0  0  0  0  0  0  0  0  0  0  0
  -18.2142  -13.5454   22.5602 C   0  0  0  0  0  0  0  0  0  0  0  0
  -16.1091  -14.2411   20.8669 C   0  0  0  0  0  0  0  0  0  0  0  0
  -17.4799  -14.7066   22.8011 C   0  0  0  0  0  0  0  0  0  0  0  0
  -26.5563  -19.9360   16.3370 C   0  0  0  0  0  0  0  0  0  0  0  0
  -24.3590  -12.7545   21.1479 C   0  0  0  0  0  0  0  0  0  0  0  0
  -26.1366  -12.0702   20.0493 C   0  0  0  0  0  0  0  0  0  0  0  0
  -29.6627  -23.8081   19.7388 C   0  0  0  0  0  0  0  0  0  0  0  0
  -30.8440  -21.6272   22.4467 C   0  0  0  0  0  0  0  0  0  0  0  0
  -30.3650  -23.3607   20.7907 C   0  0  0  0  0  0  0  0  0  0  0  0
  -30.1435  -22.0728   21.3978 C   0  0  0  0  0  0  0  0  0  0  0  0
  -24.1847  -10.5166   19.8925 C   0  0  0  0  0  0  0  0  0  0  0  0
  -24.5876  -31.4688   22.7019 C   0  0  0  0  0  0  0  0  0  0  0  0
  -21.9039  -30.1482   21.4466 C   0  0  0  0  0  0  0  0  0  0  0  0
  -20.9440  -26.9671   20.0408 C   0  0  0  0  0  0  0  0  0  0  0  0
  -28.9405  -17.3404   19.7877 C   0  0  0  0  0  0  0  0  0  0  0  0
  -25.9562  -35.9543   24.7182 C   0  0  0  0  0  0  0  0  0  0  0  0
  -25.2227  -31.2518   20.2718 C   0  0  0  0  0  0  0  0  0  0  0  0
  -24.0098  -28.7650   21.3155 C   0  0  0  0  0  0  0  0  0  0  0  0
  -29.8987  -25.1562   19.1078 C   0  0  0  0  0  0  0  0  0  0  0  0
  -24.6504  -35.1783   24.5668 C   0  0  0  0  0  0  0  0  0  0  0  0
  -29.8195  -14.5598   21.8305 C   0  0  0  0  0  0  0  0  0  0  0  0
  -24.8315  -33.7342   25.0237 C   0  0  0  0  0  0  0  0  0  0  0  0
  -28.5652  -13.6832   21.8088 C   0  0  0  0  0  0  0  0  0  0  0  0
  -27.4854  -25.0441   18.3574 C   0  0  0  0  0  0  0  0  0  0  0  0
  -29.4716  -16.0473   21.8422 C   0  0  0  0  0  0  0  0  0  0  0  0
  -27.3070  -15.6038   20.7528 C   0  0  0  0  0  0  0  0  0  0  0  0
  -27.3178  -23.7327   19.1236 C   0  0  0  0  0  0  0  0  0  0  0  0
  -25.8779  -33.0116   24.1667 C   0  0  1  0  0  0  0  0  0  0  0  0
  -24.0925  -31.2780   21.2961 C   0  0  1  0  0  0  0  0  0  0  0  0
  -27.6073  -14.0980   20.6748 C   0  0  2  0  0  0  0  0  0  0  0  0
  -28.5855  -25.9233   18.9518 C   0  0  1  0  0  0  0  0  0  1  0  0
  -19.1618  -26.3928   18.3700 C   0  0  0  0  0  0  0  0  0  0  0  0
  -20.1780  -29.6123   23.9051 C   0  0  0  0  0  0  0  0  0  0  0  0
  -19.1821  -27.6603   22.6944 C   0  0  0  0  0  0  0  0  0  0  0  0
  -18.8957  -29.9664   21.7874 C   0  0  0  0  0  0  0  0  0  0  0  0
  -22.8874  -25.6296   18.2539 C   0  0  0  0  0  0  0  0  0  0  0  0
  -29.0449  -22.3000   17.9447 C   0  0  0  0  0  0  0  0  0  0  0  0
  -21.1593  -28.8496   21.6421 C   0  0  1  0  0  0  0  0  0  0  0  0
  -20.6415  -26.6720   18.5827 C   0  0  2  0  0  0  0  0  0  0  0  0
  -19.8819  -29.0239   22.5112 C   0  0  0  0  0  0  0  0  0  0  0  0
  -25.2696  -13.7091   21.3571 N   0  0  0  0  0  0  0  0  0  0  0  0
  -26.3397  -13.2642   20.6765 N   0  0  0  0  0  0  0  0  0  0  0  0
  -23.2935  -30.0510   21.2877 N   0  0  0  0  0  0  0  0  0  0  0  0
  -28.5646  -16.3673   20.7378 N   0  0  0  0  0  0  0  0  0  0  0  0
  -27.1081  -11.4802   19.3209 N   0  0  0  0  0  0  0  0  0  0  0  0
  -22.8561  -10.3009   20.2835 N   0  0  0  0  0  0  0  0  0  0  0  0
  -28.0127  -17.5367   18.7653 N   0  0  0  0  0  0  0  0  0  0  0  0
  -25.3109  -32.6310   22.8908 N   0  0  0  0  0  0  0  0  0  0  0  0
  -20.9057  -28.3195   20.3067 N   0  0  0  0  0  0  0  0  0  0  0  0
  -28.6140  -22.9631   19.2237 N   0  3  1  0  0  0  0  0  0  0  0  0
  -21.4148  -25.4836   18.1236 N   0  3  0  0  0  0  0  0  0  0  0  0
  -24.7620   -9.6600   19.1809 O   0  0  0  0  0  0  0  0  0  0  0  0
  -24.3311  -30.6249   23.5526 O   0  0  0  0  0  0  0  0  0  0  0  0
  -21.2748  -31.2091   21.4282 O   0  0  0  0  0  0  0  0  0  0  0  0
  -21.1860  -26.0857   20.8625 O   0  0  0  0  0  0  0  0  0  0  0  0
  -30.0191  -17.9349   19.8596 O   0  0  0  0  0  0  0  0  0  0  0  0
  -19.2600  -13.1991   23.3993 O   0  0  0  0  0  0  0  0  0  0  0  0
  -28.1541  -26.4045   20.2242 O   0  0  0  0  0  0  0  0  0  1  0  0
  -15.0994  -14.5758   20.0529 F   0  0  0  0  0  0  0  0  0  0  0  0
  -17.7817  -15.4925   23.8437 F   0  0  0  0  0  0  0  0  0  0  0  0
  -25.3593  -19.9670   15.1008 Cl  0  0  0  0  0  0  0  0  0  0  0  0
  1  2  1  0  0  0  0
  1  5  2  0  0  0  0
  2  6  2  0  0  0  0
  3  8  2  0  0  0  0
  3 18  1  0  0  0  0
  4  9  1  0  0  0  0
  4 18  2  0  0  0  0
  5 20  1  0  0  0  0
  6 22  1  0  0  0  0
  7 10  2  0  0  0  0
  7 21  1  0  0  0  0
  8 26  1  0  0  0  0
  9 26  2  0  0  0  0
 10 27  1  0  0  0  0
 11 12  2  0  0  0  0
 11 28  1  0  0  0  0
 12 29  1  0  0  0  0
 13 23  1  0  0  0  0
 13 27  2  0  0  0  0
 14 24  2  0  0  0  0
 14 25  1  0  0  0  0
 15 24  1  0  0  0  0
 15 31  2  0  0  0  0
 16 25  2  0  0  0  0
 16 31  1  0  0  0  0
 17 29  2  0  0  0  0
 17 30  1  0  0  0  0
 18 32  1  0  0  0  0
 19 32  1  0  0  0  0
 19 33  2  0  0  0  0
 19 38  1  0  0  0  0
 20 22  2  0  0  0  0
 20 43  1  0  0  0  0
 21 23  2  0  0  0  0
 21 44  1  0  0  0  0
 22 55  1  0  0  0  0
 23 45  1  0  0  0  0
 24 64  1  0  0  0  0
 25 74  1  0  0  0  0
 26 84  1  0  0  0  0
 27 85  1  0  0  0  0
 28 30  2  0  0  0  0
 28 84  1  0  0  0  0
 29 86  1  0  0  0  0
 30 87  1  0  0  0  0
 31 88  1  0  0  0  0
 32 68  2  0  0  0  0
 33 69  1  0  0  0  0
 33 72  1  0  0  0  0
 34 36  2  0  0  0  0
 34 46  1  0  0  0  0
 34 77  1  0  0  0  0
 35 37  2  0  0  0  0
 36 37  1  0  0  0  0
 38 73  1  0  0  0  0
 38 79  2  0  0  0  0
 39 56  1  0  0  0  0
 39 75  1  0  0  0  0
 39 80  2  0  0  0  0
 40 65  1  0  0  0  0
 40 70  1  0  0  0  0
 40 81  2  0  0  0  0
 41 66  1  0  0  0  0
 41 76  1  0  0  0  0
 41 82  2  0  0  0  0
 42 71  1  0  0  0  0
 42 74  1  0  0  0  0
 42 83  2  0  0  0  0
 43 47  1  0  0  0  0
 44 56  1  0  0  0  0
 45 70  1  0  0  0  0
 46 58  1  0  0  0  0
 47 49  1  0  0  0  0
 48 50  1  0  0  0  0
 48 52  1  0  0  0  0
 49 55  1  0  0  0  0
 50 57  1  0  0  0  0
 51 54  1  0  0  0  0
 51 58  1  0  0  0  0
 52 71  1  0  0  0  0
 53 57  1  0  0  0  0
 53 71  1  0  0  0  0
 54 77  1  0  0  0  0
 55 75  1  0  0  0  0
 56 70  1  0  0  0  0
 57 69  1  0  0  0  0
 58 85  1  0  0  0  0
 59 66  1  0  0  0  0
 60 67  1  0  0  0  0
 61 67  1  0  0  0  0
 62 67  1  0  0  0  0
 63 78  1  0  0  0  0
 64 77  1  0  0  0  0
 65 67  1  0  0  0  0
 65 76  1  0  0  0  0
 66 78  1  0  0  0  0
 68 69  1  0  0  0  0
M  CHG  2  77   1  78   1
M  ISO  4  42 100  58 101  74 100  85 101
M  END
> <Batch ID>
0048

> <Smiles>
C=CC=C1C[101CH:1]([101O:1]c2ccc3c(c2)CN(C(=O)C(NC(=O)C(C)NC)C(C)(C)C)C(C(=O)NC2CCCc4ccccc42)C3)CCN1Cc1cc(Cl)cc([100NH:0][100C:0](=O)N2CCCC(n3nc(-c4ccc(Oc5ccc(F)cc5F)cc4)c(C(N)=O)c3N)C2)c1

> <Shape>
0.307

> <Color>
0.079

> <Negative vol penalty>
0.000

$$$$

  -OEChem-04042322293D

 87 95  0     1  0  0  0  0  0999 V2000
  -23.7544  -18.8993   19.7405 C   0  0  0  0  0  0  0  0  0  0  0  0
  -24.7996  -19.2922   20.5703 C   0  0  0  0  0  0  0  0  0  0  0  0
  -23.0789   -9.8669   19.9052 C   0  0  0  0  0  0  0  0  0  0  0  0
  -23.8704   -9.8028   22.1870 C   0  0  0  0  0  0  0  0  0  0  0  0
  -23.7850  -19.2191   18.3838 C   0  0  0  0  0  0  0  0  0  0  0  0
  -25.8766  -20.0043   20.0435 C   0  0  0  0  0  0  0  0  0  0  0  0
  -27.2184  -23.9288   22.9491 C   0  0  0  0  0  0  0  0  0  0  0  0
  -22.3570   -8.6934   20.1226 C   0  0  0  0  0  0  0  0  0  0  0  0
  -23.1484   -8.6293   22.4044 C   0  0  0  0  0  0  0  0  0  0  0  0
  -27.9703  -23.6491   24.0894 C   0  0  0  0  0  0  0  0  0  0  0  0
  -20.0176   -5.9115   20.1822 C   0  0  0  0  0  0  0  0  0  0  0  0
  -18.7062   -5.8600   19.7098 C   0  0  0  0  0  0  0  0  0  0  0  0
  -30.4605  -19.9271   21.6805 C   0  0  0  0  0  0  0  0  0  0  0  0
  -29.9760  -24.3045   22.9202 C   0  0  0  0  0  0  0  0  0  0  0  0
  -30.4831  -17.8496   20.4475 C   0  0  0  0  0  0  0  0  0  0  0  0
  -18.1287   -7.7440   21.1077 C   0  0  0  0  0  0  0  0  0  0  0  0
  -23.8356  -10.4216   20.9373 C   0  0  0  0  0  0  0  0  0  0  0  0
  -30.1365  -19.2322   22.8456 C   0  0  0  0  0  0  0  0  0  0  0  0
  -24.1357  -12.9547   20.9054 C   0  0  0  0  0  0  0  0  0  0  0  0
  -24.8582  -19.9438   17.8420 C   0  0  0  0  0  0  0  0  0  0  0  0
  -27.8421  -24.3888   21.7804 C   0  0  0  0  0  0  0  0  0  0  0  0
  -25.9222  -20.3329   18.6780 C   0  0  0  0  0  0  0  0  0  0  0  0
  -29.2294  -24.5917   21.7672 C   0  0  0  0  0  0  0  0  0  0  0  0
  -29.9858  -17.8459   22.8117 C   0  0  0  0  0  0  0  0  0  0  0  0
  -30.1592  -17.1545   21.6127 C   0  0  0  0  0  0  0  0  0  0  0  0
  -22.3917   -8.0746   21.3722 C   0  0  0  0  0  0  0  0  0  0  0  0
  -29.3497  -23.8342   24.0741 C   0  0  0  0  0  0  0  0  0  0  0  0
  -20.3846   -6.8793   21.1174 C   0  0  0  0  0  0  0  0  0  0  0  0
  -17.7617   -6.7762   20.1726 C   0  0  0  0  0  0  0  0  0  0  0  0
  -19.4401   -7.7955   21.5801 C   0  0  0  0  0  0  0  0  0  0  0  0
  -30.6337  -19.2359   20.4813 C   0  0  0  0  0  0  0  0  0  0  0  0
  -24.5821  -11.6335   20.7132 C   0  0  0  0  0  0  0  0  0  0  0  0
  -25.2106  -13.7347   20.5553 C   0  0  0  0  0  0  0  0  0  0  0  0
  -29.9578  -19.9855   24.1030 C   0  0  0  0  0  0  0  0  0  0  0  0
  -22.8631  -13.4341   21.3598 C   0  0  0  0  0  0  0  0  0  0  0  0
  -28.1337  -23.2900   18.8121 C   0  0  0  0  0  0  0  0  0  0  0  0
  -29.5286  -26.1730   18.2976 C   0  0  0  0  0  0  0  0  0  0  0  0
  -31.1851  -28.8620   19.5906 C   0  0  0  0  0  0  0  0  0  0  0  0
  -30.6614  -14.8626   20.6955 C   0  0  0  0  0  0  0  0  0  0  0  0
  -24.8698  -20.2251   16.3603 C   0  0  0  0  0  0  0  0  0  0  0  0
  -27.0135  -24.7114   20.5673 C   0  0  0  0  0  0  0  0  0  0  0  0
  -29.9445  -25.1029   20.5442 C   0  0  0  0  0  0  0  0  0  0  0  0
  -25.8670  -21.3069   15.9535 C   0  0  0  0  0  0  0  0  0  0  0  0
  -29.5527  -12.5187   18.2554 C   0  0  0  0  0  0  0  0  0  0  0  0
  -27.2172  -21.0668   16.6213 C   0  0  0  0  0  0  0  0  0  0  0  0
  -28.1240  -12.1882   18.6931 C   0  0  0  0  0  0  0  0  0  0  0  0
  -30.4807  -12.7186   19.4524 C   0  0  0  0  0  0  0  0  0  0  0  0
  -28.5818  -13.3609   20.8845 C   0  0  0  0  0  0  0  0  0  0  0  0
  -27.0960  -21.1280   18.1487 C   0  0  1  0  0  0  0  0  0  0  0  0
  -27.8170  -24.6853   19.2707 C   0  0  1  0  0  0  0  0  0  0  0  0
  -27.5956  -13.2148   19.7142 C   0  0  2  0  0  0  0  0  0  0  0  0
  -29.6381  -17.1036   24.0643 C   0  0  0  0  0  0  0  0  0  0  0  0
  -32.2284  -31.0429   18.9179 C   0  0  0  0  0  0  0  0  0  0  0  0
  -31.9185  -24.6699   17.1403 C   0  0  0  0  0  0  0  0  0  0  0  0
  -33.2630  -26.7689   17.3737 C   0  0  0  0  0  0  0  0  0  0  0  0
  -31.2685  -26.7275   15.8761 C   0  0  0  0  0  0  0  0  0  0  0  0
  -31.7815  -22.8708   27.4657 C   0  0  0  0  0  0  0  0  0  0  0  0
  -33.3391  -21.7555   25.8574 C   0  0  0  0  0  0  0  0  0  0  0  0
  -29.3468  -30.4079   21.3198 C   0  0  0  0  0  0  0  0  0  0  0  0
  -30.9749  -20.9084   26.1549 C   0  0  0  0  0  0  0  0  0  0  0  0
  -31.4311  -23.1294   24.9836 C   0  0  0  0  0  0  0  0  0  1  0  0
  -30.9371  -26.7095   18.3825 C   0  0  1  0  0  0  0  0  0  0  0  0
  -30.9689  -30.3550   19.4212 C   0  0  2  0  0  0  0  0  0  0  0  0
  -31.8338  -26.2075   17.2158 C   0  0  0  0  0  0  0  0  0  0  0  0
  -31.8743  -22.1603   26.1009 C   0  0  0  0  0  0  0  0  0  0  0  0
  -25.8424  -11.5737   20.2749 N   0  0  0  0  0  0  0  0  0  0  0  0
  -26.1970  -12.8671   20.1887 N   0  0  0  0  0  0  0  0  0  0  0  0
  -29.0915  -25.3980   19.3812 N   0  0  0  0  0  0  0  0  0  0  0  0
  -29.9176  -13.7075   20.3743 N   0  0  0  0  0  0  0  0  0  0  0  0
  -25.3988  -15.0712   20.5283 N   0  0  0  0  0  0  0  0  0  0  0  0
  -28.7383  -20.4360   24.3975 N   0  0  0  0  0  0  0  0  0  0  0  0
  -21.8705  -12.4968   21.6769 N   0  0  0  0  0  0  0  0  0  0  0  0
  -30.0109  -15.7465   21.5558 N   0  0  0  0  0  0  0  0  0  0  0  0
  -27.0190  -22.5026   18.5949 N   0  0  0  0  0  0  0  0  0  0  0  0
  -30.8168  -28.1613   18.4617 N   0  0  0  0  0  0  0  0  0  0  0  0
  -31.0269  -20.1812   24.8837 N   0  3  0  0  0  0  0  0  0  0  0  0
  -30.5832  -30.9734   20.7211 N   0  3  0  0  0  0  0  0  0  0  0  0
  -22.6081  -14.6578   21.4653 O   0  0  0  0  0  0  0  0  0  0  0  0
  -29.3026  -22.9531   18.6647 O   0  0  0  0  0  0  0  0  0  0  0  0
  -28.8391  -26.4379   17.3097 O   0  0  0  0  0  0  0  0  0  0  0  0
  -31.6389  -28.3673   20.6201 O   0  0  0  0  0  0  0  0  0  0  0  0
  -31.7811  -15.0667   20.2194 O   0  0  0  0  0  0  0  0  0  0  0  0
  -21.6871   -6.9296   21.5848 O   0  0  0  0  0  0  0  0  0  0  0  0
  -30.0861  -23.5613   25.1855 O   0  0  0  0  0  0  0  0  0  1  0  0
  -16.5028   -6.7275   19.7177 F   0  0  0  0  0  0  0  0  0  0  0  0
  -19.7870   -8.7282   22.4776 F   0  0  0  0  0  0  0  0  0  0  0  0
  -31.0335  -20.0936   19.0437 Cl  0  0  0  0  0  0  0  0  0  0  0  0
  1  2  1  0  0  0  0
  1  5  2  0  0  0  0
  2  6  2  0  0  0  0
  3  8  2  0  0  0  0
  3 17  1  0  0  0  0
  4  9  1  0  0  0  0
  4 17  2  0  0  0  0
  5 20  1  0  0  0  0
  6 22  1  0  0  0  0
  7 10  2  0  0  0  0
  7 21  1  0  0  0  0
  8 26  1  0  0  0  0
  9 26  2  0  0  0  0
 10 27  1  0  0  0  0
 11 12  2  0  0  0  0
 11 28  1  0  0  0  0
 12 29  1  0  0  0  0
 13 18  1  0  0  0  0
 13 31  2  0  0  0  0
 14 23  1  0  0  0  0
 14 27  2  0  0  0  0
 15 25  2  0  0  0  0
 15 31  1  0  0  0  0
 16 29  2  0  0  0  0
 16 30  1  0  0  0  0
 17 32  1  0  0  0  0
 18 24  2  0  0  0  0
 18 34  1  0  0  0  0
 19 32  1  0  0  0  0
 19 33  2  0  0  0  0
 19 35  1  0  0  0  0
 20 22  2  0  0  0  0
 20 40  1  0  0  0  0
 21 23  2  0  0  0  0
 21 41  1  0  0  0  0
 22 49  1  0  0  0  0
 23 42  1  0  0  0  0
 24 25  1  0  0  0  0
 24 52  1  0  0  0  0
 25 73  1  0  0  0  0
 26 83  1  0  0  0  0
 27 84  1  0  0  0  0
 28 30  2  0  0  0  0
 28 83  1  0  0  0  0
 29 85  1  0  0  0  0
 30 86  1  0  0  0  0
 31 87  1  0  0  0  0
 32 66  2  0  0  0  0
 33 67  1  0  0  0  0
 33 70  1  0  0  0  0
 34 71  1  0  0  0  0
 34 76  2  0  0  0  0
 35 72  1  0  0  0  0
 35 78  2  0  0  0  0
 36 50  1  0  0  0  0
 36 74  1  0  0  0  0
 36 79  2  0  0  0  0
 37 62  1  0  0  0  0
 37 68  1  0  0  0  0
 37 80  2  0  0  0  0
 38 63  1  0  0  0  0
 38 75  1  0  0  0  0
 38 81  2  0  0  0  0
 39 69  1  0  0  0  0
 39 73  1  0  0  0  0
 39 82  2  0  0  0  0
 40 43  1  0  0  0  0
 41 50  1  0  0  0  0
 42 68  1  0  0  0  0
 43 45  1  0  0  0  0
 44 46  1  0  0  0  0
 44 47  1  0  0  0  0
 45 49  1  0  0  0  0
 46 51  1  0  0  0  0
 47 69  1  0  0  0  0
 48 51  1  0  0  0  0
 48 69  1  0  0  0  0
 49 74  1  0  0  0  0
 50 68  1  0  0  0  0
 51 67  1  0  0  0  0
 53 63  1  0  0  0  0
 54 64  1  0  0  0  0
 55 64  1  0  0  0  0
 56 64  1  0  0  0  0
 57 65  1  0  0  0  0
 58 65  1  0  0  0  0
 59 77  1  0  0  0  0
 60 65  1  0  0  0  0
 60 76  1  0  0  0  0
 61 65  1  0  0  0  0
 61 84  1  0  0  0  0
 62 64  1  0  0  0  0
 62 75  1  0  0  0  0
 63 77  1  0  0  0  0
 66 67  1  0  0  0  0
M  CHG  2  76   1  77   1
M  ISO  4  39 100  61 101  73 100  84 101
M  END
> <Batch ID>
0048

> <Smiles>
CNC(C)C(=O)NC(C(=O)N1Cc2cc([101O:1][101CH2:1]C(C)(C)CNC(=N)c3cc(Cl)cc([100NH:0][100C:0](=O)N4CCCC(n5nc(-c6ccc(Oc7ccc(F)cc7F)cc6)c(C(N)=O)c5N)C4)c3C)ccc2CC1C(=O)NC1CCCc2ccccc21)C(C)(C)C

> <Shape>
0.214

> <Color>
0.202

> <Negative vol penalty>
0.000

$$$$

  -OEChem-04042322293D

 87 96  0     1  0  0  0  0  0999 V2000
  -16.5920  -29.3312   24.0266 C   0  0  0  0  0  0  0  0  0  0  0  0
  -16.9929  -28.9039   22.7658 C   0  0  0  0  0  0  0  0  0  0  0  0
  -24.1206  -12.6102   20.7255 C   0  0  0  0  0  0  0  0  0  0  0  0
  -26.3838  -13.4416   20.8789 C   0  0  0  0  0  0  0  0  0  0  0  0
  -17.5008  -29.9797   24.8601 C   0  0  0  0  0  0  0  0  0  0  0  0
  -18.3057  -29.1143   22.3427 C   0  0  0  0  0  0  0  0  0  0  0  0
  -25.8816  -28.7299   18.8989 C   0  0  0  0  0  0  0  0  0  0  0  0
  -24.6071  -11.3491   20.3813 C   0  0  0  0  0  0  0  0  0  0  0  0
  -26.8704  -12.1805   20.5347 C   0  0  0  0  0  0  0  0  0  0  0  0
  -27.1709  -29.0424   19.3278 C   0  0  0  0  0  0  0  0  0  0  0  0
  -25.2633   -7.8188   19.8145 C   0  0  0  0  0  0  0  0  0  0  0  0
  -24.6946   -6.7106   20.4423 C   0  0  0  0  0  0  0  0  0  0  0  0
  -26.6617  -28.1314   21.5026 C   0  0  0  0  0  0  0  0  0  0  0  0
  -28.8211  -25.1908   18.4981 C   0  0  0  0  0  0  0  0  0  0  0  0
  -29.1661  -22.6569   19.6130 C   0  0  0  0  0  0  0  0  0  0  0  0
  -25.3863   -7.5726   22.5907 C   0  0  0  0  0  0  0  0  0  0  0  0
  -25.0089  -13.6565   20.9743 C   0  0  0  0  0  0  0  0  0  0  0  0
  -23.7114  -15.2896   22.4430 C   0  0  0  0  0  0  0  0  0  0  0  0
  -18.8218  -30.2088   24.4414 C   0  0  0  0  0  0  0  0  0  0  0  0
  -24.9677  -28.1247   19.7734 C   0  0  0  0  0  0  0  0  0  0  0  0
  -19.2444  -29.7457   23.1788 C   0  0  0  0  0  0  0  0  0  0  0  0
  -25.3623  -27.8099   21.0816 C   0  0  0  0  0  0  0  0  0  0  0  0
  -30.0474  -24.8377   19.0611 C   0  0  0  0  0  0  0  0  0  0  0  0
  -27.9397  -23.0100   19.0501 C   0  0  0  0  0  0  0  0  0  0  0  0
  -25.9821  -11.1343   20.2859 C   0  0  0  0  0  0  0  0  0  0  0  0
  -27.5602  -28.7458   20.6307 C   0  0  0  0  0  0  0  0  0  0  0  0
  -25.8937   -8.8038   20.5748 C   0  0  0  0  0  0  0  0  0  0  0  0
  -24.7560   -6.5876   21.8303 C   0  0  0  0  0  0  0  0  0  0  0  0
  -30.2199  -23.5707   19.6185 C   0  0  0  0  0  0  0  0  0  0  0  0
  -25.9552   -8.6808   21.9629 C   0  0  0  0  0  0  0  0  0  0  0  0
  -27.7672  -24.2770   18.4927 C   0  0  0  0  0  0  0  0  0  0  0  0
  -24.5068  -14.9595   21.3294 C   0  0  0  0  0  0  0  0  0  0  0  0
  -23.5054  -16.6427   22.3289 C   0  0  0  0  0  0  0  0  0  0  0  0
  -32.5388  -27.3474   20.3704 C   0  0  0  0  0  0  0  0  0  0  0  0
  -33.7051  -26.9350   20.8895 C   0  0  0  0  0  0  0  0  0  0  0  0
  -23.2042  -14.4483   23.4873 C   0  0  0  0  0  0  0  0  0  0  0  0
  -22.1476  -28.9438   20.9899 C   0  0  0  0  0  0  0  0  0  0  0  0
  -22.2188  -25.9245   22.1736 C   0  0  0  0  0  0  0  0  0  0  0  0
  -24.6637  -23.7479   23.6909 C   0  0  0  0  0  0  0  0  0  0  0  0
  -26.9179  -20.7609   19.5807 C   0  0  0  0  0  0  0  0  0  0  0  0
  -19.7660  -30.9086   25.3870 C   0  0  0  0  0  0  0  0  0  0  0  0
  -23.5893  -27.7697   19.2873 C   0  0  0  0  0  0  0  0  0  0  0  0
  -24.4254  -27.1419   22.0534 C   0  0  0  0  0  0  0  0  0  0  0  0
  -32.3417  -28.7181   19.7822 C   0  0  0  0  0  0  0  0  0  0  0  0
  -20.9954  -31.4779   24.6865 C   0  0  0  0  0  0  0  0  0  0  0  0
  -31.1092  -29.3815   20.3848 C   0  0  0  0  0  0  0  0  0  0  0  0
  -23.4489  -19.5571   18.4665 C   0  0  0  0  0  0  0  0  0  0  0  0
  -21.6256  -30.4159   23.7978 C   0  0  0  0  0  0  0  0  0  0  0  0
  -23.0581  -18.7385   19.6947 C   0  0  0  0  0  0  0  0  0  0  0  0
  -24.4996  -20.6128   18.7865 C   0  0  0  0  0  0  0  0  0  0  0  0
  -25.6024  -18.6784   19.9258 C   0  0  0  0  0  0  0  0  0  0  0  0
  -30.2143  -27.1099   21.0204 C   0  0  0  0  0  0  0  0  0  0  0  0
  -20.6588  -29.9908   22.6853 C   0  0  1  0  0  0  0  0  0  0  0  0
  -22.5764  -27.6220   20.4185 C   0  0  1  0  0  0  0  0  0  0  0  0
  -24.2533  -18.4253   20.6166 C   0  0  2  0  0  0  0  0  0  0  0  0
  -29.9010  -28.4456   20.3510 C   0  0  1  0  0  0  0  0  0  1  0  0
  -24.8070  -21.2432   23.7464 C   0  0  0  0  0  0  0  0  0  0  0  0
  -20.7606  -26.1894   24.8407 C   0  0  0  0  0  0  0  0  0  0  0  0
  -22.1815  -24.3265   25.7232 C   0  0  0  0  0  0  0  0  0  0  0  0
  -20.6387  -23.9157   23.8064 C   0  0  0  0  0  0  0  0  0  0  0  0
  -27.3925  -23.7628   22.5454 C   0  0  0  0  0  0  0  0  0  0  0  0
  -31.1790  -25.8227   19.0654 C   0  0  0  0  0  0  0  0  0  0  0  0
  -22.7325  -25.2849   23.4409 C   0  0  1  0  0  0  0  0  0  0  0  0
  -25.2932  -22.5147   23.0685 C   0  0  2  0  0  0  0  0  0  0  0  0
  -21.5903  -24.9526   24.4421 C   0  0  0  0  0  0  0  0  0  0  0  0
  -24.7869  -16.0177   20.5640 N   0  0  0  0  0  0  0  0  0  0  0  0
  -24.1641  -17.0260   21.1977 N   0  0  0  0  0  0  0  0  0  0  0  0
  -23.0864  -26.8204   21.5328 N   0  0  0  0  0  0  0  0  0  0  0  0
  -25.6968  -20.0580   19.4347 N   0  0  0  0  0  0  0  0  0  0  0  0
  -22.8269  -17.5303   23.0868 N   0  0  0  0  0  0  0  0  0  0  0  0
  -23.9842  -14.2670   24.6375 N   0  0  0  0  0  0  0  0  0  0  0  0
  -26.8899  -22.0578   19.0613 N   0  0  0  0  0  0  0  0  0  0  0  0
  -21.2068  -28.8429   21.9969 N   0  0  0  0  0  0  0  0  0  0  0  0
  -23.5177  -24.1279   23.0248 N   0  0  0  0  0  0  0  0  0  0  0  0
  -31.4220  -26.4351   20.4171 N   0  3  1  0  0  0  0  0  0  0  0  0
  -26.7774  -22.5737   23.1893 N   0  3  0  0  0  0  0  0  0  0  0  0
  -22.0994  -13.8611   23.3960 O   0  0  0  0  0  0  0  0  0  0  0  0
  -22.6354  -29.9787   20.5508 O   0  0  0  0  0  0  0  0  0  0  0  0
  -21.0922  -25.6344   21.7634 O   0  0  0  0  0  0  0  0  0  0  0  0
  -25.1389  -24.3151   24.6723 O   0  0  0  0  0  0  0  0  0  0  0  0
  -27.8960  -20.2525   20.1327 O   0  0  0  0  0  0  0  0  0  0  0  0
  -26.4572   -9.9038   19.9502 O   0  0  0  0  0  0  0  0  0  0  0  0
  -28.8178  -29.0504   21.0521 O   0  0  0  0  0  0  0  0  0  1  0  0
  -24.2084   -5.5241   22.4332 F   0  0  0  0  0  0  0  0  0  0  0  0
  -31.3947  -23.2225   20.1620 F   0  0  0  0  0  0  0  0  0  0  0  0
  -26.5584   -9.6245   22.6987 F   0  0  0  0  0  0  0  0  0  0  0  0
  -26.2651  -24.7555   17.7856 Cl  0  0  0  0  0  0  0  0  0  0  0  0
  1  2  1  0  0  0  0
  1  5  2  0  0  0  0
  2  6  2  0  0  0  0
  3  8  2  0  0  0  0
  3 17  1  0  0  0  0
  4  9  1  0  0  0  0
  4 17  2  0  0  0  0
  5 19  1  0  0  0  0
  6 21  1  0  0  0  0
  7 10  2  0  0  0  0
  7 20  1  0  0  0  0
  8 25  1  0  0  0  0
  9 25  2  0  0  0  0
 10 26  1  0  0  0  0
 11 12  2  0  0  0  0
 11 27  1  0  0  0  0
 12 28  1  0  0  0  0
 13 22  1  0  0  0  0
 13 26  2  0  0  0  0
 14 23  1  0  0  0  0
 14 31  2  0  0  0  0
 15 24  2  0  0  0  0
 15 29  1  0  0  0  0
 16 28  2  0  0  0  0
 16 30  1  0  0  0  0
 17 32  1  0  0  0  0
 18 32  1  0  0  0  0
 18 33  2  0  0  0  0
 18 36  1  0  0  0  0
 19 21  2  0  0  0  0
 19 41  1  0  0  0  0
 20 22  2  0  0  0  0
 20 42  1  0  0  0  0
 21 53  1  0  0  0  0
 22 43  1  0  0  0  0
 23 29  2  0  0  0  0
 23 62  1  0  0  0  0
 24 31  1  0  0  0  0
 24 72  1  0  0  0  0
 25 82  1  0  0  0  0
 26 83  1  0  0  0  0
 27 30  2  0  0  0  0
 27 82  1  0  0  0  0
 28 84  1  0  0  0  0
 29 85  1  0  0  0  0
 30 86  1  0  0  0  0
 31 87  1  0  0  0  0
 32 66  2  0  0  0  0
 33 67  1  0  0  0  0
 33 70  1  0  0  0  0
 34 35  2  0  0  0  0
 34 44  1  0  0  0  0
 34 75  1  0  0  0  0
 36 71  1  0  0  0  0
 36 77  2  0  0  0  0
 37 54  1  0  0  0  0
 37 73  1  0  0  0  0
 37 78  2  0  0  0  0
 38 63  1  0  0  0  0
 38 68  1  0  0  0  0
 38 79  2  0  0  0  0
 39 64  1  0  0  0  0
 39 74  1  0  0  0  0
 39 80  2  0  0  0  0
 40 69  1  0  0  0  0
 40 72  1  0  0  0  0
 40 81  2  0  0  0  0
 41 45  1  0  0  0  0
 42 54  1  0  0  0  0
 43 68  1  0  0  0  0
 44 46  1  0  0  0  0
 45 48  1  0  0  0  0
 46 56  1  0  0  0  0
 47 49  1  0  0  0  0
 47 50  1  0  0  0  0
 48 53  1  0  0  0  0
 49 55  1  0  0  0  0
 50 69  1  0  0  0  0
 51 55  1  0  0  0  0
 51 69  1  0  0  0  0
 52 56  1  0  0  0  0
 52 75  1  0  0  0  0
 53 73  1  0  0  0  0
 54 68  1  0  0  0  0
 55 67  1  0  0  0  0
 56 83  1  0  0  0  0
 57 64  1  0  0  0  0
 58 65  1  0  0  0  0
 59 65  1  0  0  0  0
 60 65  1  0  0  0  0
 61 76  1  0  0  0  0
 62 75  1  0  0  0  0
 63 65  1  0  0  0  0
 63 74  1  0  0  0  0
 64 76  1  0  0  0  0
 66 67  1  0  0  0  0
M  CHG  2  75   1  76   1
M  ISO  4  40 100  56 101  72 100  83 101
M  END
> <Batch ID>
0048

> <Smiles>
C=C1CC[101CH:1]([101O:1]c2ccc3c(c2)CN(C(=O)C(NC(=O)C(C)NC)C(C)(C)C)C(C(=O)NC2CCCc4ccccc42)C3)CN1Cc1cc(Cl)c([100NH:0][100C:0](=O)N2CCCC(n3nc(-c4ccc(Oc5ccc(F)cc5F)cc4)c(C(N)=O)c3N)C2)cc1F

> <Shape>
0.215

> <Color>
0.073

> <Negative vol penalty>
0.000

$$$$

  -OEChem-04042322293D

 85 93  0     1  0  0  0  0  0999 V2000
  -22.0484  -12.4690   18.7513 C   0  0  0  0  0  0  0  0  0  0  0  0
  -21.9921  -13.7948   19.1692 C   0  0  0  0  0  0  0  0  0  0  0  0
  -29.4277  -27.3419   22.0963 C   0  0  0  0  0  0  0  0  0  0  0  0
  -27.4664  -27.2984   20.6862 C   0  0  0  0  0  0  0  0  0  0  0  0
  -23.1570  -11.6856   19.0694 C   0  0  0  0  0  0  0  0  0  0  0  0
  -23.0439  -14.3376   19.9064 C   0  0  0  0  0  0  0  0  0  0  0  0
  -24.3787  -18.9453   18.2839 C   0  0  0  0  0  0  0  0  0  0  0  0
  -30.0597  -26.4353   21.2453 C   0  0  0  0  0  0  0  0  0  0  0  0
  -28.0983  -26.3917   19.8352 C   0  0  0  0  0  0  0  0  0  0  0  0
  -23.5690  -20.0141   18.6658 C   0  0  0  0  0  0  0  0  0  0  0  0
  -30.4137  -26.4849   17.3753 C   0  0  0  0  0  0  0  0  0  0  0  0
  -30.3198  -26.7133   16.0025 C   0  0  0  0  0  0  0  0  0  0  0  0
  -25.1421  -20.5761   20.4062 C   0  0  0  0  0  0  0  0  0  0  0  0
  -19.8636  -26.8493   23.1942 C   0  0  0  0  0  0  0  0  0  0  0  0
  -18.9167  -28.0542   21.3265 C   0  0  0  0  0  0  0  0  0  0  0  0
  -19.2343  -29.1682   23.4466 C   0  0  0  0  0  0  0  0  0  0  0  0
  -29.2349  -24.5731   15.7206 C   0  0  0  0  0  0  0  0  0  0  0  0
  -28.1310  -27.7735   21.8168 C   0  0  0  0  0  0  0  0  0  0  0  0
  -27.5052  -30.1147   22.6134 C   0  0  0  0  0  0  0  0  0  0  0  0
  -24.2273  -12.2219   19.8026 C   0  0  0  0  0  0  0  0  0  0  0  0
  -25.5727  -18.6769   18.9684 C   0  0  0  0  0  0  0  0  0  0  0  0
  -24.1672  -13.5602   20.2357 C   0  0  0  0  0  0  0  0  0  0  0  0
  -25.9664  -19.5049   20.0293 C   0  0  0  0  0  0  0  0  0  0  0  0
  -19.4421  -26.8796   21.8649 C   0  0  0  0  0  0  0  0  0  0  0  0
  -19.7597  -27.9936   23.9851 C   0  0  0  0  0  0  0  0  0  0  0  0
  -29.3950  -25.9602   20.1148 C   0  0  0  0  0  0  0  0  0  0  0  0
  -23.9492  -20.8280   19.7289 C   0  0  0  0  0  0  0  0  0  0  0  0
  -29.9182  -25.3006   17.9208 C   0  0  0  0  0  0  0  0  0  0  0  0
  -29.7304  -25.7575   15.1752 C   0  0  0  0  0  0  0  0  0  0  0  0
  -29.3288  -24.3447   17.0934 C   0  0  0  0  0  0  0  0  0  0  0  0
  -18.8128  -29.1985   22.1173 C   0  0  0  0  0  0  0  0  0  0  0  0
  -27.4775  -28.7096   22.6957 C   0  0  0  0  0  0  0  0  0  0  0  0
  -26.7353  -30.5358   23.6700 C   0  0  0  0  0  0  0  0  0  0  0  0
  -28.1676  -30.9633   21.6665 C   0  0  0  0  0  0  0  0  0  0  0  0
  -26.6807  -16.2332   20.6727 C   0  0  0  0  0  0  0  0  0  0  0  0
  -29.4138  -17.9802   20.6768 C   0  0  0  0  0  0  0  0  0  0  0  0
  -21.6108  -24.2420   20.9173 C   0  0  0  0  0  0  0  0  0  0  0  0
  -30.8955  -21.0422   20.4016 C   0  0  0  0  0  0  0  0  0  0  0  0
  -22.2939  -27.9680   26.7573 C   0  0  0  0  0  0  0  0  0  0  0  0
  -25.3831  -11.3225   20.1629 C   0  0  0  0  0  0  0  0  0  0  0  0
  -26.4483  -17.5363   18.5270 C   0  0  0  0  0  0  0  0  0  0  0  0
  -27.2489  -19.2714   20.7837 C   0  0  0  0  0  0  0  0  0  0  0  0
  -26.6240  -12.0815   20.6261 C   0  0  0  0  0  0  0  0  0  0  0  0
  -25.3612  -29.2211   28.0603 C   0  0  0  0  0  0  0  0  0  0  0  0
  -26.2447  -13.1576   21.6385 C   0  0  0  0  0  0  0  0  0  0  0  0
  -26.2539  -29.3589   26.8257 C   0  0  0  0  0  0  0  0  0  0  0  0
  -24.4551  -27.9954   27.9676 C   0  0  0  0  0  0  0  0  0  0  0  0
  -24.5346  -28.0557   25.5051 C   0  0  0  0  0  0  0  0  0  0  0  0
  -25.2995  -14.1922   21.0159 C   0  0  1  0  0  0  0  0  0  0  0  0
  -27.3875  -17.0447   19.6241 C   0  0  1  0  0  0  0  0  0  0  0  0
  -25.4266  -29.3087   25.5271 C   0  0  2  0  0  0  0  0  0  0  0  0
  -32.7493  -22.7255   20.2363 C   0  0  0  0  0  0  0  0  0  0  0  0
  -29.4173  -17.7361   23.7183 C   0  0  0  0  0  0  0  0  0  0  0  0
  -31.0758  -19.6100   23.7972 C   0  0  0  0  0  0  0  0  0  0  0  0
  -31.6625  -17.4750   22.6482 C   0  0  0  0  0  0  0  0  0  0  0  0
  -31.0312  -20.7760   17.4572 C   0  0  0  0  0  0  0  0  0  0  0  0
  -19.5556  -25.6480   21.0138 C   0  0  0  0  0  0  0  0  0  0  0  0
  -20.2123  -27.9604   25.4059 C   0  0  0  0  0  0  0  0  0  0  0  0
  -23.0203  -24.2614   20.3469 C   0  0  0  0  0  0  0  0  0  0  0  0
  -23.8116  -23.0050   20.6763 C   0  0  0  0  0  0  0  0  0  1  0  0
  -30.0001  -19.0459   21.5710 C   0  0  1  0  0  0  0  0  0  0  0  0
  -32.0920  -21.5134   19.5949 C   0  0  2  0  0  0  0  0  0  0  0  0
  -30.5137  -18.4703   22.9209 C   0  0  0  0  0  0  0  0  0  0  0  0
  -26.7479  -28.2676   23.7235 N   0  0  0  0  0  0  0  0  0  0  0  0
  -26.3100  -29.4015   24.2967 N   0  0  0  0  0  0  0  0  0  0  0  0
  -28.0678  -18.1399   20.3184 N   0  0  0  0  0  0  0  0  0  0  0  0
  -23.6972  -28.0091   26.7140 N   0  0  0  0  0  0  0  0  0  0  0  0
  -26.3873  -31.7620   24.1148 N   0  0  0  0  0  0  0  0  0  0  0  0
  -28.9171  -30.3660   20.6438 N   0  0  0  0  0  0  0  0  0  0  0  0
  -26.0388  -15.1133   20.1794 N   0  0  0  0  0  0  0  0  0  0  0  0
  -20.9178  -25.4011   20.5988 N   0  0  0  0  0  0  0  0  0  0  0  0
  -31.0235  -19.7231   20.7821 N   0  0  0  0  0  0  0  0  0  0  0  0
  -21.6531  -27.9909   25.5246 N   0  0  0  0  0  0  0  0  0  0  0  0
  -31.6723  -21.8824   18.2133 N   0  3  0  0  0  0  0  0  0  0  0  0
  -28.1105  -32.2145   21.7352 O   0  0  0  0  0  0  0  0  0  0  0  0
  -26.7164  -16.5953   21.8428 O   0  0  0  0  0  0  0  0  0  0  0  0
  -30.1260  -17.0445   20.3041 O   0  0  0  0  0  0  0  0  0  0  0  0
  -21.1630  -23.3066   21.5748 O   0  0  0  0  0  0  0  0  0  0  0  0
  -29.9443  -21.7725   20.6707 O   0  0  0  0  0  0  0  0  0  0  0  0
  -21.6588  -27.9202   27.8163 O   0  0  0  0  0  0  0  0  0  0  0  0
  -30.0115  -25.0756   19.2840 O   0  0  0  0  0  0  0  0  0  0  0  0
  -23.1604  -21.8715   20.1042 O   0  0  0  0  0  0  0  0  0  1  0  0
  -29.6389  -25.9776   13.8571 F   0  0  0  0  0  0  0  0  0  0  0  0
  -28.8499  -23.2055   17.6118 F   0  0  0  0  0  0  0  0  0  0  0  0
  -18.1634  -30.6475   21.4533 Cl  0  0  0  0  0  0  0  0  0  0  0  0
  1  2  1  0  0  0  0
  1  5  2  0  0  0  0
  2  6  2  0  0  0  0
  3  8  2  0  0  0  0
  3 18  1  0  0  0  0
  4  9  1  0  0  0  0
  4 18  2  0  0  0  0
  5 20  1  0  0  0  0
  6 22  1  0  0  0  0
  7 10  2  0  0  0  0
  7 21  1  0  0  0  0
  8 26  1  0  0  0  0
  9 26  2  0  0  0  0
 10 27  1  0  0  0  0
 11 12  2  0  0  0  0
 11 28  1  0  0  0  0
 12 29  1  0  0  0  0
 13 23  1  0  0  0  0
 13 27  2  0  0  0  0
 14 24  2  0  0  0  0
 14 25  1  0  0  0  0
 15 24  1  0  0  0  0
 15 31  2  0  0  0  0
 16 25  2  0  0  0  0
 16 31  1  0  0  0  0
 17 29  2  0  0  0  0
 17 30  1  0  0  0  0
 18 32  1  0  0  0  0
 19 32  1  0  0  0  0
 19 33  2  0  0  0  0
 19 34  1  0  0  0  0
 20 22  2  0  0  0  0
 20 40  1  0  0  0  0
 21 23  2  0  0  0  0
 21 41  1  0  0  0  0
 22 49  1  0  0  0  0
 23 42  1  0  0  0  0
 24 57  1  0  0  0  0
 25 58  1  0  0  0  0
 26 81  1  0  0  0  0
 27 82  1  0  0  0  0
 28 30  2  0  0  0  0
 28 81  1  0  0  0  0
 29 83  1  0  0  0  0
 30 84  1  0  0  0  0
 31 85  1  0  0  0  0
 32 64  2  0  0  0  0
 33 65  1  0  0  0  0
 33 68  1  0  0  0  0
 34 69  1  0  0  0  0
 34 75  2  0  0  0  0
 35 50  1  0  0  0  0
 35 70  1  0  0  0  0
 35 76  2  0  0  0  0
 36 61  1  0  0  0  0
 36 66  1  0  0  0  0
 36 77  2  0  0  0  0
 37 59  1  0  0  0  0
 37 71  1  0  0  0  0
 37 78  2  0  0  0  0
 38 62  1  0  0  0  0
 38 72  1  0  0  0  0
 38 79  2  0  0  0  0
 39 67  1  0  0  0  0
 39 73  1  0  0  0  0
 39 80  2  0  0  0  0
 40 43  1  0  0  0  0
 41 50  1  0  0  0  0
 42 66  1  0  0  0  0
 43 45  1  0  0  0  0
 44 46  1  0  0  0  0
 44 47  1  0  0  0  0
 45 49  1  0  0  0  0
 46 51  1  0  0  0  0
 47 67  1  0  0  0  0
 48 51  1  0  0  0  0
 48 67  1  0  0  0  0
 49 70  1  0  0  0  0
 50 66  1  0  0  0  0
 51 65  1  0  0  0  0
 52 62  1  0  0  0  0
 53 63  1  0  0  0  0
 54 63  1  0  0  0  0
 55 63  1  0  0  0  0
 56 74  1  0  0  0  0
 57 71  1  0  0  0  0
 58 73  1  0  0  0  0
 59 60  1  0  0  0  0
 60 82  1  0  0  0  0
 61 63  1  0  0  0  0
 61 72  1  0  0  0  0
 62 74  1  0  0  0  0
 64 65  1  0  0  0  0
M  CHG  1  74   1
M  ISO  4  39 100  60 101  73 100  82 101
M  END
> <Batch ID>
0048

> <Smiles>
CNC(C)C(=O)NC(C(=O)N1Cc2cc([101O:1][101CH2:1]CC(=O)NCc3cc(Cl)cc(C[100NH:0][100C:0](=O)N4CCCC(n5nc(-c6ccc(Oc7ccc(F)cc7F)cc6)c(C(N)=O)c5N)C4)c3)ccc2CC1C(=O)NC1CCCc2ccccc21)C(C)(C)C

> <Shape>
0.218

> <Color>
0.069

> <Negative vol penalty>
0.000

$$$$

  -OEChem-04042322293D

 85 94  0     1  0  0  0  0  0999 V2000
  -16.9614  -24.5025   23.6588 C   0  0  0  0  0  0  0  0  0  0  0  0
  -17.7240  -23.9430   22.6386 C   0  0  0  0  0  0  0  0  0  0  0  0
  -32.7495  -22.2740   13.0521 C   0  0  0  0  0  0  0  0  0  0  0  0
  -25.4430  -16.1977   21.5987 C   0  0  0  0  0  0  0  0  0  0  0  0
  -25.2547  -16.0826   19.1928 C   0  0  0  0  0  0  0  0  0  0  0  0
  -17.1245  -25.8463   23.9928 C   0  0  0  0  0  0  0  0  0  0  0  0
  -18.6495  -24.7273   21.9511 C   0  0  0  0  0  0  0  0  0  0  0  0
  -24.0564  -22.9267   19.7087 C   0  0  0  0  0  0  0  0  0  0  0  0
  -33.3296  -22.4192   14.3122 C   0  0  0  0  0  0  0  0  0  0  0  0
  -31.4090  -21.9049   12.9397 C   0  0  0  0  0  0  0  0  0  0  0  0
  -24.1763  -15.6277   21.7251 C   0  0  0  0  0  0  0  0  0  0  0  0
  -23.9880  -15.5126   19.3192 C   0  0  0  0  0  0  0  0  0  0  0  0
  -24.4623  -22.5480   18.4298 C   0  0  0  0  0  0  0  0  0  0  0  0
  -22.8013  -12.5448   21.5303 C   0  0  0  0  0  0  0  0  0  0  0  0
  -22.6403  -11.5241   22.4672 C   0  0  0  0  0  0  0  0  0  0  0  0
  -25.2452  -24.7926   18.0202 C   0  0  0  0  0  0  0  0  0  0  0  0
  -20.9813  -12.8466   23.6231 C   0  0  0  0  0  0  0  0  0  0  0  0
  -25.9822  -16.4253   20.3325 C   0  0  0  0  0  0  0  0  0  0  0  0
  -28.5243  -16.3397   20.1368 C   0  0  0  0  0  0  0  0  0  0  0  0
  -18.0593  -26.6451   23.3155 C   0  0  0  0  0  0  0  0  0  0  0  0
  -24.2322  -24.2461   20.1497 C   0  0  0  0  0  0  0  0  0  0  0  0
  -18.8243  -26.0834   22.2754 C   0  0  0  0  0  0  0  0  0  0  0  0
  -24.8430  -25.1849   19.3060 C   0  0  0  0  0  0  0  0  0  0  0  0
  -32.5693  -22.1952   15.4600 C   0  0  0  0  0  0  0  0  0  0  0  0
  -30.6487  -21.6810   14.0875 C   0  0  0  0  0  0  0  0  0  0  0  0
  -31.2288  -21.8261   15.3476 C   0  0  0  0  0  0  0  0  0  0  0  0
  -23.4487  -15.2851   20.5854 C   0  0  0  0  0  0  0  0  0  0  0  0
  -25.0542  -23.4817   17.5843 C   0  0  0  0  0  0  0  0  0  0  0  0
  -22.0523  -13.7165   21.6398 C   0  0  0  0  0  0  0  0  0  0  0  0
  -21.7304  -11.6749   23.5136 C   0  0  0  0  0  0  0  0  0  0  0  0
  -21.1424  -13.8673   22.6862 C   0  0  0  0  0  0  0  0  0  0  0  0
  -27.2905  -17.0146   20.2013 C   0  0  0  0  0  0  0  0  0  0  0  0
  -29.4571  -17.3405   20.0151 C   0  0  0  0  0  0  0  0  0  0  0  0
  -27.4520  -21.9444   15.6223 C   0  0  0  0  0  0  0  0  0  0  0  0
  -28.8023  -14.9339   20.1827 C   0  0  0  0  0  0  0  0  0  0  0  0
  -22.2832  -26.5806   21.0746 C   0  0  0  0  0  0  0  0  0  0  0  0
  -25.0642  -28.0951   21.7779 C   0  0  0  0  0  0  0  0  0  0  0  0
  -28.4138  -28.4146   21.2077 C   0  0  0  0  0  0  0  0  0  0  0  0
  -30.1810  -22.5064   17.5353 C   0  0  0  0  0  0  0  0  0  0  0  0
  -18.1666  -28.1046   23.6802 C   0  0  0  0  0  0  0  0  0  0  0  0
  -23.8133  -24.6321   21.5418 C   0  0  0  0  0  0  0  0  0  0  0  0
  -25.0728  -26.6090   19.7390 C   0  0  0  0  0  0  0  0  0  0  0  0
  -19.4350  -28.7720   23.1548 C   0  0  0  0  0  0  0  0  0  0  0  0
  -29.5218  -22.1852   21.0194 C   0  0  0  0  0  0  0  0  0  0  0  0
  -19.6632  -28.4074   21.6913 C   0  0  0  0  0  0  0  0  0  0  0  0
  -28.9997  -20.7534   21.1591 C   0  0  0  0  0  0  0  0  0  0  0  0
  -27.0122  -24.1387   14.8000 C   0  0  0  0  0  0  0  0  0  0  0  0
  -29.0479  -22.8376   19.7219 C   0  0  0  0  0  0  0  0  0  0  0  0
  -28.3045  -23.6268   14.1946 C   0  0  0  0  0  0  0  0  0  0  0  0
  -28.8046  -20.6367   18.6421 C   0  0  0  0  0  0  0  0  0  0  0  0
  -19.8561  -26.8955   21.5231 C   0  0  1  0  0  0  0  0  0  0  0  0
  -26.8143  -23.2578   16.0296 C   0  0  1  0  0  0  0  0  0  1  0  0
  -23.5732  -26.1304   21.6998 C   0  0  1  0  0  0  0  0  0  0  0  0
  -29.3090  -19.9157   19.9028 C   0  0  2  0  0  0  0  0  0  0  0  0
  -33.2190  -22.3587   16.7960 C   0  0  0  0  0  0  0  0  0  0  0  0
  -30.4107  -29.7648   21.9051 C   0  0  0  0  0  0  0  0  0  0  0  0
  -24.0801  -30.4266   20.0731 C   0  0  0  0  0  0  0  0  0  0  0  0
  -26.4293  -31.2908   20.0232 C   0  0  0  0  0  0  0  0  0  0  0  0
  -25.2202  -31.0949   22.1963 C   0  0  0  0  0  0  0  0  0  0  0  0
  -29.8169  -26.0215   22.2389 C   0  0  0  0  0  0  0  0  0  0  0  0
  -29.2086  -21.2853   13.9334 C   0  0  0  0  0  0  0  0  0  0  0  0
  -26.0097  -28.9987   21.0239 C   0  0  1  0  0  0  0  0  0  0  0  0
  -29.5931  -28.5079   22.1590 C   0  0  2  0  0  0  0  0  0  0  0  0
  -25.4289  -30.4265   20.8200 C   0  0  0  0  0  0  0  0  0  0  0  0
  -27.4241  -18.3415   20.1268 N   0  0  0  0  0  0  0  0  0  0  0  0
  -28.7528  -18.5085   20.0144 N   0  0  0  0  0  0  0  0  0  0  0  0
  -28.3164  -22.2312   14.5677 N   0  0  0  0  0  0  0  0  0  0  0  0
  -24.6402  -26.9393   21.1070 N   0  0  0  0  0  0  0  0  0  0  0  0
  -29.3788  -21.9896   18.5746 N   0  0  0  0  0  0  0  0  0  0  0  0
  -30.8029  -17.3266   19.9097 N   0  0  0  0  0  0  0  0  0  0  0  0
  -27.7271  -14.0440   20.3102 N   0  0  0  0  0  0  0  0  0  0  0  0
  -30.4564  -21.5983   16.5135 N   0  0  0  0  0  0  0  0  0  0  0  0
  -21.1930  -26.5092   21.9207 N   0  0  0  0  0  0  0  0  0  0  0  0
  -27.2734  -28.9661   21.7523 N   0  0  0  0  0  0  0  0  0  0  0  0
  -30.4855  -27.3257   21.9953 N   0  3  0  0  0  0  0  0  0  0  0  0
  -27.2369  -20.8650   16.1524 O   0  0  0  0  0  0  0  0  0  0  0  0
  -29.9709  -14.4812   20.1293 O   0  0  0  0  0  0  0  0  0  0  0  0
  -22.2776  -26.9656   19.9113 O   0  0  0  0  0  0  0  0  0  0  0  0
  -24.7203  -28.3999   22.9226 O   0  0  0  0  0  0  0  0  0  0  0  0
  -28.4969  -27.9068   20.0916 O   0  0  0  0  0  0  0  0  0  0  0  0
  -30.6158  -23.6606   17.5638 O   0  0  0  0  0  0  0  0  0  0  0  0
  -22.2127  -14.7286   20.7084 O   0  0  0  0  0  0  0  0  0  0  0  0
  -25.4507  -23.1149   16.3352 O   0  0  0  0  0  0  0  0  0  1  0  0
  -21.5748  -10.6940   24.4123 F   0  0  0  0  0  0  0  0  0  0  0  0
  -20.4192  -14.9902   22.7959 F   0  0  0  0  0  0  0  0  0  0  0  0
  1  2  1  0  0  0  0
  1  6  2  0  0  0  0
  2  7  2  0  0  0  0
  3  9  1  0  0  0  0
  3 10  2  0  0  0  0
  4 11  2  0  0  0  0
  4 18  1  0  0  0  0
  5 12  1  0  0  0  0
  5 18  2  0  0  0  0
  6 20  1  0  0  0  0
  7 22  1  0  0  0  0
  8 13  2  0  0  0  0
  8 21  1  0  0  0  0
  9 24  2  0  0  0  0
 10 25  1  0  0  0  0
 11 27  1  0  0  0  0
 12 27  2  0  0  0  0
 13 28  1  0  0  0  0
 14 15  2  0  0  0  0
 14 29  1  0  0  0  0
 15 30  1  0  0  0  0
 16 23  1  0  0  0  0
 16 28  2  0  0  0  0
 17 30  2  0  0  0  0
 17 31  1  0  0  0  0
 18 32  1  0  0  0  0
 19 32  1  0  0  0  0
 19 33  2  0  0  0  0
 19 35  1  0  0  0  0
 20 22  2  0  0  0  0
 20 40  1  0  0  0  0
 21 23  2  0  0  0  0
 21 41  1  0  0  0  0
 22 51  1  0  0  0  0
 23 42  1  0  0  0  0
 24 26  1  0  0  0  0
 24 55  1  0  0  0  0
 25 26  2  0  0  0  0
 25 61  1  0  0  0  0
 26 72  1  0  0  0  0
 27 82  1  0  0  0  0
 28 83  1  0  0  0  0
 29 31  2  0  0  0  0
 29 82  1  0  0  0  0
 30 84  1  0  0  0  0
 31 85  1  0  0  0  0
 32 65  2  0  0  0  0
 33 66  1  0  0  0  0
 33 70  1  0  0  0  0
 34 52  1  0  0  0  0
 34 67  1  0  0  0  0
 34 76  2  0  0  0  0
 35 71  1  0  0  0  0
 35 77  2  0  0  0  0
 36 53  1  0  0  0  0
 36 73  1  0  0  0  0
 36 78  2  0  0  0  0
 37 62  1  0  0  0  0
 37 68  1  0  0  0  0
 37 79  2  0  0  0  0
 38 63  1  0  0  0  0
 38 74  1  0  0  0  0
 38 80  2  0  0  0  0
 39 69  1  0  0  0  0
 39 72  1  0  0  0  0
 39 81  2  0  0  0  0
 40 43  1  0  0  0  0
 41 53  1  0  0  0  0
 42 68  1  0  0  0  0
 43 45  1  0  0  0  0
 44 46  1  0  0  0  0
 44 48  1  0  0  0  0
 45 51  1  0  0  0  0
 46 54  1  0  0  0  0
 47 49  1  0  0  0  0
 47 52  1  0  0  0  0
 48 69  1  0  0  0  0
 49 67  1  0  0  0  0
 50 54  1  0  0  0  0
 50 69  1  0  0  0  0
 51 73  1  0  0  0  0
 52 83  1  0  0  0  0
 53 68  1  0  0  0  0
 54 66  1  0  0  0  0
 56 63  1  0  0  0  0
 57 64  1  0  0  0  0
 58 64  1  0  0  0  0
 59 64  1  0  0  0  0
 60 75  1  0  0  0  0
 61 67  1  0  0  0  0
 62 64  1  0  0  0  0
 62 74  1  0  0  0  0
 63 75  1  0  0  0  0
 65 66  1  0  0  0  0
M  CHG  1  75   1
M  ISO  4  39 100  52 101  72 100  83 101
M  END
> <Batch ID>
0048

> <Smiles>
CNC(C)C(=O)NC(C(=O)N1Cc2cc([101O:1][101CH:1]3CCN(Cc4cccc(C)c4[100NH:0][100C:0](=O)N4CCCC(n5nc(-c6ccc(Oc7ccc(F)cc7F)cc6)c(C(N)=O)c5N)C4)C3=O)ccc2CC1C(=O)NC1CCCc2ccccc21)C(C)(C)C

> <Shape>
0.228

> <Color>
0.056

> <Negative vol penalty>
0.000

$$$$

  -OEChem-04042322293D

 87 96  0     1  0  0  0  0  0999 V2000
  -27.3470  -34.6959   24.3616 C   0  0  0  0  0  0  0  0  0  0  0  0
  -27.6419  -33.3924   23.9751 C   0  0  0  0  0  0  0  0  0  0  0  0
  -25.4864   -9.9506   18.8892 C   0  0  0  0  0  0  0  0  0  0  0  0
  -27.5539  -11.1729   18.6273 C   0  0  0  0  0  0  0  0  0  0  0  0
  -26.0574  -35.0234   24.7784 C   0  0  0  0  0  0  0  0  0  0  0  0
  -26.6475  -32.4153   24.0062 C   0  0  0  0  0  0  0  0  0  0  0  0
  -26.6220  -29.5361   19.8404 C   0  0  0  0  0  0  0  0  0  0  0  0
  -25.9825   -8.9360   18.0707 C   0  0  0  0  0  0  0  0  0  0  0  0
  -28.0501  -10.1583   17.8088 C   0  0  0  0  0  0  0  0  0  0  0  0
  -27.5905  -28.5373   19.7508 C   0  0  0  0  0  0  0  0  0  0  0  0
  -28.0944   -6.3113   18.3596 C   0  0  0  0  0  0  0  0  0  0  0  0
  -27.9076   -4.9931   18.7757 C   0  0  0  0  0  0  0  0  0  0  0  0
  -25.9588  -26.9013   20.4437 C   0  0  0  0  0  0  0  0  0  0  0  0
  -30.0602  -18.4440   20.5644 C   0  0  0  0  0  0  0  0  0  0  0  0
  -28.9469  -20.1952   19.3269 C   0  0  0  0  0  0  0  0  0  0  0  0
  -26.6561   -4.5344   16.7607 C   0  0  0  0  0  0  0  0  0  0  0  0
  -26.2721  -11.0692   19.1675 C   0  0  0  0  0  0  0  0  0  0  0  0
  -25.3423  -12.0027   21.3519 C   0  0  0  0  0  0  0  0  0  0  0  0
  -25.0443  -34.0521   24.8054 C   0  0  0  0  0  0  0  0  0  0  0  0
  -25.3151  -29.2262   20.2435 C   0  0  0  0  0  0  0  0  0  0  0  0
  -25.3435  -32.7299   24.4250 C   0  0  0  0  0  0  0  0  0  0  0  0
  -24.9748  -27.8976   20.5351 C   0  0  0  0  0  0  0  0  0  0  0  0
  -31.2745  -19.1154   20.4221 C   0  0  0  0  0  0  0  0  0  0  0  0
  -30.1613  -20.8666   19.1847 C   0  0  0  0  0  0  0  0  0  0  0  0
  -28.8964  -18.9839   20.0168 C   0  0  0  0  0  0  0  0  0  0  0  0
  -27.2644   -9.0398   17.5305 C   0  0  0  0  0  0  0  0  0  0  0  0
  -27.2597  -27.2201   20.0552 C   0  0  0  0  0  0  0  0  0  0  0  0
  -27.5619   -6.7410   17.1441 C   0  0  0  0  0  0  0  0  0  0  0  0
  -27.1885   -4.1046   17.9763 C   0  0  0  0  0  0  0  0  0  0  0  0
  -26.8428   -5.8526   16.3446 C   0  0  0  0  0  0  0  0  0  0  0  0
  -31.3251  -20.3267   19.7323 C   0  0  0  0  0  0  0  0  0  0  0  0
  -25.7599  -12.1179   20.0124 C   0  0  0  0  0  0  0  0  0  0  0  0
  -24.9464  -13.2714   21.6984 C   0  0  0  0  0  0  0  0  0  0  0  0
  -30.3270  -24.5815   18.5618 C   0  0  0  0  0  0  0  0  0  0  0  0
  -31.5117  -25.1930   18.4121 C   0  0  0  0  0  0  0  0  0  0  0  0
  -25.3148  -10.8517   22.2065 C   0  0  0  0  0  0  0  0  0  0  0  0
  -23.4605  -30.0704   22.6831 C   0  0  0  0  0  0  0  0  0  0  0  0
  -21.2172  -28.3856   21.0548 C   0  0  0  0  0  0  0  0  0  0  0  0
  -21.0724  -25.2838   19.2177 C   0  0  0  0  0  0  0  0  0  0  0  0
  -26.4159  -18.7004   19.6806 C   0  0  0  0  0  0  0  0  0  0  0  0
  -23.6772  -34.4428   25.3084 C   0  0  0  0  0  0  0  0  0  0  0  0
  -24.2751  -30.3109   20.3094 C   0  0  0  0  0  0  0  0  0  0  0  0
  -23.5809  -27.5094   20.9530 C   0  0  0  0  0  0  0  0  0  0  0  0
  -29.0431  -25.1292   17.9939 C   0  0  0  0  0  0  0  0  0  0  0  0
  -22.5872  -33.4341   24.9557 C   0  0  0  0  0  0  0  0  0  0  0  0
  -23.1513  -17.2842   19.7986 C   0  0  0  0  0  0  0  0  0  0  0  0
  -23.0550  -32.0144   25.2596 C   0  0  0  0  0  0  0  0  0  0  0  0
  -23.4116  -15.7889   19.9948 C   0  0  0  0  0  0  0  0  0  0  0  0
  -27.8759  -23.8641   19.8478 C   0  0  0  0  0  0  0  0  0  0  0  0
  -24.1931  -17.9260   18.8840 C   0  0  0  0  0  0  0  0  0  0  0  0
  -25.8498  -16.2001   19.4719 C   0  0  0  0  0  0  0  0  0  0  0  0
  -29.2357  -23.4525   20.4103 C   0  0  0  0  0  0  0  0  0  0  0  0
  -24.2856  -31.6477   24.4215 C   0  0  1  0  0  0  0  0  0  0  0  0
  -23.1067  -29.9635   21.2267 C   0  0  1  0  0  0  0  0  0  0  0  0
  -24.8637  -15.5231   20.4379 C   0  0  2  0  0  0  0  0  0  0  0  0
  -27.9489  -25.1725   19.0608 C   0  0  1  0  0  0  0  0  0  1  0  0
  -32.4966  -18.4989   21.0235 C   0  0  0  0  0  0  0  0  0  0  0  0
  -19.5670  -24.5671   17.3422 C   0  0  0  0  0  0  0  0  0  0  0  0
  -19.5058  -27.1810   23.2751 C   0  0  0  0  0  0  0  0  0  0  0  0
  -19.0422  -25.2366   21.7676 C   0  0  0  0  0  0  0  0  0  0  0  0
  -18.3087  -27.5275   21.1069 C   0  0  0  0  0  0  0  0  0  0  0  0
  -23.3690  -24.6327   17.4682 C   0  0  0  0  0  0  0  0  0  0  0  0
  -30.1680  -22.1662   18.4350 C   0  0  0  0  0  0  0  0  0  0  0  0
  -20.7678  -26.9446   21.0352 C   0  0  1  0  0  0  0  0  0  0  0  0
  -20.9324  -25.1235   17.7146 C   0  0  2  0  0  0  0  0  0  0  0  0
  -19.4328  -26.7296   21.8028 C   0  0  0  0  0  0  0  0  0  0  0  0
  -25.6403  -13.3615   19.5402 N   0  0  0  0  0  0  0  0  0  0  0  0
  -25.1429  -14.0394   20.5886 N   0  0  0  0  0  0  0  0  0  0  0  0
  -22.6009  -28.6067   21.0086 N   0  0  0  0  0  0  0  0  0  0  0  0
  -25.5444  -17.6356   19.3682 N   0  0  0  0  0  0  0  0  0  0  0  0
  -24.4527  -13.7938   22.8411 N   0  0  0  0  0  0  0  0  0  0  0  0
  -25.7573   -9.6259   21.6908 N   0  0  0  0  0  0  0  0  0  0  0  0
  -27.6625  -18.3027   20.1626 N   0  0  0  0  0  0  0  0  0  0  0  0
  -23.8958  -31.3248   23.0657 N   0  0  0  0  0  0  0  0  0  0  0  0
  -20.7198  -26.5510   19.6312 N   0  0  0  0  0  0  0  0  0  0  0  0
  -30.2930  -23.3647   19.3347 N   0  3  1  0  0  0  0  0  0  0  0  0
  -21.9760  -24.1961   17.1932 N   0  3  0  0  0  0  0  0  0  0  0  0
  -24.8945  -10.9053   23.3871 O   0  0  0  0  0  0  0  0  0  0  0  0
  -23.3455  -29.0880   23.4065 O   0  0  0  0  0  0  0  0  0  0  0  0
  -20.3713  -29.2823   21.1018 O   0  0  0  0  0  0  0  0  0  0  0  0
  -21.4528  -24.3746   19.9520 O   0  0  0  0  0  0  0  0  0  0  0  0
  -26.0713  -19.8785   19.5573 O   0  0  0  0  0  0  0  0  0  0  0  0
  -27.7489   -8.0498   16.7320 O   0  0  0  0  0  0  0  0  0  0  0  0
  -28.2034  -26.2433   19.9692 O   0  0  0  0  0  0  0  0  0  1  0  0
  -27.0105   -2.8384   18.3753 F   0  0  0  0  0  0  0  0  0  0  0  0
  -26.3299   -6.2593   15.1753 F   0  0  0  0  0  0  0  0  0  0  0  0
  -32.8324  -21.1608   19.5554 Cl  0  0  0  0  0  0  0  0  0  0  0  0
  1  2  1  0  0  0  0
  1  5  2  0  0  0  0
  2  6  2  0  0  0  0
  3  8  2  0  0  0  0
  3 17  1  0  0  0  0
  4  9  1  0  0  0  0
  4 17  2  0  0  0  0
  5 19  1  0  0  0  0
  6 21  1  0  0  0  0
  7 10  2  0  0  0  0
  7 20  1  0  0  0  0
  8 26  1  0  0  0  0
  9 26  2  0  0  0  0
 10 27  1  0  0  0  0
 11 12  2  0  0  0  0
 11 28  1  0  0  0  0
 12 29  1  0  0  0  0
 13 22  1  0  0  0  0
 13 27  2  0  0  0  0
 14 23  2  0  0  0  0
 14 25  1  0  0  0  0
 15 24  1  0  0  0  0
 15 25  2  0  0  0  0
 16 29  2  0  0  0  0
 16 30  1  0  0  0  0
 17 32  1  0  0  0  0
 18 32  1  0  0  0  0
 18 33  2  0  0  0  0
 18 36  1  0  0  0  0
 19 21  2  0  0  0  0
 19 41  1  0  0  0  0
 20 22  2  0  0  0  0
 20 42  1  0  0  0  0
 21 53  1  0  0  0  0
 22 43  1  0  0  0  0
 23 31  1  0  0  0  0
 23 57  1  0  0  0  0
 24 31  2  0  0  0  0
 24 63  1  0  0  0  0
 25 73  1  0  0  0  0
 26 83  1  0  0  0  0
 27 84  1  0  0  0  0
 28 30  2  0  0  0  0
 28 83  1  0  0  0  0
 29 85  1  0  0  0  0
 30 86  1  0  0  0  0
 31 87  1  0  0  0  0
 32 67  2  0  0  0  0
 33 68  1  0  0  0  0
 33 71  1  0  0  0  0
 34 35  2  0  0  0  0
 34 44  1  0  0  0  0
 34 76  1  0  0  0  0
 36 72  1  0  0  0  0
 36 78  2  0  0  0  0
 37 54  1  0  0  0  0
 37 74  1  0  0  0  0
 37 79  2  0  0  0  0
 38 64  1  0  0  0  0
 38 69  1  0  0  0  0
 38 80  2  0  0  0  0
 39 65  1  0  0  0  0
 39 75  1  0  0  0  0
 39 81  2  0  0  0  0
 40 70  1  0  0  0  0
 40 73  1  0  0  0  0
 40 82  2  0  0  0  0
 41 45  1  0  0  0  0
 42 54  1  0  0  0  0
 43 69  1  0  0  0  0
 44 56  1  0  0  0  0
 45 47  1  0  0  0  0
 46 48  1  0  0  0  0
 46 50  1  0  0  0  0
 47 53  1  0  0  0  0
 48 55  1  0  0  0  0
 49 52  1  0  0  0  0
 49 56  1  0  0  0  0
 50 70  1  0  0  0  0
 51 55  1  0  0  0  0
 51 70  1  0  0  0  0
 52 76  1  0  0  0  0
 53 74  1  0  0  0  0
 54 69  1  0  0  0  0
 55 68  1  0  0  0  0
 56 84  1  0  0  0  0
 58 65  1  0  0  0  0
 59 66  1  0  0  0  0
 60 66  1  0  0  0  0
 61 66  1  0  0  0  0
 62 77  1  0  0  0  0
 63 76  1  0  0  0  0
 64 66  1  0  0  0  0
 64 75  1  0  0  0  0
 65 77  1  0  0  0  0
 67 68  1  0  0  0  0
M  CHG  2  76   1  77   1
M  ISO  4  40 100  56 101  73 100  84 101
M  END
> <Batch ID>
0048

> <Smiles>
C=C1C[101CH:1]([101O:1]c2ccc3c(c2)CN(C(=O)C(NC(=O)C(C)NC)C(C)(C)C)C(C(=O)NC2CCCc4ccccc42)C3)CCN1Cc1cc([100NH:0][100C:0](=O)N2CCCC(n3nc(-c4ccc(Oc5ccc(F)cc5F)cc4)c(C(N)=O)c3N)C2)cc(C)c1Cl

> <Shape>
0.265

> <Color>
0.069

> <Negative vol penalty>
0.000

$$$$

  -OEChem-04042322293D

 88 97  0     1  0  0  0  0  0999 V2000
  -16.5953  -26.2338   21.7361 C   0  0  0  0  0  0  0  0  0  0  0  0
  -17.7808  -25.5064   21.7649 C   0  0  0  0  0  0  0  0  0  0  0  0
  -22.6632  -10.1580   20.1597 C   0  0  0  0  0  0  0  0  0  0  0  0
  -24.3404   -9.3425   21.6956 C   0  0  0  0  0  0  0  0  0  0  0  0
  -16.5038  -27.3848   20.9546 C   0  0  0  0  0  0  0  0  0  0  0  0
  -18.8752  -25.9289   21.0112 C   0  0  0  0  0  0  0  0  0  0  0  0
  -23.2151  -25.7423   23.6141 C   0  0  0  0  0  0  0  0  0  0  0  0
  -31.1370  -17.6354   20.8633 C   0  0  0  0  0  0  0  0  0  0  0  0
  -21.9359   -8.9798   20.3283 C   0  0  0  0  0  0  0  0  0  0  0  0
  -23.6131   -8.1643   21.8643 C   0  0  0  0  0  0  0  0  0  0  0  0
  -23.8125  -24.4919   23.7672 C   0  0  0  0  0  0  0  0  0  0  0  0
  -20.8934   -7.1434   23.5910 C   0  0  0  0  0  0  0  0  0  0  0  0
  -20.7285   -6.6658   24.8911 C   0  0  0  0  0  0  0  0  0  0  0  0
  -31.3127  -19.0144   20.9779 C   0  0  0  0  0  0  0  0  0  0  0  0
  -25.3404  -25.0089   21.9735 C   0  0  0  0  0  0  0  0  0  0  0  0
  -21.8523   -4.6161   24.2806 C   0  0  0  0  0  0  0  0  0  0  0  0
  -23.8655  -10.3394   20.8433 C   0  0  0  0  0  0  0  0  0  0  0  0
  -24.1899  -12.8674   20.9503 C   0  0  0  0  0  0  0  0  0  0  0  0
  -17.6008  -27.8270   20.1984 C   0  0  0  0  0  0  0  0  0  0  0  0
  -23.6696  -26.6326   22.6306 C   0  0  0  0  0  0  0  0  0  0  0  0
  -18.7979  -27.0861   20.2177 C   0  0  0  0  0  0  0  0  0  0  0  0
  -24.7488  -26.2710   21.8117 C   0  0  0  0  0  0  0  0  0  0  0  0
  -29.5837  -17.6797   22.7133 C   0  0  0  0  0  0  0  0  0  0  0  0
  -29.7595  -19.0587   22.8279 C   0  0  0  0  0  0  0  0  0  0  0  0
  -30.2724  -16.9680   21.7310 C   0  0  0  0  0  0  0  0  0  0  0  0
  -22.4108   -7.9830   21.1806 C   0  0  0  0  0  0  0  0  0  0  0  0
  -24.8734  -24.1239   22.9450 C   0  0  0  0  0  0  0  0  0  0  0  0
  -21.5376   -6.3573   22.6356 C   0  0  0  0  0  0  0  0  0  0  0  0
  -21.2080   -5.4022   25.2359 C   0  0  0  0  0  0  0  0  0  0  0  0
  -22.0171   -5.0937   22.9805 C   0  0  0  0  0  0  0  0  0  0  0  0
  -30.6240  -19.7260   21.9602 C   0  0  0  0  0  0  0  0  0  0  0  0
  -24.6176  -11.5560   20.6692 C   0  0  0  0  0  0  0  0  0  0  0  0
  -25.2625  -13.6575   20.6162 C   0  0  0  0  0  0  0  0  0  0  0  0
  -26.8820  -20.6990   24.6293 C   0  0  0  0  0  0  0  0  0  0  0  0
  -26.0934  -19.9822   25.4443 C   0  0  0  0  0  0  0  0  0  0  0  0
  -22.9352  -13.3300   21.4675 C   0  0  0  0  0  0  0  0  0  0  0  0
  -22.3780  -27.9866   20.0612 C   0  0  0  0  0  0  0  0  0  0  0  0
  -25.1931  -29.5961   19.9746 C   0  0  0  0  0  0  0  0  0  0  0  0
  -28.6826  -28.8269   20.4741 C   0  0  0  0  0  0  0  0  0  0  0  0
  -30.7262  -14.7295   20.6683 C   0  0  0  0  0  0  0  0  0  0  0  0
  -17.4391  -29.0507   19.3318 C   0  0  0  0  0  0  0  0  0  0  0  0
  -23.0320  -27.9882   22.4960 C   0  0  0  0  0  0  0  0  0  0  0  0
  -25.2875  -27.1984   20.7542 C   0  0  0  0  0  0  0  0  0  0  0  0
  -27.0573  -22.1901   24.7594 C   0  0  0  0  0  0  0  0  0  0  0  0
  -18.7646  -29.6389   18.8551 C   0  0  0  0  0  0  0  0  0  0  0  0
  -29.5271  -12.5415   18.1282 C   0  0  0  0  0  0  0  0  0  0  0  0
  -19.6795  -28.5371   18.3300 C   0  0  0  0  0  0  0  0  0  0  0  0
  -28.1078  -12.1980   18.5860 C   0  0  0  0  0  0  0  0  0  0  0  0
  -27.6047  -22.1755   22.2896 C   0  0  0  0  0  0  0  0  0  0  0  0
  -30.4897  -12.6633   19.3082 C   0  0  0  0  0  0  0  0  0  0  0  0
  -28.6376  -13.2368   20.8281 C   0  0  0  0  0  0  0  0  0  0  0  0
  -27.2956  -20.6799   22.2395 C   0  0  0  0  0  0  0  0  0  0  0  0
  -20.0149  -27.5261   19.4332 C   0  0  1  0  0  0  0  0  0  0  0  0
  -23.2409  -28.6128   21.1199 C   0  0  1  0  0  0  0  0  0  0  0  0
  -27.6181  -13.1676   19.6794 C   0  0  2  0  0  0  0  0  0  0  0  0
  -26.8482  -22.8839   23.4132 C   0  0  1  0  0  0  0  0  0  1  0  0
  -28.6552  -16.9637   23.6442 C   0  0  0  0  0  0  0  0  0  0  0  0
  -25.9056  -18.5087   25.3337 C   0  0  0  0  0  0  0  0  0  0  0  0
  -30.5848  -30.2858   21.2162 C   0  0  0  0  0  0  0  0  0  0  0  0
  -25.6792  -29.9850   16.9876 C   0  0  0  0  0  0  0  0  0  0  0  0
  -28.1389  -29.9145   17.4496 C   0  0  0  0  0  0  0  0  0  0  0  0
  -26.7347  -31.7171   18.4505 C   0  0  0  0  0  0  0  0  0  0  0  0
  -29.3660  -27.0018   22.7014 C   0  0  0  0  0  0  0  0  0  0  0  0
  -29.0125  -19.8110   23.8895 C   0  0  0  0  0  0  0  0  0  0  0  0
  -26.5416  -29.3580   19.3390 C   0  0  1  0  0  0  0  0  0  0  0  0
  -29.5496  -29.2570   21.6436 C   0  0  2  0  0  0  0  0  0  0  0  0
  -26.7568  -30.2221   18.0644 C   0  0  0  0  0  0  0  0  0  0  0  0
  -25.8646  -11.5113   20.1929 N   0  0  0  0  0  0  0  0  0  0  0  0
  -26.2297  -12.8045   20.1721 N   0  0  0  0  0  0  0  0  0  0  0  0
  -24.6265  -28.5104   20.6572 N   0  0  0  0  0  0  0  0  0  0  0  0
  -29.9623  -13.6013   20.3015 N   0  0  0  0  0  0  0  0  0  0  0  0
  -25.4633  -14.9916   20.6617 N   0  0  0  0  0  0  0  0  0  0  0  0
  -22.7852  -13.4413   22.8565 N   0  0  0  0  0  0  0  0  0  0  0  0
  -30.1085  -15.5670   21.5965 N   0  0  0  0  0  0  0  0  0  0  0  0
  -21.0231  -28.0635   20.3216 N   0  0  0  0  0  0  0  0  0  0  0  0
  -27.5319  -29.5816   20.3867 N   0  0  0  0  0  0  0  0  0  0  0  0
  -27.5568  -20.0006   23.5634 N   0  3  1  0  0  0  0  0  0  0  0  0
  -30.2640  -28.0822   22.2184 N   0  3  0  0  0  0  0  0  0  0  0  0
  -21.9700  -13.6201   20.7206 O   0  0  0  0  0  0  0  0  0  0  0  0
  -22.9026  -27.4732   19.0799 O   0  0  0  0  0  0  0  0  0  0  0  0
  -24.6653  -30.7066   19.8753 O   0  0  0  0  0  0  0  0  0  0  0  0
  -28.9966  -27.9154   19.7120 O   0  0  0  0  0  0  0  0  0  0  0  0
  -31.8343  -14.9516   20.1736 O   0  0  0  0  0  0  0  0  0  0  0  0
  -21.7012   -6.8332   21.3455 O   0  0  0  0  0  0  0  0  0  0  0  0
  -25.4578  -22.9037   23.0919 O   0  0  0  0  0  0  0  0  0  1  0  0
  -21.0510   -4.9443   26.4849 F   0  0  0  0  0  0  0  0  0  0  0  0
  -22.6379   -4.3344   22.0673 F   0  0  0  0  0  0  0  0  0  0  0  0
  -30.8721  -21.4311   22.0693 Cl  0  0  0  0  0  0  0  0  0  0  0  0
  1  2  1  0  0  0  0
  1  5  2  0  0  0  0
  2  6  2  0  0  0  0
  3  9  2  0  0  0  0
  3 17  1  0  0  0  0
  4 10  1  0  0  0  0
  4 17  2  0  0  0  0
  5 19  1  0  0  0  0
  6 21  1  0  0  0  0
  7 11  2  0  0  0  0
  7 20  1  0  0  0  0
  8 14  1  0  0  0  0
  8 25  2  0  0  0  0
  9 26  1  0  0  0  0
 10 26  2  0  0  0  0
 11 27  1  0  0  0  0
 12 13  2  0  0  0  0
 12 28  1  0  0  0  0
 13 29  1  0  0  0  0
 14 31  2  0  0  0  0
 15 22  1  0  0  0  0
 15 27  2  0  0  0  0
 16 29  2  0  0  0  0
 16 30  1  0  0  0  0
 17 32  1  0  0  0  0
 18 32  1  0  0  0  0
 18 33  2  0  0  0  0
 18 36  1  0  0  0  0
 19 21  2  0  0  0  0
 19 41  1  0  0  0  0
 20 22  2  0  0  0  0
 20 42  1  0  0  0  0
 21 53  1  0  0  0  0
 22 43  1  0  0  0  0
 23 24  2  0  0  0  0
 23 25  1  0  0  0  0
 23 57  1  0  0  0  0
 24 31  1  0  0  0  0
 24 64  1  0  0  0  0
 25 74  1  0  0  0  0
 26 84  1  0  0  0  0
 27 85  1  0  0  0  0
 28 30  2  0  0  0  0
 28 84  1  0  0  0  0
 29 86  1  0  0  0  0
 30 87  1  0  0  0  0
 31 88  1  0  0  0  0
 32 68  2  0  0  0  0
 33 69  1  0  0  0  0
 33 72  1  0  0  0  0
 34 35  2  0  0  0  0
 34 44  1  0  0  0  0
 34 77  1  0  0  0  0
 35 58  1  0  0  0  0
 36 73  1  0  0  0  0
 36 79  2  0  0  0  0
 37 54  1  0  0  0  0
 37 75  1  0  0  0  0
 37 80  2  0  0  0  0
 38 65  1  0  0  0  0
 38 70  1  0  0  0  0
 38 81  2  0  0  0  0
 39 66  1  0  0  0  0
 39 76  1  0  0  0  0
 39 82  2  0  0  0  0
 40 71  1  0  0  0  0
 40 74  1  0  0  0  0
 40 83  2  0  0  0  0
 41 45  1  0  0  0  0
 42 54  1  0  0  0  0
 43 70  1  0  0  0  0
 44 56  1  0  0  0  0
 45 47  1  0  0  0  0
 46 48  1  0  0  0  0
 46 50  1  0  0  0  0
 47 53  1  0  0  0  0
 48 55  1  0  0  0  0
 49 52  1  0  0  0  0
 49 56  1  0  0  0  0
 50 71  1  0  0  0  0
 51 55  1  0  0  0  0
 51 71  1  0  0  0  0
 52 77  1  0  0  0  0
 53 75  1  0  0  0  0
 54 70  1  0  0  0  0
 55 69  1  0  0  0  0
 56 85  1  0  0  0  0
 59 66  1  0  0  0  0
 60 67  1  0  0  0  0
 61 67  1  0  0  0  0
 62 67  1  0  0  0  0
 63 78  1  0  0  0  0
 64 77  1  0  0  0  0
 65 67  1  0  0  0  0
 65 76  1  0  0  0  0
 66 78  1  0  0  0  0
 68 69  1  0  0  0  0
M  CHG  2  77   1  78   1
M  ISO  4  40 100  56 101  74 100  85 101
M  END
> <Batch ID>
0048

> <Smiles>
CC=C1C[101CH:1]([101O:1]c2ccc3c(c2)CN(C(=O)C(NC(=O)C(C)NC)C(C)(C)C)C(C(=O)NC2CCCc4ccccc42)C3)CCN1Cc1c(Cl)ccc([100NH:0][100C:0](=O)N2CCCC(n3nc(-c4ccc(Oc5ccc(F)cc5F)cc4)c(C(N)=O)c3N)C2)c1C

> <Shape>
0.289

> <Color>
0.175

> <Negative vol penalty>
0.000

$$$$

  -OEChem-04042322293D

 86 94  0     1  0  0  0  0  0999 V2000
  -30.6906  -32.0002   16.6092 C   0  0  0  0  0  0  0  0  0  0  0  0
  -30.2041  -30.8721   17.2621 C   0  0  0  0  0  0  0  0  0  0  0  0
  -23.0028   -9.8889   19.9831 C   0  0  0  0  0  0  0  0  0  0  0  0
  -23.7259   -9.9463   22.2876 C   0  0  0  0  0  0  0  0  0  0  0  0
  -31.1880  -31.8927   15.3112 C   0  0  0  0  0  0  0  0  0  0  0  0
  -30.2138  -29.6360   16.6168 C   0  0  0  0  0  0  0  0  0  0  0  0
  -31.8772  -25.8990   19.6024 C   0  0  0  0  0  0  0  0  0  0  0  0
  -32.6358  -17.4643   23.4474 C   0  0  0  0  0  0  0  0  0  0  0  0
  -32.0498  -16.5634   22.5584 C   0  0  0  0  0  0  0  0  0  0  0  0
  -22.2373   -8.7542   20.2515 C   0  0  0  0  0  0  0  0  0  0  0  0
  -22.9604   -8.8115   22.5560 C   0  0  0  0  0  0  0  0  0  0  0  0
  -30.9840  -25.3918   20.5451 C   0  0  0  0  0  0  0  0  0  0  0  0
  -23.2090   -5.4718   22.0923 C   0  0  0  0  0  0  0  0  0  0  0  0
  -23.7971   -4.4571   22.8474 C   0  0  0  0  0  0  0  0  0  0  0  0
  -30.5194  -23.5239   19.0909 C   0  0  0  0  0  0  0  0  0  0  0  0
  -29.8695  -17.4605   23.0865 C   0  0  0  0  0  0  0  0  0  0  0  0
  -22.0715   -4.7020   24.5205 C   0  0  0  0  0  0  0  0  0  0  0  0
  -23.7471  -10.4850   21.0011 C   0  0  0  0  0  0  0  0  0  0  0  0
  -24.1297  -13.0006   20.8194 C   0  0  0  0  0  0  0  0  0  0  0  0
  -31.2128  -30.6529   14.6533 C   0  0  0  0  0  0  0  0  0  0  0  0
  -32.0903  -25.2271   18.3902 C   0  0  0  0  0  0  0  0  0  0  0  0
  -30.7109  -29.5121   15.3083 C   0  0  0  0  0  0  0  0  0  0  0  0
  -31.4177  -24.0234   18.1356 C   0  0  0  0  0  0  0  0  0  0  0  0
  -31.8387  -18.3633   24.1562 C   0  0  0  0  0  0  0  0  0  0  0  0
  -30.4556  -18.3614   23.9757 C   0  0  0  0  0  0  0  0  0  0  0  0
  -30.6666  -16.5615   22.3778 C   0  0  0  0  0  0  0  0  0  0  0  0
  -22.2161   -8.2155   21.5379 C   0  0  0  0  0  0  0  0  0  0  0  0
  -30.3028  -24.2056   20.2882 C   0  0  0  0  0  0  0  0  0  0  0  0
  -22.0522   -6.1017   22.5514 C   0  0  0  0  0  0  0  0  0  0  0  0
  -23.2284   -4.0721   24.0614 C   0  0  0  0  0  0  0  0  0  0  0  0
  -21.4835   -5.7168   23.7655 C   0  0  0  0  0  0  0  0  0  0  0  0
  -24.5385  -11.6568   20.7244 C   0  0  0  0  0  0  0  0  0  0  0  0
  -25.2389  -13.7236   20.4542 C   0  0  0  0  0  0  0  0  0  0  0  0
  -22.8608  -13.5464   21.2035 C   0  0  0  0  0  0  0  0  0  0  0  0
  -31.6497  -25.9384   15.3236 C   0  0  0  0  0  0  0  0  0  0  0  0
  -33.1492  -23.1008   14.8525 C   0  0  0  0  0  0  0  0  0  0  0  0
  -28.8892  -21.8390   22.6439 C   0  0  0  0  0  0  0  0  0  0  0  0
  -33.9844  -20.0268   16.0772 C   0  0  0  0  0  0  0  0  0  0  0  0
  -30.7171  -14.6915   20.6906 C   0  0  0  0  0  0  0  0  0  0  0  0
  -31.7165  -30.5947   13.2329 C   0  0  0  0  0  0  0  0  0  0  0  0
  -33.0772  -25.7734   17.3951 C   0  0  0  0  0  0  0  0  0  0  0  0
  -31.6264  -23.2531   16.8583 C   0  0  0  0  0  0  0  0  0  0  0  0
  -32.0371  -29.1799   12.7577 C   0  0  0  0  0  0  0  0  0  0  0  0
  -29.6036  -12.2318   18.3696 C   0  0  0  0  0  0  0  0  0  0  0  0
  -30.9088  -28.2232   13.1299 C   0  0  0  0  0  0  0  0  0  0  0  0
  -28.1530  -11.9735   18.7831 C   0  0  0  0  0  0  0  0  0  0  0  0
  -30.5028  -12.4792   19.5795 C   0  0  0  0  0  0  0  0  0  0  0  0
  -28.5854  -13.2690   20.9095 C   0  0  0  0  0  0  0  0  0  0  0  0
  -30.7275  -28.1492   14.6508 C   0  0  1  0  0  0  0  0  0  0  0  0
  -32.8308  -25.2756   15.9743 C   0  0  1  0  0  0  0  0  0  0  0  0
  -27.6290  -13.0787   19.7209 C   0  0  2  0  0  0  0  0  0  0  0  0
  -32.4889  -19.3179   25.1031 C   0  0  0  0  0  0  0  0  0  0  0  0
  -35.1818  -17.9137   15.4460 C   0  0  0  0  0  0  0  0  0  0  0  0
  -29.1162  -18.7159   26.0638 C   0  0  0  0  0  0  0  0  0  0  0  0
  -30.7784  -22.2788   13.1164 C   0  0  0  0  0  0  0  0  0  0  0  0
  -31.5527  -19.9053   13.3048 C   0  0  0  0  0  0  0  0  0  0  0  0
  -33.0132  -21.6090   12.2153 C   0  0  0  0  0  0  0  0  0  0  0  0
  -35.9444  -20.3447   18.2718 C   0  0  0  0  0  0  0  0  0  0  0  0
  -29.2708  -22.2912   21.2506 C   0  0  0  0  0  0  0  0  0  1  0  0
  -28.3413  -19.7760   23.9204 C   0  0  0  0  0  0  0  0  0  0  0  0
  -32.7031  -21.6643   14.7239 C   0  0  1  0  0  0  0  0  0  0  0  0
  -35.3049  -19.2785   16.1054 C   0  0  2  0  0  0  0  0  0  0  0  0
  -29.5664  -19.3338   24.7358 C   0  0  2  0  0  0  0  0  0  0  0  0
  -32.0062  -21.3797   13.3634 C   0  0  0  0  0  0  0  0  0  0  0  0
  -25.8082  -11.5308   20.3296 N   0  0  0  0  0  0  0  0  0  0  0  0
  -26.2069  -12.8047   20.1732 N   0  0  0  0  0  0  0  0  0  0  0  0
  -32.5967  -23.8313   15.9140 N   0  0  0  0  0  0  0  0  0  0  0  0
  -29.9458  -13.5415   20.4198 N   0  0  0  0  0  0  0  0  0  0  0  0
  -25.4709  -15.0493   20.3492 N   0  0  0  0  0  0  0  0  0  0  0  0
  -21.8297  -12.6619   21.5483 N   0  0  0  0  0  0  0  0  0  0  0  0
  -30.0710  -15.6479   21.4733 N   0  0  0  0  0  0  0  0  0  0  0  0
  -31.7511  -27.3140   15.2417 N   0  0  0  0  0  0  0  0  0  0  0  0
  -28.7108  -20.4659   22.7061 N   0  0  0  0  0  0  0  0  0  0  0  0
  -33.8851  -20.8460   14.9725 N   0  0  0  0  0  0  0  0  0  0  0  0
  -35.7590  -19.0821   17.5112 N   0  3  0  0  0  0  0  0  0  0  0  0
  -22.6426  -14.7815   21.2241 O   0  0  0  0  0  0  0  0  0  0  0  0
  -30.7162  -25.2523   14.9241 O   0  0  0  0  0  0  0  0  0  0  0  0
  -33.9634  -23.5558   14.0452 O   0  0  0  0  0  0  0  0  0  0  0  0
  -28.7598  -22.6192   23.5834 O   0  0  0  0  0  0  0  0  0  0  0  0
  -33.1252  -19.8947   16.9460 O   0  0  0  0  0  0  0  0  0  0  0  0
  -31.8560  -14.8307   20.2372 O   0  0  0  0  0  0  0  0  0  0  0  0
  -21.4691   -7.1084   21.8003 O   0  0  0  0  0  0  0  0  0  0  0  0
  -29.4299  -23.7086   21.2064 O   0  0  0  0  0  0  0  0  0  1  0  0
  -23.7923   -3.0966   24.7857 F   0  0  0  0  0  0  0  0  0  0  0  0
  -20.3715   -6.3174   24.2111 F   0  0  0  0  0  0  0  0  0  0  0  0
  -30.2377  -20.4843   25.0744 F   0  0  0  0  0  0  0  0  0  0  0  0
  1  2  1  0  0  0  0
  1  5  2  0  0  0  0
  2  6  2  0  0  0  0
  3 10  2  0  0  0  0
  3 18  1  0  0  0  0
  4 11  1  0  0  0  0
  4 18  2  0  0  0  0
  5 20  1  0  0  0  0
  6 22  1  0  0  0  0
  7 12  2  0  0  0  0
  7 21  1  0  0  0  0
  8  9  2  0  0  0  0
  8 24  1  0  0  0  0
  9 26  1  0  0  0  0
 10 27  1  0  0  0  0
 11 27  2  0  0  0  0
 12 28  1  0  0  0  0
 13 14  2  0  0  0  0
 13 29  1  0  0  0  0
 14 30  1  0  0  0  0
 15 23  1  0  0  0  0
 15 28  2  0  0  0  0
 16 25  1  0  0  0  0
 16 26  2  0  0  0  0
 17 30  2  0  0  0  0
 17 31  1  0  0  0  0
 18 32  1  0  0  0  0
 19 32  1  0  0  0  0
 19 33  2  0  0  0  0
 19 34  1  0  0  0  0
 20 22  2  0  0  0  0
 20 40  1  0  0  0  0
 21 23  2  0  0  0  0
 21 41  1  0  0  0  0
 22 49  1  0  0  0  0
 23 42  1  0  0  0  0
 24 25  2  0  0  0  0
 24 52  1  0  0  0  0
 25 63  1  0  0  0  0
 26 71  1  0  0  0  0
 27 82  1  0  0  0  0
 28 83  1  0  0  0  0
 29 31  2  0  0  0  0
 29 82  1  0  0  0  0
 30 84  1  0  0  0  0
 31 85  1  0  0  0  0
 32 65  2  0  0  0  0
 33 66  1  0  0  0  0
 33 69  1  0  0  0  0
 34 70  1  0  0  0  0
 34 76  2  0  0  0  0
 35 50  1  0  0  0  0
 35 72  1  0  0  0  0
 35 77  2  0  0  0  0
 36 61  1  0  0  0  0
 36 67  1  0  0  0  0
 36 78  2  0  0  0  0
 37 59  1  0  0  0  0
 37 73  1  0  0  0  0
 37 79  2  0  0  0  0
 38 62  1  0  0  0  0
 38 74  1  0  0  0  0
 38 80  2  0  0  0  0
 39 68  1  0  0  0  0
 39 71  1  0  0  0  0
 39 81  2  0  0  0  0
 40 43  1  0  0  0  0
 41 50  1  0  0  0  0
 42 67  1  0  0  0  0
 43 45  1  0  0  0  0
 44 46  1  0  0  0  0
 44 47  1  0  0  0  0
 45 49  1  0  0  0  0
 46 51  1  0  0  0  0
 47 68  1  0  0  0  0
 48 51  1  0  0  0  0
 48 68  1  0  0  0  0
 49 72  1  0  0  0  0
 50 67  1  0  0  0  0
 51 66  1  0  0  0  0
 53 62  1  0  0  0  0
 54 63  1  0  0  0  0
 55 64  1  0  0  0  0
 56 64  1  0  0  0  0
 57 64  1  0  0  0  0
 58 75  1  0  0  0  0
 59 83  1  0  0  0  0
 60 63  1  0  0  0  0
 60 73  1  0  0  0  0
 61 64  1  0  0  0  0
 61 74  1  0  0  0  0
 62 75  1  0  0  0  0
 63 86  1  0  0  0  0
 65 66  1  0  0  0  0
M  CHG  1  75   1
M  ISO  4  39 100  59 101  71 100  83 101
M  END
> <Batch ID>
0048

> <Smiles>
CNC(C)C(=O)NC(C(=O)N1Cc2cc([101O:1][101CH2:1]C(=O)NCC(C)(F)c3cc([100NH:0][100C:0](=O)N4CCCC(n5nc(-c6ccc(Oc7ccc(F)cc7F)cc6)c(C(N)=O)c5N)C4)ccc3C)ccc2CC1C(=O)NC1CCCc2ccccc21)C(C)(C)C

> <Shape>
0.217

> <Color>
0.198

> <Negative vol penalty>
0.000

$$$$

  -OEChem-04042322293D

 87 96  0     1  0  0  0  0  0999 V2000
  -31.8208  -33.2445   19.5734 C   0  0  0  0  0  0  0  0  0  0  0  0
  -31.3244  -31.9708   19.8319 C   0  0  0  0  0  0  0  0  0  0  0  0
  -23.1088   -9.9815   21.8600 C   0  0  0  0  0  0  0  0  0  0  0  0
  -24.7792  -10.3008   23.5760 C   0  0  0  0  0  0  0  0  0  0  0  0
  -31.2710  -34.3503   20.2207 C   0  0  0  0  0  0  0  0  0  0  0  0
  -30.2787  -31.8021   20.7387 C   0  0  0  0  0  0  0  0  0  0  0  0
  -26.7138  -28.6390   19.0265 C   0  0  0  0  0  0  0  0  0  0  0  0
  -31.7097  -19.4171   21.3666 C   0  0  0  0  0  0  0  0  0  0  0  0
  -31.2722  -18.1695   20.9220 C   0  0  0  0  0  0  0  0  0  0  0  0
  -22.5663   -8.9209   22.5854 C   0  0  0  0  0  0  0  0  0  0  0  0
  -24.2366   -9.2402   24.3015 C   0  0  0  0  0  0  0  0  0  0  0  0
  -26.9865  -27.2736   19.0979 C   0  0  0  0  0  0  0  0  0  0  0  0
  -23.2710   -5.6611   23.1346 C   0  0  0  0  0  0  0  0  0  0  0  0
  -22.9480   -4.4975   22.4365 C   0  0  0  0  0  0  0  0  0  0  0  0
  -25.6434  -27.1161   21.0955 C   0  0  0  0  0  0  0  0  0  0  0  0
  -20.6407   -4.7317   23.1136 C   0  0  0  0  0  0  0  0  0  0  0  0
  -24.2153  -10.6715   22.3553 C   0  0  0  0  0  0  0  0  0  0  0  0
  -24.1283  -12.9573   21.2261 C   0  0  0  0  0  0  0  0  0  0  0  0
  -30.2116  -34.1960   21.1287 C   0  0  0  0  0  0  0  0  0  0  0  0
  -25.9114  -29.2563   19.9968 C   0  0  0  0  0  0  0  0  0  0  0  0
  -29.7151  -32.9067   21.3998 C   0  0  0  0  0  0  0  0  0  0  0  0
  -25.3599  -28.4889   21.0327 C   0  0  0  0  0  0  0  0  0  0  0  0
  -30.7822  -20.3837   21.7552 C   0  0  0  0  0  0  0  0  0  0  0  0
  -29.4170  -20.1027   21.6991 C   0  0  0  0  0  0  0  0  0  0  0  0
  -28.9795  -18.8551   21.2545 C   0  0  0  0  0  0  0  0  0  0  0  0
  -29.9071  -17.8885   20.8659 C   0  0  0  0  0  0  0  0  0  0  0  0
  -23.1301   -8.5502   23.8061 C   0  0  0  0  0  0  0  0  0  0  0  0
  -26.4536  -26.5125   20.1342 C   0  0  0  0  0  0  0  0  0  0  0  0
  -22.2788   -6.3599   23.8224 C   0  0  0  0  0  0  0  0  0  0  0  0
  -21.6329   -4.0328   22.4259 C   0  0  0  0  0  0  0  0  0  0  0  0
  -20.9637   -5.8952   23.8118 C   0  0  0  0  0  0  0  0  0  0  0  0
  -24.7765  -11.7669   21.6061 C   0  0  0  0  0  0  0  0  0  0  0  0
  -25.0840  -13.6642   20.5380 C   0  0  0  0  0  0  0  0  0  0  0  0
  -26.4744  -22.3824   21.3762 C   0  0  0  0  0  0  0  0  0  0  0  0
  -25.3393  -21.7393   21.0633 C   0  0  0  0  0  0  0  0  0  0  0  0
  -22.7825  -13.3859   21.4730 C   0  0  0  0  0  0  0  0  0  0  0  0
  -26.3602  -31.5518   22.1493 C   0  0  0  0  0  0  0  0  0  0  0  0
  -23.1717  -31.1919   22.6246 C   0  0  0  0  0  0  0  0  0  0  0  0
  -20.8372  -28.4510   22.8603 C   0  0  0  0  0  0  0  0  0  0  0  0
  -30.2921  -15.5568   19.9935 C   0  0  0  0  0  0  0  0  0  0  0  0
  -29.6814  -35.4159   21.8396 C   0  0  0  0  0  0  0  0  0  0  0  0
  -25.6048  -30.7251   19.8906 C   0  0  0  0  0  0  0  0  0  0  0  0
  -24.4759  -29.0999   22.0880 C   0  0  0  0  0  0  0  0  0  0  0  0
  -26.4965  -23.7003   22.1067 C   0  0  0  0  0  0  0  0  0  0  0  0
  -28.3257  -35.1922   22.5047 C   0  0  0  0  0  0  0  0  0  0  0  0
  -29.6384  -12.2527   18.8390 C   0  0  0  0  0  0  0  0  0  0  0  0
  -28.3243  -33.8823   23.2864 C   0  0  0  0  0  0  0  0  0  0  0  0
  -28.2619  -11.9297   19.4247 C   0  0  0  0  0  0  0  0  0  0  0  0
  -28.7248  -24.1010   20.9781 C   0  0  0  0  0  0  0  0  0  0  0  0
  -30.4827  -13.0866   19.8010 C   0  0  0  0  0  0  0  0  0  0  0  0
  -28.4592  -13.9857   20.8810 C   0  0  0  0  0  0  0  0  0  0  0  0
  -28.5548  -22.7968   20.2002 C   0  0  0  0  0  0  0  0  0  0  0  0
  -28.5651  -32.6856   22.3583 C   0  0  1  0  0  0  0  0  0  0  0  0
  -25.1958  -31.3479   21.2218 C   0  0  1  0  0  0  0  0  0  0  0  0
  -27.5483  -13.2022   19.9218 C   0  0  2  0  0  0  0  0  0  0  0  0
  -27.3827  -24.7123   21.3803 C   0  0  1  0  0  0  0  0  0  1  0  0
  -31.2775  -21.7114   22.2274 C   0  0  0  0  0  0  0  0  0  0  0  0
  -27.5140  -18.5557   21.1952 C   0  0  0  0  0  0  0  0  0  0  0  0
  -18.3788  -28.3547   22.3660 C   0  0  0  0  0  0  0  0  0  0  0  0
  -22.8449  -31.7610   25.6044 C   0  0  0  0  0  0  0  0  0  0  0  0
  -20.9025  -30.1815   25.6220 C   0  0  0  0  0  0  0  0  0  0  0  0
  -20.8179  -32.2442   24.2217 C   0  0  0  0  0  0  0  0  0  0  0  0
  -21.1876  -26.2018   20.9689 C   0  0  0  0  0  0  0  0  0  0  0  0
  -28.4218  -21.1444   22.1178 C   0  0  0  0  0  0  0  0  0  0  0  0
  -22.3149  -30.3310   23.5211 C   0  0  1  0  0  0  0  0  0  0  0  0
  -19.7778  -28.0696   21.8422 C   0  0  2  0  0  0  0  0  0  0  0  0
  -21.7456  -31.1208   24.7334 C   0  0  0  0  0  0  0  0  0  0  0  0
  -26.0459  -11.7167   21.1936 N   0  0  0  0  0  0  0  0  0  0  0  0
  -26.2029  -12.8844   20.5471 N   0  0  0  0  0  0  0  0  0  0  0  0
  -24.2106  -30.5409   21.9444 N   0  0  0  0  0  0  0  0  0  0  0  0
  -29.7440  -14.2776   20.2262 N   0  0  0  0  0  0  0  0  0  0  0  0
  -25.0680  -14.8704   19.9321 N   0  0  0  0  0  0  0  0  0  0  0  0
  -22.5177  -14.1182   22.6383 N   0  0  0  0  0  0  0  0  0  0  0  0
  -29.4851  -16.6145   20.4112 N   0  0  0  0  0  0  0  0  0  0  0  0
  -27.3567  -32.3577   21.6326 N   0  0  0  0  0  0  0  0  0  0  0  0
  -21.2954  -29.7365   22.6634 N   0  0  0  0  0  0  0  0  0  0  0  0
  -27.7194  -21.7894   20.9551 N   0  3  1  0  0  0  0  0  0  0  0  0
  -19.8709  -26.6183   21.5167 N   0  3  0  0  0  0  0  0  0  0  0  0
  -21.8397  -13.1130   20.6918 O   0  0  0  0  0  0  0  0  0  0  0  0
  -26.3543  -31.0187   23.2527 O   0  0  0  0  0  0  0  0  0  0  0  0
  -22.9237  -32.3962   22.5258 O   0  0  0  0  0  0  0  0  0  0  0  0
  -21.2175  -27.6865   23.7443 O   0  0  0  0  0  0  0  0  0  0  0  0
  -31.3839  -15.7038   19.4381 O   0  0  0  0  0  0  0  0  0  0  0  0
  -22.6009   -7.5154   24.5144 O   0  0  0  0  0  0  0  0  0  0  0  0
  -26.7188  -25.1797   20.2066 O   0  0  0  0  0  0  0  0  0  1  0  0
  -21.3226   -2.9163   21.7542 F   0  0  0  0  0  0  0  0  0  0  0  0
  -20.0059   -6.5629   24.4697 F   0  0  0  0  0  0  0  0  0  0  0  0
  1  2  1  0  0  0  0
  1  5  2  0  0  0  0
  2  6  2  0  0  0  0
  3 10  2  0  0  0  0
  3 17  1  0  0  0  0
  4 11  1  0  0  0  0
  4 17  2  0  0  0  0
  5 19  1  0  0  0  0
  6 21  1  0  0  0  0
  7 12  2  0  0  0  0
  7 20  1  0  0  0  0
  8  9  1  0  0  0  0
  8 23  2  0  0  0  0
  9 26  2  0  0  0  0
 10 27  1  0  0  0  0
 11 27  2  0  0  0  0
 12 28  1  0  0  0  0
 13 14  2  0  0  0  0
 13 29  1  0  0  0  0
 14 30  1  0  0  0  0
 15 22  1  0  0  0  0
 15 28  2  0  0  0  0
 16 30  2  0  0  0  0
 16 31  1  0  0  0  0
 17 32  1  0  0  0  0
 18 32  1  0  0  0  0
 18 33  2  0  0  0  0
 18 36  1  0  0  0  0
 19 21  2  0  0  0  0
 19 41  1  0  0  0  0
 20 22  2  0  0  0  0
 20 42  1  0  0  0  0
 21 53  1  0  0  0  0
 22 43  1  0  0  0  0
 23 24  1  0  0  0  0
 23 57  1  0  0  0  0
 24 25  2  0  0  0  0
 24 64  1  0  0  0  0
 25 26  1  0  0  0  0
 25 58  1  0  0  0  0
 26 74  1  0  0  0  0
 27 84  1  0  0  0  0
 28 85  1  0  0  0  0
 29 31  2  0  0  0  0
 29 84  1  0  0  0  0
 30 86  1  0  0  0  0
 31 87  1  0  0  0  0
 32 68  2  0  0  0  0
 33 69  1  0  0  0  0
 33 72  1  0  0  0  0
 34 35  2  0  0  0  0
 34 44  1  0  0  0  0
 34 77  1  0  0  0  0
 36 73  1  0  0  0  0
 36 79  2  0  0  0  0
 37 54  1  0  0  0  0
 37 75  1  0  0  0  0
 37 80  2  0  0  0  0
 38 65  1  0  0  0  0
 38 70  1  0  0  0  0
 38 81  2  0  0  0  0
 39 66  1  0  0  0  0
 39 76  1  0  0  0  0
 39 82  2  0  0  0  0
 40 71  1  0  0  0  0
 40 74  1  0  0  0  0
 40 83  2  0  0  0  0
 41 45  1  0  0  0  0
 42 54  1  0  0  0  0
 43 70  1  0  0  0  0
 44 56  1  0  0  0  0
 45 47  1  0  0  0  0
 46 48  1  0  0  0  0
 46 50  1  0  0  0  0
 47 53  1  0  0  0  0
 48 55  1  0  0  0  0
 49 52  1  0  0  0  0
 49 56  1  0  0  0  0
 50 71  1  0  0  0  0
 51 55  1  0  0  0  0
 51 71  1  0  0  0  0
 52 77  1  0  0  0  0
 53 75  1  0  0  0  0
 54 70  1  0  0  0  0
 55 69  1  0  0  0  0
 56 85  1  0  0  0  0
 59 66  1  0  0  0  0
 60 67  1  0  0  0  0
 61 67  1  0  0  0  0
 62 67  1  0  0  0  0
 63 78  1  0  0  0  0
 64 77  1  0  0  0  0
 65 67  1  0  0  0  0
 65 76  1  0  0  0  0
 66 78  1  0  0  0  0
 68 69  1  0  0  0  0
M  CHG  2  77   1  78   1
M  ISO  4  40 100  56 101  74 100  85 101
M  END
> <Batch ID>
0048

> <Smiles>
C=C1C[101CH:1]([101O:1]c2ccc3c(c2)CN(C(=O)C(NC(=O)C(C)NC)C(C)(C)C)C(C(=O)NC2CCCc4ccccc42)C3)CCN1Cc1c(C)ccc([100NH:0][100C:0](=O)N2CCCC(n3nc(-c4ccc(Oc5ccc(F)cc5F)cc4)c(C(N)=O)c3N)C2)c1C

> <Shape>
0.315

> <Color>
0.149

> <Negative vol penalty>
0.000

$$$$

  -OEChem-04042322293D

 94103  0     1  0  0  0  0  0999 V2000
  -19.9590  -28.9332   26.4642 C   0  0  0  0  0  0  0  0  0  0  0  0
  -21.2516  -28.6571   26.0303 C   0  0  0  0  0  0  0  0  0  0  0  0
  -29.0116  -21.4639   22.0340 C   0  0  0  0  0  0  0  0  0  0  0  0
  -34.3529  -10.6478   16.1389 C   0  0  0  0  0  0  0  0  0  0  0  0
  -35.4770  -11.8141   17.9315 C   0  0  0  0  0  0  0  0  0  0  0  0
  -29.4683  -20.1474   22.0957 C   0  0  0  0  0  0  0  0  0  0  0  0
  -32.7959  -18.4071   22.6279 C   0  0  0  0  0  0  0  0  0  0  0  0
  -18.8775  -28.7169   25.6112 C   0  0  0  0  0  0  0  0  0  0  0  0
  -21.4634  -28.1635   24.7434 C   0  0  0  0  0  0  0  0  0  0  0  0
  -26.2273  -29.3510   21.0827 C   0  0  0  0  0  0  0  0  0  0  0  0
  -29.3930  -22.2855   20.9732 C   0  0  0  0  0  0  0  0  0  0  0  0
  -33.5631  -17.9838   23.7131 C   0  0  0  0  0  0  0  0  0  0  0  0
  -35.4296  -10.9111   15.2923 C   0  0  0  0  0  0  0  0  0  0  0  0
  -36.5538  -12.0774   17.0848 C   0  0  0  0  0  0  0  0  0  0  0  0
  -27.3945  -28.6418   20.8024 C   0  0  0  0  0  0  0  0  0  0  0  0
  -36.5893  -13.5135   13.4737 C   0  0  0  0  0  0  0  0  0  0  0  0
  -36.3042  -13.9621   12.1841 C   0  0  0  0  0  0  0  0  0  0  0  0
  -26.3496  -27.7106   18.8376 C   0  0  0  0  0  0  0  0  0  0  0  0
  -31.8789  -16.3412   24.2631 C   0  0  0  0  0  0  0  0  0  0  0  0
  -37.4393  -12.0380   11.2639 C   0  0  0  0  0  0  0  0  0  0  0  0
  -34.3765  -11.0993   17.4585 C   0  0  0  0  0  0  0  0  0  0  0  0
  -30.3064  -19.6524   21.0966 C   0  0  0  0  0  0  0  0  0  0  0  0
  -31.5701  -17.7976   22.3603 C   0  0  0  0  0  0  0  0  0  0  0  0
  -33.0936   -9.7083   19.1693 C   0  0  0  0  0  0  0  0  0  0  0  0
  -19.0770  -28.2296   24.3100 C   0  0  0  0  0  0  0  0  0  0  0  0
  -25.1070  -29.2366   20.2471 C   0  0  0  0  0  0  0  0  0  0  0  0
  -20.3835  -27.9392   23.8728 C   0  0  0  0  0  0  0  0  0  0  0  0
  -25.1703  -28.4214   19.1081 C   0  0  0  0  0  0  0  0  0  0  0  0
  -33.1047  -16.9508   24.5307 C   0  0  0  0  0  0  0  0  0  0  0  0
  -30.2311  -21.7905   19.9741 C   0  0  0  0  0  0  0  0  0  0  0  0
  -31.1116  -16.7646   23.1779 C   0  0  0  0  0  0  0  0  0  0  0  0
  -30.6879  -20.4740   20.0358 C   0  0  0  0  0  0  0  0  0  0  0  0
  -36.5301  -11.6259   15.7652 C   0  0  0  0  0  0  0  0  0  0  0  0
  -27.4548  -27.8193   19.6813 C   0  0  0  0  0  0  0  0  0  0  0  0
  -37.2995  -12.3272   13.6585 C   0  0  0  0  0  0  0  0  0  0  0  0
  -36.7291  -13.2243   11.0792 C   0  0  0  0  0  0  0  0  0  0  0  0
  -37.7245  -11.5895   12.5536 C   0  0  0  0  0  0  0  0  0  0  0  0
  -33.2643  -10.8281   18.3334 C   0  0  0  0  0  0  0  0  0  0  0  0
  -31.8863   -9.9226   19.7881 C   0  0  0  0  0  0  0  0  0  0  0  0
  -30.7663  -18.2728   21.1874 C   0  0  0  0  0  0  0  0  0  0  0  0
  -33.9498   -8.5757   19.3686 C   0  0  0  0  0  0  0  0  0  0  0  0
  -22.1233  -28.2072   20.6241 C   0  0  0  0  0  0  0  0  0  0  0  0
  -21.7728  -29.3129   17.5947 C   0  0  0  0  0  0  0  0  0  0  0  0
  -29.5679  -24.9458   19.1254 C   0  0  0  0  0  0  0  0  0  0  0  0
  -23.2335  -30.1190   14.6176 C   0  0  0  0  0  0  0  0  0  0  0  0
  -28.7584  -14.8775   21.0196 C   0  0  0  0  0  0  0  0  0  0  0  0
  -17.8728  -27.9670   23.4406 C   0  0  0  0  0  0  0  0  0  0  0  0
  -23.8645  -30.0289   20.5486 C   0  0  0  0  0  0  0  0  0  0  0  0
  -24.0020  -28.2799   18.1681 C   0  0  0  0  0  0  0  0  0  0  0  0
  -18.2142  -27.7962   21.9626 C   0  0  0  0  0  0  0  0  0  0  0  0
  -27.6649  -12.0726   19.1186 C   0  0  0  0  0  0  0  0  0  0  0  0
  -19.4049  -26.8576   21.7948 C   0  0  0  0  0  0  0  0  0  0  0  0
  -28.9605  -11.3346   18.7772 C   0  0  0  0  0  0  0  0  0  0  0  0
  -27.8582  -13.5874   19.1060 C   0  0  0  0  0  0  0  0  0  0  0  0
  -30.2577  -13.3399   19.6109 C   0  0  0  0  0  0  0  0  0  0  0  0
  -20.6559  -27.4262   22.4754 C   0  0  1  0  0  0  0  0  0  0  0  0
  -22.6100  -29.4380   19.9127 C   0  0  1  0  0  0  0  0  0  0  0  0
  -30.1265  -11.8082   19.6658 C   0  0  2  0  0  0  0  0  0  0  0  0
  -33.9256  -16.4974   25.6905 C   0  0  0  0  0  0  0  0  0  0  0  0
  -31.5865  -19.9461   18.9620 C   0  0  0  0  0  0  0  0  0  0  0  0
  -22.6846  -30.9603   12.3180 C   0  0  0  0  0  0  0  0  0  0  0  0
  -20.6899  -26.5596   16.8486 C   0  0  0  0  0  0  0  0  0  0  0  0
  -21.0582  -27.1439   14.4421 C   0  0  0  0  0  0  0  0  0  0  0  0
  -19.4613  -28.4784   15.8175 C   0  0  0  0  0  0  0  0  0  0  0  0
  -28.5757  -23.2405   17.5892 C   0  0  0  0  0  0  0  0  0  0  0  0
  -24.9164  -32.5277   14.9710 C   0  0  0  0  0  0  0  0  0  0  0  0
  -30.6252  -22.6947   18.8422 C   0  0  0  0  0  0  0  0  0  0  0  0
  -29.8031  -16.0939   22.9138 C   0  0  0  0  0  0  0  0  0  0  0  0
  -28.4451  -25.8797   18.7256 C   0  0  0  0  0  0  0  0  0  1  0  0
  -21.9459  -28.7247   16.2152 C   0  0  1  0  0  0  0  0  0  0  0  0
  -23.1014  -31.3430   13.7295 C   0  0  2  0  0  0  0  0  0  0  0  0
  -20.8104  -27.7276   15.8494 C   0  0  0  0  0  0  0  0  0  0  0  0
  -32.2467  -11.6898   18.4116 N   0  0  0  0  0  0  0  0  0  0  0  0
  -30.4837  -17.4173   20.2344 N   0  0  0  0  0  0  0  0  0  0  0  0
  -31.4250  -11.1113   19.3039 N   0  0  0  0  0  0  0  0  0  0  0  0
  -22.8075  -29.0700   18.5092 N   0  0  0  0  0  0  0  0  0  0  0  0
  -28.9777  -13.9707   19.9695 N   0  0  0  0  0  0  0  0  0  0  0  0
  -31.1848   -9.2083   20.6937 N   0  0  0  0  0  0  0  0  0  0  0  0
  -35.1534   -8.5138   18.6531 N   0  0  0  0  0  0  0  0  0  0  0  0
  -21.2463  -28.4660   21.6601 N   0  0  0  0  0  0  0  0  0  0  0  0
  -22.0654  -29.8556   15.3013 N   0  0  0  0  0  0  0  0  0  0  0  0
  -29.8714  -15.1821   21.7936 N   0  0  0  0  0  0  0  0  0  0  0  0
  -29.5881  -23.6785   18.5421 N   0  0  0  0  0  0  0  0  0  0  0  0
  -24.3994  -32.0715   13.6551 N   0  3  0  0  0  0  0  0  0  0  0  0
  -33.6486   -7.6380   20.1456 O   0  0  0  0  0  0  0  0  0  0  0  0
  -22.5134  -27.1044   20.2590 O   0  0  0  0  0  0  0  0  0  0  0  0
  -20.7603  -29.9700   17.8493 O   0  0  0  0  0  0  0  0  0  0  0  0
  -30.4110  -25.3443   19.9349 O   0  0  0  0  0  0  0  0  0  0  0  0
  -24.2681  -29.4600   14.6940 O   0  0  0  0  0  0  0  0  0  0  0  0
  -27.6514  -15.3744   21.2535 O   0  0  0  0  0  0  0  0  0  0  0  0
  -37.5811  -11.8828   14.9394 O   0  0  0  0  0  0  0  0  0  0  0  0
  -28.5926  -27.1255   19.4057 O   0  0  0  0  0  0  0  0  0  1  0  0
  -36.4539  -13.6544    9.8409 F   0  0  0  0  0  0  0  0  0  0  0  0
  -38.4061  -10.4485   12.7247 F   0  0  0  0  0  0  0  0  0  0  0  0
  1  2  1  0  0  0  0
  1  8  2  0  0  0  0
  2  9  2  0  0  0  0
  3  6  1  0  0  0  0
  3 11  2  0  0  0  0
  4 13  2  0  0  0  0
  4 21  1  0  0  0  0
  5 14  1  0  0  0  0
  5 21  2  0  0  0  0
  6 22  2  0  0  0  0
  7 12  2  0  0  0  0
  7 23  1  0  0  0  0
  8 25  1  0  0  0  0
  9 27  1  0  0  0  0
 10 15  2  0  0  0  0
 10 26  1  0  0  0  0
 11 30  1  0  0  0  0
 12 29  1  0  0  0  0
 13 33  1  0  0  0  0
 14 33  2  0  0  0  0
 15 34  1  0  0  0  0
 16 17  2  0  0  0  0
 16 35  1  0  0  0  0
 17 36  1  0  0  0  0
 18 28  1  0  0  0  0
 18 34  2  0  0  0  0
 19 29  2  0  0  0  0
 19 31  1  0  0  0  0
 20 36  2  0  0  0  0
 20 37  1  0  0  0  0
 21 38  1  0  0  0  0
 22 32  1  0  0  0  0
 22 40  1  0  0  0  0
 23 31  2  0  0  0  0
 23 40  1  0  0  0  0
 24 38  1  0  0  0  0
 24 39  2  0  0  0  0
 24 41  1  0  0  0  0
 25 27  2  0  0  0  0
 25 47  1  0  0  0  0
 26 28  2  0  0  0  0
 26 48  1  0  0  0  0
 27 56  1  0  0  0  0
 28 49  1  0  0  0  0
 29 59  1  0  0  0  0
 30 32  2  0  0  0  0
 30 67  1  0  0  0  0
 31 68  1  0  0  0  0
 32 60  1  0  0  0  0
 33 91  1  0  0  0  0
 34 92  1  0  0  0  0
 35 37  2  0  0  0  0
 35 91  1  0  0  0  0
 36 93  1  0  0  0  0
 37 94  1  0  0  0  0
 38 73  2  0  0  0  0
 39 75  1  0  0  0  0
 39 78  1  0  0  0  0
 40 74  2  0  0  0  0
 41 79  1  0  0  0  0
 41 85  2  0  0  0  0
 42 57  1  0  0  0  0
 42 80  1  0  0  0  0
 42 86  2  0  0  0  0
 43 70  1  0  0  0  0
 43 76  1  0  0  0  0
 43 87  2  0  0  0  0
 44 69  1  0  0  0  0
 44 83  1  0  0  0  0
 44 88  2  0  0  0  0
 45 71  1  0  0  0  0
 45 81  1  0  0  0  0
 45 89  2  0  0  0  0
 46 77  1  0  0  0  0
 46 82  1  0  0  0  0
 46 90  2  0  0  0  0
 47 50  1  0  0  0  0
 48 57  1  0  0  0  0
 49 76  1  0  0  0  0
 50 52  1  0  0  0  0
 51 53  1  0  0  0  0
 51 54  1  0  0  0  0
 52 56  1  0  0  0  0
 53 58  1  0  0  0  0
 54 77  1  0  0  0  0
 55 58  1  0  0  0  0
 55 77  1  0  0  0  0
 56 80  1  0  0  0  0
 57 76  1  0  0  0  0
 58 75  1  0  0  0  0
 61 71  1  0  0  0  0
 62 72  1  0  0  0  0
 63 72  1  0  0  0  0
 64 72  1  0  0  0  0
 65 83  1  0  0  0  0
 66 84  1  0  0  0  0
 67 83  1  0  0  0  0
 68 82  1  0  0  0  0
 69 92  1  0  0  0  0
 70 72  1  0  0  0  0
 70 81  1  0  0  0  0
 71 84  1  0  0  0  0
 73 75  1  0  0  0  0
M  CHG  1  84   1
M  ISO  4  46 100  69 101  82 100  92 101
M  END
> <Batch ID>
0048

> <Smiles>
CNC(C)C(=O)NC(C(=O)N1Cc2cc([101O:1][101CH2:1]C(=O)N(C)Cc3cccc(C(=N)c4ccc(C)cc4C[100NH:0][100C:0](=O)N4CCCC(n5nc(-c6ccc(Oc7ccc(F)cc7F)cc6)c(C(N)=O)c5N)C4)c3C)ccc2CC1C(=O)NC1CCCc2ccccc21)C(C)(C)C

> <Shape>
0.215

> <Color>
0.095

> <Negative vol penalty>
0.000

$$$$

  -OEChem-04042322293D

 84 92  0     1  0  0  0  0  0999 V2000
  -22.0670  -28.2374   25.1462 C   0  0  0  0  0  0  0  0  0  0  0  0
  -22.0332  -26.8474   25.1907 C   0  0  0  0  0  0  0  0  0  0  0  0
  -29.8535  -23.8366   19.2959 C   0  0  0  0  0  0  0  0  0  0  0  0
  -27.7645  -23.3709   20.4166 C   0  0  0  0  0  0  0  0  0  0  0  0
  -21.6826  -28.9061   23.9847 C   0  0  0  0  0  0  0  0  0  0  0  0
  -21.6139  -26.1252   24.0740 C   0  0  0  0  0  0  0  0  0  0  0  0
  -23.7057  -20.6780   22.2143 C   0  0  0  0  0  0  0  0  0  0  0  0
  -24.1502  -11.9193   20.1295 C   0  0  0  0  0  0  0  0  0  0  0  0
  -29.2976  -24.9878   18.7379 C   0  0  0  0  0  0  0  0  0  0  0  0
  -27.2085  -24.5221   19.8587 C   0  0  0  0  0  0  0  0  0  0  0  0
  -23.2201  -19.3813   22.3773 C   0  0  0  0  0  0  0  0  0  0  0  0
  -25.3501  -27.5316   19.0175 C   0  0  0  0  0  0  0  0  0  0  0  0
  -24.6025  -28.3619   19.8525 C   0  0  0  0  0  0  0  0  0  0  0  0
  -25.1527  -11.5819   19.2203 C   0  0  0  0  0  0  0  0  0  0  0  0
  -22.1639  -19.5111   20.2125 C   0  0  0  0  0  0  0  0  0  0  0  0
  -25.8131  -12.8385   21.6219 C   0  0  0  0  0  0  0  0  0  0  0  0
  -26.5369  -28.6848   21.2635 C   0  0  0  0  0  0  0  0  0  0  0  0
  -29.0870  -23.0281   20.1352 C   0  0  0  0  0  0  0  0  0  0  0  0
  -30.3424  -21.7320   21.9384 C   0  0  0  0  0  0  0  0  0  0  0  0
  -21.2676  -28.1915   22.8500 C   0  0  0  0  0  0  0  0  0  0  0  0
  -23.4144  -21.4062   21.0519 C   0  0  0  0  0  0  0  0  0  0  0  0
  -21.2223  -26.7850   22.8966 C   0  0  0  0  0  0  0  0  0  0  0  0
  -22.6491  -20.8159   20.0360 C   0  0  0  0  0  0  0  0  0  0  0  0
  -24.4804  -12.5477   21.3303 C   0  0  0  0  0  0  0  0  0  0  0  0
  -26.8156  -12.5010   20.7127 C   0  0  0  0  0  0  0  0  0  0  0  0
  -27.9751  -25.3306   19.0193 C   0  0  0  0  0  0  0  0  0  0  0  0
  -22.4467  -18.7987   21.3776 C   0  0  0  0  0  0  0  0  0  0  0  0
  -26.6912  -27.2778   19.3056 C   0  0  0  0  0  0  0  0  0  0  0  0
  -25.1958  -28.9385   20.9755 C   0  0  0  0  0  0  0  0  0  0  0  0
  -27.2845  -27.8545   20.4286 C   0  0  0  0  0  0  0  0  0  0  0  0
  -26.4854  -11.8727   19.5119 C   0  0  0  0  0  0  0  0  0  0  0  0
  -29.6605  -21.8386   20.7114 C   0  0  0  0  0  0  0  0  0  0  0  0
  -30.6847  -20.4048   22.0268 C   0  0  0  0  0  0  0  0  0  0  0  0
  -30.6396  -22.7423   22.9113 C   0  0  0  0  0  0  0  0  0  0  0  0
  -21.8664  -24.1116   20.4286 C   0  0  0  0  0  0  0  0  0  0  0  0
  -22.9612  -23.5888   17.4202 C   0  0  0  0  0  0  0  0  0  0  0  0
  -22.5987  -15.2157   21.8312 C   0  0  0  0  0  0  0  0  0  0  0  0
  -24.0794  -21.3595   15.0906 C   0  0  0  0  0  0  0  0  0  0  0  0
  -28.5469  -15.2761   20.7867 C   0  0  0  0  0  0  0  0  0  0  0  0
  -20.8164  -28.9598   21.6331 C   0  0  0  0  0  0  0  0  0  0  0  0
  -23.9680  -22.7941   20.8797 C   0  0  0  0  0  0  0  0  0  0  0  0
  -22.3250  -21.5479   18.7602 C   0  0  0  0  0  0  0  0  0  0  0  0
  -20.7420  -28.1083   20.3682 C   0  0  0  0  0  0  0  0  0  0  0  0
  -31.1920  -16.7121   18.7772 C   0  0  0  0  0  0  0  0  0  0  0  0
  -20.0322  -26.7887   20.6540 C   0  0  0  0  0  0  0  0  0  0  0  0
  -31.1295  -18.1817   19.1974 C   0  0  0  0  0  0  0  0  0  0  0  0
  -29.7967  -16.0993   18.7004 C   0  0  0  0  0  0  0  0  0  0  0  0
  -28.9368  -17.6889   20.3760 C   0  0  0  0  0  0  0  0  0  0  0  0
  -20.7971  -25.9656   21.6975 C   0  0  1  0  0  0  0  0  0  0  0  0
  -23.1795  -23.6319   19.8779 C   0  0  1  0  0  0  0  0  0  0  0  0
  -30.3175  -18.3597   20.4939 C   0  0  2  0  0  0  0  0  0  0  0  0
  -24.8624  -21.2241   12.7103 C   0  0  0  0  0  0  0  0  0  0  0  0
  -20.0776  -23.8553   16.4590 C   0  0  0  0  0  0  0  0  0  0  0  0
  -20.7719  -22.7919   14.3014 C   0  0  0  0  0  0  0  0  0  0  0  0
  -21.7723  -24.9691   14.9954 C   0  0  0  0  0  0  0  0  0  0  0  0
  -26.7386  -20.3446   15.9013 C   0  0  0  0  0  0  0  0  0  0  0  0
  -23.4010  -12.9105   22.3088 C   0  0  0  0  0  0  0  0  0  0  0  0
  -28.2310  -12.8304   21.0620 C   0  0  0  0  0  0  0  0  0  0  0  0
  -22.7534  -16.6386   22.3240 C   0  0  0  0  0  0  0  0  0  1  0  0
  -22.4440  -22.8542   16.2070 C   0  0  1  0  0  0  0  0  0  0  0  0
  -25.2807  -21.3894   14.1631 C   0  0  2  0  0  0  0  0  0  0  0  0
  -21.2708  -23.6043   15.5155 C   0  0  0  0  0  0  0  0  0  0  0  0
  -29.5740  -20.6721   20.0666 N   0  0  0  0  0  0  0  0  0  0  0  0
  -30.2061  -19.8199   20.8915 N   0  0  0  0  0  0  0  0  0  0  0  0
  -22.8840  -22.9048   18.6417 N   0  0  0  0  0  0  0  0  0  0  0  0
  -29.0839  -16.2866   19.9720 N   0  0  0  0  0  0  0  0  0  0  0  0
  -31.3455  -19.6927   22.9642 N   0  0  0  0  0  0  0  0  0  0  0  0
  -30.2147  -24.0546   22.6630 N   0  0  0  0  0  0  0  0  0  0  0  0
  -21.9429  -25.3213   21.0922 N   0  0  0  0  0  0  0  0  0  0  0  0
  -23.3655  -14.3305   22.5725 N   0  0  0  0  0  0  0  0  0  0  0  0
  -23.5986  -22.6267   15.3447 N   0  0  0  0  0  0  0  0  0  0  0  0
  -28.7229  -13.9759   20.3294 N   0  0  0  0  0  0  0  0  0  0  0  0
  -26.2282  -20.2918   14.5072 N   0  3  0  0  0  0  0  0  0  0  0  0
  -31.2778  -22.4921   23.9618 O   0  0  0  0  0  0  0  0  0  0  0  0
  -20.8583  -23.4351   20.2626 O   0  0  0  0  0  0  0  0  0  0  0  0
  -23.4233  -24.7248   17.2879 O   0  0  0  0  0  0  0  0  0  0  0  0
  -21.8749  -14.9150   20.8858 O   0  0  0  0  0  0  0  0  0  0  0  0
  -23.6117  -20.3162   15.5415 O   0  0  0  0  0  0  0  0  0  0  0  0
  -27.9584  -15.5145   21.8469 O   0  0  0  0  0  0  0  0  0  0  0  0
  -27.4323  -26.4539   18.4752 O   0  0  0  0  0  0  0  0  0  0  0  0
  -21.9709  -17.5334   21.5345 O   0  0  0  0  0  0  0  0  0  1  0  0
  -24.4781  -29.7371   21.7764 F   0  0  0  0  0  0  0  0  0  0  0  0
  -28.5728  -27.6153   20.7098 F   0  0  0  0  0  0  0  0  0  0  0  0
  -27.6990  -11.4408   18.3631 Cl  0  0  0  0  0  0  0  0  0  0  0  0
  1  2  1  0  0  0  0
  1  5  2  0  0  0  0
  2  6  2  0  0  0  0
  3  9  2  0  0  0  0
  3 18  1  0  0  0  0
  4 10  1  0  0  0  0
  4 18  2  0  0  0  0
  5 20  1  0  0  0  0
  6 22  1  0  0  0  0
  7 11  2  0  0  0  0
  7 21  1  0  0  0  0
  8 14  2  0  0  0  0
  8 24  1  0  0  0  0
  9 26  1  0  0  0  0
 10 26  2  0  0  0  0
 11 27  1  0  0  0  0
 12 13  2  0  0  0  0
 12 28  1  0  0  0  0
 13 29  1  0  0  0  0
 14 31  1  0  0  0  0
 15 23  1  0  0  0  0
 15 27  2  0  0  0  0
 16 24  2  0  0  0  0
 16 25  1  0  0  0  0
 17 29  2  0  0  0  0
 17 30  1  0  0  0  0
 18 32  1  0  0  0  0
 19 32  1  0  0  0  0
 19 33  2  0  0  0  0
 19 34  1  0  0  0  0
 20 22  2  0  0  0  0
 20 40  1  0  0  0  0
 21 23  2  0  0  0  0
 21 41  1  0  0  0  0
 22 49  1  0  0  0  0
 23 42  1  0  0  0  0
 24 57  1  0  0  0  0
 25 31  2  0  0  0  0
 25 58  1  0  0  0  0
 26 80  1  0  0  0  0
 27 81  1  0  0  0  0
 28 30  2  0  0  0  0
 28 80  1  0  0  0  0
 29 82  1  0  0  0  0
 30 83  1  0  0  0  0
 31 84  1  0  0  0  0
 32 63  2  0  0  0  0
 33 64  1  0  0  0  0
 33 67  1  0  0  0  0
 34 68  1  0  0  0  0
 34 74  2  0  0  0  0
 35 50  1  0  0  0  0
 35 69  1  0  0  0  0
 35 75  2  0  0  0  0
 36 60  1  0  0  0  0
 36 65  1  0  0  0  0
 36 76  2  0  0  0  0
 37 59  1  0  0  0  0
 37 70  1  0  0  0  0
 37 77  2  0  0  0  0
 38 61  1  0  0  0  0
 38 71  1  0  0  0  0
 38 78  2  0  0  0  0
 39 66  1  0  0  0  0
 39 72  1  0  0  0  0
 39 79  2  0  0  0  0
 40 43  1  0  0  0  0
 41 50  1  0  0  0  0
 42 65  1  0  0  0  0
 43 45  1  0  0  0  0
 44 46  1  0  0  0  0
 44 47  1  0  0  0  0
 45 49  1  0  0  0  0
 46 51  1  0  0  0  0
 47 66  1  0  0  0  0
 48 51  1  0  0  0  0
 48 66  1  0  0  0  0
 49 69  1  0  0  0  0
 50 65  1  0  0  0  0
 51 64  1  0  0  0  0
 52 61  1  0  0  0  0
 53 62  1  0  0  0  0
 54 62  1  0  0  0  0
 55 62  1  0  0  0  0
 56 73  1  0  0  0  0
 57 70  1  0  0  0  0
 58 72  1  0  0  0  0
 59 81  1  0  0  0  0
 60 62  1  0  0  0  0
 60 71  1  0  0  0  0
 61 73  1  0  0  0  0
 63 64  1  0  0  0  0
M  CHG  1  73   1
M  ISO  4  39 100  59 101  72 100  81 101
M  END
> <Batch ID>
0048

> <Smiles>
CNC(C)C(=O)NC(C(=O)N1Cc2cc([101O:1][101CH2:1]C(=O)NCc3ccc(Cl)c(C[100NH:0][100C:0](=O)N4CCCC(n5nc(-c6ccc(Oc7ccc(F)cc7F)cc6)c(C(N)=O)c5N)C4)c3)ccc2CC1C(=O)NC1CCCc2ccccc21)C(C)(C)C

> <Shape>
0.203

> <Color>
0.064

> <Negative vol penalty>
0.000

$$$$

  -OEChem-04042322293D

 88 97  0     1  0  0  0  0  0999 V2000
  -28.6528  -37.6174   21.1768 C   0  0  0  0  0  0  0  0  0  0  0  0
  -29.0376  -36.3138   20.8798 C   0  0  0  0  0  0  0  0  0  0  0  0
  -23.1713  -11.7008   22.7984 C   0  0  0  0  0  0  0  0  0  0  0  0
  -25.0798  -10.4320   23.5630 C   0  0  0  0  0  0  0  0  0  0  0  0
  -27.1813  -19.2781   18.5178 C   0  0  0  0  0  0  0  0  0  0  0  0
  -27.6517  -37.8500   22.1189 C   0  0  0  0  0  0  0  0  0  0  0  0
  -28.4222  -35.2421   21.5257 C   0  0  0  0  0  0  0  0  0  0  0  0
  -27.1967  -29.7288   19.1577 C   0  0  0  0  0  0  0  0  0  0  0  0
  -27.1847  -17.8838   18.4805 C   0  0  0  0  0  0  0  0  0  0  0  0
  -22.6482  -11.6932   24.0914 C   0  0  0  0  0  0  0  0  0  0  0  0
  -24.5567  -10.4244   24.8561 C   0  0  0  0  0  0  0  0  0  0  0  0
  -27.8586  -28.5045   19.2399 C   0  0  0  0  0  0  0  0  0  0  0  0
  -20.9798   -9.5379   26.0902 C   0  0  0  0  0  0  0  0  0  0  0  0
  -19.6233   -9.2487   26.2380 C   0  0  0  0  0  0  0  0  0  0  0  0
  -26.4065  -27.8481   21.0510 C   0  0  0  0  0  0  0  0  0  0  0  0
  -29.6004  -17.8908   18.4421 C   0  0  0  0  0  0  0  0  0  0  0  0
  -19.2751  -11.4073   27.2659 C   0  0  0  0  0  0  0  0  0  0  0  0
  -24.3871  -11.0702   22.5342 C   0  0  0  0  0  0  0  0  0  0  0  0
  -28.3874  -19.9788   18.5171 C   0  0  0  0  0  0  0  0  0  0  0  0
  -24.3321  -10.5488   20.0376 C   0  0  0  0  0  0  0  0  0  0  0  0
  -27.0170  -36.7802   22.7696 C   0  0  0  0  0  0  0  0  0  0  0  0
  -26.1402  -30.0268   20.0302 C   0  0  0  0  0  0  0  0  0  0  0  0
  -27.4125  -35.4607   22.4784 C   0  0  0  0  0  0  0  0  0  0  0  0
  -25.7313  -29.0759   20.9761 C   0  0  0  0  0  0  0  0  0  0  0  0
  -29.5970  -19.2851   18.4793 C   0  0  0  0  0  0  0  0  0  0  0  0
  -28.3942  -17.1901   18.4427 C   0  0  0  0  0  0  0  0  0  0  0  0
  -23.3409  -11.0550   25.1203 C   0  0  0  0  0  0  0  0  0  0  0  0
  -27.4654  -27.5650   20.1886 C   0  0  0  0  0  0  0  0  0  0  0  0
  -21.4840  -10.7617   26.5303 C   0  0  0  0  0  0  0  0  0  0  0  0
  -18.7709  -10.1834   26.8258 C   0  0  0  0  0  0  0  0  0  0  0  0
  -20.6317  -11.6964   27.1181 C   0  0  0  0  0  0  0  0  0  0  0  0
  -24.9277  -11.0772   21.1986 C   0  0  0  0  0  0  0  0  0  0  0  0
  -25.2390  -10.8063   19.0388 C   0  0  0  0  0  0  0  0  0  0  0  0
  -28.3436  -23.5287   19.8224 C   0  0  0  0  0  0  0  0  0  0  0  0
  -28.3613  -21.4519   18.5576 C   0  0  0  0  0  0  0  0  0  0  0  0
  -23.0717   -9.8847   19.8765 C   0  0  0  0  0  0  0  0  0  0  0  0
  -25.6266  -32.2334   22.2597 C   0  0  0  0  0  0  0  0  0  0  0  0
  -22.6627  -30.9168   22.3265 C   0  0  0  0  0  0  0  0  0  0  0  0
  -20.6851  -28.2004   21.7292 C   0  0  0  0  0  0  0  0  0  0  0  0
  -29.5087  -14.9321   18.3660 C   0  0  0  0  0  0  0  0  0  0  0  0
  -25.9730  -37.0830   23.8151 C   0  0  0  0  0  0  0  0  0  0  0  0
  -25.4191  -31.3414   19.9108 C   0  0  0  0  0  0  0  0  0  0  0  0
  -24.5896  -29.3390   21.9226 C   0  0  0  0  0  0  0  0  0  0  0  0
  -25.1099  -35.8781   24.1808 C   0  0  0  0  0  0  0  0  0  0  0  0
  -28.8623  -21.9236   22.1672 C   0  0  0  0  0  0  0  0  0  0  0  0
  -29.9344  -11.3977   18.3052 C   0  0  0  0  0  0  0  0  0  0  0  0
  -25.9812  -34.6475   24.4112 C   0  0  0  0  0  0  0  0  0  0  0  0
  -28.1349  -23.2427   22.3363 C   0  0  0  0  0  0  0  0  0  0  0  0
  -28.6420  -10.8661   18.9291 C   0  0  0  0  0  0  0  0  0  0  0  0
  -28.3393  -21.2124   20.9380 C   0  0  0  0  0  0  0  0  0  0  0  0
  -30.3960  -12.6918   18.9730 C   0  0  0  0  0  0  0  0  0  0  0  0
  -28.0906  -13.2213   19.6612 C   0  0  0  0  0  0  0  0  0  0  0  0
  -26.7513  -34.2709   23.1397 C   0  0  1  0  0  0  0  0  0  0  0  0
  -28.4898  -24.1772   21.1874 C   0  0  2  0  0  0  0  0  0  0  0  0
  -24.6919  -31.7424   21.1906 C   0  0  1  0  0  0  0  0  0  0  0  0
  -27.5511  -11.9538   18.9785 C   0  0  2  0  0  0  0  0  0  0  0  0
  -30.9013  -20.0129   18.4806 C   0  0  0  0  0  0  0  0  0  0  0  0
  -18.3098  -27.4132   21.9185 C   0  0  0  0  0  0  0  0  0  0  0  0
  -23.0176  -30.5777   25.3380 C   0  0  0  0  0  0  0  0  0  0  0  0
  -21.0956  -28.9735   25.3135 C   0  0  0  0  0  0  0  0  0  0  0  0
  -20.7445  -31.3483   24.6357 C   0  0  0  0  0  0  0  0  0  0  0  0
  -20.4754  -27.7626   18.8097 C   0  0  0  0  0  0  0  0  0  0  0  0
  -27.6549  -25.4538   21.2668 C   0  0  0  0  0  0  0  0  0  1  0  0
  -22.0090  -29.7935   23.0944 C   0  0  1  0  0  0  0  0  0  0  0  0
  -19.3503  -28.0628   21.0194 C   0  0  2  0  0  0  0  0  0  0  0  0
  -21.7395  -30.1687   24.5790 C   0  0  0  0  0  0  0  0  0  0  0  0
  -26.1208  -11.6285   20.9608 N   0  0  0  0  0  0  0  0  0  0  0  0
  -26.2823  -11.4480   19.6389 N   0  0  0  0  0  0  0  0  0  0  0  0
  -28.3687  -22.0749   19.7363 N   0  0  0  0  0  0  0  0  0  0  0  0
  -23.9202  -30.6415   21.7708 N   0  0  0  0  0  0  0  0  0  0  0  0
  -29.3123  -13.6768   18.9794 N   0  0  0  0  0  0  0  0  0  0  0  0
  -25.2380  -10.5442   17.7145 N   0  0  0  0  0  0  0  0  0  0  0  0
  -22.2631   -9.7026   21.0066 N   0  0  0  0  0  0  0  0  0  0  0  0
  -28.3975  -15.7736   18.4060 N   0  0  0  0  0  0  0  0  0  0  0  0
  -25.8812  -33.5904   22.2046 N   0  0  0  0  0  0  0  0  0  0  0  0
  -20.8125  -29.4281   22.3438 N   0  0  0  0  0  0  0  0  0  0  0  0
  -28.3326  -22.1364   17.4179 N   0  3  0  0  0  0  0  0  0  0  0  0
  -19.4990  -27.2283   19.7937 N   0  3  0  0  0  0  0  0  0  0  0  0
  -28.2712  -24.1907   18.7907 O   0  0  0  0  0  0  0  0  0  0  0  0
  -22.6816   -9.4506   18.7661 O   0  0  0  0  0  0  0  0  0  0  0  0
  -26.0819  -31.4400   23.0752 O   0  0  0  0  0  0  0  0  0  0  0  0
  -22.0761  -31.9964   22.2175 O   0  0  0  0  0  0  0  0  0  0  0  0
  -21.5287  -27.3067   21.7406 O   0  0  0  0  0  0  0  0  0  0  0  0
  -30.5746  -15.2278   17.8198 O   0  0  0  0  0  0  0  0  0  0  0  0
  -22.8308  -11.0476   26.3821 O   0  0  0  0  0  0  0  0  0  0  0  0
  -28.1101  -26.3695   20.2715 O   0  0  0  0  0  0  0  0  0  1  0  0
  -17.4680   -9.9062   26.9663 F   0  0  0  0  0  0  0  0  0  0  0  0
  -21.1100  -12.8744   27.5417 F   0  0  0  0  0  0  0  0  0  0  0  0
  1  2  1  0  0  0  0
  1  6  2  0  0  0  0
  2  7  2  0  0  0  0
  3 10  2  0  0  0  0
  3 18  1  0  0  0  0
  4 11  1  0  0  0  0
  4 18  2  0  0  0  0
  5  9  2  0  0  0  0
  5 19  1  0  0  0  0
  6 21  1  0  0  0  0
  7 23  1  0  0  0  0
  8 12  2  0  0  0  0
  8 22  1  0  0  0  0
  9 26  1  0  0  0  0
 10 27  1  0  0  0  0
 11 27  2  0  0  0  0
 12 28  1  0  0  0  0
 13 14  2  0  0  0  0
 13 29  1  0  0  0  0
 14 30  1  0  0  0  0
 15 24  1  0  0  0  0
 15 28  2  0  0  0  0
 16 25  1  0  0  0  0
 16 26  2  0  0  0  0
 17 30  2  0  0  0  0
 17 31  1  0  0  0  0
 18 32  1  0  0  0  0
 19 25  2  0  0  0  0
 19 35  1  0  0  0  0
 20 32  1  0  0  0  0
 20 33  2  0  0  0  0
 20 36  1  0  0  0  0
 21 23  2  0  0  0  0
 21 41  1  0  0  0  0
 22 24  2  0  0  0  0
 22 42  1  0  0  0  0
 23 53  1  0  0  0  0
 24 43  1  0  0  0  0
 25 57  1  0  0  0  0
 26 74  1  0  0  0  0
 27 85  1  0  0  0  0
 28 86  1  0  0  0  0
 29 31  2  0  0  0  0
 29 85  1  0  0  0  0
 30 87  1  0  0  0  0
 31 88  1  0  0  0  0
 32 67  2  0  0  0  0
 33 68  1  0  0  0  0
 33 72  1  0  0  0  0
 34 54  1  0  0  0  0
 34 69  1  0  0  0  0
 34 79  2  0  0  0  0
 35 69  1  0  0  0  0
 35 77  2  0  0  0  0
 36 73  1  0  0  0  0
 36 80  2  0  0  0  0
 37 55  1  0  0  0  0
 37 75  1  0  0  0  0
 37 81  2  0  0  0  0
 38 64  1  0  0  0  0
 38 70  1  0  0  0  0
 38 82  2  0  0  0  0
 39 65  1  0  0  0  0
 39 76  1  0  0  0  0
 39 83  2  0  0  0  0
 40 71  1  0  0  0  0
 40 74  1  0  0  0  0
 40 84  2  0  0  0  0
 41 44  1  0  0  0  0
 42 55  1  0  0  0  0
 43 70  1  0  0  0  0
 44 47  1  0  0  0  0
 45 48  1  0  0  0  0
 45 50  1  0  0  0  0
 46 49  1  0  0  0  0
 46 51  1  0  0  0  0
 47 53  1  0  0  0  0
 48 54  1  0  0  0  0
 49 56  1  0  0  0  0
 50 69  1  0  0  0  0
 51 71  1  0  0  0  0
 52 56  1  0  0  0  0
 52 71  1  0  0  0  0
 53 75  1  0  0  0  0
 54 63  1  0  0  0  0
 55 70  1  0  0  0  0
 56 68  1  0  0  0  0
 58 65  1  0  0  0  0
 59 66  1  0  0  0  0
 60 66  1  0  0  0  0
 61 66  1  0  0  0  0
 62 78  1  0  0  0  0
 63 86  1  0  0  0  0
 64 66  1  0  0  0  0
 64 76  1  0  0  0  0
 65 78  1  0  0  0  0
 67 68  1  0  0  0  0
M  CHG  2  77   1  78   1
M  ISO  4  40 100  63 101  74 100  86 101
M  END
> <Batch ID>
0048

> <Smiles>
CNC(C)C(=O)NC(C(=O)N1Cc2cc([101O:1][101CH2:1]C3CCCN(C(=N)c4ccc([100NH:0][100C:0](=O)N5CCCC(n6nc(-c7ccc(Oc8ccc(F)cc8F)cc7)c(C(N)=O)c6N)C5)cc4C)C3=O)ccc2CC1C(=O)NC1CCCc2ccccc21)C(C)(C)C

> <Shape>
0.282

> <Color>
0.082

> <Negative vol penalty>
0.000

$$$$

  -OEChem-04042322293D

 87 96  0     1  0  0  0  0  0999 V2000
  -27.4742  -35.9489   23.1726 C   0  0  0  0  0  0  0  0  0  0  0  0
  -27.8163  -34.6166   22.9640 C   0  0  0  0  0  0  0  0  0  0  0  0
  -22.0091  -17.4325   22.9654 C   0  0  0  0  0  0  0  0  0  0  0  0
  -23.3502  -16.8620   24.8923 C   0  0  0  0  0  0  0  0  0  0  0  0
  -26.2146  -36.2736   23.6743 C   0  0  0  0  0  0  0  0  0  0  0  0
  -26.8991  -33.6082   23.2580 C   0  0  0  0  0  0  0  0  0  0  0  0
  -26.6454  -30.0926   19.6219 C   0  0  0  0  0  0  0  0  0  0  0  0
  -21.0342  -17.9730   23.8039 C   0  0  0  0  0  0  0  0  0  0  0  0
  -22.3753  -17.4025   25.7308 C   0  0  0  0  0  0  0  0  0  0  0  0
  -27.6655  -29.1431   19.5819 C   0  0  0  0  0  0  0  0  0  0  0  0
  -20.5531  -20.8304   25.5464 C   0  0  0  0  0  0  0  0  0  0  0  0
  -20.0107  -22.0670   25.1970 C   0  0  0  0  0  0  0  0  0  0  0  0
  -26.2282  -27.5605   20.6993 C   0  0  0  0  0  0  0  0  0  0  0  0
  -30.8752  -21.4037   18.9427 C   0  0  0  0  0  0  0  0  0  0  0  0
  -32.8975  -22.3969   18.0706 C   0  0  0  0  0  0  0  0  0  0  0  0
  -17.8147  -21.0677   25.0694 C   0  0  0  0  0  0  0  0  0  0  0  0
  -23.1671  -16.8769   23.5096 C   0  0  0  0  0  0  0  0  0  0  0  0
  -24.0187  -15.2546   21.7347 C   0  0  0  0  0  0  0  0  0  0  0  0
  -25.2780  -35.2692   23.9655 C   0  0  0  0  0  0  0  0  0  0  0  0
  -25.4106  -29.7861   20.2116 C   0  0  0  0  0  0  0  0  0  0  0  0
  -25.6262  -33.9198   23.7653 C   0  0  0  0  0  0  0  0  0  0  0  0
  -25.1931  -28.5070   20.7432 C   0  0  0  0  0  0  0  0  0  0  0  0
  -31.5115  -22.4173   18.2262 C   0  0  0  0  0  0  0  0  0  0  0  0
  -31.6249  -20.3698   19.5037 C   0  0  0  0  0  0  0  0  0  0  0  0
  -21.2173  -17.9580   25.1866 C   0  0  0  0  0  0  0  0  0  0  0  0
  -27.4580  -27.8778   20.1232 C   0  0  0  0  0  0  0  0  0  0  0  0
  -19.7264  -19.7124   25.6573 C   0  0  0  0  0  0  0  0  0  0  0  0
  -18.6415  -22.1857   24.9585 C   0  0  0  0  0  0  0  0  0  0  0  0
  -18.3572  -19.8311   25.4188 C   0  0  0  0  0  0  0  0  0  0  0  0
  -33.0109  -20.3494   19.3481 C   0  0  0  0  0  0  0  0  0  0  0  0
  -33.6472  -21.3630   18.6316 C   0  0  0  0  0  0  0  0  0  0  0  0
  -24.1742  -16.3180   22.6440 C   0  0  0  0  0  0  0  0  0  0  0  0
  -25.2583  -15.1091   21.1613 C   0  0  0  0  0  0  0  0  0  0  0  0
  -30.0563  -25.8616   17.7417 C   0  0  0  0  0  0  0  0  0  0  0  0
  -30.7247  -26.7888   17.0392 C   0  0  0  0  0  0  0  0  0  0  0  0
  -22.8576  -14.4687   21.4351 C   0  0  0  0  0  0  0  0  0  0  0  0
  -23.7611  -30.9201   22.6809 C   0  0  0  0  0  0  0  0  0  0  0  0
  -21.4835  -28.8809   21.5960 C   0  0  0  0  0  0  0  0  0  0  0  0
  -21.3640  -25.5184   20.2935 C   0  0  0  0  0  0  0  0  0  0  0  0
  -29.6065  -19.2063   20.4821 C   0  0  0  0  0  0  0  0  0  0  0  0
  -23.9459  -35.6664   24.5506 C   0  0  0  0  0  0  0  0  0  0  0  0
  -24.3112  -30.8127   20.2229 C   0  0  0  0  0  0  0  0  0  0  0  0
  -23.8787  -28.1214   21.3694 C   0  0  0  0  0  0  0  0  0  0  0  0
  -28.5597  -25.8857   17.9170 C   0  0  0  0  0  0  0  0  0  0  0  0
  -22.8968  -34.5595   24.4834 C   0  0  0  0  0  0  0  0  0  0  0  0
  -29.6878  -16.1535   22.8054 C   0  0  0  0  0  0  0  0  0  0  0  0
  -23.4888  -33.2338   24.9513 C   0  0  0  0  0  0  0  0  0  0  0  0
  -28.4352  -15.4298   22.3169 C   0  0  0  0  0  0  0  0  0  0  0  0
  -28.9550  -24.5980   20.0583 C   0  0  0  0  0  0  0  0  0  0  0  0
  -30.2592  -17.0939   21.7518 C   0  0  0  0  0  0  0  0  0  0  0  0
  -27.8693  -17.8136   21.5905 C   0  0  0  0  0  0  0  0  0  0  0  0
  -30.4628  -24.7248   19.8452 C   0  0  0  0  0  0  0  0  0  0  0  0
  -24.6498  -32.7989   24.0487 C   0  0  1  0  0  0  0  0  0  0  0  0
  -23.2688  -30.5599   21.3077 C   0  0  1  0  0  0  0  0  0  0  0  0
  -27.5178  -16.3235   21.4590 C   0  0  2  0  0  0  0  0  0  0  0  0
  -28.1801  -25.7336   19.3901 C   0  0  1  0  0  0  0  0  0  1  0  0
  -19.7275  -24.4306   18.7327 C   0  0  0  0  0  0  0  0  0  0  0  0
  -20.0934  -27.9677   24.1541 C   0  0  0  0  0  0  0  0  0  0  0  0
  -19.6121  -25.7831   23.0299 C   0  0  0  0  0  0  0  0  0  0  0  0
  -18.6608  -27.8957   22.1055 C   0  0  0  0  0  0  0  0  0  0  0  0
  -23.5093  -24.7094   18.4221 C   0  0  0  0  0  0  0  0  0  0  0  0
  -30.7044  -23.5290   17.6233 C   0  0  0  0  0  0  0  0  0  0  0  0
  -21.1337  -27.4349   21.8519 C   0  0  1  0  0  0  0  0  0  0  0  0
  -21.0827  -25.1090   18.8590 C   0  0  2  0  0  0  0  0  0  0  0  0
  -19.9017  -27.2798   22.7877 C   0  0  0  0  0  0  0  0  0  0  0  0
  -25.4148  -16.8128   22.6514 N   0  0  0  0  0  0  0  0  0  0  0  0
  -26.0501  -16.0570   21.7397 N   0  0  0  0  0  0  0  0  0  0  0  0
  -22.8371  -29.1618   21.3619 N   0  0  0  0  0  0  0  0  0  0  0  0
  -29.2740  -18.0603   21.2451 N   0  0  0  0  0  0  0  0  0  0  0  0
  -25.7372  -14.2640   20.2238 N   0  0  0  0  0  0  0  0  0  0  0  0
  -22.6306  -13.3020   22.1778 N   0  0  0  0  0  0  0  0  0  0  0  0
  -30.9745  -19.3416   20.2309 N   0  0  0  0  0  0  0  0  0  0  0  0
  -24.1467  -32.2405   22.8120 N   0  0  0  0  0  0  0  0  0  0  0  0
  -20.9698  -26.8164   20.5408 N   0  0  0  0  0  0  0  0  0  0  0  0
  -30.8239  -24.8221   18.3815 N   0  3  1  0  0  0  0  0  0  0  0  0
  -22.1284  -24.1635   18.3757 N   0  3  0  0  0  0  0  0  0  0  0  0
  -22.0541  -14.7827   20.5243 O   0  0  0  0  0  0  0  0  0  0  0  0
  -23.7877  -30.0637   23.5570 O   0  0  0  0  0  0  0  0  0  0  0  0
  -20.5878  -29.7290   21.5966 O   0  0  0  0  0  0  0  0  0  0  0  0
  -21.8782  -24.7612   21.1137 O   0  0  0  0  0  0  0  0  0  0  0  0
  -28.7435  -19.9889   20.0788 O   0  0  0  0  0  0  0  0  0  0  0  0
  -20.2663  -18.4855   26.0050 O   0  0  0  0  0  0  0  0  0  0  0  0
  -28.4523  -26.9495   20.0861 O   0  0  0  0  0  0  0  0  0  1  0  0
  -18.1205  -23.3736   24.6245 F   0  0  0  0  0  0  0  0  0  0  0  0
  -17.5577  -18.7608   25.5250 F   0  0  0  0  0  0  0  0  0  0  0  0
  -33.7285  -19.3532   19.8899 F   0  0  0  0  0  0  0  0  0  0  0  0
  -35.3577  -21.3451   18.4364 Cl  0  0  0  0  0  0  0  0  0  0  0  0
  1  2  1  0  0  0  0
  1  5  2  0  0  0  0
  2  6  2  0  0  0  0
  3  8  2  0  0  0  0
  3 17  1  0  0  0  0
  4  9  1  0  0  0  0
  4 17  2  0  0  0  0
  5 19  1  0  0  0  0
  6 21  1  0  0  0  0
  7 10  2  0  0  0  0
  7 20  1  0  0  0  0
  8 25  1  0  0  0  0
  9 25  2  0  0  0  0
 10 26  1  0  0  0  0
 11 12  2  0  0  0  0
 11 27  1  0  0  0  0
 12 28  1  0  0  0  0
 13 22  1  0  0  0  0
 13 26  2  0  0  0  0
 14 23  2  0  0  0  0
 14 24  1  0  0  0  0
 15 23  1  0  0  0  0
 15 31  2  0  0  0  0
 16 28  2  0  0  0  0
 16 29  1  0  0  0  0
 17 32  1  0  0  0  0
 18 32  1  0  0  0  0
 18 33  2  0  0  0  0
 18 36  1  0  0  0  0
 19 21  2  0  0  0  0
 19 41  1  0  0  0  0
 20 22  2  0  0  0  0
 20 42  1  0  0  0  0
 21 53  1  0  0  0  0
 22 43  1  0  0  0  0
 23 62  1  0  0  0  0
 24 30  2  0  0  0  0
 24 72  1  0  0  0  0
 25 82  1  0  0  0  0
 26 83  1  0  0  0  0
 27 29  2  0  0  0  0
 27 82  1  0  0  0  0
 28 84  1  0  0  0  0
 29 85  1  0  0  0  0
 30 31  1  0  0  0  0
 30 86  1  0  0  0  0
 31 87  1  0  0  0  0
 32 66  2  0  0  0  0
 33 67  1  0  0  0  0
 33 70  1  0  0  0  0
 34 35  2  0  0  0  0
 34 44  1  0  0  0  0
 34 75  1  0  0  0  0
 36 71  1  0  0  0  0
 36 77  2  0  0  0  0
 37 54  1  0  0  0  0
 37 73  1  0  0  0  0
 37 78  2  0  0  0  0
 38 63  1  0  0  0  0
 38 68  1  0  0  0  0
 38 79  2  0  0  0  0
 39 64  1  0  0  0  0
 39 74  1  0  0  0  0
 39 80  2  0  0  0  0
 40 69  1  0  0  0  0
 40 72  1  0  0  0  0
 40 81  2  0  0  0  0
 41 45  1  0  0  0  0
 42 54  1  0  0  0  0
 43 68  1  0  0  0  0
 44 56  1  0  0  0  0
 45 47  1  0  0  0  0
 46 48  1  0  0  0  0
 46 50  1  0  0  0  0
 47 53  1  0  0  0  0
 48 55  1  0  0  0  0
 49 52  1  0  0  0  0
 49 56  1  0  0  0  0
 50 69  1  0  0  0  0
 51 55  1  0  0  0  0
 51 69  1  0  0  0  0
 52 75  1  0  0  0  0
 53 73  1  0  0  0  0
 54 68  1  0  0  0  0
 55 67  1  0  0  0  0
 56 83  1  0  0  0  0
 57 64  1  0  0  0  0
 58 65  1  0  0  0  0
 59 65  1  0  0  0  0
 60 65  1  0  0  0  0
 61 76  1  0  0  0  0
 62 75  1  0  0  0  0
 63 65  1  0  0  0  0
 63 74  1  0  0  0  0
 64 76  1  0  0  0  0
 66 67  1  0  0  0  0
M  CHG  2  75   1  76   1
M  ISO  4  40 100  56 101  72 100  83 101
M  END
> <Batch ID>
0048

> <Smiles>
C=C1C[101CH:1]([101O:1]c2ccc3c(c2)CN(C(=O)C(NC(=O)C(C)NC)C(C)(C)C)C(C(=O)NC2CCCc4ccccc42)C3)CCN1Cc1cc(Cl)c(F)c([100NH:0][100C:0](=O)N2CCCC(n3nc(-c4ccc(Oc5ccc(F)cc5F)cc4)c(C(N)=O)c3N)C2)c1

> <Shape>
0.256

> <Color>
0.094

> <Negative vol penalty>
0.000

$$$$

  -OEChem-04042322293D

 87 96  0     1  0  0  0  0  0999 V2000
  -22.4245  -28.7432   25.7899 C   0  0  0  0  0  0  0  0  0  0  0  0
  -23.4545  -27.9627   25.2746 C   0  0  0  0  0  0  0  0  0  0  0  0
  -22.6510  -10.2096   20.2528 C   0  0  0  0  0  0  0  0  0  0  0  0
  -24.2538   -9.5403   21.9320 C   0  0  0  0  0  0  0  0  0  0  0  0
  -22.6490  -30.0882   26.0803 C   0  0  0  0  0  0  0  0  0  0  0  0
  -24.7093  -28.5273   25.0485 C   0  0  0  0  0  0  0  0  0  0  0  0
  -28.4890  -25.5773   26.6783 C   0  0  0  0  0  0  0  0  0  0  0  0
  -21.9059   -9.0577   20.5048 C   0  0  0  0  0  0  0  0  0  0  0  0
  -23.5087   -8.3884   22.1841 C   0  0  0  0  0  0  0  0  0  0  0  0
  -28.8408  -24.4921   25.8768 C   0  0  0  0  0  0  0  0  0  0  0  0
  -19.6978   -7.9778   22.8267 C   0  0  0  0  0  0  0  0  0  0  0  0
  -18.3148   -8.1138   22.9467 C   0  0  0  0  0  0  0  0  0  0  0  0
  -30.6987  -25.7531   24.9953 C   0  0  0  0  0  0  0  0  0  0  0  0
  -30.4985  -18.3521   24.0351 C   0  0  0  0  0  0  0  0  0  0  0  0
  -32.0633  -16.5971   22.5339 C   0  0  0  0  0  0  0  0  0  0  0  0
  -18.0051   -6.6091   21.0819 C   0  0  0  0  0  0  0  0  0  0  0  0
  -23.8250  -10.4509   20.9663 C   0  0  0  0  0  0  0  0  0  0  0  0
  -24.1689  -12.9754   20.8383 C   0  0  0  0  0  0  0  0  0  0  0  0
  -23.9099  -30.6671   25.8667 C   0  0  0  0  0  0  0  0  0  0  0  0
  -29.2343  -26.7644   26.6362 C   0  0  0  0  0  0  0  0  0  0  0  0
  -24.9505  -29.8817   25.3351 C   0  0  0  0  0  0  0  0  0  0  0  0
  -30.3559  -26.8510   25.7992 C   0  0  0  0  0  0  0  0  0  0  0  0
  -29.8938  -17.4719   23.1379 C   0  0  0  0  0  0  0  0  0  0  0  0
  -31.8857  -18.3549   24.1817 C   0  0  0  0  0  0  0  0  0  0  0  0
  -30.6762  -16.5943   22.3873 C   0  0  0  0  0  0  0  0  0  0  0  0
  -22.3347   -8.1471   21.4705 C   0  0  0  0  0  0  0  0  0  0  0  0
  -29.9441  -24.5809   25.0330 C   0  0  0  0  0  0  0  0  0  0  0  0
  -20.2345   -7.1576   21.8343 C   0  0  0  0  0  0  0  0  0  0  0  0
  -17.4684   -7.4294   22.0743 C   0  0  0  0  0  0  0  0  0  0  0  0
  -19.3882   -6.4733   20.9619 C   0  0  0  0  0  0  0  0  0  0  0  0
  -32.6681  -17.4774   23.4312 C   0  0  0  0  0  0  0  0  0  0  0  0
  -24.5954  -11.6403   20.7060 C   0  0  0  0  0  0  0  0  0  0  0  0
  -25.2623  -13.7228   20.4745 C   0  0  0  0  0  0  0  0  0  0  0  0
  -31.4408  -21.5324   24.9296 C   0  0  0  0  0  0  0  0  0  0  0  0
  -22.8980  -13.4935   21.2531 C   0  0  0  0  0  0  0  0  0  0  0  0
  -28.6085  -29.7789   25.8460 C   0  0  0  0  0  0  0  0  0  0  0  0
  -31.6271  -30.2786   26.9235 C   0  0  0  0  0  0  0  0  0  0  0  0
  -34.8181  -28.6120   26.6844 C   0  0  0  0  0  0  0  0  0  0  0  0
  -30.7289  -14.7651   20.6560 C   0  0  0  0  0  0  0  0  0  0  0  0
  -24.0915  -32.1370   26.1515 C   0  0  0  0  0  0  0  0  0  0  0  0
  -28.8577  -27.9165   27.5268 C   0  0  0  0  0  0  0  0  0  0  0  0
  -31.2010  -28.0959   25.7320 C   0  0  0  0  0  0  0  0  0  0  0  0
  -25.5544  -32.5651   26.2346 C   0  0  0  0  0  0  0  0  0  0  0  0
  -33.7152  -22.4465   23.3238 C   0  0  0  0  0  0  0  0  0  0  0  0
  -29.6172  -12.3440   18.2939 C   0  0  0  0  0  0  0  0  0  0  0  0
  -26.3476  -31.9846   25.0681 C   0  0  0  0  0  0  0  0  0  0  0  0
  -32.3604  -23.1006   23.1510 C   0  0  0  0  0  0  0  0  0  0  0  0
  -28.1765  -12.0549   18.7217 C   0  0  0  0  0  0  0  0  0  0  0  0
  -33.5340  -20.9724   23.6386 C   0  0  0  0  0  0  0  0  0  0  0  0
  -30.5302  -12.5762   19.4965 C   0  0  0  0  0  0  0  0  0  0  0  0
  -28.6212  -13.3068   20.8716 C   0  0  0  0  0  0  0  0  0  0  0  0
  -26.3324  -30.4516   25.0993 C   0  0  1  0  0  0  0  0  0  0  0  0
  -31.5800  -22.9696   24.4441 C   0  0  1  0  0  0  0  0  0  1  0  0
  -29.3828  -29.2574   27.0234 C   0  0  1  0  0  0  0  0  0  0  0  0
  -27.6505  -13.1302   19.6926 C   0  0  2  0  0  0  0  0  0  0  0  0
  -28.4058  -17.4922   22.9996 C   0  0  0  0  0  0  0  0  0  0  0  0
  -36.7914  -28.6358   28.2346 C   0  0  0  0  0  0  0  0  0  0  0  0
  -32.6399  -32.5318   25.1326 C   0  0  0  0  0  0  0  0  0  0  0  0
  -34.9491  -31.5968   25.3805 C   0  0  0  0  0  0  0  0  0  0  0  0
  -33.7189  -32.4253   27.3862 C   0  0  0  0  0  0  0  0  0  0  0  0
  -34.8290  -25.6606   26.9029 C   0  0  0  0  0  0  0  0  0  0  0  0
  -32.4979  -19.3181   25.1572 C   0  0  0  0  0  0  0  0  0  0  0  0
  -33.0019  -30.2577   26.3003 C   0  0  1  0  0  0  0  0  0  0  0  0
  -35.5466  -27.8798   27.7968 C   0  0  2  0  0  0  0  0  0  0  0  0
  -33.5563  -31.6868   26.0398 C   0  0  0  0  0  0  0  0  0  0  0  0
  -25.8610  -11.5421   20.2904 N   0  0  0  0  0  0  0  0  0  0  0  0
  -26.2391  -12.8250   20.1584 N   0  0  0  0  0  0  0  0  0  0  0  0
  -32.5097  -20.6811   24.6430 N   0  0  0  0  0  0  0  0  0  0  0  0
  -30.7885  -29.1975   26.6173 N   0  0  0  0  0  0  0  0  0  0  0  0
  -29.9703  -13.6104   20.3693 N   0  0  0  0  0  0  0  0  0  0  0  0
  -25.4738  -15.0539   20.3974 N   0  0  0  0  0  0  0  0  0  0  0  0
  -21.8848  -12.5862   21.5915 N   0  0  0  0  0  0  0  0  0  0  0  0
  -30.0807  -15.6934   21.4700 N   0  0  0  0  0  0  0  0  0  0  0  0
  -27.2607  -29.9570   26.0933 N   0  0  0  0  0  0  0  0  0  0  0  0
  -33.8358  -29.4441   27.1783 N   0  0  0  0  0  0  0  0  0  0  0  0
  -35.9576  -26.5218   27.3407 N   0  3  0  0  0  0  0  0  0  0  0  0
  -30.4545  -21.2003   25.5922 O   0  0  0  0  0  0  0  0  0  0  0  0
  -22.6625  -14.7245   21.3058 O   0  0  0  0  0  0  0  0  0  0  0  0
  -29.1911  -30.0045   24.7918 O   0  0  0  0  0  0  0  0  0  0  0  0
  -31.3115  -31.2159   27.6608 O   0  0  0  0  0  0  0  0  0  0  0  0
  -35.0955  -28.4638   25.4962 O   0  0  0  0  0  0  0  0  0  0  0  0
  -31.8590  -14.9314   20.1899 O   0  0  0  0  0  0  0  0  0  0  0  0
  -21.6077   -7.0231   21.7170 O   0  0  0  0  0  0  0  0  0  0  0  0
  -30.2892  -23.5234   24.2491 O   0  0  0  0  0  0  0  0  0  1  0  0
  -16.1403   -7.5588   22.1906 F   0  0  0  0  0  0  0  0  0  0  0  0
  -19.8979   -5.6829   20.0073 F   0  0  0  0  0  0  0  0  0  0  0  0
  -34.3871  -17.4525   23.5857 Cl  0  0  0  0  0  0  0  0  0  0  0  0
  1  2  1  0  0  0  0
  1  5  2  0  0  0  0
  2  6  2  0  0  0  0
  3  8  2  0  0  0  0
  3 17  1  0  0  0  0
  4  9  1  0  0  0  0
  4 17  2  0  0  0  0
  5 19  1  0  0  0  0
  6 21  1  0  0  0  0
  7 10  2  0  0  0  0
  7 20  1  0  0  0  0
  8 26  1  0  0  0  0
  9 26  2  0  0  0  0
 10 27  1  0  0  0  0
 11 12  2  0  0  0  0
 11 28  1  0  0  0  0
 12 29  1  0  0  0  0
 13 22  1  0  0  0  0
 13 27  2  0  0  0  0
 14 23  2  0  0  0  0
 14 24  1  0  0  0  0
 15 25  2  0  0  0  0
 15 31  1  0  0  0  0
 16 29  2  0  0  0  0
 16 30  1  0  0  0  0
 17 32  1  0  0  0  0
 18 32  1  0  0  0  0
 18 33  2  0  0  0  0
 18 35  1  0  0  0  0
 19 21  2  0  0  0  0
 19 40  1  0  0  0  0
 20 22  2  0  0  0  0
 20 41  1  0  0  0  0
 21 52  1  0  0  0  0
 22 42  1  0  0  0  0
 23 25  1  0  0  0  0
 23 56  1  0  0  0  0
 24 31  2  0  0  0  0
 24 62  1  0  0  0  0
 25 73  1  0  0  0  0
 26 83  1  0  0  0  0
 27 84  1  0  0  0  0
 28 30  2  0  0  0  0
 28 83  1  0  0  0  0
 29 85  1  0  0  0  0
 30 86  1  0  0  0  0
 31 87  1  0  0  0  0
 32 66  2  0  0  0  0
 33 67  1  0  0  0  0
 33 71  1  0  0  0  0
 34 53  1  0  0  0  0
 34 68  1  0  0  0  0
 34 77  2  0  0  0  0
 35 72  1  0  0  0  0
 35 78  2  0  0  0  0
 36 54  1  0  0  0  0
 36 74  1  0  0  0  0
 36 79  2  0  0  0  0
 37 63  1  0  0  0  0
 37 69  1  0  0  0  0
 37 80  2  0  0  0  0
 38 64  1  0  0  0  0
 38 75  1  0  0  0  0
 38 81  2  0  0  0  0
 39 70  1  0  0  0  0
 39 73  1  0  0  0  0
 39 82  2  0  0  0  0
 40 43  1  0  0  0  0
 41 54  1  0  0  0  0
 42 69  1  0  0  0  0
 43 46  1  0  0  0  0
 44 47  1  0  0  0  0
 44 49  1  0  0  0  0
 45 48  1  0  0  0  0
 45 50  1  0  0  0  0
 46 52  1  0  0  0  0
 47 53  1  0  0  0  0
 48 55  1  0  0  0  0
 49 68  1  0  0  0  0
 50 70  1  0  0  0  0
 51 55  1  0  0  0  0
 51 70  1  0  0  0  0
 52 74  1  0  0  0  0
 53 84  1  0  0  0  0
 54 69  1  0  0  0  0
 55 67  1  0  0  0  0
 57 64  1  0  0  0  0
 58 65  1  0  0  0  0
 59 65  1  0  0  0  0
 60 65  1  0  0  0  0
 61 76  1  0  0  0  0
 62 68  1  0  0  0  0
 63 65  1  0  0  0  0
 63 75  1  0  0  0  0
 64 76  1  0  0  0  0
 66 67  1  0  0  0  0
M  CHG  1  76   1
M  ISO  4  39 100  53 101  73 100  84 101
M  END
> <Batch ID>
0048

> <Smiles>
CNC(C)C(=O)NC(C(=O)N1Cc2cc([101O:1][101CH:1]3CCCN(Cc4cc(C)c([100NH:0][100C:0](=O)N5CCCC(n6nc(-c7ccc(Oc8ccc(F)cc8F)cc7)c(C(N)=O)c6N)C5)cc4Cl)C3=O)ccc2CC1C(=O)NC1CCCc2ccccc21)C(C)(C)C

> <Shape>
0.194

> <Color>
0.191

> <Negative vol penalty>
0.000

$$$$

  -OEChem-04042322293D

 87 96  0     1  0  0  0  0  0999 V2000
  -26.4336  -38.1509   23.9535 C   0  0  0  0  0  0  0  0  0  0  0  0
  -27.0907  -37.3438   23.0304 C   0  0  0  0  0  0  0  0  0  0  0  0
  -22.9526  -12.3853   23.2912 C   0  0  0  0  0  0  0  0  0  0  0  0
  -23.2277  -14.7378   22.8147 C   0  0  0  0  0  0  0  0  0  0  0  0
  -25.7438  -37.5717   25.0178 C   0  0  0  0  0  0  0  0  0  0  0  0
  -27.0594  -35.9569   23.1716 C   0  0  0  0  0  0  0  0  0  0  0  0
  -27.0091  -29.9480   19.2721 C   0  0  0  0  0  0  0  0  0  0  0  0
  -22.0819  -12.6984   24.3348 C   0  0  0  0  0  0  0  0  0  0  0  0
  -22.3568  -15.0510   23.8583 C   0  0  0  0  0  0  0  0  0  0  0  0
  -27.6865  -28.7352   19.1536 C   0  0  0  0  0  0  0  0  0  0  0  0
  -18.8449  -13.6089   24.6899 C   0  0  0  0  0  0  0  0  0  0  0  0
  -17.6649  -12.8724   24.7926 C   0  0  0  0  0  0  0  0  0  0  0  0
  -26.3970  -27.8428   20.9867 C   0  0  0  0  0  0  0  0  0  0  0  0
  -28.1465  -20.3732   17.8532 C   0  0  0  0  0  0  0  0  0  0  0  0
  -30.3205  -18.9151   18.8178 C   0  0  0  0  0  0  0  0  0  0  0  0
  -18.3214  -12.1278   26.9953 C   0  0  0  0  0  0  0  0  0  0  0  0
  -23.5256  -13.4049   22.5311 C   0  0  0  0  0  0  0  0  0  0  0  0
  -24.1423  -12.3081   20.3121 C   0  0  0  0  0  0  0  0  0  0  0  0
  -25.6959  -36.1766   25.1666 C   0  0  0  0  0  0  0  0  0  0  0  0
  -26.0266  -30.1212   20.2575 C   0  0  0  0  0  0  0  0  0  0  0  0
  -26.3694  -35.3585   24.2396 C   0  0  0  0  0  0  0  0  0  0  0  0
  -25.7068  -29.0579   21.1139 C   0  0  0  0  0  0  0  0  0  0  0  0
  -29.3706  -21.0063   18.0684 C   0  0  0  0  0  0  0  0  0  0  0  0
  -28.0094  -19.0110   18.1204 C   0  0  0  0  0  0  0  0  0  0  0  0
  -30.4576  -20.2773   18.5506 C   0  0  0  0  0  0  0  0  0  0  0  0
  -29.0964  -18.2819   18.6026 C   0  0  0  0  0  0  0  0  0  0  0  0
  -21.7839  -14.0313   24.6184 C   0  0  0  0  0  0  0  0  0  0  0  0
  -27.3825  -27.6833   20.0129 C   0  0  0  0  0  0  0  0  0  0  0  0
  -19.7633  -13.6048   25.7398 C   0  0  0  0  0  0  0  0  0  0  0  0
  -17.4031  -12.1318   25.9453 C   0  0  0  0  0  0  0  0  0  0  0  0
  -19.5015  -12.8643   26.8925 C   0  0  0  0  0  0  0  0  0  0  0  0
  -24.4257  -13.0821   21.4533 C   0  0  0  0  0  0  0  0  0  0  0  0
  -25.3182  -12.2995   19.6023 C   0  0  0  0  0  0  0  0  0  0  0  0
  -30.1219  -24.6036   18.7429 C   0  0  0  0  0  0  0  0  0  0  0  0
  -31.3742  -24.8097   19.1778 C   0  0  0  0  0  0  0  0  0  0  0  0
  -22.9250  -11.6553   19.9278 C   0  0  0  0  0  0  0  0  0  0  0  0
  -25.6814  -32.0397   22.7682 C   0  0  0  0  0  0  0  0  0  0  0  0
  -22.7455  -30.6687   22.9206 C   0  0  0  0  0  0  0  0  0  0  0  0
  -21.3619  -27.3585   22.5388 C   0  0  0  0  0  0  0  0  0  0  0  0
  -29.9687  -16.0439   19.3621 C   0  0  0  0  0  0  0  0  0  0  0  0
  -24.9772  -35.5981   26.3598 C   0  0  0  0  0  0  0  0  0  0  0  0
  -25.2862  -31.4268   20.3549 C   0  0  0  0  0  0  0  0  0  0  0  0
  -24.6460  -29.1861   22.1753 C   0  0  0  0  0  0  0  0  0  0  0  0
  -29.3184  -25.6575   18.0254 C   0  0  0  0  0  0  0  0  0  0  0  0
  -24.6784  -34.1071   26.2268 C   0  0  0  0  0  0  0  0  0  0  0  0
  -30.0600  -12.5866   20.2081 C   0  0  0  0  0  0  0  0  0  0  0  0
  -25.9118  -33.3574   25.7335 C   0  0  0  0  0  0  0  0  0  0  0  0
  -28.5988  -12.2494   20.5137 C   0  0  0  0  0  0  0  0  0  0  0  0
  -27.2704  -24.4544   18.8962 C   0  0  0  0  0  0  0  0  0  0  0  0
  -30.4295  -13.9906   20.6836 C   0  0  0  0  0  0  0  0  0  0  0  0
  -28.0838  -14.7236   20.5109 C   0  0  0  0  0  0  0  0  0  0  0  0
  -28.1739  -23.5016   19.6776 C   0  0  0  0  0  0  0  0  0  0  0  0
  -26.3377  -33.8492   24.3449 C   0  0  1  0  0  0  0  0  0  0  0  0
  -24.6650  -31.6605   21.7285 C   0  0  1  0  0  0  0  0  0  0  0  0
  -27.6470  -13.3438   19.9923 C   0  0  2  0  0  0  0  0  0  0  0  0
  -27.9333  -25.8104   18.6544 C   0  0  1  0  0  0  0  0  0  1  0  0
  -26.6865  -18.3587   17.8805 C   0  0  0  0  0  0  0  0  0  0  0  0
  -31.7778  -20.9338   18.7889 C   0  0  0  0  0  0  0  0  0  0  0  0
  -19.0687  -26.6197   21.8368 C   0  0  0  0  0  0  0  0  0  0  0  0
  -22.1689  -30.5928   25.9159 C   0  0  0  0  0  0  0  0  0  0  0  0
  -20.8073  -28.5274   25.5308 C   0  0  0  0  0  0  0  0  0  0  0  0
  -20.1346  -30.6796   24.4639 C   0  0  0  0  0  0  0  0  0  0  0  0
  -22.4449  -25.6769   20.3574 C   0  0  0  0  0  0  0  0  0  0  0  0
  -29.4942  -22.4723   17.7743 C   0  0  0  0  0  0  0  0  0  0  0  0
  -22.1684  -29.4506   23.6005 C   0  0  1  0  0  0  0  0  0  0  0  0
  -20.5028  -26.8595   21.3910 C   0  0  2  0  0  0  0  0  0  0  0  0
  -21.3471  -29.8137   24.8698 C   0  0  0  0  0  0  0  0  0  0  0  0
  -25.6830  -13.5324   21.4717 N   0  0  0  0  0  0  0  0  0  0  0  0
  -26.2002  -13.0398   20.3333 N   0  0  0  0  0  0  0  0  0  0  0  0
  -23.9545  -30.4845   22.2350 N   0  0  0  0  0  0  0  0  0  0  0  0
  -29.4871  -14.9749   20.1470 N   0  0  0  0  0  0  0  0  0  0  0  0
  -25.6734  -11.7310   18.4306 N   0  0  0  0  0  0  0  0  0  0  0  0
  -21.8121  -11.7659   20.7726 N   0  0  0  0  0  0  0  0  0  0  0  0
  -28.9770  -16.8975   18.8798 N   0  0  0  0  0  0  0  0  0  0  0  0
  -25.4783  -33.2882   23.3245 N   0  0  0  0  0  0  0  0  0  0  0  0
  -21.4079  -28.7360   22.5809 N   0  0  0  0  0  0  0  0  0  0  0  0
  -29.5196  -23.3220   19.0147 N   0  3  1  0  0  0  0  0  0  0  0  0
  -21.0479  -25.5808   20.8538 N   0  3  0  0  0  0  0  0  0  0  0  0
  -22.8317  -10.9799   18.8749 O   0  0  0  0  0  0  0  0  0  0  0  0
  -26.5822  -31.2568   23.0463 O   0  0  0  0  0  0  0  0  0  0  0  0
  -22.1420  -31.7424   22.9893 O   0  0  0  0  0  0  0  0  0  0  0  0
  -21.9319  -26.6021   23.3220 O   0  0  0  0  0  0  0  0  0  0  0  0
  -31.1695  -16.1759   19.1119 O   0  0  0  0  0  0  0  0  0  0  0  0
  -20.9340  -14.3372   25.6365 O   0  0  0  0  0  0  0  0  0  0  0  0
  -28.0427  -26.4987   19.8998 O   0  0  0  0  0  0  0  0  0  1  0  0
  -16.2691  -11.4258   26.0445 F   0  0  0  0  0  0  0  0  0  0  0  0
  -20.3795  -12.8575   27.9049 F   0  0  0  0  0  0  0  0  0  0  0  0
  1  2  1  0  0  0  0
  1  5  2  0  0  0  0
  2  6  2  0  0  0  0
  3  8  2  0  0  0  0
  3 17  1  0  0  0  0
  4  9  1  0  0  0  0
  4 17  2  0  0  0  0
  5 19  1  0  0  0  0
  6 21  1  0  0  0  0
  7 10  2  0  0  0  0
  7 20  1  0  0  0  0
  8 27  1  0  0  0  0
  9 27  2  0  0  0  0
 10 28  1  0  0  0  0
 11 12  2  0  0  0  0
 11 29  1  0  0  0  0
 12 30  1  0  0  0  0
 13 22  1  0  0  0  0
 13 28  2  0  0  0  0
 14 23  1  0  0  0  0
 14 24  2  0  0  0  0
 15 25  1  0  0  0  0
 15 26  2  0  0  0  0
 16 30  2  0  0  0  0
 16 31  1  0  0  0  0
 17 32  1  0  0  0  0
 18 32  1  0  0  0  0
 18 33  2  0  0  0  0
 18 36  1  0  0  0  0
 19 21  2  0  0  0  0
 19 41  1  0  0  0  0
 20 22  2  0  0  0  0
 20 42  1  0  0  0  0
 21 53  1  0  0  0  0
 22 43  1  0  0  0  0
 23 25  2  0  0  0  0
 23 64  1  0  0  0  0
 24 26  1  0  0  0  0
 24 57  1  0  0  0  0
 25 58  1  0  0  0  0
 26 74  1  0  0  0  0
 27 84  1  0  0  0  0
 28 85  1  0  0  0  0
 29 31  2  0  0  0  0
 29 84  1  0  0  0  0
 30 86  1  0  0  0  0
 31 87  1  0  0  0  0
 32 68  2  0  0  0  0
 33 69  1  0  0  0  0
 33 72  1  0  0  0  0
 34 35  2  0  0  0  0
 34 44  1  0  0  0  0
 34 77  1  0  0  0  0
 36 73  1  0  0  0  0
 36 79  2  0  0  0  0
 37 54  1  0  0  0  0
 37 75  1  0  0  0  0
 37 80  2  0  0  0  0
 38 65  1  0  0  0  0
 38 70  1  0  0  0  0
 38 81  2  0  0  0  0
 39 66  1  0  0  0  0
 39 76  1  0  0  0  0
 39 82  2  0  0  0  0
 40 71  1  0  0  0  0
 40 74  1  0  0  0  0
 40 83  2  0  0  0  0
 41 45  1  0  0  0  0
 42 54  1  0  0  0  0
 43 70  1  0  0  0  0
 44 56  1  0  0  0  0
 45 47  1  0  0  0  0
 46 48  1  0  0  0  0
 46 50  1  0  0  0  0
 47 53  1  0  0  0  0
 48 55  1  0  0  0  0
 49 52  1  0  0  0  0
 49 56  1  0  0  0  0
 50 71  1  0  0  0  0
 51 55  1  0  0  0  0
 51 71  1  0  0  0  0
 52 77  1  0  0  0  0
 53 75  1  0  0  0  0
 54 70  1  0  0  0  0
 55 69  1  0  0  0  0
 56 85  1  0  0  0  0
 59 66  1  0  0  0  0
 60 67  1  0  0  0  0
 61 67  1  0  0  0  0
 62 67  1  0  0  0  0
 63 78  1  0  0  0  0
 64 77  1  0  0  0  0
 65 67  1  0  0  0  0
 65 76  1  0  0  0  0
 66 78  1  0  0  0  0
 68 69  1  0  0  0  0
M  CHG  2  77   1  78   1
M  ISO  4  40 100  56 101  74 100  85 101
M  END
> <Batch ID>
0048

> <Smiles>
C=C1C[101CH:1]([101O:1]c2ccc3c(c2)CN(C(=O)C(NC(=O)C(C)NC)C(C)(C)C)C(C(=O)NC2CCCc4ccccc42)C3)CCN1Cc1cc(C)c([100NH:0][100C:0](=O)N2CCCC(n3nc(-c4ccc(Oc5ccc(F)cc5F)cc4)c(C(N)=O)c3N)C2)cc1C

> <Shape>
0.314

> <Color>
0.085

> <Negative vol penalty>
0.000

$$$$

  -OEChem-04042322293D

 84 92  0     1  0  0  0  0  0999 V2000
  -26.7980  -34.2870   25.5463 C   0  0  0  0  0  0  0  0  0  0  0  0
  -27.2136  -33.0991   24.9534 C   0  0  0  0  0  0  0  0  0  0  0  0
  -26.4498  -11.6246   21.2386 C   0  0  0  0  0  0  0  0  0  0  0  0
  -25.6520  -13.2001   19.5898 C   0  0  0  0  0  0  0  0  0  0  0  0
  -30.1710  -22.5253   19.8200 C   0  0  0  0  0  0  0  0  0  0  0  0
  -25.4710  -34.4380   25.9467 C   0  0  0  0  0  0  0  0  0  0  0  0
  -26.3026  -32.0609   24.7616 C   0  0  0  0  0  0  0  0  0  0  0  0
  -26.6714  -29.9779   20.1605 C   0  0  0  0  0  0  0  0  0  0  0  0
  -30.6115  -21.2521   20.1811 C   0  0  0  0  0  0  0  0  0  0  0  0
  -25.1334  -11.2902   21.5561 C   0  0  0  0  0  0  0  0  0  0  0  0
  -24.3355  -12.8656   19.9073 C   0  0  0  0  0  0  0  0  0  0  0  0
  -27.7216  -29.0861   19.9477 C   0  0  0  0  0  0  0  0  0  0  0  0
  -21.9887   -9.7596   22.5475 C   0  0  0  0  0  0  0  0  0  0  0  0
  -21.6787   -8.4067   22.6860 C   0  0  0  0  0  0  0  0  0  0  0  0
  -26.2053  -27.2358   20.2583 C   0  0  0  0  0  0  0  0  0  0  0  0
  -29.4032  -20.3050   18.3156 C   0  0  0  0  0  0  0  0  0  0  0  0
  -22.3584   -8.0169   20.4006 C   0  0  0  0  0  0  0  0  0  0  0  0
  -26.7091  -12.5796   20.2555 C   0  0  0  0  0  0  0  0  0  0  0  0
  -29.3465  -22.6884   18.7068 C   0  0  0  0  0  0  0  0  0  0  0  0
  -28.8885  -12.3232   18.9545 C   0  0  0  0  0  0  0  0  0  0  0  0
  -24.5411  -33.4047   25.7510 C   0  0  0  0  0  0  0  0  0  0  0  0
  -25.3803  -29.5046   20.4351 C   0  0  0  0  0  0  0  0  0  0  0  0
  -24.9623  -32.1977   25.1611 C   0  0  0  0  0  0  0  0  0  0  0  0
  -25.1399  -28.1237   20.4717 C   0  0  0  0  0  0  0  0  0  0  0  0
  -28.9626  -21.5783   17.9546 C   0  0  0  0  0  0  0  0  0  0  0  0
  -30.2277  -20.1419   19.4289 C   0  0  0  0  0  0  0  0  0  0  0  0
  -24.0763  -11.9107   20.8904 C   0  0  0  0  0  0  0  0  0  0  0  0
  -27.4893  -27.7148   19.9994 C   0  0  0  0  0  0  0  0  0  0  0  0
  -22.4835  -10.2412   21.3355 C   0  0  0  0  0  0  0  0  0  0  0  0
  -21.8635   -7.5354   21.6126 C   0  0  0  0  0  0  0  0  0  0  0  0
  -22.6684   -9.3698   20.2621 C   0  0  0  0  0  0  0  0  0  0  0  0
  -28.0687  -12.9259   19.9274 C   0  0  0  0  0  0  0  0  0  0  0  0
  -30.0760  -13.0086   19.0336 C   0  0  0  0  0  0  0  0  0  0  0  0
  -28.8918  -24.0559   18.3458 C   0  0  0  0  0  0  0  0  0  0  0  0
  -28.6020  -11.2405   18.0593 C   0  0  0  0  0  0  0  0  0  0  0  0
  -23.3718  -29.7593   22.8856 C   0  0  0  0  0  0  0  0  0  0  0  0
  -21.3379  -28.2301   20.8739 C   0  0  0  0  0  0  0  0  0  0  0  0
  -20.9263  -26.1833   18.1743 C   0  0  0  0  0  0  0  0  0  0  0  0
  -31.4974  -18.5136   20.8721 C   0  0  0  0  0  0  0  0  0  0  0  0
  -23.1285  -33.5965   26.2433 C   0  0  0  0  0  0  0  0  0  0  0  0
  -24.2527  -30.4797   20.6359 C   0  0  0  0  0  0  0  0  0  0  0  0
  -23.7679  -27.5645   20.7427 C   0  0  0  0  0  0  0  0  0  0  0  0
  -22.1393  -32.5887   25.6636 C   0  0  0  0  0  0  0  0  0  0  0  0
  -32.7935  -15.4465   22.1330 C   0  0  0  0  0  0  0  0  0  0  0  0
  -22.7107  -31.1764   25.7382 C   0  0  0  0  0  0  0  0  0  0  0  0
  -31.8070  -14.3965   21.6169 C   0  0  0  0  0  0  0  0  0  0  0  0
  -32.0890  -16.7467   22.5162 C   0  0  0  0  0  0  0  0  0  0  0  0
  -30.2441  -16.2691   20.9550 C   0  0  0  0  0  0  0  0  0  0  0  0
  -23.9981  -31.0578   24.9135 C   0  0  1  0  0  0  0  0  0  0  0  0
  -23.0832  -29.8881   21.4167 C   0  0  1  0  0  0  0  0  0  0  0  0
  -30.9151  -14.9644   20.4954 C   0  0  2  0  0  0  0  0  0  0  0  0
  -28.0794  -21.7249   16.7586 C   0  0  0  0  0  0  0  0  0  0  0  0
  -19.1460  -25.0815   16.7908 C   0  0  0  0  0  0  0  0  0  0  0  0
  -30.8761  -27.3125   19.7010 C   0  0  0  0  0  0  0  0  0  0  0  0
  -20.8953  -26.1745   23.0850 C   0  0  0  0  0  0  0  0  0  0  0  0
  -19.9051  -24.6444   21.3684 C   0  0  0  0  0  0  0  0  0  0  0  0
  -18.8250  -26.8408   21.8503 C   0  0  0  0  0  0  0  0  0  0  0  0
  -21.7867  -27.6049   15.7253 C   0  0  0  0  0  0  0  0  0  0  0  0
  -29.6122  -26.3442   17.7127 C   0  0  0  0  0  0  0  0  0  0  0  0
  -21.0098  -26.7863   20.5792 C   0  0  1  0  0  0  0  0  0  0  0  0
  -20.0412  -26.3010   16.9466 C   0  0  2  0  0  0  0  0  0  0  0  0
  -29.5648  -27.2679   18.9277 C   0  0  1  0  0  0  0  0  0  1  0  0
  -20.1851  -26.1217   21.7175 C   0  0  0  0  0  0  0  0  0  0  0  0
  -28.6836  -13.9179   20.5770 N   0  0  0  0  0  0  0  0  0  0  0  0
  -29.9024  -13.9437   20.0112 N   0  0  0  0  0  0  0  0  0  0  0  0
  -22.6995  -28.5582   20.9387 N   0  0  0  0  0  0  0  0  0  0  0  0
  -31.2661  -17.2274   21.4041 N   0  0  0  0  0  0  0  0  0  0  0  0
  -31.2415  -12.8967   18.3616 N   0  0  0  0  0  0  0  0  0  0  0  0
  -27.3321  -10.6496   18.1103 N   0  0  0  0  0  0  0  0  0  0  0  0
  -30.6757  -18.8489   19.7965 N   0  0  0  0  0  0  0  0  0  0  0  0
  -29.8922  -24.9751   18.0553 N   0  0  0  0  0  0  0  0  0  0  0  0
  -23.6876  -30.9541   23.5038 N   0  0  0  0  0  0  0  0  0  0  0  0
  -20.3498  -26.7750   19.2782 N   0  0  0  0  0  0  0  0  0  0  0  0
  -20.8743  -26.4325   15.7180 N   0  3  0  0  0  0  0  0  0  0  0  0
  -27.6895  -24.3069   18.3416 O   0  0  0  0  0  0  0  0  0  0  0  0
  -29.4525  -10.7990   17.2499 O   0  0  0  0  0  0  0  0  0  0  0  0
  -23.3110  -28.6577   23.4190 O   0  0  0  0  0  0  0  0  0  0  0  0
  -20.4199  -29.0385   21.0334 O   0  0  0  0  0  0  0  0  0  0  0  0
  -22.0182  -25.6193   18.1567 O   0  0  0  0  0  0  0  0  0  0  0  0
  -32.3791  -19.2518   21.3189 O   0  0  0  0  0  0  0  0  0  0  0  0
  -22.7916  -11.5844   21.1998 O   0  0  0  0  0  0  0  0  0  0  0  0
  -28.5128  -26.8420   19.7927 O   0  0  0  0  0  0  0  0  0  1  0  0
  -21.5672   -6.2359   21.7463 F   0  0  0  0  0  0  0  0  0  0  0  0
  -23.1445   -9.8264   19.0956 F   0  0  0  0  0  0  0  0  0  0  0  0
  1  2  1  0  0  0  0
  1  6  2  0  0  0  0
  2  7  2  0  0  0  0
  3 10  2  0  0  0  0
  3 18  1  0  0  0  0
  4 11  1  0  0  0  0
  4 18  2  0  0  0  0
  5  9  2  0  0  0  0
  5 19  1  0  0  0  0
  6 21  1  0  0  0  0
  7 23  1  0  0  0  0
  8 12  2  0  0  0  0
  8 22  1  0  0  0  0
  9 26  1  0  0  0  0
 10 27  1  0  0  0  0
 11 27  2  0  0  0  0
 12 28  1  0  0  0  0
 13 14  2  0  0  0  0
 13 29  1  0  0  0  0
 14 30  1  0  0  0  0
 15 24  1  0  0  0  0
 15 28  2  0  0  0  0
 16 25  1  0  0  0  0
 16 26  2  0  0  0  0
 17 30  2  0  0  0  0
 17 31  1  0  0  0  0
 18 32  1  0  0  0  0
 19 25  2  0  0  0  0
 19 34  1  0  0  0  0
 20 32  1  0  0  0  0
 20 33  2  0  0  0  0
 20 35  1  0  0  0  0
 21 23  2  0  0  0  0
 21 40  1  0  0  0  0
 22 24  2  0  0  0  0
 22 41  1  0  0  0  0
 23 49  1  0  0  0  0
 24 42  1  0  0  0  0
 25 52  1  0  0  0  0
 26 70  1  0  0  0  0
 27 81  1  0  0  0  0
 28 82  1  0  0  0  0
 29 31  2  0  0  0  0
 29 81  1  0  0  0  0
 30 83  1  0  0  0  0
 31 84  1  0  0  0  0
 32 64  2  0  0  0  0
 33 65  1  0  0  0  0
 33 68  1  0  0  0  0
 34 71  1  0  0  0  0
 34 75  2  0  0  0  0
 35 69  1  0  0  0  0
 35 76  2  0  0  0  0
 36 50  1  0  0  0  0
 36 72  1  0  0  0  0
 36 77  2  0  0  0  0
 37 60  1  0  0  0  0
 37 66  1  0  0  0  0
 37 78  2  0  0  0  0
 38 61  1  0  0  0  0
 38 73  1  0  0  0  0
 38 79  2  0  0  0  0
 39 67  1  0  0  0  0
 39 70  1  0  0  0  0
 39 80  2  0  0  0  0
 40 43  1  0  0  0  0
 41 50  1  0  0  0  0
 42 66  1  0  0  0  0
 43 45  1  0  0  0  0
 44 46  1  0  0  0  0
 44 47  1  0  0  0  0
 45 49  1  0  0  0  0
 46 51  1  0  0  0  0
 47 67  1  0  0  0  0
 48 51  1  0  0  0  0
 48 67  1  0  0  0  0
 49 72  1  0  0  0  0
 50 66  1  0  0  0  0
 51 65  1  0  0  0  0
 53 61  1  0  0  0  0
 54 62  1  0  0  0  0
 55 63  1  0  0  0  0
 56 63  1  0  0  0  0
 57 63  1  0  0  0  0
 58 74  1  0  0  0  0
 59 62  1  0  0  0  0
 59 71  1  0  0  0  0
 60 63  1  0  0  0  0
 60 73  1  0  0  0  0
 61 74  1  0  0  0  0
 62 82  1  0  0  0  0
 64 65  1  0  0  0  0
M  CHG  1  74   1
M  ISO  4  39 100  62 101  70 100  82 101
M  END
> <Batch ID>
0048

> <Smiles>
CNC(C)C(=O)NC(C(=O)N1Cc2cc([101O:1][101CH:1](C)CNC(=O)c3ccc([100NH:0][100C:0](=O)N4CCCC(n5nc(-c6ccc(Oc7ccc(F)cc7F)cc6)c(C(N)=O)c5N)C4)cc3C)ccc2CC1C(=O)NC1CCCc2ccccc21)C(C)(C)C

> <Shape>
0.357

> <Color>
0.093

> <Negative vol penalty>
0.000

$$$$

  -OEChem-04042322293D

 86 95  0     1  0  0  0  0  0999 V2000
  -30.2419  -35.3773   21.0038 C   0  0  0  0  0  0  0  0  0  0  0  0
  -30.1570  -33.9888   20.9846 C   0  0  0  0  0  0  0  0  0  0  0  0
  -22.9768  -11.8502   22.7668 C   0  0  0  0  0  0  0  0  0  0  0  0
  -24.2134   -9.8414   22.2449 C   0  0  0  0  0  0  0  0  0  0  0  0
  -29.3553  -36.1180   21.7843 C   0  0  0  0  0  0  0  0  0  0  0  0
  -29.1861  -33.3402   21.7468 C   0  0  0  0  0  0  0  0  0  0  0  0
  -26.8366  -29.6622   19.1782 C   0  0  0  0  0  0  0  0  0  0  0  0
  -30.3213  -20.0402   18.2148 C   0  0  0  0  0  0  0  0  0  0  0  0
  -30.2095  -18.6699   18.4503 C   0  0  0  0  0  0  0  0  0  0  0  0
  -22.3167  -11.1769   23.7946 C   0  0  0  0  0  0  0  0  0  0  0  0
  -23.5534   -9.1680   23.2728 C   0  0  0  0  0  0  0  0  0  0  0  0
  -27.5170  -28.4543   19.0302 C   0  0  0  0  0  0  0  0  0  0  0  0
  -20.5386   -7.7207   23.7696 C   0  0  0  0  0  0  0  0  0  0  0  0
  -20.0512   -6.4422   23.4986 C   0  0  0  0  0  0  0  0  0  0  0  0
  -26.2244  -27.5118   20.8357 C   0  0  0  0  0  0  0  0  0  0  0  0
  -28.0089  -20.1093   17.5184 C   0  0  0  0  0  0  0  0  0  0  0  0
  -21.4449   -5.5391   25.2534 C   0  0  0  0  0  0  0  0  0  0  0  0
  -23.9251  -11.1824   21.9918 C   0  0  0  0  0  0  0  0  0  0  0  0
  -24.0250  -12.4862   19.8015 C   0  0  0  0  0  0  0  0  0  0  0  0
  -28.3668  -35.4786   22.5490 C   0  0  0  0  0  0  0  0  0  0  0  0
  -25.8510  -29.8076   20.1651 C   0  0  0  0  0  0  0  0  0  0  0  0
  -28.2863  -34.0730   22.5394 C   0  0  0  0  0  0  0  0  0  0  0  0
  -25.5312  -28.7218   20.9926 C   0  0  0  0  0  0  0  0  0  0  0  0
  -29.2210  -20.7599   17.7489 C   0  0  0  0  0  0  0  0  0  0  0  0
  -27.8970  -18.7390   17.7538 C   0  0  0  0  0  0  0  0  0  0  0  0
  -28.9974  -18.0193   18.2198 C   0  0  0  0  0  0  0  0  0  0  0  0
  -22.6051   -9.8358   24.0477 C   0  0  0  0  0  0  0  0  0  0  0  0
  -27.2129  -27.3798   19.8609 C   0  0  0  0  0  0  0  0  0  0  0  0
  -21.4791   -7.9085   24.7825 C   0  0  0  0  0  0  0  0  0  0  0  0
  -20.5044   -5.3514   24.2405 C   0  0  0  0  0  0  0  0  0  0  0  0
  -21.9322   -6.8176   25.5244 C   0  0  0  0  0  0  0  0  0  0  0  0
  -24.6068  -11.8773   20.9295 C   0  0  0  0  0  0  0  0  0  0  0  0
  -25.0889  -13.0036   19.1036 C   0  0  0  0  0  0  0  0  0  0  0  0
  -29.9625  -24.3401   18.5189 C   0  0  0  0  0  0  0  0  0  0  0  0
  -31.2132  -24.5373   18.9625 C   0  0  0  0  0  0  0  0  0  0  0  0
  -22.6462  -12.5762   19.4187 C   0  0  0  0  0  0  0  0  0  0  0  0
  -25.4946  -31.6594   22.7239 C   0  0  0  0  0  0  0  0  0  0  0  0
  -22.5613  -30.2787   22.8323 C   0  0  0  0  0  0  0  0  0  0  0  0
  -21.1861  -26.9766   22.3605 C   0  0  0  0  0  0  0  0  0  0  0  0
  -29.9115  -15.7813   18.9281 C   0  0  0  0  0  0  0  0  0  0  0  0
  -27.4613  -36.3192   23.4139 C   0  0  0  0  0  0  0  0  0  0  0  0
  -25.1075  -31.1087   20.2943 C   0  0  0  0  0  0  0  0  0  0  0  0
  -24.4671  -28.8200   22.0540 C   0  0  0  0  0  0  0  0  0  0  0  0
  -29.1587  -25.4105   17.8268 C   0  0  0  0  0  0  0  0  0  0  0  0
  -26.2209  -35.5745   23.9010 C   0  0  0  0  0  0  0  0  0  0  0  0
  -30.0677  -12.3077   19.6945 C   0  0  0  0  0  0  0  0  0  0  0  0
  -26.6003  -34.1964   24.4336 C   0  0  0  0  0  0  0  0  0  0  0  0
  -28.6130  -11.9362   19.9914 C   0  0  0  0  0  0  0  0  0  0  0  0
  -27.1110  -24.1808   18.6602 C   0  0  0  0  0  0  0  0  0  0  0  0
  -30.4106  -13.7071   20.2024 C   0  0  0  0  0  0  0  0  0  0  0  0
  -28.0516  -14.3997   20.0451 C   0  0  0  0  0  0  0  0  0  0  0  0
  -28.0144  -23.2099   19.4191 C   0  0  0  0  0  0  0  0  0  0  0  0
  -27.2308  -33.3342   23.3333 C   0  0  1  0  0  0  0  0  0  0  0  0
  -24.4820  -31.3052   21.6718 C   0  0  1  0  0  0  0  0  0  0  0  0
  -27.6409  -13.0242   19.4947 C   0  0  2  0  0  0  0  0  0  0  0  0
  -27.7715  -25.5441   18.4557 C   0  0  1  0  0  0  0  0  0  1  0  0
  -26.5872  -18.0675   17.4953 C   0  0  0  0  0  0  0  0  0  0  0  0
  -18.8964  -26.2515   21.6331 C   0  0  0  0  0  0  0  0  0  0  0  0
  -21.9767  -30.1236   25.8230 C   0  0  0  0  0  0  0  0  0  0  0  0
  -20.6206  -28.0661   25.3804 C   0  0  0  0  0  0  0  0  0  0  0  0
  -19.9462  -30.2439   24.3679 C   0  0  0  0  0  0  0  0  0  0  0  0
  -22.2787  -25.3546   20.1392 C   0  0  0  0  0  0  0  0  0  0  0  0
  -29.3421  -22.2333   17.4934 C   0  0  0  0  0  0  0  0  0  0  0  0
  -21.9850  -29.0421   23.4786 C   0  0  1  0  0  0  0  0  0  0  0  0
  -20.3312  -26.5058   21.1978 C   0  0  2  0  0  0  0  0  0  0  0  0
  -21.1594  -29.3702   24.7546 C   0  0  0  0  0  0  0  0  0  0  0  0
  -25.9370  -11.9958   20.9509 N   0  0  0  0  0  0  0  0  0  0  0  0
  -26.2000  -12.6852   19.8277 N   0  0  0  0  0  0  0  0  0  0  0  0
  -23.7726  -30.1150   22.1455 N   0  0  0  0  0  0  0  0  0  0  0  0
  -29.4500  -14.6856   19.6880 N   0  0  0  0  0  0  0  0  0  0  0  0
  -25.1730  -13.6953   17.9473 N   0  0  0  0  0  0  0  0  0  0  0  0
  -21.6824  -11.9899   20.2502 N   0  0  0  0  0  0  0  0  0  0  0  0
  -28.9040  -16.6269   18.4650 N   0  0  0  0  0  0  0  0  0  0  0  0
  -26.2083  -32.8112   22.4528 N   0  0  0  0  0  0  0  0  0  0  0  0
  -21.2290  -28.3526   22.4386 N   0  0  0  0  0  0  0  0  0  0  0  0
  -29.3622  -23.0505   18.7555 N   0  3  1  0  0  0  0  0  0  0  0  0
  -20.8807  -25.2427   20.6289 N   0  3  0  0  0  0  0  0  0  0  0  0
  -22.2812  -13.1451   18.3620 O   0  0  0  0  0  0  0  0  0  0  0  0
  -25.6183  -30.9416   23.7094 O   0  0  0  0  0  0  0  0  0  0  0  0
  -21.9553  -31.3489   22.9271 O   0  0  0  0  0  0  0  0  0  0  0  0
  -21.7556  -26.2013   23.1254 O   0  0  0  0  0  0  0  0  0  0  0  0
  -31.1096  -15.9415   18.6818 O   0  0  0  0  0  0  0  0  0  0  0  0
  -21.9614   -9.1785   25.0508 O   0  0  0  0  0  0  0  0  0  0  0  0
  -27.8760  -26.1999   19.7189 O   0  0  0  0  0  0  0  0  0  1  0  0
  -20.0351   -4.1239   23.9812 F   0  0  0  0  0  0  0  0  0  0  0  0
  -22.8348   -6.9919   26.4994 F   0  0  0  0  0  0  0  0  0  0  0  0
  1  2  1  0  0  0  0
  1  5  2  0  0  0  0
  2  6  2  0  0  0  0
  3 10  2  0  0  0  0
  3 18  1  0  0  0  0
  4 11  1  0  0  0  0
  4 18  2  0  0  0  0
  5 20  1  0  0  0  0
  6 22  1  0  0  0  0
  7 12  2  0  0  0  0
  7 21  1  0  0  0  0
  8  9  2  0  0  0  0
  8 24  1  0  0  0  0
  9 26  1  0  0  0  0
 10 27  1  0  0  0  0
 11 27  2  0  0  0  0
 12 28  1  0  0  0  0
 13 14  2  0  0  0  0
 13 29  1  0  0  0  0
 14 30  1  0  0  0  0
 15 23  1  0  0  0  0
 15 28  2  0  0  0  0
 16 24  2  0  0  0  0
 16 25  1  0  0  0  0
 17 30  2  0  0  0  0
 17 31  1  0  0  0  0
 18 32  1  0  0  0  0
 19 32  1  0  0  0  0
 19 33  2  0  0  0  0
 19 36  1  0  0  0  0
 20 22  2  0  0  0  0
 20 41  1  0  0  0  0
 21 23  2  0  0  0  0
 21 42  1  0  0  0  0
 22 53  1  0  0  0  0
 23 43  1  0  0  0  0
 24 63  1  0  0  0  0
 25 26  2  0  0  0  0
 25 57  1  0  0  0  0
 26 73  1  0  0  0  0
 27 83  1  0  0  0  0
 28 84  1  0  0  0  0
 29 31  2  0  0  0  0
 29 83  1  0  0  0  0
 30 85  1  0  0  0  0
 31 86  1  0  0  0  0
 32 67  2  0  0  0  0
 33 68  1  0  0  0  0
 33 71  1  0  0  0  0
 34 35  2  0  0  0  0
 34 44  1  0  0  0  0
 34 76  1  0  0  0  0
 36 72  1  0  0  0  0
 36 78  2  0  0  0  0
 37 54  1  0  0  0  0
 37 74  1  0  0  0  0
 37 79  2  0  0  0  0
 38 64  1  0  0  0  0
 38 69  1  0  0  0  0
 38 80  2  0  0  0  0
 39 65  1  0  0  0  0
 39 75  1  0  0  0  0
 39 81  2  0  0  0  0
 40 70  1  0  0  0  0
 40 73  1  0  0  0  0
 40 82  2  0  0  0  0
 41 45  1  0  0  0  0
 42 54  1  0  0  0  0
 43 69  1  0  0  0  0
 44 56  1  0  0  0  0
 45 47  1  0  0  0  0
 46 48  1  0  0  0  0
 46 50  1  0  0  0  0
 47 53  1  0  0  0  0
 48 55  1  0  0  0  0
 49 52  1  0  0  0  0
 49 56  1  0  0  0  0
 50 70  1  0  0  0  0
 51 55  1  0  0  0  0
 51 70  1  0  0  0  0
 52 76  1  0  0  0  0
 53 74  1  0  0  0  0
 54 69  1  0  0  0  0
 55 68  1  0  0  0  0
 56 84  1  0  0  0  0
 58 65  1  0  0  0  0
 59 66  1  0  0  0  0
 60 66  1  0  0  0  0
 61 66  1  0  0  0  0
 62 77  1  0  0  0  0
 63 76  1  0  0  0  0
 64 66  1  0  0  0  0
 64 75  1  0  0  0  0
 65 77  1  0  0  0  0
 67 68  1  0  0  0  0
M  CHG  2  76   1  77   1
M  ISO  4  40 100  56 101  73 100  84 101
M  END
> <Batch ID>
0048

> <Smiles>
C=C1C[101CH:1]([101O:1]c2ccc3c(c2)CN(C(=O)C(NC(=O)C(C)NC)C(C)(C)C)C(C(=O)NC2CCCc4ccccc42)C3)CCN1Cc1ccc([100NH:0][100C:0](=O)N2CCCC(n3nc(-c4ccc(Oc5ccc(F)cc5F)cc4)c(C(N)=O)c3N)C2)c(C)c1

> <Shape>
0.311

> <Color>
0.092

> <Negative vol penalty>
0.000

$$$$

  -OEChem-04042322293D

 86 94  0     1  0  0  0  0  0999 V2000
  -37.4526  -32.4982   15.8463 C   0  0  0  0  0  0  0  0  0  0  0  0
  -37.7106  -31.2614   16.4289 C   0  0  0  0  0  0  0  0  0  0  0  0
  -23.0307   -9.9514   19.8769 C   0  0  0  0  0  0  0  0  0  0  0  0
  -23.8735   -9.7530   22.1324 C   0  0  0  0  0  0  0  0  0  0  0  0
  -36.1879  -33.0729   15.9644 C   0  0  0  0  0  0  0  0  0  0  0  0
  -36.7041  -30.5992   17.1308 C   0  0  0  0  0  0  0  0  0  0  0  0
  -35.7915  -24.5507   17.4289 C   0  0  0  0  0  0  0  0  0  0  0  0
  -32.1006  -17.9548   24.5114 C   0  0  0  0  0  0  0  0  0  0  0  0
  -22.2850   -8.7858   20.0529 C   0  0  0  0  0  0  0  0  0  0  0  0
  -23.1278   -8.5874   22.3085 C   0  0  0  0  0  0  0  0  0  0  0  0
  -36.1348  -23.5963   18.3854 C   0  0  0  0  0  0  0  0  0  0  0  0
  -19.9160   -7.7615   22.9586 C   0  0  0  0  0  0  0  0  0  0  0  0
  -19.2018   -7.6245   24.1489 C   0  0  0  0  0  0  0  0  0  0  0  0
  -30.7084  -17.9830   24.4299 C   0  0  0  0  0  0  0  0  0  0  0  0
  -33.9374  -23.7925   19.3612 C   0  0  0  0  0  0  0  0  0  0  0  0
  -32.1743  -16.3565   22.7011 C   0  0  0  0  0  0  0  0  0  0  0  0
  -20.4500   -5.6220   24.6674 C   0  0  0  0  0  0  0  0  0  0  0  0
  -23.8250  -10.4350   20.9166 C   0  0  0  0  0  0  0  0  0  0  0  0
  -24.1871  -12.9586   21.0041 C   0  0  0  0  0  0  0  0  0  0  0  0
  -35.1626  -32.4128   16.6599 C   0  0  0  0  0  0  0  0  0  0  0  0
  -34.5200  -25.1421   17.4380 C   0  0  0  0  0  0  0  0  0  0  0  0
  -35.4248  -31.1662   17.2595 C   0  0  0  0  0  0  0  0  0  0  0  0
  -33.5795  -24.7523   18.4021 C   0  0  0  0  0  0  0  0  0  0  0  0
  -32.8336  -17.1416   23.6469 C   0  0  0  0  0  0  0  0  0  0  0  0
  -30.7821  -16.3846   22.6197 C   0  0  0  0  0  0  0  0  0  0  0  0
  -22.3336   -8.1038   21.2687 C   0  0  0  0  0  0  0  0  0  0  0  0
  -35.2087  -23.2192   19.3535 C   0  0  0  0  0  0  0  0  0  0  0  0
  -20.8972   -6.8287   22.6227 C   0  0  0  0  0  0  0  0  0  0  0  0
  -19.4688   -6.5548   25.0033 C   0  0  0  0  0  0  0  0  0  0  0  0
  -21.1642   -5.7589   23.4771 C   0  0  0  0  0  0  0  0  0  0  0  0
  -30.0492  -17.1978   23.4841 C   0  0  0  0  0  0  0  0  0  0  0  0
  -24.5959  -11.6387   20.7351 C   0  0  0  0  0  0  0  0  0  0  0  0
  -25.2726  -13.7297   20.6672 C   0  0  0  0  0  0  0  0  0  0  0  0
  -22.9378  -13.4443   21.5132 C   0  0  0  0  0  0  0  0  0  0  0  0
  -33.4269  -28.1050   17.7987 C   0  0  0  0  0  0  0  0  0  0  0  0
  -30.5796  -26.7250   17.0841 C   0  0  0  0  0  0  0  0  0  0  0  0
  -28.6676  -23.8992   17.0082 C   0  0  0  0  0  0  0  0  0  0  0  0
  -30.7516  -14.7196   20.7293 C   0  0  0  0  0  0  0  0  0  0  0  0
  -33.8251  -33.0954   16.8012 C   0  0  0  0  0  0  0  0  0  0  0  0
  -34.1561  -26.1506   16.3830 C   0  0  0  0  0  0  0  0  0  0  0  0
  -32.1944  -25.3423   18.4428 C   0  0  0  0  0  0  0  0  0  0  0  0
  -32.7055  -32.1561   17.2423 C   0  0  0  0  0  0  0  0  0  0  0  0
  -29.5280  -12.5293   18.2030 C   0  0  0  0  0  0  0  0  0  0  0  0
  -33.1651  -31.2893   18.4103 C   0  0  0  0  0  0  0  0  0  0  0  0
  -28.1022  -12.2109   18.6586 C   0  0  0  0  0  0  0  0  0  0  0  0
  -30.4885  -12.6462   19.3852 C   0  0  0  0  0  0  0  0  0  0  0  0
  -28.6403  -13.2600   20.8940 C   0  0  0  0  0  0  0  0  0  0  0  0
  -34.3518  -30.4054   18.0078 C   0  0  1  0  0  0  0  0  0  0  0  0
  -33.0074  -27.0636   16.8001 C   0  0  1  0  0  0  0  0  0  0  0  0
  -27.6236  -13.1967   19.7425 C   0  0  2  0  0  0  0  0  0  0  0  0
  -26.3685  -23.0918   16.4084 C   0  0  0  0  0  0  0  0  0  0  0  0
  -29.4798  -27.9591   19.6488 C   0  0  0  0  0  0  0  0  0  0  0  0
  -27.5410  -26.3827   19.4934 C   0  0  0  0  0  0  0  0  0  0  0  0
  -27.9269  -28.0639   17.6913 C   0  0  0  0  0  0  0  0  0  0  0  0
  -29.7262  -22.0536   14.9509 C   0  0  0  0  0  0  0  0  0  0  0  0
  -34.3397  -17.1117   23.7351 C   0  0  0  0  0  0  0  0  0  0  0  0
  -35.0093  -18.1538   22.8426 C   0  0  0  0  0  0  0  0  0  0  0  0
  -36.4893  -21.2927   19.9056 C   0  0  0  0  0  0  0  0  0  1  0  0
  -36.2458  -20.0300   20.7073 C   0  0  0  0  0  0  0  0  0  0  0  0
  -29.4760  -26.0751   17.8834 C   0  0  1  0  0  0  0  0  0  0  0  0
  -27.7929  -23.3037   15.9196 C   0  0  2  0  0  0  0  0  0  0  0  0
  -28.6326  -27.1103   18.6799 C   0  0  0  0  0  0  0  0  0  0  0  0
  -25.8437  -11.5713   20.2634 N   0  0  0  0  0  0  0  0  0  0  0  0
  -26.2283  -12.8586   20.2334 N   0  0  0  0  0  0  0  0  0  0  0  0
  -31.8884  -26.3290   17.3938 N   0  0  0  0  0  0  0  0  0  0  0  0
  -29.9720  -13.6002   20.3691 N   0  0  0  0  0  0  0  0  0  0  0  0
  -25.4934  -15.0610   20.7025 N   0  0  0  0  0  0  0  0  0  0  0  0
  -21.9299  -12.5159   21.8074 N   0  0  0  0  0  0  0  0  0  0  0  0
  -30.1436  -15.5740   21.6486 N   0  0  0  0  0  0  0  0  0  0  0  0
  -33.8975  -29.2730   17.2296 N   0  0  0  0  0  0  0  0  0  0  0  0
  -28.7039  -25.2758   16.9383 N   0  0  0  0  0  0  0  0  0  0  0  0
  -34.6610  -17.9879   21.4201 N   0  0  0  0  0  0  0  0  0  0  0  0
  -28.3386  -21.9892   15.4778 N   0  3  0  0  0  0  0  0  0  0  0  0
  -22.7160  -14.6668   21.6861 O   0  0  0  0  0  0  0  0  0  0  0  0
  -33.3295  -27.8671   18.9969 O   0  0  0  0  0  0  0  0  0  0  0  0
  -30.2905  -27.5482   16.2121 O   0  0  0  0  0  0  0  0  0  0  0  0
  -29.2566  -23.2120   17.8397 O   0  0  0  0  0  0  0  0  0  0  0  0
  -31.8646  -14.9210   20.2366 O   0  0  0  0  0  0  0  0  0  0  0  0
  -33.6504  -20.3110   20.8946 O   0  0  0  0  0  0  0  0  0  0  0  0
  -34.5968  -18.9091   19.0250 O   0  0  0  0  0  0  0  0  0  0  0  0
  -21.6059   -6.9665   21.4410 O   0  0  0  0  0  0  0  0  0  0  0  0
  -35.5415  -22.2883   20.2888 O   0  0  0  0  0  0  0  0  0  1  0  0
  -18.7839   -6.4242   26.1470 F   0  0  0  0  0  0  0  0  0  0  0  0
  -22.1065   -4.8603   23.1603 F   0  0  0  0  0  0  0  0  0  0  0  0
  -34.6379  -19.3634   20.4054 S   0  0  0  0  0  0  0  0  0  0  0  0
  -28.3240  -17.2630   23.4181 Cl  0  0  0  0  0  0  0  0  0  0  0  0
  1  2  1  0  0  0  0
  1  5  2  0  0  0  0
  2  6  2  0  0  0  0
  3  9  2  0  0  0  0
  3 18  1  0  0  0  0
  4 10  1  0  0  0  0
  4 18  2  0  0  0  0
  5 20  1  0  0  0  0
  6 22  1  0  0  0  0
  7 11  2  0  0  0  0
  7 21  1  0  0  0  0
  8 14  2  0  0  0  0
  8 24  1  0  0  0  0
  9 26  1  0  0  0  0
 10 26  2  0  0  0  0
 11 27  1  0  0  0  0
 12 13  2  0  0  0  0
 12 28  1  0  0  0  0
 13 29  1  0  0  0  0
 14 31  1  0  0  0  0
 15 23  1  0  0  0  0
 15 27  2  0  0  0  0
 16 24  2  0  0  0  0
 16 25  1  0  0  0  0
 17 29  2  0  0  0  0
 17 30  1  0  0  0  0
 18 32  1  0  0  0  0
 19 32  1  0  0  0  0
 19 33  2  0  0  0  0
 19 34  1  0  0  0  0
 20 22  2  0  0  0  0
 20 39  1  0  0  0  0
 21 23  2  0  0  0  0
 21 40  1  0  0  0  0
 22 48  1  0  0  0  0
 23 41  1  0  0  0  0
 24 56  1  0  0  0  0
 25 31  2  0  0  0  0
 25 69  1  0  0  0  0
 26 81  1  0  0  0  0
 27 82  1  0  0  0  0
 28 30  2  0  0  0  0
 28 81  1  0  0  0  0
 29 83  1  0  0  0  0
 30 84  1  0  0  0  0
 31 86  1  0  0  0  0
 32 63  2  0  0  0  0
 33 64  1  0  0  0  0
 33 67  1  0  0  0  0
 34 68  1  0  0  0  0
 34 74  2  0  0  0  0
 35 49  1  0  0  0  0
 35 70  1  0  0  0  0
 35 75  2  0  0  0  0
 36 60  1  0  0  0  0
 36 65  1  0  0  0  0
 36 76  2  0  0  0  0
 37 61  1  0  0  0  0
 37 71  1  0  0  0  0
 37 77  2  0  0  0  0
 38 66  1  0  0  0  0
 38 69  1  0  0  0  0
 38 78  2  0  0  0  0
 39 42  1  0  0  0  0
 40 49  1  0  0  0  0
 41 65  1  0  0  0  0
 42 44  1  0  0  0  0
 43 45  1  0  0  0  0
 43 46  1  0  0  0  0
 44 48  1  0  0  0  0
 45 50  1  0  0  0  0
 46 66  1  0  0  0  0
 47 50  1  0  0  0  0
 47 66  1  0  0  0  0
 48 70  1  0  0  0  0
 49 65  1  0  0  0  0
 50 64  1  0  0  0  0
 51 61  1  0  0  0  0
 52 62  1  0  0  0  0
 53 62  1  0  0  0  0
 54 62  1  0  0  0  0
 55 73  1  0  0  0  0
 56 57  1  0  0  0  0
 57 72  1  0  0  0  0
 58 59  1  0  0  0  0
 58 82  1  0  0  0  0
 59 85  1  0  0  0  0
 60 62  1  0  0  0  0
 60 71  1  0  0  0  0
 61 73  1  0  0  0  0
 63 64  1  0  0  0  0
 72 85  1  0  0  0  0
 79 85  2  0  0  0  0
 80 85  2  0  0  0  0
M  CHG  1  73   1
M  ISO  4  38 100  58 101  69 100  82 101
M  END
> <Batch ID>
0048

> <Smiles>
CNC(C)C(=O)NC(C(=O)N1Cc2cc([101O:1][101CH2:1]CS(=O)(=O)NCCc3ccc(Cl)c([100NH:0][100C:0](=O)N4CCCC(n5nc(-c6ccc(Oc7ccc(F)cc7F)cc6)c(C(N)=O)c5N)C4)c3)ccc2CC1C(=O)NC1CCCc2ccccc21)C(C)(C)C

> <Shape>
0.205

> <Color>
0.188

> <Negative vol penalty>
0.000

$$$$

  -OEChem-04042322293D

 87 96  0     1  0  0  0  0  0999 V2000
  -17.4001  -25.8185   21.2891 C   0  0  0  0  0  0  0  0  0  0  0  0
  -18.7164  -25.3994   21.1248 C   0  0  0  0  0  0  0  0  0  0  0  0
  -23.3139  -10.3892   22.4807 C   0  0  0  0  0  0  0  0  0  0  0  0
  -23.6512   -9.4471   20.2816 C   0  0  0  0  0  0  0  0  0  0  0  0
  -17.1325  -27.0934   21.7861 C   0  0  0  0  0  0  0  0  0  0  0  0
  -19.7660  -26.2554   21.4564 C   0  0  0  0  0  0  0  0  0  0  0  0
  -23.4196  -23.9250   24.0766 C   0  0  0  0  0  0  0  0  0  0  0  0
  -29.0809  -19.6493   19.1887 C   0  0  0  0  0  0  0  0  0  0  0  0
  -22.5825   -9.2610   22.8518 C   0  0  0  0  0  0  0  0  0  0  0  0
  -22.9198   -8.3189   20.6528 C   0  0  0  0  0  0  0  0  0  0  0  0
  -24.3078  -23.1260   23.3580 C   0  0  0  0  0  0  0  0  0  0  0  0
  -19.4564   -8.0590   22.3966 C   0  0  0  0  0  0  0  0  0  0  0  0
  -18.2607   -8.2606   23.0859 C   0  0  0  0  0  0  0  0  0  0  0  0
  -30.1216  -19.9186   18.2999 C   0  0  0  0  0  0  0  0  0  0  0  0
  -25.9313  -24.9099   23.3929 C   0  0  0  0  0  0  0  0  0  0  0  0
  -31.5364  -18.3586   19.4840 C   0  0  0  0  0  0  0  0  0  0  0  0
  -19.1224   -6.9911   24.9522 C   0  0  0  0  0  0  0  0  0  0  0  0
  -23.8483  -10.4823   21.1955 C   0  0  0  0  0  0  0  0  0  0  0  0
  -24.1543  -12.9817   20.7868 C   0  0  0  0  0  0  0  0  0  0  0  0
  -18.1793  -27.9619   22.1331 C   0  0  0  0  0  0  0  0  0  0  0  0
  -23.7770  -25.2285   24.4499 C   0  0  0  0  0  0  0  0  0  0  0  0
  -19.5122  -27.5436   21.9573 C   0  0  0  0  0  0  0  0  0  0  0  0
  -25.0468  -25.7224   24.1184 C   0  0  0  0  0  0  0  0  0  0  0  0
  -29.2679  -18.7347   20.2252 C   0  0  0  0  0  0  0  0  0  0  0  0
  -30.4956  -18.0894   20.3728 C   0  0  0  0  0  0  0  0  0  0  0  0
  -22.3855   -8.2258   21.9379 C   0  0  0  0  0  0  0  0  0  0  0  0
  -25.5628  -23.6194   23.0135 C   0  0  0  0  0  0  0  0  0  0  0  0
  -20.4852   -7.3233   22.9851 C   0  0  0  0  0  0  0  0  0  0  0  0
  -18.0936   -7.7267   24.3637 C   0  0  0  0  0  0  0  0  0  0  0  0
  -20.3181   -6.7895   24.2629 C   0  0  0  0  0  0  0  0  0  0  0  0
  -31.3494  -19.2733   18.4476 C   0  0  0  0  0  0  0  0  0  0  0  0
  -24.6034  -11.6477   20.8114 C   0  0  0  0  0  0  0  0  0  0  0  0
  -25.2406  -13.7019   20.3536 C   0  0  0  0  0  0  0  0  0  0  0  0
  -27.0486  -20.5773   21.8168 C   0  0  0  0  0  0  0  0  0  0  0  0
  -22.8699  -13.5216   21.1253 C   0  0  0  0  0  0  0  0  0  0  0  0
  -22.6542  -28.1326   23.8103 C   0  0  0  0  0  0  0  0  0  0  0  0
  -24.8624  -29.0447   26.0044 C   0  0  0  0  0  0  0  0  0  0  0  0
  -28.2710  -28.1902   26.8223 C   0  0  0  0  0  0  0  0  0  0  0  0
  -30.7050  -14.8269   20.4972 C   0  0  0  0  0  0  0  0  0  0  0  0
  -17.8408  -29.3479   22.6221 C   0  0  0  0  0  0  0  0  0  0  0  0
  -22.8176  -26.0681   25.2480 C   0  0  0  0  0  0  0  0  0  0  0  0
  -25.4866  -27.1078   24.5130 C   0  0  0  0  0  0  0  0  0  0  0  0
  -19.0095  -30.0562   23.3023 C   0  0  0  0  0  0  0  0  0  0  0  0
  -28.5340  -20.5599   24.3427 C   0  0  0  0  0  0  0  0  0  0  0  0
  -29.6403  -12.1624   18.3892 C   0  0  0  0  0  0  0  0  0  0  0  0
  -20.2801  -29.9083   22.4713 C   0  0  0  0  0  0  0  0  0  0  0  0
  -28.0562  -21.8732   23.7595 C   0  0  0  0  0  0  0  0  0  0  0  0
  -28.2009  -11.8972   18.8336 C   0  0  0  0  0  0  0  0  0  0  0  0
  -28.9070  -19.6083   23.2201 C   0  0  0  0  0  0  0  0  0  0  0  0
  -30.5353  -12.5366   19.5686 C   0  0  0  0  0  0  0  0  0  0  0  0
  -28.6015  -13.3923   20.8343 C   0  0  0  0  0  0  0  0  0  0  0  0
  -20.6779  -28.4341   22.3291 C   0  0  1  0  0  0  0  0  0  0  0  0
  -26.8285  -21.6179   22.9075 C   0  0  1  0  0  0  0  0  0  1  0  0
  -23.0922  -27.5642   25.1304 C   0  0  1  0  0  0  0  0  0  0  0  0
  -27.6485  -13.0657   19.6718 C   0  0  2  0  0  0  0  0  0  0  0  0
  -29.5094  -28.3264   29.0006 C   0  0  0  0  0  0  0  0  0  0  0  0
  -25.7633  -31.7773   24.9889 C   0  0  0  0  0  0  0  0  0  0  0  0
  -28.0118  -31.3330   25.9964 C   0  0  0  0  0  0  0  0  0  0  0  0
  -25.9939  -31.4541   27.4580 C   0  0  0  0  0  0  0  0  0  0  0  0
  -29.0187  -25.3289   26.7094 C   0  0  0  0  0  0  0  0  0  0  0  0
  -28.1336  -18.4615   21.1701 C   0  0  0  0  0  0  0  0  0  0  0  0
  -30.7195  -17.1075   21.4758 C   0  0  0  0  0  0  0  0  0  0  0  0
  -26.3165  -29.4474   25.9542 C   0  0  1  0  0  0  0  0  0  0  0  0
  -28.7479  -27.4236   28.0427 C   0  0  2  0  0  0  0  0  0  0  0  0
  -26.5102  -30.9850   26.0803 C   0  0  0  0  0  0  0  0  0  0  0  0
  -25.8759  -11.5249   20.4245 N   0  0  0  0  0  0  0  0  0  0  0  0
  -26.2356  -12.7910   20.1526 N   0  0  0  0  0  0  0  0  0  0  0  0
  -27.9421  -19.5485   22.1208 N   0  0  0  0  0  0  0  0  0  0  0  0
  -24.5106  -27.8925   25.2871 N   0  0  0  0  0  0  0  0  0  0  0  0
  -29.9557  -13.6519   20.3211 N   0  0  0  0  0  0  0  0  0  0  0  0
  -25.4323  -15.0191   20.1289 N   0  0  0  0  0  0  0  0  0  0  0  0
  -21.8665  -12.6411   21.5523 N   0  0  0  0  0  0  0  0  0  0  0  0
  -21.3094  -27.9617   23.5426 N   0  0  0  0  0  0  0  0  0  0  0  0
  -26.9906  -28.6732   26.9908 N   0  0  0  0  0  0  0  0  0  0  0  0
  -30.0790  -15.8372   21.2170 N   0  0  0  0  0  0  0  0  0  0  0  0
  -29.6467  -26.3071   27.6344 N   0  3  0  0  0  0  0  0  0  0  0  0
  -26.4034  -20.6413   20.7671 O   0  0  0  0  0  0  0  0  0  0  0  0
  -22.6144  -14.7464   21.0356 O   0  0  0  0  0  0  0  0  0  0  0  0
  -23.4753  -28.6867   23.0888 O   0  0  0  0  0  0  0  0  0  0  0  0
  -24.0694  -29.7232   26.6619 O   0  0  0  0  0  0  0  0  0  0  0  0
  -28.9663  -28.3482   25.8212 O   0  0  0  0  0  0  0  0  0  0  0  0
  -31.8451  -14.9672   20.0418 O   0  0  0  0  0  0  0  0  0  0  0  0
  -21.6720   -7.1247   22.2998 O   0  0  0  0  0  0  0  0  0  0  0  0
  -26.4314  -22.8418   22.3116 O   0  0  0  0  0  0  0  0  0  1  0  0
  -16.9459   -7.9218   25.0261 F   0  0  0  0  0  0  0  0  0  0  0  0
  -21.3033   -6.0829   24.8339 F   0  0  0  0  0  0  0  0  0  0  0  0
  -32.6335  -19.6071   17.3521 Cl  0  0  0  0  0  0  0  0  0  0  0  0
  1  2  1  0  0  0  0
  1  5  2  0  0  0  0
  2  6  2  0  0  0  0
  3  9  2  0  0  0  0
  3 18  1  0  0  0  0
  4 10  1  0  0  0  0
  4 18  2  0  0  0  0
  5 20  1  0  0  0  0
  6 22  1  0  0  0  0
  7 11  2  0  0  0  0
  7 21  1  0  0  0  0
  8 14  2  0  0  0  0
  8 24  1  0  0  0  0
  9 26  1  0  0  0  0
 10 26  2  0  0  0  0
 11 27  1  0  0  0  0
 12 13  2  0  0  0  0
 12 28  1  0  0  0  0
 13 29  1  0  0  0  0
 14 31  1  0  0  0  0
 15 23  1  0  0  0  0
 15 27  2  0  0  0  0
 16 25  1  0  0  0  0
 16 31  2  0  0  0  0
 17 29  2  0  0  0  0
 17 30  1  0  0  0  0
 18 32  1  0  0  0  0
 19 32  1  0  0  0  0
 19 33  2  0  0  0  0
 19 35  1  0  0  0  0
 20 22  2  0  0  0  0
 20 40  1  0  0  0  0
 21 23  2  0  0  0  0
 21 41  1  0  0  0  0
 22 52  1  0  0  0  0
 23 42  1  0  0  0  0
 24 25  2  0  0  0  0
 24 61  1  0  0  0  0
 25 62  1  0  0  0  0
 26 83  1  0  0  0  0
 27 84  1  0  0  0  0
 28 30  2  0  0  0  0
 28 83  1  0  0  0  0
 29 85  1  0  0  0  0
 30 86  1  0  0  0  0
 31 87  1  0  0  0  0
 32 66  2  0  0  0  0
 33 67  1  0  0  0  0
 33 71  1  0  0  0  0
 34 53  1  0  0  0  0
 34 68  1  0  0  0  0
 34 77  2  0  0  0  0
 35 72  1  0  0  0  0
 35 78  2  0  0  0  0
 36 54  1  0  0  0  0
 36 73  1  0  0  0  0
 36 79  2  0  0  0  0
 37 63  1  0  0  0  0
 37 69  1  0  0  0  0
 37 80  2  0  0  0  0
 38 64  1  0  0  0  0
 38 74  1  0  0  0  0
 38 81  2  0  0  0  0
 39 70  1  0  0  0  0
 39 75  1  0  0  0  0
 39 82  2  0  0  0  0
 40 43  1  0  0  0  0
 41 54  1  0  0  0  0
 42 69  1  0  0  0  0
 43 46  1  0  0  0  0
 44 47  1  0  0  0  0
 44 49  1  0  0  0  0
 45 48  1  0  0  0  0
 45 50  1  0  0  0  0
 46 52  1  0  0  0  0
 47 53  1  0  0  0  0
 48 55  1  0  0  0  0
 49 68  1  0  0  0  0
 50 70  1  0  0  0  0
 51 55  1  0  0  0  0
 51 70  1  0  0  0  0
 52 73  1  0  0  0  0
 53 84  1  0  0  0  0
 54 69  1  0  0  0  0
 55 67  1  0  0  0  0
 56 64  1  0  0  0  0
 57 65  1  0  0  0  0
 58 65  1  0  0  0  0
 59 65  1  0  0  0  0
 60 76  1  0  0  0  0
 61 68  1  0  0  0  0
 62 75  1  0  0  0  0
 63 65  1  0  0  0  0
 63 74  1  0  0  0  0
 64 76  1  0  0  0  0
 66 67  1  0  0  0  0
M  CHG  1  76   1
M  ISO  4  39 100  53 101  75 100  84 101
M  END
> <Batch ID>
0048

> <Smiles>
CNC(C)C(=O)NC(C(=O)N1Cc2cc([101O:1][101CH:1]3CCCN(Cc4ccc(Cl)cc4C[100NH:0][100C:0](=O)N4CCCC(n5nc(-c6ccc(Oc7ccc(F)cc7F)cc6)c(C(N)=O)c5N)C4)C3=O)ccc2CC1C(=O)NC1CCCc2ccccc21)C(C)(C)C

> <Shape>
0.293

> <Color>
0.227

> <Negative vol penalty>
0.000

$$$$

  -OEChem-04042322293D

 85 93  0     1  0  0  0  0  0999 V2000
  -24.1129   -8.0400   21.1084 C   0  0  0  0  0  0  0  0  0  0  0  0
  -24.7726   -9.2396   20.8609 C   0  0  0  0  0  0  0  0  0  0  0  0
  -20.6314  -27.4503   23.6192 C   0  0  0  0  0  0  0  0  0  0  0  0
  -19.7738  -27.1892   21.3757 C   0  0  0  0  0  0  0  0  0  0  0  0
  -22.7242   -8.0221   21.2315 C   0  0  0  0  0  0  0  0  0  0  0  0
  -24.0439  -10.4218   20.7353 C   0  0  0  0  0  0  0  0  0  0  0  0
  -26.1260  -14.2680   23.2881 C   0  0  0  0  0  0  0  0  0  0  0  0
  -19.3880  -27.9220   24.0397 C   0  0  0  0  0  0  0  0  0  0  0  0
  -18.5303  -27.6609   21.7962 C   0  0  0  0  0  0  0  0  0  0  0  0
  -27.2283  -14.8944   22.7082 C   0  0  0  0  0  0  0  0  0  0  0  0
  -16.5402  -29.5350   25.6247 C   0  0  0  0  0  0  0  0  0  0  0  0
  -16.5162  -30.6643   26.4430 C   0  0  0  0  0  0  0  0  0  0  0  0
  -25.7986  -16.6728   21.9257 C   0  0  0  0  0  0  0  0  0  0  0  0
  -28.3189  -22.7641   16.4187 C   0  0  0  0  0  0  0  0  0  0  0  0
  -29.3360  -24.0603   18.1857 C   0  0  0  0  0  0  0  0  0  0  0  0
  -17.6145  -31.9422   24.7117 C   0  0  0  0  0  0  0  0  0  0  0  0
  -20.8244  -27.0839   22.2872 C   0  0  0  0  0  0  0  0  0  0  0  0
  -22.5512  -25.2606   21.8383 C   0  0  0  0  0  0  0  0  0  0  0  0
  -21.9789   -9.2061   21.1169 C   0  0  0  0  0  0  0  0  0  0  0  0
  -24.8477  -14.8347   23.1815 C   0  0  0  0  0  0  0  0  0  0  0  0
  -22.6438  -10.4194   20.8557 C   0  0  0  0  0  0  0  0  0  0  0  0
  -24.6821  -16.0529   22.5073 C   0  0  0  0  0  0  0  0  0  0  0  0
  -28.5937  -23.9989   17.0064 C   0  0  0  0  0  0  0  0  0  0  0  0
  -28.7865  -21.5906   17.0104 C   0  0  0  0  0  0  0  0  0  0  0  0
  -29.5288  -21.6520   18.1897 C   0  0  0  0  0  0  0  0  0  0  0  0
  -18.3374  -28.0273   23.1282 C   0  0  0  0  0  0  0  0  0  0  0  0
  -27.0643  -16.0955   22.0245 C   0  0  0  0  0  0  0  0  0  0  0  0
  -17.1014  -29.6092   24.3498 C   0  0  0  0  0  0  0  0  0  0  0  0
  -17.0533  -31.8679   25.9865 C   0  0  0  0  0  0  0  0  0  0  0  0
  -17.6386  -30.8129   23.8933 C   0  0  0  0  0  0  0  0  0  0  0  0
  -29.8036  -22.8868   18.7774 C   0  0  0  0  0  0  0  0  0  0  0  0
  -22.1088  -26.5970   21.8521 C   0  0  0  0  0  0  0  0  0  0  0  0
  -23.8297  -25.3273   21.3408 C   0  0  0  0  0  0  0  0  0  0  0  0
  -21.8675  -24.0658   22.2391 C   0  0  0  0  0  0  0  0  0  0  0  0
  -22.0913  -13.9244   21.8866 C   0  0  0  0  0  0  0  0  0  0  0  0
  -20.9840  -16.6281   23.2959 C   0  0  0  0  0  0  0  0  0  0  0  0
  -29.1797  -18.4740   20.1710 C   0  0  0  0  0  0  0  0  0  0  0  0
  -21.6621  -19.7313   24.5438 C   0  0  0  0  0  0  0  0  0  0  0  0
  -27.5180  -27.3029   17.6478 C   0  0  0  0  0  0  0  0  0  0  0  0
  -20.4756   -9.1296   21.2105 C   0  0  0  0  0  0  0  0  0  0  0  0
  -23.6731  -14.1601   23.8355 C   0  0  0  0  0  0  0  0  0  0  0  0
  -23.3341  -16.7130   22.3819 C   0  0  0  0  0  0  0  0  0  0  0  0
  -19.8096  -10.4844   21.4368 C   0  0  0  0  0  0  0  0  0  0  0  0
  -26.8347  -29.3101   20.5080 C   0  0  0  0  0  0  0  0  0  0  0  0
  -20.3901  -11.5295   20.4893 C   0  0  0  0  0  0  0  0  0  0  0  0
  -25.5779  -28.6769   21.1074 C   0  0  0  0  0  0  0  0  0  0  0  0
  -26.8147  -29.2683   18.9816 C   0  0  0  0  0  0  0  0  0  0  0  0
  -25.3351  -27.2975   19.0010 C   0  0  0  0  0  0  0  0  0  0  0  0
  -21.8904  -11.7265   20.7377 C   0  0  1  0  0  0  0  0  0  0  0  0
  -22.3353  -14.5645   23.2239 C   0  0  1  0  0  0  0  0  0  0  0  0
  -25.3353  -27.2658   20.5390 C   0  0  2  0  0  0  0  0  0  0  0  0
  -28.4759  -20.2821   16.3598 C   0  0  0  0  0  0  0  0  0  0  0  0
  -20.5470  -21.7193   25.5935 C   0  0  0  0  0  0  0  0  0  0  0  0
  -19.8944  -17.4541   20.5682 C   0  0  0  0  0  0  0  0  0  0  0  0
  -19.6572  -19.7865   21.4468 C   0  0  0  0  0  0  0  0  0  0  0  0
  -18.3640  -17.9254   22.4892 C   0  0  0  0  0  0  0  0  0  0  0  0
  -23.2590  -19.4648   27.0212 C   0  0  0  0  0  0  0  0  0  0  0  0
  -28.0943  -25.2533   16.3726 C   0  0  0  0  0  0  0  0  0  0  0  0
  -30.0240  -20.3795   18.8140 C   0  0  0  0  0  0  0  0  0  0  0  0
  -27.8981  -17.9369   20.7715 C   0  0  0  0  0  0  0  0  0  1  0  0
  -20.8570  -18.0744   22.8822 C   0  0  1  0  0  0  0  0  0  0  0  0
  -21.2643  -20.4023   25.8461 C   0  0  2  0  0  0  0  0  0  0  0  0
  -19.7184  -18.2969   21.8471 C   0  0  0  0  0  0  0  0  0  0  0  0
  -23.0314  -27.4503   21.3996 N   0  0  0  0  0  0  0  0  0  0  0  0
  -24.0663  -26.6482   21.0968 N   0  0  0  0  0  0  0  0  0  0  0  0
  -22.2154  -16.0114   23.0329 N   0  0  0  0  0  0  0  0  0  0  0  0
  -26.5822  -27.9020   18.5071 N   0  0  0  0  0  0  0  0  0  0  0  0
  -24.7634  -24.3844   21.0928 N   0  0  0  0  0  0  0  0  0  0  0  0
  -20.5585  -24.1769   22.7275 N   0  0  0  0  0  0  0  0  0  0  0  0
  -22.1051  -12.5429   21.9132 N   0  0  0  0  0  0  0  0  0  0  0  0
  -28.9663  -19.6584   19.4834 N   0  0  0  0  0  0  0  0  0  0  0  0
  -20.7021  -18.8394   24.1147 N   0  0  0  0  0  0  0  0  0  0  0  0
  -27.2246  -26.0042   17.2504 N   0  0  0  0  0  0  0  0  0  0  0  0
  -22.4706  -20.6761   26.6773 N   0  3  0  0  0  0  0  0  0  0  0  0
  -22.4075  -22.9350   22.1819 O   0  0  0  0  0  0  0  0  0  0  0  0
  -21.9028  -14.6315   20.9036 O   0  0  0  0  0  0  0  0  0  0  0  0
  -20.0283  -16.0684   23.8390 O   0  0  0  0  0  0  0  0  0  0  0  0
  -30.2608  -17.9049   20.2946 O   0  0  0  0  0  0  0  0  0  0  0  0
  -22.7172  -19.9767   23.9631 O   0  0  0  0  0  0  0  0  0  0  0  0
  -28.5421  -27.8806   17.2675 O   0  0  0  0  0  0  0  0  0  0  0  0
  -17.1238  -28.4874   23.5383 O   0  0  0  0  0  0  0  0  0  0  0  0
  -28.1385  -16.7087   21.4571 O   0  0  0  0  0  0  0  0  0  1  0  0
  -17.0288  -32.9527   26.7719 F   0  0  0  0  0  0  0  0  0  0  0  0
  -18.1780  -30.8907   22.6691 F   0  0  0  0  0  0  0  0  0  0  0  0
  -30.7204  -23.0049   20.2358 Cl  0  0  0  0  0  0  0  0  0  0  0  0
  1  2  1  0  0  0  0
  1  5  2  0  0  0  0
  2  6  2  0  0  0  0
  3  8  2  0  0  0  0
  3 17  1  0  0  0  0
  4  9  1  0  0  0  0
  4 17  2  0  0  0  0
  5 19  1  0  0  0  0
  6 21  1  0  0  0  0
  7 10  2  0  0  0  0
  7 20  1  0  0  0  0
  8 26  1  0  0  0  0
  9 26  2  0  0  0  0
 10 27  1  0  0  0  0
 11 12  2  0  0  0  0
 11 28  1  0  0  0  0
 12 29  1  0  0  0  0
 13 22  1  0  0  0  0
 13 27  2  0  0  0  0
 14 23  1  0  0  0  0
 14 24  2  0  0  0  0
 15 23  2  0  0  0  0
 15 31  1  0  0  0  0
 16 29  2  0  0  0  0
 16 30  1  0  0  0  0
 17 32  1  0  0  0  0
 18 32  1  0  0  0  0
 18 33  2  0  0  0  0
 18 34  1  0  0  0  0
 19 21  2  0  0  0  0
 19 40  1  0  0  0  0
 20 22  2  0  0  0  0
 20 41  1  0  0  0  0
 21 49  1  0  0  0  0
 22 42  1  0  0  0  0
 23 58  1  0  0  0  0
 24 25  1  0  0  0  0
 24 52  1  0  0  0  0
 25 31  2  0  0  0  0
 25 59  1  0  0  0  0
 26 81  1  0  0  0  0
 27 82  1  0  0  0  0
 28 30  2  0  0  0  0
 28 81  1  0  0  0  0
 29 83  1  0  0  0  0
 30 84  1  0  0  0  0
 31 85  1  0  0  0  0
 32 64  2  0  0  0  0
 33 65  1  0  0  0  0
 33 68  1  0  0  0  0
 34 69  1  0  0  0  0
 34 75  2  0  0  0  0
 35 50  1  0  0  0  0
 35 70  1  0  0  0  0
 35 76  2  0  0  0  0
 36 61  1  0  0  0  0
 36 66  1  0  0  0  0
 36 77  2  0  0  0  0
 37 60  1  0  0  0  0
 37 71  1  0  0  0  0
 37 78  2  0  0  0  0
 38 62  1  0  0  0  0
 38 72  1  0  0  0  0
 38 79  2  0  0  0  0
 39 67  1  0  0  0  0
 39 73  1  0  0  0  0
 39 80  2  0  0  0  0
 40 43  1  0  0  0  0
 41 50  1  0  0  0  0
 42 66  1  0  0  0  0
 43 45  1  0  0  0  0
 44 46  1  0  0  0  0
 44 47  1  0  0  0  0
 45 49  1  0  0  0  0
 46 51  1  0  0  0  0
 47 67  1  0  0  0  0
 48 51  1  0  0  0  0
 48 67  1  0  0  0  0
 49 70  1  0  0  0  0
 50 66  1  0  0  0  0
 51 65  1  0  0  0  0
 53 62  1  0  0  0  0
 54 63  1  0  0  0  0
 55 63  1  0  0  0  0
 56 63  1  0  0  0  0
 57 74  1  0  0  0  0
 58 73  1  0  0  0  0
 59 71  1  0  0  0  0
 60 82  1  0  0  0  0
 61 63  1  0  0  0  0
 61 72  1  0  0  0  0
 62 74  1  0  0  0  0
 64 65  1  0  0  0  0
M  CHG  1  74   1
M  ISO  4  39 100  60 101  73 100  82 101
M  END
> <Batch ID>
0048

> <Smiles>
CNC(C)C(=O)NC(C(=O)N1Cc2cc([101O:1][101CH2:1]C(=O)NCc3c(C)cc(C[100NH:0][100C:0](=O)N4CCCC(n5nc(-c6ccc(Oc7ccc(F)cc7F)cc6)c(C(N)=O)c5N)C4)cc3Cl)ccc2CC1C(=O)NC1CCCc2ccccc21)C(C)(C)C

> <Shape>
0.195

> <Color>
0.103

> <Negative vol penalty>
0.000

$$$$

  -OEChem-04042322293D

 87 95  0     1  0  0  0  0  0999 V2000
  -29.0467  -12.9953   18.6276 C   0  0  0  0  0  0  0  0  0  0  0  0
  -28.4441  -14.1397   18.1150 C   0  0  0  0  0  0  0  0  0  0  0  0
  -29.6450  -24.8081   19.6357 C   0  0  0  0  0  0  0  0  0  0  0  0
  -27.8920  -23.4456   20.5884 C   0  0  0  0  0  0  0  0  0  0  0  0
  -28.3649  -12.2039   19.5510 C   0  0  0  0  0  0  0  0  0  0  0  0
  -27.1588  -14.4926   18.5247 C   0  0  0  0  0  0  0  0  0  0  0  0
  -24.9626  -20.1589   19.2836 C   0  0  0  0  0  0  0  0  0  0  0  0
  -30.5988  -23.8944   20.0840 C   0  0  0  0  0  0  0  0  0  0  0  0
  -28.8458  -22.5318   21.0366 C   0  0  0  0  0  0  0  0  0  0  0  0
  -24.1831  -20.9796   18.4695 C   0  0  0  0  0  0  0  0  0  0  0  0
  -30.6984  -20.0253   19.7307 C   0  0  0  0  0  0  0  0  0  0  0  0
  -30.4394  -18.6695   19.5298 C   0  0  0  0  0  0  0  0  0  0  0  0
  -18.2746  -27.1720   21.8724 C   0  0  0  0  0  0  0  0  0  0  0  0
  -22.2039  -20.2514   19.6407 C   0  0  0  0  0  0  0  0  0  0  0  0
  -30.5302  -18.2987   21.9155 C   0  0  0  0  0  0  0  0  0  0  0  0
  -18.9629  -28.0933   23.9972 C   0  0  0  0  0  0  0  0  0  0  0  0
  -28.2916  -24.5838   19.8880 C   0  0  0  0  0  0  0  0  0  0  0  0
  -19.5083  -27.5194   21.3221 C   0  0  0  0  0  0  0  0  0  0  0  0
  -26.6377  -25.5206   18.1866 C   0  0  0  0  0  0  0  0  0  0  0  0
  -27.0743  -12.5525   19.9795 C   0  0  0  0  0  0  0  0  0  0  0  0
  -24.3663  -19.3687   20.2768 C   0  0  0  0  0  0  0  0  0  0  0  0
  -26.4585  -13.7043   19.4537 C   0  0  0  0  0  0  0  0  0  0  0  0
  -22.9783  -19.4235   20.4677 C   0  0  0  0  0  0  0  0  0  0  0  0
  -20.4693  -28.1538   22.1093 C   0  0  0  0  0  0  0  0  0  0  0  0
  -30.1992  -22.7562   20.7844 C   0  0  0  0  0  0  0  0  0  0  0  0
  -22.8033  -21.0238   18.6461 C   0  0  0  0  0  0  0  0  0  0  0  0
  -30.8734  -20.5178   21.0239 C   0  0  0  0  0  0  0  0  0  0  0  0
  -30.3553  -17.8062   20.6222 C   0  0  0  0  0  0  0  0  0  0  0  0
  -18.0019  -27.4590   23.2100 C   0  0  0  0  0  0  0  0  0  0  0  0
  -20.1967  -28.4407   23.4469 C   0  0  0  0  0  0  0  0  0  0  0  0
  -30.7892  -19.6545   22.1163 C   0  0  0  0  0  0  0  0  0  0  0  0
  -27.3059  -25.5276   19.4257 C   0  0  0  0  0  0  0  0  0  0  0  0
  -25.8115  -26.6167   18.2359 C   0  0  0  0  0  0  0  0  0  0  0  0
  -19.7669  -27.1962   19.8879 C   0  0  0  0  0  0  0  0  0  0  0  0
  -26.7534  -24.6052   17.0892 C   0  0  0  0  0  0  0  0  0  0  0  0
  -24.1611  -16.2465   20.8365 C   0  0  0  0  0  0  0  0  0  0  0  0
  -22.7583  -17.2279   23.5917 C   0  0  0  0  0  0  0  0  0  0  0  0
  -20.8746  -24.4635   18.4475 C   0  0  0  0  0  0  0  0  0  0  0  0
  -21.0481  -19.6613   25.2652 C   0  0  0  0  0  0  0  0  0  0  0  0
  -22.5345  -29.5876   21.9502 C   0  0  0  0  0  0  0  0  0  0  0  0
  -26.3583  -11.6402   20.9436 C   0  0  0  0  0  0  0  0  0  0  0  0
  -25.2240  -18.5089   21.1643 C   0  0  0  0  0  0  0  0  0  0  0  0
  -22.2917  -18.6100   21.5332 C   0  0  0  0  0  0  0  0  0  0  0  0
  -25.1466  -12.2875   21.6092 C   0  0  0  0  0  0  0  0  0  0  0  0
  -25.7140  -30.7907   20.8915 C   0  0  0  0  0  0  0  0  0  0  0  0
  -24.2890  -13.0067   20.5728 C   0  0  0  0  0  0  0  0  0  0  0  0
  -26.3847  -29.5565   20.2840 C   0  0  0  0  0  0  0  0  0  0  0  0
  -24.8658  -30.4329   22.1106 C   0  0  0  0  0  0  0  0  0  0  0  0
  -24.5489  -28.1347   21.2818 C   0  0  0  0  0  0  0  0  0  0  0  0
  -25.0753  -14.1338   19.8923 C   0  0  1  0  0  0  0  0  0  0  0  0
  -24.4550  -17.3574   21.8045 C   0  0  1  0  0  0  0  0  0  0  0  0
  -25.3621  -28.4358   20.0122 C   0  0  2  0  0  0  0  0  0  0  0  0
  -20.0063  -20.1597   27.4931 C   0  0  0  0  0  0  0  0  0  0  0  0
  -20.4111  -15.4056   22.8990 C   0  0  0  0  0  0  0  0  0  0  0  0
  -19.0450  -16.6352   24.5990 C   0  0  0  0  0  0  0  0  0  0  0  0
  -21.0783  -15.3767   25.3091 C   0  0  0  0  0  0  0  0  0  0  0  0
  -22.8286  -21.9834   25.7086 C   0  0  0  0  0  0  0  0  0  0  0  0
  -19.0862  -25.9839   19.2840 C   0  0  0  0  0  0  0  0  0  0  0  0
  -21.5803  -24.0805   17.1561 C   0  0  0  0  0  0  0  0  0  0  0  0
  -22.6475  -23.0154   17.3557 C   0  0  0  0  0  0  0  0  0  1  0  0
  -21.3440  -17.5358   24.0207 C   0  0  1  0  0  0  0  0  0  0  0  0
  -21.2573  -20.2780   26.6365 C   0  0  2  0  0  0  0  0  0  0  0  0
  -20.4820  -16.2523   24.1855 C   0  0  0  0  0  0  0  0  0  0  0  0
  -26.9363  -26.5473   20.2051 N   0  0  0  0  0  0  0  0  0  0  0  0
  -26.0269  -27.1914   19.4539 N   0  0  0  0  0  0  0  0  0  0  0  0
  -23.1727  -17.7801   22.3714 N   0  0  0  0  0  0  0  0  0  0  0  0
  -23.9175  -29.3679   21.7770 N   0  0  0  0  0  0  0  0  0  0  0  0
  -24.9290  -27.1354   17.3558 N   0  0  0  0  0  0  0  0  0  0  0  0
  -27.6497  -23.5339   17.2045 N   0  0  0  0  0  0  0  0  0  0  0  0
  -21.7282  -28.5156   21.5690 N   0  0  0  0  0  0  0  0  0  0  0  0
  -25.1549  -15.2895   20.7597 N   0  0  0  0  0  0  0  0  0  0  0  0
  -19.9089  -25.4357   18.2298 N   0  0  0  0  0  0  0  0  0  0  0  0
  -21.4511  -18.3431   25.2311 N   0  0  0  0  0  0  0  0  0  0  0  0
  -21.6040  -21.7216   26.5078 N   0  3  0  0  0  0  0  0  0  0  0  0
  -20.5194  -27.9180   19.2373 O   0  0  0  0  0  0  0  0  0  0  0  0
  -26.0940  -24.7427   16.0311 O   0  0  0  0  0  0  0  0  0  0  0  0
  -23.1097  -16.2560   20.2070 O   0  0  0  0  0  0  0  0  0  0  0  0
  -23.4714  -16.5292   24.3162 O   0  0  0  0  0  0  0  0  0  0  0  0
  -21.1424  -23.9618   19.5359 O   0  0  0  0  0  0  0  0  0  0  0  0
  -20.5712  -20.2855   24.3199 O   0  0  0  0  0  0  0  0  0  0  0  0
  -22.0961  -30.6586   22.3777 O   0  0  0  0  0  0  0  0  0  0  0  0
  -31.1296  -21.8642   21.2217 O   0  0  0  0  0  0  0  0  0  0  0  0
  -22.0401  -21.8235   17.8524 O   0  0  0  0  0  0  0  0  0  1  0  0
  -30.1051  -16.5046   20.4292 F   0  0  0  0  0  0  0  0  0  0  0  0
  -16.8171  -27.1252   23.7388 F   0  0  0  0  0  0  0  0  0  0  0  0
  -21.1121  -29.0494   24.2142 F   0  0  0  0  0  0  0  0  0  0  0  0
  -30.9552  -20.1221   23.3612 F   0  0  0  0  0  0  0  0  0  0  0  0
  1  2  1  0  0  0  0
  1  5  2  0  0  0  0
  2  6  2  0  0  0  0
  3  8  2  0  0  0  0
  3 17  1  0  0  0  0
  4  9  1  0  0  0  0
  4 17  2  0  0  0  0
  5 20  1  0  0  0  0
  6 22  1  0  0  0  0
  7 10  2  0  0  0  0
  7 21  1  0  0  0  0
  8 25  1  0  0  0  0
  9 25  2  0  0  0  0
 10 26  1  0  0  0  0
 11 12  2  0  0  0  0
 11 27  1  0  0  0  0
 12 28  1  0  0  0  0
 13 18  1  0  0  0  0
 13 29  2  0  0  0  0
 14 23  1  0  0  0  0
 14 26  2  0  0  0  0
 15 28  2  0  0  0  0
 15 31  1  0  0  0  0
 16 29  1  0  0  0  0
 16 30  2  0  0  0  0
 17 32  1  0  0  0  0
 18 24  2  0  0  0  0
 18 34  1  0  0  0  0
 19 32  1  0  0  0  0
 19 33  2  0  0  0  0
 19 35  1  0  0  0  0
 20 22  2  0  0  0  0
 20 41  1  0  0  0  0
 21 23  2  0  0  0  0
 21 42  1  0  0  0  0
 22 50  1  0  0  0  0
 23 43  1  0  0  0  0
 24 30  1  0  0  0  0
 24 70  1  0  0  0  0
 25 82  1  0  0  0  0
 26 83  1  0  0  0  0
 27 31  2  0  0  0  0
 27 82  1  0  0  0  0
 28 84  1  0  0  0  0
 29 85  1  0  0  0  0
 30 86  1  0  0  0  0
 31 87  1  0  0  0  0
 32 64  2  0  0  0  0
 33 65  1  0  0  0  0
 33 68  1  0  0  0  0
 34 58  1  0  0  0  0
 34 75  2  0  0  0  0
 35 69  1  0  0  0  0
 35 76  2  0  0  0  0
 36 51  1  0  0  0  0
 36 71  1  0  0  0  0
 36 77  2  0  0  0  0
 37 61  1  0  0  0  0
 37 66  1  0  0  0  0
 37 78  2  0  0  0  0
 38 59  1  0  0  0  0
 38 72  1  0  0  0  0
 38 79  2  0  0  0  0
 39 62  1  0  0  0  0
 39 73  1  0  0  0  0
 39 80  2  0  0  0  0
 40 67  1  0  0  0  0
 40 70  1  0  0  0  0
 40 81  2  0  0  0  0
 41 44  1  0  0  0  0
 42 51  1  0  0  0  0
 43 66  1  0  0  0  0
 44 46  1  0  0  0  0
 45 47  1  0  0  0  0
 45 48  1  0  0  0  0
 46 50  1  0  0  0  0
 47 52  1  0  0  0  0
 48 67  1  0  0  0  0
 49 52  1  0  0  0  0
 49 67  1  0  0  0  0
 50 71  1  0  0  0  0
 51 66  1  0  0  0  0
 52 65  1  0  0  0  0
 53 62  1  0  0  0  0
 54 63  1  0  0  0  0
 55 63  1  0  0  0  0
 56 63  1  0  0  0  0
 57 74  1  0  0  0  0
 58 72  1  0  0  0  0
 59 60  1  0  0  0  0
 60 83  1  0  0  0  0
 61 63  1  0  0  0  0
 61 73  1  0  0  0  0
 62 74  1  0  0  0  0
 64 65  1  0  0  0  0
M  CHG  1  74   1
M  ISO  4  40 100  60 101  70 100  83 101
M  END
> <Batch ID>
0048

> <Smiles>
CNC(C)C(=O)NC(C(=O)N1Cc2cc([101O:1][101CH2:1]CC(=O)NCC(=O)c3cc(F)cc(F)c3[100NH:0][100C:0](=O)N3CCCC(n4nc(-c5ccc(Oc6ccc(F)cc6F)cc5)c(C(N)=O)c4N)C3)ccc2CC1C(=O)NC1CCCc2ccccc21)C(C)(C)C

> <Shape>
0.222

> <Color>
0.066

> <Negative vol penalty>
0.000

$$$$

  -OEChem-04042322293D

 87 96  0     1  0  0  0  0  0999 V2000
  -27.7266  -37.7167   25.8960 C   0  0  0  0  0  0  0  0  0  0  0  0
  -27.3122  -36.5526   26.5333 C   0  0  0  0  0  0  0  0  0  0  0  0
  -26.4189  -12.5458   19.9918 C   0  0  0  0  0  0  0  0  0  0  0  0
  -24.7829  -13.7854   21.2661 C   0  0  0  0  0  0  0  0  0  0  0  0
  -27.3176  -37.9748   24.5894 C   0  0  0  0  0  0  0  0  0  0  0  0
  -26.4986  -35.6406   25.8602 C   0  0  0  0  0  0  0  0  0  0  0  0
  -22.1505  -29.0742   24.7651 C   0  0  0  0  0  0  0  0  0  0  0  0
  -24.6357  -23.8189   23.4634 C   0  0  0  0  0  0  0  0  0  0  0  0
  -25.5884  -11.4254   20.0154 C   0  0  0  0  0  0  0  0  0  0  0  0
  -23.9523  -12.6650   21.2896 C   0  0  0  0  0  0  0  0  0  0  0  0
  -21.1513  -28.5221   23.9648 C   0  0  0  0  0  0  0  0  0  0  0  0
  -25.1738  -22.7599   22.7323 C   0  0  0  0  0  0  0  0  0  0  0  0
  -24.7720   -8.9760   22.1968 C   0  0  0  0  0  0  0  0  0  0  0  0
  -25.3557   -7.7436   22.4900 C   0  0  0  0  0  0  0  0  0  0  0  0
  -22.4837  -28.9683   22.0040 C   0  0  0  0  0  0  0  0  0  0  0  0
  -24.6407   -6.8944   20.3441 C   0  0  0  0  0  0  0  0  0  0  0  0
  -26.0162  -13.7258   20.6172 C   0  0  0  0  0  0  0  0  0  0  0  0
  -28.1799  -14.9843   21.1096 C   0  0  0  0  0  0  0  0  0  0  0  0
  -26.4883  -37.0710   23.9050 C   0  0  0  0  0  0  0  0  0  0  0  0
  -23.3210  -29.5883   24.1890 C   0  0  0  0  0  0  0  0  0  0  0  0
  -26.0947  -35.8716   24.5327 C   0  0  0  0  0  0  0  0  0  0  0  0
  -23.4973  -29.5241   22.7994 C   0  0  0  0  0  0  0  0  0  0  0  0
  -23.2675  -24.0838   23.4032 C   0  0  0  0  0  0  0  0  0  0  0  0
  -22.4375  -23.2898   22.6119 C   0  0  0  0  0  0  0  0  0  0  0  0
  -22.9756  -22.2307   21.8808 C   0  0  0  0  0  0  0  0  0  0  0  0
  -24.3551  -11.4850   20.6643 C   0  0  0  0  0  0  0  0  0  0  0  0
  -21.3165  -28.4717   22.5838 C   0  0  0  0  0  0  0  0  0  0  0  0
  -24.3438  -21.9658   21.9409 C   0  0  0  0  0  0  0  0  0  0  0  0
  -24.1226   -9.1677   20.9772 C   0  0  0  0  0  0  0  0  0  0  0  0
  -25.2901   -6.7028   21.5637 C   0  0  0  0  0  0  0  0  0  0  0  0
  -24.0570   -8.1268   20.0509 C   0  0  0  0  0  0  0  0  0  0  0  0
  -26.8739  -14.8833   20.5937 C   0  0  0  0  0  0  0  0  0  0  0  0
  -28.5570  -16.2769   20.8389 C   0  0  0  0  0  0  0  0  0  0  0  0
  -19.1378  -24.0401   21.0266 C   0  0  0  0  0  0  0  0  0  0  0  0
  -18.7765  -23.1301   20.1095 C   0  0  0  0  0  0  0  0  0  0  0  0
  -28.9805  -13.9978   21.7740 C   0  0  0  0  0  0  0  0  0  0  0  0
  -24.6920  -32.4536   24.0717 C   0  0  0  0  0  0  0  0  0  0  0  0
  -27.0938  -30.8148   22.6336 C   0  0  0  0  0  0  0  0  0  0  0  0
  -27.3877  -28.1893   20.1765 C   0  0  0  0  0  0  0  0  0  0  0  0
  -25.3253  -21.2581   19.9298 C   0  0  0  0  0  0  0  0  0  0  0  0
  -26.0819  -37.3964   22.4893 C   0  0  0  0  0  0  0  0  0  0  0  0
  -24.4010  -30.1563   25.0684 C   0  0  0  0  0  0  0  0  0  0  0  0
  -24.7442  -30.0439   22.1334 C   0  0  0  0  0  0  0  0  0  0  0  0
  -18.1456  -24.8819   21.7820 C   0  0  0  0  0  0  0  0  0  0  0  0
  -24.8703  -36.5976   22.0201 C   0  0  0  0  0  0  0  0  0  0  0  0
  -18.5253  -26.3552   21.6951 C   0  0  0  0  0  0  0  0  0  0  0  0
  -27.8086  -19.8382   17.7446 C   0  0  0  0  0  0  0  0  0  0  0  0
  -25.0740  -35.1200   22.3201 C   0  0  0  0  0  0  0  0  0  0  0  0
  -27.9403  -18.4032   18.2540 C   0  0  0  0  0  0  0  0  0  0  0  0
  -26.3769  -20.3484   17.8740 C   0  0  0  0  0  0  0  0  0  0  0  0
  -25.9545  -18.8117   19.7748 C   0  0  0  0  0  0  0  0  0  0  0  0
  -20.9032  -25.6970   21.1684 C   0  0  0  0  0  0  0  0  0  0  0  0
  -25.1846  -34.8798   23.8310 C   0  0  1  0  0  0  0  0  0  0  0  0
  -25.3283  -31.1173   24.3309 C   0  0  1  0  0  0  0  0  0  0  0  0
  -27.3928  -18.2730   19.6866 C   0  0  1  0  0  0  0  0  0  0  0  0
  -20.0000  -26.5707   22.0352 C   0  0  1  0  0  0  0  0  0  1  0  0
  -22.7171  -25.2238   24.1963 C   0  0  0  0  0  0  0  0  0  0  0  0
  -22.0921  -21.3749   21.0299 C   0  0  0  0  0  0  0  0  0  0  0  0
  -29.1899  -26.4790   19.8238 C   0  0  0  0  0  0  0  0  0  0  0  0
  -28.2220  -32.8369   20.6466 C   0  0  0  0  0  0  0  0  0  0  0  0
  -28.8431  -30.9224   19.1576 C   0  0  0  0  0  0  0  0  0  0  0  0
  -29.8601  -31.1159   21.4271 C   0  0  0  0  0  0  0  0  0  0  0  0
  -25.4577  -25.9517   20.3419 C   0  0  0  0  0  0  0  0  0  0  0  0
  -20.9660  -23.5761   22.5493 C   0  0  0  0  0  0  0  0  0  0  0  0
  -27.4324  -30.4442   21.2099 C   0  0  1  0  0  0  0  0  0  0  0  0
  -27.8209  -26.7559   20.4255 C   0  0  2  0  0  0  0  0  0  0  0  0
  -28.5625  -31.3335   20.6187 C   0  0  0  0  0  0  0  0  0  0  0  0
  -26.4498  -16.0212   20.0375 N   0  0  0  0  0  0  0  0  0  0  0  0
  -27.4953  -16.8495   20.2024 N   0  0  0  0  0  0  0  0  0  0  0  0
  -25.7686  -30.5956   23.0355 N   0  0  0  0  0  0  0  0  0  0  0  0
  -25.8769  -20.1754   19.2373 N   0  0  0  0  0  0  0  0  0  0  0  0
  -29.6899  -16.9683   21.0856 N   0  0  0  0  0  0  0  0  0  0  0  0
  -28.8968  -13.8986   23.1695 N   0  0  0  0  0  0  0  0  0  0  0  0
  -25.5838  -33.5092   24.0631 N   0  0  0  0  0  0  0  0  0  0  0  0
  -27.7387  -29.0178   21.2213 N   0  0  0  0  0  0  0  0  0  0  0  0
  -20.5479  -24.2333   21.2631 N   0  3  1  0  0  0  0  0  0  0  0  0
  -26.8423  -25.8069   19.8234 N   0  3  0  0  0  0  0  0  0  0  0  0
  -29.7597  -13.2380   21.1502 O   0  0  0  0  0  0  0  0  0  0  0  0
  -23.4819  -32.5218   23.8912 O   0  0  0  0  0  0  0  0  0  0  0  0
  -27.9746  -31.2750   23.3645 O   0  0  0  0  0  0  0  0  0  0  0  0
  -26.8002  -28.5397   19.1554 O   0  0  0  0  0  0  0  0  0  0  0  0
  -25.2205  -22.3939   19.4683 O   0  0  0  0  0  0  0  0  0  0  0  0
  -23.5443  -10.3920   20.6872 O   0  0  0  0  0  0  0  0  0  0  0  0
  -24.9021  -20.9087   21.2152 O   0  0  0  0  0  0  0  0  0  0  0  0
  -20.3425  -27.9339   21.8002 O   0  0  0  0  0  0  0  0  0  1  0  0
  -25.8520   -5.5198   21.8448 F   0  0  0  0  0  0  0  0  0  0  0  0
  -23.4355   -8.3053   18.8772 F   0  0  0  0  0  0  0  0  0  0  0  0
  1  2  1  0  0  0  0
  1  5  2  0  0  0  0
  2  6  2  0  0  0  0
  3  9  2  0  0  0  0
  3 17  1  0  0  0  0
  4 10  1  0  0  0  0
  4 17  2  0  0  0  0
  5 19  1  0  0  0  0
  6 21  1  0  0  0  0
  7 11  2  0  0  0  0
  7 20  1  0  0  0  0
  8 12  1  0  0  0  0
  8 23  2  0  0  0  0
  9 26  1  0  0  0  0
 10 26  2  0  0  0  0
 11 27  1  0  0  0  0
 12 28  2  0  0  0  0
 13 14  2  0  0  0  0
 13 29  1  0  0  0  0
 14 30  1  0  0  0  0
 15 22  1  0  0  0  0
 15 27  2  0  0  0  0
 16 30  2  0  0  0  0
 16 31  1  0  0  0  0
 17 32  1  0  0  0  0
 18 32  1  0  0  0  0
 18 33  2  0  0  0  0
 18 36  1  0  0  0  0
 19 21  2  0  0  0  0
 19 41  1  0  0  0  0
 20 22  2  0  0  0  0
 20 42  1  0  0  0  0
 21 53  1  0  0  0  0
 22 43  1  0  0  0  0
 23 24  1  0  0  0  0
 23 57  1  0  0  0  0
 24 25  2  0  0  0  0
 24 64  1  0  0  0  0
 25 28  1  0  0  0  0
 25 58  1  0  0  0  0
 26 83  1  0  0  0  0
 27 85  1  0  0  0  0
 28 84  1  0  0  0  0
 29 31  2  0  0  0  0
 29 83  1  0  0  0  0
 30 86  1  0  0  0  0
 31 87  1  0  0  0  0
 32 68  2  0  0  0  0
 33 69  1  0  0  0  0
 33 72  1  0  0  0  0
 34 35  2  0  0  0  0
 34 44  1  0  0  0  0
 34 76  1  0  0  0  0
 36 73  1  0  0  0  0
 36 78  2  0  0  0  0
 37 54  1  0  0  0  0
 37 74  1  0  0  0  0
 37 79  2  0  0  0  0
 38 65  1  0  0  0  0
 38 70  1  0  0  0  0
 38 80  2  0  0  0  0
 39 66  1  0  0  0  0
 39 75  1  0  0  0  0
 39 81  2  0  0  0  0
 40 71  1  0  0  0  0
 40 82  2  0  0  0  0
 40 84  1  0  0  0  0
 41 45  1  0  0  0  0
 42 54  1  0  0  0  0
 43 70  1  0  0  0  0
 44 46  1  0  0  0  0
 45 48  1  0  0  0  0
 46 56  1  0  0  0  0
 47 49  1  0  0  0  0
 47 50  1  0  0  0  0
 48 53  1  0  0  0  0
 49 55  1  0  0  0  0
 50 71  1  0  0  0  0
 51 55  1  0  0  0  0
 51 71  1  0  0  0  0
 52 56  1  0  0  0  0
 52 76  1  0  0  0  0
 53 74  1  0  0  0  0
 54 70  1  0  0  0  0
 55 69  1  0  0  0  0
 56 85  1  0  0  0  0
 59 66  1  0  0  0  0
 60 67  1  0  0  0  0
 61 67  1  0  0  0  0
 62 67  1  0  0  0  0
 63 77  1  0  0  0  0
 64 76  1  0  0  0  0
 65 67  1  0  0  0  0
 65 75  1  0  0  0  0
 66 77  1  0  0  0  0
 68 69  1  0  0  0  0
M  CHG  2  76   1  77   1
M  ISO  4  40 100  56 101  84 100  85 101
M  END
> <Batch ID>
0048

> <Smiles>
C=C1CC[101CH:1]([101O:1]c2ccc3c(c2)CN(C(=O)C(NC(=O)C(C)NC)C(C)(C)C)C(C(=O)NC2CCCc4ccccc42)C3)CN1Cc1c(C)ccc([100O:0][100C:0](=O)N2CCCC(n3nc(-c4ccc(Oc5ccc(F)cc5F)cc4)c(C(N)=O)c3N)C2)c1C

> <Shape>
0.287

> <Color>
0.056

> <Negative vol penalty>
0.000

$$$$

  -OEChem-04042322293D

 94103  0     1  0  0  0  0  0999 V2000
  -19.5073  -25.4591   25.4333 C   0  0  0  0  0  0  0  0  0  0  0  0
  -20.6324  -25.2270   24.6485 C   0  0  0  0  0  0  0  0  0  0  0  0
  -24.9124  -12.4036   20.0019 C   0  0  0  0  0  0  0  0  0  0  0  0
  -25.1036  -11.5997   22.2722 C   0  0  0  0  0  0  0  0  0  0  0  0
  -18.6317  -26.4935   25.1059 C   0  0  0  0  0  0  0  0  0  0  0  0
  -20.8819  -26.0287   23.5352 C   0  0  0  0  0  0  0  0  0  0  0  0
  -26.3527  -27.7759   21.4083 C   0  0  0  0  0  0  0  0  0  0  0  0
  -31.0104  -24.1800   16.2976 C   0  0  0  0  0  0  0  0  0  0  0  0
  -24.8599  -11.0883   19.5406 C   0  0  0  0  0  0  0  0  0  0  0  0
  -25.0510  -10.2843   21.8109 C   0  0  0  0  0  0  0  0  0  0  0  0
  -27.1574  -27.2903   20.3786 C   0  0  0  0  0  0  0  0  0  0  0  0
  -24.6043   -6.7180   21.2631 C   0  0  0  0  0  0  0  0  0  0  0  0
  -23.7803   -5.8231   21.9454 C   0  0  0  0  0  0  0  0  0  0  0  0
  -32.1724  -24.1852   17.0691 C   0  0  0  0  0  0  0  0  0  0  0  0
  -26.2492  -28.9576   18.8906 C   0  0  0  0  0  0  0  0  0  0  0  0
  -29.6860  -23.8701   18.2944 C   0  0  0  0  0  0  0  0  0  0  0  0
  -21.8641   -7.2079   21.4474 C   0  0  0  0  0  0  0  0  0  0  0  0
  -25.0343  -12.6593   21.3678 C   0  0  0  0  0  0  0  0  0  0  0  0
  -24.0038  -14.8301   22.2241 C   0  0  0  0  0  0  0  0  0  0  0  0
  -18.8758  -27.3143   23.9935 C   0  0  0  0  0  0  0  0  0  0  0  0
  -25.4807  -28.8508   21.1835 C   0  0  0  0  0  0  0  0  0  0  0  0
  -20.0080  -27.0742   23.1918 C   0  0  0  0  0  0  0  0  0  0  0  0
  -25.4363  -29.4567   19.9198 C   0  0  0  0  0  0  0  0  0  0  0  0
  -29.7672  -24.0225   16.9103 C   0  0  0  0  0  0  0  0  0  0  0  0
  -30.8481  -23.8753   19.0659 C   0  0  0  0  0  0  0  0  0  0  0  0
  -24.9292  -10.0287   20.4451 C   0  0  0  0  0  0  0  0  0  0  0  0
  -27.1037  -27.8793   19.1187 C   0  0  0  0  0  0  0  0  0  0  0  0
  -24.0583   -7.8580   20.6730 C   0  0  0  0  0  0  0  0  0  0  0  0
  -22.4102   -6.0680   22.0376 C   0  0  0  0  0  0  0  0  0  0  0  0
  -22.6882   -8.1029   20.7651 C   0  0  0  0  0  0  0  0  0  0  0  0
  -32.0913  -24.0328   18.4533 C   0  0  0  0  0  0  0  0  0  0  0  0
  -25.0892  -14.0177   21.8449 C   0  0  0  0  0  0  0  0  0  0  0  0
  -24.5794  -16.0198   22.5979 C   0  0  0  0  0  0  0  0  0  0  0  0
  -29.2078  -21.0420   21.7262 C   0  0  0  0  0  0  0  0  0  0  0  0
  -30.0755  -21.3711   20.7445 C   0  0  0  0  0  0  0  0  0  0  0  0
  -30.0717  -20.8327   19.3997 C   0  0  0  0  0  0  0  0  0  0  0  0
  -28.9507  -20.6078   18.7133 C   0  0  0  0  0  0  0  0  0  0  0  0
  -28.9557  -20.0692   17.3713 C   0  0  0  0  0  0  0  0  0  0  0  0
  -27.8367  -19.8380   16.6693 C   0  0  0  0  0  0  0  0  0  0  0  0
  -22.6007  -14.5355   22.2375 C   0  0  0  0  0  0  0  0  0  0  0  0
  -28.0978  -20.0934   21.5059 C   0  0  0  0  0  0  0  0  0  0  0  0
  -22.3293  -29.2469   21.3094 C   0  0  0  0  0  0  0  0  0  0  0  0
  -23.0901  -32.3543   20.7728 C   0  0  0  0  0  0  0  0  0  0  0  0
  -25.3280  -34.6184   19.5429 C   0  0  0  0  0  0  0  0  0  0  0  0
  -17.8755  -28.3902   23.6518 C   0  0  0  0  0  0  0  0  0  0  0  0
  -24.6387  -29.3800   22.3120 C   0  0  0  0  0  0  0  0  0  0  0  0
  -24.5319  -30.6263   19.6324 C   0  0  0  0  0  0  0  0  0  0  0  0
  -29.2826  -21.5473   23.1446 C   0  0  0  0  0  0  0  0  0  0  0  0
  -18.4115  -29.4314   22.6727 C   0  0  0  0  0  0  0  0  0  0  0  0
  -30.4008  -22.5505   23.3950 C   0  0  0  0  0  0  0  0  0  0  0  0
  -29.4027  -17.2471   23.4106 C   0  0  0  0  0  0  0  0  0  0  0  0
  -19.1202  -28.7517   21.5054 C   0  0  0  0  0  0  0  0  0  0  0  0
  -28.3184  -16.2029   23.1581 C   0  0  0  0  0  0  0  0  0  0  0  0
  -29.6108  -18.1590   22.2024 C   0  0  0  0  0  0  0  0  0  0  0  0
  -27.2736  -17.7711   21.4760 C   0  0  0  0  0  0  0  0  0  0  0  0
  -31.5764  -22.3033   22.4696 C   0  0  0  0  0  0  0  0  0  0  0  0
  -20.3260  -27.9379   21.9905 C   0  0  1  0  0  0  0  0  0  0  0  0
  -23.4114  -30.1488   21.8321 C   0  0  1  0  0  0  0  0  0  0  0  0
  -27.0147  -16.8728   22.6956 C   0  0  1  0  0  0  0  0  0  0  0  0
  -27.8288  -19.2809   15.2835 C   0  0  0  0  0  0  0  0  0  0  0  0
  -25.6549  -37.0843   19.2111 C   0  0  0  0  0  0  0  0  0  0  0  0
  -21.1528  -32.2915   18.4163 C   0  0  0  0  0  0  0  0  0  0  0  0
  -22.2118  -34.4002   17.5794 C   0  0  0  0  0  0  0  0  0  0  0  0
  -21.0569  -34.3789   19.7904 C   0  0  0  0  0  0  0  0  0  0  0  0
  -27.7381  -34.6477   21.2603 C   0  0  0  0  0  0  0  0  0  0  0  0
  -26.1390  -24.7537   16.0821 C   0  0  0  0  0  0  0  0  0  0  0  0
  -30.7184  -23.7100   20.5457 C   0  0  0  0  0  0  0  0  0  0  0  0
  -28.5175  -24.0167   16.0800 C   0  0  0  0  0  0  0  0  0  0  0  0
  -27.9647  -26.4389   15.9118 C   0  0  0  0  0  0  0  0  0  0  0  0
  -27.3856  -27.5366   16.7822 C   0  0  0  0  0  0  0  0  0  1  0  0
  -23.2854  -33.2104   19.5448 C   0  0  1  0  0  0  0  0  0  0  0  0
  -25.8933  -35.8980   20.1324 C   0  0  2  0  0  0  0  0  0  0  0  0
  -21.9424  -33.5470   18.8373 C   0  0  0  0  0  0  0  0  0  0  0  0
  -26.2653  -14.6390   21.9664 N   0  0  0  0  0  0  0  0  0  0  0  0
  -25.9223  -15.8543   22.4261 N   0  0  0  0  0  0  0  0  0  0  0  0
  -28.3412  -18.7416   21.7427 N   0  0  0  0  0  0  0  0  0  0  0  0
  -23.7235  -31.1034   20.7665 N   0  0  0  0  0  0  0  0  0  0  0  0
  -24.0628  -17.1809   23.0533 N   0  0  0  0  0  0  0  0  0  0  0  0
  -22.1808  -13.2645   21.8220 N   0  0  0  0  0  0  0  0  0  0  0  0
  -21.4435  -28.8118   22.2766 N   0  0  0  0  0  0  0  0  0  0  0  0
  -24.0417  -34.3801   19.9788 N   0  0  0  0  0  0  0  0  0  0  0  0
  -31.1222  -22.3385   21.0303 N   0  3  2  0  0  0  0  0  0  0  0  0
  -27.3609  -35.7623   20.3535 N   0  3  0  0  0  0  0  0  0  0  0  0
  -27.5555  -25.1179   16.4520 N   0  3  1  0  0  0  0  0  0  0  0  0
  -21.7433  -15.3800   22.5913 O   0  0  0  0  0  0  0  0  0  0  0  0
  -27.0226  -20.5559   21.1203 O   0  0  0  0  0  0  0  0  0  0  0  0
  -22.2993  -28.9677   20.1165 O   0  0  0  0  0  0  0  0  0  0  0  0
  -22.4068  -32.7826   21.7062 O   0  0  0  0  0  0  0  0  0  0  0  0
  -25.9624  -33.9039   18.7700 O   0  0  0  0  0  0  0  0  0  0  0  0
  -24.8777   -8.7451   19.9953 O   0  0  0  0  0  0  0  0  0  0  0  0
  -27.8876  -27.4068   18.1117 O   0  0  0  0  0  0  0  0  0  1  0  0
  -21.6187   -5.2077   22.6915 F   0  0  0  0  0  0  0  0  0  0  0  0
  -22.1578   -9.1957   20.1993 F   0  0  0  0  0  0  0  0  0  0  0  0
  -33.5500  -24.0444   19.3759 Cl  0  0  0  0  0  0  0  0  0  0  0  0
  1  2  1  0  0  0  0
  1  5  2  0  0  0  0
  2  6  2  0  0  0  0
  3  9  2  0  0  0  0
  3 18  1  0  0  0  0
  4 10  1  0  0  0  0
  4 18  2  0  0  0  0
  5 20  1  0  0  0  0
  6 22  1  0  0  0  0
  7 11  2  0  0  0  0
  7 21  1  0  0  0  0
  8 14  2  0  0  0  0
  8 24  1  0  0  0  0
  9 26  1  0  0  0  0
 10 26  2  0  0  0  0
 11 27  1  0  0  0  0
 12 13  2  0  0  0  0
 12 28  1  0  0  0  0
 13 29  1  0  0  0  0
 14 31  1  0  0  0  0
 15 23  1  0  0  0  0
 15 27  2  0  0  0  0
 16 24  2  0  0  0  0
 16 25  1  0  0  0  0
 17 29  2  0  0  0  0
 17 30  1  0  0  0  0
 18 32  1  0  0  0  0
 19 32  1  0  0  0  0
 19 33  2  0  0  0  0
 19 40  1  0  0  0  0
 20 22  2  0  0  0  0
 20 45  1  0  0  0  0
 21 23  2  0  0  0  0
 21 46  1  0  0  0  0
 22 57  1  0  0  0  0
 23 47  1  0  0  0  0
 24 68  1  0  0  0  0
 25 31  2  0  0  0  0
 25 67  1  0  0  0  0
 26 90  1  0  0  0  0
 27 91  1  0  0  0  0
 28 30  2  0  0  0  0
 28 90  1  0  0  0  0
 29 92  1  0  0  0  0
 30 93  1  0  0  0  0
 31 94  1  0  0  0  0
 32 74  2  0  0  0  0
 33 75  1  0  0  0  0
 33 78  1  0  0  0  0
 34 35  2  0  0  0  0
 34 41  1  0  0  0  0
 34 48  1  0  0  0  0
 35 36  1  0  0  0  0
 35 82  1  0  0  0  0
 36 37  2  0  0  0  0
 37 38  1  0  0  0  0
 38 39  2  0  0  0  0
 39 60  1  0  0  0  0
 40 79  1  0  0  0  0
 40 85  2  0  0  0  0
 41 76  1  0  0  0  0
 41 86  2  0  0  0  0
 42 58  1  0  0  0  0
 42 80  1  0  0  0  0
 42 87  2  0  0  0  0
 43 71  1  0  0  0  0
 43 77  1  0  0  0  0
 43 88  2  0  0  0  0
 44 72  1  0  0  0  0
 44 81  1  0  0  0  0
 44 89  2  0  0  0  0
 45 49  1  0  0  0  0
 46 58  1  0  0  0  0
 47 77  1  0  0  0  0
 48 50  1  0  0  0  0
 49 52  1  0  0  0  0
 50 56  1  0  0  0  0
 51 53  1  0  0  0  0
 51 54  1  0  0  0  0
 52 57  1  0  0  0  0
 53 59  1  0  0  0  0
 54 76  1  0  0  0  0
 55 59  1  0  0  0  0
 55 76  1  0  0  0  0
 56 82  1  0  0  0  0
 57 80  1  0  0  0  0
 58 77  1  0  0  0  0
 59 75  1  0  0  0  0
 61 72  1  0  0  0  0
 62 73  1  0  0  0  0
 63 73  1  0  0  0  0
 64 73  1  0  0  0  0
 65 83  1  0  0  0  0
 66 84  1  0  0  0  0
 67 82  1  0  0  0  0
 68 84  1  0  0  0  0
 69 70  1  0  0  0  0
 69 84  1  0  0  0  0
 70 91  1  0  0  0  0
 71 73  1  0  0  0  0
 71 81  1  0  0  0  0
 72 83  1  0  0  0  0
 74 75  1  0  0  0  0
M  CHG  3  82   1  83   1  84   1
M  ISO  4  34 100  41 100  70 101  91 101
M  END
> <Batch ID>
0048

> <Smiles>
C=CC=CC=C1[100CH:0]([100C:0](=O)N2CCCC(n3nc(-c4ccc(Oc5ccc(F)cc5F)cc4)c(C(N)=O)c3N)C2)CCCN1Cc1cc(CN(C)C[101CH2:1][101O:1]c2ccc3c(c2)CN(C(=O)C(NC(=O)C(C)NC)C(C)(C)C)C(C(=O)NC2CCCc4ccccc42)C3)ccc1Cl

> <Shape>
0.236

> <Color>
0.079

> <Negative vol penalty>
0.000

$$$$

  -OEChem-04042322293D

 87 96  0     1  0  0  0  0  0999 V2000
  -18.2453  -33.1189   23.6788 C   0  0  0  0  0  0  0  0  0  0  0  0
  -19.5344  -33.2769   23.1803 C   0  0  0  0  0  0  0  0  0  0  0  0
  -23.4660  -12.1795   20.2705 C   0  0  0  0  0  0  0  0  0  0  0  0
  -25.7819  -12.1994   20.9586 C   0  0  0  0  0  0  0  0  0  0  0  0
  -17.8588  -31.9003   24.2354 C   0  0  0  0  0  0  0  0  0  0  0  0
  -20.4383  -32.2167   23.2389 C   0  0  0  0  0  0  0  0  0  0  0  0
  -25.9230  -29.3501   19.6310 C   0  0  0  0  0  0  0  0  0  0  0  0
  -23.5091  -10.7893   20.1655 C   0  0  0  0  0  0  0  0  0  0  0  0
  -25.8250  -10.8091   20.8536 C   0  0  0  0  0  0  0  0  0  0  0  0
  -27.2387  -28.9318   19.8250 C   0  0  0  0  0  0  0  0  0  0  0  0
  -23.3805   -8.1288   22.2483 C   0  0  0  0  0  0  0  0  0  0  0  0
  -22.3171   -7.4048   22.7873 C   0  0  0  0  0  0  0  0  0  0  0  0
  -26.4354  -26.8478   20.7366 C   0  0  0  0  0  0  0  0  0  0  0  0
  -29.0283  -22.1037   22.5434 C   0  0  0  0  0  0  0  0  0  0  0  0
  -27.7849  -22.2200   25.0381 C   0  0  0  0  0  0  0  0  0  0  0  0
  -21.8413   -6.4802   20.6064 C   0  0  0  0  0  0  0  0  0  0  0  0
  -24.6024  -12.8846   20.6670 C   0  0  0  0  0  0  0  0  0  0  0  0
  -23.7197  -15.0854   21.6076 C   0  0  0  0  0  0  0  0  0  0  0  0
  -18.7554  -30.8216   24.2921 C   0  0  0  0  0  0  0  0  0  0  0  0
  -24.8517  -28.5234   19.9990 C   0  0  0  0  0  0  0  0  0  0  0  0
  -20.0639  -30.9830   23.7980 C   0  0  0  0  0  0  0  0  0  0  0  0
  -25.1070  -27.2569   20.5439 C   0  0  0  0  0  0  0  0  0  0  0  0
  -29.5401  -22.9351   23.5397 C   0  0  0  0  0  0  0  0  0  0  0  0
  -27.2731  -21.3887   24.0418 C   0  0  0  0  0  0  0  0  0  0  0  0
  -27.8948  -21.3306   22.7944 C   0  0  0  0  0  0  0  0  0  0  0  0
  -24.6885  -10.1041   20.4571 C   0  0  0  0  0  0  0  0  0  0  0  0
  -27.4951  -27.6817   20.3805 C   0  0  0  0  0  0  0  0  0  0  0  0
  -23.6743   -8.0287   20.8884 C   0  0  0  0  0  0  0  0  0  0  0  0
  -21.5475   -6.5805   21.9663 C   0  0  0  0  0  0  0  0  0  0  0  0
  -22.9047   -7.2043   20.0675 C   0  0  0  0  0  0  0  0  0  0  0  0
  -28.9185  -22.9932   24.7870 C   0  0  0  0  0  0  0  0  0  0  0  0
  -24.5587  -14.3207   20.7751 C   0  0  0  0  0  0  0  0  0  0  0  0
  -24.0650  -16.3876   21.3401 C   0  0  0  0  0  0  0  0  0  0  0  0
  -29.5334  -25.4983   22.0000 C   0  0  0  0  0  0  0  0  0  0  0  0
  -22.7179  -14.6570   22.5395 C   0  0  0  0  0  0  0  0  0  0  0  0
  -22.4479  -28.7537   22.0661 C   0  0  0  0  0  0  0  0  0  0  0  0
  -21.5065  -25.9742   20.6839 C   0  0  0  0  0  0  0  0  0  0  0  0
  -23.0805  -22.9329   19.5478 C   0  0  0  0  0  0  0  0  0  0  0  0
  -27.9003  -20.3319   20.4817 C   0  0  0  0  0  0  0  0  0  0  0  0
  -18.3069  -29.5386   24.9459 C   0  0  0  0  0  0  0  0  0  0  0  0
  -23.4383  -28.9784   19.7586 C   0  0  0  0  0  0  0  0  0  0  0  0
  -23.9924  -26.3234   20.9370 C   0  0  0  0  0  0  0  0  0  0  0  0
  -19.2072  -28.3470   24.6300 C   0  0  0  0  0  0  0  0  0  0  0  0
  -30.7783  -27.5494   23.6823 C   0  0  0  0  0  0  0  0  0  0  0  0
  -26.9668  -18.3409   17.6814 C   0  0  0  0  0  0  0  0  0  0  0  0
  -20.6749  -28.7287   24.7933 C   0  0  0  0  0  0  0  0  0  0  0  0
  -30.3017  -27.9054   22.2897 C   0  0  0  0  0  0  0  0  0  0  0  0
  -26.1881  -17.1804   18.3051 C   0  0  0  0  0  0  0  0  0  0  0  0
  -31.2932  -26.1212   23.6962 C   0  0  0  0  0  0  0  0  0  0  0  0
  -28.1388  -18.7746   18.5600 C   0  0  0  0  0  0  0  0  0  0  0  0
  -27.0116  -17.9201   20.5770 C   0  0  0  0  0  0  0  0  0  0  0  0
  -21.0652  -29.8485   23.8211 C   0  0  1  0  0  0  0  0  0  0  0  0
  -29.1698  -26.9744   21.9018 C   0  0  1  0  0  0  0  0  0  1  0  0
  -22.4221  -28.2654   20.6453 C   0  0  1  0  0  0  0  0  0  0  0  0
  -25.7825  -17.4910   19.7593 C   0  0  2  0  0  0  0  0  0  0  0  0
  -26.0573  -20.5718   24.3385 C   0  0  0  0  0  0  0  0  0  0  0  0
  -22.3884  -21.3037   17.7691 C   0  0  0  0  0  0  0  0  0  0  0  0
  -20.1906  -24.4645   22.9859 C   0  0  0  0  0  0  0  0  0  0  0  0
  -20.9079  -22.3252   21.9009 C   0  0  0  0  0  0  0  0  0  0  0  0
  -19.3355  -23.8567   20.7157 C   0  0  0  0  0  0  0  0  0  0  0  0
  -25.6727  -23.1877   18.1427 C   0  0  0  0  0  0  0  0  0  0  0  0
  -30.7615  -23.7514   23.2299 C   0  0  0  0  0  0  0  0  0  0  0  0
  -21.7674  -24.5098   20.9419 C   0  0  1  0  0  0  0  0  0  0  0  0
  -23.2738  -22.4927   18.1079 C   0  0  2  0  0  0  0  0  0  0  0  0
  -20.5695  -23.8090   21.6429 C   0  0  0  0  0  0  0  0  0  0  0  0
  -25.3754  -15.0743   20.0340 N   0  0  0  0  0  0  0  0  0  0  0  0
  -25.0512  -16.3261   20.4000 N   0  0  0  0  0  0  0  0  0  0  0  0
  -30.4374  -25.1541   23.0067 N   0  0  0  0  0  0  0  0  0  0  0  0
  -22.6276  -26.8162   20.6880 N   0  0  0  0  0  0  0  0  0  0  0  0
  -27.6784  -19.0561   19.9215 N   0  0  0  0  0  0  0  0  0  0  0  0
  -23.6182  -17.5678   21.8197 N   0  0  0  0  0  0  0  0  0  0  0  0
  -22.4909  -13.2823   22.6914 N   0  0  0  0  0  0  0  0  0  0  0  0
  -27.3896  -20.4929   21.7693 N   0  0  0  0  0  0  0  0  0  0  0  0
  -21.2590  -29.3167   22.4892 N   0  0  0  0  0  0  0  0  0  0  0  0
  -22.1309  -23.9269   19.6549 N   0  0  0  0  0  0  0  0  0  0  0  0
  -24.6930  -22.1044   17.8711 N   0  3  0  0  0  0  0  0  0  0  0  0
  -28.9858  -24.6798   21.2568 O   0  0  0  0  0  0  0  0  0  0  0  0
  -22.0326  -15.4697   23.2054 O   0  0  0  0  0  0  0  0  0  0  0  0
  -23.4703  -28.6276   22.7298 O   0  0  0  0  0  0  0  0  0  0  0  0
  -20.3515  -26.3557   20.4789 O   0  0  0  0  0  0  0  0  0  0  0  0
  -23.7063  -22.4412   20.4844 O   0  0  0  0  0  0  0  0  0  0  0  0
  -28.4752  -21.2251   19.8542 O   0  0  0  0  0  0  0  0  0  0  0  0
  -24.7309   -8.7475   20.3550 O   0  0  0  0  0  0  0  0  0  0  0  0
  -28.7784  -27.2712   20.5716 O   0  0  0  0  0  0  0  0  0  1  0  0
  -20.5273   -5.8840   22.4843 F   0  0  0  0  0  0  0  0  0  0  0  0
  -23.1829   -7.1031   18.7605 F   0  0  0  0  0  0  0  0  0  0  0  0
  -29.5233  -24.0106   26.0435 Cl  0  0  0  0  0  0  0  0  0  0  0  0
  1  2  1  0  0  0  0
  1  5  2  0  0  0  0
  2  6  2  0  0  0  0
  3  8  2  0  0  0  0
  3 17  1  0  0  0  0
  4  9  1  0  0  0  0
  4 17  2  0  0  0  0
  5 19  1  0  0  0  0
  6 21  1  0  0  0  0
  7 10  2  0  0  0  0
  7 20  1  0  0  0  0
  8 26  1  0  0  0  0
  9 26  2  0  0  0  0
 10 27  1  0  0  0  0
 11 12  2  0  0  0  0
 11 28  1  0  0  0  0
 12 29  1  0  0  0  0
 13 22  1  0  0  0  0
 13 27  2  0  0  0  0
 14 23  1  0  0  0  0
 14 25  2  0  0  0  0
 15 24  2  0  0  0  0
 15 31  1  0  0  0  0
 16 29  2  0  0  0  0
 16 30  1  0  0  0  0
 17 32  1  0  0  0  0
 18 32  1  0  0  0  0
 18 33  2  0  0  0  0
 18 35  1  0  0  0  0
 19 21  2  0  0  0  0
 19 40  1  0  0  0  0
 20 22  2  0  0  0  0
 20 41  1  0  0  0  0
 21 52  1  0  0  0  0
 22 42  1  0  0  0  0
 23 31  2  0  0  0  0
 23 62  1  0  0  0  0
 24 25  1  0  0  0  0
 24 56  1  0  0  0  0
 25 73  1  0  0  0  0
 26 83  1  0  0  0  0
 27 84  1  0  0  0  0
 28 30  2  0  0  0  0
 28 83  1  0  0  0  0
 29 85  1  0  0  0  0
 30 86  1  0  0  0  0
 31 87  1  0  0  0  0
 32 66  2  0  0  0  0
 33 67  1  0  0  0  0
 33 71  1  0  0  0  0
 34 53  1  0  0  0  0
 34 68  1  0  0  0  0
 34 77  2  0  0  0  0
 35 72  1  0  0  0  0
 35 78  2  0  0  0  0
 36 54  1  0  0  0  0
 36 74  1  0  0  0  0
 36 79  2  0  0  0  0
 37 63  1  0  0  0  0
 37 69  1  0  0  0  0
 37 80  2  0  0  0  0
 38 64  1  0  0  0  0
 38 75  1  0  0  0  0
 38 81  2  0  0  0  0
 39 70  1  0  0  0  0
 39 73  1  0  0  0  0
 39 82  2  0  0  0  0
 40 43  1  0  0  0  0
 41 54  1  0  0  0  0
 42 69  1  0  0  0  0
 43 46  1  0  0  0  0
 44 47  1  0  0  0  0
 44 49  1  0  0  0  0
 45 48  1  0  0  0  0
 45 50  1  0  0  0  0
 46 52  1  0  0  0  0
 47 53  1  0  0  0  0
 48 55  1  0  0  0  0
 49 68  1  0  0  0  0
 50 70  1  0  0  0  0
 51 55  1  0  0  0  0
 51 70  1  0  0  0  0
 52 74  1  0  0  0  0
 53 84  1  0  0  0  0
 54 69  1  0  0  0  0
 55 67  1  0  0  0  0
 57 64  1  0  0  0  0
 58 65  1  0  0  0  0
 59 65  1  0  0  0  0
 60 65  1  0  0  0  0
 61 76  1  0  0  0  0
 62 68  1  0  0  0  0
 63 65  1  0  0  0  0
 63 75  1  0  0  0  0
 64 76  1  0  0  0  0
 66 67  1  0  0  0  0
M  CHG  1  76   1
M  ISO  4  39 100  53 101  73 100  84 101
M  END
> <Batch ID>
0048

> <Smiles>
CNC(C)C(=O)NC(C(=O)N1Cc2cc([101O:1][101CH:1]3CCCN(Cc4cc([100NH:0][100C:0](=O)N5CCCC(n6nc(-c7ccc(Oc8ccc(F)cc8F)cc7)c(C(N)=O)c6N)C5)c(C)cc4Cl)C3=O)ccc2CC1C(=O)NC1CCCc2ccccc21)C(C)(C)C

> <Shape>
0.215

> <Color>
0.095

> <Negative vol penalty>
0.000

$$$$

  -OEChem-04042322293D

 89 98  0     1  0  0  0  0  0999 V2000
  -27.3599  -34.0156   25.9805 C   0  0  0  0  0  0  0  0  0  0  0  0
  -27.6654  -32.8236   25.3314 C   0  0  0  0  0  0  0  0  0  0  0  0
  -24.0180   -8.8484   22.0503 C   0  0  0  0  0  0  0  0  0  0  0  0
  -21.8682   -9.3639   21.0757 C   0  0  0  0  0  0  0  0  0  0  0  0
  -26.0426  -34.2923   26.3441 C   0  0  0  0  0  0  0  0  0  0  0  0
  -26.6538  -31.9071   25.0465 C   0  0  0  0  0  0  0  0  0  0  0  0
  -26.9762  -30.0577   20.3433 C   0  0  0  0  0  0  0  0  0  0  0  0
  -25.8608  -21.4929   19.5165 C   0  0  0  0  0  0  0  0  0  0  0  0
  -24.9184  -20.5747   19.9795 C   0  0  0  0  0  0  0  0  0  0  0  0
  -24.0756   -7.6729   21.3017 C   0  0  0  0  0  0  0  0  0  0  0  0
  -21.9258   -8.1884   20.3270 C   0  0  0  0  0  0  0  0  0  0  0  0
  -27.9292  -29.0666   20.1127 C   0  0  0  0  0  0  0  0  0  0  0  0
  -24.6227   -4.3560   19.9152 C   0  0  0  0  0  0  0  0  0  0  0  0
  -25.0304   -3.1910   20.5647 C   0  0  0  0  0  0  0  0  0  0  0  0
  -26.2065  -27.3843   20.2595 C   0  0  0  0  0  0  0  0  0  0  0  0
  -26.5543  -18.8058   19.8014 C   0  0  0  0  0  0  0  0  0  0  0  0
  -23.1719   -3.3936   22.0950 C   0  0  0  0  0  0  0  0  0  0  0  0
  -22.9143   -9.6939   21.9374 C   0  0  0  0  0  0  0  0  0  0  0  0
  -22.8757  -11.0243   24.1137 C   0  0  0  0  0  0  0  0  0  0  0  0
  -25.0129  -33.3830   26.0548 C   0  0  0  0  0  0  0  0  0  0  0  0
  -25.6306  -29.7181   20.5448 C   0  0  0  0  0  0  0  0  0  0  0  0
  -25.3218  -32.1713   25.4078 C   0  0  0  0  0  0  0  0  0  0  0  0
  -25.2379  -28.3732   20.4898 C   0  0  0  0  0  0  0  0  0  0  0  0
  -27.1500  -21.0675   19.1959 C   0  0  0  0  0  0  0  0  0  0  0  0
  -27.4968  -19.7240   19.3384 C   0  0  0  0  0  0  0  0  0  0  0  0
  -25.2651  -19.2311   20.1220 C   0  0  0  0  0  0  0  0  0  0  0  0
  -23.0295   -7.3429   20.4400 C   0  0  0  0  0  0  0  0  0  0  0  0
  -27.5449  -27.7294   20.0737 C   0  0  0  0  0  0  0  0  0  0  0  0
  -23.4895   -5.0400   20.3556 C   0  0  0  0  0  0  0  0  0  0  0  0
  -24.3051   -2.7098   21.6546 C   0  0  0  0  0  0  0  0  0  0  0  0
  -22.7641   -4.5587   21.4455 C   0  0  0  0  0  0  0  0  0  0  0  0
  -22.8539  -10.9080   22.7109 C   0  0  0  0  0  0  0  0  0  0  0  0
  -22.7957  -12.3753   24.3475 C   0  0  0  0  0  0  0  0  0  0  0  0
  -28.0619  -24.4549   19.3290 C   0  0  0  0  0  0  0  0  0  0  0  0
  -22.9608  -10.0023   25.1157 C   0  0  0  0  0  0  0  0  0  0  0  0
  -23.5651  -30.0593   22.9366 C   0  0  0  0  0  0  0  0  0  0  0  0
  -21.4578  -28.8844   20.7684 C   0  0  0  0  0  0  0  0  0  0  0  0
  -20.9322  -27.0519   17.9378 C   0  0  0  0  0  0  0  0  0  0  0  0
  -24.4800  -16.9262   20.7966 C   0  0  0  0  0  0  0  0  0  0  0  0
  -23.6114  -33.7047   26.5096 C   0  0  0  0  0  0  0  0  0  0  0  0
  -24.6104  -30.8011   20.7657 C   0  0  0  0  0  0  0  0  0  0  0  0
  -23.8027  -27.9577   20.6798 C   0  0  0  0  0  0  0  0  0  0  0  0
  -22.5412  -32.8489   25.8369 C   0  0  0  0  0  0  0  0  0  0  0  0
  -29.1647  -23.7910   21.9616 C   0  0  0  0  0  0  0  0  0  0  0  0
  -20.8836  -15.9687   21.7310 C   0  0  0  0  0  0  0  0  0  0  0  0
  -22.9496  -31.3792   25.8454 C   0  0  0  0  0  0  0  0  0  0  0  0
  -29.3704  -25.1770   21.3870 C   0  0  0  0  0  0  0  0  0  0  0  0
  -21.1706  -14.9338   22.8164 C   0  0  0  0  0  0  0  0  0  0  0  0
  -29.1710  -22.7674   20.8404 C   0  0  0  0  0  0  0  0  0  0  0  0
  -22.0410  -16.9406   21.5392 C   0  0  0  0  0  0  0  0  0  0  0  0
  -23.3689  -14.8211   21.5182 C   0  0  0  0  0  0  0  0  0  0  0  0
  -24.2484  -31.1630   25.0593 C   0  0  1  0  0  0  0  0  0  0  0  0
  -28.2342  -25.4900   20.4334 C   0  0  1  0  0  0  0  0  0  1  0  0
  -23.3521  -30.3021   21.4692 C   0  0  1  0  0  0  0  0  0  0  0  0
  -22.6333  -14.4470   22.8144 C   0  0  2  0  0  0  0  0  0  0  0  0
  -19.0986  -26.2371   16.4307 C   0  0  0  0  0  0  0  0  0  0  0  0
  -20.7017  -26.7707   22.8351 C   0  0  0  0  0  0  0  0  0  0  0  0
  -19.6188  -25.4608   20.9967 C   0  0  0  0  0  0  0  0  0  0  0  0
  -18.7693  -27.7342   21.5733 C   0  0  0  0  0  0  0  0  0  0  0  0
  -22.0428  -28.5029   15.6096 C   0  0  0  0  0  0  0  0  0  0  0  0
  -28.1468  -22.0742   18.6988 C   0  0  0  0  0  0  0  0  0  0  0  0
  -20.9844  -27.5056   20.3762 C   0  0  1  0  0  0  0  0  0  0  0  0
  -20.1159  -27.3373   16.6901 C   0  0  2  0  0  0  0  0  0  0  0  0
  -28.8715  -19.2461   19.0033 C   0  0  0  0  0  0  0  0  0  0  0  0
  -20.0460  -26.8752   21.4436 C   0  0  0  0  0  0  0  0  0  0  0  0
  -22.7667  -12.0909   22.0968 N   0  0  0  0  0  0  0  0  0  0  0  0
  -22.7329  -12.9633   23.1185 N   0  0  0  0  0  0  0  0  0  0  0  0
  -28.3771  -23.1376   19.6675 N   0  0  0  0  0  0  0  0  0  0  0  0
  -22.8435  -29.0529   20.8991 N   0  0  0  0  0  0  0  0  0  0  0  0
  -23.3225  -16.2684   21.2802 N   0  0  0  0  0  0  0  0  0  0  0  0
  -22.7735  -13.1059   25.4826 N   0  0  0  0  0  0  0  0  0  0  0  0
  -21.7711   -9.4488   25.6082 N   0  0  0  0  0  0  0  0  0  0  0  0
  -24.3084  -18.2981   20.5942 N   0  0  0  0  0  0  0  0  0  0  0  0
  -23.9856  -31.1743   23.6362 N   0  0  0  0  0  0  0  0  0  0  0  0
  -20.3804  -27.6418   19.0552 N   0  0  0  0  0  0  0  0  0  0  0  0
  -21.0075  -27.4430   15.5007 N   0  3  0  0  0  0  0  0  0  0  0  0
  -27.6039  -24.7940   18.2348 O   0  0  0  0  0  0  0  0  0  0  0  0
  -24.0587   -9.6038   25.5730 O   0  0  0  0  0  0  0  0  0  0  0  0
  -23.3614  -28.9433   23.4002 O   0  0  0  0  0  0  0  0  0  0  0  0
  -20.6290  -29.7807   20.9452 O   0  0  0  0  0  0  0  0  0  0  0  0
  -21.9549  -26.3704   17.9232 O   0  0  0  0  0  0  0  0  0  0  0  0
  -25.5336  -16.3186   20.5945 O   0  0  0  0  0  0  0  0  0  0  0  0
  -23.0855   -6.1961   19.7091 O   0  0  0  0  0  0  0  0  0  0  0  0
  -28.4733  -26.7600   19.8495 O   0  0  0  0  0  0  0  0  0  1  0  0
  -24.6959   -1.5901   22.2773 F   0  0  0  0  0  0  0  0  0  0  0  0
  -21.6740   -5.2108   21.8724 F   0  0  0  0  0  0  0  0  0  0  0  0
  -29.0464  -17.9066   19.2001 F   0  0  0  0  0  0  0  0  0  0  0  0
  -29.2223  -19.4654   17.7024 F   0  0  0  0  0  0  0  0  0  0  0  0
  -29.8344  -19.8567   19.7521 F   0  0  0  0  0  0  0  0  0  0  0  0
  1  2  1  0  0  0  0
  1  5  2  0  0  0  0
  2  6  2  0  0  0  0
  3 10  2  0  0  0  0
  3 18  1  0  0  0  0
  4 11  1  0  0  0  0
  4 18  2  0  0  0  0
  5 20  1  0  0  0  0
  6 22  1  0  0  0  0
  7 12  2  0  0  0  0
  7 21  1  0  0  0  0
  8  9  2  0  0  0  0
  8 24  1  0  0  0  0
  9 26  1  0  0  0  0
 10 27  1  0  0  0  0
 11 27  2  0  0  0  0
 12 28  1  0  0  0  0
 13 14  2  0  0  0  0
 13 29  1  0  0  0  0
 14 30  1  0  0  0  0
 15 23  1  0  0  0  0
 15 28  2  0  0  0  0
 16 25  1  0  0  0  0
 16 26  2  0  0  0  0
 17 30  2  0  0  0  0
 17 31  1  0  0  0  0
 18 32  1  0  0  0  0
 19 32  1  0  0  0  0
 19 33  2  0  0  0  0
 19 35  1  0  0  0  0
 20 22  2  0  0  0  0
 20 40  1  0  0  0  0
 21 23  2  0  0  0  0
 21 41  1  0  0  0  0
 22 52  1  0  0  0  0
 23 42  1  0  0  0  0
 24 25  2  0  0  0  0
 24 61  1  0  0  0  0
 25 64  1  0  0  0  0
 26 73  1  0  0  0  0
 27 83  1  0  0  0  0
 28 84  1  0  0  0  0
 29 31  2  0  0  0  0
 29 83  1  0  0  0  0
 30 85  1  0  0  0  0
 31 86  1  0  0  0  0
 32 66  2  0  0  0  0
 33 67  1  0  0  0  0
 33 71  1  0  0  0  0
 34 53  1  0  0  0  0
 34 68  1  0  0  0  0
 34 77  2  0  0  0  0
 35 72  1  0  0  0  0
 35 78  2  0  0  0  0
 36 54  1  0  0  0  0
 36 74  1  0  0  0  0
 36 79  2  0  0  0  0
 37 62  1  0  0  0  0
 37 69  1  0  0  0  0
 37 80  2  0  0  0  0
 38 63  1  0  0  0  0
 38 75  1  0  0  0  0
 38 81  2  0  0  0  0
 39 70  1  0  0  0  0
 39 73  1  0  0  0  0
 39 82  2  0  0  0  0
 40 43  1  0  0  0  0
 41 54  1  0  0  0  0
 42 69  1  0  0  0  0
 43 46  1  0  0  0  0
 44 47  1  0  0  0  0
 44 49  1  0  0  0  0
 45 48  1  0  0  0  0
 45 50  1  0  0  0  0
 46 52  1  0  0  0  0
 47 53  1  0  0  0  0
 48 55  1  0  0  0  0
 49 68  1  0  0  0  0
 50 70  1  0  0  0  0
 51 55  1  0  0  0  0
 51 70  1  0  0  0  0
 52 74  1  0  0  0  0
 53 84  1  0  0  0  0
 54 69  1  0  0  0  0
 55 67  1  0  0  0  0
 56 63  1  0  0  0  0
 57 65  1  0  0  0  0
 58 65  1  0  0  0  0
 59 65  1  0  0  0  0
 60 76  1  0  0  0  0
 61 68  1  0  0  0  0
 62 65  1  0  0  0  0
 62 75  1  0  0  0  0
 63 76  1  0  0  0  0
 64 87  1  0  0  0  0
 64 88  1  0  0  0  0
 64 89  1  0  0  0  0
 66 67  1  0  0  0  0
M  CHG  1  76   1
M  ISO  4  39 100  53 101  73 100  84 101
M  END
> <Batch ID>
0048

> <Smiles>
CNC(C)C(=O)NC(C(=O)N1Cc2cc([101O:1][101CH:1]3CCCN(Cc4ccc([100NH:0][100C:0](=O)N5CCCC(n6nc(-c7ccc(Oc8ccc(F)cc8F)cc7)c(C(N)=O)c6N)C5)cc4C(F)(F)F)C3=O)ccc2CC1C(=O)NC1CCCc2ccccc21)C(C)(C)C

> <Shape>
0.259

> <Color>
0.073

> <Negative vol penalty>
0.000

$$$$

  -OEChem-04042322293D

 86 95  0     1  0  0  0  0  0999 V2000
  -17.1353  -26.7268   20.5766 C   0  0  0  0  0  0  0  0  0  0  0  0
  -18.4302  -26.2202   20.5314 C   0  0  0  0  0  0  0  0  0  0  0  0
  -22.7610  -10.7122   21.4735 C   0  0  0  0  0  0  0  0  0  0  0  0
  -24.4956   -9.0322   21.5506 C   0  0  0  0  0  0  0  0  0  0  0  0
  -16.9292  -28.1018   20.6800 C   0  0  0  0  0  0  0  0  0  0  0  0
  -19.5198  -27.0885   20.5886 C   0  0  0  0  0  0  0  0  0  0  0  0
  -23.1318  -25.4679   23.7465 C   0  0  0  0  0  0  0  0  0  0  0  0
  -27.5530  -18.8514   23.0999 C   0  0  0  0  0  0  0  0  0  0  0  0
  -27.5370  -17.7542   22.2388 C   0  0  0  0  0  0  0  0  0  0  0  0
  -22.0330  -10.0044   22.4299 C   0  0  0  0  0  0  0  0  0  0  0  0
  -23.7676   -8.3244   22.5069 C   0  0  0  0  0  0  0  0  0  0  0  0
  -23.9723  -24.4551   23.2864 C   0  0  0  0  0  0  0  0  0  0  0  0
  -21.1140   -6.2304   22.5706 C   0  0  0  0  0  0  0  0  0  0  0  0
  -20.9991   -4.8500   22.4067 C   0  0  0  0  0  0  0  0  0  0  0  0
  -25.6659  -26.0975   22.7830 C   0  0  0  0  0  0  0  0  0  0  0  0
  -29.9265  -17.5130   22.5017 C   0  0  0  0  0  0  0  0  0  0  0  0
  -22.0835   -4.5066   24.5382 C   0  0  0  0  0  0  0  0  0  0  0  0
  -23.9923  -10.2261   21.0338 C   0  0  0  0  0  0  0  0  0  0  0  0
  -24.3380  -11.2828   18.7379 C   0  0  0  0  0  0  0  0  0  0  0  0
  -18.0169  -28.9867   20.7482 C   0  0  0  0  0  0  0  0  0  0  0  0
  -23.5486  -26.8065   23.7180 C   0  0  0  0  0  0  0  0  0  0  0  0
  -19.3280  -28.4768   20.6917 C   0  0  0  0  0  0  0  0  0  0  0  0
  -24.8298  -27.1251   23.2456 C   0  0  0  0  0  0  0  0  0  0  0  0
  -28.7558  -19.2795   23.6618 C   0  0  0  0  0  0  0  0  0  0  0  0
  -28.7237  -17.0850   21.9397 C   0  0  0  0  0  0  0  0  0  0  0  0
  -22.5363   -8.8105   22.9466 C   0  0  0  0  0  0  0  0  0  0  0  0
  -25.2384  -24.7701   22.8019 C   0  0  0  0  0  0  0  0  0  0  0  0
  -21.7137   -6.7489   23.7183 C   0  0  0  0  0  0  0  0  0  0  0  0
  -21.4838   -3.9881   23.3905 C   0  0  0  0  0  0  0  0  0  0  0  0
  -29.9425  -18.6103   23.3628 C   0  0  0  0  0  0  0  0  0  0  0  0
  -22.1984   -5.8871   24.7021 C   0  0  0  0  0  0  0  0  0  0  0  0
  -24.7446  -10.9565   20.0456 C   0  0  0  0  0  0  0  0  0  0  0  0
  -25.4008  -11.9748   18.2105 C   0  0  0  0  0  0  0  0  0  0  0  0
  -27.3568  -22.2621   23.6779 C   0  0  0  0  0  0  0  0  0  0  0  0
  -23.1095  -10.9870   18.0605 C   0  0  0  0  0  0  0  0  0  0  0  0
  -22.5292  -29.4429   22.2640 C   0  0  0  0  0  0  0  0  0  0  0  0
  -24.8174  -30.8587   24.0756 C   0  0  0  0  0  0  0  0  0  0  0  0
  -28.2057  -30.1312   25.0796 C   0  0  0  0  0  0  0  0  0  0  0  0
  -29.7955  -15.1965   20.6625 C   0  0  0  0  0  0  0  0  0  0  0  0
  -17.7441  -30.4687   20.8119 C   0  0  0  0  0  0  0  0  0  0  0  0
  -22.6403  -27.8845   24.2427 C   0  0  0  0  0  0  0  0  0  0  0  0
  -25.3326  -28.5445   23.2127 C   0  0  0  0  0  0  0  0  0  0  0  0
  -18.9541  -31.2926   21.2447 C   0  0  0  0  0  0  0  0  0  0  0  0
  -29.7514  -23.6226   22.6768 C   0  0  0  0  0  0  0  0  0  0  0  0
  -30.1627  -12.3534   18.5508 C   0  0  0  0  0  0  0  0  0  0  0  0
  -20.2001  -30.8520   20.4830 C   0  0  0  0  0  0  0  0  0  0  0  0
  -28.4157  -23.8554   22.0020 C   0  0  0  0  0  0  0  0  0  0  0  0
  -28.7763  -11.7057   18.5706 C   0  0  0  0  0  0  0  0  0  0  0  0
  -29.8279  -22.1914   23.1774 C   0  0  0  0  0  0  0  0  0  0  0  0
  -30.5315  -12.9455   19.9099 C   0  0  0  0  0  0  0  0  0  0  0  0
  -28.1541  -13.2235   20.4932 C   0  0  0  0  0  0  0  0  0  0  0  0
  -20.5358  -29.3847   20.7761 C   0  0  1  0  0  0  0  0  0  0  0  0
  -27.3067  -23.6309   23.0109 C   0  0  1  0  0  0  0  0  0  1  0  0
  -22.9718  -29.2669   23.6891 C   0  0  1  0  0  0  0  0  0  0  0  0
  -27.7115  -12.6702   19.1288 C   0  0  2  0  0  0  0  0  0  0  0  0
  -29.4939  -30.8442   27.1117 C   0  0  0  0  0  0  0  0  0  0  0  0
  -25.8049  -33.1317   22.2956 C   0  0  0  0  0  0  0  0  0  0  0  0
  -28.0545  -32.9028   23.3703 C   0  0  0  0  0  0  0  0  0  0  0  0
  -26.0742  -33.5355   24.7489 C   0  0  0  0  0  0  0  0  0  0  0  0
  -28.8363  -27.3320   25.8047 C   0  0  0  0  0  0  0  0  0  0  0  0
  -28.7682  -20.4598   24.5897 C   0  0  0  0  0  0  0  0  0  0  0  0
  -26.2850  -31.1644   23.8972 C   0  0  1  0  0  0  0  0  0  0  0  0
  -28.6772  -29.7351   26.4671 C   0  0  2  0  0  0  0  0  0  0  0  0
  -26.5424  -32.6613   23.5652 C   0  0  0  0  0  0  0  0  0  0  0  0
  -25.9701  -11.4042   20.3314 N   0  0  0  0  0  0  0  0  0  0  0  0
  -26.3428  -12.0189   19.1958 N   0  0  0  0  0  0  0  0  0  0  0  0
  -28.6285  -21.7194   23.8714 N   0  0  0  0  0  0  0  0  0  0  0  0
  -24.4051  -29.5637   23.7308 N   0  0  0  0  0  0  0  0  0  0  0  0
  -29.4789  -13.8523   20.3734 N   0  0  0  0  0  0  0  0  0  0  0  0
  -25.6122  -12.5437   17.0046 N   0  0  0  0  0  0  0  0  0  0  0  0
  -22.1235  -10.2671   18.7489 N   0  0  0  0  0  0  0  0  0  0  0  0
  -28.7078  -15.9716   21.0635 N   0  0  0  0  0  0  0  0  0  0  0  0
  -21.1733  -29.2607   22.0695 N   0  0  0  0  0  0  0  0  0  0  0  0
  -26.9493  -30.6985   25.1097 N   0  0  0  0  0  0  0  0  0  0  0  0
  -29.5220  -28.5094   26.3968 N   0  3  0  0  0  0  0  0  0  0  0  0
  -26.3144  -21.7306   24.0691 O   0  0  0  0  0  0  0  0  0  0  0  0
  -22.8990  -11.3359   16.8741 O   0  0  0  0  0  0  0  0  0  0  0  0
  -23.3563  -29.7246   21.4049 O   0  0  0  0  0  0  0  0  0  0  0  0
  -24.0660  -31.7343   24.5117 O   0  0  0  0  0  0  0  0  0  0  0  0
  -28.8856  -29.9583   24.0704 O   0  0  0  0  0  0  0  0  0  0  0  0
  -30.9416  -15.6350   20.5356 O   0  0  0  0  0  0  0  0  0  0  0  0
  -21.8263   -8.1197   23.8800 O   0  0  0  0  0  0  0  0  0  0  0  0
  -26.0605  -23.7835   22.3517 O   0  0  0  0  0  0  0  0  0  1  0  0
  -21.3720   -2.6626   23.2337 F   0  0  0  0  0  0  0  0  0  0  0  0
  -31.1031  -19.0141   23.8979 F   0  0  0  0  0  0  0  0  0  0  0  0
  -22.7744   -6.3794   25.8074 F   0  0  0  0  0  0  0  0  0  0  0  0
  1  2  1  0  0  0  0
  1  5  2  0  0  0  0
  2  6  2  0  0  0  0
  3 10  2  0  0  0  0
  3 18  1  0  0  0  0
  4 11  1  0  0  0  0
  4 18  2  0  0  0  0
  5 20  1  0  0  0  0
  6 22  1  0  0  0  0
  7 12  2  0  0  0  0
  7 21  1  0  0  0  0
  8  9  2  0  0  0  0
  8 24  1  0  0  0  0
  9 25  1  0  0  0  0
 10 26  1  0  0  0  0
 11 26  2  0  0  0  0
 12 27  1  0  0  0  0
 13 14  2  0  0  0  0
 13 28  1  0  0  0  0
 14 29  1  0  0  0  0
 15 23  1  0  0  0  0
 15 27  2  0  0  0  0
 16 25  2  0  0  0  0
 16 30  1  0  0  0  0
 17 29  2  0  0  0  0
 17 31  1  0  0  0  0
 18 32  1  0  0  0  0
 19 32  1  0  0  0  0
 19 33  2  0  0  0  0
 19 35  1  0  0  0  0
 20 22  2  0  0  0  0
 20 40  1  0  0  0  0
 21 23  2  0  0  0  0
 21 41  1  0  0  0  0
 22 52  1  0  0  0  0
 23 42  1  0  0  0  0
 24 30  2  0  0  0  0
 24 61  1  0  0  0  0
 25 72  1  0  0  0  0
 26 82  1  0  0  0  0
 27 83  1  0  0  0  0
 28 31  2  0  0  0  0
 28 82  1  0  0  0  0
 29 84  1  0  0  0  0
 30 85  1  0  0  0  0
 31 86  1  0  0  0  0
 32 65  2  0  0  0  0
 33 66  1  0  0  0  0
 33 70  1  0  0  0  0
 34 53  1  0  0  0  0
 34 67  1  0  0  0  0
 34 76  2  0  0  0  0
 35 71  1  0  0  0  0
 35 77  2  0  0  0  0
 36 54  1  0  0  0  0
 36 73  1  0  0  0  0
 36 78  2  0  0  0  0
 37 62  1  0  0  0  0
 37 68  1  0  0  0  0
 37 79  2  0  0  0  0
 38 63  1  0  0  0  0
 38 74  1  0  0  0  0
 38 80  2  0  0  0  0
 39 69  1  0  0  0  0
 39 72  1  0  0  0  0
 39 81  2  0  0  0  0
 40 43  1  0  0  0  0
 41 54  1  0  0  0  0
 42 68  1  0  0  0  0
 43 46  1  0  0  0  0
 44 47  1  0  0  0  0
 44 49  1  0  0  0  0
 45 48  1  0  0  0  0
 45 50  1  0  0  0  0
 46 52  1  0  0  0  0
 47 53  1  0  0  0  0
 48 55  1  0  0  0  0
 49 67  1  0  0  0  0
 50 69  1  0  0  0  0
 51 55  1  0  0  0  0
 51 69  1  0  0  0  0
 52 73  1  0  0  0  0
 53 83  1  0  0  0  0
 54 68  1  0  0  0  0
 55 66  1  0  0  0  0
 56 63  1  0  0  0  0
 57 64  1  0  0  0  0
 58 64  1  0  0  0  0
 59 64  1  0  0  0  0
 60 75  1  0  0  0  0
 61 67  1  0  0  0  0
 62 64  1  0  0  0  0
 62 74  1  0  0  0  0
 63 75  1  0  0  0  0
 65 66  1  0  0  0  0
M  CHG  1  75   1
M  ISO  4  39 100  53 101  72 100  83 101
M  END
> <Batch ID>
0048

> <Smiles>
CNC(C)C(=O)NC(C(=O)N1Cc2cc([101O:1][101CH:1]3CCCN(Cc4ccc([100NH:0][100C:0](=O)N5CCCC(n6nc(-c7ccc(Oc8ccc(F)cc8F)cc7)c(C(N)=O)c6N)C5)cc4F)C3=O)ccc2CC1C(=O)NC1CCCc2ccccc21)C(C)(C)C

> <Shape>
0.250

> <Color>
0.093

> <Negative vol penalty>
0.000

$$$$

  -OEChem-04042322293D

 86 95  0     1  0  0  0  0  0999 V2000
  -28.6920  -32.1051   27.2903 C   0  0  0  0  0  0  0  0  0  0  0  0
  -28.6422  -30.8376   26.7190 C   0  0  0  0  0  0  0  0  0  0  0  0
  -23.3720   -9.5566   20.1624 C   0  0  0  0  0  0  0  0  0  0  0  0
  -23.8517  -10.0213   22.4842 C   0  0  0  0  0  0  0  0  0  0  0  0
  -27.5862  -32.9501   27.2067 C   0  0  0  0  0  0  0  0  0  0  0  0
  -27.4860  -30.4140   26.0647 C   0  0  0  0  0  0  0  0  0  0  0  0
  -28.4750  -28.1397   21.6494 C   0  0  0  0  0  0  0  0  0  0  0  0
  -30.6109  -19.5939   20.0191 C   0  0  0  0  0  0  0  0  0  0  0  0
  -30.5580  -18.2196   20.2519 C   0  0  0  0  0  0  0  0  0  0  0  0
  -22.7143   -8.3837   20.5330 C   0  0  0  0  0  0  0  0  0  0  0  0
  -23.1939   -8.8485   22.8549 C   0  0  0  0  0  0  0  0  0  0  0  0
  -28.9218  -26.8200   21.6990 C   0  0  0  0  0  0  0  0  0  0  0  0
  -20.0054   -7.8042   23.2589 C   0  0  0  0  0  0  0  0  0  0  0  0
  -19.1224   -7.8711   24.3366 C   0  0  0  0  0  0  0  0  0  0  0  0
  -26.6960  -26.0530   21.1729 C   0  0  0  0  0  0  0  0  0  0  0  0
  -20.4427   -6.2301   25.5202 C   0  0  0  0  0  0  0  0  0  0  0  0
  -23.9408  -10.3754   21.1380 C   0  0  0  0  0  0  0  0  0  0  0  0
  -24.0583  -12.8695   20.6153 C   0  0  0  0  0  0  0  0  0  0  0  0
  -26.4193  -32.5403   26.5426 C   0  0  0  0  0  0  0  0  0  0  0  0
  -27.1307  -28.4261   21.3715 C   0  0  0  0  0  0  0  0  0  0  0  0
  -26.3630  -31.2538   25.9733 C   0  0  0  0  0  0  0  0  0  0  0  0
  -26.2352  -27.3773   21.1179 C   0  0  0  0  0  0  0  0  0  0  0  0
  -28.7717  -19.9240   21.5506 C   0  0  0  0  0  0  0  0  0  0  0  0
  -28.7187  -18.5497   21.7833 C   0  0  0  0  0  0  0  0  0  0  0  0
  -29.7177  -20.4461   20.6686 C   0  0  0  0  0  0  0  0  0  0  0  0
  -29.6119  -17.6975   21.1339 C   0  0  0  0  0  0  0  0  0  0  0  0
  -22.6251   -8.0297   21.8792 C   0  0  0  0  0  0  0  0  0  0  0  0
  -28.0317  -25.7763   21.4636 C   0  0  0  0  0  0  0  0  0  0  0  0
  -21.1070   -6.9502   23.3118 C   0  0  0  0  0  0  0  0  0  0  0  0
  -19.3411   -7.0841   25.4672 C   0  0  0  0  0  0  0  0  0  0  0  0
  -21.3257   -6.1632   24.4424 C   0  0  0  0  0  0  0  0  0  0  0  0
  -24.6210  -11.5867   20.7557 C   0  0  0  0  0  0  0  0  0  0  0  0
  -25.1113  -13.6670   20.2390 C   0  0  0  0  0  0  0  0  0  0  0  0
  -30.0459  -22.7747   21.4567 C   0  0  0  0  0  0  0  0  0  0  0  0
  -22.7048  -13.3016   20.8080 C   0  0  0  0  0  0  0  0  0  0  0  0
  -24.7680  -29.8511   22.9498 C   0  0  0  0  0  0  0  0  0  0  0  0
  -23.1863  -29.4708   20.1434 C   0  0  0  0  0  0  0  0  0  0  0  0
  -22.8644  -27.7605   17.2078 C   0  0  0  0  0  0  0  0  0  0  0  0
  -30.3976  -15.3305   20.7786 C   0  0  0  0  0  0  0  0  0  0  0  0
  -25.2326  -33.4708   26.5190 C   0  0  0  0  0  0  0  0  0  0  0  0
  -26.6703  -29.8560   21.2953 C   0  0  0  0  0  0  0  0  0  0  0  0
  -24.7863  -27.6322   20.7952 C   0  0  0  0  0  0  0  0  0  0  0  0
  -24.1787  -33.0877   25.4833 C   0  0  0  0  0  0  0  0  0  0  0  0
  -29.3297  -23.7293   18.7823 C   0  0  0  0  0  0  0  0  0  0  0  0
  -29.7999  -12.4544   18.7666 C   0  0  0  0  0  0  0  0  0  0  0  0
  -23.8827  -31.5928   25.5507 C   0  0  0  0  0  0  0  0  0  0  0  0
  -30.0755  -24.6563   19.7191 C   0  0  0  0  0  0  0  0  0  0  0  0
  -28.3530  -12.0778   19.0932 C   0  0  0  0  0  0  0  0  0  0  0  0
  -29.7956  -22.3004   19.0043 C   0  0  0  0  0  0  0  0  0  0  0  0
  -30.5414  -12.9763   19.9960 C   0  0  0  0  0  0  0  0  0  0  0  0
  -28.4256  -13.6985   21.0309 C   0  0  0  0  0  0  0  0  0  0  0  0
  -25.1356  -30.7675   25.2337 C   0  0  1  0  0  0  0  0  0  0  0  0
  -29.8203  -24.2460   21.1540 C   0  0  1  0  0  0  0  0  0  1  0  0
  -25.1681  -30.0123   21.5105 C   0  0  1  0  0  0  0  0  0  0  0  0
  -27.6191  -13.2284   19.8094 C   0  0  2  0  0  0  0  0  0  0  0  0
  -27.8128  -20.8369   22.2491 C   0  0  0  0  0  0  0  0  0  0  0  0
  -27.7027  -17.9913   22.7302 C   0  0  0  0  0  0  0  0  0  0  0  0
  -21.4554  -27.6545   15.1340 C   0  0  0  0  0  0  0  0  0  0  0  0
  -20.9667  -28.0984   21.7245 C   0  0  0  0  0  0  0  0  0  0  0  0
  -20.0818  -27.1947   19.5638 C   0  0  0  0  0  0  0  0  0  0  0  0
  -20.1660  -29.6590   19.9419 C   0  0  0  0  0  0  0  0  0  0  0  0
  -25.1795  -28.3599   15.4644 C   0  0  0  0  0  0  0  0  0  0  0  0
  -22.3173  -28.3919   19.5437 C   0  0  1  0  0  0  0  0  0  0  0  0
  -22.7043  -28.2384   15.7759 C   0  0  2  0  0  0  0  0  0  0  0  0
  -20.9097  -28.3308   20.2014 C   0  0  0  0  0  0  0  0  0  0  0  0
  -25.9298  -11.5659   20.4900 N   0  0  0  0  0  0  0  0  0  0  0  0
  -26.1983  -12.8454   20.1788 N   0  0  0  0  0  0  0  0  0  0  0  0
  -29.7916  -21.8683   20.4123 N   0  0  0  0  0  0  0  0  0  0  0  0
  -24.3830  -29.0470   20.7385 N   0  0  0  0  0  0  0  0  0  0  0  0
  -29.7894  -14.0673   20.6198 N   0  0  0  0  0  0  0  0  0  0  0  0
  -25.2042  -14.9839   19.9569 N   0  0  0  0  0  0  0  0  0  0  0  0
  -21.7490  -12.3522   21.1947 N   0  0  0  0  0  0  0  0  0  0  0  0
  -29.5749  -16.2982   21.3541 N   0  0  0  0  0  0  0  0  0  0  0  0
  -25.3791  -30.7460   23.8072 N   0  0  0  0  0  0  0  0  0  0  0  0
  -22.2948  -28.6381   18.1059 N   0  0  0  0  0  0  0  0  0  0  0  0
  -23.8844  -27.8350   14.9602 N   0  3  0  0  0  0  0  0  0  0  0  0
  -30.3875  -22.4659   22.6024 O   0  0  0  0  0  0  0  0  0  0  0  0
  -22.3501  -14.4909   20.6262 O   0  0  0  0  0  0  0  0  0  0  0  0
  -23.9634  -28.9802   23.2594 O   0  0  0  0  0  0  0  0  0  0  0  0
  -22.8203  -30.6471   20.0798 O   0  0  0  0  0  0  0  0  0  0  0  0
  -23.4343  -26.7115   17.5002 O   0  0  0  0  0  0  0  0  0  0  0  0
  -31.5534  -15.5458   20.4049 O   0  0  0  0  0  0  0  0  0  0  0  0
  -21.9831   -6.8855   22.2413 O   0  0  0  0  0  0  0  0  0  0  0  0
  -28.4651  -24.4872   21.5120 O   0  0  0  0  0  0  0  0  0  1  0  0
  -18.4939   -7.1496   26.5027 F   0  0  0  0  0  0  0  0  0  0  0  0
  -22.3829   -5.3417   24.4995 F   0  0  0  0  0  0  0  0  0  0  0  0
  1  2  1  0  0  0  0
  1  5  2  0  0  0  0
  2  6  2  0  0  0  0
  3 10  2  0  0  0  0
  3 17  1  0  0  0  0
  4 11  1  0  0  0  0
  4 17  2  0  0  0  0
  5 19  1  0  0  0  0
  6 21  1  0  0  0  0
  7 12  2  0  0  0  0
  7 20  1  0  0  0  0
  8  9  2  0  0  0  0
  8 25  1  0  0  0  0
  9 26  1  0  0  0  0
 10 27  1  0  0  0  0
 11 27  2  0  0  0  0
 12 28  1  0  0  0  0
 13 14  2  0  0  0  0
 13 29  1  0  0  0  0
 14 30  1  0  0  0  0
 15 22  1  0  0  0  0
 15 28  2  0  0  0  0
 16 30  2  0  0  0  0
 16 31  1  0  0  0  0
 17 32  1  0  0  0  0
 18 32  1  0  0  0  0
 18 33  2  0  0  0  0
 18 35  1  0  0  0  0
 19 21  2  0  0  0  0
 19 40  1  0  0  0  0
 20 22  2  0  0  0  0
 20 41  1  0  0  0  0
 21 52  1  0  0  0  0
 22 42  1  0  0  0  0
 23 24  1  0  0  0  0
 23 25  2  0  0  0  0
 23 56  1  0  0  0  0
 24 26  2  0  0  0  0
 24 57  1  0  0  0  0
 25 68  1  0  0  0  0
 26 73  1  0  0  0  0
 27 83  1  0  0  0  0
 28 84  1  0  0  0  0
 29 31  2  0  0  0  0
 29 83  1  0  0  0  0
 30 85  1  0  0  0  0
 31 86  1  0  0  0  0
 32 66  2  0  0  0  0
 33 67  1  0  0  0  0
 33 71  1  0  0  0  0
 34 53  1  0  0  0  0
 34 68  1  0  0  0  0
 34 77  2  0  0  0  0
 35 72  1  0  0  0  0
 35 78  2  0  0  0  0
 36 54  1  0  0  0  0
 36 74  1  0  0  0  0
 36 79  2  0  0  0  0
 37 63  1  0  0  0  0
 37 69  1  0  0  0  0
 37 80  2  0  0  0  0
 38 64  1  0  0  0  0
 38 75  1  0  0  0  0
 38 81  2  0  0  0  0
 39 70  1  0  0  0  0
 39 73  1  0  0  0  0
 39 82  2  0  0  0  0
 40 43  1  0  0  0  0
 41 54  1  0  0  0  0
 42 69  1  0  0  0  0
 43 46  1  0  0  0  0
 44 47  1  0  0  0  0
 44 49  1  0  0  0  0
 45 48  1  0  0  0  0
 45 50  1  0  0  0  0
 46 52  1  0  0  0  0
 47 53  1  0  0  0  0
 48 55  1  0  0  0  0
 49 68  1  0  0  0  0
 50 70  1  0  0  0  0
 51 55  1  0  0  0  0
 51 70  1  0  0  0  0
 52 74  1  0  0  0  0
 53 84  1  0  0  0  0
 54 69  1  0  0  0  0
 55 67  1  0  0  0  0
 58 64  1  0  0  0  0
 59 65  1  0  0  0  0
 60 65  1  0  0  0  0
 61 65  1  0  0  0  0
 62 76  1  0  0  0  0
 63 65  1  0  0  0  0
 63 75  1  0  0  0  0
 64 76  1  0  0  0  0
 66 67  1  0  0  0  0
M  CHG  1  76   1
M  ISO  4  39 100  53 101  73 100  84 101
M  END
> <Batch ID>
0048

> <Smiles>
CNC(C)C(=O)NC(C(=O)N1Cc2cc([101O:1][101CH:1]3CCCN(c4ccc([100NH:0][100C:0](=O)N5CCCC(n6nc(-c7ccc(Oc8ccc(F)cc8F)cc7)c(C(N)=O)c6N)C5)c(C)c4C)C3=O)ccc2CC1C(=O)NC1CCCc2ccccc21)C(C)(C)C

> <Shape>
0.366

> <Color>
0.177

> <Negative vol penalty>
0.000

$$$$

  -OEChem-04042322293D

 86 95  0     1  0  0  0  0  0999 V2000
  -17.1207  -26.7496   20.5609 C   0  0  0  0  0  0  0  0  0  0  0  0
  -18.4147  -26.2406   20.5170 C   0  0  0  0  0  0  0  0  0  0  0  0
  -22.7576  -10.7012   21.4668 C   0  0  0  0  0  0  0  0  0  0  0  0
  -24.4970   -9.0265   21.5501 C   0  0  0  0  0  0  0  0  0  0  0  0
  -16.9170  -28.1252   20.6621 C   0  0  0  0  0  0  0  0  0  0  0  0
  -19.5058  -27.1071   20.5733 C   0  0  0  0  0  0  0  0  0  0  0  0
  -23.1137  -25.4850   23.7351 C   0  0  0  0  0  0  0  0  0  0  0  0
  -29.9147  -18.6184   23.3655 C   0  0  0  0  0  0  0  0  0  0  0  0
  -29.9014  -17.5213   22.5042 C   0  0  0  0  0  0  0  0  0  0  0  0
  -22.0294   -9.9924   22.4222 C   0  0  0  0  0  0  0  0  0  0  0  0
  -23.7688   -8.3177   22.5056 C   0  0  0  0  0  0  0  0  0  0  0  0
  -23.9525  -24.4700   23.2770 C   0  0  0  0  0  0  0  0  0  0  0  0
  -21.1212   -6.2158   22.5654 C   0  0  0  0  0  0  0  0  0  0  0  0
  -21.0108   -4.8349   22.4029 C   0  0  0  0  0  0  0  0  0  0  0  0
  -25.6492  -26.1086   22.7717 C   0  0  0  0  0  0  0  0  0  0  0  0
  -27.5255  -18.8576   23.0976 C   0  0  0  0  0  0  0  0  0  0  0  0
  -22.0910   -4.4974   24.5374 C   0  0  0  0  0  0  0  0  0  0  0  0
  -23.9914  -10.2182   21.0307 C   0  0  0  0  0  0  0  0  0  0  0  0
  -24.3396  -11.2732   18.7343 C   0  0  0  0  0  0  0  0  0  0  0  0
  -18.0062  -29.0082   20.7294 C   0  0  0  0  0  0  0  0  0  0  0  0
  -23.5328  -26.8228   23.7048 C   0  0  0  0  0  0  0  0  0  0  0  0
  -19.3164  -28.4959   20.6742 C   0  0  0  0  0  0  0  0  0  0  0  0
  -24.8148  -27.1384   23.2324 C   0  0  0  0  0  0  0  0  0  0  0  0
  -28.7267  -19.2865   23.6622 C   0  0  0  0  0  0  0  0  0  0  0  0
  -28.7002  -17.0923   21.9397 C   0  0  0  0  0  0  0  0  0  0  0  0
  -22.5350   -8.8006   22.9416 C   0  0  0  0  0  0  0  0  0  0  0  0
  -25.2194  -24.7820   22.7925 C   0  0  0  0  0  0  0  0  0  0  0  0
  -21.7166   -6.7376   23.7139 C   0  0  0  0  0  0  0  0  0  0  0  0
  -21.4957   -3.9757   23.3889 C   0  0  0  0  0  0  0  0  0  0  0  0
  -27.5122  -17.7605   22.2364 C   0  0  0  0  0  0  0  0  0  0  0  0
  -22.2015   -5.8784   24.6999 C   0  0  0  0  0  0  0  0  0  0  0  0
  -24.7439  -10.9497   20.0433 C   0  0  0  0  0  0  0  0  0  0  0  0
  -25.4016  -11.9677   18.2086 C   0  0  0  0  0  0  0  0  0  0  0  0
  -27.3330  -22.2717   23.6732 C   0  0  0  0  0  0  0  0  0  0  0  0
  -23.1136  -10.9728   18.0542 C   0  0  0  0  0  0  0  0  0  0  0  0
  -22.5186  -29.4587   22.2464 C   0  0  0  0  0  0  0  0  0  0  0  0
  -24.8087  -30.8733   24.0567 C   0  0  0  0  0  0  0  0  0  0  0  0
  -28.1952  -30.1413   25.0632 C   0  0  0  0  0  0  0  0  0  0  0  0
  -29.7807  -15.2054   20.6674 C   0  0  0  0  0  0  0  0  0  0  0  0
  -17.7360  -30.4908   20.7907 C   0  0  0  0  0  0  0  0  0  0  0  0
  -22.6262  -27.9032   24.2275 C   0  0  0  0  0  0  0  0  0  0  0  0
  -25.3201  -28.5568   23.1976 C   0  0  0  0  0  0  0  0  0  0  0  0
  -18.9473  -31.3132   21.2228 C   0  0  0  0  0  0  0  0  0  0  0  0
  -29.7304  -23.6264   22.6709 C   0  0  0  0  0  0  0  0  0  0  0  0
  -30.1614  -12.3609   18.5601 C   0  0  0  0  0  0  0  0  0  0  0  0
  -20.1928  -30.8692   20.4623 C   0  0  0  0  0  0  0  0  0  0  0  0
  -28.3954  -23.8605   21.9953 C   0  0  0  0  0  0  0  0  0  0  0  0
  -28.7769  -11.7090   18.5773 C   0  0  0  0  0  0  0  0  0  0  0  0
  -29.8042  -22.1958   23.1737 C   0  0  0  0  0  0  0  0  0  0  0  0
  -30.5252  -12.9557   19.9194 C   0  0  0  0  0  0  0  0  0  0  0  0
  -28.1456  -13.2273   20.4965 C   0  0  0  0  0  0  0  0  0  0  0  0
  -20.5257  -29.4018   20.7578 C   0  0  1  0  0  0  0  0  0  0  0  0
  -27.2856  -23.6395   23.0041 C   0  0  1  0  0  0  0  0  0  1  0  0
  -22.9604  -29.2842   23.6719 C   0  0  1  0  0  0  0  0  0  0  0  0
  -27.7079  -12.6711   19.1317 C   0  0  2  0  0  0  0  0  0  0  0  0
  -29.4839  -30.8551   27.0947 C   0  0  0  0  0  0  0  0  0  0  0  0
  -25.8009  -33.1418   22.2737 C   0  0  0  0  0  0  0  0  0  0  0  0
  -28.0497  -32.9106   23.3496 C   0  0  0  0  0  0  0  0  0  0  0  0
  -26.0699  -33.5489   24.7265 C   0  0  0  0  0  0  0  0  0  0  0  0
  -28.8206  -27.3421   25.7929 C   0  0  0  0  0  0  0  0  0  0  0  0
  -28.7409  -20.4682   24.5883 C   0  0  0  0  0  0  0  0  0  0  0  0
  -26.2768  -31.1761   23.8785 C   0  0  1  0  0  0  0  0  0  0  0  0
  -28.6654  -29.7465   26.4515 C   0  0  2  0  0  0  0  0  0  0  0  0
  -26.5370  -32.6721   23.5443 C   0  0  0  0  0  0  0  0  0  0  0  0
  -25.9674  -11.4014   20.3316 N   0  0  0  0  0  0  0  0  0  0  0  0
  -26.3410  -12.0158   19.1962 N   0  0  0  0  0  0  0  0  0  0  0  0
  -28.6037  -21.7270   23.8680 N   0  0  0  0  0  0  0  0  0  0  0  0
  -24.3942  -29.5785   23.7137 N   0  0  0  0  0  0  0  0  0  0  0  0
  -29.4688  -13.8599   20.3792 N   0  0  0  0  0  0  0  0  0  0  0  0
  -25.6142  -12.5357   17.0026 N   0  0  0  0  0  0  0  0  0  0  0  0
  -22.1281  -10.2509   18.7412 N   0  0  0  0  0  0  0  0  0  0  0  0
  -28.6897  -15.9778   21.0647 N   0  0  0  0  0  0  0  0  0  0  0  0
  -21.1625  -29.2787   22.0516 N   0  0  0  0  0  0  0  0  0  0  0  0
  -26.9398  -30.7109   25.0920 N   0  0  0  0  0  0  0  0  0  0  0  0
  -29.5081  -28.5192   26.3834 N   0  3  0  0  0  0  0  0  0  0  0  0
  -26.2895  -21.7426   24.0647 O   0  0  0  0  0  0  0  0  0  0  0  0
  -22.9050  -11.3198   16.8670 O   0  0  0  0  0  0  0  0  0  0  0  0
  -23.3466  -29.7377   21.3872 O   0  0  0  0  0  0  0  0  0  0  0  0
  -24.0586  -31.7509   24.4912 O   0  0  0  0  0  0  0  0  0  0  0  0
  -28.8752  -29.9657   24.0546 O   0  0  0  0  0  0  0  0  0  0  0  0
  -30.9258  -15.6472   20.5428 O   0  0  0  0  0  0  0  0  0  0  0  0
  -21.8247   -8.1088   23.8741 O   0  0  0  0  0  0  0  0  0  0  0  0
  -26.0399  -23.7933   22.3441 O   0  0  0  0  0  0  0  0  0  1  0  0
  -21.3883   -2.6496   23.2334 F   0  0  0  0  0  0  0  0  0  0  0  0
  -26.3521  -17.3578   21.6983 F   0  0  0  0  0  0  0  0  0  0  0  0
  -22.7733   -6.3737   25.8060 F   0  0  0  0  0  0  0  0  0  0  0  0
  1  2  1  0  0  0  0
  1  5  2  0  0  0  0
  2  6  2  0  0  0  0
  3 10  2  0  0  0  0
  3 18  1  0  0  0  0
  4 11  1  0  0  0  0
  4 18  2  0  0  0  0
  5 20  1  0  0  0  0
  6 22  1  0  0  0  0
  7 12  2  0  0  0  0
  7 21  1  0  0  0  0
  8  9  2  0  0  0  0
  8 24  1  0  0  0  0
  9 25  1  0  0  0  0
 10 26  1  0  0  0  0
 11 26  2  0  0  0  0
 12 27  1  0  0  0  0
 13 14  2  0  0  0  0
 13 28  1  0  0  0  0
 14 29  1  0  0  0  0
 15 23  1  0  0  0  0
 15 27  2  0  0  0  0
 16 24  2  0  0  0  0
 16 30  1  0  0  0  0
 17 29  2  0  0  0  0
 17 31  1  0  0  0  0
 18 32  1  0  0  0  0
 19 32  1  0  0  0  0
 19 33  2  0  0  0  0
 19 35  1  0  0  0  0
 20 22  2  0  0  0  0
 20 40  1  0  0  0  0
 21 23  2  0  0  0  0
 21 41  1  0  0  0  0
 22 52  1  0  0  0  0
 23 42  1  0  0  0  0
 24 61  1  0  0  0  0
 25 30  2  0  0  0  0
 25 72  1  0  0  0  0
 26 82  1  0  0  0  0
 27 83  1  0  0  0  0
 28 31  2  0  0  0  0
 28 82  1  0  0  0  0
 29 84  1  0  0  0  0
 30 85  1  0  0  0  0
 31 86  1  0  0  0  0
 32 65  2  0  0  0  0
 33 66  1  0  0  0  0
 33 70  1  0  0  0  0
 34 53  1  0  0  0  0
 34 67  1  0  0  0  0
 34 76  2  0  0  0  0
 35 71  1  0  0  0  0
 35 77  2  0  0  0  0
 36 54  1  0  0  0  0
 36 73  1  0  0  0  0
 36 78  2  0  0  0  0
 37 62  1  0  0  0  0
 37 68  1  0  0  0  0
 37 79  2  0  0  0  0
 38 63  1  0  0  0  0
 38 74  1  0  0  0  0
 38 80  2  0  0  0  0
 39 69  1  0  0  0  0
 39 72  1  0  0  0  0
 39 81  2  0  0  0  0
 40 43  1  0  0  0  0
 41 54  1  0  0  0  0
 42 68  1  0  0  0  0
 43 46  1  0  0  0  0
 44 47  1  0  0  0  0
 44 49  1  0  0  0  0
 45 48  1  0  0  0  0
 45 50  1  0  0  0  0
 46 52  1  0  0  0  0
 47 53  1  0  0  0  0
 48 55  1  0  0  0  0
 49 67  1  0  0  0  0
 50 69  1  0  0  0  0
 51 55  1  0  0  0  0
 51 69  1  0  0  0  0
 52 73  1  0  0  0  0
 53 83  1  0  0  0  0
 54 68  1  0  0  0  0
 55 66  1  0  0  0  0
 56 63  1  0  0  0  0
 57 64  1  0  0  0  0
 58 64  1  0  0  0  0
 59 64  1  0  0  0  0
 60 75  1  0  0  0  0
 61 67  1  0  0  0  0
 62 64  1  0  0  0  0
 62 74  1  0  0  0  0
 63 75  1  0  0  0  0
 65 66  1  0  0  0  0
M  CHG  1  75   1
M  ISO  4  39 100  53 101  72 100  83 101
M  END
> <Batch ID>
0048

> <Smiles>
CNC(C)C(=O)NC(C(=O)N1Cc2cc([101O:1][101CH:1]3CCCN(Cc4ccc([100NH:0][100C:0](=O)N5CCCC(n6nc(-c7ccc(Oc8ccc(F)cc8F)cc7)c(C(N)=O)c6N)C5)c(F)c4)C3=O)ccc2CC1C(=O)NC1CCCc2ccccc21)C(C)(C)C

> <Shape>
0.251

> <Color>
0.093

> <Negative vol penalty>
0.000

$$$$

  -OEChem-04042322293D

 86 95  0     1  0  0  0  0  0999 V2000
  -16.5633  -29.4958   24.0742 C   0  0  0  0  0  0  0  0  0  0  0  0
  -16.9582  -28.6760   23.0218 C   0  0  0  0  0  0  0  0  0  0  0  0
  -27.1889  -12.9975   20.3367 C   0  0  0  0  0  0  0  0  0  0  0  0
  -27.5165  -13.6055   22.6519 C   0  0  0  0  0  0  0  0  0  0  0  0
  -17.3960  -30.5289   24.5019 C   0  0  0  0  0  0  0  0  0  0  0  0
  -18.1857  -28.8897   22.3957 C   0  0  0  0  0  0  0  0  0  0  0  0
  -23.4968  -25.3340   19.1608 C   0  0  0  0  0  0  0  0  0  0  0  0
  -30.5685  -22.7453   17.0111 C   0  0  0  0  0  0  0  0  0  0  0  0
  -31.0560  -21.8256   17.9395 C   0  0  0  0  0  0  0  0  0  0  0  0
  -25.8748  -12.6257   20.6203 C   0  0  0  0  0  0  0  0  0  0  0  0
  -26.2023  -13.2337   22.9355 C   0  0  0  0  0  0  0  0  0  0  0  0
  -24.2307  -25.3387   17.9755 C   0  0  0  0  0  0  0  0  0  0  0  0
  -24.2763   -9.9890   22.0048 C   0  0  0  0  0  0  0  0  0  0  0  0
  -23.8162   -8.7832   21.4756 C   0  0  0  0  0  0  0  0  0  0  0  0
  -25.6220  -27.1042   18.8511 C   0  0  0  0  0  0  0  0  0  0  0  0
  -30.2719  -20.0096   16.5524 C   0  0  0  0  0  0  0  0  0  0  0  0
  -22.0849   -9.9693   20.2786 C   0  0  0  0  0  0  0  0  0  0  0  0
  -28.0098  -13.4874   21.3525 C   0  0  0  0  0  0  0  0  0  0  0  0
  -30.3904  -13.0522   20.5458 C   0  0  0  0  0  0  0  0  0  0  0  0
  -18.6386  -30.7494   23.8871 C   0  0  0  0  0  0  0  0  0  0  0  0
  -23.8136  -26.2232   20.1977 C   0  0  0  0  0  0  0  0  0  0  0  0
  -19.0352  -29.9277   22.8147 C   0  0  0  0  0  0  0  0  0  0  0  0
  -24.8922  -27.1069   20.0496 C   0  0  0  0  0  0  0  0  0  0  0  0
  -29.9326  -22.2972   15.8533 C   0  0  0  0  0  0  0  0  0  0  0  0
  -29.7843  -20.9293   15.6239 C   0  0  0  0  0  0  0  0  0  0  0  0
  -30.9078  -20.4578   17.7102 C   0  0  0  0  0  0  0  0  0  0  0  0
  -25.3815  -12.7438   21.9196 C   0  0  0  0  0  0  0  0  0  0  0  0
  -25.2917  -26.2259   17.8193 C   0  0  0  0  0  0  0  0  0  0  0  0
  -23.6407  -11.1849   21.6710 C   0  0  0  0  0  0  0  0  0  0  0  0
  -22.7205   -8.7734   20.6124 C   0  0  0  0  0  0  0  0  0  0  0  0
  -22.5450  -11.1751   20.8078 C   0  0  0  0  0  0  0  0  0  0  0  0
  -29.3675  -13.8711   21.0604 C   0  0  0  0  0  0  0  0  0  0  0  0
  -31.4800  -13.8829   20.4501 C   0  0  0  0  0  0  0  0  0  0  0  0
  -27.7071  -24.6722   16.0037 C   0  0  0  0  0  0  0  0  0  0  0  0
  -30.3585  -11.6645   20.1864 C   0  0  0  0  0  0  0  0  0  0  0  0
  -22.2832  -28.5879   21.6709 C   0  0  0  0  0  0  0  0  0  0  0  0
  -24.9032  -28.5702   23.5833 C   0  0  0  0  0  0  0  0  0  0  0  0
  -28.4722  -28.2561   23.1576 C   0  0  0  0  0  0  0  0  0  0  0  0
  -32.0619  -19.7996   19.8505 C   0  0  0  0  0  0  0  0  0  0  0  0
  -19.4837  -31.9084   24.3531 C   0  0  0  0  0  0  0  0  0  0  0  0
  -23.0290  -26.1871   21.4805 C   0  0  0  0  0  0  0  0  0  0  0  0
  -25.2857  -28.0678   21.1406 C   0  0  0  0  0  0  0  0  0  0  0  0
  -20.9340  -31.8328   23.8826 C   0  0  0  0  0  0  0  0  0  0  0  0
  -29.6472  -26.8496   16.2899 C   0  0  0  0  0  0  0  0  0  0  0  0
  -33.4046  -17.7813   22.4584 C   0  0  0  0  0  0  0  0  0  0  0  0
  -20.9963  -31.4855   22.3986 C   0  0  0  0  0  0  0  0  0  0  0  0
  -28.1656  -27.1610   16.2577 C   0  0  0  0  0  0  0  0  0  0  0  0
  -32.6190  -16.4728   22.3451 C   0  0  0  0  0  0  0  0  0  0  0  0
  -29.9403  -25.6673   15.3836 C   0  0  0  0  0  0  0  0  0  0  0  0
  -32.5295  -18.9962   22.1551 C   0  0  0  0  0  0  0  0  0  0  0  0
  -31.0238  -17.6305   20.7633 C   0  0  0  0  0  0  0  0  0  0  0  0
  -20.3703  -30.1124   22.1265 C   0  0  1  0  0  0  0  0  0  0  0  0
  -27.3965  -25.9561   16.7627 C   0  0  1  0  0  0  0  0  0  1  0  0
  -23.1150  -27.4895   22.2704 C   0  0  1  0  0  0  0  0  0  0  0  0
  -31.8793  -16.3745   20.9965 C   0  0  2  0  0  0  0  0  0  0  0  0
  -29.1089  -20.4263   14.3905 C   0  0  0  0  0  0  0  0  0  0  0  0
  -30.2343  -27.4072   24.7297 C   0  0  0  0  0  0  0  0  0  0  0  0
  -25.2261  -31.5068   24.3463 C   0  0  0  0  0  0  0  0  0  0  0  0
  -27.6954  -31.1232   24.5002 C   0  0  0  0  0  0  0  0  0  0  0  0
  -26.1463  -29.8879   26.0158 C   0  0  0  0  0  0  0  0  0  0  0  0
  -29.4356  -26.2676   21.1886 C   0  0  0  0  0  0  0  0  0  0  0  0
  -29.4154  -23.3061   14.8690 C   0  0  0  0  0  0  0  0  0  0  0  0
  -26.2433  -29.2652   23.5673 C   0  0  1  0  0  0  0  0  0  0  0  0
  -29.3335  -27.0698   23.5518 C   0  0  2  0  0  0  0  0  0  0  0  0
  -26.3137  -30.4400   24.5833 C   0  0  0  0  0  0  0  0  0  0  0  0
  -29.7712  -15.1258   21.2766 N   0  0  0  0  0  0  0  0  0  0  0  0
  -31.0599  -15.1015   20.8961 N   0  0  0  0  0  0  0  0  0  0  0  0
  -29.0105  -24.5449   15.5200 N   0  0  0  0  0  0  0  0  0  0  0  0
  -24.4841  -27.9986   22.3736 N   0  0  0  0  0  0  0  0  0  0  0  0
  -31.8639  -18.8345   20.8606 N   0  0  0  0  0  0  0  0  0  0  0  0
  -32.7468  -13.6827   20.0289 N   0  0  0  0  0  0  0  0  0  0  0  0
  -29.1577  -10.9600   20.3478 N   0  0  0  0  0  0  0  0  0  0  0  0
  -31.4047  -19.5231   18.6521 N   0  0  0  0  0  0  0  0  0  0  0  0
  -21.2850  -29.0562   22.5038 N   0  0  0  0  0  0  0  0  0  0  0  0
  -27.2444  -28.2265   23.7845 N   0  0  0  0  0  0  0  0  0  0  0  0
  -30.1923  -26.6505   22.4083 N   0  3  0  0  0  0  0  0  0  0  0  0
  -26.8467  -23.7937   15.9041 O   0  0  0  0  0  0  0  0  0  0  0  0
  -31.3695  -11.0630   19.7509 O   0  0  0  0  0  0  0  0  0  0  0  0
  -22.5298  -28.9823   20.5371 O   0  0  0  0  0  0  0  0  0  0  0  0
  -24.2556  -28.5295   24.6324 O   0  0  0  0  0  0  0  0  0  0  0  0
  -28.8520  -29.1242   22.3748 O   0  0  0  0  0  0  0  0  0  0  0  0
  -32.7848  -20.7838   20.0261 O   0  0  0  0  0  0  0  0  0  0  0  0
  -24.0991  -12.3812   22.1966 O   0  0  0  0  0  0  0  0  0  0  0  0
  -26.0093  -26.2331   16.6631 O   0  0  0  0  0  0  0  0  0  1  0  0
  -22.2797   -7.6156   20.1031 F   0  0  0  0  0  0  0  0  0  0  0  0
  -21.9310  -12.3209   20.4825 F   0  0  0  0  0  0  0  0  0  0  0  0
  1  2  1  0  0  0  0
  1  5  2  0  0  0  0
  2  6  2  0  0  0  0
  3 10  2  0  0  0  0
  3 18  1  0  0  0  0
  4 11  1  0  0  0  0
  4 18  2  0  0  0  0
  5 20  1  0  0  0  0
  6 22  1  0  0  0  0
  7 12  2  0  0  0  0
  7 21  1  0  0  0  0
  8  9  2  0  0  0  0
  8 24  1  0  0  0  0
  9 26  1  0  0  0  0
 10 27  1  0  0  0  0
 11 27  2  0  0  0  0
 12 28  1  0  0  0  0
 13 14  2  0  0  0  0
 13 29  1  0  0  0  0
 14 30  1  0  0  0  0
 15 23  1  0  0  0  0
 15 28  2  0  0  0  0
 16 25  1  0  0  0  0
 16 26  2  0  0  0  0
 17 30  2  0  0  0  0
 17 31  1  0  0  0  0
 18 32  1  0  0  0  0
 19 32  1  0  0  0  0
 19 33  2  0  0  0  0
 19 35  1  0  0  0  0
 20 22  2  0  0  0  0
 20 40  1  0  0  0  0
 21 23  2  0  0  0  0
 21 41  1  0  0  0  0
 22 52  1  0  0  0  0
 23 42  1  0  0  0  0
 24 25  2  0  0  0  0
 24 62  1  0  0  0  0
 25 56  1  0  0  0  0
 26 73  1  0  0  0  0
 27 83  1  0  0  0  0
 28 84  1  0  0  0  0
 29 31  2  0  0  0  0
 29 83  1  0  0  0  0
 30 85  1  0  0  0  0
 31 86  1  0  0  0  0
 32 66  2  0  0  0  0
 33 67  1  0  0  0  0
 33 71  1  0  0  0  0
 34 53  1  0  0  0  0
 34 68  1  0  0  0  0
 34 77  2  0  0  0  0
 35 72  1  0  0  0  0
 35 78  2  0  0  0  0
 36 54  1  0  0  0  0
 36 74  1  0  0  0  0
 36 79  2  0  0  0  0
 37 63  1  0  0  0  0
 37 69  1  0  0  0  0
 37 80  2  0  0  0  0
 38 64  1  0  0  0  0
 38 75  1  0  0  0  0
 38 81  2  0  0  0  0
 39 70  1  0  0  0  0
 39 73  1  0  0  0  0
 39 82  2  0  0  0  0
 40 43  1  0  0  0  0
 41 54  1  0  0  0  0
 42 69  1  0  0  0  0
 43 46  1  0  0  0  0
 44 47  1  0  0  0  0
 44 49  1  0  0  0  0
 45 48  1  0  0  0  0
 45 50  1  0  0  0  0
 46 52  1  0  0  0  0
 47 53  1  0  0  0  0
 48 55  1  0  0  0  0
 49 68  1  0  0  0  0
 50 70  1  0  0  0  0
 51 55  1  0  0  0  0
 51 70  1  0  0  0  0
 52 74  1  0  0  0  0
 53 84  1  0  0  0  0
 54 69  1  0  0  0  0
 55 67  1  0  0  0  0
 57 64  1  0  0  0  0
 58 65  1  0  0  0  0
 59 65  1  0  0  0  0
 60 65  1  0  0  0  0
 61 76  1  0  0  0  0
 62 68  1  0  0  0  0
 63 65  1  0  0  0  0
 63 75  1  0  0  0  0
 64 76  1  0  0  0  0
 66 67  1  0  0  0  0
M  CHG  1  76   1
M  ISO  4  39 100  53 101  73 100  84 101
M  END
> <Batch ID>
0048

> <Smiles>
CNC(C)C(=O)NC(C(=O)N1Cc2cc([101O:1][101CH:1]3CCCN(Cc4ccc([100NH:0][100C:0](=O)N5CCCC(n6nc(-c7ccc(Oc8ccc(F)cc8F)cc7)c(C(N)=O)c6N)C5)cc4C)C3=O)ccc2CC1C(=O)NC1CCCc2ccccc21)C(C)(C)C

> <Shape>
0.250

> <Color>
0.058

> <Negative vol penalty>
0.000

$$$$

  -OEChem-04042322293D

 88 97  0     1  0  0  0  0  0999 V2000
  -28.7645  -32.9136   25.5148 C   0  0  0  0  0  0  0  0  0  0  0  0
  -28.6649  -31.5803   25.1302 C   0  0  0  0  0  0  0  0  0  0  0  0
  -23.3609   -9.9701   22.2241 C   0  0  0  0  0  0  0  0  0  0  0  0
  -23.4102   -9.5202   19.8508 C   0  0  0  0  0  0  0  0  0  0  0  0
  -27.6170  -33.7009   25.6000 C   0  0  0  0  0  0  0  0  0  0  0  0
  -27.4175  -31.0333   24.8315 C   0  0  0  0  0  0  0  0  0  0  0  0
  -27.4855  -28.2273   20.6165 C   0  0  0  0  0  0  0  0  0  0  0  0
  -22.5722   -8.8369   22.4225 C   0  0  0  0  0  0  0  0  0  0  0  0
  -22.6215   -8.3870   20.0493 C   0  0  0  0  0  0  0  0  0  0  0  0
  -28.0172  -26.9423   20.7156 C   0  0  0  0  0  0  0  0  0  0  0  0
  -23.0215   -5.4909   22.6101 C   0  0  0  0  0  0  0  0  0  0  0  0
  -23.3585   -4.6433   23.6653 C   0  0  0  0  0  0  0  0  0  0  0  0
  -25.7856  -26.0350   20.8409 C   0  0  0  0  0  0  0  0  0  0  0  0
  -29.2609  -19.1551   16.9695 C   0  0  0  0  0  0  0  0  0  0  0  0
  -21.1853   -5.0109   24.6547 C   0  0  0  0  0  0  0  0  0  0  0  0
  -30.6627  -18.4115   19.2640 C   0  0  0  0  0  0  0  0  0  0  0  0
  -23.7799  -10.3118   20.9382 C   0  0  0  0  0  0  0  0  0  0  0  0
  -25.8646  -11.7415   21.2808 C   0  0  0  0  0  0  0  0  0  0  0  0
  -26.3561  -33.1659   25.2929 C   0  0  0  0  0  0  0  0  0  0  0  0
  -26.0977  -28.4271   20.6399 C   0  0  0  0  0  0  0  0  0  0  0  0
  -26.2519  -31.8139   24.9140 C   0  0  0  0  0  0  0  0  0  0  0  0
  -25.2387  -27.3233   20.7394 C   0  0  0  0  0  0  0  0  0  0  0  0
  -29.7164  -20.1314   17.8556 C   0  0  0  0  0  0  0  0  0  0  0  0
  -29.5063  -17.8070   17.2308 C   0  0  0  0  0  0  0  0  0  0  0  0
  -22.2025   -8.0454   21.3352 C   0  0  0  0  0  0  0  0  0  0  0  0
  -27.1673  -25.8462   20.8307 C   0  0  0  0  0  0  0  0  0  0  0  0
  -21.7664   -6.0987   22.5772 C   0  0  0  0  0  0  0  0  0  0  0  0
  -22.4404   -4.4032   24.6876 C   0  0  0  0  0  0  0  0  0  0  0  0
  -20.8483   -5.8587   23.5995 C   0  0  0  0  0  0  0  0  0  0  0  0
  -30.4173  -19.7596   19.0028 C   0  0  0  0  0  0  0  0  0  0  0  0
  -30.2072  -17.4353   18.3780 C   0  0  0  0  0  0  0  0  0  0  0  0
  -24.5941  -11.4826   20.7325 C   0  0  0  0  0  0  0  0  0  0  0  0
  -26.2082  -12.9750   20.7838 C   0  0  0  0  0  0  0  0  0  0  0  0
  -28.5761  -23.2272   19.1791 C   0  0  0  0  0  0  0  0  0  0  0  0
  -26.6629  -10.9388   22.1606 C   0  0  0  0  0  0  0  0  0  0  0  0
  -24.0851  -29.9664   22.5593 C   0  0  0  0  0  0  0  0  0  0  0  0
  -21.9151  -29.1610   20.2867 C   0  0  0  0  0  0  0  0  0  0  0  0
  -21.1690  -26.2665   18.2662 C   0  0  0  0  0  0  0  0  0  0  0  0
  -26.5446  -16.5942   16.5490 C   0  0  0  0  0  0  0  0  0  0  0  0
  -25.1387  -34.0431   25.4451 C   0  0  0  0  0  0  0  0  0  0  0  0
  -25.5393  -29.8172   20.5052 C   0  0  0  0  0  0  0  0  0  0  0  0
  -23.7410  -27.4824   20.7489 C   0  0  0  0  0  0  0  0  0  0  0  0
  -23.8979  -33.4891   24.7496 C   0  0  0  0  0  0  0  0  0  0  0  0
  -26.2980  -21.3796   19.5218 C   0  0  0  0  0  0  0  0  0  0  0  0
  -23.4482  -16.4076   18.2966 C   0  0  0  0  0  0  0  0  0  0  0  0
  -23.7251  -32.0071   25.0669 C   0  0  0  0  0  0  0  0  0  0  0  0
  -26.6481  -22.4516   20.5522 C   0  0  0  0  0  0  0  0  0  0  0  0
  -23.5728  -15.1283   19.1260 C   0  0  0  0  0  0  0  0  0  0  0  0
  -27.0253  -21.5638   18.1929 C   0  0  0  0  0  0  0  0  0  0  0  0
  -24.1198  -16.2635   16.9326 C   0  0  0  0  0  0  0  0  0  0  0  0
  -25.6506  -14.5418   17.8078 C   0  0  0  0  0  0  0  0  0  0  0  0
  -24.9195  -31.1910   24.5580 C   0  0  1  0  0  0  0  0  0  0  0  0
  -27.3200  -23.6641   19.9207 C   0  0  1  0  0  0  0  0  0  1  0  0
  -24.1232  -29.9484   21.0573 C   0  0  1  0  0  0  0  0  0  0  0  0
  -25.0370  -14.6573   19.2136 C   0  0  2  0  0  0  0  0  0  0  0  0
  -20.0720  -26.0860   16.0165 C   0  0  0  0  0  0  0  0  0  0  0  0
  -19.3551  -28.7338   21.8911 C   0  0  0  0  0  0  0  0  0  0  0  0
  -18.6501  -27.0434   20.1841 C   0  0  0  0  0  0  0  0  0  0  0  0
  -18.9939  -29.4215   19.5139 C   0  0  0  0  0  0  0  0  0  0  0  0
  -23.4598  -24.7685   17.1405 C   0  0  0  0  0  0  0  0  0  0  0  0
  -29.4315  -21.5707   17.5373 C   0  0  0  0  0  0  0  0  0  0  0  0
  -29.0010  -16.7928   16.2561 C   0  0  0  0  0  0  0  0  0  0  0  0
  -21.0021  -27.9822   20.0503 C   0  0  1  0  0  0  0  0  0  0  0  0
  -21.3915  -26.1195   16.7718 C   0  0  2  0  0  0  0  0  0  0  0  0
  -19.5250  -28.2924   20.4237 C   0  0  0  0  0  0  0  0  0  0  0  0
  -24.1599  -12.4721   19.9475 N   0  0  0  0  0  0  0  0  0  0  0  0
  -25.1632  -13.3649   19.9989 N   0  0  0  0  0  0  0  0  0  0  0  0
  -28.3663  -22.1103   18.3657 N   0  0  0  0  0  0  0  0  0  0  0  0
  -23.2435  -28.8621   20.6209 N   0  0  0  0  0  0  0  0  0  0  0  0
  -25.5061  -15.8158   17.0862 N   0  0  0  0  0  0  0  0  0  0  0  0
  -27.2992  -13.7533   20.9460 N   0  0  0  0  0  0  0  0  0  0  0  0
  -26.1593   -9.6980   22.5743 N   0  0  0  0  0  0  0  0  0  0  0  0
  -24.8208  -30.9883   23.1285 N   0  0  0  0  0  0  0  0  0  0  0  0
  -21.1966  -27.5879   18.6592 N   0  0  0  0  0  0  0  0  0  0  0  0
  -27.8289  -16.1012   16.7446 N   0  0  0  0  0  0  0  0  0  0  0  0
  -22.1323  -24.8597   16.4799 N   0  3  0  0  0  0  0  0  0  0  0  0
  -29.6444  -23.8247   19.2970 O   0  0  0  0  0  0  0  0  0  0  0  0
  -27.7823  -11.3180   22.5808 O   0  0  0  0  0  0  0  0  0  0  0  0
  -23.4352  -29.1170   23.1574 O   0  0  0  0  0  0  0  0  0  0  0  0
  -21.4679  -30.3049   20.1719 O   0  0  0  0  0  0  0  0  0  0  0  0
  -20.9850  -25.3055   19.0100 O   0  0  0  0  0  0  0  0  0  0  0  0
  -26.3427  -17.6531   15.9449 O   0  0  0  0  0  0  0  0  0  0  0  0
  -21.4331   -6.9394   21.5285 O   0  0  0  0  0  0  0  0  0  0  0  0
  -27.6837  -24.5909   20.9282 O   0  0  0  0  0  0  0  0  0  1  0  0
  -22.7636   -3.5880   25.7000 F   0  0  0  0  0  0  0  0  0  0  0  0
  -19.6406   -6.4387   23.5727 F   0  0  0  0  0  0  0  0  0  0  0  0
  -30.9963  -20.9408   20.1203 Cl  0  0  0  0  0  0  0  0  0  0  0  0
  -30.5293  -15.7770   18.7321 Cl  0  0  0  0  0  0  0  0  0  0  0  0
  1  2  1  0  0  0  0
  1  5  2  0  0  0  0
  2  6  2  0  0  0  0
  3  8  2  0  0  0  0
  3 17  1  0  0  0  0
  4  9  1  0  0  0  0
  4 17  2  0  0  0  0
  5 19  1  0  0  0  0
  6 21  1  0  0  0  0
  7 10  2  0  0  0  0
  7 20  1  0  0  0  0
  8 25  1  0  0  0  0
  9 25  2  0  0  0  0
 10 26  1  0  0  0  0
 11 12  2  0  0  0  0
 11 27  1  0  0  0  0
 12 28  1  0  0  0  0
 13 22  1  0  0  0  0
 13 26  2  0  0  0  0
 14 23  1  0  0  0  0
 14 24  2  0  0  0  0
 15 28  2  0  0  0  0
 15 29  1  0  0  0  0
 16 30  1  0  0  0  0
 16 31  2  0  0  0  0
 17 32  1  0  0  0  0
 18 32  1  0  0  0  0
 18 33  2  0  0  0  0
 18 35  1  0  0  0  0
 19 21  2  0  0  0  0
 19 40  1  0  0  0  0
 20 22  2  0  0  0  0
 20 41  1  0  0  0  0
 21 52  1  0  0  0  0
 22 42  1  0  0  0  0
 23 30  2  0  0  0  0
 23 61  1  0  0  0  0
 24 31  1  0  0  0  0
 24 62  1  0  0  0  0
 25 83  1  0  0  0  0
 26 84  1  0  0  0  0
 27 29  2  0  0  0  0
 27 83  1  0  0  0  0
 28 85  1  0  0  0  0
 29 86  1  0  0  0  0
 30 87  1  0  0  0  0
 31 88  1  0  0  0  0
 32 66  2  0  0  0  0
 33 67  1  0  0  0  0
 33 71  1  0  0  0  0
 34 53  1  0  0  0  0
 34 68  1  0  0  0  0
 34 77  2  0  0  0  0
 35 72  1  0  0  0  0
 35 78  2  0  0  0  0
 36 54  1  0  0  0  0
 36 73  1  0  0  0  0
 36 79  2  0  0  0  0
 37 63  1  0  0  0  0
 37 69  1  0  0  0  0
 37 80  2  0  0  0  0
 38 64  1  0  0  0  0
 38 74  1  0  0  0  0
 38 81  2  0  0  0  0
 39 70  1  0  0  0  0
 39 75  1  0  0  0  0
 39 82  2  0  0  0  0
 40 43  1  0  0  0  0
 41 54  1  0  0  0  0
 42 69  1  0  0  0  0
 43 46  1  0  0  0  0
 44 47  1  0  0  0  0
 44 49  1  0  0  0  0
 45 48  1  0  0  0  0
 45 50  1  0  0  0  0
 46 52  1  0  0  0  0
 47 53  1  0  0  0  0
 48 55  1  0  0  0  0
 49 68  1  0  0  0  0
 50 70  1  0  0  0  0
 51 55  1  0  0  0  0
 51 70  1  0  0  0  0
 52 73  1  0  0  0  0
 53 84  1  0  0  0  0
 54 69  1  0  0  0  0
 55 67  1  0  0  0  0
 56 64  1  0  0  0  0
 57 65  1  0  0  0  0
 58 65  1  0  0  0  0
 59 65  1  0  0  0  0
 60 76  1  0  0  0  0
 61 68  1  0  0  0  0
 62 75  1  0  0  0  0
 63 65  1  0  0  0  0
 63 74  1  0  0  0  0
 64 76  1  0  0  0  0
 66 67  1  0  0  0  0
M  CHG  1  76   1
M  ISO  4  39 100  53 101  75 100  84 101
M  END
> <Batch ID>
0048

> <Smiles>
CNC(C)C(=O)NC(C(=O)N1Cc2cc([101O:1][101CH:1]3CCCN(Cc4cc(C[100NH:0][100C:0](=O)N5CCCC(n6nc(-c7ccc(Oc8ccc(F)cc8F)cc7)c(C(N)=O)c6N)C5)c(Cl)cc4Cl)C3=O)ccc2CC1C(=O)NC1CCCc2ccccc21)C(C)(C)C

> <Shape>
0.273

> <Color>
0.102

> <Negative vol penalty>
0.000

$$$$

  -OEChem-04042322293D

 88 97  0     1  0  0  0  0  0999 V2000
  -29.5134  -35.1986   23.6578 C   0  0  0  0  0  0  0  0  0  0  0  0
  -29.4801  -33.8299   23.4108 C   0  0  0  0  0  0  0  0  0  0  0  0
  -22.5785  -11.8944   22.5903 C   0  0  0  0  0  0  0  0  0  0  0  0
  -22.2227  -13.9441   21.3618 C   0  0  0  0  0  0  0  0  0  0  0  0
  -28.3635  -35.8553   24.0940 C   0  0  0  0  0  0  0  0  0  0  0  0
  -28.2969  -33.1169   23.6010 C   0  0  0  0  0  0  0  0  0  0  0  0
  -27.3272  -29.9133   19.8008 C   0  0  0  0  0  0  0  0  0  0  0  0
  -26.7930  -18.7410   17.0028 C   0  0  0  0  0  0  0  0  0  0  0  0
  -21.3003  -12.0011   23.1384 C   0  0  0  0  0  0  0  0  0  0  0  0
  -20.9445  -14.0508   21.9099 C   0  0  0  0  0  0  0  0  0  0  0  0
  -28.0382  -28.7142   19.7816 C   0  0  0  0  0  0  0  0  0  0  0  0
  -17.8945  -12.6886   21.3971 C   0  0  0  0  0  0  0  0  0  0  0  0
  -16.8478  -13.0208   20.5371 C   0  0  0  0  0  0  0  0  0  0  0  0
  -26.5494  -19.9103   16.2824 C   0  0  0  0  0  0  0  0  0  0  0  0
  -26.1356  -27.5777   20.7343 C   0  0  0  0  0  0  0  0  0  0  0  0
  -28.4736  -19.8917   18.3023 C   0  0  0  0  0  0  0  0  0  0  0  0
  -16.4041  -15.0043   21.8433 C   0  0  0  0  0  0  0  0  0  0  0  0
  -23.0397  -12.8660   21.7019 C   0  0  0  0  0  0  0  0  0  0  0  0
  -24.8607  -11.7070   20.3424 C   0  0  0  0  0  0  0  0  0  0  0  0
  -27.1631  -35.1517   24.2803 C   0  0  0  0  0  0  0  0  0  0  0  0
  -26.0166  -29.9557   20.2977 C   0  0  0  0  0  0  0  0  0  0  0  0
  -27.1302  -33.7645   24.0414 C   0  0  0  0  0  0  0  0  0  0  0  0
  -25.4091  -28.7781   20.7562 C   0  0  0  0  0  0  0  0  0  0  0  0
  -28.2300  -21.0610   17.5818 C   0  0  0  0  0  0  0  0  0  0  0  0
  -27.7551  -18.7317   18.0128 C   0  0  0  0  0  0  0  0  0  0  0  0
  -20.4833  -13.0792   22.7983 C   0  0  0  0  0  0  0  0  0  0  0  0
  -27.4435  -27.5467   20.2511 C   0  0  0  0  0  0  0  0  0  0  0  0
  -18.1960  -13.5142   22.4803 C   0  0  0  0  0  0  0  0  0  0  0  0
  -16.1026  -14.1786   20.7601 C   0  0  0  0  0  0  0  0  0  0  0  0
  -17.4507  -14.6720   22.7033 C   0  0  0  0  0  0  0  0  0  0  0  0
  -27.2679  -21.0703   16.5718 C   0  0  0  0  0  0  0  0  0  0  0  0
  -24.3602  -12.7566   21.1358 C   0  0  0  0  0  0  0  0  0  0  0  0
  -26.1535  -12.0757   20.0610 C   0  0  0  0  0  0  0  0  0  0  0  0
  -29.6258  -23.7688   19.7451 C   0  0  0  0  0  0  0  0  0  0  0  0
  -30.7377  -21.5455   22.4478 C   0  0  0  0  0  0  0  0  0  0  0  0
  -30.3051  -23.3023   20.8037 C   0  0  0  0  0  0  0  0  0  0  0  0
  -30.0600  -22.0101   21.3922 C   0  0  0  0  0  0  0  0  0  0  0  0
  -24.2148  -10.5061   19.8994 C   0  0  0  0  0  0  0  0  0  0  0  0
  -24.5788  -31.4482   22.7079 C   0  0  0  0  0  0  0  0  0  0  0  0
  -21.9038  -30.1698   21.3917 C   0  0  0  0  0  0  0  0  0  0  0  0
  -20.9358  -27.0149   19.9334 C   0  0  0  0  0  0  0  0  0  0  0  0
  -28.9207  -17.3641   19.7784 C   0  0  0  0  0  0  0  0  0  0  0  0
  -25.9582  -35.8962   24.7985 C   0  0  0  0  0  0  0  0  0  0  0  0
  -25.2536  -31.2519   20.2867 C   0  0  0  0  0  0  0  0  0  0  0  0
  -23.9974  -28.7663   21.2810 C   0  0  0  0  0  0  0  0  0  0  0  0
  -29.8864  -25.1213   19.1337 C   0  0  0  0  0  0  0  0  0  0  0  0
  -24.6473  -35.1356   24.6158 C   0  0  0  0  0  0  0  0  0  0  0  0
  -29.8000  -14.6090   21.8552 C   0  0  0  0  0  0  0  0  0  0  0  0
  -24.8057  -33.6847   25.0592 C   0  0  0  0  0  0  0  0  0  0  0  0
  -28.5526  -13.7228   21.8293 C   0  0  0  0  0  0  0  0  0  0  0  0
  -27.4854  -25.0428   18.3407 C   0  0  0  0  0  0  0  0  0  0  0  0
  -29.4411  -16.0939   21.8498 C   0  0  0  0  0  0  0  0  0  0  0  0
  -27.2907  -15.6242   20.7434 C   0  0  0  0  0  0  0  0  0  0  0  0
  -27.2912  -23.7247   19.0889 C   0  0  0  0  0  0  0  0  0  0  0  0
  -25.8593  -32.9609   24.2122 C   0  0  1  0  0  0  0  0  0  0  0  0
  -24.1062  -31.2784   21.2918 C   0  0  1  0  0  0  0  0  0  0  0  0
  -27.6029  -14.1200   20.6822 C   0  0  2  0  0  0  0  0  0  0  0  0
  -28.5840  -25.9039   18.9639 C   0  0  1  0  0  0  0  0  0  1  0  0
  -19.1771  -26.4780   18.2258 C   0  0  0  0  0  0  0  0  0  0  0  0
  -20.1303  -29.6244   23.8140 C   0  0  0  0  0  0  0  0  0  0  0  0
  -19.1356  -27.6965   22.5641 C   0  0  0  0  0  0  0  0  0  0  0  0
  -18.8885  -30.0155   21.6787 C   0  0  0  0  0  0  0  0  0  0  0  0
  -22.8961  -25.6774   18.1650 C   0  0  0  0  0  0  0  0  0  0  0  0
  -29.0237  -22.2875   17.9235 C   0  0  0  0  0  0  0  0  0  0  0  0
  -21.1427  -28.8769   21.5595 C   0  0  1  0  0  0  0  0  0  0  0  0
  -20.6557  -26.7393   18.4671 C   0  0  2  0  0  0  0  0  0  0  0  0
  -19.8523  -29.0548   22.4085 C   0  0  0  0  0  0  0  0  0  0  0  0
  -25.2615  -13.7198   21.3451 N   0  0  0  0  0  0  0  0  0  0  0  0
  -26.3415  -13.2768   20.6791 N   0  0  0  0  0  0  0  0  0  0  0  0
  -23.2949  -30.0599   21.2556 N   0  0  0  0  0  0  0  0  0  0  0  0
  -28.5426  -16.3970   20.7337 N   0  0  0  0  0  0  0  0  0  0  0  0
  -27.1365  -11.4863   19.3477 N   0  0  0  0  0  0  0  0  0  0  0  0
  -22.8841  -10.2840   20.2792 N   0  0  0  0  0  0  0  0  0  0  0  0
  -28.0016  -17.5441   18.7452 N   0  0  0  0  0  0  0  0  0  0  0  0
  -25.3105  -32.6006   22.9225 N   0  0  0  0  0  0  0  0  0  0  0  0
  -20.9068  -28.3645   20.2141 N   0  0  0  0  0  0  0  0  0  0  0  0
  -28.5775  -22.9406   19.2025 N   0  3  1  0  0  0  0  0  0  0  0  0
  -21.4246  -25.5482   18.0077 N   0  3  0  0  0  0  0  0  0  0  0  0
  -24.8055   -9.6473   19.2014 O   0  0  0  0  0  0  0  0  0  0  0  0
  -24.2990  -30.5975   23.5444 O   0  0  0  0  0  0  0  0  0  0  0  0
  -21.2860  -31.2374   21.3747 O   0  0  0  0  0  0  0  0  0  0  0  0
  -21.1546  -26.1219   20.7490 O   0  0  0  0  0  0  0  0  0  0  0  0
  -29.9941  -17.9673   19.8554 O   0  0  0  0  0  0  0  0  0  0  0  0
  -19.2359  -13.1835   23.3328 O   0  0  0  0  0  0  0  0  0  0  0  0
  -28.1356  -26.3751   20.2342 O   0  0  0  0  0  0  0  0  0  1  0  0
  -15.0985  -14.4983   19.9332 F   0  0  0  0  0  0  0  0  0  0  0  0
  -17.7364  -15.4697   23.7416 F   0  0  0  0  0  0  0  0  0  0  0  0
  -26.9383  -22.4980   15.6596 Cl  0  0  0  0  0  0  0  0  0  0  0  0
  1  2  1  0  0  0  0
  1  5  2  0  0  0  0
  2  6  2  0  0  0  0
  3  9  2  0  0  0  0
  3 18  1  0  0  0  0
  4 10  1  0  0  0  0
  4 18  2  0  0  0  0
  5 20  1  0  0  0  0
  6 22  1  0  0  0  0
  7 11  2  0  0  0  0
  7 21  1  0  0  0  0
  8 14  2  0  0  0  0
  8 25  1  0  0  0  0
  9 26  1  0  0  0  0
 10 26  2  0  0  0  0
 11 27  1  0  0  0  0
 12 13  2  0  0  0  0
 12 28  1  0  0  0  0
 13 29  1  0  0  0  0
 14 31  1  0  0  0  0
 15 23  1  0  0  0  0
 15 27  2  0  0  0  0
 16 24  1  0  0  0  0
 16 25  2  0  0  0  0
 17 29  2  0  0  0  0
 17 30  1  0  0  0  0
 18 32  1  0  0  0  0
 19 32  1  0  0  0  0
 19 33  2  0  0  0  0
 19 38  1  0  0  0  0
 20 22  2  0  0  0  0
 20 43  1  0  0  0  0
 21 23  2  0  0  0  0
 21 44  1  0  0  0  0
 22 55  1  0  0  0  0
 23 45  1  0  0  0  0
 24 31  2  0  0  0  0
 24 64  1  0  0  0  0
 25 74  1  0  0  0  0
 26 84  1  0  0  0  0
 27 85  1  0  0  0  0
 28 30  2  0  0  0  0
 28 84  1  0  0  0  0
 29 86  1  0  0  0  0
 30 87  1  0  0  0  0
 31 88  1  0  0  0  0
 32 68  2  0  0  0  0
 33 69  1  0  0  0  0
 33 72  1  0  0  0  0
 34 36  2  0  0  0  0
 34 46  1  0  0  0  0
 34 77  1  0  0  0  0
 35 37  2  0  0  0  0
 36 37  1  0  0  0  0
 38 73  1  0  0  0  0
 38 79  2  0  0  0  0
 39 56  1  0  0  0  0
 39 75  1  0  0  0  0
 39 80  2  0  0  0  0
 40 65  1  0  0  0  0
 40 70  1  0  0  0  0
 40 81  2  0  0  0  0
 41 66  1  0  0  0  0
 41 76  1  0  0  0  0
 41 82  2  0  0  0  0
 42 71  1  0  0  0  0
 42 74  1  0  0  0  0
 42 83  2  0  0  0  0
 43 47  1  0  0  0  0
 44 56  1  0  0  0  0
 45 70  1  0  0  0  0
 46 58  1  0  0  0  0
 47 49  1  0  0  0  0
 48 50  1  0  0  0  0
 48 52  1  0  0  0  0
 49 55  1  0  0  0  0
 50 57  1  0  0  0  0
 51 54  1  0  0  0  0
 51 58  1  0  0  0  0
 52 71  1  0  0  0  0
 53 57  1  0  0  0  0
 53 71  1  0  0  0  0
 54 77  1  0  0  0  0
 55 75  1  0  0  0  0
 56 70  1  0  0  0  0
 57 69  1  0  0  0  0
 58 85  1  0  0  0  0
 59 66  1  0  0  0  0
 60 67  1  0  0  0  0
 61 67  1  0  0  0  0
 62 67  1  0  0  0  0
 63 78  1  0  0  0  0
 64 77  1  0  0  0  0
 65 67  1  0  0  0  0
 65 76  1  0  0  0  0
 66 78  1  0  0  0  0
 68 69  1  0  0  0  0
M  CHG  2  77   1  78   1
M  ISO  4  42 100  58 101  74 100  85 101
M  END
> <Batch ID>
0048

> <Smiles>
C=CC=C1C[101CH:1]([101O:1]c2ccc3c(c2)CN(C(=O)C(NC(=O)C(C)NC)C(C)(C)C)C(C(=O)NC2CCCc4ccccc42)C3)CCN1Cc1cc([100NH:0][100C:0](=O)N2CCCC(n3nc(-c4ccc(Oc5ccc(F)cc5F)cc4)c(C(N)=O)c3N)C2)ccc1Cl

> <Shape>
0.305

> <Color>
0.078

> <Negative vol penalty>
0.000

$$$$

  -OEChem-04042322293D

 85 93  0     1  0  0  0  0  0999 V2000
  -22.6292  -23.6881   18.8899 C   0  0  0  0  0  0  0  0  0  0  0  0
  -23.7900  -23.0285   19.2811 C   0  0  0  0  0  0  0  0  0  0  0  0
  -22.4302  -28.6397   20.6885 C   0  0  0  0  0  0  0  0  0  0  0  0
  -23.0511  -26.5656   21.7607 C   0  0  0  0  0  0  0  0  0  0  0  0
  -21.3828  -23.1667   19.2342 C   0  0  0  0  0  0  0  0  0  0  0  0
  -23.7050  -21.8477   20.0179 C   0  0  0  0  0  0  0  0  0  0  0  0
  -26.8566  -18.2665   18.3187 C   0  0  0  0  0  0  0  0  0  0  0  0
  -21.1210  -28.4830   21.1435 C   0  0  0  0  0  0  0  0  0  0  0  0
  -21.7419  -26.4089   22.2158 C   0  0  0  0  0  0  0  0  0  0  0  0
  -28.2005  -18.3814   18.6715 C   0  0  0  0  0  0  0  0  0  0  0  0
  -17.6996  -28.8118   22.3270 C   0  0  0  0  0  0  0  0  0  0  0  0
  -17.0670  -29.9259   22.8784 C   0  0  0  0  0  0  0  0  0  0  0  0
  -27.8760  -16.7471   20.4160 C   0  0  0  0  0  0  0  0  0  0  0  0
  -33.0768  -21.8652   18.6602 C   0  0  0  0  0  0  0  0  0  0  0  0
  -31.6326  -22.9841   17.0794 C   0  0  0  0  0  0  0  0  0  0  0  0
  -31.1326  -23.0679   19.4417 C   0  0  0  0  0  0  0  0  0  0  0  0
  -18.7799  -30.0576   24.5772 C   0  0  0  0  0  0  0  0  0  0  0  0
  -23.3953  -27.6809   20.9970 C   0  0  0  0  0  0  0  0  0  0  0  0
  -25.8043  -28.4985   21.1856 C   0  0  0  0  0  0  0  0  0  0  0  0
  -21.2824  -21.9738   19.9673 C   0  0  0  0  0  0  0  0  0  0  0  0
  -26.0083  -17.3976   19.0201 C   0  0  0  0  0  0  0  0  0  0  0  0
  -22.4561  -21.3106   20.3735 C   0  0  0  0  0  0  0  0  0  0  0  0
  -26.5223  -16.6211   20.0684 C   0  0  0  0  0  0  0  0  0  0  0  0
  -32.7621  -22.2102   17.3459 C   0  0  0  0  0  0  0  0  0  0  0  0
  -32.2621  -22.2940   19.7081 C   0  0  0  0  0  0  0  0  0  0  0  0
  -30.8179  -23.4130   18.1273 C   0  0  0  0  0  0  0  0  0  0  0  0
  -20.7769  -27.3677   21.9072 C   0  0  0  0  0  0  0  0  0  0  0  0
  -28.7097  -17.6238   19.7222 C   0  0  0  0  0  0  0  0  0  0  0  0
  -18.8723  -28.3204   22.9007 C   0  0  0  0  0  0  0  0  0  0  0  0
  -17.6072  -30.5488   24.0035 C   0  0  0  0  0  0  0  0  0  0  0  0
  -19.4124  -28.9434   24.0258 C   0  0  0  0  0  0  0  0  0  0  0  0
  -24.7477  -27.8418   20.5267 C   0  0  0  0  0  0  0  0  0  0  0  0
  -26.8719  -28.3749   20.3303 C   0  0  0  0  0  0  0  0  0  0  0  0
  -25.8195  -29.1609   22.4571 C   0  0  0  0  0  0  0  0  0  0  0  0
  -23.3880  -17.7586   20.7828 C   0  0  0  0  0  0  0  0  0  0  0  0
  -23.4101  -14.5148   20.7798 C   0  0  0  0  0  0  0  0  0  0  0  0
  -31.3523  -19.8292   21.6571 C   0  0  0  0  0  0  0  0  0  0  0  0
  -25.2052  -11.6301   20.4593 C   0  0  0  0  0  0  0  0  0  0  0  0
  -29.2162  -24.6296   16.6105 C   0  0  0  0  0  0  0  0  0  0  0  0
  -19.9136  -21.4741   20.3566 C   0  0  0  0  0  0  0  0  0  0  0  0
  -24.5673  -17.2653   18.6098 C   0  0  0  0  0  0  0  0  0  0  0  0
  -25.6581  -15.6586   20.8400 C   0  0  0  0  0  0  0  0  0  0  0  0
  -19.9048  -20.0187   20.8171 C   0  0  0  0  0  0  0  0  0  0  0  0
  -27.3744  -27.4643   15.4927 C   0  0  0  0  0  0  0  0  0  0  0  0
  -21.0394  -19.7642   21.8044 C   0  0  0  0  0  0  0  0  0  0  0  0
  -26.6119  -27.9162   16.7404 C   0  0  0  0  0  0  0  0  0  0  0  0
  -27.4794  -25.9424   15.4125 C   0  0  0  0  0  0  0  0  0  0  0  0
  -27.2638  -25.7456   17.8587 C   0  0  0  0  0  0  0  0  0  0  0  0
  -22.4046  -20.0141   21.1523 C   0  0  1  0  0  0  0  0  0  0  0  0
  -23.6751  -16.7302   19.7256 C   0  0  1  0  0  0  0  0  0  0  0  0
  -27.1884  -27.2730   18.0169 C   0  0  2  0  0  0  0  0  0  0  0  0
  -33.6332  -21.7516   16.2256 C   0  0  0  0  0  0  0  0  0  0  0  0
  -33.9686  -22.4515   21.5669 C   0  0  0  0  0  0  0  0  0  0  0  0
  -24.9552   -9.1346   20.5447 C   0  0  0  0  0  0  0  0  0  0  0  0
  -23.2682  -14.6357   23.8254 C   0  0  0  0  0  0  0  0  0  0  0  0
  -23.9717  -12.2336   23.8839 C   0  0  0  0  0  0  0  0  0  0  0  0
  -21.8278  -12.8770   22.7829 C   0  0  0  0  0  0  0  0  0  0  0  0
  -26.0854  -11.3295   17.6497 C   0  0  0  0  0  0  0  0  0  0  0  0
  -31.5770  -18.3324   21.8044 C   0  0  0  0  0  0  0  0  0  0  0  0
  -30.3517  -17.5090   21.4388 C   0  0  0  0  0  0  0  0  0  1  0  0
  -32.6039  -21.9196   21.1342 C   0  0  2  0  0  0  0  0  0  0  0  0
  -24.0189  -13.4491   21.6587 C   0  0  1  0  0  0  0  0  0  0  0  0
  -24.9488  -10.3682   19.6554 C   0  0  2  0  0  0  0  0  0  0  0  0
  -23.2878  -13.3183   23.0246 C   0  0  0  0  0  0  0  0  0  0  0  0
  -25.1109  -27.3386   19.3440 N   0  0  0  0  0  0  0  0  0  0  0  0
  -26.4078  -27.6792   19.2529 N   0  0  0  0  0  0  0  0  0  0  0  0
  -24.2544  -15.5696   20.4050 N   0  0  0  0  0  0  0  0  0  0  0  0
  -28.0374  -25.4038   16.6548 N   0  0  0  0  0  0  0  0  0  0  0  0
  -28.1529  -28.7947   20.4021 N   0  0  0  0  0  0  0  0  0  0  0  0
  -24.6359  -29.1950   23.2068 N   0  0  0  0  0  0  0  0  0  0  0  0
  -29.6706  -24.1993   17.8566 N   0  0  0  0  0  0  0  0  0  0  0  0
  -22.7717  -18.8995   20.3053 N   0  0  0  0  0  0  0  0  0  0  0  0
  -32.5285  -20.4902   21.3337 N   0  0  0  0  0  0  0  0  0  0  0  0
  -24.0293  -12.2238   20.8668 N   0  0  0  0  0  0  0  0  0  0  0  0
  -25.9964  -10.1987   18.6091 N   0  3  0  0  0  0  0  0  0  0  0  0
  -26.8479  -29.7205   22.9074 O   0  0  0  0  0  0  0  0  0  0  0  0
  -23.7010  -17.5330   21.9459 O   0  0  0  0  0  0  0  0  0  0  0  0
  -22.2309  -14.4115   20.4326 O   0  0  0  0  0  0  0  0  0  0  0  0
  -30.2576  -20.3642   21.8099 O   0  0  0  0  0  0  0  0  0  0  0  0
  -26.3356  -12.0454   20.7046 O   0  0  0  0  0  0  0  0  0  0  0  0
  -29.7960  -24.3906   15.5481 O   0  0  0  0  0  0  0  0  0  0  0  0
  -19.4995  -27.2147   22.3516 O   0  0  0  0  0  0  0  0  0  0  0  0
  -30.0209  -17.7345   20.0691 O   0  0  0  0  0  0  0  0  0  1  0  0
  -17.0004  -31.6197   24.5320 F   0  0  0  0  0  0  0  0  0  0  0  0
  -20.5394  -28.4766   24.5806 F   0  0  0  0  0  0  0  0  0  0  0  0
  1  2  1  0  0  0  0
  1  5  2  0  0  0  0
  2  6  2  0  0  0  0
  3  8  2  0  0  0  0
  3 18  1  0  0  0  0
  4  9  1  0  0  0  0
  4 18  2  0  0  0  0
  5 20  1  0  0  0  0
  6 22  1  0  0  0  0
  7 10  2  0  0  0  0
  7 21  1  0  0  0  0
  8 27  1  0  0  0  0
  9 27  2  0  0  0  0
 10 28  1  0  0  0  0
 11 12  2  0  0  0  0
 11 29  1  0  0  0  0
 12 30  1  0  0  0  0
 13 23  1  0  0  0  0
 13 28  2  0  0  0  0
 14 24  2  0  0  0  0
 14 25  1  0  0  0  0
 15 24  1  0  0  0  0
 15 26  2  0  0  0  0
 16 25  2  0  0  0  0
 16 26  1  0  0  0  0
 17 30  2  0  0  0  0
 17 31  1  0  0  0  0
 18 32  1  0  0  0  0
 19 32  1  0  0  0  0
 19 33  2  0  0  0  0
 19 34  1  0  0  0  0
 20 22  2  0  0  0  0
 20 40  1  0  0  0  0
 21 23  2  0  0  0  0
 21 41  1  0  0  0  0
 22 49  1  0  0  0  0
 23 42  1  0  0  0  0
 24 52  1  0  0  0  0
 25 61  1  0  0  0  0
 26 71  1  0  0  0  0
 27 82  1  0  0  0  0
 28 83  1  0  0  0  0
 29 31  2  0  0  0  0
 29 82  1  0  0  0  0
 30 84  1  0  0  0  0
 31 85  1  0  0  0  0
 32 65  2  0  0  0  0
 33 66  1  0  0  0  0
 33 69  1  0  0  0  0
 34 70  1  0  0  0  0
 34 76  2  0  0  0  0
 35 50  1  0  0  0  0
 35 72  1  0  0  0  0
 35 77  2  0  0  0  0
 36 62  1  0  0  0  0
 36 67  1  0  0  0  0
 36 78  2  0  0  0  0
 37 59  1  0  0  0  0
 37 73  1  0  0  0  0
 37 79  2  0  0  0  0
 38 63  1  0  0  0  0
 38 74  1  0  0  0  0
 38 80  2  0  0  0  0
 39 68  1  0  0  0  0
 39 71  1  0  0  0  0
 39 81  2  0  0  0  0
 40 43  1  0  0  0  0
 41 50  1  0  0  0  0
 42 67  1  0  0  0  0
 43 45  1  0  0  0  0
 44 46  1  0  0  0  0
 44 47  1  0  0  0  0
 45 49  1  0  0  0  0
 46 51  1  0  0  0  0
 47 68  1  0  0  0  0
 48 51  1  0  0  0  0
 48 68  1  0  0  0  0
 49 72  1  0  0  0  0
 50 67  1  0  0  0  0
 51 66  1  0  0  0  0
 53 61  1  0  0  0  0
 54 63  1  0  0  0  0
 55 64  1  0  0  0  0
 56 64  1  0  0  0  0
 57 64  1  0  0  0  0
 58 75  1  0  0  0  0
 59 60  1  0  0  0  0
 60 83  1  0  0  0  0
 61 73  1  0  0  0  0
 62 64  1  0  0  0  0
 62 74  1  0  0  0  0
 63 75  1  0  0  0  0
 65 66  1  0  0  0  0
M  CHG  1  75   1
M  ISO  4  39 100  60 101  71 100  83 101
M  END
> <Batch ID>
0048

> <Smiles>
CNC(C)C(=O)NC(C(=O)N1Cc2cc([101O:1][101CH2:1]CC(=O)NC(C)c3cc(C)cc([100NH:0][100C:0](=O)N4CCCC(n5nc(-c6ccc(Oc7ccc(F)cc7F)cc6)c(C(N)=O)c5N)C4)c3)ccc2CC1C(=O)NC1CCCc2ccccc21)C(C)(C)C

> <Shape>
0.220

> <Color>
0.082

> <Negative vol penalty>
0.000

$$$$

  -OEChem-04042322293D

 84 92  0     1  0  0  0  0  0999 V2000
  -27.9734  -34.1550   24.6716 C   0  0  0  0  0  0  0  0  0  0  0  0
  -28.1332  -32.8357   24.2601 C   0  0  0  0  0  0  0  0  0  0  0  0
  -23.1912  -11.1242   22.1252 C   0  0  0  0  0  0  0  0  0  0  0  0
  -22.6796  -13.2591   21.1166 C   0  0  0  0  0  0  0  0  0  0  0  0
  -26.7110  -34.6228   25.0343 C   0  0  0  0  0  0  0  0  0  0  0  0
  -27.0308  -31.9831   24.2122 C   0  0  0  0  0  0  0  0  0  0  0  0
  -26.8864  -29.2313   19.9634 C   0  0  0  0  0  0  0  0  0  0  0  0
  -22.1415  -11.2987   23.0270 C   0  0  0  0  0  0  0  0  0  0  0  0
  -21.6298  -13.4336   22.0184 C   0  0  0  0  0  0  0  0  0  0  0  0
  -27.7345  -28.1271   19.8909 C   0  0  0  0  0  0  0  0  0  0  0  0
  -18.4531  -12.3398   22.3822 C   0  0  0  0  0  0  0  0  0  0  0  0
  -17.2362  -12.7978   21.8772 C   0  0  0  0  0  0  0  0  0  0  0  0
  -25.8880  -26.6797   20.4519 C   0  0  0  0  0  0  0  0  0  0  0  0
  -30.6936  -18.0501   19.5011 C   0  0  0  0  0  0  0  0  0  0  0  0
  -28.5392  -18.2136   18.4198 C   0  0  0  0  0  0  0  0  0  0  0  0
  -17.3690  -14.7353   23.3145 C   0  0  0  0  0  0  0  0  0  0  0  0
  -23.4603  -12.1045   21.1700 C   0  0  0  0  0  0  0  0  0  0  0  0
  -29.8224  -20.2118   18.8646 C   0  0  0  0  0  0  0  0  0  0  0  0
  -24.4854  -11.3128   18.9723 C   0  0  0  0  0  0  0  0  0  0  0  0
  -25.5910  -33.7782   24.9816 C   0  0  0  0  0  0  0  0  0  0  0  0
  -25.5329  -29.0689   20.2920 C   0  0  0  0  0  0  0  0  0  0  0  0
  -25.7525  -32.4397   24.5758 C   0  0  0  0  0  0  0  0  0  0  0  0
  -25.0243  -27.7832   20.5255 C   0  0  0  0  0  0  0  0  0  0  0  0
  -30.8309  -19.4367   19.4372 C   0  0  0  0  0  0  0  0  0  0  0  0
  -29.5478  -17.4385   18.9924 C   0  0  0  0  0  0  0  0  0  0  0  0
  -21.3608  -12.4534   22.9736 C   0  0  0  0  0  0  0  0  0  0  0  0
  -27.2360  -26.8514   20.1379 C   0  0  0  0  0  0  0  0  0  0  0  0
  -19.1279  -13.0795   23.3535 C   0  0  0  0  0  0  0  0  0  0  0  0
  -16.6942  -13.9956   22.3433 C   0  0  0  0  0  0  0  0  0  0  0  0
  -28.6765  -19.6002   18.3559 C   0  0  0  0  0  0  0  0  0  0  0  0
  -18.5858  -14.2772   23.8195 C   0  0  0  0  0  0  0  0  0  0  0  0
  -24.5448  -11.9251   20.2385 C   0  0  0  0  0  0  0  0  0  0  0  0
  -25.7693  -11.3941   18.4910 C   0  0  0  0  0  0  0  0  0  0  0  0
  -28.8978  -22.4901   19.4827 C   0  0  0  0  0  0  0  0  0  0  0  0
  -28.5243  -23.6909   19.0205 C   0  0  0  0  0  0  0  0  0  0  0  0
  -29.9473  -21.6938   18.7846 C   0  0  0  0  0  0  0  0  0  0  0  0
  -23.3695  -10.7234   18.2919 C   0  0  0  0  0  0  0  0  0  0  0  0
  -23.6646  -30.0665   22.6623 C   0  0  0  0  0  0  0  0  0  0  0  0
  -21.3278  -28.7008   20.8745 C   0  0  0  0  0  0  0  0  0  0  0  0
  -20.4642  -26.4118   18.4951 C   0  0  0  0  0  0  0  0  0  0  0  0
  -30.3136  -15.1146   19.5918 C   0  0  0  0  0  0  0  0  0  0  0  0
  -24.2547  -34.3159   25.4286 C   0  0  0  0  0  0  0  0  0  0  0  0
  -24.6253  -30.2673   20.3400 C   0  0  0  0  0  0  0  0  0  0  0  0
  -23.5745  -27.5530   20.8622 C   0  0  0  0  0  0  0  0  0  0  0  0
  -23.0738  -33.4528   24.9917 C   0  0  0  0  0  0  0  0  0  0  0  0
  -30.3196  -11.5746   19.9730 C   0  0  0  0  0  0  0  0  0  0  0  0
  -23.3553  -31.9805   25.2744 C   0  0  0  0  0  0  0  0  0  0  0  0
  -28.8342  -11.2064   19.9630 C   0  0  0  0  0  0  0  0  0  0  0  0
  -30.5705  -12.9002   20.6896 C   0  0  0  0  0  0  0  0  0  0  0  0
  -28.2798  -13.6609   20.1967 C   0  0  0  0  0  0  0  0  0  0  0  0
  -24.5767  -31.4912   24.4869 C   0  0  1  0  0  0  0  0  0  0  0  0
  -23.3777  -30.0385   21.1877 C   0  0  1  0  0  0  0  0  0  0  0  0
  -27.9698  -12.3654   19.4291 C   0  0  2  0  0  0  0  0  0  0  0  0
  -32.0683  -20.0656   19.9899 C   0  0  0  0  0  0  0  0  0  0  0  0
  -18.4733  -25.4999   17.2695 C   0  0  0  0  0  0  0  0  0  0  0  0
  -20.5311  -27.1128   23.3551 C   0  0  0  0  0  0  0  0  0  0  0  0
  -19.2228  -25.5807   21.8688 C   0  0  0  0  0  0  0  0  0  0  0  0
  -18.6095  -27.9940   22.0189 C   0  0  0  0  0  0  0  0  0  0  0  0
  -21.5398  -27.2680   15.8742 C   0  0  0  0  0  0  0  0  0  0  0  0
  -27.4767  -24.5308   19.6767 C   0  0  0  0  0  0  0  0  0  1  0  0
  -20.7141  -27.3242   20.7885 C   0  0  1  0  0  0  0  0  0  0  0  0
  -19.5954  -26.5263   17.2555 C   0  0  2  0  0  0  0  0  0  0  0  0
  -19.7972  -27.0071   22.0034 C   0  0  0  0  0  0  0  0  0  0  0  0
  -25.7695  -12.3629   20.5426 N   0  0  0  0  0  0  0  0  0  0  0  0
  -30.9638  -22.2167   18.1759 N   0  0  0  0  0  0  0  0  0  0  0  0
  -26.4916  -12.0252   19.4606 N   0  0  0  0  0  0  0  0  0  0  0  0
  -22.7284  -28.7571   20.9033 N   0  0  0  0  0  0  0  0  0  0  0  0
  -29.7204  -13.9521   20.1280 N   0  0  0  0  0  0  0  0  0  0  0  0
  -26.3395  -10.9865   17.3373 N   0  0  0  0  0  0  0  0  0  0  0  0
  -22.1215  -10.7248   18.9296 N   0  0  0  0  0  0  0  0  0  0  0  0
  -29.4078  -16.0300   19.0569 N   0  0  0  0  0  0  0  0  0  0  0  0
  -24.2234  -31.2505   23.1043 N   0  0  0  0  0  0  0  0  0  0  0  0
  -20.0388  -27.2583   19.4969 N   0  0  0  0  0  0  0  0  0  0  0  0
  -20.4131  -26.3119   16.0282 N   0  3  0  0  0  0  0  0  0  0  0  0
  -23.4794  -10.1961   17.1590 O   0  0  0  0  0  0  0  0  0  0  0  0
  -23.3975  -29.0871   23.3485 O   0  0  0  0  0  0  0  0  0  0  0  0
  -20.5916  -29.6901   20.9075 O   0  0  0  0  0  0  0  0  0  0  0  0
  -21.4220  -25.6452   18.5687 O   0  0  0  0  0  0  0  0  0  0  0  0
  -31.5370  -15.2732   19.5817 O   0  0  0  0  0  0  0  0  0  0  0  0
  -20.3363  -12.6238   23.8533 O   0  0  0  0  0  0  0  0  0  0  0  0
  -28.0618  -25.7720   20.0684 O   0  0  0  0  0  0  0  0  0  1  0  0
  -15.5264  -14.4361   21.8571 F   0  0  0  0  0  0  0  0  0  0  0  0
  -27.7003  -20.3341   17.8029 F   0  0  0  0  0  0  0  0  0  0  0  0
  -19.2301  -14.9928   24.7516 F   0  0  0  0  0  0  0  0  0  0  0  0
  1  2  1  0  0  0  0
  1  5  2  0  0  0  0
  2  6  2  0  0  0  0
  3  8  2  0  0  0  0
  3 17  1  0  0  0  0
  4  9  1  0  0  0  0
  4 17  2  0  0  0  0
  5 20  1  0  0  0  0
  6 22  1  0  0  0  0
  7 10  2  0  0  0  0
  7 21  1  0  0  0  0
  8 26  1  0  0  0  0
  9 26  2  0  0  0  0
 10 27  1  0  0  0  0
 11 12  2  0  0  0  0
 11 28  1  0  0  0  0
 12 29  1  0  0  0  0
 13 23  1  0  0  0  0
 13 27  2  0  0  0  0
 14 24  2  0  0  0  0
 14 25  1  0  0  0  0
 15 25  2  0  0  0  0
 15 30  1  0  0  0  0
 16 29  2  0  0  0  0
 16 31  1  0  0  0  0
 17 32  1  0  0  0  0
 18 24  1  0  0  0  0
 18 30  2  0  0  0  0
 18 36  1  0  0  0  0
 19 32  1  0  0  0  0
 19 33  2  0  0  0  0
 19 37  1  0  0  0  0
 20 22  2  0  0  0  0
 20 42  1  0  0  0  0
 21 23  2  0  0  0  0
 21 43  1  0  0  0  0
 22 51  1  0  0  0  0
 23 44  1  0  0  0  0
 24 54  1  0  0  0  0
 25 71  1  0  0  0  0
 26 80  1  0  0  0  0
 27 81  1  0  0  0  0
 28 31  2  0  0  0  0
 28 80  1  0  0  0  0
 29 82  1  0  0  0  0
 30 83  1  0  0  0  0
 31 84  1  0  0  0  0
 32 64  2  0  0  0  0
 33 66  1  0  0  0  0
 33 69  1  0  0  0  0
 34 35  2  0  0  0  0
 34 36  1  0  0  0  0
 35 60  1  0  0  0  0
 36 65  2  0  0  0  0
 37 70  1  0  0  0  0
 37 75  2  0  0  0  0
 38 52  1  0  0  0  0
 38 72  1  0  0  0  0
 38 76  2  0  0  0  0
 39 61  1  0  0  0  0
 39 67  1  0  0  0  0
 39 77  2  0  0  0  0
 40 62  1  0  0  0  0
 40 73  1  0  0  0  0
 40 78  2  0  0  0  0
 41 68  1  0  0  0  0
 41 71  1  0  0  0  0
 41 79  2  0  0  0  0
 42 45  1  0  0  0  0
 43 52  1  0  0  0  0
 44 67  1  0  0  0  0
 45 47  1  0  0  0  0
 46 48  1  0  0  0  0
 46 49  1  0  0  0  0
 47 51  1  0  0  0  0
 48 53  1  0  0  0  0
 49 68  1  0  0  0  0
 50 53  1  0  0  0  0
 50 68  1  0  0  0  0
 51 72  1  0  0  0  0
 52 67  1  0  0  0  0
 53 66  1  0  0  0  0
 55 62  1  0  0  0  0
 56 63  1  0  0  0  0
 57 63  1  0  0  0  0
 58 63  1  0  0  0  0
 59 74  1  0  0  0  0
 60 81  1  0  0  0  0
 61 63  1  0  0  0  0
 61 73  1  0  0  0  0
 62 74  1  0  0  0  0
 64 66  1  0  0  0  0
M  CHG  1  74   1
M  ISO  4  41 100  60 101  71 100  81 101
M  END
> <Batch ID>
0048

> <Smiles>
CNC(C)C(=O)NC(C(=O)N1Cc2cc([101O:1][101CH2:1]C=CC(=N)c3c(C)cc([100NH:0][100C:0](=O)N4CCCC(n5nc(-c6ccc(Oc7ccc(F)cc7F)cc6)c(C(N)=O)c5N)C4)cc3F)ccc2CC1C(=O)NC1CCCc2ccccc21)C(C)(C)C

> <Shape>
0.294

> <Color>
0.083

> <Negative vol penalty>
0.000

$$$$

  -OEChem-04042322293D

 84 92  0     1  0  0  0  0  0999 V2000
  -25.1065  -21.4305   38.3924 C   0  0  0  0  0  0  0  0  0  0  0  0
  -25.7486  -21.3879   37.1590 C   0  0  0  0  0  0  0  0  0  0  0  0
  -23.0757   -9.8686   19.9403 C   0  0  0  0  0  0  0  0  0  0  0  0
  -23.8355   -9.8746   22.2337 C   0  0  0  0  0  0  0  0  0  0  0  0
  -25.2938  -20.3981   39.3106 C   0  0  0  0  0  0  0  0  0  0  0  0
  -26.5794  -20.3133   36.8435 C   0  0  0  0  0  0  0  0  0  0  0  0
  -25.7986  -18.5652   32.1553 C   0  0  0  0  0  0  0  0  0  0  0  0
  -32.6751  -17.4652   23.4349 C   0  0  0  0  0  0  0  0  0  0  0  0
  -32.0665  -16.5898   22.5355 C   0  0  0  0  0  0  0  0  0  0  0  0
  -22.3314   -8.7156   20.1899 C   0  0  0  0  0  0  0  0  0  0  0  0
  -23.0913   -8.7216   22.4833 C   0  0  0  0  0  0  0  0  0  0  0  0
  -26.3531  -19.2934   31.1036 C   0  0  0  0  0  0  0  0  0  0  0  0
  -21.1055   -5.9846   23.8189 C   0  0  0  0  0  0  0  0  0  0  0  0
  -20.3492   -5.9408   24.9901 C   0  0  0  0  0  0  0  0  0  0  0  0
  -28.1801  -17.7224   30.9872 C   0  0  0  0  0  0  0  0  0  0  0  0
  -19.1052   -7.8787   24.2592 C   0  0  0  0  0  0  0  0  0  0  0  0
  -23.8277  -10.4481   20.9622 C   0  0  0  0  0  0  0  0  0  0  0  0
  -24.1703  -12.9732   20.8430 C   0  0  0  0  0  0  0  0  0  0  0  0
  -26.1197  -19.3056   39.0024 C   0  0  0  0  0  0  0  0  0  0  0  0
  -26.4374  -17.4143   32.6388 C   0  0  0  0  0  0  0  0  0  0  0  0
  -26.7790  -19.2660   37.7589 C   0  0  0  0  0  0  0  0  0  0  0  0
  -27.6302  -16.9799   32.0433 C   0  0  0  0  0  0  0  0  0  0  0  0
  -31.8960  -18.3399   24.1924 C   0  0  0  0  0  0  0  0  0  0  0  0
  -30.5084  -18.3392   24.0503 C   0  0  0  0  0  0  0  0  0  0  0  0
  -29.8998  -17.4638   23.1508 C   0  0  0  0  0  0  0  0  0  0  0  0
  -30.6789  -16.5891   22.3934 C   0  0  0  0  0  0  0  0  0  0  0  0
  -22.3392   -8.1421   21.4613 C   0  0  0  0  0  0  0  0  0  0  0  0
  -27.5456  -18.8737   30.5213 C   0  0  0  0  0  0  0  0  0  0  0  0
  -20.8617   -6.9755   22.8679 C   0  0  0  0  0  0  0  0  0  0  0  0
  -19.3491   -6.8879   25.2102 C   0  0  0  0  0  0  0  0  0  0  0  0
  -19.8616   -7.9225   23.0880 C   0  0  0  0  0  0  0  0  0  0  0  0
  -24.5972  -11.6388   20.7049 C   0  0  0  0  0  0  0  0  0  0  0  0
  -25.2627  -13.7225   20.4800 C   0  0  0  0  0  0  0  0  0  0  0  0
  -22.9000  -13.4892   21.2621 C   0  0  0  0  0  0  0  0  0  0  0  0
  -27.7000  -16.5529   35.4258 C   0  0  0  0  0  0  0  0  0  0  0  0
  -28.0355  -13.6863   33.9450 C   0  0  0  0  0  0  0  0  0  0  0  0
  -28.8003  -19.5290   27.1830 C   0  0  0  0  0  0  0  0  0  0  0  0
  -28.3130  -11.9518   31.0191 C   0  0  0  0  0  0  0  0  0  0  0  0
  -30.7292  -14.7664   20.6552 C   0  0  0  0  0  0  0  0  0  0  0  0
  -26.3289  -18.2367   40.0456 C   0  0  0  0  0  0  0  0  0  0  0  0
  -25.8123  -16.6249   33.7562 C   0  0  0  0  0  0  0  0  0  0  0  0
  -28.3448  -15.7398   32.5121 C   0  0  0  0  0  0  0  0  0  0  0  0
  -26.9295  -16.9493   39.4867 C   0  0  0  0  0  0  0  0  0  0  0  0
  -29.6141  -12.3537   18.2861 C   0  0  0  0  0  0  0  0  0  0  0  0
  -28.1103  -17.2636   38.5736 C   0  0  0  0  0  0  0  0  0  0  0  0
  -28.1744  -12.0624   18.7155 C   0  0  0  0  0  0  0  0  0  0  0  0
  -30.5293  -12.5818   19.4878 C   0  0  0  0  0  0  0  0  0  0  0  0
  -28.6225  -13.3064   20.8693 C   0  0  0  0  0  0  0  0  0  0  0  0
  -27.6685  -18.1050   37.3702 C   0  0  1  0  0  0  0  0  0  0  0  0
  -26.8160  -15.7564   34.5083 C   0  0  1  0  0  0  0  0  0  0  0  0
  -27.6496  -13.1338   19.6914 C   0  0  2  0  0  0  0  0  0  0  0  0
  -32.5729  -19.2668   25.1482 C   0  0  0  0  0  0  0  0  0  0  0  0
  -28.4105  -17.4648   23.0000 C   0  0  0  0  0  0  0  0  0  0  0  0
  -28.6134   -9.6246   30.1295 C   0  0  0  0  0  0  0  0  0  0  0  0
  -30.9876  -13.7772   34.7109 C   0  0  0  0  0  0  0  0  0  0  0  0
  -31.4083  -11.9728   33.0271 C   0  0  0  0  0  0  0  0  0  0  0  0
  -29.9104  -11.5356   34.9733 C   0  0  0  0  0  0  0  0  0  0  0  0
  -25.7319  -12.0462   29.5741 C   0  0  0  0  0  0  0  0  0  0  0  0
  -29.6725  -19.2817   24.8671 C   0  0  0  0  0  0  0  0  0  0  0  0
  -28.8567  -18.8550   28.5372 C   0  0  0  0  0  0  0  0  0  1  0  0
  -29.1075  -13.0365   33.1039 C   0  0  1  0  0  0  0  0  0  0  0  0
  -27.6125  -10.7013   30.5191 C   0  0  2  0  0  0  0  0  0  0  0  0
  -30.3413  -12.6050   33.9460 C   0  0  0  0  0  0  0  0  0  0  0  0
  -25.8620  -11.5428   20.2866 N   0  0  0  0  0  0  0  0  0  0  0  0
  -26.2393  -12.8263   20.1587 N   0  0  0  0  0  0  0  0  0  0  0  0
  -27.6973  -15.0056   33.6117 N   0  0  0  0  0  0  0  0  0  0  0  0
  -29.9706  -13.6125   20.3655 N   0  0  0  0  0  0  0  0  0  0  0  0
  -25.4735  -15.0539   20.4075 N   0  0  0  0  0  0  0  0  0  0  0  0
  -21.8878  -12.5802   21.5991 N   0  0  0  0  0  0  0  0  0  0  0  0
  -30.0821  -15.6914   21.4739 N   0  0  0  0  0  0  0  0  0  0  0  0
  -27.0128  -17.2724   36.3847 N   0  0  0  0  0  0  0  0  0  0  0  0
  -29.5548  -18.8486   26.2402 N   0  0  0  0  0  0  0  0  0  0  0  0
  -28.4588  -11.9419   32.3901 N   0  0  0  0  0  0  0  0  0  0  0  0
  -26.7753  -11.0178   29.3276 N   0  3  0  0  0  0  0  0  0  0  0  0
  -22.6641  -14.7199   21.3199 O   0  0  0  0  0  0  0  0  0  0  0  0
  -28.9157  -16.5161   35.2758 O   0  0  0  0  0  0  0  0  0  0  0  0
  -27.5123  -13.0446   34.8593 O   0  0  0  0  0  0  0  0  0  0  0  0
  -28.1562  -20.5542   26.9774 O   0  0  0  0  0  0  0  0  0  0  0  0
  -28.6961  -12.8461   30.2680 O   0  0  0  0  0  0  0  0  0  0  0  0
  -31.8583  -14.9349   20.1876 O   0  0  0  0  0  0  0  0  0  0  0  0
  -21.6129   -7.0171   21.7053 O   0  0  0  0  0  0  0  0  0  0  0  0
  -28.0893  -19.5830   29.4951 O   0  0  0  0  0  0  0  0  0  1  0  0
  -18.6218   -6.8448   26.3343 F   0  0  0  0  0  0  0  0  0  0  0  0
  -19.6220   -8.8761   22.1775 F   0  0  0  0  0  0  0  0  0  0  0  0
  1  2  1  0  0  0  0
  1  5  2  0  0  0  0
  2  6  2  0  0  0  0
  3 10  2  0  0  0  0
  3 17  1  0  0  0  0
  4 11  1  0  0  0  0
  4 17  2  0  0  0  0
  5 19  1  0  0  0  0
  6 21  1  0  0  0  0
  7 12  2  0  0  0  0
  7 20  1  0  0  0  0
  8  9  1  0  0  0  0
  8 23  2  0  0  0  0
  9 26  2  0  0  0  0
 10 27  1  0  0  0  0
 11 27  2  0  0  0  0
 12 28  1  0  0  0  0
 13 14  2  0  0  0  0
 13 29  1  0  0  0  0
 14 30  1  0  0  0  0
 15 22  1  0  0  0  0
 15 28  2  0  0  0  0
 16 30  2  0  0  0  0
 16 31  1  0  0  0  0
 17 32  1  0  0  0  0
 18 32  1  0  0  0  0
 18 33  2  0  0  0  0
 18 34  1  0  0  0  0
 19 21  2  0  0  0  0
 19 40  1  0  0  0  0
 20 22  2  0  0  0  0
 20 41  1  0  0  0  0
 21 49  1  0  0  0  0
 22 42  1  0  0  0  0
 23 24  1  0  0  0  0
 23 52  1  0  0  0  0
 24 25  2  0  0  0  0
 24 59  1  0  0  0  0
 25 26  1  0  0  0  0
 25 53  1  0  0  0  0
 26 70  1  0  0  0  0
 27 81  1  0  0  0  0
 28 82  1  0  0  0  0
 29 31  2  0  0  0  0
 29 81  1  0  0  0  0
 30 83  1  0  0  0  0
 31 84  1  0  0  0  0
 32 64  2  0  0  0  0
 33 65  1  0  0  0  0
 33 68  1  0  0  0  0
 34 69  1  0  0  0  0
 34 75  2  0  0  0  0
 35 50  1  0  0  0  0
 35 71  1  0  0  0  0
 35 76  2  0  0  0  0
 36 61  1  0  0  0  0
 36 66  1  0  0  0  0
 36 77  2  0  0  0  0
 37 60  1  0  0  0  0
 37 72  1  0  0  0  0
 37 78  2  0  0  0  0
 38 62  1  0  0  0  0
 38 73  1  0  0  0  0
 38 79  2  0  0  0  0
 39 67  1  0  0  0  0
 39 70  1  0  0  0  0
 39 80  2  0  0  0  0
 40 43  1  0  0  0  0
 41 50  1  0  0  0  0
 42 66  1  0  0  0  0
 43 45  1  0  0  0  0
 44 46  1  0  0  0  0
 44 47  1  0  0  0  0
 45 49  1  0  0  0  0
 46 51  1  0  0  0  0
 47 67  1  0  0  0  0
 48 51  1  0  0  0  0
 48 67  1  0  0  0  0
 49 71  1  0  0  0  0
 50 66  1  0  0  0  0
 51 65  1  0  0  0  0
 54 62  1  0  0  0  0
 55 63  1  0  0  0  0
 56 63  1  0  0  0  0
 57 63  1  0  0  0  0
 58 74  1  0  0  0  0
 59 72  1  0  0  0  0
 60 82  1  0  0  0  0
 61 63  1  0  0  0  0
 61 73  1  0  0  0  0
 62 74  1  0  0  0  0
 64 65  1  0  0  0  0
M  CHG  1  74   1
M  ISO  4  39 100  60 101  70 100  82 101
M  END
> <Batch ID>
0048

> <Smiles>
CNC(C)C(=O)NC(C(=O)N1Cc2cc([101O:1][101CH2:1]C(=O)NCc3c(C)ccc([100NH:0][100C:0](=O)N4CCCC(n5nc(-c6ccc(Oc7ccc(F)cc7F)cc6)c(C(N)=O)c5N)C4)c3C)ccc2CC1C(=O)NC1CCCc2ccccc21)C(C)(C)C

> <Shape>
0.162

> <Color>
0.192

> <Negative vol penalty>
0.000

$$$$

  -OEChem-04042322293D

 86 94  0     1  0  0  0  0  0999 V2000
  -22.8978  -23.7651   18.2616 C   0  0  0  0  0  0  0  0  0  0  0  0
  -23.8716  -22.7771   18.1706 C   0  0  0  0  0  0  0  0  0  0  0  0
  -25.3201  -27.0774   19.8027 C   0  0  0  0  0  0  0  0  0  0  0  0
  -27.3621  -27.9725   20.7333 C   0  0  0  0  0  0  0  0  0  0  0  0
  -21.8264  -23.6039   19.1375 C   0  0  0  0  0  0  0  0  0  0  0  0
  -23.7681  -21.6221   18.9466 C   0  0  0  0  0  0  0  0  0  0  0  0
  -27.0320  -18.0452   18.0769 C   0  0  0  0  0  0  0  0  0  0  0  0
  -32.0971  -24.3784   26.0716 C   0  0  0  0  0  0  0  0  0  0  0  0
  -24.7069  -28.3213   19.9516 C   0  0  0  0  0  0  0  0  0  0  0  0
  -26.7490  -29.2165   20.8821 C   0  0  0  0  0  0  0  0  0  0  0  0
  -28.3742  -18.1448   18.4407 C   0  0  0  0  0  0  0  0  0  0  0  0
  -25.6127  -32.5332   21.8406 C   0  0  0  0  0  0  0  0  0  0  0  0
  -25.8019  -33.2092   23.0459 C   0  0  0  0  0  0  0  0  0  0  0  0
  -32.9722  -25.4622   25.9996 C   0  0  0  0  0  0  0  0  0  0  0  0
  -27.9691  -16.6791   20.3134 C   0  0  0  0  0  0  0  0  0  0  0  0
  -34.5028  -24.1387   24.6794 C   0  0  0  0  0  0  0  0  0  0  0  0
  -24.7858  -31.3694   24.2374 C   0  0  0  0  0  0  0  0  0  0  0  0
  -26.6477  -26.9029   20.1936 C   0  0  0  0  0  0  0  0  0  0  0  0
  -27.9965  -25.1507   18.9217 C   0  0  0  0  0  0  0  0  0  0  0  0
  -21.7171  -22.4517   19.9335 C   0  0  0  0  0  0  0  0  0  0  0  0
  -26.1444  -17.2692   18.8362 C   0  0  0  0  0  0  0  0  0  0  0  0
  -22.6816  -21.4300   19.8191 C   0  0  0  0  0  0  0  0  0  0  0  0
  -26.6167  -16.5692   19.9557 C   0  0  0  0  0  0  0  0  0  0  0  0
  -32.4249  -23.1747   25.4476 C   0  0  0  0  0  0  0  0  0  0  0  0
  -33.6277  -23.0548   24.7515 C   0  0  0  0  0  0  0  0  0  0  0  0
  -25.4213  -29.3909   20.4912 C   0  0  0  0  0  0  0  0  0  0  0  0
  -28.8423  -17.4640   19.5608 C   0  0  0  0  0  0  0  0  0  0  0  0
  -25.0099  -31.2752   21.8337 C   0  0  0  0  0  0  0  0  0  0  0  0
  -25.3885  -32.6273   24.2443 C   0  0  0  0  0  0  0  0  0  0  0  0
  -24.5965  -30.6934   23.0321 C   0  0  0  0  0  0  0  0  0  0  0  0
  -34.1750  -25.3423   25.3035 C   0  0  0  0  0  0  0  0  0  0  0  0
  -27.2815  -25.6180   20.0407 C   0  0  0  0  0  0  0  0  0  0  0  0
  -28.3932  -23.8834   19.2726 C   0  0  0  0  0  0  0  0  0  0  0  0
  -32.0017  -20.0632   21.3815 C   0  0  0  0  0  0  0  0  0  0  0  0
  -31.9284  -18.9899   20.5824 C   0  0  0  0  0  0  0  0  0  0  0  0
  -28.2771  -25.8037   17.6765 C   0  0  0  0  0  0  0  0  0  0  0  0
  -33.1332  -20.2133   22.3376 C   0  0  0  0  0  0  0  0  0  0  0  0
  -23.5147  -17.8690   20.5180 C   0  0  0  0  0  0  0  0  0  0  0  0
  -23.4234  -14.6382   20.7937 C   0  0  0  0  0  0  0  0  0  0  0  0
  -25.1206  -11.6778   20.7516 C   0  0  0  0  0  0  0  0  0  0  0  0
  -29.3426  -21.2230   24.5520 C   0  0  0  0  0  0  0  0  0  0  0  0
  -20.5327  -22.3253   20.8589 C   0  0  0  0  0  0  0  0  0  0  0  0
  -24.7053  -17.1506   18.4151 C   0  0  0  0  0  0  0  0  0  0  0  0
  -25.7090  -15.7066   20.7925 C   0  0  0  0  0  0  0  0  0  0  0  0
  -20.7422  -21.2844   21.9539 C   0  0  0  0  0  0  0  0  0  0  0  0
  -27.0933  -20.1732   21.9995 C   0  0  0  0  0  0  0  0  0  0  0  0
  -21.2398  -19.9821   21.3448 C   0  0  0  0  0  0  0  0  0  0  0  0
  -26.9510  -21.4074   21.1070 C   0  0  0  0  0  0  0  0  0  0  0  0
  -27.2154  -20.5536   23.4734 C   0  0  0  0  0  0  0  0  0  0  0  0
  -28.1396  -22.7607   22.8832 C   0  0  0  0  0  0  0  0  0  0  0  0
  -22.6061  -20.1791   20.6758 C   0  0  1  0  0  0  0  0  0  0  0  0
  -23.7799  -16.7442   19.5578 C   0  0  1  0  0  0  0  0  0  0  0  0
  -28.0694  -22.4305   21.3824 C   0  0  2  0  0  0  0  0  0  0  0  0
  -24.7824   -9.2088   21.0466 C   0  0  0  0  0  0  0  0  0  0  0  0
  -23.2446  -15.0263   23.8149 C   0  0  0  0  0  0  0  0  0  0  0  0
  -23.8628  -12.6159   24.0910 C   0  0  0  0  0  0  0  0  0  0  0  0
  -21.7578  -13.2337   22.9036 C   0  0  0  0  0  0  0  0  0  0  0  0
  -26.0277  -11.1063   17.9930 C   0  0  0  0  0  0  0  0  0  0  0  0
  -31.4729  -22.0276   25.5388 C   0  0  0  0  0  0  0  0  0  0  0  0
  -34.0025  -21.7688   24.0733 C   0  0  0  0  0  0  0  0  0  0  0  0
  -30.8256  -18.7760   19.5963 C   0  0  0  0  0  0  0  0  0  1  0  0
  -23.9826  -13.6324   21.7707 C   0  0  1  0  0  0  0  0  0  0  0  0
  -24.8311  -10.3606   20.0548 C   0  0  2  0  0  0  0  0  0  0  0  0
  -23.2289  -13.6448   23.1306 C   0  0  0  0  0  0  0  0  0  0  0  0
  -27.2254  -24.7206   21.0284 N   0  0  0  0  0  0  0  0  0  0  0  0
  -27.9102  -23.6766   20.5312 N   0  0  0  0  0  0  0  0  0  0  0  0
  -24.3090  -15.6277   20.3438 N   0  0  0  0  0  0  0  0  0  0  0  0
  -28.2947  -21.5250   23.6667 N   0  0  0  0  0  0  0  0  0  0  0  0
  -29.1045  -22.9368   18.6241 N   0  0  0  0  0  0  0  0  0  0  0  0
  -27.7949  -27.1050   17.4810 N   0  0  0  0  0  0  0  0  0  0  0  0
  -33.0332  -21.3824   23.0726 N   0  0  0  0  0  0  0  0  0  0  0  0
  -22.9452  -18.9846   19.9343 N   0  0  0  0  0  0  0  0  0  0  0  0
  -23.9609  -12.3437   21.0872 N   0  0  0  0  0  0  0  0  0  0  0  0
  -30.3279  -22.1954   24.6718 N   0  0  0  0  0  0  0  0  0  0  0  0
  -25.8863  -10.0662   19.0443 N   0  3  0  0  0  0  0  0  0  0  0  0
  -28.9220  -25.2435   16.7579 O   0  0  0  0  0  0  0  0  0  0  0  0
  -34.0277  -19.3798   22.4361 O   0  0  0  0  0  0  0  0  0  0  0  0
  -23.8038  -17.7343   21.7012 O   0  0  0  0  0  0  0  0  0  0  0  0
  -22.2461  -14.5451   20.4373 O   0  0  0  0  0  0  0  0  0  0  0  0
  -26.2615  -12.0744   20.9789 O   0  0  0  0  0  0  0  0  0  0  0  0
  -29.3989  -20.1629   25.1844 O   0  0  0  0  0  0  0  0  0  0  0  0
  -24.8234  -30.6050   20.6363 O   0  0  0  0  0  0  0  0  0  0  0  0
  -30.1518  -17.5601   19.9185 O   0  0  0  0  0  0  0  0  0  1  0  0
  -25.5717  -33.2760   25.4018 F   0  0  0  0  0  0  0  0  0  0  0  0
  -24.0179  -29.4846   23.0319 F   0  0  0  0  0  0  0  0  0  0  0  0
  -35.2550  -26.6790   25.2165 Cl  0  0  0  0  0  0  0  0  0  0  0  0
  1  2  1  0  0  0  0
  1  5  2  0  0  0  0
  2  6  2  0  0  0  0
  3  9  2  0  0  0  0
  3 18  1  0  0  0  0
  4 10  1  0  0  0  0
  4 18  2  0  0  0  0
  5 20  1  0  0  0  0
  6 22  1  0  0  0  0
  7 11  2  0  0  0  0
  7 21  1  0  0  0  0
  8 14  2  0  0  0  0
  8 24  1  0  0  0  0
  9 26  1  0  0  0  0
 10 26  2  0  0  0  0
 11 27  1  0  0  0  0
 12 13  2  0  0  0  0
 12 28  1  0  0  0  0
 13 29  1  0  0  0  0
 14 31  1  0  0  0  0
 15 23  1  0  0  0  0
 15 27  2  0  0  0  0
 16 25  1  0  0  0  0
 16 31  2  0  0  0  0
 17 29  2  0  0  0  0
 17 30  1  0  0  0  0
 18 32  1  0  0  0  0
 19 32  1  0  0  0  0
 19 33  2  0  0  0  0
 19 36  1  0  0  0  0
 20 22  2  0  0  0  0
 20 42  1  0  0  0  0
 21 23  2  0  0  0  0
 21 43  1  0  0  0  0
 22 51  1  0  0  0  0
 23 44  1  0  0  0  0
 24 25  2  0  0  0  0
 24 59  1  0  0  0  0
 25 60  1  0  0  0  0
 26 82  1  0  0  0  0
 27 83  1  0  0  0  0
 28 30  2  0  0  0  0
 28 82  1  0  0  0  0
 29 84  1  0  0  0  0
 30 85  1  0  0  0  0
 31 86  1  0  0  0  0
 32 65  2  0  0  0  0
 33 66  1  0  0  0  0
 33 69  1  0  0  0  0
 34 35  2  0  0  0  0
 34 37  1  0  0  0  0
 35 61  1  0  0  0  0
 36 70  1  0  0  0  0
 36 76  2  0  0  0  0
 37 71  1  0  0  0  0
 37 77  2  0  0  0  0
 38 52  1  0  0  0  0
 38 72  1  0  0  0  0
 38 78  2  0  0  0  0
 39 62  1  0  0  0  0
 39 67  1  0  0  0  0
 39 79  2  0  0  0  0
 40 63  1  0  0  0  0
 40 73  1  0  0  0  0
 40 80  2  0  0  0  0
 41 68  1  0  0  0  0
 41 74  1  0  0  0  0
 41 81  2  0  0  0  0
 42 45  1  0  0  0  0
 43 52  1  0  0  0  0
 44 67  1  0  0  0  0
 45 47  1  0  0  0  0
 46 48  1  0  0  0  0
 46 49  1  0  0  0  0
 47 51  1  0  0  0  0
 48 53  1  0  0  0  0
 49 68  1  0  0  0  0
 50 53  1  0  0  0  0
 50 68  1  0  0  0  0
 51 72  1  0  0  0  0
 52 67  1  0  0  0  0
 53 66  1  0  0  0  0
 54 63  1  0  0  0  0
 55 64  1  0  0  0  0
 56 64  1  0  0  0  0
 57 64  1  0  0  0  0
 58 75  1  0  0  0  0
 59 74  1  0  0  0  0
 60 71  1  0  0  0  0
 61 83  1  0  0  0  0
 62 64  1  0  0  0  0
 62 73  1  0  0  0  0
 63 75  1  0  0  0  0
 65 66  1  0  0  0  0
M  CHG  1  75   1
M  ISO  4  41 100  61 101  74 100  83 101
M  END
> <Batch ID>
0048

> <Smiles>
CNC(C)C(=O)NC(C(=O)N1Cc2cc([101O:1][101CH2:1]C=CC(=O)NCc3cc(Cl)ccc3C[100NH:0][100C:0](=O)N3CCCC(n4nc(-c5ccc(Oc6ccc(F)cc6F)cc5)c(C(N)=O)c4N)C3)ccc2CC1C(=O)NC1CCCc2ccccc21)C(C)(C)C

> <Shape>
0.186

> <Color>
0.086

> <Negative vol penalty>
0.000

$$$$

  -OEChem-04042322293D

 87 96  0     1  0  0  0  0  0999 V2000
  -29.6111  -11.0358   19.5831 C   0  0  0  0  0  0  0  0  0  0  0  0
  -30.2225  -12.1934   19.1124 C   0  0  0  0  0  0  0  0  0  0  0  0
  -21.0799  -26.7693   21.7031 C   0  0  0  0  0  0  0  0  0  0  0  0
  -20.1137  -28.1741   23.4149 C   0  0  0  0  0  0  0  0  0  0  0  0
  -28.3246  -11.0959   20.1169 C   0  0  0  0  0  0  0  0  0  0  0  0
  -29.5472  -13.4118   19.1743 C   0  0  0  0  0  0  0  0  0  0  0  0
  -30.7416  -20.4174   20.0745 C   0  0  0  0  0  0  0  0  0  0  0  0
  -28.4137  -31.4125   18.4719 C   0  0  0  0  0  0  0  0  0  0  0  0
  -19.8198  -26.6020   21.1291 C   0  0  0  0  0  0  0  0  0  0  0  0
  -18.8535  -28.0068   22.8408 C   0  0  0  0  0  0  0  0  0  0  0  0
  -30.4640  -21.6436   19.4717 C   0  0  0  0  0  0  0  0  0  0  0  0
  -17.0453  -24.7595   21.7054 C   0  0  0  0  0  0  0  0  0  0  0  0
  -16.6747  -23.4707   21.3217 C   0  0  0  0  0  0  0  0  0  0  0  0
  -28.8608  -30.3638   17.6683 C   0  0  0  0  0  0  0  0  0  0  0  0
  -28.2758  -21.6405   20.4872 C   0  0  0  0  0  0  0  0  0  0  0  0
  -29.1550  -30.2214   20.4388 C   0  0  0  0  0  0  0  0  0  0  0  0
  -16.4292  -24.2211   19.0383 C   0  0  0  0  0  0  0  0  0  0  0  0
  -21.2269  -27.5553   22.8461 C   0  0  0  0  0  0  0  0  0  0  0  0
  -23.3703  -26.7217   23.9500 C   0  0  0  0  0  0  0  0  0  0  0  0
  -27.6369  -12.3173   20.1943 C   0  0  0  0  0  0  0  0  0  0  0  0
  -29.7827  -19.7873   20.8807 C   0  0  0  0  0  0  0  0  0  0  0  0
  -28.2497  -13.4881   19.7085 C   0  0  0  0  0  0  0  0  0  0  0  0
  -28.5447  -20.4076   21.1012 C   0  0  0  0  0  0  0  0  0  0  0  0
  -28.5609  -31.3414   19.8572 C   0  0  0  0  0  0  0  0  0  0  0  0
  -29.6020  -29.1726   19.6352 C   0  0  0  0  0  0  0  0  0  0  0  0
  -18.7065  -27.2208   21.6979 C   0  0  0  0  0  0  0  0  0  0  0  0
  -29.2299  -22.2539   19.6757 C   0  0  0  0  0  0  0  0  0  0  0  0
  -17.1078  -25.7792   20.7555 C   0  0  0  0  0  0  0  0  0  0  0  0
  -16.3666  -23.2015   19.9882 C   0  0  0  0  0  0  0  0  0  0  0  0
  -16.7998  -25.5099   19.4220 C   0  0  0  0  0  0  0  0  0  0  0  0
  -29.4549  -29.2438   18.2499 C   0  0  0  0  0  0  0  0  0  0  0  0
  -22.5283  -27.7280   23.4399 C   0  0  0  0  0  0  0  0  0  0  0  0
  -24.4801  -27.3965   24.3968 C   0  0  0  0  0  0  0  0  0  0  0  0
  -29.7059  -25.6213   19.7517 C   0  0  0  0  0  0  0  0  0  0  0  0
  -23.1675  -25.3038   24.0140 C   0  0  0  0  0  0  0  0  0  0  0  0
  -28.2011  -17.0333   20.7487 C   0  0  0  0  0  0  0  0  0  0  0  0
  -27.1403  -17.9505   23.6738 C   0  0  0  0  0  0  0  0  0  0  0  0
  -26.0114  -21.0051   25.2269 C   0  0  0  0  0  0  0  0  0  0  0  0
  -26.9310  -32.6523   22.9065 C   0  0  0  0  0  0  0  0  0  0  0  0
  -26.2294  -12.3248   20.7362 C   0  0  0  0  0  0  0  0  0  0  0  0
  -30.1077  -18.4777   21.5454 C   0  0  0  0  0  0  0  0  0  0  0  0
  -27.4887  -19.7823   21.9743 C   0  0  0  0  0  0  0  0  0  0  0  0
  -25.7279  -13.7175   21.1095 C   0  0  0  0  0  0  0  0  0  0  0  0
  -26.9235  -26.3145   20.4579 C   0  0  0  0  0  0  0  0  0  0  0  0
  -25.8312  -31.6427   26.1389 C   0  0  0  0  0  0  0  0  0  0  0  0
  -26.0459  -14.7146   19.9998 C   0  0  0  0  0  0  0  0  0  0  0  0
  -27.2760  -25.0910   19.6138 C   0  0  0  0  0  0  0  0  0  0  0  0
  -24.9360  -30.4342   25.8597 C   0  0  0  0  0  0  0  0  0  0  0  0
  -28.1349  -26.9406   21.1430 C   0  0  0  0  0  0  0  0  0  0  0  0
  -25.6959  -32.7080   25.0532 C   0  0  0  0  0  0  0  0  0  0  0  0
  -25.0162  -31.0128   23.3985 C   0  0  0  0  0  0  0  0  0  0  0  0
  -27.5591  -14.8327   19.7812 C   0  0  1  0  0  0  0  0  0  0  0  0
  -28.6553  -24.5364   19.9463 C   0  0  1  0  0  0  0  0  0  1  0  0
  -28.8663  -17.6793   21.9311 C   0  0  1  0  0  0  0  0  0  0  0  0
  -25.1599  -29.8871   24.4371 C   0  0  2  0  0  0  0  0  0  0  0  0
  -26.0606  -21.7289   27.6292 C   0  0  0  0  0  0  0  0  0  0  0  0
  -24.3066  -16.8233   23.7700 C   0  0  0  0  0  0  0  0  0  0  0  0
  -23.6705  -18.7367   25.2540 C   0  0  0  0  0  0  0  0  0  0  0  0
  -25.3960  -17.0988   26.0041 C   0  0  0  0  0  0  0  0  0  0  0  0
  -27.4826  -23.4876   24.5696 C   0  0  0  0  0  0  0  0  0  0  0  0
  -30.2366  -27.9853   20.2999 C   0  0  0  0  0  0  0  0  0  0  0  0
  -28.0826  -32.4630   20.7163 C   0  0  0  0  0  0  0  0  0  0  0  0
  -25.9687  -18.7555   24.1821 C   0  0  1  0  0  0  0  0  0  0  0  0
  -26.7488  -21.8177   26.2760 C   0  0  2  0  0  0  0  0  0  0  0  0
  -24.8467  -17.8583   24.7769 C   0  0  0  0  0  0  0  0  0  0  0  0
  -23.0577  -28.9492   23.5520 N   0  0  0  0  0  0  0  0  0  0  0  0
  -24.2443  -28.7146   24.1377 N   0  0  0  0  0  0  0  0  0  0  0  0
  -29.3438  -26.8391   20.3336 N   0  0  0  0  0  0  0  0  0  0  0  0
  -27.8516  -18.4986   22.5970 N   0  0  0  0  0  0  0  0  0  0  0  0
  -25.9216  -32.1246   23.7285 N   0  0  0  0  0  0  0  0  0  0  0  0
  -25.6248  -26.9849   24.9823 N   0  0  0  0  0  0  0  0  0  0  0  0
  -21.9709  -24.7766   23.5096 N   0  0  0  0  0  0  0  0  0  0  0  0
  -28.1562  -15.6537   20.8127 N   0  0  0  0  0  0  0  0  0  0  0  0
  -26.5180  -19.7270   25.1217 N   0  0  0  0  0  0  0  0  0  0  0  0
  -27.0826  -32.0371   21.6699 N   0  0  0  0  0  0  0  0  0  0  0  0
  -26.8095  -23.2510   25.8727 N   0  3  0  0  0  0  0  0  0  0  0  0
  -30.7578  -25.4105   19.1505 O   0  0  0  0  0  0  0  0  0  0  0  0
  -24.0150  -24.5291   24.5190 O   0  0  0  0  0  0  0  0  0  0  0  0
  -27.7598  -17.7348   19.8460 O   0  0  0  0  0  0  0  0  0  0  0  0
  -27.4186  -16.8785   24.2169 O   0  0  0  0  0  0  0  0  0  0  0  0
  -25.0769  -21.4577   24.5693 O   0  0  0  0  0  0  0  0  0  0  0  0
  -27.6479  -33.5978   23.2515 O   0  0  0  0  0  0  0  0  0  0  0  0
  -17.4767  -27.0580   21.1378 O   0  0  0  0  0  0  0  0  0  0  0  0
  -28.9560  -23.4504   19.0880 O   0  0  0  0  0  0  0  0  0  1  0  0
  -16.0122  -21.9634   19.6197 F   0  0  0  0  0  0  0  0  0  0  0  0
  -16.8592  -26.4851   18.5048 F   0  0  0  0  0  0  0  0  0  0  0  0
  -29.9962  -27.9654   17.2243 Cl  0  0  0  0  0  0  0  0  0  0  0  0
  1  2  1  0  0  0  0
  1  5  2  0  0  0  0
  2  6  2  0  0  0  0
  3  9  2  0  0  0  0
  3 18  1  0  0  0  0
  4 10  1  0  0  0  0
  4 18  2  0  0  0  0
  5 20  1  0  0  0  0
  6 22  1  0  0  0  0
  7 11  2  0  0  0  0
  7 21  1  0  0  0  0
  8 14  2  0  0  0  0
  8 24  1  0  0  0  0
  9 26  1  0  0  0  0
 10 26  2  0  0  0  0
 11 27  1  0  0  0  0
 12 13  2  0  0  0  0
 12 28  1  0  0  0  0
 13 29  1  0  0  0  0
 14 31  1  0  0  0  0
 15 23  1  0  0  0  0
 15 27  2  0  0  0  0
 16 24  2  0  0  0  0
 16 25  1  0  0  0  0
 17 29  2  0  0  0  0
 17 30  1  0  0  0  0
 18 32  1  0  0  0  0
 19 32  1  0  0  0  0
 19 33  2  0  0  0  0
 19 35  1  0  0  0  0
 20 22  2  0  0  0  0
 20 40  1  0  0  0  0
 21 23  2  0  0  0  0
 21 41  1  0  0  0  0
 22 52  1  0  0  0  0
 23 42  1  0  0  0  0
 24 62  1  0  0  0  0
 25 31  2  0  0  0  0
 25 61  1  0  0  0  0
 26 83  1  0  0  0  0
 27 84  1  0  0  0  0
 28 30  2  0  0  0  0
 28 83  1  0  0  0  0
 29 85  1  0  0  0  0
 30 86  1  0  0  0  0
 31 87  1  0  0  0  0
 32 66  2  0  0  0  0
 33 67  1  0  0  0  0
 33 71  1  0  0  0  0
 34 53  1  0  0  0  0
 34 68  1  0  0  0  0
 34 77  2  0  0  0  0
 35 72  1  0  0  0  0
 35 78  2  0  0  0  0
 36 54  1  0  0  0  0
 36 73  1  0  0  0  0
 36 79  2  0  0  0  0
 37 63  1  0  0  0  0
 37 69  1  0  0  0  0
 37 80  2  0  0  0  0
 38 64  1  0  0  0  0
 38 74  1  0  0  0  0
 38 81  2  0  0  0  0
 39 70  1  0  0  0  0
 39 75  1  0  0  0  0
 39 82  2  0  0  0  0
 40 43  1  0  0  0  0
 41 54  1  0  0  0  0
 42 69  1  0  0  0  0
 43 46  1  0  0  0  0
 44 47  1  0  0  0  0
 44 49  1  0  0  0  0
 45 48  1  0  0  0  0
 45 50  1  0  0  0  0
 46 52  1  0  0  0  0
 47 53  1  0  0  0  0
 48 55  1  0  0  0  0
 49 68  1  0  0  0  0
 50 70  1  0  0  0  0
 51 55  1  0  0  0  0
 51 70  1  0  0  0  0
 52 73  1  0  0  0  0
 53 84  1  0  0  0  0
 54 69  1  0  0  0  0
 55 67  1  0  0  0  0
 56 64  1  0  0  0  0
 57 65  1  0  0  0  0
 58 65  1  0  0  0  0
 59 65  1  0  0  0  0
 60 76  1  0  0  0  0
 61 68  1  0  0  0  0
 62 75  1  0  0  0  0
 63 65  1  0  0  0  0
 63 74  1  0  0  0  0
 64 76  1  0  0  0  0
 66 67  1  0  0  0  0
M  CHG  1  76   1
M  ISO  4  39 100  53 101  75 100  84 101
M  END
> <Batch ID>
0048

> <Smiles>
CNC(C)C(=O)NC(C(=O)N1Cc2cc([101O:1][101CH:1]3CCCN(Cc4cc(C[100NH:0][100C:0](=O)N5CCCC(n6nc(-c7ccc(Oc8ccc(F)cc8F)cc7)c(C(N)=O)c6N)C5)ccc4Cl)C3=O)ccc2CC1C(=O)NC1CCCc2ccccc21)C(C)(C)C

> <Shape>
0.252

> <Color>
0.075

> <Negative vol penalty>
0.000

$$$$

  -OEChem-04042322293D

 88 97  0     1  0  0  0  0  0999 V2000
  -24.0122  -32.5383   24.6839 C   0  0  0  0  0  0  0  0  0  0  0  0
  -24.1864  -31.1888   24.9735 C   0  0  0  0  0  0  0  0  0  0  0  0
  -28.0868  -23.6137   21.5705 C   0  0  0  0  0  0  0  0  0  0  0  0
  -29.7447  -23.3626   19.8311 C   0  0  0  0  0  0  0  0  0  0  0  0
  -22.8396  -32.9719   24.0668 C   0  0  0  0  0  0  0  0  0  0  0  0
  -23.1876  -30.2722   24.6470 C   0  0  0  0  0  0  0  0  0  0  0  0
  -23.9621  -24.4812   22.8112 C   0  0  0  0  0  0  0  0  0  0  0  0
  -22.5456  -14.5791   22.2833 C   0  0  0  0  0  0  0  0  0  0  0  0
  -27.9956  -24.9763   21.2869 C   0  0  0  0  0  0  0  0  0  0  0  0
  -29.6535  -24.7253   19.5475 C   0  0  0  0  0  0  0  0  0  0  0  0
  -23.8969  -23.2653   23.4902 C   0  0  0  0  0  0  0  0  0  0  0  0
  -27.0621  -28.4528   20.7791 C   0  0  0  0  0  0  0  0  0  0  0  0
  -25.7879  -29.0144   20.6980 C   0  0  0  0  0  0  0  0  0  0  0  0
  -22.6826  -13.2006   22.1208 C   0  0  0  0  0  0  0  0  0  0  0  0
  -21.6093  -22.9948   22.7738 C   0  0  0  0  0  0  0  0  0  0  0  0
  -24.6801  -13.5538   20.8083 C   0  0  0  0  0  0  0  0  0  0  0  0
  -25.2390  -27.5080   18.8906 C   0  0  0  0  0  0  0  0  0  0  0  0
  -28.9614  -22.8068   20.8426 C   0  0  0  0  0  0  0  0  0  0  0  0
  -29.4319  -20.8085   22.3569 C   0  0  0  0  0  0  0  0  0  0  0  0
  -21.8300  -32.0589   23.7238 C   0  0  0  0  0  0  0  0  0  0  0  0
  -22.8461  -24.9691   22.1163 C   0  0  0  0  0  0  0  0  0  0  0  0
  -21.9998  -30.6942   24.0259 C   0  0  0  0  0  0  0  0  0  0  0  0
  -23.4758  -15.4450   21.7083 C   0  0  0  0  0  0  0  0  0  0  0  0
  -21.6638  -24.2160   22.0846 C   0  0  0  0  0  0  0  0  0  0  0  0
  -24.5430  -14.9324   20.9709 C   0  0  0  0  0  0  0  0  0  0  0  0
  -28.7789  -25.5321   20.2754 C   0  0  0  0  0  0  0  0  0  0  0  0
  -22.7195  -22.5233   23.4739 C   0  0  0  0  0  0  0  0  0  0  0  0
  -27.4248  -27.4188   19.9159 C   0  0  0  0  0  0  0  0  0  0  0  0
  -24.8763  -28.5420   19.7538 C   0  0  0  0  0  0  0  0  0  0  0  0
  -26.5132  -26.9464   18.9717 C   0  0  0  0  0  0  0  0  0  0  0  0
  -23.7499  -12.6879   21.3833 C   0  0  0  0  0  0  0  0  0  0  0  0
  -29.0566  -21.3992   21.1355 C   0  0  0  0  0  0  0  0  0  0  0  0
  -29.3648  -19.4573   22.1198 C   0  0  0  0  0  0  0  0  0  0  0  0
  -21.8482  -17.3659   22.0141 C   0  0  0  0  0  0  0  0  0  0  0  0
  -20.5794  -16.9536   18.5940 C   0  0  0  0  0  0  0  0  0  0  0  0
  -21.0200  -17.3844   20.9587 C   0  0  0  0  0  0  0  0  0  0  0  0
  -21.4057  -16.9350   19.6459 C   0  0  0  0  0  0  0  0  0  0  0  0
  -29.8075  -21.4260   23.5952 C   0  0  0  0  0  0  0  0  0  0  0  0
  -21.0081  -27.5515   22.3548 C   0  0  0  0  0  0  0  0  0  0  0  0
  -19.6869  -26.3847   19.6316 C   0  0  0  0  0  0  0  0  0  0  0  0
  -19.0689  -23.6855   17.6368 C   0  0  0  0  0  0  0  0  0  0  0  0
  -26.2298  -15.5737   19.2130 C   0  0  0  0  0  0  0  0  0  0  0  0
  -20.5598  -32.5814   23.1007 C   0  0  0  0  0  0  0  0  0  0  0  0
  -22.9411  -26.2697   21.3666 C   0  0  0  0  0  0  0  0  0  0  0  0
  -20.4440  -24.6859   21.3365 C   0  0  0  0  0  0  0  0  0  0  0  0
  -21.4216  -17.8415   23.3784 C   0  0  0  0  0  0  0  0  0  0  0  0
  -19.7096  -31.4944   22.4480 C   0  0  0  0  0  0  0  0  0  0  0  0
  -29.4323  -16.6233   18.0643 C   0  0  0  0  0  0  0  0  0  0  0  0
  -19.5793  -30.2900   23.3750 C   0  0  0  0  0  0  0  0  0  0  0  0
  -29.7002  -17.9042   18.8578 C   0  0  0  0  0  0  0  0  0  0  0  0
  -27.9592  -16.4905   17.6821 C   0  0  0  0  0  0  0  0  0  0  0  0
  -27.2825  -17.8894   19.5938 C   0  0  0  0  0  0  0  0  0  0  0  0
  -23.7928  -18.8685   23.4258 C   0  0  0  0  0  0  0  0  0  0  0  0
  -23.3012  -16.9400   21.9018 C   0  0  1  0  0  0  0  0  0  0  0  0
  -20.9498  -29.6660   23.6647 C   0  0  1  0  0  0  0  0  0  0  0  0
  -21.5822  -26.9175   21.1194 C   0  0  1  0  0  0  0  0  0  0  0  0
  -22.3400  -18.9579   23.9215 C   0  0  1  0  0  0  0  0  0  0  0  0
  -28.7411  -18.0350   20.0573 C   0  0  2  0  0  0  0  0  0  0  0  0
  -17.9328  -23.0378   15.4950 C   0  0  0  0  0  0  0  0  0  0  0  0
  -16.9750  -26.5661   21.0182 C   0  0  0  0  0  0  0  0  0  0  0  0
  -16.0468  -25.0594   19.2471 C   0  0  0  0  0  0  0  0  0  0  0  0
  -16.9733  -27.2902   18.6244 C   0  0  0  0  0  0  0  0  0  0  0  0
  -21.6078  -22.7504   16.4374 C   0  0  0  0  0  0  0  0  0  0  0  0
  -21.7748  -20.3447   23.6056 C   0  0  0  0  0  0  0  0  0  1  0  0
  -18.5531  -25.4403   19.3129 C   0  0  1  0  0  0  0  0  0  0  0  0
  -19.2366  -23.4780   16.1424 C   0  0  2  0  0  0  0  0  0  0  0  0
  -17.1592  -26.0808   19.5664 C   0  0  0  0  0  0  0  0  0  0  0  0
  -28.7723  -20.4972   20.1923 N   0  0  0  0  0  0  0  0  0  0  0  0
  -28.9692  -19.3259   20.8212 N   0  0  0  0  0  0  0  0  0  0  0  0
  -20.5846  -25.9668   20.6243 N   0  0  0  0  0  0  0  0  0  0  0  0
  -27.1110  -16.6205   18.8689 N   0  0  0  0  0  0  0  0  0  0  0  0
  -29.6064  -18.3806   22.8975 N   0  0  0  0  0  0  0  0  0  0  0  0
  -31.1608  -21.7185   23.8125 N   0  0  0  0  0  0  0  0  0  0  0  0
  -25.4981  -15.7959   20.3792 N   0  0  0  0  0  0  0  0  0  0  0  0
  -21.3889  -28.8667   22.5411 N   0  0  0  0  0  0  0  0  0  0  0  0
  -18.7657  -24.9961   17.9396 N   0  0  0  0  0  0  0  0  0  0  0  0
  -24.1259  -17.4568   23.0706 N   0  3  0  0  0  0  0  0  0  0  0  0
  -20.2685  -22.4360   15.8768 N   0  3  0  0  0  0  0  0  0  0  0  0
  -28.9700  -21.6950   24.4895 O   0  0  0  0  0  0  0  0  0  0  0  0
  -20.2728  -26.8964   23.0841 O   0  0  0  0  0  0  0  0  0  0  0  0
  -19.7770  -27.4506   19.0173 O   0  0  0  0  0  0  0  0  0  0  0  0
  -19.1907  -22.7752   18.4536 O   0  0  0  0  0  0  0  0  0  0  0  0
  -26.1514  -14.5435   18.5389 O   0  0  0  0  0  0  0  0  0  0  0  0
  -28.6899  -26.8617   19.9982 O   0  0  0  0  0  0  0  0  0  0  0  0
  -22.6529  -21.3364   24.1364 O   0  0  0  0  0  0  0  0  0  1  0  0
  -23.6522  -29.0804   19.6771 F   0  0  0  0  0  0  0  0  0  0  0  0
  -26.8555  -25.9525   18.1405 F   0  0  0  0  0  0  0  0  0  0  0  0
  -23.9182  -10.9869   21.1832 Cl  0  0  0  0  0  0  0  0  0  0  0  0
  1  2  1  0  0  0  0
  1  5  2  0  0  0  0
  2  6  2  0  0  0  0
  3  9  2  0  0  0  0
  3 18  1  0  0  0  0
  4 10  1  0  0  0  0
  4 18  2  0  0  0  0
  5 20  1  0  0  0  0
  6 22  1  0  0  0  0
  7 11  2  0  0  0  0
  7 21  1  0  0  0  0
  8 14  2  0  0  0  0
  8 23  1  0  0  0  0
  9 26  1  0  0  0  0
 10 26  2  0  0  0  0
 11 27  1  0  0  0  0
 12 13  2  0  0  0  0
 12 28  1  0  0  0  0
 13 29  1  0  0  0  0
 14 31  1  0  0  0  0
 15 24  1  0  0  0  0
 15 27  2  0  0  0  0
 16 25  1  0  0  0  0
 16 31  2  0  0  0  0
 17 29  2  0  0  0  0
 17 30  1  0  0  0  0
 18 32  1  0  0  0  0
 19 32  1  0  0  0  0
 19 33  2  0  0  0  0
 19 38  1  0  0  0  0
 20 22  2  0  0  0  0
 20 43  1  0  0  0  0
 21 24  2  0  0  0  0
 21 44  1  0  0  0  0
 22 55  1  0  0  0  0
 23 25  2  0  0  0  0
 23 54  1  0  0  0  0
 24 45  1  0  0  0  0
 25 74  1  0  0  0  0
 26 84  1  0  0  0  0
 27 85  1  0  0  0  0
 28 30  2  0  0  0  0
 28 84  1  0  0  0  0
 29 86  1  0  0  0  0
 30 87  1  0  0  0  0
 31 88  1  0  0  0  0
 32 68  2  0  0  0  0
 33 69  1  0  0  0  0
 33 72  1  0  0  0  0
 34 36  2  0  0  0  0
 34 46  1  0  0  0  0
 34 54  1  0  0  0  0
 35 37  2  0  0  0  0
 36 37  1  0  0  0  0
 38 73  1  0  0  0  0
 38 79  2  0  0  0  0
 39 56  1  0  0  0  0
 39 75  1  0  0  0  0
 39 80  2  0  0  0  0
 40 65  1  0  0  0  0
 40 70  1  0  0  0  0
 40 81  2  0  0  0  0
 41 66  1  0  0  0  0
 41 76  1  0  0  0  0
 41 82  2  0  0  0  0
 42 71  1  0  0  0  0
 42 74  1  0  0  0  0
 42 83  2  0  0  0  0
 43 47  1  0  0  0  0
 44 56  1  0  0  0  0
 45 70  1  0  0  0  0
 46 57  1  0  0  0  0
 47 49  1  0  0  0  0
 48 50  1  0  0  0  0
 48 51  1  0  0  0  0
 49 55  1  0  0  0  0
 50 58  1  0  0  0  0
 51 71  1  0  0  0  0
 52 58  1  0  0  0  0
 52 71  1  0  0  0  0
 53 57  1  0  0  0  0
 53 77  1  0  0  0  0
 54 77  1  0  0  0  0
 55 75  1  0  0  0  0
 56 70  1  0  0  0  0
 57 64  1  0  0  0  0
 58 69  1  0  0  0  0
 59 66  1  0  0  0  0
 60 67  1  0  0  0  0
 61 67  1  0  0  0  0
 62 67  1  0  0  0  0
 63 78  1  0  0  0  0
 64 85  1  0  0  0  0
 65 67  1  0  0  0  0
 65 76  1  0  0  0  0
 66 78  1  0  0  0  0
 68 69  1  0  0  0  0
M  CHG  2  77   1  78   1
M  ISO  4  42 100  64 101  74 100  85 101
M  END
> <Batch ID>
0048

> <Smiles>
C=CC=C1CC([101CH2:1][101O:1]c2ccc3c(c2)CN(C(=O)C(NC(=O)C(C)NC)C(C)(C)C)C(C(=O)NC2CCCc4ccccc42)C3)CNC1c1ccc(Cl)cc1[100NH:0][100C:0](=O)N1CCCC(n2nc(-c3ccc(Oc4ccc(F)cc4F)cc3)c(C(N)=O)c2N)C1

> <Shape>
0.213

> <Color>
0.072

> <Negative vol penalty>
0.000

$$$$

  -OEChem-04042322293D

 88 97  0     1  0  0  0  0  0999 V2000
  -28.1509  -36.3787   27.1423 C   0  0  0  0  0  0  0  0  0  0  0  0
  -27.2528  -35.4112   27.5813 C   0  0  0  0  0  0  0  0  0  0  0  0
  -24.4019   -9.1887   21.1683 C   0  0  0  0  0  0  0  0  0  0  0  0
  -22.4263  -10.5785   21.2209 C   0  0  0  0  0  0  0  0  0  0  0  0
  -28.1107  -36.8165   25.8193 C   0  0  0  0  0  0  0  0  0  0  0  0
  -26.3130  -34.8818   26.6975 C   0  0  0  0  0  0  0  0  0  0  0  0
  -26.0776  -27.8129   25.3312 C   0  0  0  0  0  0  0  0  0  0  0  0
  -23.6032   -8.0496   21.2683 C   0  0  0  0  0  0  0  0  0  0  0  0
  -21.6276   -9.4394   21.3209 C   0  0  0  0  0  0  0  0  0  0  0  0
  -25.8321  -26.4481   25.1789 C   0  0  0  0  0  0  0  0  0  0  0  0
  -21.9443   -6.3761   23.6916 C   0  0  0  0  0  0  0  0  0  0  0  0
  -22.3391   -5.3857   24.5909 C   0  0  0  0  0  0  0  0  0  0  0  0
  -24.0698  -26.9311   23.5948 C   0  0  0  0  0  0  0  0  0  0  0  0
  -20.5529  -19.7520   21.2204 C   0  0  0  0  0  0  0  0  0  0  0  0
  -22.4494  -19.9459   23.2571 C   0  0  0  0  0  0  0  0  0  0  0  0
  -22.5006   -3.8008   22.7745 C   0  0  0  0  0  0  0  0  0  0  0  0
  -23.8135  -10.4532   21.1446 C   0  0  0  0  0  0  0  0  0  0  0  0
  -25.5264  -11.9577   20.0000 C   0  0  0  0  0  0  0  0  0  0  0  0
  -27.1763  -36.2852   24.9164 C   0  0  0  0  0  0  0  0  0  0  0  0
  -25.3296  -28.7425   24.6033 C   0  0  0  0  0  0  0  0  0  0  0  0
  -26.2593  -35.3139   25.3615 C   0  0  0  0  0  0  0  0  0  0  0  0
  -24.3197  -28.2989   23.7338 C   0  0  0  0  0  0  0  0  0  0  0  0
  -20.7024  -20.9479   21.9226 C   0  0  0  0  0  0  0  0  0  0  0  0
  -21.3516  -18.6529   21.5366 C   0  0  0  0  0  0  0  0  0  0  0  0
  -21.6507  -21.0449   22.9409 C   0  0  0  0  0  0  0  0  0  0  0  0
  -22.2999  -18.7499   22.5549 C   0  0  0  0  0  0  0  0  0  0  0  0
  -22.2161   -8.1749   21.3446 C   0  0  0  0  0  0  0  0  0  0  0  0
  -24.8305  -26.0083   24.3130 C   0  0  0  0  0  0  0  0  0  0  0  0
  -21.8276   -6.0789   22.3337 C   0  0  0  0  0  0  0  0  0  0  0  0
  -22.6172   -4.0981   24.1324 C   0  0  0  0  0  0  0  0  0  0  0  0
  -22.1058   -4.7913   21.8752 C   0  0  0  0  0  0  0  0  0  0  0  0
  -24.6380  -11.6304   21.0419 C   0  0  0  0  0  0  0  0  0  0  0  0
  -26.0619  -13.1664   20.3725 C   0  0  0  0  0  0  0  0  0  0  0  0
  -20.7896  -22.8560   24.4179 C   0  0  0  0  0  0  0  0  0  0  0  0
  -19.7290  -22.2208   24.9538 C   0  0  0  0  0  0  0  0  0  0  0  0
  -25.8395  -11.2339   18.8026 C   0  0  0  0  0  0  0  0  0  0  0  0
  -24.6958  -32.3522   23.8006 C   0  0  0  0  0  0  0  0  0  0  0  0
  -24.4865  -30.8024   21.1615 C   0  0  0  0  0  0  0  0  0  0  0  0
  -24.7581  -28.7953   18.4165 C   0  0  0  0  0  0  0  0  0  0  0  0
  -24.1046  -17.5923   23.8775 C   0  0  0  0  0  0  0  0  0  0  0  0
  -27.1400  -36.8241   23.5082 C   0  0  0  0  0  0  0  0  0  0  0  0
  -25.5182  -30.2245   24.7821 C   0  0  0  0  0  0  0  0  0  0  0  0
  -23.5168  -29.3363   22.9974 C   0  0  0  0  0  0  0  0  0  0  0  0
  -20.9135  -24.3468   24.6665 C   0  0  0  0  0  0  0  0  0  0  0  0
  -26.3590  -35.9413   22.5381 C   0  0  0  0  0  0  0  0  0  0  0  0
  -22.3455  -24.7699   24.9590 C   0  0  0  0  0  0  0  0  0  0  0  0
  -27.1280  -15.7513   24.2604 C   0  0  0  0  0  0  0  0  0  0  0  0
  -25.0267  -35.5226   23.1517 C   0  0  0  0  0  0  0  0  0  0  0  0
  -26.9159  -14.5184   23.3789 C   0  0  0  0  0  0  0  0  0  0  0  0
  -25.8381  -16.1779   24.9589 C   0  0  0  0  0  0  0  0  0  0  0  0
  -24.4743  -15.1421   23.1879 C   0  0  0  0  0  0  0  0  0  0  0  0
  -23.2028  -22.7586   23.7234 C   0  0  0  0  0  0  0  0  0  0  0  0
  -25.2414  -34.6977   24.4265 C   0  0  1  0  0  0  0  0  0  0  0  0
  -25.3094  -31.0206   23.4814 C   0  0  1  0  0  0  0  0  0  0  0  0
  -25.7309  -14.7135   22.4128 C   0  0  2  0  0  0  0  0  0  0  0  0
  -23.2672  -24.2793   23.8528 C   0  0  2  0  0  0  0  0  0  1  0  0
  -21.1697  -17.3844   20.7682 C   0  0  0  0  0  0  0  0  0  0  0  0
  -24.5818  -28.8464   15.9137 C   0  0  0  0  0  0  0  0  0  0  0  0
  -21.4453  -30.8813   21.3811 C   0  0  0  0  0  0  0  0  0  0  0  0
  -21.3243  -29.9901   19.0446 C   0  0  0  0  0  0  0  0  0  0  0  0
  -22.3889  -32.2037   19.4797 C   0  0  0  0  0  0  0  0  0  0  0  0
  -27.5784  -27.9617   18.0848 C   0  0  0  0  0  0  0  0  0  0  0  0
  -19.8337  -22.1092   21.5631 C   0  0  0  0  0  0  0  0  0  0  0  0
  -23.5898  -30.0918   20.1796 C   0  0  1  0  0  0  0  0  0  0  0  0
  -25.5118  -28.9710   17.1105 C   0  0  2  0  0  0  0  0  0  0  0  0
  -22.2012  -30.7775   20.0414 C   0  0  0  0  0  0  0  0  0  0  0  0
  -24.6082  -12.5563   22.0040 N   0  0  0  0  0  0  0  0  0  0  0  0
  -25.4845  -13.4773   21.5683 N   0  0  0  0  0  0  0  0  0  0  0  0
  -21.8172  -22.2582   23.6682 N   0  0  0  0  0  0  0  0  0  0  0  0
  -24.4047  -30.3986   22.4997 N   0  0  0  0  0  0  0  0  0  0  0  0
  -24.7612  -16.3477   23.9810 N   0  0  0  0  0  0  0  0  0  0  0  0
  -26.9658  -13.9829   19.7905 N   0  0  0  0  0  0  0  0  0  0  0  0
  -25.1983  -10.0085   18.5757 N   0  0  0  0  0  0  0  0  0  0  0  0
  -23.1205  -17.6448   22.8909 N   0  0  0  0  0  0  0  0  0  0  0  0
  -25.6165  -33.3403   24.0929 N   0  0  0  0  0  0  0  0  0  0  0  0
  -24.3397  -30.0041   18.9313 N   0  0  0  0  0  0  0  0  0  0  0  0
  -26.5793  -27.9386   16.9856 N   0  3  0  0  0  0  0  0  0  0  0  0
  -26.6756  -11.6534   17.9668 O   0  0  0  0  0  0  0  0  0  0  0  0
  -23.4768  -32.4758   23.7819 O   0  0  0  0  0  0  0  0  0  0  0  0
  -25.2361  -31.6955   20.7567 O   0  0  0  0  0  0  0  0  0  0  0  0
  -24.5572  -27.6955   18.9268 O   0  0  0  0  0  0  0  0  0  0  0  0
  -24.4127  -18.5499   24.5917 O   0  0  0  0  0  0  0  0  0  0  0  0
  -21.4364   -7.0635   21.4420 O   0  0  0  0  0  0  0  0  0  0  0  0
  -24.5991  -24.6744   24.1657 O   0  0  0  0  0  0  0  0  0  1  0  0
  -22.9978   -3.1475   24.9959 F   0  0  0  0  0  0  0  0  0  0  0  0
  -21.9966   -4.5001   20.5717 F   0  0  0  0  0  0  0  0  0  0  0  0
  -18.6776  -22.0835   22.2750 F   0  0  0  0  0  0  0  0  0  0  0  0
  -19.4826  -22.0587   20.2523 F   0  0  0  0  0  0  0  0  0  0  0  0
  1  2  1  0  0  0  0
  1  5  2  0  0  0  0
  2  6  2  0  0  0  0
  3  8  2  0  0  0  0
  3 17  1  0  0  0  0
  4  9  1  0  0  0  0
  4 17  2  0  0  0  0
  5 19  1  0  0  0  0
  6 21  1  0  0  0  0
  7 10  2  0  0  0  0
  7 20  1  0  0  0  0
  8 27  1  0  0  0  0
  9 27  2  0  0  0  0
 10 28  1  0  0  0  0
 11 12  2  0  0  0  0
 11 29  1  0  0  0  0
 12 30  1  0  0  0  0
 13 22  1  0  0  0  0
 13 28  2  0  0  0  0
 14 23  1  0  0  0  0
 14 24  2  0  0  0  0
 15 25  1  0  0  0  0
 15 26  2  0  0  0  0
 16 30  2  0  0  0  0
 16 31  1  0  0  0  0
 17 32  1  0  0  0  0
 18 32  1  0  0  0  0
 18 33  2  0  0  0  0
 18 36  1  0  0  0  0
 19 21  2  0  0  0  0
 19 41  1  0  0  0  0
 20 22  2  0  0  0  0
 20 42  1  0  0  0  0
 21 53  1  0  0  0  0
 22 43  1  0  0  0  0
 23 25  2  0  0  0  0
 23 63  1  0  0  0  0
 24 26  1  0  0  0  0
 24 57  1  0  0  0  0
 25 69  1  0  0  0  0
 26 74  1  0  0  0  0
 27 83  1  0  0  0  0
 28 84  1  0  0  0  0
 29 31  2  0  0  0  0
 29 83  1  0  0  0  0
 30 85  1  0  0  0  0
 31 86  1  0  0  0  0
 32 67  2  0  0  0  0
 33 68  1  0  0  0  0
 33 72  1  0  0  0  0
 34 35  2  0  0  0  0
 34 44  1  0  0  0  0
 34 69  1  0  0  0  0
 36 73  1  0  0  0  0
 36 78  2  0  0  0  0
 37 54  1  0  0  0  0
 37 75  1  0  0  0  0
 37 79  2  0  0  0  0
 38 64  1  0  0  0  0
 38 70  1  0  0  0  0
 38 80  2  0  0  0  0
 39 65  1  0  0  0  0
 39 76  1  0  0  0  0
 39 81  2  0  0  0  0
 40 71  1  0  0  0  0
 40 74  1  0  0  0  0
 40 82  2  0  0  0  0
 41 45  1  0  0  0  0
 42 54  1  0  0  0  0
 43 70  1  0  0  0  0
 44 46  1  0  0  0  0
 45 48  1  0  0  0  0
 46 56  1  0  0  0  0
 47 49  1  0  0  0  0
 47 50  1  0  0  0  0
 48 53  1  0  0  0  0
 49 55  1  0  0  0  0
 50 71  1  0  0  0  0
 51 55  1  0  0  0  0
 51 71  1  0  0  0  0
 52 56  1  0  0  0  0
 52 69  1  0  0  0  0
 53 75  1  0  0  0  0
 54 70  1  0  0  0  0
 55 68  1  0  0  0  0
 56 84  1  0  0  0  0
 58 65  1  0  0  0  0
 59 66  1  0  0  0  0
 60 66  1  0  0  0  0
 61 66  1  0  0  0  0
 62 77  1  0  0  0  0
 63 87  1  0  0  0  0
 63 88  1  0  0  0  0
 64 66  1  0  0  0  0
 64 76  1  0  0  0  0
 65 77  1  0  0  0  0
 67 68  1  0  0  0  0
M  CHG  1  77   1
M  ISO  4  40 100  56 101  74 100  84 101
M  END
> <Batch ID>
0048

> <Smiles>
C=C1CC[101CH:1]([101O:1]c2ccc3c(c2)CN(C(=O)C(NC(=O)C(C)NC)C(C)(C)C)C(C(=O)NC2CCCc4ccccc42)C3)CN1c1cc([100NH:0][100C:0](=O)N2CCCC(n3nc(-c4ccc(Oc5ccc(F)cc5F)cc4)c(C(N)=O)c3N)C2)c(C)cc1C(F)F

> <Shape>
0.215

> <Color>
0.101

> <Negative vol penalty>
0.000

$$$$

  -OEChem-04042322293D

 87 96  0     1  0  0  0  0  0999 V2000
  -28.1149  -32.9834   26.5432 C   0  0  0  0  0  0  0  0  0  0  0  0
  -28.0991  -31.7007   26.0048 C   0  0  0  0  0  0  0  0  0  0  0  0
  -22.8510  -11.1451   22.3300 C   0  0  0  0  0  0  0  0  0  0  0  0
  -24.8061  -10.0830   23.2716 C   0  0  0  0  0  0  0  0  0  0  0  0
  -26.9453  -33.7418   26.5688 C   0  0  0  0  0  0  0  0  0  0  0  0
  -26.9133  -31.1752   25.4927 C   0  0  0  0  0  0  0  0  0  0  0  0
  -27.5780  -28.8618   21.0373 C   0  0  0  0  0  0  0  0  0  0  0  0
  -31.0524  -20.1161   17.9157 C   0  0  0  0  0  0  0  0  0  0  0  0
  -22.1891  -11.0085   23.5502 C   0  0  0  0  0  0  0  0  0  0  0  0
  -24.1443   -9.9465   24.4918 C   0  0  0  0  0  0  0  0  0  0  0  0
  -28.1271  -27.5805   21.0608 C   0  0  0  0  0  0  0  0  0  0  0  0
  -19.8592  -10.6147   26.3143 C   0  0  0  0  0  0  0  0  0  0  0  0
  -32.0141  -19.1391   17.6585 C   0  0  0  0  0  0  0  0  0  0  0  0
  -18.5420  -10.1566   26.2917 C   0  0  0  0  0  0  0  0  0  0  0  0
  -25.9219  -26.6372   20.8029 C   0  0  0  0  0  0  0  0  0  0  0  0
  -29.5184  -18.4081   18.6683 C   0  0  0  0  0  0  0  0  0  0  0  0
  -19.2721   -8.1093   25.2367 C   0  0  0  0  0  0  0  0  0  0  0  0
  -24.1594  -10.6822   22.1907 C   0  0  0  0  0  0  0  0  0  0  0  0
  -24.4564  -10.2840   19.6885 C   0  0  0  0  0  0  0  0  0  0  0  0
  -25.7468  -33.2291   26.0480 C   0  0  0  0  0  0  0  0  0  0  0  0
  -26.1932  -29.0404   20.9071 C   0  0  0  0  0  0  0  0  0  0  0  0
  -25.7263  -31.9270   25.5126 C   0  0  0  0  0  0  0  0  0  0  0  0
  -25.3580  -27.9219   20.7754 C   0  0  0  0  0  0  0  0  0  0  0  0
  -29.8046  -19.7507   18.4207 C   0  0  0  0  0  0  0  0  0  0  0  0
  -30.4800  -17.4311   18.4111 C   0  0  0  0  0  0  0  0  0  0  0  0
  -22.8358  -10.4092   24.6311 C   0  0  0  0  0  0  0  0  0  0  0  0
  -27.2988  -26.4679   20.9465 C   0  0  0  0  0  0  0  0  0  0  0  0
  -20.8830   -9.8202   25.7981 C   0  0  0  0  0  0  0  0  0  0  0  0
  -18.2484   -8.9039   25.7529 C   0  0  0  0  0  0  0  0  0  0  0  0
  -31.7279  -17.7966   17.9062 C   0  0  0  0  0  0  0  0  0  0  0  0
  -20.5894   -8.5675   25.2594 C   0  0  0  0  0  0  0  0  0  0  0  0
  -24.8434  -10.8225   20.9303 C   0  0  0  0  0  0  0  0  0  0  0  0
  -25.4309  -10.7006   18.8149 C   0  0  0  0  0  0  0  0  0  0  0  0
  -29.2164  -22.9404   19.8408 C   0  0  0  0  0  0  0  0  0  0  0  0
  -23.3177   -9.4794   19.3545 C   0  0  0  0  0  0  0  0  0  0  0  0
  -23.9180  -30.3291   22.7145 C   0  0  0  0  0  0  0  0  0  0  0  0
  -22.0688  -29.7573   20.1114 C   0  0  0  0  0  0  0  0  0  0  0  0
  -21.5553  -27.9491   17.2630 C   0  0  0  0  0  0  0  0  0  0  0  0
  -29.0013  -15.5261   19.1654 C   0  0  0  0  0  0  0  0  0  0  0  0
  -24.4971  -34.0684   26.1408 C   0  0  0  0  0  0  0  0  0  0  0  0
  -25.6193  -30.4298   20.8566 C   0  0  0  0  0  0  0  0  0  0  0  0
  -23.8670  -28.0602   20.6131 C   0  0  0  0  0  0  0  0  0  0  0  0
  -23.3673  -33.5806   25.2375 C   0  0  0  0  0  0  0  0  0  0  0  0
  -29.5062  -21.5039   22.3785 C   0  0  0  0  0  0  0  0  0  0  0  0
  -30.0761  -11.8594   19.5175 C   0  0  0  0  0  0  0  0  0  0  0  0
  -23.1957  -32.0703   25.3656 C   0  0  0  0  0  0  0  0  0  0  0  0
  -29.0954  -22.9633   22.3837 C   0  0  0  0  0  0  0  0  0  0  0  0
  -28.7828  -11.1734   19.0838 C   0  0  0  0  0  0  0  0  0  0  0  0
  -28.9188  -20.8127   21.1632 C   0  0  0  0  0  0  0  0  0  0  0  0
  -30.1881  -13.2778   18.9729 C   0  0  0  0  0  0  0  0  0  0  0  0
  -27.8456  -13.4284   19.8366 C   0  0  0  0  0  0  0  0  0  0  0  0
  -24.4652  -31.3316   24.9250 C   0  0  1  0  0  0  0  0  0  0  0  0
  -29.6437  -23.6399   21.1332 C   0  0  2  0  0  0  0  0  0  0  0  0
  -24.1426  -30.4805   21.2365 C   0  0  1  0  0  0  0  0  0  0  0  0
  -27.5699  -12.1246   19.0715 C   0  0  2  0  0  0  0  0  0  0  0  0
  -19.9375  -27.6834   15.3632 C   0  0  0  0  0  0  0  0  0  0  0  0
  -20.1495  -28.2679   21.9574 C   0  0  0  0  0  0  0  0  0  0  0  0
  -19.1023  -27.2432   19.9272 C   0  0  0  0  0  0  0  0  0  0  0  0
  -19.0393  -29.7163   20.2475 C   0  0  0  0  0  0  0  0  0  0  0  0
  -23.6104  -28.6706   15.2593 C   0  0  0  0  0  0  0  0  0  0  0  0
  -28.7696  -20.8028   18.6967 C   0  0  0  0  0  0  0  0  0  0  0  0
  -29.2483  -25.1161   21.1141 C   0  0  0  0  0  0  0  0  0  1  0  0
  -21.2237  -28.6013   19.6335 C   0  0  1  0  0  0  0  0  0  0  0  0
  -21.2015  -28.3751   15.8496 C   0  0  2  0  0  0  0  0  0  0  0  0
  -19.9066  -28.4542   20.4464 C   0  0  0  0  0  0  0  0  0  0  0  0
  -25.9757  -11.5271   20.8564 N   0  0  0  0  0  0  0  0  0  0  0  0
  -26.3085  -11.4343   19.5576 N   0  0  0  0  0  0  0  0  0  0  0  0
  -29.0652  -21.5533   19.9103 N   0  0  0  0  0  0  0  0  0  0  0  0
  -23.3530  -29.4393   20.5758 N   0  0  0  0  0  0  0  0  0  0  0  0
  -29.0272  -14.1168   19.3041 N   0  0  0  0  0  0  0  0  0  0  0  0
  -25.6143  -10.5070   17.4915 N   0  0  0  0  0  0  0  0  0  0  0  0
  -23.4369   -8.0854   19.4381 N   0  0  0  0  0  0  0  0  0  0  0  0
  -30.1880  -16.0674   18.6640 N   0  0  0  0  0  0  0  0  0  0  0  0
  -24.5501  -31.2896   23.4809 N   0  0  0  0  0  0  0  0  0  0  0  0
  -21.0233  -28.8062   18.2030 N   0  0  0  0  0  0  0  0  0  0  0  0
  -22.3114  -28.0381   14.9138 N   0  3  0  0  0  0  0  0  0  0  0  0
  -29.1130  -23.5829   18.7921 O   0  0  0  0  0  0  0  0  0  0  0  0
  -22.2318   -9.9811   18.9769 O   0  0  0  0  0  0  0  0  0  0  0  0
  -23.2216  -29.4098   23.1287 O   0  0  0  0  0  0  0  0  0  0  0  0
  -21.6092  -30.9012   20.0675 O   0  0  0  0  0  0  0  0  0  0  0  0
  -22.2326  -26.9534   17.5088 O   0  0  0  0  0  0  0  0  0  0  0  0
  -28.0024  -16.1875   19.4566 O   0  0  0  0  0  0  0  0  0  0  0  0
  -22.1904  -10.2761   25.8220 O   0  0  0  0  0  0  0  0  0  0  0  0
  -27.8321  -25.2162   20.9698 O   0  0  0  0  0  0  0  0  0  1  0  0
  -16.9836   -8.4635   25.7326 F   0  0  0  0  0  0  0  0  0  0  0  0
  -32.6597  -16.8661   17.6546 F   0  0  0  0  0  0  0  0  0  0  0  0
  -21.5688   -7.7992   24.7631 F   0  0  0  0  0  0  0  0  0  0  0  0
  1  2  1  0  0  0  0
  1  5  2  0  0  0  0
  2  6  2  0  0  0  0
  3  9  2  0  0  0  0
  3 18  1  0  0  0  0
  4 10  1  0  0  0  0
  4 18  2  0  0  0  0
  5 20  1  0  0  0  0
  6 22  1  0  0  0  0
  7 11  2  0  0  0  0
  7 21  1  0  0  0  0
  8 13  2  0  0  0  0
  8 24  1  0  0  0  0
  9 26  1  0  0  0  0
 10 26  2  0  0  0  0
 11 27  1  0  0  0  0
 12 14  2  0  0  0  0
 12 28  1  0  0  0  0
 13 30  1  0  0  0  0
 14 29  1  0  0  0  0
 15 23  1  0  0  0  0
 15 27  2  0  0  0  0
 16 24  2  0  0  0  0
 16 25  1  0  0  0  0
 17 29  2  0  0  0  0
 17 31  1  0  0  0  0
 18 32  1  0  0  0  0
 19 32  1  0  0  0  0
 19 33  2  0  0  0  0
 19 35  1  0  0  0  0
 20 22  2  0  0  0  0
 20 40  1  0  0  0  0
 21 23  2  0  0  0  0
 21 41  1  0  0  0  0
 22 52  1  0  0  0  0
 23 42  1  0  0  0  0
 24 61  1  0  0  0  0
 25 30  2  0  0  0  0
 25 73  1  0  0  0  0
 26 83  1  0  0  0  0
 27 84  1  0  0  0  0
 28 31  2  0  0  0  0
 28 83  1  0  0  0  0
 29 85  1  0  0  0  0
 30 86  1  0  0  0  0
 31 87  1  0  0  0  0
 32 66  2  0  0  0  0
 33 67  1  0  0  0  0
 33 71  1  0  0  0  0
 34 53  1  0  0  0  0
 34 68  1  0  0  0  0
 34 77  2  0  0  0  0
 35 72  1  0  0  0  0
 35 78  2  0  0  0  0
 36 54  1  0  0  0  0
 36 74  1  0  0  0  0
 36 79  2  0  0  0  0
 37 63  1  0  0  0  0
 37 69  1  0  0  0  0
 37 80  2  0  0  0  0
 38 64  1  0  0  0  0
 38 75  1  0  0  0  0
 38 81  2  0  0  0  0
 39 70  1  0  0  0  0
 39 73  1  0  0  0  0
 39 82  2  0  0  0  0
 40 43  1  0  0  0  0
 41 54  1  0  0  0  0
 42 69  1  0  0  0  0
 43 46  1  0  0  0  0
 44 47  1  0  0  0  0
 44 49  1  0  0  0  0
 45 48  1  0  0  0  0
 45 50  1  0  0  0  0
 46 52  1  0  0  0  0
 47 53  1  0  0  0  0
 48 55  1  0  0  0  0
 49 68  1  0  0  0  0
 50 70  1  0  0  0  0
 51 55  1  0  0  0  0
 51 70  1  0  0  0  0
 52 74  1  0  0  0  0
 53 62  1  0  0  0  0
 54 69  1  0  0  0  0
 55 67  1  0  0  0  0
 56 64  1  0  0  0  0
 57 65  1  0  0  0  0
 58 65  1  0  0  0  0
 59 65  1  0  0  0  0
 60 76  1  0  0  0  0
 61 68  1  0  0  0  0
 62 84  1  0  0  0  0
 63 65  1  0  0  0  0
 63 75  1  0  0  0  0
 64 76  1  0  0  0  0
 66 67  1  0  0  0  0
M  CHG  1  76   1
M  ISO  4  39 100  62 101  73 100  84 101
M  END
> <Batch ID>
0048

> <Smiles>
CNC(C)C(=O)NC(C(=O)N1Cc2cc([101O:1][101CH2:1]C3CCCN(Cc4ccc(F)c([100NH:0][100C:0](=O)N5CCCC(n6nc(-c7ccc(Oc8ccc(F)cc8F)cc7)c(C(N)=O)c6N)C5)c4)C3=O)ccc2CC1C(=O)NC1CCCc2ccccc21)C(C)(C)C

> <Shape>
0.266

> <Color>
0.076

> <Negative vol penalty>
0.000

$$$$

  -OEChem-04042322293D

 87 96  0     1  0  0  0  0  0999 V2000
  -23.7837  -21.8470   18.1446 C   0  0  0  0  0  0  0  0  0  0  0  0
  -24.6744  -20.9726   17.5302 C   0  0  0  0  0  0  0  0  0  0  0  0
  -27.9994  -26.2538   20.0846 C   0  0  0  0  0  0  0  0  0  0  0  0
  -26.3410  -24.8088   19.0852 C   0  0  0  0  0  0  0  0  0  0  0  0
  -23.3920  -21.6278   19.4646 C   0  0  0  0  0  0  0  0  0  0  0  0
  -25.1747  -19.8789   18.2360 C   0  0  0  0  0  0  0  0  0  0  0  0
  -27.3083  -13.1098   17.2645 C   0  0  0  0  0  0  0  0  0  0  0  0
  -31.8152  -14.5029   22.4242 C   0  0  0  0  0  0  0  0  0  0  0  0
  -30.6888  -15.2159   22.8344 C   0  0  0  0  0  0  0  0  0  0  0  0
  -27.2081  -27.3645   19.7919 C   0  0  0  0  0  0  0  0  0  0  0  0
  -25.5496  -25.9196   18.7925 C   0  0  0  0  0  0  0  0  0  0  0  0
  -28.3917  -12.2734   17.5299 C   0  0  0  0  0  0  0  0  0  0  0  0
  -24.4673  -28.8769   21.0701 C   0  0  0  0  0  0  0  0  0  0  0  0
  -24.3000  -29.8352   22.0697 C   0  0  0  0  0  0  0  0  0  0  0  0
  -27.5832  -11.9500   19.7795 C   0  0  0  0  0  0  0  0  0  0  0  0
  -31.6846  -15.5474   20.2496 C   0  0  0  0  0  0  0  0  0  0  0  0
  -25.2897  -31.5066   20.6331 C   0  0  0  0  0  0  0  0  0  0  0  0
  -27.5659  -24.9759   19.7312 C   0  0  0  0  0  0  0  0  0  0  0  0
  -28.8088  -23.3982   21.3039 C   0  0  0  0  0  0  0  0  0  0  0  0
  -23.8803  -20.5256   20.1837 C   0  0  0  0  0  0  0  0  0  0  0  0
  -26.3585  -13.3818   18.2597 C   0  0  0  0  0  0  0  0  0  0  0  0
  -24.7902  -19.6455   19.5673 C   0  0  0  0  0  0  0  0  0  0  0  0
  -26.4873  -12.7881   19.5235 C   0  0  0  0  0  0  0  0  0  0  0  0
  -32.3131  -14.6686   21.1318 C   0  0  0  0  0  0  0  0  0  0  0  0
  -30.0602  -16.0947   21.9522 C   0  0  0  0  0  0  0  0  0  0  0  0
  -30.5581  -16.2605   20.6598 C   0  0  0  0  0  0  0  0  0  0  0  0
  -25.9832  -27.1974   19.1459 C   0  0  0  0  0  0  0  0  0  0  0  0
  -28.5309  -11.6956   18.7884 C   0  0  0  0  0  0  0  0  0  0  0  0
  -25.0459  -29.2334   19.8520 C   0  0  0  0  0  0  0  0  0  0  0  0
  -24.7112  -31.1500   21.8512 C   0  0  0  0  0  0  0  0  0  0  0  0
  -25.4571  -30.5482   19.6335 C   0  0  0  0  0  0  0  0  0  0  0  0
  -28.3831  -23.8282   20.0328 C   0  0  0  0  0  0  0  0  0  0  0  0
  -29.5542  -22.2720   21.0535 C   0  0  0  0  0  0  0  0  0  0  0  0
  -32.2979  -11.8078   20.2369 C   0  0  0  0  0  0  0  0  0  0  0  0
  -28.5533  -23.9658   22.5955 C   0  0  0  0  0  0  0  0  0  0  0  0
  -25.3750  -16.0025   19.7657 C   0  0  0  0  0  0  0  0  0  0  0  0
  -23.1828  -13.9780   21.0377 C   0  0  0  0  0  0  0  0  0  0  0  0
  -22.3274  -10.7777   21.8583 C   0  0  0  0  0  0  0  0  0  0  0  0
  -30.3153  -17.4173   18.4351 C   0  0  0  0  0  0  0  0  0  0  0  0
  -23.4648  -20.3564   21.6237 C   0  0  0  0  0  0  0  0  0  0  0  0
  -25.1811  -14.2649   17.9494 C   0  0  0  0  0  0  0  0  0  0  0  0
  -25.4841  -13.0319   20.6201 C   0  0  0  0  0  0  0  0  0  0  0  0
  -23.7503  -18.9641   22.1805 C   0  0  0  0  0  0  0  0  0  0  0  0
  -33.7958  -11.5940   17.6734 C   0  0  0  0  0  0  0  0  0  0  0  0
  -31.2830  -20.3682   16.6936 C   0  0  0  0  0  0  0  0  0  0  0  0
  -25.1631  -18.5216   21.8130 C   0  0  0  0  0  0  0  0  0  0  0  0
  -33.2409  -10.3916   18.4222 C   0  0  0  0  0  0  0  0  0  0  0  0
  -30.6498  -21.4961   17.5117 C   0  0  0  0  0  0  0  0  0  0  0  0
  -33.6167  -12.9150   18.4165 C   0  0  0  0  0  0  0  0  0  0  0  0
  -30.3848  -19.1337   16.6395 C   0  0  0  0  0  0  0  0  0  0  0  0
  -29.3061  -19.7602   18.7639 C   0  0  0  0  0  0  0  0  0  0  0  0
  -25.3357  -18.4341   20.2918 C   0  0  1  0  0  0  0  0  0  0  0  0
  -31.9815  -10.7296   19.2129 C   0  0  2  0  0  0  0  0  0  0  0  0
  -24.5525  -14.8821   19.1948 C   0  0  1  0  0  0  0  0  0  0  0  0
  -30.2025  -21.0017   18.9013 C   0  0  2  0  0  0  0  0  0  0  0  0
  -28.8548  -16.8448   22.4186 C   0  0  0  0  0  0  0  0  0  0  0  0
  -20.4882   -9.4410   22.9203 C   0  0  0  0  0  0  0  0  0  0  0  0
  -24.0784  -14.9384   23.7919 C   0  0  0  0  0  0  0  0  0  0  0  0
  -22.9333  -12.9445   24.7826 C   0  0  0  0  0  0  0  0  0  0  0  0
  -21.6067  -14.6526   23.5395 C   0  0  0  0  0  0  0  0  0  0  0  0
  -21.8744   -9.2183   19.3840 C   0  0  0  0  0  0  0  0  0  0  0  0
  -33.5258  -13.9007   20.6912 C   0  0  0  0  0  0  0  0  0  0  0  0
  -30.7988  -11.1370   18.3408 C   0  0  0  0  0  0  0  0  0  1  0  0
  -23.1278  -13.0915   22.2584 C   0  0  1  0  0  0  0  0  0  0  0  0
  -21.0577   -9.9813   21.6178 C   0  0  2  0  0  0  0  0  0  0  0  0
  -22.9567  -13.9035   23.5732 C   0  0  0  0  0  0  0  0  0  0  0  0
  -28.8217  -23.0396   19.0481 N   0  0  0  0  0  0  0  0  0  0  0  0
  -29.5308  -22.1028   19.7004 N   0  0  0  0  0  0  0  0  0  0  0  0
  -33.1803  -12.7981   19.8059 N   0  0  0  0  0  0  0  0  0  0  0  0
  -24.3538  -13.9078   20.2697 N   0  0  0  0  0  0  0  0  0  0  0  0
  -30.0045  -18.7203   17.9921 N   0  0  0  0  0  0  0  0  0  0  0  0
  -30.2208  -21.4200   21.8610 N   0  0  0  0  0  0  0  0  0  0  0  0
  -27.4215  -23.5367   23.3019 N   0  0  0  0  0  0  0  0  0  0  0  0
  -29.9340  -17.1489   19.7494 N   0  0  0  0  0  0  0  0  0  0  0  0
  -24.7277  -17.2233   19.7830 N   0  0  0  0  0  0  0  0  0  0  0  0
  -22.0653  -12.1227   22.0118 N   0  0  0  0  0  0  0  0  0  0  0  0
  -21.3319   -8.8304   20.7115 N   0  3  0  0  0  0  0  0  0  0  0  0
  -31.7705  -11.7741   21.3503 O   0  0  0  0  0  0  0  0  0  0  0  0
  -29.2975  -24.8401   23.1009 O   0  0  0  0  0  0  0  0  0  0  0  0
  -26.5120  -15.7759   20.1624 O   0  0  0  0  0  0  0  0  0  0  0  0
  -22.2193  -14.7007   20.7712 O   0  0  0  0  0  0  0  0  0  0  0  0
  -23.4401  -10.2582   21.9089 O   0  0  0  0  0  0  0  0  0  0  0  0
  -30.9026  -16.6087   17.7118 O   0  0  0  0  0  0  0  0  0  0  0  0
  -25.2106  -28.2810   18.8603 O   0  0  0  0  0  0  0  0  0  0  0  0
  -29.5877  -10.8794   19.0503 O   0  0  0  0  0  0  0  0  0  1  0  0
  -24.5490  -32.0705   22.8107 F   0  0  0  0  0  0  0  0  0  0  0  0
  -26.0125  -30.8970   18.4648 F   0  0  0  0  0  0  0  0  0  0  0  0
  1  2  1  0  0  0  0
  1  5  2  0  0  0  0
  2  6  2  0  0  0  0
  3 10  2  0  0  0  0
  3 18  1  0  0  0  0
  4 11  1  0  0  0  0
  4 18  2  0  0  0  0
  5 20  1  0  0  0  0
  6 22  1  0  0  0  0
  7 12  2  0  0  0  0
  7 21  1  0  0  0  0
  8  9  2  0  0  0  0
  8 24  1  0  0  0  0
  9 25  1  0  0  0  0
 10 27  1  0  0  0  0
 11 27  2  0  0  0  0
 12 28  1  0  0  0  0
 13 14  2  0  0  0  0
 13 29  1  0  0  0  0
 14 30  1  0  0  0  0
 15 23  1  0  0  0  0
 15 28  2  0  0  0  0
 16 24  2  0  0  0  0
 16 26  1  0  0  0  0
 17 30  2  0  0  0  0
 17 31  1  0  0  0  0
 18 32  1  0  0  0  0
 19 32  1  0  0  0  0
 19 33  2  0  0  0  0
 19 35  1  0  0  0  0
 20 22  2  0  0  0  0
 20 40  1  0  0  0  0
 21 23  2  0  0  0  0
 21 41  1  0  0  0  0
 22 52  1  0  0  0  0
 23 42  1  0  0  0  0
 24 62  1  0  0  0  0
 25 26  2  0  0  0  0
 25 56  1  0  0  0  0
 26 74  1  0  0  0  0
 27 84  1  0  0  0  0
 28 85  1  0  0  0  0
 29 31  2  0  0  0  0
 29 84  1  0  0  0  0
 30 86  1  0  0  0  0
 31 87  1  0  0  0  0
 32 67  2  0  0  0  0
 33 68  1  0  0  0  0
 33 72  1  0  0  0  0
 34 53  1  0  0  0  0
 34 69  1  0  0  0  0
 34 78  2  0  0  0  0
 35 73  1  0  0  0  0
 35 79  2  0  0  0  0
 36 54  1  0  0  0  0
 36 75  1  0  0  0  0
 36 80  2  0  0  0  0
 37 64  1  0  0  0  0
 37 70  1  0  0  0  0
 37 81  2  0  0  0  0
 38 65  1  0  0  0  0
 38 76  1  0  0  0  0
 38 82  2  0  0  0  0
 39 71  1  0  0  0  0
 39 74  1  0  0  0  0
 39 83  2  0  0  0  0
 40 43  1  0  0  0  0
 41 54  1  0  0  0  0
 42 70  1  0  0  0  0
 43 46  1  0  0  0  0
 44 47  1  0  0  0  0
 44 49  1  0  0  0  0
 45 48  1  0  0  0  0
 45 50  1  0  0  0  0
 46 52  1  0  0  0  0
 47 53  1  0  0  0  0
 48 55  1  0  0  0  0
 49 69  1  0  0  0  0
 50 71  1  0  0  0  0
 51 55  1  0  0  0  0
 51 71  1  0  0  0  0
 52 75  1  0  0  0  0
 53 63  1  0  0  0  0
 54 70  1  0  0  0  0
 55 68  1  0  0  0  0
 57 65  1  0  0  0  0
 58 66  1  0  0  0  0
 59 66  1  0  0  0  0
 60 66  1  0  0  0  0
 61 77  1  0  0  0  0
 62 69  1  0  0  0  0
 63 85  1  0  0  0  0
 64 66  1  0  0  0  0
 64 76  1  0  0  0  0
 65 77  1  0  0  0  0
 67 68  1  0  0  0  0
M  CHG  1  77   1
M  ISO  4  39 100  63 101  74 100  85 101
M  END
> <Batch ID>
0048

> <Smiles>
CNC(C)C(=O)NC(C(=O)N1Cc2cc([101O:1][101CH2:1]C3CCCN(Cc4ccc(C)c([100NH:0][100C:0](=O)N5CCCC(n6nc(-c7ccc(Oc8ccc(F)cc8F)cc7)c(C(N)=O)c6N)C5)c4)C3=O)ccc2CC1C(=O)NC1CCCc2ccccc21)C(C)(C)C

> <Shape>
0.242

> <Color>
0.072

> <Negative vol penalty>
0.000

$$$$

  -OEChem-04042322293D

 86 94  0     1  0  0  0  0  0999 V2000
  -21.7711  -20.4161   27.9950 C   0  0  0  0  0  0  0  0  0  0  0  0
  -23.0522  -20.7033   27.5348 C   0  0  0  0  0  0  0  0  0  0  0  0
  -25.4771  -15.1766   21.6768 C   0  0  0  0  0  0  0  0  0  0  0  0
  -24.9943  -16.2884   19.5868 C   0  0  0  0  0  0  0  0  0  0  0  0
  -20.6602  -20.7926   27.2413 C   0  0  0  0  0  0  0  0  0  0  0  0
  -23.2231  -21.3663   26.3200 C   0  0  0  0  0  0  0  0  0  0  0  0
  -27.5797  -26.0338   23.0718 C   0  0  0  0  0  0  0  0  0  0  0  0
  -34.6495  -23.4368   19.2082 C   0  0  0  0  0  0  0  0  0  0  0  0
  -24.2526  -14.5123   21.6063 C   0  0  0  0  0  0  0  0  0  0  0  0
  -23.7698  -15.6241   19.5163 C   0  0  0  0  0  0  0  0  0  0  0  0
  -28.3240  -26.1778   21.9018 C   0  0  0  0  0  0  0  0  0  0  0  0
  -22.9522  -11.8522   19.9736 C   0  0  0  0  0  0  0  0  0  0  0  0
  -34.5703  -23.7710   17.8563 C   0  0  0  0  0  0  0  0  0  0  0  0
  -22.9381  -10.4868   20.2584 C   0  0  0  0  0  0  0  0  0  0  0  0
  -26.3296  -26.8503   20.7230 C   0  0  0  0  0  0  0  0  0  0  0  0
  -21.3989  -10.8822   22.0781 C   0  0  0  0  0  0  0  0  0  0  0  0
  -25.8479  -16.0647   20.6671 C   0  0  0  0  0  0  0  0  0  0  0  0
  -28.3473  -16.3162   20.2226 C   0  0  0  0  0  0  0  0  0  0  0  0
  -20.8173  -21.4691   26.0214 C   0  0  0  0  0  0  0  0  0  0  0  0
  -26.2004  -26.2868   23.0737 C   0  0  0  0  0  0  0  0  0  0  0  0
  -22.1133  -21.7510   25.5487 C   0  0  0  0  0  0  0  0  0  0  0  0
  -25.5706  -26.7112   21.8950 C   0  0  0  0  0  0  0  0  0  0  0  0
  -33.5364  -22.9090   19.8626 C   0  0  0  0  0  0  0  0  0  0  0  0
  -32.2648  -23.0498   17.8131 C   0  0  0  0  0  0  0  0  0  0  0  0
  -32.3440  -22.7156   19.1650 C   0  0  0  0  0  0  0  0  0  0  0  0
  -23.3990  -14.7360   20.5260 C   0  0  0  0  0  0  0  0  0  0  0  0
  -27.6985  -26.5834   20.7265 C   0  0  0  0  0  0  0  0  0  0  0  0
  -22.1897  -12.7326   20.7412 C   0  0  0  0  0  0  0  0  0  0  0  0
  -22.1614  -10.0018   21.3106 C   0  0  0  0  0  0  0  0  0  0  0  0
  -33.3780  -23.5775   17.1588 C   0  0  0  0  0  0  0  0  0  0  0  0
  -21.4130  -12.2476   21.7934 C   0  0  0  0  0  0  0  0  0  0  0  0
  -27.1124  -16.7516   20.7397 C   0  0  0  0  0  0  0  0  0  0  0  0
  -29.2289  -17.3171   20.5504 C   0  0  0  0  0  0  0  0  0  0  0  0
  -28.6687  -15.1145   19.5096 C   0  0  0  0  0  0  0  0  0  0  0  0
  -23.6018  -24.5491   23.6494 C   0  0  0  0  0  0  0  0  0  0  0  0
  -22.0973  -27.4060   23.3381 C   0  0  0  0  0  0  0  0  0  0  0  0
  -29.3751  -24.6462   17.7086 C   0  0  0  0  0  0  0  0  0  0  0  0
  -22.1263  -30.5721   22.0644 C   0  0  0  0  0  0  0  0  0  0  0  0
  -30.5495  -22.7127   20.9330 C   0  0  0  0  0  0  0  0  0  0  0  0
  -19.5878  -21.8139   25.2189 C   0  0  0  0  0  0  0  0  0  0  0  0
  -25.4166  -26.1526   24.3504 C   0  0  0  0  0  0  0  0  0  0  0  0
  -24.0961  -27.0150   21.8489 C   0  0  0  0  0  0  0  0  0  0  0  0
  -19.8449  -22.8455   24.1234 C   0  0  0  0  0  0  0  0  0  0  0  0
  -28.6925  -21.3030   23.6240 C   0  0  0  0  0  0  0  0  0  0  0  0
  -21.1037  -22.4888   23.3391 C   0  0  0  0  0  0  0  0  0  0  0  0
  -28.2175  -19.9574   23.0710 C   0  0  0  0  0  0  0  0  0  0  0  0
  -28.6908  -22.3898   22.5505 C   0  0  0  0  0  0  0  0  0  0  0  0
  -28.9485  -20.7062   20.7706 C   0  0  0  0  0  0  0  0  0  0  0  0
  -22.3389  -22.4906   24.2478 C   0  0  1  0  0  0  0  0  0  0  0  0
  -23.9241  -25.9406   24.1158 C   0  0  1  0  0  0  0  0  0  0  0  0
  -28.9949  -19.5646   21.7994 C   0  0  2  0  0  0  0  0  0  0  0  0
  -33.6528  -22.5606   21.3113 C   0  0  0  0  0  0  0  0  0  0  0  0
  -20.7401  -32.6606   21.9462 C   0  0  0  0  0  0  0  0  0  0  0  0
  -20.2928  -26.0879   21.2605 C   0  0  0  0  0  0  0  0  0  0  0  0
  -19.6011  -28.3748   20.5123 C   0  0  0  0  0  0  0  0  0  0  0  0
  -19.1135  -27.6258   22.8412 C   0  0  0  0  0  0  0  0  0  0  0  0
  -30.6320  -24.7787   15.5467 C   0  0  0  0  0  0  0  0  0  0  0  0
  -24.2014  -32.1665   23.4466 C   0  0  0  0  0  0  0  0  0  0  0  0
  -30.9934  -22.8520   17.0393 C   0  0  0  0  0  0  0  0  0  0  0  0
  -28.7333  -25.9725   17.3147 C   0  0  0  0  0  0  0  0  0  0  0  0
  -27.7425  -26.4889   18.3505 C   0  0  0  0  0  0  0  0  0  1  0  0
  -21.4933  -28.1766   22.1890 C   0  0  1  0  0  0  0  0  0  0  0  0
  -21.8301  -31.9173   22.7025 C   0  0  2  0  0  0  0  0  0  0  0  0
  -20.1526  -27.5587   21.7008 C   0  0  0  0  0  0  0  0  0  0  0  0
  -27.1979  -17.9367   21.3498 N   0  0  0  0  0  0  0  0  0  0  0  0
  -28.4971  -18.2545   21.2182 N   0  0  0  0  0  0  0  0  0  0  0  0
  -23.3717  -26.8629   23.1216 N   0  0  0  0  0  0  0  0  0  0  0  0
  -29.4495  -21.9492   21.3779 N   0  0  0  0  0  0  0  0  0  0  0  0
  -30.5509  -17.4780   20.3298 N   0  0  0  0  0  0  0  0  0  0  0  0
  -27.6434  -14.1930   19.2571 N   0  0  0  0  0  0  0  0  0  0  0  0
  -31.2138  -22.1783   19.8295 N   0  0  0  0  0  0  0  0  0  0  0  0
  -22.7752  -23.8463   24.5050 N   0  0  0  0  0  0  0  0  0  0  0  0
  -21.3851  -29.5606   22.6377 N   0  0  0  0  0  0  0  0  0  0  0  0
  -30.2970  -24.1141   16.8002 N   0  0  0  0  0  0  0  0  0  0  0  0
  -23.0554  -32.7655   22.7153 N   0  3  0  0  0  0  0  0  0  0  0  0
  -29.8340  -14.8577   19.1227 O   0  0  0  0  0  0  0  0  0  0  0  0
  -24.0674  -24.1437   22.5908 O   0  0  0  0  0  0  0  0  0  0  0  0
  -21.4649  -27.2963   24.3915 O   0  0  0  0  0  0  0  0  0  0  0  0
  -29.0794  -24.0981   18.7736 O   0  0  0  0  0  0  0  0  0  0  0  0
  -22.9316  -30.4331   21.1465 O   0  0  0  0  0  0  0  0  0  0  0  0
  -30.8945  -23.7490   21.5066 O   0  0  0  0  0  0  0  0  0  0  0  0
  -22.2042  -14.0878   20.4568 O   0  0  0  0  0  0  0  0  0  0  0  0
  -28.4225  -26.7241   19.5829 O   0  0  0  0  0  0  0  0  0  1  0  0
  -22.1468   -8.6904   21.5829 F   0  0  0  0  0  0  0  0  0  0  0  0
  -33.3129  -23.9018   15.8598 F   0  0  0  0  0  0  0  0  0  0  0  0
  -20.6775  -13.0884   22.5336 F   0  0  0  0  0  0  0  0  0  0  0  0
  1  2  1  0  0  0  0
  1  5  2  0  0  0  0
  2  6  2  0  0  0  0
  3  9  2  0  0  0  0
  3 17  1  0  0  0  0
  4 10  1  0  0  0  0
  4 17  2  0  0  0  0
  5 19  1  0  0  0  0
  6 21  1  0  0  0  0
  7 11  2  0  0  0  0
  7 20  1  0  0  0  0
  8 13  1  0  0  0  0
  8 23  2  0  0  0  0
  9 26  1  0  0  0  0
 10 26  2  0  0  0  0
 11 27  1  0  0  0  0
 12 14  2  0  0  0  0
 12 28  1  0  0  0  0
 13 30  2  0  0  0  0
 14 29  1  0  0  0  0
 15 22  1  0  0  0  0
 15 27  2  0  0  0  0
 16 29  2  0  0  0  0
 16 31  1  0  0  0  0
 17 32  1  0  0  0  0
 18 32  1  0  0  0  0
 18 33  2  0  0  0  0
 18 34  1  0  0  0  0
 19 21  2  0  0  0  0
 19 40  1  0  0  0  0
 20 22  2  0  0  0  0
 20 41  1  0  0  0  0
 21 49  1  0  0  0  0
 22 42  1  0  0  0  0
 23 25  1  0  0  0  0
 23 52  1  0  0  0  0
 24 25  2  0  0  0  0
 24 30  1  0  0  0  0
 24 59  1  0  0  0  0
 25 71  1  0  0  0  0
 26 82  1  0  0  0  0
 27 83  1  0  0  0  0
 28 31  2  0  0  0  0
 28 82  1  0  0  0  0
 29 84  1  0  0  0  0
 30 85  1  0  0  0  0
 31 86  1  0  0  0  0
 32 65  2  0  0  0  0
 33 66  1  0  0  0  0
 33 69  1  0  0  0  0
 34 70  1  0  0  0  0
 34 76  2  0  0  0  0
 35 50  1  0  0  0  0
 35 72  1  0  0  0  0
 35 77  2  0  0  0  0
 36 62  1  0  0  0  0
 36 67  1  0  0  0  0
 36 78  2  0  0  0  0
 37 60  1  0  0  0  0
 37 74  1  0  0  0  0
 37 79  2  0  0  0  0
 38 63  1  0  0  0  0
 38 73  1  0  0  0  0
 38 80  2  0  0  0  0
 39 68  1  0  0  0  0
 39 71  1  0  0  0  0
 39 81  2  0  0  0  0
 40 43  1  0  0  0  0
 41 50  1  0  0  0  0
 42 67  1  0  0  0  0
 43 45  1  0  0  0  0
 44 46  1  0  0  0  0
 44 47  1  0  0  0  0
 45 49  1  0  0  0  0
 46 51  1  0  0  0  0
 47 68  1  0  0  0  0
 48 51  1  0  0  0  0
 48 68  1  0  0  0  0
 49 72  1  0  0  0  0
 50 67  1  0  0  0  0
 51 66  1  0  0  0  0
 53 63  1  0  0  0  0
 54 64  1  0  0  0  0
 55 64  1  0  0  0  0
 56 64  1  0  0  0  0
 57 74  1  0  0  0  0
 58 75  1  0  0  0  0
 59 74  1  0  0  0  0
 60 61  1  0  0  0  0
 61 83  1  0  0  0  0
 62 64  1  0  0  0  0
 62 73  1  0  0  0  0
 63 75  1  0  0  0  0
 65 66  1  0  0  0  0
M  CHG  1  75   1
M  ISO  4  39 100  61 101  71 100  83 101
M  END
> <Batch ID>
0048

> <Smiles>
CNC(C)C(=O)NC(C(=O)N1Cc2cc([101O:1][101CH2:1]CC(=O)N(C)Cc3c(F)ccc(C)c3[100NH:0][100C:0](=O)N3CCCC(n4nc(-c5ccc(Oc6ccc(F)cc6F)cc5)c(C(N)=O)c4N)C3)ccc2CC1C(=O)NC1CCCc2ccccc21)C(C)(C)C

> <Shape>
0.212

> <Color>
0.070

> <Negative vol penalty>
0.000

$$$$

  -OEChem-04042322293D

 85 93  0     1  0  0  0  0  0999 V2000
  -21.6792  -15.1075   23.8858 C   0  0  0  0  0  0  0  0  0  0  0  0
  -22.9571  -15.5247   24.2439 C   0  0  0  0  0  0  0  0  0  0  0  0
  -23.3219   -9.7737   19.9004 C   0  0  0  0  0  0  0  0  0  0  0  0
  -23.7004   -9.9471   22.2803 C   0  0  0  0  0  0  0  0  0  0  0  0
  -20.7378  -16.0410   23.4539 C   0  0  0  0  0  0  0  0  0  0  0  0
  -23.2948  -16.8756   24.1692 C   0  0  0  0  0  0  0  0  0  0  0  0
  -25.8173  -18.4763   28.2582 C   0  0  0  0  0  0  0  0  0  0  0  0
  -33.5931  -15.9119   21.6109 C   0  0  0  0  0  0  0  0  0  0  0  0
  -33.6388  -17.2717   21.9183 C   0  0  0  0  0  0  0  0  0  0  0  0
  -22.5942   -8.6009   20.1016 C   0  0  0  0  0  0  0  0  0  0  0  0
  -22.9725   -8.7743   22.4815 C   0  0  0  0  0  0  0  0  0  0  0  0
  -27.1704  -18.1500   28.3398 C   0  0  0  0  0  0  0  0  0  0  0  0
  -20.9088   -6.0214   23.6565 C   0  0  0  0  0  0  0  0  0  0  0  0
  -19.9756   -6.0062   24.6931 C   0  0  0  0  0  0  0  0  0  0  0  0
  -27.7444  -20.3647   27.5750 C   0  0  0  0  0  0  0  0  0  0  0  0
  -33.1156  -15.4050   23.9244 C   0  0  0  0  0  0  0  0  0  0  0  0
  -18.7891   -7.8351   23.6517 C   0  0  0  0  0  0  0  0  0  0  0  0
  -23.8751  -10.4468   20.9898 C   0  0  0  0  0  0  0  0  0  0  0  0
  -24.1306  -12.9751   20.7658 C   0  0  0  0  0  0  0  0  0  0  0  0
  -21.0612  -17.4052   23.3832 C   0  0  0  0  0  0  0  0  0  0  0  0
  -25.4168  -19.7478   27.8232 C   0  0  0  0  0  0  0  0  0  0  0  0
  -22.3573  -17.8280   23.7347 C   0  0  0  0  0  0  0  0  0  0  0  0
  -26.3857  -20.7054   27.4912 C   0  0  0  0  0  0  0  0  0  0  0  0
  -33.3314  -14.9786   22.6140 C   0  0  0  0  0  0  0  0  0  0  0  0
  -33.4230  -17.6982   23.2287 C   0  0  0  0  0  0  0  0  0  0  0  0
  -33.1614  -16.7648   24.2318 C   0  0  0  0  0  0  0  0  0  0  0  0
  -22.4194   -8.1012   21.3921 C   0  0  0  0  0  0  0  0  0  0  0  0
  -28.1341  -19.0933   27.9954 C   0  0  0  0  0  0  0  0  0  0  0  0
  -20.7822   -6.9436   22.6176 C   0  0  0  0  0  0  0  0  0  0  0  0
  -18.9157   -6.9130   24.6907 C   0  0  0  0  0  0  0  0  0  0  0  0
  -19.7224   -7.8504   22.6152 C   0  0  0  0  0  0  0  0  0  0  0  0
  -24.6275  -11.6580   20.7826 C   0  0  0  0  0  0  0  0  0  0  0  0
  -25.2362  -13.7562   20.5339 C   0  0  0  0  0  0  0  0  0  0  0  0
  -31.4958  -18.5141   26.9150 C   0  0  0  0  0  0  0  0  0  0  0  0
  -22.7895  -13.4499   20.9440 C   0  0  0  0  0  0  0  0  0  0  0  0
  -23.7176  -20.8480   25.3725 C   0  0  0  0  0  0  0  0  0  0  0  0
  -24.0536  -23.6816   26.9151 C   0  0  0  0  0  0  0  0  0  0  0  0
  -25.8361  -25.5912   29.1113 C   0  0  0  0  0  0  0  0  0  0  0  0
  -30.9679  -12.8923   21.6548 C   0  0  0  0  0  0  0  0  0  0  0  0
  -20.0249  -18.3709   22.8653 C   0  0  0  0  0  0  0  0  0  0  0  0
  -23.9539  -20.0929   27.7662 C   0  0  0  0  0  0  0  0  0  0  0  0
  -26.0084  -22.0912   27.0377 C   0  0  0  0  0  0  0  0  0  0  0  0
  -20.3463  -19.8314   23.1718 C   0  0  0  0  0  0  0  0  0  0  0  0
  -29.5283  -13.6380   18.4192 C   0  0  0  0  0  0  0  0  0  0  0  0
  -21.8032  -20.1384   22.8399 C   0  0  0  0  0  0  0  0  0  0  0  0
  -28.0494  -13.3353   18.6673 C   0  0  0  0  0  0  0  0  0  0  0  0
  -30.4262  -12.6491   19.1568 C   0  0  0  0  0  0  0  0  0  0  0  0
  -28.7008  -12.2651   20.8742 C   0  0  0  0  0  0  0  0  0  0  0  0
  -22.7539  -19.2877   23.6909 C   0  0  1  0  0  0  0  0  0  0  0  0
  -23.6492  -21.2492   26.8188 C   0  0  1  0  0  0  0  0  0  0  0  0
  -27.7411  -13.2440   20.1736 C   0  0  2  0  0  0  0  0  0  0  0  0
  -33.4781  -19.1591   23.5340 C   0  0  0  0  0  0  0  0  0  0  0  0
  -25.8877  -27.8790   30.1413 C   0  0  0  0  0  0  0  0  0  0  0  0
  -25.1508  -24.8277   24.3088 C   0  0  0  0  0  0  0  0  0  0  0  0
  -26.0485  -26.7631   25.6191 C   0  0  0  0  0  0  0  0  0  0  0  0
  -23.5905  -26.3452   25.5406 C   0  0  0  0  0  0  0  0  0  0  0  0
  -25.5231  -24.4953   31.8426 C   0  0  0  0  0  0  0  0  0  0  0  0
  -33.2830  -13.5248   22.2851 C   0  0  0  0  0  0  0  0  0  0  0  0
  -30.3346  -19.4302   27.1587 C   0  0  0  0  0  0  0  0  0  1  0  0
  -25.0681  -24.7993   26.8892 C   0  0  1  0  0  0  0  0  0  0  0  0
  -25.3998  -26.4460   30.2874 C   0  0  2  0  0  0  0  0  0  0  0  0
  -32.9252  -17.2025   25.6566 C   0  0  0  0  0  0  0  0  0  0  0  0
  -24.9719  -25.6571   25.5961 C   0  0  0  0  0  0  0  0  0  0  0  0
  -25.9461  -11.6018   20.5775 N   0  0  0  0  0  0  0  0  0  0  0  0
  -31.7618  -18.0969   25.7271 N   0  0  0  0  0  0  0  0  0  0  0  0
  -26.2871  -12.8932   20.4296 N   0  0  0  0  0  0  0  0  0  0  0  0
  -24.5651  -22.3785   26.9924 N   0  0  0  0  0  0  0  0  0  0  0  0
  -30.0939  -12.6239   20.5883 N   0  0  0  0  0  0  0  0  0  0  0  0
  -25.4022  -15.0903   20.4110 N   0  0  0  0  0  0  0  0  0  0  0  0
  -21.7735  -12.5119   21.1731 N   0  0  0  0  0  0  0  0  0  0  0  0
  -22.8521  -19.8265   25.0305 N   0  0  0  0  0  0  0  0  0  0  0  0
  -24.8755  -25.5541   28.1227 N   0  0  0  0  0  0  0  0  0  0  0  0
  -32.2711  -13.2175   21.2989 N   0  0  0  0  0  0  0  0  0  0  0  0
  -25.9428  -25.8921   31.5600 N   0  3  0  0  0  0  0  0  0  0  0  0
  -22.4980  -14.6685   20.8849 O   0  0  0  0  0  0  0  0  0  0  0  0
  -24.4967  -21.4236   24.6220 O   0  0  0  0  0  0  0  0  0  0  0  0
  -22.8514  -23.9552   26.8756 O   0  0  0  0  0  0  0  0  0  0  0  0
  -26.9221  -25.0172   29.0716 O   0  0  0  0  0  0  0  0  0  0  0  0
  -30.6118  -12.8506   22.8374 O   0  0  0  0  0  0  0  0  0  0  0  0
  -21.7091   -6.9569   21.5888 O   0  0  0  0  0  0  0  0  0  0  0  0
  -29.4554  -18.7772   28.0735 O   0  0  0  0  0  0  0  0  0  1  0  0
  -18.0187   -6.8972   25.6853 F   0  0  0  0  0  0  0  0  0  0  0  0
  -19.5949   -8.7379   21.6192 F   0  0  0  0  0  0  0  0  0  0  0  0
  -34.0156  -17.8447   26.1738 F   0  0  0  0  0  0  0  0  0  0  0  0
  -32.7194  -16.1342   26.4844 F   0  0  0  0  0  0  0  0  0  0  0  0
  1  2  1  0  0  0  0
  1  5  2  0  0  0  0
  2  6  2  0  0  0  0
  3 10  2  0  0  0  0
  3 18  1  0  0  0  0
  4 11  1  0  0  0  0
  4 18  2  0  0  0  0
  5 20  1  0  0  0  0
  6 22  1  0  0  0  0
  7 12  2  0  0  0  0
  7 21  1  0  0  0  0
  8  9  2  0  0  0  0
  8 24  1  0  0  0  0
  9 25  1  0  0  0  0
 10 27  1  0  0  0  0
 11 27  2  0  0  0  0
 12 28  1  0  0  0  0
 13 14  2  0  0  0  0
 13 29  1  0  0  0  0
 14 30  1  0  0  0  0
 15 23  1  0  0  0  0
 15 28  2  0  0  0  0
 16 24  2  0  0  0  0
 16 26  1  0  0  0  0
 17 30  2  0  0  0  0
 17 31  1  0  0  0  0
 18 32  1  0  0  0  0
 19 32  1  0  0  0  0
 19 33  2  0  0  0  0
 19 35  1  0  0  0  0
 20 22  2  0  0  0  0
 20 40  1  0  0  0  0
 21 23  2  0  0  0  0
 21 41  1  0  0  0  0
 22 49  1  0  0  0  0
 23 42  1  0  0  0  0
 24 58  1  0  0  0  0
 25 26  2  0  0  0  0
 25 52  1  0  0  0  0
 26 62  1  0  0  0  0
 27 80  1  0  0  0  0
 28 81  1  0  0  0  0
 29 31  2  0  0  0  0
 29 80  1  0  0  0  0
 30 82  1  0  0  0  0
 31 83  1  0  0  0  0
 32 64  2  0  0  0  0
 33 66  1  0  0  0  0
 33 69  1  0  0  0  0
 34 59  1  0  0  0  0
 34 65  2  0  0  0  0
 35 70  1  0  0  0  0
 35 75  2  0  0  0  0
 36 50  1  0  0  0  0
 36 71  1  0  0  0  0
 36 76  2  0  0  0  0
 37 60  1  0  0  0  0
 37 67  1  0  0  0  0
 37 77  2  0  0  0  0
 38 61  1  0  0  0  0
 38 72  1  0  0  0  0
 38 78  2  0  0  0  0
 39 68  1  0  0  0  0
 39 73  1  0  0  0  0
 39 79  2  0  0  0  0
 40 43  1  0  0  0  0
 41 50  1  0  0  0  0
 42 67  1  0  0  0  0
 43 45  1  0  0  0  0
 44 46  1  0  0  0  0
 44 47  1  0  0  0  0
 45 49  1  0  0  0  0
 46 51  1  0  0  0  0
 47 68  1  0  0  0  0
 48 51  1  0  0  0  0
 48 68  1  0  0  0  0
 49 71  1  0  0  0  0
 50 67  1  0  0  0  0
 51 66  1  0  0  0  0
 53 61  1  0  0  0  0
 54 63  1  0  0  0  0
 55 63  1  0  0  0  0
 56 63  1  0  0  0  0
 57 74  1  0  0  0  0
 58 73  1  0  0  0  0
 59 81  1  0  0  0  0
 60 63  1  0  0  0  0
 60 72  1  0  0  0  0
 61 74  1  0  0  0  0
 62 65  1  0  0  0  0
 62 84  1  0  0  0  0
 62 85  1  0  0  0  0
 64 66  1  0  0  0  0
M  CHG  1  74   1
M  ISO  4  39 100  59 101  73 100  81 101
M  END
> <Batch ID>
0048

> <Smiles>
CNC(C)C(=O)NC(C(=O)N1Cc2cc([101O:1][101CH2:1]C=NC(F)(F)c3cc(C[100NH:0][100C:0](=O)N4CCCC(n5nc(-c6ccc(Oc7ccc(F)cc7F)cc6)c(C(N)=O)c5N)C4)ccc3C)ccc2CC1C(=O)NC1CCCc2ccccc21)C(C)(C)C

> <Shape>
0.128

> <Color>
0.177

> <Negative vol penalty>
0.000

$$$$

  -OEChem-04042322293D

 84 92  0     1  0  0  0  0  0999 V2000
  -17.9761  -26.7884   25.5193 C   0  0  0  0  0  0  0  0  0  0  0  0
  -18.8900  -26.1945   24.6548 C   0  0  0  0  0  0  0  0  0  0  0  0
  -30.8040  -19.3334   24.0406 C   0  0  0  0  0  0  0  0  0  0  0  0
  -24.5533   -8.7119   20.8484 C   0  0  0  0  0  0  0  0  0  0  0  0
  -23.3649  -10.5487   21.8735 C   0  0  0  0  0  0  0  0  0  0  0  0
  -30.2308  -20.1377   23.0556 C   0  0  0  0  0  0  0  0  0  0  0  0
  -17.5758  -28.1074   25.3100 C   0  0  0  0  0  0  0  0  0  0  0  0
  -19.4034  -26.9191   23.5796 C   0  0  0  0  0  0  0  0  0  0  0  0
  -24.4093  -26.3508   23.0672 C   0  0  0  0  0  0  0  0  0  0  0  0
  -30.7080  -17.9447   23.9502 C   0  0  0  0  0  0  0  0  0  0  0  0
  -23.4513   -7.8826   21.0567 C   0  0  0  0  0  0  0  0  0  0  0  0
  -22.2628   -9.7194   22.0818 C   0  0  0  0  0  0  0  0  0  0  0  0
  -24.8590  -25.1704   22.4772 C   0  0  0  0  0  0  0  0  0  0  0  0
  -22.0840   -6.1549   23.6199 C   0  0  0  0  0  0  0  0  0  0  0  0
  -22.3219   -4.8775   24.1271 C   0  0  0  0  0  0  0  0  0  0  0  0
  -25.1497  -26.3344   20.3844 C   0  0  0  0  0  0  0  0  0  0  0  0
  -21.3223   -3.9075   22.1530 C   0  0  0  0  0  0  0  0  0  0  0  0
  -24.5101  -10.0450   21.2568 C   0  0  0  0  0  0  0  0  0  0  0  0
  -29.5616  -19.5534   21.9803 C   0  0  0  0  0  0  0  0  0  0  0  0
  -25.9099  -11.7015   19.9135 C   0  0  0  0  0  0  0  0  0  0  0  0
  -18.0918  -28.8516   24.2374 C   0  0  0  0  0  0  0  0  0  0  0  0
  -24.3159  -27.5313   22.3162 C   0  0  0  0  0  0  0  0  0  0  0  0
  -19.0086  -28.2488   23.3550 C   0  0  0  0  0  0  0  0  0  0  0  0
  -24.7009  -27.5291   20.9679 C   0  0  0  0  0  0  0  0  0  0  0  0
  -29.4656  -18.1648   21.8899 C   0  0  0  0  0  0  0  0  0  0  0  0
  -30.0388  -17.3604   22.8748 C   0  0  0  0  0  0  0  0  0  0  0  0
  -22.3061   -8.3863   21.6734 C   0  0  0  0  0  0  0  0  0  0  0  0
  -25.2266  -25.1614   21.1348 C   0  0  0  0  0  0  0  0  0  0  0  0
  -21.4652   -6.3086   22.3792 C   0  0  0  0  0  0  0  0  0  0  0  0
  -21.9411   -3.7538   23.3937 C   0  0  0  0  0  0  0  0  0  0  0  0
  -21.0844   -5.1849   21.6458 C   0  0  0  0  0  0  0  0  0  0  0  0
  -25.6484  -10.9021   21.0424 C   0  0  0  0  0  0  0  0  0  0  0  0
  -27.1044  -12.3169   20.1979 C   0  0  0  0  0  0  0  0  0  0  0  0
  -28.9629  -20.4368   20.9474 C   0  0  0  0  0  0  0  0  0  0  0  0
  -25.1416  -11.8726   18.7151 C   0  0  0  0  0  0  0  0  0  0  0  0
  -21.9434  -29.4708   21.4718 C   0  0  0  0  0  0  0  0  0  0  0  0
  -24.3625  -31.2771   20.2853 C   0  0  0  0  0  0  0  0  0  0  0  0
  -27.3362  -22.2612   20.5999 C   0  0  0  0  0  0  0  0  0  0  0  0
  -27.5602  -31.4200   19.1017 C   0  0  0  0  0  0  0  0  0  0  0  0
  -30.4755  -15.0231   23.7071 C   0  0  0  0  0  0  0  0  0  0  0  0
  -17.5933  -30.2589   24.0239 C   0  0  0  0  0  0  0  0  0  0  0  0
  -23.8542  -28.8026   22.9744 C   0  0  0  0  0  0  0  0  0  0  0  0
  -24.6384  -28.7745   20.1233 C   0  0  0  0  0  0  0  0  0  0  0  0
  -18.4691  -31.0787   23.0798 C   0  0  0  0  0  0  0  0  0  0  0  0
  -30.4470  -11.4682   23.9031 C   0  0  0  0  0  0  0  0  0  0  0  0
  -18.8109  -30.2706   21.8320 C   0  0  0  0  0  0  0  0  0  0  0  0
  -29.2176  -11.0697   23.0834 C   0  0  0  0  0  0  0  0  0  0  0  0
  -30.2111  -12.7562   24.6899 C   0  0  0  0  0  0  0  0  0  0  0  0
  -28.5067  -13.4949   23.0717 C   0  0  0  0  0  0  0  0  0  0  0  0
  -19.6067  -29.0102   22.1919 C   0  0  1  0  0  0  0  0  0  0  0  0
  -23.3112  -29.8262   21.9821 C   0  0  1  0  0  0  0  0  0  0  0  0
  -28.7187  -12.2385   22.2113 C   0  0  2  0  0  0  0  0  0  0  0  0
  -28.7467  -17.5389   20.7353 C   0  0  0  0  0  0  0  0  0  0  0  0
  -29.2467  -33.0292   18.1723 C   0  0  0  0  0  0  0  0  0  0  0  0
  -22.8809  -31.2855   17.6179 C   0  0  0  0  0  0  0  0  0  0  0  0
  -24.9976  -32.0542   16.5240 C   0  0  0  0  0  0  0  0  0  0  0  0
  -23.9000  -33.4795   18.2521 C   0  0  0  0  0  0  0  0  0  0  0  0
  -29.4508  -30.8992   21.3183 C   0  0  0  0  0  0  0  0  0  0  0  0
  -26.3408  -23.0769   21.3979 C   0  0  0  0  0  0  0  0  0  1  0  0
  -25.0841  -31.3614   18.9620 C   0  0  1  0  0  0  0  0  0  0  0  0
  -28.7134  -32.3526   19.4255 C   0  0  2  0  0  0  0  0  0  0  0  0
  -24.2151  -32.0210   17.8541 C   0  0  0  0  0  0  0  0  0  0  0  0
  -26.6003  -10.9986   21.9743 N   0  0  0  0  0  0  0  0  0  0  0  0
  -27.4717  -11.8659   21.4315 N   0  0  0  0  0  0  0  0  0  0  0  0
  -24.1745  -29.9909   20.8108 N   0  0  0  0  0  0  0  0  0  0  0  0
  -29.7442  -13.8199   23.7981 N   0  0  0  0  0  0  0  0  0  0  0  0
  -27.8660  -13.1942   19.5104 N   0  0  0  0  0  0  0  0  0  0  0  0
  -23.9386  -11.1653   18.5860 N   0  0  0  0  0  0  0  0  0  0  0  0
  -29.9541  -15.9478   22.8029 N   0  0  0  0  0  0  0  0  0  0  0  0
  -27.9942  -21.3290   21.4038 N   0  0  0  0  0  0  0  0  0  0  0  0
  -20.9884  -29.3450   22.4625 N   0  0  0  0  0  0  0  0  0  0  0  0
  -26.3414  -32.0527   19.2259 N   0  0  0  0  0  0  0  0  0  0  0  0
  -29.8286  -31.5959   20.0618 N   0  3  0  0  0  0  0  0  0  0  0  0
  -29.3601  -20.3557   19.7882 O   0  0  0  0  0  0  0  0  0  0  0  0
  -25.5192  -12.6177   17.7793 O   0  0  0  0  0  0  0  0  0  0  0  0
  -21.7671  -29.3233   20.2681 O   0  0  0  0  0  0  0  0  0  0  0  0
  -23.9861  -32.3147   20.8360 O   0  0  0  0  0  0  0  0  0  0  0  0
  -27.5155  -22.4239   19.3962 O   0  0  0  0  0  0  0  0  0  0  0  0
  -27.7244  -30.2486   18.7681 O   0  0  0  0  0  0  0  0  0  0  0  0
  -31.5050  -15.2079   24.3614 O   0  0  0  0  0  0  0  0  0  0  0  0
  -21.2305   -7.5774   21.8767 O   0  0  0  0  0  0  0  0  0  0  0  0
  -25.6652  -24.0105   20.5562 O   0  0  0  0  0  0  0  0  0  1  0  0
  -22.1709   -2.5272   23.8802 F   0  0  0  0  0  0  0  0  0  0  0  0
  -20.4907   -5.3262   20.4528 F   0  0  0  0  0  0  0  0  0  0  0  0
  1  2  1  0  0  0  0
  1  7  2  0  0  0  0
  2  8  2  0  0  0  0
  3  6  2  0  0  0  0
  3 10  1  0  0  0  0
  4 11  2  0  0  0  0
  4 18  1  0  0  0  0
  5 12  1  0  0  0  0
  5 18  2  0  0  0  0
  6 19  1  0  0  0  0
  7 21  1  0  0  0  0
  8 23  1  0  0  0  0
  9 13  2  0  0  0  0
  9 22  1  0  0  0  0
 10 26  2  0  0  0  0
 11 27  1  0  0  0  0
 12 27  2  0  0  0  0
 13 28  1  0  0  0  0
 14 15  2  0  0  0  0
 14 29  1  0  0  0  0
 15 30  1  0  0  0  0
 16 24  1  0  0  0  0
 16 28  2  0  0  0  0
 17 30  2  0  0  0  0
 17 31  1  0  0  0  0
 18 32  1  0  0  0  0
 19 25  2  0  0  0  0
 19 34  1  0  0  0  0
 20 32  1  0  0  0  0
 20 33  2  0  0  0  0
 20 35  1  0  0  0  0
 21 23  2  0  0  0  0
 21 41  1  0  0  0  0
 22 24  2  0  0  0  0
 22 42  1  0  0  0  0
 23 50  1  0  0  0  0
 24 43  1  0  0  0  0
 25 26  1  0  0  0  0
 25 53  1  0  0  0  0
 26 69  1  0  0  0  0
 27 81  1  0  0  0  0
 28 82  1  0  0  0  0
 29 31  2  0  0  0  0
 29 81  1  0  0  0  0
 30 83  1  0  0  0  0
 31 84  1  0  0  0  0
 32 63  2  0  0  0  0
 33 64  1  0  0  0  0
 33 67  1  0  0  0  0
 34 70  1  0  0  0  0
 34 74  2  0  0  0  0
 35 68  1  0  0  0  0
 35 75  2  0  0  0  0
 36 51  1  0  0  0  0
 36 71  1  0  0  0  0
 36 76  2  0  0  0  0
 37 60  1  0  0  0  0
 37 65  1  0  0  0  0
 37 77  2  0  0  0  0
 38 59  1  0  0  0  0
 38 70  1  0  0  0  0
 38 78  2  0  0  0  0
 39 61  1  0  0  0  0
 39 72  1  0  0  0  0
 39 79  2  0  0  0  0
 40 66  1  0  0  0  0
 40 69  1  0  0  0  0
 40 80  2  0  0  0  0
 41 44  1  0  0  0  0
 42 51  1  0  0  0  0
 43 65  1  0  0  0  0
 44 46  1  0  0  0  0
 45 47  1  0  0  0  0
 45 48  1  0  0  0  0
 46 50  1  0  0  0  0
 47 52  1  0  0  0  0
 48 66  1  0  0  0  0
 49 52  1  0  0  0  0
 49 66  1  0  0  0  0
 50 71  1  0  0  0  0
 51 65  1  0  0  0  0
 52 64  1  0  0  0  0
 54 61  1  0  0  0  0
 55 62  1  0  0  0  0
 56 62  1  0  0  0  0
 57 62  1  0  0  0  0
 58 73  1  0  0  0  0
 59 82  1  0  0  0  0
 60 62  1  0  0  0  0
 60 72  1  0  0  0  0
 61 73  1  0  0  0  0
 63 64  1  0  0  0  0
M  CHG  1  73   1
M  ISO  4  40 100  59 101  69 100  82 101
M  END
> <Batch ID>
0048

> <Smiles>
CNC(C)C(=O)NC(C(=O)N1Cc2cc([101O:1][101CH2:1]C(=O)NC(=O)c3cccc([100NH:0][100C:0](=O)N4CCCC(n5nc(-c6ccc(Oc7ccc(F)cc7F)cc6)c(C(N)=O)c5N)C4)c3C)ccc2CC1C(=O)NC1CCCc2ccccc21)C(C)(C)C

> <Shape>
0.237

> <Color>
0.085

> <Negative vol penalty>
0.000

$$$$

  -OEChem-04042322293D

 90 99  0     1  0  0  0  0  0999 V2000
  -29.7030  -35.0495   23.9734 C   0  0  0  0  0  0  0  0  0  0  0  0
  -29.6305  -33.7005   23.6412 C   0  0  0  0  0  0  0  0  0  0  0  0
  -23.4994  -11.2529   20.6570 C   0  0  0  0  0  0  0  0  0  0  0  0
  -21.6551  -11.9744   19.2731 C   0  0  0  0  0  0  0  0  0  0  0  0
  -28.5815  -35.7017   24.4839 C   0  0  0  0  0  0  0  0  0  0  0  0
  -28.4367  -33.0026   23.8206 C   0  0  0  0  0  0  0  0  0  0  0  0
  -27.2858  -30.0707   19.8552 C   0  0  0  0  0  0  0  0  0  0  0  0
  -23.6556  -10.1201   19.8583 C   0  0  0  0  0  0  0  0  0  0  0  0
  -21.8114  -10.8416   18.4743 C   0  0  0  0  0  0  0  0  0  0  0  0
  -27.9677  -28.8601   19.7392 C   0  0  0  0  0  0  0  0  0  0  0  0
  -22.1678   -7.1075   19.4908 C   0  0  0  0  0  0  0  0  0  0  0  0
  -22.3504   -5.8828   20.1330 C   0  0  0  0  0  0  0  0  0  0  0  0
  -26.0662  -27.7065   20.6735 C   0  0  0  0  0  0  0  0  0  0  0  0
  -27.2080  -20.4172   19.7088 C   0  0  0  0  0  0  0  0  0  0  0  0
  -28.0135  -18.4996   20.9380 C   0  0  0  0  0  0  0  0  0  0  0  0
  -24.4902   -5.6289   19.0404 C   0  0  0  0  0  0  0  0  0  0  0  0
  -22.4991  -12.1800   20.3644 C   0  0  0  0  0  0  0  0  0  0  0  0
  -22.0509  -13.3857   22.5674 C   0  0  0  0  0  0  0  0  0  0  0  0
  -27.3706  -35.0139   24.6606 C   0  0  0  0  0  0  0  0  0  0  0  0
  -25.9910  -30.1097   20.3922 C   0  0  0  0  0  0  0  0  0  0  0  0
  -27.2983  -33.6459   24.3353 C   0  0  0  0  0  0  0  0  0  0  0  0
  -25.3691  -28.9185   20.7929 C   0  0  0  0  0  0  0  0  0  0  0  0
  -28.5218  -20.7761   19.4077 C   0  0  0  0  0  0  0  0  0  0  0  0
  -29.3274  -18.8584   20.6369 C   0  0  0  0  0  0  0  0  0  0  0  0
  -29.5815  -19.9967   19.8717 C   0  0  0  0  0  0  0  0  0  0  0  0
  -26.9538  -19.2790   20.4741 C   0  0  0  0  0  0  0  0  0  0  0  0
  -22.8117   -9.9145   18.7669 C   0  0  0  0  0  0  0  0  0  0  0  0
  -27.3590  -27.6782   20.1511 C   0  0  0  0  0  0  0  0  0  0  0  0
  -23.1464   -7.5929   18.6234 C   0  0  0  0  0  0  0  0  0  0  0  0
  -23.5116   -5.1436   19.9078 C   0  0  0  0  0  0  0  0  0  0  0  0
  -24.3076   -6.8536   18.3982 C   0  0  0  0  0  0  0  0  0  0  0  0
  -22.3368  -13.3501   21.1895 C   0  0  0  0  0  0  0  0  0  0  0  0
  -21.9980  -14.7238   22.8727 C   0  0  0  0  0  0  0  0  0  0  0  0
  -29.5226  -24.3085   18.5495 C   0  0  0  0  0  0  0  0  0  0  0  0
  -30.7989  -24.6010   18.2572 C   0  0  0  0  0  0  0  0  0  0  0  0
  -21.8511  -12.3057   23.4891 C   0  0  0  0  0  0  0  0  0  0  0  0
  -24.6568  -31.4756   22.9334 C   0  0  0  0  0  0  0  0  0  0  0  0
  -21.9167  -30.3425   21.6182 C   0  0  0  0  0  0  0  0  0  0  0  0
  -20.8343  -27.3091   19.9920 C   0  0  0  0  0  0  0  0  0  0  0  0
  -24.4534  -19.5759   20.3963 C   0  0  0  0  0  0  0  0  0  0  0  0
  -26.1985  -35.7497   25.2601 C   0  0  0  0  0  0  0  0  0  0  0  0
  -25.2588  -31.4202   20.4858 C   0  0  0  0  0  0  0  0  0  0  0  0
  -23.9728  -28.9039   21.3572 C   0  0  0  0  0  0  0  0  0  0  0  0
  -28.3596  -25.1368   18.0675 C   0  0  0  0  0  0  0  0  0  0  0  0
  -24.8654  -35.0310   25.0683 C   0  0  0  0  0  0  0  0  0  0  0  0
  -20.9825  -18.9743   20.9141 C   0  0  0  0  0  0  0  0  0  0  0  0
  -25.0020  -33.5516   25.4140 C   0  0  0  0  0  0  0  0  0  0  0  0
  -20.9106  -17.4680   21.1749 C   0  0  0  0  0  0  0  0  0  0  0  0
  -27.1150  -24.2690   20.0918 C   0  0  0  0  0  0  0  0  0  0  0  0
  -22.0394  -19.3186   19.8661 C   0  0  0  0  0  0  0  0  0  0  0  0
  -23.3069  -17.2736   20.3956 C   0  0  0  0  0  0  0  0  0  0  0  0
  -28.3838  -23.5534   20.5534 C   0  0  0  0  0  0  0  0  0  0  0  0
  -26.0142  -32.8608   24.4922 C   0  0  1  0  0  0  0  0  0  0  0  0
  -24.1409  -31.4071   21.5239 C   0  0  1  0  0  0  0  0  0  0  0  0
  -22.3014  -16.8839   21.4914 C   0  0  2  0  0  0  0  0  0  0  0  0
  -27.4236  -25.4889   19.2239 C   0  0  1  0  0  0  0  0  0  1  0  0
  -30.9903  -20.3814   19.5482 C   0  0  0  0  0  0  0  0  0  0  0  0
  -19.0163  -26.9210   18.3063 C   0  0  0  0  0  0  0  0  0  0  0  0
  -20.1993  -29.6817   24.0521 C   0  0  0  0  0  0  0  0  0  0  0  0
  -19.1249  -27.8599   22.7124 C   0  0  0  0  0  0  0  0  0  0  0  0
  -18.9078  -30.2356   21.9835 C   0  0  0  0  0  0  0  0  0  0  0  0
  -22.7123  -26.0453   18.0854 C   0  0  0  0  0  0  0  0  0  0  0  0
  -28.7682  -22.0053   18.5835 C   0  0  0  0  0  0  0  0  0  0  0  0
  -21.1303  -29.0583   21.7260 C   0  0  1  0  0  0  0  0  0  0  0  0
  -20.5068  -27.1342   18.5200 C   0  0  2  0  0  0  0  0  0  0  0  0
  -30.4440  -18.0068   21.1458 C   0  0  0  0  0  0  0  0  0  0  0  0
  -19.8688  -29.2094   22.6222 C   0  0  0  0  0  0  0  0  0  0  0  0
  -22.4570  -14.5688   20.6562 N   0  0  0  0  0  0  0  0  0  0  0  0
  -22.2455  -15.3827   21.7045 N   0  0  0  0  0  0  0  0  0  0  0  0
  -23.3004  -30.2113   21.4345 N   0  0  0  0  0  0  0  0  0  0  0  0
  -23.3314  -18.7358   20.2346 N   0  0  0  0  0  0  0  0  0  0  0  0
  -21.7644  -15.3893   24.0238 N   0  0  0  0  0  0  0  0  0  0  0  0
  -21.9406  -10.9921   23.0087 N   0  0  0  0  0  0  0  0  0  0  0  0
  -25.6193  -18.9135   20.7792 N   0  0  0  0  0  0  0  0  0  0  0  0
  -25.4212  -32.5958   23.1989 N   0  0  0  0  0  0  0  0  0  0  0  0
  -20.8449  -28.6384   20.3584 N   0  0  0  0  0  0  0  0  0  0  0  0
  -29.2723  -23.1670   19.3943 N   0  3  1  0  0  0  0  0  0  0  0  0
  -21.2343  -25.9585   17.9637 N   0  3  0  0  0  0  0  0  0  0  0  0
  -21.5843  -12.5000   24.6993 O   0  0  0  0  0  0  0  0  0  0  0  0
  -24.3806  -30.5794   23.7221 O   0  0  0  0  0  0  0  0  0  0  0  0
  -21.3240  -31.4221   21.6870 O   0  0  0  0  0  0  0  0  0  0  0  0
  -21.0547  -26.3612   20.7426 O   0  0  0  0  0  0  0  0  0  0  0  0
  -24.3786  -20.7968   20.2353 O   0  0  0  0  0  0  0  0  0  0  0  0
  -22.9640   -8.8093   17.9872 O   0  0  0  0  0  0  0  0  0  0  0  0
  -28.0226  -26.4953   20.0396 O   0  0  0  0  0  0  0  0  0  1  0  0
  -23.6875   -3.9682   20.5258 F   0  0  0  0  0  0  0  0  0  0  0  0
  -25.2518   -7.3153   17.5668 F   0  0  0  0  0  0  0  0  0  0  0  0
  -30.0219  -16.9335   21.8760 F   0  0  0  0  0  0  0  0  0  0  0  0
  -31.2233  -17.4820   20.1556 F   0  0  0  0  0  0  0  0  0  0  0  0
  -31.2962  -18.6936   21.9598 F   0  0  0  0  0  0  0  0  0  0  0  0
  1  2  1  0  0  0  0
  1  5  2  0  0  0  0
  2  6  2  0  0  0  0
  3  8  2  0  0  0  0
  3 17  1  0  0  0  0
  4  9  1  0  0  0  0
  4 17  2  0  0  0  0
  5 19  1  0  0  0  0
  6 21  1  0  0  0  0
  7 10  2  0  0  0  0
  7 20  1  0  0  0  0
  8 27  1  0  0  0  0
  9 27  2  0  0  0  0
 10 28  1  0  0  0  0
 11 12  2  0  0  0  0
 11 29  1  0  0  0  0
 12 30  1  0  0  0  0
 13 22  1  0  0  0  0
 13 28  2  0  0  0  0
 14 23  1  0  0  0  0
 14 26  2  0  0  0  0
 15 24  2  0  0  0  0
 15 26  1  0  0  0  0
 16 30  2  0  0  0  0
 16 31  1  0  0  0  0
 17 32  1  0  0  0  0
 18 32  1  0  0  0  0
 18 33  2  0  0  0  0
 18 36  1  0  0  0  0
 19 21  2  0  0  0  0
 19 41  1  0  0  0  0
 20 22  2  0  0  0  0
 20 42  1  0  0  0  0
 21 53  1  0  0  0  0
 22 43  1  0  0  0  0
 23 25  2  0  0  0  0
 23 63  1  0  0  0  0
 24 25  1  0  0  0  0
 24 66  1  0  0  0  0
 25 57  1  0  0  0  0
 26 74  1  0  0  0  0
 27 84  1  0  0  0  0
 28 85  1  0  0  0  0
 29 31  2  0  0  0  0
 29 84  1  0  0  0  0
 30 86  1  0  0  0  0
 31 87  1  0  0  0  0
 32 68  2  0  0  0  0
 33 69  1  0  0  0  0
 33 72  1  0  0  0  0
 34 35  2  0  0  0  0
 34 44  1  0  0  0  0
 34 77  1  0  0  0  0
 36 73  1  0  0  0  0
 36 79  2  0  0  0  0
 37 54  1  0  0  0  0
 37 75  1  0  0  0  0
 37 80  2  0  0  0  0
 38 64  1  0  0  0  0
 38 70  1  0  0  0  0
 38 81  2  0  0  0  0
 39 65  1  0  0  0  0
 39 76  1  0  0  0  0
 39 82  2  0  0  0  0
 40 71  1  0  0  0  0
 40 74  1  0  0  0  0
 40 83  2  0  0  0  0
 41 45  1  0  0  0  0
 42 54  1  0  0  0  0
 43 70  1  0  0  0  0
 44 56  1  0  0  0  0
 45 47  1  0  0  0  0
 46 48  1  0  0  0  0
 46 50  1  0  0  0  0
 47 53  1  0  0  0  0
 48 55  1  0  0  0  0
 49 52  1  0  0  0  0
 49 56  1  0  0  0  0
 50 71  1  0  0  0  0
 51 55  1  0  0  0  0
 51 71  1  0  0  0  0
 52 77  1  0  0  0  0
 53 75  1  0  0  0  0
 54 70  1  0  0  0  0
 55 69  1  0  0  0  0
 56 85  1  0  0  0  0
 58 65  1  0  0  0  0
 59 67  1  0  0  0  0
 60 67  1  0  0  0  0
 61 67  1  0  0  0  0
 62 78  1  0  0  0  0
 63 77  1  0  0  0  0
 64 67  1  0  0  0  0
 64 76  1  0  0  0  0
 65 78  1  0  0  0  0
 66 88  1  0  0  0  0
 66 89  1  0  0  0  0
 66 90  1  0  0  0  0
 68 69  1  0  0  0  0
M  CHG  2  77   1  78   1
M  ISO  4  40 100  56 101  74 100  85 101
M  END
> <Batch ID>
0048

> <Smiles>
C=C1C[101CH:1]([101O:1]c2ccc3c(c2)CN(C(=O)C(NC(=O)C(C)NC)C(C)(C)C)C(C(=O)NC2CCCc4ccccc42)C3)CCN1Cc1cc([100NH:0][100C:0](=O)N2CCCC(n3nc(-c4ccc(Oc5ccc(F)cc5F)cc4)c(C(N)=O)c3N)C2)cc(C(F)(F)F)c1C

> <Shape>
0.272

> <Color>
0.063

> <Negative vol penalty>
0.000

$$$$

  -OEChem-04042322293D

 92101  0     1  0  0  0  0  0999 V2000
  -23.3899  -13.7473   18.0701 C   0  0  0  0  0  0  0  0  0  0  0  0
  -23.8305  -15.0651   18.0036 C   0  0  0  0  0  0  0  0  0  0  0  0
  -29.5073  -17.3236   18.7664 C   0  0  0  0  0  0  0  0  0  0  0  0
  -29.3953  -18.0317   21.0736 C   0  0  0  0  0  0  0  0  0  0  0  0
  -22.3587  -13.4014   18.9424 C   0  0  0  0  0  0  0  0  0  0  0  0
  -23.2394  -16.0382   18.8086 C   0  0  0  0  0  0  0  0  0  0  0  0
  -24.8051  -22.0787   22.3268 C   0  0  0  0  0  0  0  0  0  0  0  0
  -29.8409  -16.0335   19.1785 C   0  0  0  0  0  0  0  0  0  0  0  0
  -29.7288  -16.7415   21.4858 C   0  0  0  0  0  0  0  0  0  0  0  0
  -24.3655  -23.3956   22.4545 C   0  0  0  0  0  0  0  0  0  0  0  0
  -28.2413  -13.3180   20.4033 C   0  0  0  0  0  0  0  0  0  0  0  0
  -27.5883  -12.2512   19.7861 C   0  0  0  0  0  0  0  0  0  0  0  0
  -22.6457  -22.6673   23.9812 C   0  0  0  0  0  0  0  0  0  0  0  0
  -25.3697  -27.0775   20.1605 C   0  0  0  0  0  0  0  0  0  0  0  0
  -27.1473  -28.6891   20.4435 C   0  0  0  0  0  0  0  0  0  0  0  0
  -29.7127  -11.3966   19.0157 C   0  0  0  0  0  0  0  0  0  0  0  0
  -29.2845  -18.3228   19.7140 C   0  0  0  0  0  0  0  0  0  0  0  0
  -27.8210  -20.0432   18.5284 C   0  0  0  0  0  0  0  0  0  0  0  0
  -21.7611  -14.3690   19.7656 C   0  0  0  0  0  0  0  0  0  0  0  0
  -24.1603  -21.0430   23.0181 C   0  0  0  0  0  0  0  0  0  0  0  0
  -22.1983  -15.7053   19.6918 C   0  0  0  0  0  0  0  0  0  0  0  0
  -23.0807  -21.3384   23.8626 C   0  0  0  0  0  0  0  0  0  0  0  0
  -24.4377  -28.1140   20.1113 C   0  0  0  0  0  0  0  0  0  0  0  0
  -26.2153  -29.7257   20.3942 C   0  0  0  0  0  0  0  0  0  0  0  0
  -24.8605  -29.4381   20.2281 C   0  0  0  0  0  0  0  0  0  0  0  0
  -26.7245  -27.3650   20.3267 C   0  0  0  0  0  0  0  0  0  0  0  0
  -29.9516  -15.7424   20.5382 C   0  0  0  0  0  0  0  0  0  0  0  0
  -23.2839  -23.6897   23.2795 C   0  0  0  0  0  0  0  0  0  0  0  0
  -29.6300  -13.4242   20.3267 C   0  0  0  0  0  0  0  0  0  0  0  0
  -28.3240  -11.2904   19.0923 C   0  0  0  0  0  0  0  0  0  0  0  0
  -30.3657  -12.4635   19.6329 C   0  0  0  0  0  0  0  0  0  0  0  0
  -28.9405  -19.6558   19.2889 C   0  0  0  0  0  0  0  0  0  0  0  0
  -27.9506  -21.4040   18.3951 C   0  0  0  0  0  0  0  0  0  0  0  0
  -20.7969  -27.6219   20.9609 C   0  0  0  0  0  0  0  0  0  0  0  0
  -26.7587  -19.2444   17.9906 C   0  0  0  0  0  0  0  0  0  0  0  0
  -19.9381  -28.6492   20.8779 C   0  0  0  0  0  0  0  0  0  0  0  0
  -22.5719  -18.4252   22.1647 C   0  0  0  0  0  0  0  0  0  0  0  0
  -22.5732  -17.8549   25.3580 C   0  0  0  0  0  0  0  0  0  0  0  0
  -22.0919  -19.7729   28.3757 C   0  0  0  0  0  0  0  0  0  0  0  0
  -29.0524  -26.4248   20.5354 C   0  0  0  0  0  0  0  0  0  0  0  0
  -20.6177  -13.9565   20.6584 C   0  0  0  0  0  0  0  0  0  0  0  0
  -24.6635  -19.6312   22.8905 C   0  0  0  0  0  0  0  0  0  0  0  0
  -22.3670  -20.2654   24.6422 C   0  0  0  0  0  0  0  0  0  0  0  0
  -20.3680  -26.1837   20.8547 C   0  0  0  0  0  0  0  0  0  0  0  0
  -20.2983  -14.9756   21.7491 C   0  0  0  0  0  0  0  0  0  0  0  0
  -20.9194  -25.3781   22.0248 C   0  0  0  0  0  0  0  0  0  0  0  0
  -31.8324  -24.4652   19.4825 C   0  0  0  0  0  0  0  0  0  0  0  0
  -20.2450  -16.3837   21.1649 C   0  0  0  0  0  0  0  0  0  0  0  0
  -31.2358  -23.0712   19.2757 C   0  0  0  0  0  0  0  0  0  0  0  0
  -31.1997  -25.1819   20.6741 C   0  0  0  0  0  0  0  0  0  0  0  0
  -29.1363  -23.8558   20.4435 C   0  0  0  0  0  0  0  0  0  0  0  0
  -22.7121  -27.1209   22.3619 C   0  0  0  0  0  0  0  0  0  0  0  0
  -21.5990  -16.7846   20.5670 C   0  0  1  0  0  0  0  0  0  0  0  0
  -23.6081  -18.5868   23.2408 C   0  0  1  0  0  0  0  0  0  0  0  0
  -29.6965  -23.1203   19.2151 C   0  0  2  0  0  0  0  0  0  0  0  0
  -22.4145  -25.6305   22.2186 C   0  0  1  0  0  0  0  0  0  1  0  0
  -23.8610  -30.5496   20.1747 C   0  0  0  0  0  0  0  0  0  0  0  0
  -20.3935  -30.0740   20.9873 C   0  0  0  0  0  0  0  0  0  0  0  0
  -18.4677  -28.4384   20.6711 C   0  0  0  0  0  0  0  0  0  0  0  0
  -22.9590  -19.4010   30.7010 C   0  0  0  0  0  0  0  0  0  0  0  0
  -19.9145  -16.4276   25.8097 C   0  0  0  0  0  0  0  0  0  0  0  0
  -19.8515  -17.4202   28.1073 C   0  0  0  0  0  0  0  0  0  0  0  0
  -21.6960  -15.8654   27.4724 C   0  0  0  0  0  0  0  0  0  0  0  0
  -23.3058  -22.4701   28.4792 C   0  0  0  0  0  0  0  0  0  0  0  0
  -22.9865  -27.7780   19.9325 C   0  0  0  0  0  0  0  0  0  0  0  0
  -21.6564  -18.2014   26.5062 C   0  0  1  0  0  0  0  0  0  0  0  0
  -23.1546  -20.1500   29.3920 C   0  0  2  0  0  0  0  0  0  0  0  0
  -26.6940  -31.1348   20.5216 C   0  0  0  0  0  0  0  0  0  0  0  0
  -20.7817  -16.9954   26.9510 C   0  0  0  0  0  0  0  0  0  0  0  0
  -29.7237  -20.6872   19.6157 N   0  0  0  0  0  0  0  0  0  0  0  0
  -29.0955  -21.7361   19.0578 N   0  0  0  0  0  0  0  0  0  0  0  0
  -22.8923  -18.8998   24.4793 N   0  0  0  0  0  0  0  0  0  0  0  0
  -29.7408  -25.1933   20.5460 N   0  0  0  0  0  0  0  0  0  0  0  0
  -27.1959  -22.3370   17.7768 N   0  0  0  0  0  0  0  0  0  0  0  0
  -26.9108  -18.7089   16.7043 N   0  0  0  0  0  0  0  0  0  0  0  0
  -27.6717  -26.3122   20.3757 N   0  0  0  0  0  0  0  0  0  0  0  0
  -22.5238  -17.1581   21.6157 N   0  0  0  0  0  0  0  0  0  0  0  0
  -22.5083  -18.7424   27.5598 N   0  0  0  0  0  0  0  0  0  0  0  0
  -22.1874  -27.9253   21.1977 N   0  3  1  0  0  0  0  0  0  0  0  0
  -23.1047  -21.6123   29.6753 N   0  3  0  0  0  0  0  0  0  0  0  0
  -25.6990  -19.0259   18.6251 O   0  0  0  0  0  0  0  0  0  0  0  0
  -21.8672  -19.3792   21.8565 O   0  0  0  0  0  0  0  0  0  0  0  0
  -22.9964  -16.7014   25.2489 O   0  0  0  0  0  0  0  0  0  0  0  0
  -21.0000  -20.3338   28.3144 O   0  0  0  0  0  0  0  0  0  0  0  0
  -29.6470  -27.5015   20.6315 O   0  0  0  0  0  0  0  0  0  0  0  0
  -30.2769  -14.4835   20.9407 O   0  0  0  0  0  0  0  0  0  0  0  0
  -22.8524  -24.9742   23.4053 O   0  0  0  0  0  0  0  0  0  1  0  0
  -27.6969  -10.2651   18.5009 F   0  0  0  0  0  0  0  0  0  0  0  0
  -31.7002  -12.5595   19.5568 F   0  0  0  0  0  0  0  0  0  0  0  0
  -28.0461  -31.2393   20.6777 F   0  0  0  0  0  0  0  0  0  0  0  0
  -26.3977  -31.9106   19.4383 F   0  0  0  0  0  0  0  0  0  0  0  0
  -26.1491  -31.7772   21.5944 F   0  0  0  0  0  0  0  0  0  0  0  0
  1  2  1  0  0  0  0
  1  5  2  0  0  0  0
  2  6  2  0  0  0  0
  3  8  2  0  0  0  0
  3 17  1  0  0  0  0
  4  9  1  0  0  0  0
  4 17  2  0  0  0  0
  5 19  1  0  0  0  0
  6 21  1  0  0  0  0
  7 10  2  0  0  0  0
  7 20  1  0  0  0  0
  8 27  1  0  0  0  0
  9 27  2  0  0  0  0
 10 28  1  0  0  0  0
 11 12  2  0  0  0  0
 11 29  1  0  0  0  0
 12 30  1  0  0  0  0
 13 22  1  0  0  0  0
 13 28  2  0  0  0  0
 14 23  1  0  0  0  0
 14 26  2  0  0  0  0
 15 24  2  0  0  0  0
 15 26  1  0  0  0  0
 16 30  2  0  0  0  0
 16 31  1  0  0  0  0
 17 32  1  0  0  0  0
 18 32  1  0  0  0  0
 18 33  2  0  0  0  0
 18 35  1  0  0  0  0
 19 21  2  0  0  0  0
 19 41  1  0  0  0  0
 20 22  2  0  0  0  0
 20 42  1  0  0  0  0
 21 53  1  0  0  0  0
 22 43  1  0  0  0  0
 23 25  2  0  0  0  0
 23 65  1  0  0  0  0
 24 25  1  0  0  0  0
 24 68  1  0  0  0  0
 25 57  1  0  0  0  0
 26 76  1  0  0  0  0
 27 86  1  0  0  0  0
 28 87  1  0  0  0  0
 29 31  2  0  0  0  0
 29 86  1  0  0  0  0
 30 88  1  0  0  0  0
 31 89  1  0  0  0  0
 32 70  2  0  0  0  0
 33 71  1  0  0  0  0
 33 74  1  0  0  0  0
 34 36  2  0  0  0  0
 34 44  1  0  0  0  0
 34 79  1  0  0  0  0
 35 75  1  0  0  0  0
 35 81  2  0  0  0  0
 36 58  1  0  0  0  0
 36 59  1  0  0  0  0
 37 54  1  0  0  0  0
 37 77  1  0  0  0  0
 37 82  2  0  0  0  0
 38 66  1  0  0  0  0
 38 72  1  0  0  0  0
 38 83  2  0  0  0  0
 39 67  1  0  0  0  0
 39 78  1  0  0  0  0
 39 84  2  0  0  0  0
 40 73  1  0  0  0  0
 40 76  1  0  0  0  0
 40 85  2  0  0  0  0
 41 45  1  0  0  0  0
 42 54  1  0  0  0  0
 43 72  1  0  0  0  0
 44 46  1  0  0  0  0
 45 48  1  0  0  0  0
 46 56  1  0  0  0  0
 47 49  1  0  0  0  0
 47 50  1  0  0  0  0
 48 53  1  0  0  0  0
 49 55  1  0  0  0  0
 50 73  1  0  0  0  0
 51 55  1  0  0  0  0
 51 73  1  0  0  0  0
 52 56  1  0  0  0  0
 52 79  1  0  0  0  0
 53 77  1  0  0  0  0
 54 72  1  0  0  0  0
 55 71  1  0  0  0  0
 56 87  1  0  0  0  0
 60 67  1  0  0  0  0
 61 69  1  0  0  0  0
 62 69  1  0  0  0  0
 63 69  1  0  0  0  0
 64 80  1  0  0  0  0
 65 79  1  0  0  0  0
 66 69  1  0  0  0  0
 66 78  1  0  0  0  0
 67 80  1  0  0  0  0
 68 90  1  0  0  0  0
 68 91  1  0  0  0  0
 68 92  1  0  0  0  0
 70 71  1  0  0  0  0
M  CHG  2  79   1  80   1
M  ISO  4  40 100  56 101  76 100  87 101
M  END
> <Batch ID>
0048

> <Smiles>
CNC(C)C(=O)NC(C(=O)N1Cc2cc([101O:1][101CH:1]3CCC(=C(C)C)N(Cc4cc([100NH:0][100C:0](=O)N5CCCC(n6nc(-c7ccc(Oc8ccc(F)cc8F)cc7)c(C(N)=O)c6N)C5)cc(C(F)(F)F)c4C)C3)ccc2CC1C(=O)NC1CCCc2ccccc21)C(C)(C)C

> <Shape>
0.223

> <Color>
0.047

> <Negative vol penalty>
0.000

$$$$

  -OEChem-04042322293D

 84 92  0     1  0  0  0  0  0999 V2000
  -33.2884  -31.8729   14.1682 C   0  0  0  0  0  0  0  0  0  0  0  0
  -33.9935  -31.6475   15.3461 C   0  0  0  0  0  0  0  0  0  0  0  0
  -23.0628   -9.8489   19.8925 C   0  0  0  0  0  0  0  0  0  0  0  0
  -23.8681   -9.7540   22.1684 C   0  0  0  0  0  0  0  0  0  0  0  0
  -31.8950  -31.8249   14.1710 C   0  0  0  0  0  0  0  0  0  0  0  0
  -33.3053  -31.3751   16.5279 C   0  0  0  0  0  0  0  0  0  0  0  0
  -34.4408  -25.2548   20.1535 C   0  0  0  0  0  0  0  0  0  0  0  0
  -32.6503  -17.3796   23.5737 C   0  0  0  0  0  0  0  0  0  0  0  0
  -32.0518  -16.5327   22.6410 C   0  0  0  0  0  0  0  0  0  0  0  0
  -22.3323   -8.6793   20.1022 C   0  0  0  0  0  0  0  0  0  0  0  0
  -23.1375   -8.5845   22.3781 C   0  0  0  0  0  0  0  0  0  0  0  0
  -34.7559  -24.2040   21.0152 C   0  0  0  0  0  0  0  0  0  0  0  0
  -19.9277   -7.7333   23.0052 C   0  0  0  0  0  0  0  0  0  0  0  0
  -19.1945   -7.6322   24.1875 C   0  0  0  0  0  0  0  0  0  0  0  0
  -33.0274  -24.9257   22.5447 C   0  0  0  0  0  0  0  0  0  0  0  0
  -29.8734  -17.3355   23.3098 C   0  0  0  0  0  0  0  0  0  0  0  0
  -20.4640   -5.6723   24.8073 C   0  0  0  0  0  0  0  0  0  0  0  0
  -23.8308  -10.3862   20.9256 C   0  0  0  0  0  0  0  0  0  0  0  0
  -24.1522  -12.9169   20.9182 C   0  0  0  0  0  0  0  0  0  0  0  0
  -31.1898  -31.5422   15.3514 C   0  0  0  0  0  0  0  0  0  0  0  0
  -33.4062  -26.1370   20.4771 C   0  0  0  0  0  0  0  0  0  0  0  0
  -31.9011  -31.3246   16.5469 C   0  0  0  0  0  0  0  0  0  0  0  0
  -32.6989  -25.9727   21.6794 C   0  0  0  0  0  0  0  0  0  0  0  0
  -31.8604  -18.2045   24.3746 C   0  0  0  0  0  0  0  0  0  0  0  0
  -30.4720  -18.1825   24.2426 C   0  0  0  0  0  0  0  0  0  0  0  0
  -30.6634  -16.5106   22.5090 C   0  0  0  0  0  0  0  0  0  0  0  0
  -22.3696   -8.0471   21.3450 C   0  0  0  0  0  0  0  0  0  0  0  0
  -34.0511  -24.0400   22.2080 C   0  0  0  0  0  0  0  0  0  0  0  0
  -20.9291   -6.8038   22.7239 C   0  0  0  0  0  0  0  0  0  0  0  0
  -19.4627   -6.6018   25.0885 C   0  0  0  0  0  0  0  0  0  0  0  0
  -21.1973   -5.7733   23.6250 C   0  0  0  0  0  0  0  0  0  0  0  0
  -24.5861  -11.5941   20.7094 C   0  0  0  0  0  0  0  0  0  0  0  0
  -25.2315  -13.6914   20.5695 C   0  0  0  0  0  0  0  0  0  0  0  0
  -22.8866  -13.4022   21.3857 C   0  0  0  0  0  0  0  0  0  0  0  0
  -31.3859  -29.1369   19.4797 C   0  0  0  0  0  0  0  0  0  0  0  0
  -29.4331  -27.1168   20.7110 C   0  0  0  0  0  0  0  0  0  0  0  0
  -33.5453  -21.0161   24.1451 C   0  0  0  0  0  0  0  0  0  0  0  0
  -27.5589  -24.4598   21.7429 C   0  0  0  0  0  0  0  0  0  0  0  0
  -30.6925  -14.7715   20.6866 C   0  0  0  0  0  0  0  0  0  0  0  0
  -29.6821  -31.5476   15.3152 C   0  0  0  0  0  0  0  0  0  0  0  0
  -33.0732  -27.3194   19.6083 C   0  0  0  0  0  0  0  0  0  0  0  0
  -31.6169  -26.9665   22.0029 C   0  0  0  0  0  0  0  0  0  0  0  0
  -29.0412  -30.8825   16.5306 C   0  0  0  0  0  0  0  0  0  0  0  0
  -29.5485  -12.4629   18.2293 C   0  0  0  0  0  0  0  0  0  0  0  0
  -29.7028  -31.3689   17.8161 C   0  0  0  0  0  0  0  0  0  0  0  0
  -28.1198  -12.1399   18.6726 C   0  0  0  0  0  0  0  0  0  0  0  0
  -30.4857  -12.6423   19.4223 C   0  0  0  0  0  0  0  0  0  0  0  0
  -28.6014  -13.2856   20.8732 C   0  0  0  0  0  0  0  0  0  0  0  0
  -31.1913  -31.0015   17.8437 C   0  0  1  0  0  0  0  0  0  0  0  0
  -31.5704  -27.6521   19.5921 C   0  0  1  0  0  0  0  0  0  0  0  0
  -27.6066  -13.1602   19.7077 C   0  0  2  0  0  0  0  0  0  0  0  0
  -25.1856  -23.7797   22.1931 C   0  0  0  0  0  0  0  0  0  0  0  0
  -29.4799  -28.6948   23.3209 C   0  0  0  0  0  0  0  0  0  0  0  0
  -27.5886  -27.2699   24.1338 C   0  0  0  0  0  0  0  0  0  0  0  0
  -27.2829  -28.7186   22.1263 C   0  0  0  0  0  0  0  0  0  0  0  0
  -27.6566  -22.3322   19.6880 C   0  0  0  0  0  0  0  0  0  0  0  0
  -32.5274  -19.1070   25.3719 C   0  0  0  0  0  0  0  0  0  0  0  0
  -29.6064  -19.0583   25.0877 C   0  0  0  0  0  0  0  0  0  0  0  0
  -33.3020  -22.4783   23.8381 C   0  0  0  0  0  0  0  0  0  1  0  0
  -28.7170  -26.6439   21.9507 C   0  0  1  0  0  0  0  0  0  0  0  0
  -26.3061  -23.8258   21.1658 C   0  0  2  0  0  0  0  0  0  0  0  0
  -28.2915  -27.8199   22.8744 C   0  0  0  0  0  0  0  0  0  0  0  0
  -25.8430  -11.5282   20.2624 N   0  0  0  0  0  0  0  0  0  0  0  0
  -26.2082  -12.8194   20.1875 N   0  0  0  0  0  0  0  0  0  0  0  0
  -30.8237  -27.2555   20.7980 N   0  0  0  0  0  0  0  0  0  0  0  0
  -29.9369  -13.6262   20.3581 N   0  0  0  0  0  0  0  0  0  0  0  0
  -25.4310  -15.0265   20.5553 N   0  0  0  0  0  0  0  0  0  0  0  0
  -21.8881  -12.4701   21.6994 N   0  0  0  0  0  0  0  0  0  0  0  0
  -30.0550  -15.6518   21.5603 N   0  0  0  0  0  0  0  0  0  0  0  0
  -31.3608  -29.6040   18.1795 N   0  0  0  0  0  0  0  0  0  0  0  0
  -32.5373  -20.4835   24.9335 N   0  0  0  0  0  0  0  0  0  0  0  0
  -27.6085  -25.8144   21.4904 N   0  0  0  0  0  0  0  0  0  0  0  0
  -26.5898  -22.4334   20.7170 N   0  3  0  0  0  0  0  0  0  0  0  0
  -22.6428  -14.6268   21.5057 O   0  0  0  0  0  0  0  0  0  0  0  0
  -31.2729  -29.8104   20.4973 O   0  0  0  0  0  0  0  0  0  0  0  0
  -28.7792  -27.3628   19.6936 O   0  0  0  0  0  0  0  0  0  0  0  0
  -34.5270  -20.4049   23.7320 O   0  0  0  0  0  0  0  0  0  0  0  0
  -28.4067  -23.8182   22.3595 O   0  0  0  0  0  0  0  0  0  0  0  0
  -31.8109  -14.9711   20.2056 O   0  0  0  0  0  0  0  0  0  0  0  0
  -21.6567   -6.9059   21.5501 O   0  0  0  0  0  0  0  0  0  0  0  0
  -34.3609  -23.0094   23.0425 O   0  0  0  0  0  0  0  0  0  1  0  0
  -18.7595   -6.5057   26.2246 F   0  0  0  0  0  0  0  0  0  0  0  0
  -22.1588   -4.8781   23.3608 F   0  0  0  0  0  0  0  0  0  0  0  0
  -29.6726  -20.3491   24.6576 F   0  0  0  0  0  0  0  0  0  0  0  0
  1  2  1  0  0  0  0
  1  5  2  0  0  0  0
  2  6  2  0  0  0  0
  3 10  2  0  0  0  0
  3 18  1  0  0  0  0
  4 11  1  0  0  0  0
  4 18  2  0  0  0  0
  5 20  1  0  0  0  0
  6 22  1  0  0  0  0
  7 12  2  0  0  0  0
  7 21  1  0  0  0  0
  8  9  2  0  0  0  0
  8 24  1  0  0  0  0
  9 26  1  0  0  0  0
 10 27  1  0  0  0  0
 11 27  2  0  0  0  0
 12 28  1  0  0  0  0
 13 14  2  0  0  0  0
 13 29  1  0  0  0  0
 14 30  1  0  0  0  0
 15 23  1  0  0  0  0
 15 28  2  0  0  0  0
 16 25  1  0  0  0  0
 16 26  2  0  0  0  0
 17 30  2  0  0  0  0
 17 31  1  0  0  0  0
 18 32  1  0  0  0  0
 19 32  1  0  0  0  0
 19 33  2  0  0  0  0
 19 34  1  0  0  0  0
 20 22  2  0  0  0  0
 20 40  1  0  0  0  0
 21 23  2  0  0  0  0
 21 41  1  0  0  0  0
 22 49  1  0  0  0  0
 23 42  1  0  0  0  0
 24 25  2  0  0  0  0
 24 57  1  0  0  0  0
 25 58  1  0  0  0  0
 26 69  1  0  0  0  0
 27 80  1  0  0  0  0
 28 81  1  0  0  0  0
 29 31  2  0  0  0  0
 29 80  1  0  0  0  0
 30 82  1  0  0  0  0
 31 83  1  0  0  0  0
 32 63  2  0  0  0  0
 33 64  1  0  0  0  0
 33 67  1  0  0  0  0
 34 68  1  0  0  0  0
 34 74  2  0  0  0  0
 35 50  1  0  0  0  0
 35 70  1  0  0  0  0
 35 75  2  0  0  0  0
 36 60  1  0  0  0  0
 36 65  1  0  0  0  0
 36 76  2  0  0  0  0
 37 59  1  0  0  0  0
 37 71  1  0  0  0  0
 37 77  2  0  0  0  0
 38 61  1  0  0  0  0
 38 72  1  0  0  0  0
 38 78  2  0  0  0  0
 39 66  1  0  0  0  0
 39 69  1  0  0  0  0
 39 79  2  0  0  0  0
 40 43  1  0  0  0  0
 41 50  1  0  0  0  0
 42 65  1  0  0  0  0
 43 45  1  0  0  0  0
 44 46  1  0  0  0  0
 44 47  1  0  0  0  0
 45 49  1  0  0  0  0
 46 51  1  0  0  0  0
 47 66  1  0  0  0  0
 48 51  1  0  0  0  0
 48 66  1  0  0  0  0
 49 70  1  0  0  0  0
 50 65  1  0  0  0  0
 51 64  1  0  0  0  0
 52 61  1  0  0  0  0
 53 62  1  0  0  0  0
 54 62  1  0  0  0  0
 55 62  1  0  0  0  0
 56 73  1  0  0  0  0
 57 71  1  0  0  0  0
 58 84  1  0  0  0  0
 59 81  1  0  0  0  0
 60 62  1  0  0  0  0
 60 72  1  0  0  0  0
 61 73  1  0  0  0  0
 63 64  1  0  0  0  0
M  CHG  1  73   1
M  ISO  4  39 100  59 101  69 100  81 101
M  END
> <Batch ID>
0048

> <Smiles>
CNC(C)C(=O)NC(C(=O)N1Cc2cc([101O:1][101CH2:1]C(=O)NCc3ccc([100NH:0][100C:0](=O)N4CCCC(n5nc(-c6ccc(Oc7ccc(F)cc7F)cc6)c(C(N)=O)c5N)C4)cc3CF)ccc2CC1C(=O)NC1CCCc2ccccc21)C(C)(C)C

> <Shape>
0.217

> <Color>
0.202

> <Negative vol penalty>
0.000

$$$$

  -OEChem-04042322293D

 89 98  0     1  0  0  0  0  0999 V2000
  -20.7146  -33.1769   24.8472 C   0  0  0  0  0  0  0  0  0  0  0  0
  -21.9535  -32.7332   24.3959 C   0  0  0  0  0  0  0  0  0  0  0  0
  -24.2262   -9.8908   20.5202 C   0  0  0  0  0  0  0  0  0  0  0  0
  -22.5254  -10.5110   22.1201 C   0  0  0  0  0  0  0  0  0  0  0  0
  -19.6776  -32.2654   25.0419 C   0  0  0  0  0  0  0  0  0  0  0  0
  -22.1565  -31.3775   24.1401 C   0  0  0  0  0  0  0  0  0  0  0  0
  -25.6774  -28.9444   19.7596 C   0  0  0  0  0  0  0  0  0  0  0  0
  -27.6203  -21.4318   19.6638 C   0  0  0  0  0  0  0  0  0  0  0  0
  -26.5615  -20.5488   19.4520 C   0  0  0  0  0  0  0  0  0  0  0  0
  -23.6896   -8.6053   20.4480 C   0  0  0  0  0  0  0  0  0  0  0  0
  -21.9888   -9.2255   22.0479 C   0  0  0  0  0  0  0  0  0  0  0  0
  -26.9726  -28.4287   19.7758 C   0  0  0  0  0  0  0  0  0  0  0  0
  -22.6832   -6.1621   23.2984 C   0  0  0  0  0  0  0  0  0  0  0  0
  -22.3420   -5.5340   24.4962 C   0  0  0  0  0  0  0  0  0  0  0  0
  -26.0771  -26.2042   20.0383 C   0  0  0  0  0  0  0  0  0  0  0  0
  -28.1312  -18.8053   18.8745 C   0  0  0  0  0  0  0  0  0  0  0  0
  -20.0472   -5.3728   23.7580 C   0  0  0  0  0  0  0  0  0  0  0  0
  -23.6442  -10.8436   21.3563 C   0  0  0  0  0  0  0  0  0  0  0  0
  -25.5004  -12.5278   21.8313 C   0  0  0  0  0  0  0  0  0  0  0  0
  -19.8651  -30.8993   24.7792 C   0  0  0  0  0  0  0  0  0  0  0  0
  -24.5708  -28.0937   19.8939 C   0  0  0  0  0  0  0  0  0  0  0  0
  -21.1214  -30.4468   24.3328 C   0  0  0  0  0  0  0  0  0  0  0  0
  -24.7688  -26.7114   20.0209 C   0  0  0  0  0  0  0  0  0  0  0  0
  -28.9345  -21.0016   19.4808 C   0  0  0  0  0  0  0  0  0  0  0  0
  -29.1900  -19.6884   19.0862 C   0  0  0  0  0  0  0  0  0  0  0  0
  -26.8170  -19.2355   19.0574 C   0  0  0  0  0  0  0  0  0  0  0  0
  -22.5709   -8.2727   21.2118 C   0  0  0  0  0  0  0  0  0  0  0  0
  -27.1727  -27.0587   19.9180 C   0  0  0  0  0  0  0  0  0  0  0  0
  -21.7063   -6.3956   22.3304 C   0  0  0  0  0  0  0  0  0  0  0  0
  -21.0240   -5.1394   24.7260 C   0  0  0  0  0  0  0  0  0  0  0  0
  -20.3883   -6.0009   22.5602 C   0  0  0  0  0  0  0  0  0  0  0  0
  -24.1984  -12.1715   21.4317 C   0  0  0  0  0  0  0  0  0  0  0  0
  -25.5280  -13.8973   21.7300 C   0  0  0  0  0  0  0  0  0  0  0  0
  -29.1070  -24.2654   19.7526 C   0  0  0  0  0  0  0  0  0  0  0  0
  -26.5877  -11.6953   22.2560 C   0  0  0  0  0  0  0  0  0  0  0  0
  -22.2173  -27.7913   22.0089 C   0  0  0  0  0  0  0  0  0  0  0  0
  -21.1091  -25.6088   19.8803 C   0  0  0  0  0  0  0  0  0  0  0  0
  -21.7920  -23.4287   17.3451 C   0  0  0  0  0  0  0  0  0  0  0  0
  -24.3798  -18.6023   18.9829 C   0  0  0  0  0  0  0  0  0  0  0  0
  -18.7287  -29.9453   25.0498 C   0  0  0  0  0  0  0  0  0  0  0  0
  -23.1793  -28.6628   19.8476 C   0  0  0  0  0  0  0  0  0  0  0  0
  -23.6137  -25.7532   20.1481 C   0  0  0  0  0  0  0  0  0  0  0  0
  -18.9132  -28.5775   24.3977 C   0  0  0  0  0  0  0  0  0  0  0  0
  -30.0414  -24.3660   22.5522 C   0  0  0  0  0  0  0  0  0  0  0  0
  -21.7832  -17.2215   20.9899 C   0  0  0  0  0  0  0  0  0  0  0  0
  -20.3256  -28.0558   24.6421 C   0  0  0  0  0  0  0  0  0  0  0  0
  -29.7134  -25.6241   21.7503 C   0  0  0  0  0  0  0  0  0  0  0  0
  -22.2872  -15.8139   21.3167 C   0  0  0  0  0  0  0  0  0  0  0  0
  -29.5485  -23.0841   21.8867 C   0  0  0  0  0  0  0  0  0  0  0  0
  -22.1636  -17.6453   19.5724 C   0  0  0  0  0  0  0  0  0  0  0  0
  -24.0950  -16.1160   19.5767 C   0  0  0  0  0  0  0  0  0  0  0  0
  -21.3731  -28.9875   24.0207 C   0  0  1  0  0  0  0  0  0  0  0  0
  -28.6481  -25.3737   20.6906 C   0  0  1  0  0  0  0  0  0  1  0  0
  -22.1422  -27.7600   20.5086 C   0  0  1  0  0  0  0  0  0  0  0  0
  -23.7922  -15.6704   21.0166 C   0  0  2  0  0  0  0  0  0  0  0  0
  -20.6879  -21.7579   15.8328 C   0  0  0  0  0  0  0  0  0  0  0  0
  -31.1795  -18.6259   20.1687 C   0  0  0  0  0  0  0  0  0  0  0  0
  -20.9788  -23.6130   22.1845 C   0  0  0  0  0  0  0  0  0  0  0  0
  -20.8015  -21.7766   20.4920 C   0  0  0  0  0  0  0  0  0  0  0  0
  -19.0300  -23.5282   20.6195 C   0  0  0  0  0  0  0  0  0  0  0  0
  -22.5488  -24.9489   14.9212 C   0  0  0  0  0  0  0  0  0  0  0  0
  -30.0574  -21.9706   19.7141 C   0  0  0  0  0  0  0  0  0  0  0  0
  -21.2975  -24.1253   19.6742 C   0  0  1  0  0  0  0  0  0  0  0  0
  -21.1228  -23.2055   16.0009 C   0  0  2  0  0  0  0  0  0  0  0  0
  -30.5889  -19.2050   18.8862 C   0  0  0  0  0  0  0  0  0  0  0  0
  -20.5490  -23.2788   20.7421 C   0  0  0  0  0  0  0  0  0  0  0  0
  -23.4528  -13.2293   21.1014 N   0  0  0  0  0  0  0  0  0  0  0  0
  -24.2890  -14.2637   21.2933 N   0  0  0  0  0  0  0  0  0  0  0  0
  -29.6143  -23.1542   20.4315 N   0  0  0  0  0  0  0  0  0  0  0  0
  -22.2725  -26.3588   20.1037 N   0  0  0  0  0  0  0  0  0  0  0  0
  -23.6042  -17.4864   19.3622 N   0  0  0  0  0  0  0  0  0  0  0  0
  -26.4909  -14.8117   21.9729 N   0  0  0  0  0  0  0  0  0  0  0  0
  -26.7106  -11.4013   23.6208 N   0  0  0  0  0  0  0  0  0  0  0  0
  -25.7418  -18.3375   18.8441 N   0  0  0  0  0  0  0  0  0  0  0  0
  -21.4480  -28.7811   22.5902 N   0  0  0  0  0  0  0  0  0  0  0  0
  -20.8911  -23.8492   18.3005 N   0  0  0  0  0  0  0  0  0  0  0  0
  -22.0594  -23.5465   14.8930 N   0  3  0  0  0  0  0  0  0  0  0  0
  -29.0154  -24.3654   18.5304 O   0  0  0  0  0  0  0  0  0  0  0  0
  -27.4350  -11.2394   21.4511 O   0  0  0  0  0  0  0  0  0  0  0  0
  -22.9201  -26.9768   22.5958 O   0  0  0  0  0  0  0  0  0  0  0  0
  -19.9724  -26.0858   19.8374 O   0  0  0  0  0  0  0  0  0  0  0  0
  -22.9930  -23.2446   17.5300 O   0  0  0  0  0  0  0  0  0  0  0  0
  -23.8771  -19.7174   18.8216 O   0  0  0  0  0  0  0  0  0  0  0  0
  -22.0468   -7.0185   21.1414 O   0  0  0  0  0  0  0  0  0  0  0  0
  -28.4359  -26.5527   19.9348 O   0  0  0  0  0  0  0  0  0  1  0  0
  -20.6968   -4.5348   25.8757 F   0  0  0  0  0  0  0  0  0  0  0  0
  -19.4458   -6.2215   21.6336 F   0  0  0  0  0  0  0  0  0  0  0  0
  -31.4397  -20.1924   18.4611 F   0  0  0  0  0  0  0  0  0  0  0  0
  -30.6860  -18.2337   17.9236 F   0  0  0  0  0  0  0  0  0  0  0  0
  1  2  1  0  0  0  0
  1  5  2  0  0  0  0
  2  6  2  0  0  0  0
  3 10  2  0  0  0  0
  3 18  1  0  0  0  0
  4 11  1  0  0  0  0
  4 18  2  0  0  0  0
  5 20  1  0  0  0  0
  6 22  1  0  0  0  0
  7 12  2  0  0  0  0
  7 21  1  0  0  0  0
  8  9  2  0  0  0  0
  8 24  1  0  0  0  0
  9 26  1  0  0  0  0
 10 27  1  0  0  0  0
 11 27  2  0  0  0  0
 12 28  1  0  0  0  0
 13 14  2  0  0  0  0
 13 29  1  0  0  0  0
 14 30  1  0  0  0  0
 15 23  1  0  0  0  0
 15 28  2  0  0  0  0
 16 25  1  0  0  0  0
 16 26  2  0  0  0  0
 17 30  2  0  0  0  0
 17 31  1  0  0  0  0
 18 32  1  0  0  0  0
 19 32  1  0  0  0  0
 19 33  2  0  0  0  0
 19 35  1  0  0  0  0
 20 22  2  0  0  0  0
 20 40  1  0  0  0  0
 21 23  2  0  0  0  0
 21 41  1  0  0  0  0
 22 52  1  0  0  0  0
 23 42  1  0  0  0  0
 24 25  2  0  0  0  0
 24 62  1  0  0  0  0
 25 65  1  0  0  0  0
 26 74  1  0  0  0  0
 27 84  1  0  0  0  0
 28 85  1  0  0  0  0
 29 31  2  0  0  0  0
 29 84  1  0  0  0  0
 30 86  1  0  0  0  0
 31 87  1  0  0  0  0
 32 67  2  0  0  0  0
 33 68  1  0  0  0  0
 33 72  1  0  0  0  0
 34 53  1  0  0  0  0
 34 69  1  0  0  0  0
 34 78  2  0  0  0  0
 35 73  1  0  0  0  0
 35 79  2  0  0  0  0
 36 54  1  0  0  0  0
 36 75  1  0  0  0  0
 36 80  2  0  0  0  0
 37 63  1  0  0  0  0
 37 70  1  0  0  0  0
 37 81  2  0  0  0  0
 38 64  1  0  0  0  0
 38 76  1  0  0  0  0
 38 82  2  0  0  0  0
 39 71  1  0  0  0  0
 39 74  1  0  0  0  0
 39 83  2  0  0  0  0
 40 43  1  0  0  0  0
 41 54  1  0  0  0  0
 42 70  1  0  0  0  0
 43 46  1  0  0  0  0
 44 47  1  0  0  0  0
 44 49  1  0  0  0  0
 45 48  1  0  0  0  0
 45 50  1  0  0  0  0
 46 52  1  0  0  0  0
 47 53  1  0  0  0  0
 48 55  1  0  0  0  0
 49 69  1  0  0  0  0
 50 71  1  0  0  0  0
 51 55  1  0  0  0  0
 51 71  1  0  0  0  0
 52 75  1  0  0  0  0
 53 85  1  0  0  0  0
 54 70  1  0  0  0  0
 55 68  1  0  0  0  0
 56 64  1  0  0  0  0
 57 65  1  0  0  0  0
 58 66  1  0  0  0  0
 59 66  1  0  0  0  0
 60 66  1  0  0  0  0
 61 77  1  0  0  0  0
 62 69  1  0  0  0  0
 63 66  1  0  0  0  0
 63 76  1  0  0  0  0
 64 77  1  0  0  0  0
 65 88  1  0  0  0  0
 65 89  1  0  0  0  0
 67 68  1  0  0  0  0
M  CHG  1  77   1
M  ISO  4  39 100  53 101  74 100  85 101
M  END
> <Batch ID>
0048

> <Smiles>
CNC(C)C(=O)NC(C(=O)N1Cc2cc([101O:1][101CH:1]3CCCN(Cc4ccc([100NH:0][100C:0](=O)N5CCCC(n6nc(-c7ccc(Oc8ccc(F)cc8F)cc7)c(C(N)=O)c6N)C5)cc4C(C)(F)F)C3=O)ccc2CC1C(=O)NC1CCCc2ccccc21)C(C)(C)C

> <Shape>
0.235

> <Color>
0.100

> <Negative vol penalty>
0.000

$$$$

  -OEChem-04042322293D

 83 91  0     1  0  0  0  0  0999 V2000
  -29.2451  -37.4253   21.2876 C   0  0  0  0  0  0  0  0  0  0  0  0
  -29.5115  -36.1184   20.8919 C   0  0  0  0  0  0  0  0  0  0  0  0
  -23.7931   -9.4320   22.6513 C   0  0  0  0  0  0  0  0  0  0  0  0
  -23.6645   -9.5887   20.2438 C   0  0  0  0  0  0  0  0  0  0  0  0
  -28.3414  -37.6691   22.3209 C   0  0  0  0  0  0  0  0  0  0  0  0
  -28.8751  -35.0545   21.5301 C   0  0  0  0  0  0  0  0  0  0  0  0
  -27.0767  -29.7808   18.9886 C   0  0  0  0  0  0  0  0  0  0  0  0
  -22.8644   -8.3913   22.6332 C   0  0  0  0  0  0  0  0  0  0  0  0
  -22.7359   -8.5480   20.2257 C   0  0  0  0  0  0  0  0  0  0  0  0
  -27.6544  -28.5125   18.9513 C   0  0  0  0  0  0  0  0  0  0  0  0
  -22.8511   -5.0761   21.9684 C   0  0  0  0  0  0  0  0  0  0  0  0
  -23.1170   -3.9562   22.7562 C   0  0  0  0  0  0  0  0  0  0  0  0
  -28.9132  -19.1148   18.6693 C   0  0  0  0  0  0  0  0  0  0  0  0
  -30.9841  -19.0323   17.4278 C   0  0  0  0  0  0  0  0  0  0  0  0
  -26.3085  -27.8505   20.8407 C   0  0  0  0  0  0  0  0  0  0  0  0
  -29.8359  -16.9849   17.9993 C   0  0  0  0  0  0  0  0  0  0  0  0
  -21.0666   -4.3290   23.9785 C   0  0  0  0  0  0  0  0  0  0  0  0
  -24.1930  -10.0307   21.4566 C   0  0  0  0  0  0  0  0  0  0  0  0
  -29.9862  -19.7698   18.0650 C   0  0  0  0  0  0  0  0  0  0  0  0
  -26.5530  -10.9973   21.3926 C   0  0  0  0  0  0  0  0  0  0  0  0
  -27.6863  -36.6081   22.9656 C   0  0  0  0  0  0  0  0  0  0  0  0
  -26.1169  -30.0974   19.9606 C   0  0  0  0  0  0  0  0  0  0  0  0
  -27.9627  -35.2842   22.5739 C   0  0  0  0  0  0  0  0  0  0  0  0
  -25.7183  -29.1228   20.8865 C   0  0  0  0  0  0  0  0  0  0  0  0
  -28.8380  -17.7223   18.6365 C   0  0  0  0  0  0  0  0  0  0  0  0
  -22.3359   -7.9493   21.4204 C   0  0  0  0  0  0  0  0  0  0  0  0
  -27.2725  -27.5480   19.8792 C   0  0  0  0  0  0  0  0  0  0  0  0
  -21.6929   -5.8226   22.1857 C   0  0  0  0  0  0  0  0  0  0  0  0
  -22.2248   -3.5826   23.7613 C   0  0  0  0  0  0  0  0  0  0  0  0
  -20.8007   -5.4490   23.1908 C   0  0  0  0  0  0  0  0  0  0  0  0
  -30.9090  -17.6398   17.3950 C   0  0  0  0  0  0  0  0  0  0  0  0
  -25.1518  -11.1061   21.4747 C   0  0  0  0  0  0  0  0  0  0  0  0
  -27.0022  -12.2939   21.4522 C   0  0  0  0  0  0  0  0  0  0  0  0
  -30.0660  -21.2405   18.0983 C   0  0  0  0  0  0  0  0  0  0  0  0
  -29.0291  -22.0629   18.3238 C   0  0  0  0  0  0  0  0  0  0  0  0
  -29.1617  -23.5037   18.3376 C   0  0  0  0  0  0  0  0  0  0  0  0
  -28.1320  -24.3335   18.5618 C   0  0  0  0  0  0  0  0  0  0  0  0
  -27.3750   -9.8286   21.2731 C   0  0  0  0  0  0  0  0  0  0  0  0
  -25.9406  -32.2007   22.3373 C   0  0  0  0  0  0  0  0  0  0  0  0
  -22.9056  -31.0824   22.5827 C   0  0  0  0  0  0  0  0  0  0  0  0
  -20.6989  -28.5424   22.0119 C   0  0  0  0  0  0  0  0  0  0  0  0
  -26.6737  -17.6377   19.9229 C   0  0  0  0  0  0  0  0  0  0  0  0
  -26.7531  -36.9186   24.1091 C   0  0  0  0  0  0  0  0  0  0  0  0
  -25.4837  -31.4617   19.9707 C   0  0  0  0  0  0  0  0  0  0  0  0
  -24.6773  -29.4060   21.9375 C   0  0  0  0  0  0  0  0  0  0  0  0
  -25.8386  -35.7547   24.4823 C   0  0  0  0  0  0  0  0  0  0  0  0
  -24.5557  -16.5788   22.5818 C   0  0  0  0  0  0  0  0  0  0  0  0
  -26.6360  -34.4576   24.5745 C   0  0  0  0  0  0  0  0  0  0  0  0
  -24.6372  -15.0517   22.5241 C   0  0  0  0  0  0  0  0  0  0  0  0
  -24.5792  -17.2011   21.1869 C   0  0  0  0  0  0  0  0  0  0  0  0
  -25.7818  -15.2517   20.2797 C   0  0  0  0  0  0  0  0  0  0  0  0
  -27.2736  -34.1048   23.2253 C   0  0  1  0  0  0  0  0  0  0  0  0
  -24.8912  -31.8355   21.3259 C   0  0  1  0  0  0  0  0  0  0  0  0
  -25.8268  -14.5830   21.6634 C   0  0  2  0  0  0  0  0  0  0  0  0
  -18.2964  -27.9052   22.3577 C   0  0  0  0  0  0  0  0  0  0  0  0
  -23.4746  -30.5470   25.5322 C   0  0  0  0  0  0  0  0  0  0  0  0
  -21.4478  -29.0781   25.5848 C   0  0  0  0  0  0  0  0  0  0  0  0
  -21.2131  -31.5063   25.0634 C   0  0  0  0  0  0  0  0  0  0  0  0
  -20.2265  -28.2889   19.1013 C   0  0  0  0  0  0  0  0  0  0  0  0
  -28.2580  -25.8226   18.5725 C   0  0  0  0  0  0  0  0  0  1  0  0
  -22.2371  -29.9625   23.3430 C   0  0  1  0  0  0  0  0  0  0  0  0
  -19.3053  -28.5350   21.4099 C   0  0  2  0  0  0  0  0  0  0  0  0
  -22.1142  -30.2684   24.8624 C   0  0  0  0  0  0  0  0  0  0  0  0
  -24.7382  -12.3718   21.5787 N   0  0  0  0  0  0  0  0  0  0  0  0
  -25.8862  -13.0703   21.5625 N   0  0  0  0  0  0  0  0  0  0  0  0
  -24.0920  -30.7566   21.9103 N   0  0  0  0  0  0  0  0  0  0  0  0
  -25.7354  -16.7145   20.4311 N   0  0  0  0  0  0  0  0  0  0  0  0
  -28.2389  -12.8342   21.4206 N   0  0  0  0  0  0  0  0  0  0  0  0
  -26.7507   -8.5747   21.2256 N   0  0  0  0  0  0  0  0  0  0  0  0
  -27.7478  -17.0566   19.2497 N   0  0  0  0  0  0  0  0  0  0  0  0
  -26.2856  -33.5388   22.3320 N   0  0  0  0  0  0  0  0  0  0  0  0
  -20.9617  -29.7214   22.6769 N   0  0  0  0  0  0  0  0  0  0  0  0
  -19.2962  -27.7647   20.1342 N   0  3  0  0  0  0  0  0  0  0  0  0
  -28.6269   -9.8934   21.2269 O   0  0  0  0  0  0  0  0  0  0  0  0
  -26.4020  -31.3331   23.0694 O   0  0  0  0  0  0  0  0  0  0  0  0
  -22.3902  -32.2030   22.5795 O   0  0  0  0  0  0  0  0  0  0  0  0
  -21.4752  -27.5954   21.9062 O   0  0  0  0  0  0  0  0  0  0  0  0
  -26.5487  -18.8526   20.0972 O   0  0  0  0  0  0  0  0  0  0  0  0
  -21.4299   -6.9337   21.4023 O   0  0  0  0  0  0  0  0  0  0  0  0
  -27.8353  -26.3095   19.8455 O   0  0  0  0  0  0  0  0  0  1  0  0
  -22.4796   -2.5062   24.5167 F   0  0  0  0  0  0  0  0  0  0  0  0
  -19.6859   -6.1615   23.4035 F   0  0  0  0  0  0  0  0  0  0  0  0
  -32.1393  -16.7303   16.6070 Cl  0  0  0  0  0  0  0  0  0  0  0  0
  1  2  1  0  0  0  0
  1  5  2  0  0  0  0
  2  6  2  0  0  0  0
  3  8  2  0  0  0  0
  3 18  1  0  0  0  0
  4  9  1  0  0  0  0
  4 18  2  0  0  0  0
  5 21  1  0  0  0  0
  6 23  1  0  0  0  0
  7 10  2  0  0  0  0
  7 22  1  0  0  0  0
  8 26  1  0  0  0  0
  9 26  2  0  0  0  0
 10 27  1  0  0  0  0
 11 12  2  0  0  0  0
 11 28  1  0  0  0  0
 12 29  1  0  0  0  0
 13 19  2  0  0  0  0
 13 25  1  0  0  0  0
 14 19  1  0  0  0  0
 14 31  2  0  0  0  0
 15 24  1  0  0  0  0
 15 27  2  0  0  0  0
 16 25  2  0  0  0  0
 16 31  1  0  0  0  0
 17 29  2  0  0  0  0
 17 30  1  0  0  0  0
 18 32  1  0  0  0  0
 19 34  1  0  0  0  0
 20 32  1  0  0  0  0
 20 33  2  0  0  0  0
 20 38  1  0  0  0  0
 21 23  2  0  0  0  0
 21 43  1  0  0  0  0
 22 24  2  0  0  0  0
 22 44  1  0  0  0  0
 23 52  1  0  0  0  0
 24 45  1  0  0  0  0
 25 70  1  0  0  0  0
 26 79  1  0  0  0  0
 27 80  1  0  0  0  0
 28 30  2  0  0  0  0
 28 79  1  0  0  0  0
 29 81  1  0  0  0  0
 30 82  1  0  0  0  0
 31 83  1  0  0  0  0
 32 64  2  0  0  0  0
 33 65  1  0  0  0  0
 33 68  1  0  0  0  0
 34 35  2  0  0  0  0
 35 36  1  0  0  0  0
 36 37  2  0  0  0  0
 37 60  1  0  0  0  0
 38 69  1  0  0  0  0
 38 74  2  0  0  0  0
 39 53  1  0  0  0  0
 39 71  1  0  0  0  0
 39 75  2  0  0  0  0
 40 61  1  0  0  0  0
 40 66  1  0  0  0  0
 40 76  2  0  0  0  0
 41 62  1  0  0  0  0
 41 72  1  0  0  0  0
 41 77  2  0  0  0  0
 42 67  1  0  0  0  0
 42 70  1  0  0  0  0
 42 78  2  0  0  0  0
 43 46  1  0  0  0  0
 44 53  1  0  0  0  0
 45 66  1  0  0  0  0
 46 48  1  0  0  0  0
 47 49  1  0  0  0  0
 47 50  1  0  0  0  0
 48 52  1  0  0  0  0
 49 54  1  0  0  0  0
 50 67  1  0  0  0  0
 51 54  1  0  0  0  0
 51 67  1  0  0  0  0
 52 71  1  0  0  0  0
 53 66  1  0  0  0  0
 54 65  1  0  0  0  0
 55 62  1  0  0  0  0
 56 63  1  0  0  0  0
 57 63  1  0  0  0  0
 58 63  1  0  0  0  0
 59 73  1  0  0  0  0
 60 80  1  0  0  0  0
 61 63  1  0  0  0  0
 61 72  1  0  0  0  0
 62 73  1  0  0  0  0
 64 65  1  0  0  0  0
M  CHG  1  73   1
M  ISO  4  42 100  60 101  70 100  80 101
M  END
> <Batch ID>
0048

> <Smiles>
CNC(C)C(=O)NC(C(=O)N1Cc2cc([101O:1][101CH2:1]C=CC=Cc3cc(Cl)cc([100NH:0][100C:0](=O)N4CCCC(n5nc(-c6ccc(Oc7ccc(F)cc7F)cc6)c(C(N)=O)c5N)C4)c3)ccc2CC1C(=O)NC1CCCc2ccccc21)C(C)(C)C

> <Shape>
0.296

> <Color>
0.104

> <Negative vol penalty>
0.000

$$$$

  -OEChem-04042322293D

 87 95  0     1  0  0  0  0  0999 V2000
  -23.1636  -30.7824   26.9448 C   0  0  0  0  0  0  0  0  0  0  0  0
  -23.8560  -29.8790   26.1449 C   0  0  0  0  0  0  0  0  0  0  0  0
  -25.4110  -13.5901   22.2992 C   0  0  0  0  0  0  0  0  0  0  0  0
  -27.2459  -13.4112   20.7377 C   0  0  0  0  0  0  0  0  0  0  0  0
  -21.8607  -31.1504   26.6116 C   0  0  0  0  0  0  0  0  0  0  0  0
  -23.2456  -29.3422   25.0120 C   0  0  0  0  0  0  0  0  0  0  0  0
  -26.3054  -29.3320   20.9769 C   0  0  0  0  0  0  0  0  0  0  0  0
  -31.7800  -19.8586   18.7313 C   0  0  0  0  0  0  0  0  0  0  0  0
  -24.6797  -12.6726   21.5450 C   0  0  0  0  0  0  0  0  0  0  0  0
  -26.5146  -12.4936   19.9835 C   0  0  0  0  0  0  0  0  0  0  0  0
  -27.2772  -28.3340   20.9173 C   0  0  0  0  0  0  0  0  0  0  0  0
  -24.5774   -9.3203   21.1156 C   0  0  0  0  0  0  0  0  0  0  0  0
  -23.9123   -8.3027   21.7996 C   0  0  0  0  0  0  0  0  0  0  0  0
  -32.4356  -20.2514   17.5645 C   0  0  0  0  0  0  0  0  0  0  0  0
  -25.8841  -27.0764   19.4017 C   0  0  0  0  0  0  0  0  0  0  0  0
  -30.7208  -22.0258   18.8658 C   0  0  0  0  0  0  0  0  0  0  0  0
  -21.8051   -9.0836   20.9123 C   0  0  0  0  0  0  0  0  0  0  0  0
  -26.6941  -13.9595   21.8955 C   0  0  0  0  0  0  0  0  0  0  0  0
  -28.3280  -14.6263   23.7377 C   0  0  0  0  0  0  0  0  0  0  0  0
  -21.2374  -30.6252   25.4687 C   0  0  0  0  0  0  0  0  0  0  0  0
  -25.1090  -29.2043   20.2567 C   0  0  0  0  0  0  0  0  0  0  0  0
  -21.9326  -29.7025   24.6640 C   0  0  0  0  0  0  0  0  0  0  0  0
  -24.8999  -28.0754   19.4518 C   0  0  0  0  0  0  0  0  0  0  0  0
  -31.3765  -22.4187   17.6990 C   0  0  0  0  0  0  0  0  0  0  0  0
  -30.9226  -20.7458   19.3820 C   0  0  0  0  0  0  0  0  0  0  0  0
  -25.2314  -12.1243   20.3871 C   0  0  0  0  0  0  0  0  0  0  0  0
  -27.0654  -27.2047   20.1318 C   0  0  0  0  0  0  0  0  0  0  0  0
  -23.8563  -10.2196   20.3301 C   0  0  0  0  0  0  0  0  0  0  0  0
  -22.5262   -8.1843   21.6979 C   0  0  0  0  0  0  0  0  0  0  0  0
  -22.4702  -10.1012   20.2284 C   0  0  0  0  0  0  0  0  0  0  0  0
  -32.2339  -21.5314   17.0483 C   0  0  0  0  0  0  0  0  0  0  0  0
  -27.4499  -14.9077   22.6739 C   0  0  0  0  0  0  0  0  0  0  0  0
  -28.7889  -15.8570   24.1370 C   0  0  0  0  0  0  0  0  0  0  0  0
  -28.6943  -13.3653   24.3133 C   0  0  0  0  0  0  0  0  0  0  0  0
  -22.0318  -29.0254   21.0329 C   0  0  0  0  0  0  0  0  0  0  0  0
  -21.6145  -29.1559   17.8187 C   0  0  0  0  0  0  0  0  0  0  0  0
  -29.5267  -25.0269   18.6435 C   0  0  0  0  0  0  0  0  0  0  0  0
  -22.9102  -28.6318   14.7053 C   0  0  0  0  0  0  0  0  0  0  0  0
  -29.3735  -21.1029   21.3363 C   0  0  0  0  0  0  0  0  0  0  0  0
  -19.8107  -31.0165   25.1753 C   0  0  0  0  0  0  0  0  0  0  0  0
  -24.0822  -30.3021   20.3107 C   0  0  0  0  0  0  0  0  0  0  0  0
  -23.6412  -27.8999   18.6435 C   0  0  0  0  0  0  0  0  0  0  0  0
  -19.3699  -30.6891   23.7510 C   0  0  0  0  0  0  0  0  0  0  0  0
  -27.5011  -20.4668   24.2971 C   0  0  0  0  0  0  0  0  0  0  0  0
  -19.7880  -29.2710   23.3754 C   0  0  0  0  0  0  0  0  0  0  0  0
  -27.3606  -18.9430   24.3169 C   0  0  0  0  0  0  0  0  0  0  0  0
  -27.4255  -21.0249   22.8771 C   0  0  0  0  0  0  0  0  0  0  0  0
  -28.2132  -18.8877   21.9384 C   0  0  0  0  0  0  0  0  0  0  0  0
  -21.3133  -29.1174   23.4133 C   0  0  1  0  0  0  0  0  0  0  0  0
  -22.6803  -29.8277   19.9406 C   0  0  1  0  0  0  0  0  0  0  0  0
  -28.3482  -18.2733   23.3413 C   0  0  2  0  0  0  0  0  0  0  0  0
  -22.3179  -28.7943   12.2722 C   0  0  0  0  0  0  0  0  0  0  0  0
  -19.9432  -26.6144   18.0583 C   0  0  0  0  0  0  0  0  0  0  0  0
  -20.1846  -26.3058   15.5855 C   0  0  0  0  0  0  0  0  0  0  0  0
  -19.0229  -28.3233   16.4813 C   0  0  0  0  0  0  0  0  0  0  0  0
  -28.7659  -23.9450   16.5215 C   0  0  0  0  0  0  0  0  0  0  0  0
  -25.0610  -30.5994   14.1940 C   0  0  0  0  0  0  0  0  0  0  0  0
  -31.1382  -23.8034   17.1699 C   0  0  0  0  0  0  0  0  0  0  0  0
  -28.0986  -25.4810   18.8601 C   0  0  0  0  0  0  0  0  0  1  0  0
  -21.5338  -28.1358   16.7088 C   0  0  1  0  0  0  0  0  0  0  0  0
  -22.9366  -29.5066   13.4649 C   0  0  2  0  0  0  0  0  0  0  0  0
  -20.1941  -27.3469   16.7251 C   0  0  0  0  0  0  0  0  0  0  0  0
  -27.3568  -16.2145   22.4140 N   0  0  0  0  0  0  0  0  0  0  0  0
  -28.1823  -16.7653   23.3202 N   0  0  0  0  0  0  0  0  0  0  0  0
  -22.6645  -28.9978   18.7343 N   0  0  0  0  0  0  0  0  0  0  0  0
  -28.3918  -20.3464   22.0106 N   0  0  0  0  0  0  0  0  0  0  0  0
  -29.6499  -16.2400   25.1037 N   0  0  0  0  0  0  0  0  0  0  0  0
  -28.1276  -12.1986   23.7822 N   0  0  0  0  0  0  0  0  0  0  0  0
  -30.2571  -20.3461   20.5673 N   0  0  0  0  0  0  0  0  0  0  0  0
  -21.9097  -29.7022   22.2315 N   0  0  0  0  0  0  0  0  0  0  0  0
  -21.7849  -28.8615   15.4684 N   0  0  0  0  0  0  0  0  0  0  0  0
  -29.7985  -24.2884   17.4914 N   0  0  0  0  0  0  0  0  0  0  0  0
  -24.3393  -29.8718   13.1185 N   0  3  0  0  0  0  0  0  0  0  0  0
  -29.4876  -13.2770   25.2809 O   0  0  0  0  0  0  0  0  0  0  0  0
  -21.6677  -27.8777   20.8049 O   0  0  0  0  0  0  0  0  0  0  0  0
  -20.7809  -30.0638   17.8673 O   0  0  0  0  0  0  0  0  0  0  0  0
  -30.3800  -25.3325   19.4823 O   0  0  0  0  0  0  0  0  0  0  0  0
  -23.7971  -27.8228   14.9689 O   0  0  0  0  0  0  0  0  0  0  0  0
  -29.4433  -22.3288   21.4553 O   0  0  0  0  0  0  0  0  0  0  0  0
  -33.5683  -23.3459   15.7286 O   0  0  0  0  0  0  0  0  0  0  0  0
  -33.9179  -20.9023   15.1333 O   0  0  0  0  0  0  0  0  0  0  0  0
  -24.5182  -11.2288   19.6510 O   0  0  0  0  0  0  0  0  0  0  0  0
  -28.0120  -26.2289   20.0724 O   0  0  0  0  0  0  0  0  0  1  0  0
  -21.8878   -7.2061   22.3536 F   0  0  0  0  0  0  0  0  0  0  0  0
  -21.7723  -10.9614   19.4743 F   0  0  0  0  0  0  0  0  0  0  0  0
  -33.0728  -21.9913   15.5829 S   0  0  0  0  0  0  0  0  0  0  0  0
  -31.5494  -22.0831   14.2199 Cl  0  0  0  0  0  0  0  0  0  0  0  0
  1  2  1  0  0  0  0
  1  5  2  0  0  0  0
  2  6  2  0  0  0  0
  3  9  2  0  0  0  0
  3 18  1  0  0  0  0
  4 10  1  0  0  0  0
  4 18  2  0  0  0  0
  5 20  1  0  0  0  0
  6 22  1  0  0  0  0
  7 11  2  0  0  0  0
  7 21  1  0  0  0  0
  8 14  2  0  0  0  0
  8 25  1  0  0  0  0
  9 26  1  0  0  0  0
 10 26  2  0  0  0  0
 11 27  1  0  0  0  0
 12 13  2  0  0  0  0
 12 28  1  0  0  0  0
 13 29  1  0  0  0  0
 14 31  1  0  0  0  0
 15 23  1  0  0  0  0
 15 27  2  0  0  0  0
 16 24  1  0  0  0  0
 16 25  2  0  0  0  0
 17 29  2  0  0  0  0
 17 30  1  0  0  0  0
 18 32  1  0  0  0  0
 19 32  1  0  0  0  0
 19 33  2  0  0  0  0
 19 34  1  0  0  0  0
 20 22  2  0  0  0  0
 20 40  1  0  0  0  0
 21 23  2  0  0  0  0
 21 41  1  0  0  0  0
 22 49  1  0  0  0  0
 23 42  1  0  0  0  0
 24 31  2  0  0  0  0
 24 58  1  0  0  0  0
 25 69  1  0  0  0  0
 26 82  1  0  0  0  0
 27 83  1  0  0  0  0
 28 30  2  0  0  0  0
 28 82  1  0  0  0  0
 29 84  1  0  0  0  0
 30 85  1  0  0  0  0
 31 86  1  0  0  0  0
 32 63  2  0  0  0  0
 33 64  1  0  0  0  0
 33 67  1  0  0  0  0
 34 68  1  0  0  0  0
 34 74  2  0  0  0  0
 35 50  1  0  0  0  0
 35 70  1  0  0  0  0
 35 75  2  0  0  0  0
 36 60  1  0  0  0  0
 36 65  1  0  0  0  0
 36 76  2  0  0  0  0
 37 59  1  0  0  0  0
 37 72  1  0  0  0  0
 37 77  2  0  0  0  0
 38 61  1  0  0  0  0
 38 71  1  0  0  0  0
 38 78  2  0  0  0  0
 39 66  1  0  0  0  0
 39 69  1  0  0  0  0
 39 79  2  0  0  0  0
 40 43  1  0  0  0  0
 41 50  1  0  0  0  0
 42 65  1  0  0  0  0
 43 45  1  0  0  0  0
 44 46  1  0  0  0  0
 44 47  1  0  0  0  0
 45 49  1  0  0  0  0
 46 51  1  0  0  0  0
 47 66  1  0  0  0  0
 48 51  1  0  0  0  0
 48 66  1  0  0  0  0
 49 70  1  0  0  0  0
 50 65  1  0  0  0  0
 51 64  1  0  0  0  0
 52 61  1  0  0  0  0
 53 62  1  0  0  0  0
 54 62  1  0  0  0  0
 55 62  1  0  0  0  0
 56 72  1  0  0  0  0
 57 73  1  0  0  0  0
 58 72  1  0  0  0  0
 59 83  1  0  0  0  0
 60 62  1  0  0  0  0
 60 71  1  0  0  0  0
 61 73  1  0  0  0  0
 63 64  1  0  0  0  0
 80 86  2  0  0  0  0
 81 86  2  0  0  0  0
 86 87  1  0  0  0  0
M  CHG  1  73   1
M  ISO  4  39 100  59 101  69 100  83 101
M  END
> <Batch ID>
0048

> <Smiles>
CNC(C)C(=O)NC(C(=O)N1Cc2cc([101O:1][101CH2:1]C(=O)N(C)Cc3cc([100NH:0][100C:0](=O)N4CCCC(n5nc(-c6ccc(Oc7ccc(F)cc7F)cc6)c(C(N)=O)c5N)C4)ccc3S(=O)(=O)Cl)ccc2CC1C(=O)NC1CCCc2ccccc21)C(C)(C)C

> <Shape>
0.219

> <Color>
0.092

> <Negative vol penalty>
0.000

$$$$

  -OEChem-04042322293D

 83 91  0     1  0  0  0  0  0999 V2000
  -28.1560  -36.4029   22.4316 C   0  0  0  0  0  0  0  0  0  0  0  0
  -28.4341  -35.0417   22.3602 C   0  0  0  0  0  0  0  0  0  0  0  0
  -29.9276  -20.9114   23.5154 C   0  0  0  0  0  0  0  0  0  0  0  0
  -24.6605  -12.2857   19.7749 C   0  0  0  0  0  0  0  0  0  0  0  0
  -25.6663  -12.9811   21.8586 C   0  0  0  0  0  0  0  0  0  0  0  0
  -26.9221  -36.8368   22.9146 C   0  0  0  0  0  0  0  0  0  0  0  0
  -27.4787  -34.1135   22.7728 C   0  0  0  0  0  0  0  0  0  0  0  0
  -26.9972  -30.2507   19.5337 C   0  0  0  0  0  0  0  0  0  0  0  0
  -30.8861  -21.7056   22.8862 C   0  0  0  0  0  0  0  0  0  0  0  0
  -28.8507  -20.4080   22.7856 C   0  0  0  0  0  0  0  0  0  0  0  0
  -25.1773  -11.0025   19.9537 C   0  0  0  0  0  0  0  0  0  0  0  0
  -26.1830  -11.6979   22.0375 C   0  0  0  0  0  0  0  0  0  0  0  0
  -27.9729  -29.2559   19.5794 C   0  0  0  0  0  0  0  0  0  0  0  0
  -24.4250   -8.2431   21.7573 C   0  0  0  0  0  0  0  0  0  0  0  0
  -23.5758   -7.1630   21.5169 C   0  0  0  0  0  0  0  0  0  0  0  0
  -26.4884  -27.8681   20.8792 C   0  0  0  0  0  0  0  0  0  0  0  0
  -29.6908  -21.4933   20.7973 C   0  0  0  0  0  0  0  0  0  0  0  0
  -25.0775   -6.3645   19.8009 C   0  0  0  0  0  0  0  0  0  0  0  0
  -24.9050  -13.2750   20.7273 C   0  0  0  0  0  0  0  0  0  0  0  0
  -23.1255  -15.0848   20.9833 C   0  0  0  0  0  0  0  0  0  0  0  0
  -25.9476  -35.9132   23.3242 C   0  0  0  0  0  0  0  0  0  0  0  0
  -25.7617  -30.0657   20.1706 C   0  0  0  0  0  0  0  0  0  0  0  0
  -26.2312  -34.5355   23.2630 C   0  0  0  0  0  0  0  0  0  0  0  0
  -25.4977  -28.8610   20.8378 C   0  0  0  0  0  0  0  0  0  0  0  0
  -30.7677  -21.9966   21.5271 C   0  0  0  0  0  0  0  0  0  0  0  0
  -28.7323  -20.6989   21.4266 C   0  0  0  0  0  0  0  0  0  0  0  0
  -25.9385  -10.7086   21.0850 C   0  0  0  0  0  0  0  0  0  0  0  0
  -27.7197  -28.0656   20.2547 C   0  0  0  0  0  0  0  0  0  0  0  0
  -25.6004   -8.3840   21.0195 C   0  0  0  0  0  0  0  0  0  0  0  0
  -23.9021   -6.2237   20.5387 C   0  0  0  0  0  0  0  0  0  0  0  0
  -25.9266   -7.4447   20.0413 C   0  0  0  0  0  0  0  0  0  0  0  0
  -24.3720  -14.6009   20.5429 C   0  0  0  0  0  0  0  0  0  0  0  0
  -23.0963  -16.3918   20.5621 C   0  0  0  0  0  0  0  0  0  0  0  0
  -22.0869  -14.4130   21.7083 C   0  0  0  0  0  0  0  0  0  0  0  0
  -24.2131  -31.5283   22.5299 C   0  0  0  0  0  0  0  0  0  0  0  0
  -21.8259  -29.4945   21.7008 C   0  0  0  0  0  0  0  0  0  0  0  0
  -30.8573  -25.1240   20.4535 C   0  0  0  0  0  0  0  0  0  0  0  0
  -20.9050  -26.5462   20.2495 C   0  0  0  0  0  0  0  0  0  0  0  0
  -27.3720  -20.3801   19.3304 C   0  0  0  0  0  0  0  0  0  0  0  0
  -24.6462  -36.4311   23.8836 C   0  0  0  0  0  0  0  0  0  0  0  0
  -24.7097  -31.1377   20.0893 C   0  0  0  0  0  0  0  0  0  0  0  0
  -24.1799  -28.6049   21.5207 C   0  0  0  0  0  0  0  0  0  0  0  0
  -23.5476  -35.3733   23.9494 C   0  0  0  0  0  0  0  0  0  0  0  0
  -24.8077  -19.2590   17.1292 C   0  0  0  0  0  0  0  0  0  0  0  0
  -24.0888  -34.0781   24.5463 C   0  0  0  0  0  0  0  0  0  0  0  0
  -24.2874  -17.9846   17.7980 C   0  0  0  0  0  0  0  0  0  0  0  0
  -26.3182  -19.4123   17.2986 C   0  0  0  0  0  0  0  0  0  0  0  0
  -26.2792  -18.0518   19.3521 C   0  0  0  0  0  0  0  0  0  0  0  0
  -25.2113  -33.4972   23.6778 C   0  0  1  0  0  0  0  0  0  0  0  0
  -23.6784  -31.0491   21.2100 C   0  0  1  0  0  0  0  0  0  0  0  0
  -24.7532  -17.8870   19.2640 C   0  0  2  0  0  0  0  0  0  0  0  0
  -18.8864  -25.1392   19.7565 C   0  0  0  0  0  0  0  0  0  0  0  0
  -21.7217  -28.6242   24.6234 C   0  0  0  0  0  0  0  0  0  0  0  0
  -20.4132  -26.6140   23.9057 C   0  0  0  0  0  0  0  0  0  0  0  0
  -19.4862  -28.9003   23.5368 C   0  0  0  0  0  0  0  0  0  0  0  0
  -21.3641  -26.7044   17.3301 C   0  0  0  0  0  0  0  0  0  0  0  0
  -31.7998  -22.8516   20.8503 C   0  0  0  0  0  0  0  0  0  0  0  0
  -30.8899  -26.5269   21.0395 C   0  0  0  0  0  0  0  0  0  0  0  0
  -30.0333  -27.5150   20.2629 C   0  0  0  0  0  0  0  0  0  1  0  0
  -21.4169  -28.1012   22.1135 C   0  0  1  0  0  0  0  0  0  0  0  0
  -19.8244  -26.2169   19.2355 C   0  0  2  0  0  0  0  0  0  0  0  0
  -20.7851  -28.0652   23.5337 C   0  0  0  0  0  0  0  0  0  0  0  0
  -25.0831  -15.5252   19.8917 N   0  0  0  0  0  0  0  0  0  0  0  0
  -24.2808  -16.6030   19.9198 N   0  0  0  0  0  0  0  0  0  0  0  0
  -23.1858  -29.6860   21.4184 N   0  0  0  0  0  0  0  0  0  0  0  0
  -26.6851  -19.3134   18.7130 N   0  0  0  0  0  0  0  0  0  0  0  0
  -22.1733  -17.3695   20.6821 N   0  0  0  0  0  0  0  0  0  0  0  0
  -22.2799  -13.0707   22.0623 N   0  0  0  0  0  0  0  0  0  0  0  0
  -27.6386  -20.1868   20.6854 N   0  0  0  0  0  0  0  0  0  0  0  0
  -24.6597  -32.8359   22.5147 N   0  0  0  0  0  0  0  0  0  0  0  0
  -31.6479  -24.2494   21.1849 N   0  0  0  0  0  0  0  0  0  0  0  0
  -20.5422  -27.6029   21.0576 N   0  0  0  0  0  0  0  0  0  0  0  0
  -20.4360  -25.7338   17.9652 N   0  3  0  0  0  0  0  0  0  0  0  0
  -21.0124  -14.9812   22.0183 O   0  0  0  0  0  0  0  0  0  0  0  0
  -24.2185  -30.7685   23.4914 O   0  0  0  0  0  0  0  0  0  0  0  0
  -20.9691  -30.3787   21.6247 O   0  0  0  0  0  0  0  0  0  0  0  0
  -30.2053  -24.8254   19.4566 O   0  0  0  0  0  0  0  0  0  0  0  0
  -21.9634  -25.9255   20.3204 O   0  0  0  0  0  0  0  0  0  0  0  0
  -27.6755  -21.4022   18.7097 O   0  0  0  0  0  0  0  0  0  0  0  0
  -26.4428   -9.4565   21.2599 O   0  0  0  0  0  0  0  0  0  0  0  0
  -28.6706  -27.0932   20.3015 O   0  0  0  0  0  0  0  0  0  1  0  0
  -23.0873   -5.1856   20.3089 F   0  0  0  0  0  0  0  0  0  0  0  0
  -27.0550   -7.5741   19.3301 F   0  0  0  0  0  0  0  0  0  0  0  0
  1  2  1  0  0  0  0
  1  6  2  0  0  0  0
  2  7  2  0  0  0  0
  3  9  2  0  0  0  0
  3 10  1  0  0  0  0
  4 11  2  0  0  0  0
  4 19  1  0  0  0  0
  5 12  1  0  0  0  0
  5 19  2  0  0  0  0
  6 21  1  0  0  0  0
  7 23  1  0  0  0  0
  8 13  2  0  0  0  0
  8 22  1  0  0  0  0
  9 25  1  0  0  0  0
 10 26  2  0  0  0  0
 11 27  1  0  0  0  0
 12 27  2  0  0  0  0
 13 28  1  0  0  0  0
 14 15  2  0  0  0  0
 14 29  1  0  0  0  0
 15 30  1  0  0  0  0
 16 24  1  0  0  0  0
 16 28  2  0  0  0  0
 17 25  2  0  0  0  0
 17 26  1  0  0  0  0
 18 30  2  0  0  0  0
 18 31  1  0  0  0  0
 19 32  1  0  0  0  0
 20 32  1  0  0  0  0
 20 33  2  0  0  0  0
 20 34  1  0  0  0  0
 21 23  2  0  0  0  0
 21 40  1  0  0  0  0
 22 24  2  0  0  0  0
 22 41  1  0  0  0  0
 23 49  1  0  0  0  0
 24 42  1  0  0  0  0
 25 57  1  0  0  0  0
 26 69  1  0  0  0  0
 27 80  1  0  0  0  0
 28 81  1  0  0  0  0
 29 31  2  0  0  0  0
 29 80  1  0  0  0  0
 30 82  1  0  0  0  0
 31 83  1  0  0  0  0
 32 63  2  0  0  0  0
 33 64  1  0  0  0  0
 33 67  1  0  0  0  0
 34 68  1  0  0  0  0
 34 74  2  0  0  0  0
 35 50  1  0  0  0  0
 35 70  1  0  0  0  0
 35 75  2  0  0  0  0
 36 60  1  0  0  0  0
 36 65  1  0  0  0  0
 36 76  2  0  0  0  0
 37 58  1  0  0  0  0
 37 71  1  0  0  0  0
 37 77  2  0  0  0  0
 38 61  1  0  0  0  0
 38 72  1  0  0  0  0
 38 78  2  0  0  0  0
 39 66  1  0  0  0  0
 39 69  1  0  0  0  0
 39 79  2  0  0  0  0
 40 43  1  0  0  0  0
 41 50  1  0  0  0  0
 42 65  1  0  0  0  0
 43 45  1  0  0  0  0
 44 46  1  0  0  0  0
 44 47  1  0  0  0  0
 45 49  1  0  0  0  0
 46 51  1  0  0  0  0
 47 66  1  0  0  0  0
 48 51  1  0  0  0  0
 48 66  1  0  0  0  0
 49 70  1  0  0  0  0
 50 65  1  0  0  0  0
 51 64  1  0  0  0  0
 52 61  1  0  0  0  0
 53 62  1  0  0  0  0
 54 62  1  0  0  0  0
 55 62  1  0  0  0  0
 56 73  1  0  0  0  0
 57 71  1  0  0  0  0
 58 59  1  0  0  0  0
 59 81  1  0  0  0  0
 60 62  1  0  0  0  0
 60 72  1  0  0  0  0
 61 73  1  0  0  0  0
 63 64  1  0  0  0  0
M  CHG  1  73   1
M  ISO  4  39 100  59 101  69 100  81 101
M  END
> <Batch ID>
0048

> <Smiles>
CNC(C)C(=O)NC(C(=O)N1Cc2cc([101O:1][101CH2:1]CC(=O)NCc3cccc([100NH:0][100C:0](=O)N4CCCC(n5nc(-c6ccc(Oc7ccc(F)cc7F)cc6)c(C(N)=O)c5N)C4)c3)ccc2CC1C(=O)NC1CCCc2ccccc21)C(C)(C)C

> <Shape>
0.274

> <Color>
0.093

> <Negative vol penalty>
0.000

$$$$

  -OEChem-04042322293D

 85 93  0     1  0  0  0  0  0999 V2000
  -31.3297  -23.1725   16.2577 C   0  0  0  0  0  0  0  0  0  0  0  0
  -30.4977  -24.2767   16.1117 C   0  0  0  0  0  0  0  0  0  0  0  0
  -26.5740  -13.0347   21.5966 C   0  0  0  0  0  0  0  0  0  0  0  0
  -25.9873  -14.0743   19.4961 C   0  0  0  0  0  0  0  0  0  0  0  0
  -23.0545  -22.6555   18.2527 C   0  0  0  0  0  0  0  0  0  0  0  0
  -31.2311  -22.3760   17.3966 C   0  0  0  0  0  0  0  0  0  0  0  0
  -29.5751  -24.5917   17.1099 C   0  0  0  0  0  0  0  0  0  0  0  0
  -25.3004  -28.9284   17.3273 C   0  0  0  0  0  0  0  0  0  0  0  0
  -23.9372  -21.9326   19.0550 C   0  0  0  0  0  0  0  0  0  0  0  0
  -25.9327  -11.8627   21.1957 C   0  0  0  0  0  0  0  0  0  0  0  0
  -25.3461  -12.9023   19.0951 C   0  0  0  0  0  0  0  0  0  0  0  0
  -23.9513  -29.0608   17.0015 C   0  0  0  0  0  0  0  0  0  0  0  0
  -22.7649  -10.7018   20.9922 C   0  0  0  0  0  0  0  0  0  0  0  0
  -21.9323  -10.0707   21.9164 C   0  0  0  0  0  0  0  0  0  0  0  0
  -23.3594  -28.6151   19.2972 C   0  0  0  0  0  0  0  0  0  0  0  0
  -22.9516  -22.9189   21.0281 C   0  0  0  0  0  0  0  0  0  0  0  0
  -23.3043   -8.0856   21.7969 C   0  0  0  0  0  0  0  0  0  0  0  0
  -26.6013  -14.1405   20.7469 C   0  0  0  0  0  0  0  0  0  0  0  0
  -22.1204  -23.5102   18.8380 C   0  0  0  0  0  0  0  0  0  0  0  0
  -28.6123  -15.6963   20.9542 C   0  0  0  0  0  0  0  0  0  0  0  0
  -30.2980  -22.6749   18.4030 C   0  0  0  0  0  0  0  0  0  0  0  0
  -25.6893  -28.6271   18.6405 C   0  0  0  0  0  0  0  0  0  0  0  0
  -29.4769  -23.8140   18.2779 C   0  0  0  0  0  0  0  0  0  0  0  0
  -24.7142  -28.4819   19.6376 C   0  0  0  0  0  0  0  0  0  0  0  0
  -22.0689  -23.6418   20.2257 C   0  0  0  0  0  0  0  0  0  0  0  0
  -23.8858  -22.0643   20.4427 C   0  0  0  0  0  0  0  0  0  0  0  0
  -25.3188  -11.7964   19.9450 C   0  0  0  0  0  0  0  0  0  0  0  0
  -22.9804  -28.9013   17.9859 C   0  0  0  0  0  0  0  0  0  0  0  0
  -23.8671  -10.0247   20.4702 C   0  0  0  0  0  0  0  0  0  0  0  0
  -22.2020   -8.7627   22.3188 C   0  0  0  0  0  0  0  0  0  0  0  0
  -24.1368   -8.7167   20.8726 C   0  0  0  0  0  0  0  0  0  0  0  0
  -27.2630  -15.3517   21.1607 C   0  0  0  0  0  0  0  0  0  0  0  0
  -28.7420  -16.9362   21.5307 C   0  0  0  0  0  0  0  0  0  0  0  0
  -21.1930  -24.2682   17.9591 C   0  0  0  0  0  0  0  0  0  0  0  0
  -29.6550  -14.9614   20.2998 C   0  0  0  0  0  0  0  0  0  0  0  0
  -27.2372  -26.2209   20.0253 C   0  0  0  0  0  0  0  0  0  0  0  0
  -27.0452  -28.1198   22.6482 C   0  0  0  0  0  0  0  0  0  0  0  0
  -25.4404  -30.6500   24.2820 C   0  0  0  0  0  0  0  0  0  0  0  0
  -24.8656  -21.3440   22.6490 C   0  0  0  0  0  0  0  0  0  0  0  0
  -30.2391  -21.7836   19.6185 C   0  0  0  0  0  0  0  0  0  0  0  0
  -27.1499  -28.5140   18.9812 C   0  0  0  0  0  0  0  0  0  0  0  0
  -25.0804  -28.1780   21.0666 C   0  0  0  0  0  0  0  0  0  0  0  0
  -28.9409  -21.9352   20.4046 C   0  0  0  0  0  0  0  0  0  0  0  0
  -26.9095  -19.6524   25.0234 C   0  0  0  0  0  0  0  0  0  0  0  0
  -28.6556  -23.4080   20.6576 C   0  0  0  0  0  0  0  0  0  0  0  0
  -27.3599  -18.3919   24.2814 C   0  0  0  0  0  0  0  0  0  0  0  0
  -25.4729  -20.0346   24.6718 C   0  0  0  0  0  0  0  0  0  0  0  0
  -25.6479  -18.8987   22.4928 C   0  0  0  0  0  0  0  0  0  0  0  0
  -28.4448  -24.1583   19.3364 C   0  0  1  0  0  0  0  0  0  0  0  0
  -27.4074  -27.6977   20.2440 C   0  0  1  0  0  0  0  0  0  0  0  0
  -27.1105  -18.5112   22.7651 C   0  0  2  0  0  0  0  0  0  0  0  0
  -21.0791  -24.5511   20.8780 C   0  0  0  0  0  0  0  0  0  0  0  0
  -25.4902  -31.9549   26.4249 C   0  0  0  0  0  0  0  0  0  0  0  0
  -19.8063  -29.2193   19.1757 C   0  0  0  0  0  0  0  0  0  0  0  0
  -25.7936  -25.7548   24.1146 C   0  0  0  0  0  0  0  0  0  0  0  0
  -25.0128  -27.3511   25.8782 C   0  0  0  0  0  0  0  0  0  0  0  0
  -27.4539  -27.0553   25.4586 C   0  0  0  0  0  0  0  0  0  0  0  0
  -25.9187  -33.1981   22.8546 C   0  0  0  0  0  0  0  0  0  0  0  0
  -19.9486  -27.3164   17.5211 C   0  0  0  0  0  0  0  0  0  0  0  0
  -20.8393  -26.3805   16.7064 C   0  0  0  0  0  0  0  0  0  0  0  0
  -26.0473  -28.3005   23.7665 C   0  0  1  0  0  0  0  0  0  0  0  0
  -25.9662  -31.8901   24.9820 C   0  0  2  0  0  0  0  0  0  0  0  0
  -20.7341  -28.2636   18.4370 C   0  0  1  0  0  0  0  0  0  1  0  0
  -26.0696  -27.1192   24.7772 C   0  0  0  0  0  0  0  0  0  0  0  0
  -26.5842  -16.2962   21.8172 N   0  0  0  0  0  0  0  0  0  0  0  0
  -27.5107  -17.2466   22.0283 N   0  0  0  0  0  0  0  0  0  0  0  0
  -26.5214  -28.0706   21.3486 N   0  0  0  0  0  0  0  0  0  0  0  0
  -25.3126  -20.1334   23.2194 N   0  0  0  0  0  0  0  0  0  0  0  0
  -29.7881  -17.7803   21.6554 N   0  0  0  0  0  0  0  0  0  0  0  0
  -29.3501  -13.7032   19.7630 N   0  0  0  0  0  0  0  0  0  0  0  0
  -24.7829  -21.3295   21.2570 N   0  0  0  0  0  0  0  0  0  0  0  0
  -21.6322  -25.5187   17.5386 N   0  0  0  0  0  0  0  0  0  0  0  0
  -28.3859  -25.5784   19.6042 N   0  0  0  0  0  0  0  0  0  0  0  0
  -26.3324  -29.6016   24.3617 N   0  0  0  0  0  0  0  0  0  0  0  0
  -25.5012  -33.1187   24.2781 N   0  3  0  0  0  0  0  0  0  0  0  0
  -20.1046  -23.7779   17.6704 O   0  0  0  0  0  0  0  0  0  0  0  0
  -30.8266  -15.4002   20.2085 O   0  0  0  0  0  0  0  0  0  0  0  0
  -26.1450  -25.7024   20.2252 O   0  0  0  0  0  0  0  0  0  0  0  0
  -28.2459  -28.0328   22.9173 O   0  0  0  0  0  0  0  0  0  0  0  0
  -24.3460  -30.6137   23.7238 O   0  0  0  0  0  0  0  0  0  0  0  0
  -24.6035  -22.3302   23.3422 O   0  0  0  0  0  0  0  0  0  0  0  0
  -24.6931  -10.6529   19.5533 O   0  0  0  0  0  0  0  0  0  0  0  0
  -21.6628  -29.0293   17.6705 O   0  0  0  0  0  0  0  0  0  1  0  0
  -21.4033   -8.1573   23.2075 F   0  0  0  0  0  0  0  0  0  0  0  0
  -25.1949   -8.0616   20.3755 F   0  0  0  0  0  0  0  0  0  0  0  0
  1  2  1  0  0  0  0
  1  6  2  0  0  0  0
  2  7  2  0  0  0  0
  3 10  2  0  0  0  0
  3 18  1  0  0  0  0
  4 11  1  0  0  0  0
  4 18  2  0  0  0  0
  5  9  2  0  0  0  0
  5 19  1  0  0  0  0
  6 21  1  0  0  0  0
  7 23  1  0  0  0  0
  8 12  2  0  0  0  0
  8 22  1  0  0  0  0
  9 26  1  0  0  0  0
 10 27  1  0  0  0  0
 11 27  2  0  0  0  0
 12 28  1  0  0  0  0
 13 14  2  0  0  0  0
 13 29  1  0  0  0  0
 14 30  1  0  0  0  0
 15 24  1  0  0  0  0
 15 28  2  0  0  0  0
 16 25  1  0  0  0  0
 16 26  2  0  0  0  0
 17 30  2  0  0  0  0
 17 31  1  0  0  0  0
 18 32  1  0  0  0  0
 19 25  2  0  0  0  0
 19 34  1  0  0  0  0
 20 32  1  0  0  0  0
 20 33  2  0  0  0  0
 20 35  1  0  0  0  0
 21 23  2  0  0  0  0
 21 40  1  0  0  0  0
 22 24  2  0  0  0  0
 22 41  1  0  0  0  0
 23 49  1  0  0  0  0
 24 42  1  0  0  0  0
 25 52  1  0  0  0  0
 26 71  1  0  0  0  0
 27 82  1  0  0  0  0
 28 83  1  0  0  0  0
 29 31  2  0  0  0  0
 29 82  1  0  0  0  0
 30 84  1  0  0  0  0
 31 85  1  0  0  0  0
 32 65  2  0  0  0  0
 33 66  1  0  0  0  0
 33 69  1  0  0  0  0
 34 72  1  0  0  0  0
 34 76  2  0  0  0  0
 35 70  1  0  0  0  0
 35 77  2  0  0  0  0
 36 50  1  0  0  0  0
 36 73  1  0  0  0  0
 36 78  2  0  0  0  0
 37 61  1  0  0  0  0
 37 67  1  0  0  0  0
 37 79  2  0  0  0  0
 38 62  1  0  0  0  0
 38 74  1  0  0  0  0
 38 80  2  0  0  0  0
 39 68  1  0  0  0  0
 39 71  1  0  0  0  0
 39 81  2  0  0  0  0
 40 43  1  0  0  0  0
 41 50  1  0  0  0  0
 42 67  1  0  0  0  0
 43 45  1  0  0  0  0
 44 46  1  0  0  0  0
 44 47  1  0  0  0  0
 45 49  1  0  0  0  0
 46 51  1  0  0  0  0
 47 68  1  0  0  0  0
 48 51  1  0  0  0  0
 48 68  1  0  0  0  0
 49 73  1  0  0  0  0
 50 67  1  0  0  0  0
 51 66  1  0  0  0  0
 53 62  1  0  0  0  0
 54 63  1  0  0  0  0
 55 64  1  0  0  0  0
 56 64  1  0  0  0  0
 57 64  1  0  0  0  0
 58 75  1  0  0  0  0
 59 60  1  0  0  0  0
 59 63  1  0  0  0  0
 60 72  1  0  0  0  0
 61 64  1  0  0  0  0
 61 74  1  0  0  0  0
 62 75  1  0  0  0  0
 63 83  1  0  0  0  0
 65 66  1  0  0  0  0
M  CHG  1  75   1
M  ISO  4  39 100  63 101  71 100  83 101
M  END
> <Batch ID>
0048

> <Smiles>
CNC(C)C(=O)NC(C(=O)N1Cc2cc([101O:1][101CH:1](C)CCNC(=O)c3ccc([100NH:0][100C:0](=O)N4CCCC(n5nc(-c6ccc(Oc7ccc(F)cc7F)cc6)c(C(N)=O)c5N)C4)cc3C)ccc2CC1C(=O)NC1CCCc2ccccc21)C(C)(C)C

> <Shape>
0.217

> <Color>
0.063

> <Negative vol penalty>
0.000

$$$$

  -OEChem-04042322293D

 87 96  0     1  0  0  0  0  0999 V2000
  -27.8243  -37.7528   21.8925 C   0  0  0  0  0  0  0  0  0  0  0  0
  -28.2644  -36.6663   21.1433 C   0  0  0  0  0  0  0  0  0  0  0  0
  -24.4653   -6.6841   19.6271 C   0  0  0  0  0  0  0  0  0  0  0  0
  -26.2421   -8.0789   20.4841 C   0  0  0  0  0  0  0  0  0  0  0  0
  -27.1035  -37.5420   23.0672 C   0  0  0  0  0  0  0  0  0  0  0  0
  -27.9848  -35.3682   21.5691 C   0  0  0  0  0  0  0  0  0  0  0  0
  -26.5896  -28.8285   18.9995 C   0  0  0  0  0  0  0  0  0  0  0  0
  -26.8353  -17.5167   19.4566 C   0  0  0  0  0  0  0  0  0  0  0  0
  -25.3847   -5.6648   19.3798 C   0  0  0  0  0  0  0  0  0  0  0  0
  -27.1616   -7.0595   20.2368 C   0  0  0  0  0  0  0  0  0  0  0  0
  -27.0221  -27.5087   19.1210 C   0  0  0  0  0  0  0  0  0  0  0  0
  -27.0044   -3.2864   21.1554 C   0  0  0  0  0  0  0  0  0  0  0  0
  -26.6533   -1.9907   21.5343 C   0  0  0  0  0  0  0  0  0  0  0  0
  -27.7618  -18.5477   19.3010 C   0  0  0  0  0  0  0  0  0  0  0  0
  -25.7008  -27.2665   21.1247 C   0  0  0  0  0  0  0  0  0  0  0  0
  -26.8555   -1.2646   19.2388 C   0  0  0  0  0  0  0  0  0  0  0  0
  -24.8940   -7.8912   20.1792 C   0  0  0  0  0  0  0  0  0  0  0  0
  -22.8192   -8.8890   21.2780 C   0  0  0  0  0  0  0  0  0  0  0  0
  -26.8067  -36.2408   23.5025 C   0  0  0  0  0  0  0  0  0  0  0  0
  -25.7165  -29.3816   19.9473 C   0  0  0  0  0  0  0  0  0  0  0  0
  -27.2606  -35.1398   22.7515 C   0  0  0  0  0  0  0  0  0  0  0  0
  -25.2566  -28.5928   21.0115 C   0  0  0  0  0  0  0  0  0  0  0  0
  -25.9981  -20.0198   18.5530 C   0  0  0  0  0  0  0  0  0  0  0  0
  -25.4902  -17.7372   19.1603 C   0  0  0  0  0  0  0  0  0  0  0  0
  -26.7328   -5.8524   19.6847 C   0  0  0  0  0  0  0  0  0  0  0  0
  -26.5800  -26.7284   20.1853 C   0  0  0  0  0  0  0  0  0  0  0  0
  -27.2810   -3.5712   19.8182 C   0  0  0  0  0  0  0  0  0  0  0  0
  -26.5789   -0.9799   20.5760 C   0  0  0  0  0  0  0  0  0  0  0  0
  -27.2066   -2.5603   18.8599 C   0  0  0  0  0  0  0  0  0  0  0  0
  -27.3432  -19.7993   18.8493 C   0  0  0  0  0  0  0  0  0  0  0  0
  -25.0716  -18.9887   18.7086 C   0  0  0  0  0  0  0  0  0  0  0  0
  -23.9448   -8.9448   20.4344 C   0  0  0  0  0  0  0  0  0  0  0  0
  -22.2512  -10.1353   21.1756 C   0  0  0  0  0  0  0  0  0  0  0  0
  -26.2460  -23.5248   19.0912 C   0  0  0  0  0  0  0  0  0  0  0  0
  -22.3307   -7.8072   22.0823 C   0  0  0  0  0  0  0  0  0  0  0  0
  -25.8829  -31.7917   22.0131 C   0  0  0  0  0  0  0  0  0  0  0  0
  -22.7580  -31.0737   22.5050 C   0  0  0  0  0  0  0  0  0  0  0  0
  -20.7645  -28.0857   22.8445 C   0  0  0  0  0  0  0  0  0  0  0  0
  -24.8597  -15.3671   19.7682 C   0  0  0  0  0  0  0  0  0  0  0  0
  -26.0654  -36.0621   24.8038 C   0  0  0  0  0  0  0  0  0  0  0  0
  -25.2383  -30.7986   19.7873 C   0  0  0  0  0  0  0  0  0  0  0  0
  -24.3030  -29.1329   22.0446 C   0  0  0  0  0  0  0  0  0  0  0  0
  -25.4880  -34.6611   24.9883 C   0  0  0  0  0  0  0  0  0  0  0  0
  -25.0735  -22.4634   21.5852 C   0  0  0  0  0  0  0  0  0  0  0  0
  -22.3502  -13.4153   17.6194 C   0  0  0  0  0  0  0  0  0  0  0  0
  -26.5295  -33.6037   24.6361 C   0  0  0  0  0  0  0  0  0  0  0  0
  -26.0758  -23.6161   21.5746 C   0  0  0  0  0  0  0  0  0  0  0  0
  -21.9120  -12.3625   18.6348 C   0  0  0  0  0  0  0  0  0  0  0  0
  -24.5163  -22.1395   20.2019 C   0  0  0  0  0  0  0  0  0  0  0  0
  -22.9055  -14.6665   18.2880 C   0  0  0  0  0  0  0  0  0  0  0  0
  -24.1954  -12.9758   19.6046 C   0  0  0  0  0  0  0  0  0  0  0  0
  -26.9558  -33.7170   23.1675 C   0  0  1  0  0  0  0  0  0  0  0  0
  -26.0059  -24.4322   20.2902 C   0  0  1  0  0  0  0  0  0  1  0  0
  -24.7539  -31.4171   21.0951 C   0  0  1  0  0  0  0  0  0  0  0  0
  -22.8533  -12.2694   19.8520 C   0  0  2  0  0  0  0  0  0  0  0  0
  -18.3365  -27.6803   22.3569 C   0  0  0  0  0  0  0  0  0  0  0  0
  -22.3565  -31.7093   25.4622 C   0  0  0  0  0  0  0  0  0  0  0  0
  -20.6150  -29.9122   25.5403 C   0  0  0  0  0  0  0  0  0  0  0  0
  -20.2909  -31.8973   24.0648 C   0  0  0  0  0  0  0  0  0  0  0  0
  -21.3853  -25.8259   21.0370 C   0  0  0  0  0  0  0  0  0  0  0  0
  -25.5534  -21.3695   18.0686 C   0  0  0  0  0  0  0  0  0  0  0  0
  -22.0065  -30.1508   23.4337 C   0  0  1  0  0  0  0  0  0  0  0  0
  -19.7610  -27.5440   21.8424 C   0  0  2  0  0  0  0  0  0  0  0  0
  -21.3437  -30.9115   24.6167 C   0  0  0  0  0  0  0  0  0  0  0  0
  -24.0852  -10.1326   19.8398 N   0  0  0  0  0  0  0  0  0  0  0  0
  -23.0402  -10.8346   20.3104 N   0  0  0  0  0  0  0  0  0  0  0  0
  -25.5009  -22.3438   19.1456 N   0  0  0  0  0  0  0  0  0  0  0  0
  -23.8690  -30.5260   21.8481 N   0  0  0  0  0  0  0  0  0  0  0  0
  -23.9951  -14.3812   19.2328 N   0  0  0  0  0  0  0  0  0  0  0  0
  -21.1588  -10.6904   21.7422 N   0  0  0  0  0  0  0  0  0  0  0  0
  -22.7912   -7.6944   23.4012 N   0  0  0  0  0  0  0  0  0  0  0  0
  -24.5801  -16.6638   19.3289 N   0  0  0  0  0  0  0  0  0  0  0  0
  -25.9482  -33.1412   22.3029 N   0  0  0  0  0  0  0  0  0  0  0  0
  -21.0676  -29.4084   22.5997 N   0  0  0  0  0  0  0  0  0  0  0  0
  -20.0268  -26.1031   21.5705 N   0  3  0  0  0  0  0  0  0  0  0  0
  -27.0132  -23.8349   18.1816 O   0  0  0  0  0  0  0  0  0  0  0  0
  -21.5227   -6.9561   21.6392 O   0  0  0  0  0  0  0  0  0  0  0  0
  -26.6379  -30.9206   22.4289 O   0  0  0  0  0  0  0  0  0  0  0  0
  -22.3693  -32.2356   22.3621 O   0  0  0  0  0  0  0  0  0  0  0  0
  -21.2299  -27.4047   23.7556 O   0  0  0  0  0  0  0  0  0  0  0  0
  -25.7606  -15.0784   20.5587 O   0  0  0  0  0  0  0  0  0  0  0  0
  -27.6302   -4.8579   19.4437 O   0  0  0  0  0  0  0  0  0  0  0  0
  -27.0011  -25.4400   20.3066 O   0  0  0  0  0  0  0  0  0  1  0  0
  -26.2432    0.2646   20.9403 F   0  0  0  0  0  0  0  0  0  0  0  0
  -27.4724   -2.8276   17.5740 F   0  0  0  0  0  0  0  0  0  0  0  0
  -28.5248  -21.0458   18.6695 Cl  0  0  0  0  0  0  0  0  0  0  0  0
  -23.3979  -19.2626   18.3431 Cl  0  0  0  0  0  0  0  0  0  0  0  0
  1  2  1  0  0  0  0
  1  5  2  0  0  0  0
  2  6  2  0  0  0  0
  3  9  2  0  0  0  0
  3 17  1  0  0  0  0
  4 10  1  0  0  0  0
  4 17  2  0  0  0  0
  5 19  1  0  0  0  0
  6 21  1  0  0  0  0
  7 11  2  0  0  0  0
  7 20  1  0  0  0  0
  8 14  1  0  0  0  0
  8 24  2  0  0  0  0
  9 25  1  0  0  0  0
 10 25  2  0  0  0  0
 11 26  1  0  0  0  0
 12 13  2  0  0  0  0
 12 27  1  0  0  0  0
 13 28  1  0  0  0  0
 14 30  2  0  0  0  0
 15 22  1  0  0  0  0
 15 26  2  0  0  0  0
 16 28  2  0  0  0  0
 16 29  1  0  0  0  0
 17 32  1  0  0  0  0
 18 32  1  0  0  0  0
 18 33  2  0  0  0  0
 18 35  1  0  0  0  0
 19 21  2  0  0  0  0
 19 40  1  0  0  0  0
 20 22  2  0  0  0  0
 20 41  1  0  0  0  0
 21 52  1  0  0  0  0
 22 42  1  0  0  0  0
 23 30  1  0  0  0  0
 23 31  2  0  0  0  0
 23 61  1  0  0  0  0
 24 31  1  0  0  0  0
 24 72  1  0  0  0  0
 25 82  1  0  0  0  0
 26 83  1  0  0  0  0
 27 29  2  0  0  0  0
 27 82  1  0  0  0  0
 28 84  1  0  0  0  0
 29 85  1  0  0  0  0
 30 86  1  0  0  0  0
 31 87  1  0  0  0  0
 32 65  2  0  0  0  0
 33 66  1  0  0  0  0
 33 70  1  0  0  0  0
 34 53  1  0  0  0  0
 34 67  1  0  0  0  0
 34 76  2  0  0  0  0
 35 71  1  0  0  0  0
 35 77  2  0  0  0  0
 36 54  1  0  0  0  0
 36 73  1  0  0  0  0
 36 78  2  0  0  0  0
 37 62  1  0  0  0  0
 37 68  1  0  0  0  0
 37 79  2  0  0  0  0
 38 63  1  0  0  0  0
 38 74  1  0  0  0  0
 38 80  2  0  0  0  0
 39 69  1  0  0  0  0
 39 72  1  0  0  0  0
 39 81  2  0  0  0  0
 40 43  1  0  0  0  0
 41 54  1  0  0  0  0
 42 68  1  0  0  0  0
 43 46  1  0  0  0  0
 44 47  1  0  0  0  0
 44 49  1  0  0  0  0
 45 48  1  0  0  0  0
 45 50  1  0  0  0  0
 46 52  1  0  0  0  0
 47 53  1  0  0  0  0
 48 55  1  0  0  0  0
 49 67  1  0  0  0  0
 50 69  1  0  0  0  0
 51 55  1  0  0  0  0
 51 69  1  0  0  0  0
 52 73  1  0  0  0  0
 53 83  1  0  0  0  0
 54 68  1  0  0  0  0
 55 66  1  0  0  0  0
 56 63  1  0  0  0  0
 57 64  1  0  0  0  0
 58 64  1  0  0  0  0
 59 64  1  0  0  0  0
 60 75  1  0  0  0  0
 61 67  1  0  0  0  0
 62 64  1  0  0  0  0
 62 74  1  0  0  0  0
 63 75  1  0  0  0  0
 65 66  1  0  0  0  0
M  CHG  1  75   1
M  ISO  4  39 100  53 101  72 100  83 101
M  END
> <Batch ID>
0048

> <Smiles>
CNC(C)C(=O)NC(C(=O)N1Cc2cc([101O:1][101CH:1]3CCCN(Cc4c(Cl)ccc([100NH:0][100C:0](=O)N5CCCC(n6nc(-c7ccc(Oc8ccc(F)cc8F)cc7)c(C(N)=O)c6N)C5)c4Cl)C3=O)ccc2CC1C(=O)NC1CCCc2ccccc21)C(C)(C)C

> <Shape>
0.226

> <Color>
0.102

> <Negative vol penalty>
0.000

$$$$

  -OEChem-04042322293D

 88 97  0     1  0  0  0  0  0999 V2000
  -30.2574  -35.3614   21.0563 C   0  0  0  0  0  0  0  0  0  0  0  0
  -30.1682  -33.9733   21.0312 C   0  0  0  0  0  0  0  0  0  0  0  0
  -22.9761  -11.8188   22.7382 C   0  0  0  0  0  0  0  0  0  0  0  0
  -24.2268   -9.8171   22.2228 C   0  0  0  0  0  0  0  0  0  0  0  0
  -29.3690  -36.1019   21.8350 C   0  0  0  0  0  0  0  0  0  0  0  0
  -29.1911  -33.3248   21.7857 C   0  0  0  0  0  0  0  0  0  0  0  0
  -26.8437  -29.6645   19.1901 C   0  0  0  0  0  0  0  0  0  0  0  0
  -30.3030  -20.0356   18.2074 C   0  0  0  0  0  0  0  0  0  0  0  0
  -30.1855  -18.6652   18.4389 C   0  0  0  0  0  0  0  0  0  0  0  0
  -22.3172  -11.1428   23.7650 C   0  0  0  0  0  0  0  0  0  0  0  0
  -23.5679   -9.1410   23.2496 C   0  0  0  0  0  0  0  0  0  0  0  0
  -27.5210  -28.4551   19.0409 C   0  0  0  0  0  0  0  0  0  0  0  0
  -20.5605   -7.6757   23.7392 C   0  0  0  0  0  0  0  0  0  0  0  0
  -20.0820   -6.3938   23.4684 C   0  0  0  0  0  0  0  0  0  0  0  0
  -26.2157  -27.5096   20.8358 C   0  0  0  0  0  0  0  0  0  0  0  0
  -27.9940  -20.1144   17.5009 C   0  0  0  0  0  0  0  0  0  0  0  0
  -21.4759   -5.5016   25.2286 C   0  0  0  0  0  0  0  0  0  0  0  0
  -23.9310  -11.1560   21.9671 C   0  0  0  0  0  0  0  0  0  0  0  0
  -24.0295  -12.4575   19.7753 C   0  0  0  0  0  0  0  0  0  0  0  0
  -28.3744  -35.4627   22.5919 C   0  0  0  0  0  0  0  0  0  0  0  0
  -25.8533  -29.8092   20.1722 C   0  0  0  0  0  0  0  0  0  0  0  0
  -28.2895  -34.0574   22.5763 C   0  0  0  0  0  0  0  0  0  0  0  0
  -25.5255  -28.7212   20.9937 C   0  0  0  0  0  0  0  0  0  0  0  0
  -29.2072  -20.7603   17.7385 C   0  0  0  0  0  0  0  0  0  0  0  0
  -28.9722  -18.0193   18.2014 C   0  0  0  0  0  0  0  0  0  0  0  0
  -22.6130   -9.8039   24.0207 C   0  0  0  0  0  0  0  0  0  0  0  0
  -27.2091  -27.3783   19.8657 C   0  0  0  0  0  0  0  0  0  0  0  0
  -21.4968   -7.8705   24.7546 C   0  0  0  0  0  0  0  0  0  0  0  0
  -20.5396   -5.3068   24.2131 C   0  0  0  0  0  0  0  0  0  0  0  0
  -21.9544   -6.7835   25.4993 C   0  0  0  0  0  0  0  0  0  0  0  0
  -27.8764  -18.7438   17.7324 C   0  0  0  0  0  0  0  0  0  0  0  0
  -24.6116  -11.8536   20.9059 C   0  0  0  0  0  0  0  0  0  0  0  0
  -25.0922  -12.9806   19.0800 C   0  0  0  0  0  0  0  0  0  0  0  0
  -29.9560  -24.3349   18.5266 C   0  0  0  0  0  0  0  0  0  0  0  0
  -33.2163  -23.6930   20.0896 C   0  0  0  0  0  0  0  0  0  0  0  0
  -31.2050  -24.5264   18.9776 C   0  0  0  0  0  0  0  0  0  0  0  0
  -31.9710  -23.5014   19.6400 C   0  0  0  0  0  0  0  0  0  0  0  0
  -22.6513  -12.5384   19.3882 C   0  0  0  0  0  0  0  0  0  0  0  0
  -25.4891  -31.6521   22.7363 C   0  0  0  0  0  0  0  0  0  0  0  0
  -22.5509  -30.2804   22.8236 C   0  0  0  0  0  0  0  0  0  0  0  0
  -21.1676  -26.9847   22.3314 C   0  0  0  0  0  0  0  0  0  0  0  0
  -29.8980  -15.7878   18.9155 C   0  0  0  0  0  0  0  0  0  0  0  0
  -27.4670  -36.3028   23.4553 C   0  0  0  0  0  0  0  0  0  0  0  0
  -25.1133  -31.1122   20.3026 C   0  0  0  0  0  0  0  0  0  0  0  0
  -24.4561  -28.8187   22.0498 C   0  0  0  0  0  0  0  0  0  0  0  0
  -29.1594  -25.4107   17.8344 C   0  0  0  0  0  0  0  0  0  0  0  0
  -26.2216  -35.5603   23.9328 C   0  0  0  0  0  0  0  0  0  0  0  0
  -30.0734  -12.3164   19.6870 C   0  0  0  0  0  0  0  0  0  0  0  0
  -26.5937  -34.1788   24.4619 C   0  0  0  0  0  0  0  0  0  0  0  0
  -28.6202  -11.9362   19.9799 C   0  0  0  0  0  0  0  0  0  0  0  0
  -27.1033  -24.1843   18.6519 C   0  0  0  0  0  0  0  0  0  0  0  0
  -30.4061  -13.7185   20.1941 C   0  0  0  0  0  0  0  0  0  0  0  0
  -28.0433  -14.3962   20.0287 C   0  0  0  0  0  0  0  0  0  0  0  0
  -27.9995  -23.2076   19.4119 C   0  0  0  0  0  0  0  0  0  0  0  0
  -27.2274  -33.3189   23.3616 C   0  0  1  0  0  0  0  0  0  0  0  0
  -24.4810  -31.3053   21.6775 C   0  0  1  0  0  0  0  0  0  0  0  0
  -27.6429  -13.0175   19.4788 C   0  0  2  0  0  0  0  0  0  0  0  0
  -27.7693  -25.5463   18.4563 C   0  0  1  0  0  0  0  0  0  1  0  0
  -18.8796  -26.2699   21.5889 C   0  0  0  0  0  0  0  0  0  0  0  0
  -21.9497  -30.1155   25.8104 C   0  0  0  0  0  0  0  0  0  0  0  0
  -20.5895  -28.0641   25.3525 C   0  0  0  0  0  0  0  0  0  0  0  0
  -19.9275  -30.2481   24.3451 C   0  0  0  0  0  0  0  0  0  0  0  0
  -22.2670  -25.3680   20.1096 C   0  0  0  0  0  0  0  0  0  0  0  0
  -29.3344  -22.2343   17.4894 C   0  0  0  0  0  0  0  0  0  0  0  0
  -21.9671  -29.0432   23.4619 C   0  0  1  0  0  0  0  0  0  0  0  0
  -20.3175  -26.5213   21.1623 C   0  0  2  0  0  0  0  0  0  0  0  0
  -21.1358  -29.3690   24.7347 C   0  0  0  0  0  0  0  0  0  0  0  0
  -25.9410  -11.9805   20.9312 N   0  0  0  0  0  0  0  0  0  0  0  0
  -26.2031  -12.6700   19.8079 N   0  0  0  0  0  0  0  0  0  0  0  0
  -23.7653  -30.1155   22.1426 N   0  0  0  0  0  0  0  0  0  0  0  0
  -29.4410  -14.6903   19.6754 N   0  0  0  0  0  0  0  0  0  0  0  0
  -25.1756  -13.6712   17.9231 N   0  0  0  0  0  0  0  0  0  0  0  0
  -21.6886  -11.9472   20.2176 N   0  0  0  0  0  0  0  0  0  0  0  0
  -28.8867  -16.6266   18.4481 N   0  0  0  0  0  0  0  0  0  0  0  0
  -26.2079  -32.8026   22.4736 N   0  0  0  0  0  0  0  0  0  0  0  0
  -21.2145  -28.3602   22.4152 N   0  0  0  0  0  0  0  0  0  0  0  0
  -29.3504  -23.0464   18.7549 N   0  3  1  0  0  0  0  0  0  0  0  0
  -20.8659  -25.2586   20.5914 N   0  3  0  0  0  0  0  0  0  0  0  0
  -22.2860  -13.1037   18.3296 O   0  0  0  0  0  0  0  0  0  0  0  0
  -25.6052  -30.9301   23.7197 O   0  0  0  0  0  0  0  0  0  0  0  0
  -21.9478  -31.3523   22.9194 O   0  0  0  0  0  0  0  0  0  0  0  0
  -21.7305  -26.2045   23.0963 O   0  0  0  0  0  0  0  0  0  0  0  0
  -31.0959  -15.9551   18.6726 O   0  0  0  0  0  0  0  0  0  0  0  0
  -21.9704   -9.1439   25.0227 O   0  0  0  0  0  0  0  0  0  0  0  0
  -27.8691  -26.1968   19.7227 O   0  0  0  0  0  0  0  0  0  1  0  0
  -20.0788   -4.0760   23.9540 F   0  0  0  0  0  0  0  0  0  0  0  0
  -22.8530   -6.9647   26.4769 F   0  0  0  0  0  0  0  0  0  0  0  0
  -26.3558  -17.9835   17.4247 Cl  0  0  0  0  0  0  0  0  0  0  0  0
  1  2  1  0  0  0  0
  1  5  2  0  0  0  0
  2  6  2  0  0  0  0
  3 10  2  0  0  0  0
  3 18  1  0  0  0  0
  4 11  1  0  0  0  0
  4 18  2  0  0  0  0
  5 20  1  0  0  0  0
  6 22  1  0  0  0  0
  7 12  2  0  0  0  0
  7 21  1  0  0  0  0
  8  9  2  0  0  0  0
  8 24  1  0  0  0  0
  9 25  1  0  0  0  0
 10 26  1  0  0  0  0
 11 26  2  0  0  0  0
 12 27  1  0  0  0  0
 13 14  2  0  0  0  0
 13 28  1  0  0  0  0
 14 29  1  0  0  0  0
 15 23  1  0  0  0  0
 15 27  2  0  0  0  0
 16 24  2  0  0  0  0
 16 31  1  0  0  0  0
 17 29  2  0  0  0  0
 17 30  1  0  0  0  0
 18 32  1  0  0  0  0
 19 32  1  0  0  0  0
 19 33  2  0  0  0  0
 19 38  1  0  0  0  0
 20 22  2  0  0  0  0
 20 43  1  0  0  0  0
 21 23  2  0  0  0  0
 21 44  1  0  0  0  0
 22 55  1  0  0  0  0
 23 45  1  0  0  0  0
 24 64  1  0  0  0  0
 25 31  2  0  0  0  0
 25 74  1  0  0  0  0
 26 84  1  0  0  0  0
 27 85  1  0  0  0  0
 28 30  2  0  0  0  0
 28 84  1  0  0  0  0
 29 86  1  0  0  0  0
 30 87  1  0  0  0  0
 31 88  1  0  0  0  0
 32 68  2  0  0  0  0
 33 69  1  0  0  0  0
 33 72  1  0  0  0  0
 34 36  2  0  0  0  0
 34 46  1  0  0  0  0
 34 77  1  0  0  0  0
 35 37  2  0  0  0  0
 36 37  1  0  0  0  0
 38 73  1  0  0  0  0
 38 79  2  0  0  0  0
 39 56  1  0  0  0  0
 39 75  1  0  0  0  0
 39 80  2  0  0  0  0
 40 65  1  0  0  0  0
 40 70  1  0  0  0  0
 40 81  2  0  0  0  0
 41 66  1  0  0  0  0
 41 76  1  0  0  0  0
 41 82  2  0  0  0  0
 42 71  1  0  0  0  0
 42 74  1  0  0  0  0
 42 83  2  0  0  0  0
 43 47  1  0  0  0  0
 44 56  1  0  0  0  0
 45 70  1  0  0  0  0
 46 58  1  0  0  0  0
 47 49  1  0  0  0  0
 48 50  1  0  0  0  0
 48 52  1  0  0  0  0
 49 55  1  0  0  0  0
 50 57  1  0  0  0  0
 51 54  1  0  0  0  0
 51 58  1  0  0  0  0
 52 71  1  0  0  0  0
 53 57  1  0  0  0  0
 53 71  1  0  0  0  0
 54 77  1  0  0  0  0
 55 75  1  0  0  0  0
 56 70  1  0  0  0  0
 57 69  1  0  0  0  0
 58 85  1  0  0  0  0
 59 66  1  0  0  0  0
 60 67  1  0  0  0  0
 61 67  1  0  0  0  0
 62 67  1  0  0  0  0
 63 78  1  0  0  0  0
 64 77  1  0  0  0  0
 65 67  1  0  0  0  0
 65 76  1  0  0  0  0
 66 78  1  0  0  0  0
 68 69  1  0  0  0  0
M  CHG  2  77   1  78   1
M  ISO  4  42 100  58 101  74 100  85 101
M  END
> <Batch ID>
0048

> <Smiles>
C=CC=C1C[101CH:1]([101O:1]c2ccc3c(c2)CN(C(=O)C(NC(=O)C(C)NC)C(C)(C)C)C(C(=O)NC2CCCc4ccccc42)C3)CCN1Cc1ccc([100NH:0][100C:0](=O)N2CCCC(n3nc(-c4ccc(Oc5ccc(F)cc5F)cc4)c(C(N)=O)c3N)C2)c(Cl)c1

> <Shape>
0.312

> <Color>
0.090

> <Negative vol penalty>
0.000

$$$$

  -OEChem-04042322293D

 86 95  0     1  0  0  0  0  0999 V2000
  -16.6393  -18.9770   27.3468 C   0  0  0  0  0  0  0  0  0  0  0  0
  -17.9240  -18.8957   26.8191 C   0  0  0  0  0  0  0  0  0  0  0  0
  -23.1398   -9.8328   19.9360 C   0  0  0  0  0  0  0  0  0  0  0  0
  -23.8353   -9.9098   22.2485 C   0  0  0  0  0  0  0  0  0  0  0  0
  -15.7752  -19.9856   26.9225 C   0  0  0  0  0  0  0  0  0  0  0  0
  -18.3449  -19.8223   25.8658 C   0  0  0  0  0  0  0  0  0  0  0  0
  -23.9874  -22.1057   25.1916 C   0  0  0  0  0  0  0  0  0  0  0  0
  -22.4201   -8.6656   20.1913 C   0  0  0  0  0  0  0  0  0  0  0  0
  -23.1155   -8.7426   22.5038 C   0  0  0  0  0  0  0  0  0  0  0  0
  -25.0349  -21.7789   24.3316 C   0  0  0  0  0  0  0  0  0  0  0  0
  -19.8941   -7.8709   23.0360 C   0  0  0  0  0  0  0  0  0  0  0  0
  -19.1062   -7.8357   24.1865 C   0  0  0  0  0  0  0  0  0  0  0  0
  -24.3415  -23.5347   22.8296 C   0  0  0  0  0  0  0  0  0  0  0  0
  -29.9795  -19.4292   22.6225 C   0  0  0  0  0  0  0  0  0  0  0  0
  -30.5756  -19.3101   20.2843 C   0  0  0  0  0  0  0  0  0  0  0  0
  -20.3775   -5.9489   24.9994 C   0  0  0  0  0  0  0  0  0  0  0  0
  -23.8475  -10.4549   20.9646 C   0  0  0  0  0  0  0  0  0  0  0  0
  -24.1256  -12.9852   20.7976 C   0  0  0  0  0  0  0  0  0  0  0  0
  -16.1891  -20.9308   25.9706 C   0  0  0  0  0  0  0  0  0  0  0  0
  -23.1010  -23.1440   24.8713 C   0  0  0  0  0  0  0  0  0  0  0  0
  -17.4851  -20.8436   25.4274 C   0  0  0  0  0  0  0  0  0  0  0  0
  -23.2851  -23.8743   23.6885 C   0  0  0  0  0  0  0  0  0  0  0  0
  -30.3449  -20.0636   21.4353 C   0  0  0  0  0  0  0  0  0  0  0  0
  -29.8450  -18.0413   22.6589 C   0  0  0  0  0  0  0  0  0  0  0  0
  -30.0757  -17.2878   21.5080 C   0  0  0  0  0  0  0  0  0  0  0  0
  -22.4079   -8.1205   21.4752 C   0  0  0  0  0  0  0  0  0  0  0  0
  -25.2104  -22.4915   23.1490 C   0  0  0  0  0  0  0  0  0  0  0  0
  -20.9236   -6.9450   22.8671 C   0  0  0  0  0  0  0  0  0  0  0  0
  -19.3479   -6.8748   25.1682 C   0  0  0  0  0  0  0  0  0  0  0  0
  -30.4411  -17.9222   20.3207 C   0  0  0  0  0  0  0  0  0  0  0  0
  -21.1654   -5.9841   23.8489 C   0  0  0  0  0  0  0  0  0  0  0  0
  -24.5916  -11.6603   20.7014 C   0  0  0  0  0  0  0  0  0  0  0  0
  -25.2072  -13.7559   20.4475 C   0  0  0  0  0  0  0  0  0  0  0  0
  -28.5187  -22.6648   22.5109 C   0  0  0  0  0  0  0  0  0  0  0  0
  -22.8307  -13.4753   21.1702 C   0  0  0  0  0  0  0  0  0  0  0  0
  -19.9770  -23.3355   24.3166 C   0  0  0  0  0  0  0  0  0  0  0  0
  -20.5806  -26.5217   24.2413 C   0  0  0  0  0  0  0  0  0  0  0  0
  -22.8410  -29.0315   23.7528 C   0  0  0  0  0  0  0  0  0  0  0  0
  -30.6368  -14.9526   20.7474 C   0  0  0  0  0  0  0  0  0  0  0  0
  -15.2035  -21.9745   25.5080 C   0  0  0  0  0  0  0  0  0  0  0  0
  -21.9921  -23.5016   25.8225 C   0  0  0  0  0  0  0  0  0  0  0  0
  -22.3732  -25.0112   23.3084 C   0  0  0  0  0  0  0  0  0  0  0  0
  -15.8541  -23.1422   24.7707 C   0  0  0  0  0  0  0  0  0  0  0  0
  -29.6529  -12.4590   18.4042 C   0  0  0  0  0  0  0  0  0  0  0  0
  -16.8542  -22.6312   23.7385 C   0  0  0  0  0  0  0  0  0  0  0  0
  -28.2101  -12.1379   18.8009 C   0  0  0  0  0  0  0  0  0  0  0  0
  -27.3780  -23.3888   20.5372 C   0  0  0  0  0  0  0  0  0  0  0  0
  -30.5279  -12.7383   19.6249 C   0  0  0  0  0  0  0  0  0  0  0  0
  -28.4500  -22.3795   20.1652 C   0  0  0  0  0  0  0  0  0  0  0  0
  -28.5648  -13.4406   20.9373 C   0  0  0  0  0  0  0  0  0  0  0  0
  -17.9868  -21.8451   24.4098 C   0  0  1  0  0  0  0  0  0  0  0  0
  -27.1814  -23.1863   22.0378 C   0  0  1  0  0  0  0  0  0  1  0  0
  -20.8411  -24.2413   25.1475 C   0  0  1  0  0  0  0  0  0  0  0  0
  -27.6300  -13.2157   19.7376 C   0  0  2  0  0  0  0  0  0  0  0  0
  -29.4532  -17.3883   23.9447 C   0  0  0  0  0  0  0  0  0  0  0  0
  -23.0303  -31.5336   23.7218 C   0  0  0  0  0  0  0  0  0  0  0  0
  -19.2179  -26.5885   21.5121 C   0  0  0  0  0  0  0  0  0  0  0  0
  -20.2588  -28.8324   21.1249 C   0  0  0  0  0  0  0  0  0  0  0  0
  -18.6535  -28.5122   23.0073 C   0  0  0  0  0  0  0  0  0  0  0  0
  -24.8061  -29.0262   25.9658 C   0  0  0  0  0  0  0  0  0  0  0  0
  -30.4916  -21.5573   21.3958 C   0  0  0  0  0  0  0  0  0  0  0  0
  -20.9695  -27.5111   23.1694 C   0  0  1  0  0  0  0  0  0  0  0  0
  -23.1573  -30.2744   24.5650 C   0  0  2  0  0  0  0  0  0  0  0  0
  -19.7911  -27.8384   22.2094 C   0  0  0  0  0  0  0  0  0  0  0  0
  -25.8697  -11.5897   20.3199 N   0  0  0  0  0  0  0  0  0  0  0  0
  -26.2160  -12.8800   20.1732 N   0  0  0  0  0  0  0  0  0  0  0  0
  -29.2091  -22.2272   21.3836 N   0  0  0  0  0  0  0  0  0  0  0  0
  -21.2999  -25.3185   24.2681 N   0  0  0  0  0  0  0  0  0  0  0  0
  -29.9177  -13.7724   20.4635 N   0  0  0  0  0  0  0  0  0  0  0  0
  -25.3842  -15.0907   20.3506 N   0  0  0  0  0  0  0  0  0  0  0  0
  -21.8343  -12.5466   21.5001 N   0  0  0  0  0  0  0  0  0  0  0  0
  -29.9427  -15.8772   21.5271 N   0  0  0  0  0  0  0  0  0  0  0  0
  -18.9394  -22.7499   25.0166 N   0  0  0  0  0  0  0  0  0  0  0  0
  -21.5144  -28.6725   23.8642 N   0  0  0  0  0  0  0  0  0  0  0  0
  -24.5469  -30.2045   25.0989 N   0  3  0  0  0  0  0  0  0  0  0  0
  -28.8687  -22.6057   23.6806 O   0  0  0  0  0  0  0  0  0  0  0  0
  -22.5605  -14.7000   21.1937 O   0  0  0  0  0  0  0  0  0  0  0  0
  -20.2317  -23.1806   23.1280 O   0  0  0  0  0  0  0  0  0  0  0  0
  -19.6770  -26.8089   25.0303 O   0  0  0  0  0  0  0  0  0  0  0  0
  -23.6855  -28.4405   23.0833 O   0  0  0  0  0  0  0  0  0  0  0  0
  -31.7736  -15.1417   20.3071 O   0  0  0  0  0  0  0  0  0  0  0  0
  -21.7054   -6.9817   21.7247 O   0  0  0  0  0  0  0  0  0  0  0  0
  -26.2317  -22.1742   22.3075 O   0  0  0  0  0  0  0  0  0  1  0  0
  -18.5923   -6.8421   26.2737 F   0  0  0  0  0  0  0  0  0  0  0  0
  -30.6666  -17.2089   19.2080 F   0  0  0  0  0  0  0  0  0  0  0  0
  -22.1538   -5.0927   23.6929 F   0  0  0  0  0  0  0  0  0  0  0  0
  1  2  1  0  0  0  0
  1  5  2  0  0  0  0
  2  6  2  0  0  0  0
  3  8  2  0  0  0  0
  3 17  1  0  0  0  0
  4  9  1  0  0  0  0
  4 17  2  0  0  0  0
  5 19  1  0  0  0  0
  6 21  1  0  0  0  0
  7 10  2  0  0  0  0
  7 20  1  0  0  0  0
  8 26  1  0  0  0  0
  9 26  2  0  0  0  0
 10 27  1  0  0  0  0
 11 12  2  0  0  0  0
 11 28  1  0  0  0  0
 12 29  1  0  0  0  0
 13 22  1  0  0  0  0
 13 27  2  0  0  0  0
 14 23  1  0  0  0  0
 14 24  2  0  0  0  0
 15 23  2  0  0  0  0
 15 30  1  0  0  0  0
 16 29  2  0  0  0  0
 16 31  1  0  0  0  0
 17 32  1  0  0  0  0
 18 32  1  0  0  0  0
 18 33  2  0  0  0  0
 18 35  1  0  0  0  0
 19 21  2  0  0  0  0
 19 40  1  0  0  0  0
 20 22  2  0  0  0  0
 20 41  1  0  0  0  0
 21 51  1  0  0  0  0
 22 42  1  0  0  0  0
 23 61  1  0  0  0  0
 24 25  1  0  0  0  0
 24 55  1  0  0  0  0
 25 30  2  0  0  0  0
 25 72  1  0  0  0  0
 26 82  1  0  0  0  0
 27 83  1  0  0  0  0
 28 31  2  0  0  0  0
 28 82  1  0  0  0  0
 29 84  1  0  0  0  0
 30 85  1  0  0  0  0
 31 86  1  0  0  0  0
 32 65  2  0  0  0  0
 33 66  1  0  0  0  0
 33 70  1  0  0  0  0
 34 52  1  0  0  0  0
 34 67  1  0  0  0  0
 34 76  2  0  0  0  0
 35 71  1  0  0  0  0
 35 77  2  0  0  0  0
 36 53  1  0  0  0  0
 36 73  1  0  0  0  0
 36 78  2  0  0  0  0
 37 62  1  0  0  0  0
 37 68  1  0  0  0  0
 37 79  2  0  0  0  0
 38 63  1  0  0  0  0
 38 74  1  0  0  0  0
 38 80  2  0  0  0  0
 39 69  1  0  0  0  0
 39 72  1  0  0  0  0
 39 81  2  0  0  0  0
 40 43  1  0  0  0  0
 41 53  1  0  0  0  0
 42 68  1  0  0  0  0
 43 45  1  0  0  0  0
 44 46  1  0  0  0  0
 44 48  1  0  0  0  0
 45 51  1  0  0  0  0
 46 54  1  0  0  0  0
 47 49  1  0  0  0  0
 47 52  1  0  0  0  0
 48 69  1  0  0  0  0
 49 67  1  0  0  0  0
 50 54  1  0  0  0  0
 50 69  1  0  0  0  0
 51 73  1  0  0  0  0
 52 83  1  0  0  0  0
 53 68  1  0  0  0  0
 54 66  1  0  0  0  0
 56 63  1  0  0  0  0
 57 64  1  0  0  0  0
 58 64  1  0  0  0  0
 59 64  1  0  0  0  0
 60 75  1  0  0  0  0
 61 67  1  0  0  0  0
 62 64  1  0  0  0  0
 62 74  1  0  0  0  0
 63 75  1  0  0  0  0
 65 66  1  0  0  0  0
M  CHG  1  75   1
M  ISO  4  39 100  52 101  72 100  83 101
M  END
> <Batch ID>
0048

> <Smiles>
CNC(C)C(=O)NC(C(=O)N1Cc2cc([101O:1][101CH:1]3CCN(Cc4cc(C)c([100NH:0][100C:0](=O)N5CCCC(n6nc(-c7ccc(Oc8ccc(F)cc8F)cc7)c(C(N)=O)c6N)C5)c(F)c4)C3=O)ccc2CC1C(=O)NC1CCCc2ccccc21)C(C)(C)C

> <Shape>
0.269

> <Color>
0.210

> <Negative vol penalty>
0.000

$$$$

  -OEChem-04042322293D

 85 93  0     1  0  0  0  0  0999 V2000
  -28.0120  -19.9681   15.6113 C   0  0  0  0  0  0  0  0  0  0  0  0
  -28.6025  -19.0113   16.4291 C   0  0  0  0  0  0  0  0  0  0  0  0
  -22.8448  -29.3373   21.1581 C   0  0  0  0  0  0  0  0  0  0  0  0
  -24.0732  -28.6056   23.1056 C   0  0  0  0  0  0  0  0  0  0  0  0
  -26.6321  -20.1567   15.6499 C   0  0  0  0  0  0  0  0  0  0  0  0
  -27.8120  -18.2346   17.2769 C   0  0  0  0  0  0  0  0  0  0  0  0
  -30.0465  -14.5693   19.6804 C   0  0  0  0  0  0  0  0  0  0  0  0
  -21.7392  -29.6179   21.9608 C   0  0  0  0  0  0  0  0  0  0  0  0
  -22.9676  -28.8863   23.9084 C   0  0  0  0  0  0  0  0  0  0  0  0
  -30.9288  -14.7886   20.7373 C   0  0  0  0  0  0  0  0  0  0  0  0
  -19.2382  -27.8958   23.4453 C   0  0  0  0  0  0  0  0  0  0  0  0
  -17.9871  -27.4759   22.9938 C   0  0  0  0  0  0  0  0  0  0  0  0
  -29.2092  -14.1395   22.2996 C   0  0  0  0  0  0  0  0  0  0  0  0
  -28.7776  -20.6230   21.1222 C   0  0  0  0  0  0  0  0  0  0  0  0
  -29.2244  -22.3195   22.7833 C   0  0  0  0  0  0  0  0  0  0  0  0
  -17.2177  -29.7661   22.9955 C   0  0  0  0  0  0  0  0  0  0  0  0
  -24.0119  -28.8311   21.7304 C   0  0  0  0  0  0  0  0  0  0  0  0
  -29.5604  -19.9875   23.3177 C   0  0  0  0  0  0  0  0  0  0  0  0
  -26.2058  -29.4143   20.5668 C   0  0  0  0  0  0  0  0  0  0  0  0
  -25.8265  -19.3902   16.5080 C   0  0  0  0  0  0  0  0  0  0  0  0
  -28.7333  -14.1432   19.9262 C   0  0  0  0  0  0  0  0  0  0  0  0
  -26.4149  -18.3935   17.3128 C   0  0  0  0  0  0  0  0  0  0  0  0
  -28.3130  -13.9130   21.2439 C   0  0  0  0  0  0  0  0  0  0  0  0
  -29.1505  -19.6338   22.0322 C   0  0  0  0  0  0  0  0  0  0  0  0
  -28.8146  -21.9659   21.4977 C   0  0  0  0  0  0  0  0  0  0  0  0
  -21.8006  -29.3924   23.3360 C   0  0  0  0  0  0  0  0  0  0  0  0
  -30.5094  -14.5765   22.0473 C   0  0  0  0  0  0  0  0  0  0  0  0
  -19.4791  -29.2509   23.6721 C   0  0  0  0  0  0  0  0  0  0  0  0
  -16.9769  -28.4110   22.7688 C   0  0  0  0  0  0  0  0  0  0  0  0
  -29.5973  -21.3303   23.6933 C   0  0  0  0  0  0  0  0  0  0  0  0
  -18.4689  -30.1860   23.4471 C   0  0  0  0  0  0  0  0  0  0  0  0
  -25.1541  -28.5405   20.9016 C   0  0  0  0  0  0  0  0  0  0  0  0
  -27.0324  -28.6655   19.7652 C   0  0  0  0  0  0  0  0  0  0  0  0
  -29.9586  -18.9540   24.2944 C   0  0  0  0  0  0  0  0  0  0  0  0
  -26.4168  -30.7807   20.9465 C   0  0  0  0  0  0  0  0  0  0  0  0
  -25.8440  -15.3520   19.3833 C   0  0  0  0  0  0  0  0  0  0  0  0
  -24.8565  -12.4639   20.4814 C   0  0  0  0  0  0  0  0  0  0  0  0
  -25.5288   -9.6931   22.3569 C   0  0  0  0  0  0  0  0  0  0  0  0
  -28.0041  -22.7914   19.2599 C   0  0  0  0  0  0  0  0  0  0  0  0
  -24.3374  -19.6305   16.5038 C   0  0  0  0  0  0  0  0  0  0  0  0
  -27.8019  -13.8855   18.7735 C   0  0  0  0  0  0  0  0  0  0  0  0
  -26.9197  -13.4360   21.5600 C   0  0  0  0  0  0  0  0  0  0  0  0
  -23.6424  -19.0773   17.7437 C   0  0  0  0  0  0  0  0  0  0  0  0
  -26.9455  -25.0043   16.6793 C   0  0  0  0  0  0  0  0  0  0  0  0
  -24.0732  -17.6378   17.9823 C   0  0  0  0  0  0  0  0  0  0  0  0
  -26.4674  -26.2442   17.4385 C   0  0  0  0  0  0  0  0  0  0  0  0
  -26.6050  -23.7158   17.4260 C   0  0  0  0  0  0  0  0  0  0  0  0
  -26.5799  -24.9089   19.5812 C   0  0  0  0  0  0  0  0  0  0  0  0
  -25.5787  -17.5581   18.2653 C   0  0  1  0  0  0  0  0  0  0  0  0
  -26.3299  -13.9464   19.1696 C   0  0  1  0  0  0  0  0  0  0  0  0
  -26.9577  -26.2342   18.8997 C   0  0  2  0  0  0  0  0  0  0  0  0
  -29.1028  -18.2028   21.6064 C   0  0  0  0  0  0  0  0  0  0  0  0
  -24.5139   -7.5198   23.0944 C   0  0  0  0  0  0  0  0  0  0  0  0
  -23.1060  -13.9628   22.4812 C   0  0  0  0  0  0  0  0  0  0  0  0
  -22.8736  -11.8295   23.7708 C   0  0  0  0  0  0  0  0  0  0  0  0
  -22.0189  -11.9702   21.4315 C   0  0  0  0  0  0  0  0  0  0  0  0
  -27.6655   -8.1178   21.0485 C   0  0  0  0  0  0  0  0  0  0  0  0
  -32.6847  -16.4238   24.2461 C   0  0  0  0  0  0  0  0  0  0  0  0
  -31.4742  -17.0933   24.8752 C   0  0  0  0  0  0  0  0  0  0  0  0
  -32.3697  -15.7904   22.8969 C   0  0  0  0  0  0  0  0  0  1  0  0
  -24.5133  -11.8961   21.8374 C   0  0  1  0  0  0  0  0  0  0  0  0
  -25.3816   -8.2126   22.0553 C   0  0  2  0  0  0  0  0  0  0  0  0
  -23.1537  -12.4255   22.3747 C   0  0  0  0  0  0  0  0  0  0  0  0
  -25.2969  -27.3292   20.3571 N   0  0  0  0  0  0  0  0  0  0  0  0
  -26.4481  -27.4367   19.6719 N   0  0  0  0  0  0  0  0  0  0  0  0
  -26.0443  -13.2043   20.3992 N   0  0  0  0  0  0  0  0  0  0  0  0
  -27.1042  -23.7767   18.8015 N   0  0  0  0  0  0  0  0  0  0  0  0
  -28.1946  -28.9450   19.1380 N   0  0  0  0  0  0  0  0  0  0  0  0
  -29.2717  -18.8685   25.4336 N   0  0  0  0  0  0  0  0  0  0  0  0
  -25.4696  -31.3978   21.7749 N   0  0  0  0  0  0  0  0  0  0  0  0
  -28.4355  -22.9710   20.5737 N   0  0  0  0  0  0  0  0  0  0  0  0
  -25.9837  -16.1697   18.2781 N   0  0  0  0  0  0  0  0  0  0  0  0
  -24.5775  -10.4451   21.7005 N   0  0  0  0  0  0  0  0  0  0  0  0
  -30.9898  -18.1545   23.9921 N   0  3  0  0  0  0  0  0  0  0  0  0
  -26.7171   -7.5514   22.0420 N   0  3  0  0  0  0  0  0  0  0  0  0
  -27.4072  -31.4400   20.5492 O   0  0  0  0  0  0  0  0  0  0  0  0
  -25.3757  -15.6708   20.4699 O   0  0  0  0  0  0  0  0  0  0  0  0
  -24.1023  -12.2521   19.5286 O   0  0  0  0  0  0  0  0  0  0  0  0
  -26.3982  -10.1376   23.1032 O   0  0  0  0  0  0  0  0  0  0  0  0
  -28.3865  -21.8723   18.5311 O   0  0  0  0  0  0  0  0  0  0  0  0
  -20.7220  -29.6663   24.1196 O   0  0  0  0  0  0  0  0  0  0  0  0
  -31.3684  -14.7904   23.0809 O   0  0  0  0  0  0  0  0  0  1  0  0
  -15.7759  -28.0077   22.3337 F   0  0  0  0  0  0  0  0  0  0  0  0
  -29.9896  -21.6809   24.9263 F   0  0  0  0  0  0  0  0  0  0  0  0
  -18.6947  -31.4894   23.6620 F   0  0  0  0  0  0  0  0  0  0  0  0
  1  2  1  0  0  0  0
  1  5  2  0  0  0  0
  2  6  2  0  0  0  0
  3  8  2  0  0  0  0
  3 17  1  0  0  0  0
  4  9  1  0  0  0  0
  4 17  2  0  0  0  0
  5 20  1  0  0  0  0
  6 22  1  0  0  0  0
  7 10  2  0  0  0  0
  7 21  1  0  0  0  0
  8 26  1  0  0  0  0
  9 26  2  0  0  0  0
 10 27  1  0  0  0  0
 11 12  2  0  0  0  0
 11 28  1  0  0  0  0
 12 29  1  0  0  0  0
 13 23  1  0  0  0  0
 13 27  2  0  0  0  0
 14 24  2  0  0  0  0
 14 25  1  0  0  0  0
 15 25  2  0  0  0  0
 15 30  1  0  0  0  0
 16 29  2  0  0  0  0
 16 31  1  0  0  0  0
 17 32  1  0  0  0  0
 18 24  1  0  0  0  0
 18 30  2  0  0  0  0
 18 34  1  0  0  0  0
 19 32  1  0  0  0  0
 19 33  2  0  0  0  0
 19 35  1  0  0  0  0
 20 22  2  0  0  0  0
 20 40  1  0  0  0  0
 21 23  2  0  0  0  0
 21 41  1  0  0  0  0
 22 49  1  0  0  0  0
 23 42  1  0  0  0  0
 24 52  1  0  0  0  0
 25 71  1  0  0  0  0
 26 81  1  0  0  0  0
 27 82  1  0  0  0  0
 28 31  2  0  0  0  0
 28 81  1  0  0  0  0
 29 83  1  0  0  0  0
 30 84  1  0  0  0  0
 31 85  1  0  0  0  0
 32 64  2  0  0  0  0
 33 65  1  0  0  0  0
 33 68  1  0  0  0  0
 34 69  1  0  0  0  0
 34 74  2  0  0  0  0
 35 70  1  0  0  0  0
 35 76  2  0  0  0  0
 36 50  1  0  0  0  0
 36 72  1  0  0  0  0
 36 77  2  0  0  0  0
 37 61  1  0  0  0  0
 37 66  1  0  0  0  0
 37 78  2  0  0  0  0
 38 62  1  0  0  0  0
 38 73  1  0  0  0  0
 38 79  2  0  0  0  0
 39 67  1  0  0  0  0
 39 71  1  0  0  0  0
 39 80  2  0  0  0  0
 40 43  1  0  0  0  0
 41 50  1  0  0  0  0
 42 66  1  0  0  0  0
 43 45  1  0  0  0  0
 44 46  1  0  0  0  0
 44 47  1  0  0  0  0
 45 49  1  0  0  0  0
 46 51  1  0  0  0  0
 47 67  1  0  0  0  0
 48 51  1  0  0  0  0
 48 67  1  0  0  0  0
 49 72  1  0  0  0  0
 50 66  1  0  0  0  0
 51 65  1  0  0  0  0
 53 62  1  0  0  0  0
 54 63  1  0  0  0  0
 55 63  1  0  0  0  0
 56 63  1  0  0  0  0
 57 75  1  0  0  0  0
 58 59  1  0  0  0  0
 58 60  1  0  0  0  0
 59 74  1  0  0  0  0
 60 82  1  0  0  0  0
 61 63  1  0  0  0  0
 61 73  1  0  0  0  0
 62 75  1  0  0  0  0
 64 65  1  0  0  0  0
M  CHG  2  74   1  75   1
M  ISO  4  39 100  60 101  71 100  82 101
M  END
> <Batch ID>
0048

> <Smiles>
CNC(C)C(=O)NC(C(=O)N1Cc2cc([101O:1][101CH2:1]CCNC(=N)c3c(C)cc([100NH:0][100C:0](=O)N4CCCC(n5nc(-c6ccc(Oc7ccc(F)cc7F)cc6)c(C(N)=O)c5N)C4)cc3F)ccc2CC1C(=O)NC1CCCc2ccccc21)C(C)(C)C

> <Shape>
0.265

> <Color>
0.048

> <Negative vol penalty>
0.000

$$$$

  -OEChem-04042322293D

 85 93  0     1  0  0  0  0  0999 V2000
  -17.8438  -26.1028   31.0626 C   0  0  0  0  0  0  0  0  0  0  0  0
  -18.3086  -25.2505   30.0662 C   0  0  0  0  0  0  0  0  0  0  0  0
  -23.0742   -9.8684   19.9419 C   0  0  0  0  0  0  0  0  0  0  0  0
  -23.8381   -9.8747   22.2339 C   0  0  0  0  0  0  0  0  0  0  0  0
  -18.6429  -27.1556   31.5065 C   0  0  0  0  0  0  0  0  0  0  0  0
  -19.5725  -25.4510   29.5123 C   0  0  0  0  0  0  0  0  0  0  0  0
  -23.4668  -21.1421   27.5698 C   0  0  0  0  0  0  0  0  0  0  0  0
  -31.5057  -18.4288   20.0474 C   0  0  0  0  0  0  0  0  0  0  0  0
  -22.3316   -8.7147   20.1925 C   0  0  0  0  0  0  0  0  0  0  0  0
  -23.0954   -8.7209   22.4846 C   0  0  0  0  0  0  0  0  0  0  0  0
  -23.7495  -20.6360   26.3018 C   0  0  0  0  0  0  0  0  0  0  0  0
  -19.8688   -7.9206   23.0922 C   0  0  0  0  0  0  0  0  0  0  0  0
  -19.1139   -7.8795   24.2643 C   0  0  0  0  0  0  0  0  0  0  0  0
  -31.2457  -19.4811   19.1696 C   0  0  0  0  0  0  0  0  0  0  0  0
  -25.6190  -22.1498   26.1210 C   0  0  0  0  0  0  0  0  0  0  0  0
  -29.2939  -18.6682   20.9896 C   0  0  0  0  0  0  0  0  0  0  0  0
  -20.3578   -5.9425   24.9976 C   0  0  0  0  0  0  0  0  0  0  0  0
  -23.8275  -10.4485   20.9626 C   0  0  0  0  0  0  0  0  0  0  0  0
  -24.1674  -12.9739   20.8433 C   0  0  0  0  0  0  0  0  0  0  0  0
  -19.9211  -27.3633   30.9646 C   0  0  0  0  0  0  0  0  0  0  0  0
  -24.2529  -22.1651   28.1193 C   0  0  0  0  0  0  0  0  0  0  0  0
  -20.3889  -26.5084   29.9485 C   0  0  0  0  0  0  0  0  0  0  0  0
  -25.3458  -22.6653   27.3972 C   0  0  0  0  0  0  0  0  0  0  0  0
  -30.5298  -18.0223   20.9574 C   0  0  0  0  0  0  0  0  0  0  0  0
  -29.0339  -19.7206   20.1119 C   0  0  0  0  0  0  0  0  0  0  0  0
  -22.3421   -8.1409   21.4638 C   0  0  0  0  0  0  0  0  0  0  0  0
  -24.8239  -21.1418   25.5760 C   0  0  0  0  0  0  0  0  0  0  0  0
  -20.8682   -6.9726   22.8727 C   0  0  0  0  0  0  0  0  0  0  0  0
  -19.3584   -6.8905   25.2171 C   0  0  0  0  0  0  0  0  0  0  0  0
  -21.1127   -5.9836   23.8254 C   0  0  0  0  0  0  0  0  0  0  0  0
  -30.0098  -20.1271   19.2018 C   0  0  0  0  0  0  0  0  0  0  0  0
  -24.5954  -11.6400   20.7042 C   0  0  0  0  0  0  0  0  0  0  0  0
  -25.2585  -13.7243   20.4786 C   0  0  0  0  0  0  0  0  0  0  0  0
  -22.8973  -13.4886   21.2647 C   0  0  0  0  0  0  0  0  0  0  0  0
  -23.7093  -25.1524   29.0599 C   0  0  0  0  0  0  0  0  0  0  0  0
  -26.7811  -24.9749   30.0868 C   0  0  0  0  0  0  0  0  0  0  0  0
  -26.3755  -20.5443   22.3016 C   0  0  0  0  0  0  0  0  0  0  0  0
  -29.8506  -23.5103   29.8036 C   0  0  0  0  0  0  0  0  0  0  0  0
  -30.7418  -14.7470   20.6581 C   0  0  0  0  0  0  0  0  0  0  0  0
  -20.7295  -28.5432   31.4433 C   0  0  0  0  0  0  0  0  0  0  0  0
  -23.9511  -22.6817   29.4994 C   0  0  0  0  0  0  0  0  0  0  0  0
  -26.2328  -23.7495   27.9507 C   0  0  0  0  0  0  0  0  0  0  0  0
  -22.2071  -28.4614   31.0687 C   0  0  0  0  0  0  0  0  0  0  0  0
  -29.6018  -12.3630   18.2720 C   0  0  0  0  0  0  0  0  0  0  0  0
  -22.3654  -28.0643   29.6045 C   0  0  0  0  0  0  0  0  0  0  0  0
  -28.1653  -12.0681   18.7073 C   0  0  0  0  0  0  0  0  0  0  0  0
  -30.5208  -12.5838   19.4715 C   0  0  0  0  0  0  0  0  0  0  0  0
  -28.6209  -13.3129   20.8617 C   0  0  0  0  0  0  0  0  0  0  0  0
  -21.7643  -26.6785   29.3405 C   0  0  1  0  0  0  0  0  0  0  0  0
  -24.5062  -24.0807   29.7484 C   0  0  1  0  0  0  0  0  0  0  0  0
  -27.6449  -13.1382   19.6856 C   0  0  2  0  0  0  0  0  0  0  0  0
  -32.1722  -23.6025   30.7518 C   0  0  0  0  0  0  0  0  0  0  0  0
  -27.3308  -27.5147   28.4876 C   0  0  0  0  0  0  0  0  0  0  0  0
  -29.7783  -27.0253   28.6842 C   0  0  0  0  0  0  0  0  0  0  0  0
  -28.4225  -27.4411   30.7365 C   0  0  0  0  0  0  0  0  0  0  0  0
  -28.3575  -22.0159   21.9035 C   0  0  0  0  0  0  0  0  0  0  0  0
  -29.6954  -20.7143   30.7612 C   0  0  0  0  0  0  0  0  0  0  0  0
  -30.8083  -16.8970   21.8960 C   0  0  0  0  0  0  0  0  0  0  0  0
  -27.6912  -20.3891   20.1778 C   0  0  0  0  0  0  0  0  0  0  0  0
  -26.2174  -21.2144   23.6502 C   0  0  0  0  0  0  0  0  0  1  0  0
  -28.1307  -25.2682   29.4774 C   0  0  1  0  0  0  0  0  0  0  0  0
  -30.8007  -22.9525   30.8479 C   0  0  2  0  0  0  0  0  0  0  0  0
  -28.3979  -26.7932   29.3349 C   0  0  0  0  0  0  0  0  0  0  0  0
  -25.8596  -11.5453   20.2837 N   0  0  0  0  0  0  0  0  0  0  0  0
  -26.2354  -12.8292   20.1554 N   0  0  0  0  0  0  0  0  0  0  0  0
  -25.8930  -24.2262   29.3016 N   0  0  0  0  0  0  0  0  0  0  0  0
  -29.9710  -13.6115   20.3589 N   0  0  0  0  0  0  0  0  0  0  0  0
  -25.4678  -15.0560   20.4059 N   0  0  0  0  0  0  0  0  0  0  0  0
  -21.8866  -12.5786   21.6032 N   0  0  0  0  0  0  0  0  0  0  0  0
  -22.6579  -25.6420   29.8112 N   0  0  0  0  0  0  0  0  0  0  0  0
  -29.1106  -24.5639   30.2973 N   0  0  0  0  0  0  0  0  0  0  0  0
  -30.1435  -15.6750   21.5017 N   0  0  0  0  0  0  0  0  0  0  0  0
  -27.4322  -20.9666   21.4942 N   0  0  0  0  0  0  0  0  0  0  0  0
  -30.9637  -21.4822   30.6672 N   0  3  0  0  0  0  0  0  0  0  0  0
  -22.6603  -14.7191   21.3231 O   0  0  0  0  0  0  0  0  0  0  0  0
  -24.0257  -25.5097   27.9313 O   0  0  0  0  0  0  0  0  0  0  0  0
  -26.5269  -25.3886   31.2208 O   0  0  0  0  0  0  0  0  0  0  0  0
  -25.5765  -19.6588   21.9819 O   0  0  0  0  0  0  0  0  0  0  0  0
  -29.7752  -23.0591   28.6629 O   0  0  0  0  0  0  0  0  0  0  0  0
  -31.8769  -14.9235   20.2027 O   0  0  0  0  0  0  0  0  0  0  0  0
  -21.6174   -7.0152   21.7088 O   0  0  0  0  0  0  0  0  0  0  0  0
  -25.1016  -20.6501   24.3379 O   0  0  0  0  0  0  0  0  0  1  0  0
  -18.6344   -6.8521   26.3434 F   0  0  0  0  0  0  0  0  0  0  0  0
  -22.0723   -5.0709   23.6207 F   0  0  0  0  0  0  0  0  0  0  0  0
  -29.7235  -21.4250   18.1007 Cl  0  0  0  0  0  0  0  0  0  0  0  0
  1  2  1  0  0  0  0
  1  5  2  0  0  0  0
  2  6  2  0  0  0  0
  3  9  2  0  0  0  0
  3 18  1  0  0  0  0
  4 10  1  0  0  0  0
  4 18  2  0  0  0  0
  5 20  1  0  0  0  0
  6 22  1  0  0  0  0
  7 11  2  0  0  0  0
  7 21  1  0  0  0  0
  8 14  2  0  0  0  0
  8 24  1  0  0  0  0
  9 26  1  0  0  0  0
 10 26  2  0  0  0  0
 11 27  1  0  0  0  0
 12 13  2  0  0  0  0
 12 28  1  0  0  0  0
 13 29  1  0  0  0  0
 14 31  1  0  0  0  0
 15 23  1  0  0  0  0
 15 27  2  0  0  0  0
 16 24  2  0  0  0  0
 16 25  1  0  0  0  0
 17 29  2  0  0  0  0
 17 30  1  0  0  0  0
 18 32  1  0  0  0  0
 19 32  1  0  0  0  0
 19 33  2  0  0  0  0
 19 34  1  0  0  0  0
 20 22  2  0  0  0  0
 20 40  1  0  0  0  0
 21 23  2  0  0  0  0
 21 41  1  0  0  0  0
 22 49  1  0  0  0  0
 23 42  1  0  0  0  0
 24 58  1  0  0  0  0
 25 31  2  0  0  0  0
 25 59  1  0  0  0  0
 26 81  1  0  0  0  0
 27 82  1  0  0  0  0
 28 30  2  0  0  0  0
 28 81  1  0  0  0  0
 29 83  1  0  0  0  0
 30 84  1  0  0  0  0
 31 85  1  0  0  0  0
 32 64  2  0  0  0  0
 33 65  1  0  0  0  0
 33 68  1  0  0  0  0
 34 69  1  0  0  0  0
 34 75  2  0  0  0  0
 35 50  1  0  0  0  0
 35 70  1  0  0  0  0
 35 76  2  0  0  0  0
 36 61  1  0  0  0  0
 36 66  1  0  0  0  0
 36 77  2  0  0  0  0
 37 60  1  0  0  0  0
 37 73  1  0  0  0  0
 37 78  2  0  0  0  0
 38 62  1  0  0  0  0
 38 71  1  0  0  0  0
 38 79  2  0  0  0  0
 39 67  1  0  0  0  0
 39 72  1  0  0  0  0
 39 80  2  0  0  0  0
 40 43  1  0  0  0  0
 41 50  1  0  0  0  0
 42 66  1  0  0  0  0
 43 45  1  0  0  0  0
 44 46  1  0  0  0  0
 44 47  1  0  0  0  0
 45 49  1  0  0  0  0
 46 51  1  0  0  0  0
 47 67  1  0  0  0  0
 48 51  1  0  0  0  0
 48 67  1  0  0  0  0
 49 70  1  0  0  0  0
 50 66  1  0  0  0  0
 51 65  1  0  0  0  0
 52 62  1  0  0  0  0
 53 63  1  0  0  0  0
 54 63  1  0  0  0  0
 55 63  1  0  0  0  0
 56 73  1  0  0  0  0
 57 74  1  0  0  0  0
 58 72  1  0  0  0  0
 59 73  1  0  0  0  0
 60 82  1  0  0  0  0
 61 63  1  0  0  0  0
 61 71  1  0  0  0  0
 62 74  1  0  0  0  0
 64 65  1  0  0  0  0
M  CHG  1  74   1
M  ISO  4  39 100  60 101  72 100  82 101
M  END
> <Batch ID>
0048

> <Smiles>
CNC(C)C(=O)NC(C(=O)N1Cc2cc([101O:1][101CH2:1]C(=O)N(C)Cc3cc(C[100NH:0][100C:0](=O)N4CCCC(n5nc(-c6ccc(Oc7ccc(F)cc7F)cc6)c(C(N)=O)c5N)C4)ccc3Cl)ccc2CC1C(=O)NC1CCCc2ccccc21)C(C)(C)C

> <Shape>
0.201

> <Color>
0.196

> <Negative vol penalty>
0.000

$$$$
