
  -OEChem-04042322323D

 84 92  0     1  0  0  0  0  0999 V2000
  -24.2299  -18.3848   22.0133 C   0  0  0  0  0  0  0  0  0  0  0  0
  -24.8689  -19.4690   21.4203 C   0  0  0  0  0  0  0  0  0  0  0  0
  -32.3595  -19.3046   17.3340 C   0  0  0  0  0  0  0  0  0  0  0  0
  -24.0816  -13.6670   23.0595 C   0  0  0  0  0  0  0  0  0  0  0  0
  -22.4948  -13.9237   21.2558 C   0  0  0  0  0  0  0  0  0  0  0  0
  -32.2114  -20.6729   17.5605 C   0  0  0  0  0  0  0  0  0  0  0  0
  -31.5498  -18.3938   18.0125 C   0  0  0  0  0  0  0  0  0  0  0  0
  -22.8614  -18.4409   22.2739 C   0  0  0  0  0  0  0  0  0  0  0  0
  -24.1394  -20.6096   21.0866 C   0  0  0  0  0  0  0  0  0  0  0  0
  -26.5021  -24.8858   22.4196 C   0  0  0  0  0  0  0  0  0  0  0  0
  -23.0407  -13.7377   23.9853 C   0  0  0  0  0  0  0  0  0  0  0  0
  -21.4538  -13.9943   22.1816 C   0  0  0  0  0  0  0  0  0  0  0  0
  -27.5428  -25.3204   21.5999 C   0  0  0  0  0  0  0  0  0  0  0  0
  -21.1318  -16.1369   25.4079 C   0  0  0  0  0  0  0  0  0  0  0  0
  -21.3168  -16.9453   26.5295 C   0  0  0  0  0  0  0  0  0  0  0  0
  -26.0522  -26.9051   20.5579 C   0  0  0  0  0  0  0  0  0  0  0  0
  -21.0256  -15.0226   27.9633 C   0  0  0  0  0  0  0  0  0  0  0  0
  -23.8086  -13.7600   21.6947 C   0  0  0  0  0  0  0  0  0  0  0  0
  -31.2537  -21.1305   18.4655 C   0  0  0  0  0  0  0  0  0  0  0  0
  -30.5920  -18.8513   18.9175 C   0  0  0  0  0  0  0  0  0  0  0  0
  -25.3965  -12.5306   20.1216 C   0  0  0  0  0  0  0  0  0  0  0  0
  -22.1166  -19.5865   21.9521 C   0  0  0  0  0  0  0  0  0  0  0  0
  -25.2237  -25.4510   22.3069 C   0  0  0  0  0  0  0  0  0  0  0  0
  -22.7594  -20.6805   21.3420 C   0  0  0  0  0  0  0  0  0  0  0  0
  -24.9976  -26.4777   21.3791 C   0  0  0  0  0  0  0  0  0  0  0  0
  -30.4440  -20.2197   19.1440 C   0  0  0  0  0  0  0  0  0  0  0  0
  -21.7268  -13.9013   23.5464 C   0  0  0  0  0  0  0  0  0  0  0  0
  -27.3172  -26.3282   20.6669 C   0  0  0  0  0  0  0  0  0  0  0  0
  -20.8936  -14.7714   25.5640 C   0  0  0  0  0  0  0  0  0  0  0  0
  -21.2637  -16.3882   27.8071 C   0  0  0  0  0  0  0  0  0  0  0  0
  -20.8405  -14.2143   26.8417 C   0  0  0  0  0  0  0  0  0  0  0  0
  -24.8835  -13.6877   20.7378 C   0  0  0  0  0  0  0  0  0  0  0  0
  -26.3990  -12.9927   19.3042 C   0  0  0  0  0  0  0  0  0  0  0  0
  -31.1246  -22.5826   18.6806 C   0  0  0  0  0  0  0  0  0  0  0  0
  -30.2975  -23.3833   17.9925 C   0  0  0  0  0  0  0  0  0  0  0  0
  -29.7568  -17.8670   19.6166 C   0  0  0  0  0  0  0  0  0  0  0  0
  -25.0021  -11.1606   20.2742 C   0  0  0  0  0  0  0  0  0  0  0  0
  -30.2434  -24.8403   18.3036 C   0  0  0  0  0  0  0  0  0  0  0  0
  -22.3415  -24.3460   21.5485 C   0  0  0  0  0  0  0  0  0  0  0  0
  -21.4055  -27.3417   22.3681 C   0  0  0  0  0  0  0  0  0  0  0  0
  -22.2312  -30.6299   22.7590 C   0  0  0  0  0  0  0  0  0  0  0  0
  -20.6306  -19.5823   22.2096 C   0  0  0  0  0  0  0  0  0  0  0  0
  -24.1185  -24.9897   23.2169 C   0  0  0  0  0  0  0  0  0  0  0  0
  -23.6486  -27.1313   21.2326 C   0  0  0  0  0  0  0  0  0  0  0  0
  -20.0012  -20.9724   22.1679 C   0  0  0  0  0  0  0  0  0  0  0  0
  -27.7176  -16.8435   16.7951 C   0  0  0  0  0  0  0  0  0  0  0  0
  -20.4877  -21.7421   20.9441 C   0  0  0  0  0  0  0  0  0  0  0  0
  -26.7910  -15.8164   17.4467 C   0  0  0  0  0  0  0  0  0  0  0  0
  -28.0299  -17.9936   17.7477 C   0  0  0  0  0  0  0  0  0  0  0  0
  -27.6773  -16.5334   19.7115 C   0  0  0  0  0  0  0  0  0  0  0  0
  -22.0070  -21.9450   20.9880 C   0  0  1  0  0  0  0  0  0  0  0  0
  -22.7274  -25.2787   22.6615 C   0  0  1  0  0  0  0  0  0  0  0  0
  -27.3522  -15.3384   18.7985 C   0  0  1  0  0  0  0  0  0  0  0  0
  -29.4122  -20.7017   20.1173 C   0  0  0  0  0  0  0  0  0  0  0  0
  -21.2450  -32.8454   23.4045 C   0  0  0  0  0  0  0  0  0  0  0  0
  -20.0447  -27.5271   19.6434 C   0  0  0  0  0  0  0  0  0  0  0  0
  -19.9164  -30.0080   19.9540 C   0  0  0  0  0  0  0  0  0  0  0  0
  -18.7251  -28.4915   21.5363 C   0  0  0  0  0  0  0  0  0  0  0  0
  -24.0745  -30.9119   25.0572 C   0  0  0  0  0  0  0  0  0  0  0  0
  -29.0899  -26.9266   17.5903 C   0  0  0  0  0  0  0  0  0  0  0  0
  -27.9755  -27.2416   18.5721 C   0  0  0  0  0  0  0  0  0  1  0  0
  -21.2465  -28.6508   21.6331 C   0  0  1  0  0  0  0  0  0  0  0  0
  -21.9754  -31.6047   23.8943 C   0  0  2  0  0  0  0  0  0  0  0  0
  -20.0082  -28.6559   20.6929 C   0  0  0  0  0  0  0  0  0  0  0  0
  -25.5085  -14.8010   20.3457 N   0  0  0  0  0  0  0  0  0  0  0  0
  -26.4247  -14.3457   19.4743 N   0  0  0  0  0  0  0  0  0  0  0  0
  -28.5518  -17.4843   19.0222 N   0  0  0  0  0  0  0  0  0  0  0  0
  -22.5985  -26.6413   22.1407 N   0  0  0  0  0  0  0  0  0  0  0  0
  -27.2523  -12.3696   18.4640 N   0  0  0  0  0  0  0  0  0  0  0  0
  -23.9538  -10.8613   21.1549 N   0  0  0  0  0  0  0  0  0  0  0  0
  -29.3355  -25.5120   17.4959 N   0  0  0  0  0  0  0  0  0  0  0  0
  -22.3483  -23.0111   21.9054 N   0  0  0  0  0  0  0  0  0  0  0  0
  -21.2256  -29.6924   22.6544 N   0  0  0  0  0  0  0  0  0  0  0  0
  -23.2632  -32.0304   24.5116 N   0  3  0  0  0  0  0  0  0  0  0  0
  -30.1969  -17.4426   20.6840 O   0  0  0  0  0  0  0  0  0  0  0  0
  -25.5737  -10.2278   19.6605 O   0  0  0  0  0  0  0  0  0  0  0  0
  -30.9337  -25.3541   19.1778 O   0  0  0  0  0  0  0  0  0  0  0  0
  -22.0571  -24.8037   20.4479 O   0  0  0  0  0  0  0  0  0  0  0  0
  -20.5074  -26.9585   23.1219 O   0  0  0  0  0  0  0  0  0  0  0  0
  -23.2221  -30.6960   22.0349 O   0  0  0  0  0  0  0  0  0  0  0  0
  -20.7109  -13.9701   24.4495 O   0  0  0  0  0  0  0  0  0  0  0  0
  -28.3310  -26.7537   19.8651 O   0  0  0  0  0  0  0  0  0  1  0  0
  -21.4429  -17.1643   28.8840 F   0  0  0  0  0  0  0  0  0  0  0  0
  -20.6132  -12.9029   26.9979 F   0  0  0  0  0  0  0  0  0  0  0  0
  1  2  1  0  0  0  0
  1  8  2  0  0  0  0
  2  9  2  0  0  0  0
  3  6  2  0  0  0  0
  3  7  1  0  0  0  0
  4 11  2  0  0  0  0
  4 18  1  0  0  0  0
  5 12  1  0  0  0  0
  5 18  2  0  0  0  0
  6 19  1  0  0  0  0
  7 20  2  0  0  0  0
  8 22  1  0  0  0  0
  9 24  1  0  0  0  0
 10 13  2  0  0  0  0
 10 23  1  0  0  0  0
 11 27  1  0  0  0  0
 12 27  2  0  0  0  0
 13 28  1  0  0  0  0
 14 15  2  0  0  0  0
 14 29  1  0  0  0  0
 15 30  1  0  0  0  0
 16 25  1  0  0  0  0
 16 28  2  0  0  0  0
 17 30  2  0  0  0  0
 17 31  1  0  0  0  0
 18 32  1  0  0  0  0
 19 26  2  0  0  0  0
 19 34  1  0  0  0  0
 20 26  1  0  0  0  0
 20 36  1  0  0  0  0
 21 32  1  0  0  0  0
 21 33  2  0  0  0  0
 21 37  1  0  0  0  0
 22 24  2  0  0  0  0
 22 42  1  0  0  0  0
 23 25  2  0  0  0  0
 23 43  1  0  0  0  0
 24 51  1  0  0  0  0
 25 44  1  0  0  0  0
 26 54  1  0  0  0  0
 27 81  1  0  0  0  0
 28 82  1  0  0  0  0
 29 31  2  0  0  0  0
 29 81  1  0  0  0  0
 30 83  1  0  0  0  0
 31 84  1  0  0  0  0
 32 65  2  0  0  0  0
 33 66  1  0  0  0  0
 33 69  1  0  0  0  0
 34 35  2  0  0  0  0
 35 38  1  0  0  0  0
 36 67  1  0  0  0  0
 36 75  2  0  0  0  0
 37 70  1  0  0  0  0
 37 76  2  0  0  0  0
 38 71  1  0  0  0  0
 38 77  2  0  0  0  0
 39 52  1  0  0  0  0
 39 72  1  0  0  0  0
 39 78  2  0  0  0  0
 40 62  1  0  0  0  0
 40 68  1  0  0  0  0
 40 79  2  0  0  0  0
 41 63  1  0  0  0  0
 41 73  1  0  0  0  0
 41 80  2  0  0  0  0
 42 45  1  0  0  0  0
 43 52  1  0  0  0  0
 44 68  1  0  0  0  0
 45 47  1  0  0  0  0
 46 48  1  0  0  0  0
 46 49  1  0  0  0  0
 47 51  1  0  0  0  0
 48 53  1  0  0  0  0
 49 67  1  0  0  0  0
 50 53  1  0  0  0  0
 50 67  1  0  0  0  0
 51 72  1  0  0  0  0
 52 68  1  0  0  0  0
 53 66  1  0  0  0  0
 55 63  1  0  0  0  0
 56 64  1  0  0  0  0
 57 64  1  0  0  0  0
 58 64  1  0  0  0  0
 59 74  1  0  0  0  0
 60 61  1  0  0  0  0
 60 71  1  0  0  0  0
 61 82  1  0  0  0  0
 62 64  1  0  0  0  0
 62 73  1  0  0  0  0
 63 74  1  0  0  0  0
 65 66  1  0  0  0  0
M  CHG  1  74   1
M  ISO  4  20 100  36 100  61 101  82 101
M  END
> <Batch ID>
0049

> <Smiles>
CNC(C)C(=O)NC(C(=O)N1Cc2cc([101O:1][101CH2:1]CNC(=O)C=Cc3ccc[100c:0]([100C:0](=O)N4CCCC(n5nc(-c6ccc(Oc7ccc(F)cc7F)cc6)c(C(N)=O)c5N)C4)c3C)ccc2CC1C(=O)NC1CCCc2ccccc21)C(C)(C)C

> <Shape>
0.193

> <Color>
0.085

> <Negative vol penalty>
0.000

$$$$

  -OEChem-04042322323D

 83 91  0     1  0  0  0  0  0999 V2000
  -28.1560  -36.4029   22.4316 C   0  0  0  0  0  0  0  0  0  0  0  0
  -28.4341  -35.0417   22.3602 C   0  0  0  0  0  0  0  0  0  0  0  0
  -29.9276  -20.9114   23.5154 C   0  0  0  0  0  0  0  0  0  0  0  0
  -24.6605  -12.2857   19.7749 C   0  0  0  0  0  0  0  0  0  0  0  0
  -25.6663  -12.9811   21.8586 C   0  0  0  0  0  0  0  0  0  0  0  0
  -26.9221  -36.8368   22.9146 C   0  0  0  0  0  0  0  0  0  0  0  0
  -27.4787  -34.1135   22.7728 C   0  0  0  0  0  0  0  0  0  0  0  0
  -26.9972  -30.2507   19.5337 C   0  0  0  0  0  0  0  0  0  0  0  0
  -30.8861  -21.7056   22.8862 C   0  0  0  0  0  0  0  0  0  0  0  0
  -28.8507  -20.4080   22.7856 C   0  0  0  0  0  0  0  0  0  0  0  0
  -25.1773  -11.0025   19.9537 C   0  0  0  0  0  0  0  0  0  0  0  0
  -26.1830  -11.6979   22.0375 C   0  0  0  0  0  0  0  0  0  0  0  0
  -27.9729  -29.2559   19.5794 C   0  0  0  0  0  0  0  0  0  0  0  0
  -24.4250   -8.2431   21.7573 C   0  0  0  0  0  0  0  0  0  0  0  0
  -23.5758   -7.1630   21.5169 C   0  0  0  0  0  0  0  0  0  0  0  0
  -26.4884  -27.8681   20.8792 C   0  0  0  0  0  0  0  0  0  0  0  0
  -29.6908  -21.4933   20.7973 C   0  0  0  0  0  0  0  0  0  0  0  0
  -25.0775   -6.3645   19.8009 C   0  0  0  0  0  0  0  0  0  0  0  0
  -24.9050  -13.2750   20.7273 C   0  0  0  0  0  0  0  0  0  0  0  0
  -23.1255  -15.0848   20.9833 C   0  0  0  0  0  0  0  0  0  0  0  0
  -25.9476  -35.9132   23.3242 C   0  0  0  0  0  0  0  0  0  0  0  0
  -25.7617  -30.0657   20.1706 C   0  0  0  0  0  0  0  0  0  0  0  0
  -26.2312  -34.5355   23.2630 C   0  0  0  0  0  0  0  0  0  0  0  0
  -25.4977  -28.8610   20.8378 C   0  0  0  0  0  0  0  0  0  0  0  0
  -30.7677  -21.9966   21.5271 C   0  0  0  0  0  0  0  0  0  0  0  0
  -28.7323  -20.6989   21.4266 C   0  0  0  0  0  0  0  0  0  0  0  0
  -25.9385  -10.7086   21.0850 C   0  0  0  0  0  0  0  0  0  0  0  0
  -27.7197  -28.0656   20.2547 C   0  0  0  0  0  0  0  0  0  0  0  0
  -25.6004   -8.3840   21.0195 C   0  0  0  0  0  0  0  0  0  0  0  0
  -23.9021   -6.2237   20.5387 C   0  0  0  0  0  0  0  0  0  0  0  0
  -25.9266   -7.4447   20.0413 C   0  0  0  0  0  0  0  0  0  0  0  0
  -24.3720  -14.6009   20.5429 C   0  0  0  0  0  0  0  0  0  0  0  0
  -23.0963  -16.3918   20.5621 C   0  0  0  0  0  0  0  0  0  0  0  0
  -22.0869  -14.4130   21.7083 C   0  0  0  0  0  0  0  0  0  0  0  0
  -24.2131  -31.5283   22.5299 C   0  0  0  0  0  0  0  0  0  0  0  0
  -21.8259  -29.4945   21.7008 C   0  0  0  0  0  0  0  0  0  0  0  0
  -30.8573  -25.1240   20.4535 C   0  0  0  0  0  0  0  0  0  0  0  0
  -20.9050  -26.5462   20.2495 C   0  0  0  0  0  0  0  0  0  0  0  0
  -27.3720  -20.3801   19.3304 C   0  0  0  0  0  0  0  0  0  0  0  0
  -24.6462  -36.4311   23.8836 C   0  0  0  0  0  0  0  0  0  0  0  0
  -24.7097  -31.1377   20.0893 C   0  0  0  0  0  0  0  0  0  0  0  0
  -24.1799  -28.6049   21.5207 C   0  0  0  0  0  0  0  0  0  0  0  0
  -23.5476  -35.3733   23.9494 C   0  0  0  0  0  0  0  0  0  0  0  0
  -24.8077  -19.2590   17.1292 C   0  0  0  0  0  0  0  0  0  0  0  0
  -24.0888  -34.0781   24.5463 C   0  0  0  0  0  0  0  0  0  0  0  0
  -24.2874  -17.9846   17.7980 C   0  0  0  0  0  0  0  0  0  0  0  0
  -26.3182  -19.4123   17.2986 C   0  0  0  0  0  0  0  0  0  0  0  0
  -26.2792  -18.0518   19.3521 C   0  0  0  0  0  0  0  0  0  0  0  0
  -25.2113  -33.4972   23.6778 C   0  0  1  0  0  0  0  0  0  0  0  0
  -23.6784  -31.0491   21.2100 C   0  0  1  0  0  0  0  0  0  0  0  0
  -24.7532  -17.8870   19.2640 C   0  0  2  0  0  0  0  0  0  0  0  0
  -18.8864  -25.1392   19.7565 C   0  0  0  0  0  0  0  0  0  0  0  0
  -21.7217  -28.6242   24.6234 C   0  0  0  0  0  0  0  0  0  0  0  0
  -20.4132  -26.6140   23.9057 C   0  0  0  0  0  0  0  0  0  0  0  0
  -19.4862  -28.9003   23.5368 C   0  0  0  0  0  0  0  0  0  0  0  0
  -21.3641  -26.7044   17.3301 C   0  0  0  0  0  0  0  0  0  0  0  0
  -31.7998  -22.8516   20.8503 C   0  0  0  0  0  0  0  0  0  0  0  0
  -30.8899  -26.5269   21.0395 C   0  0  0  0  0  0  0  0  0  0  0  0
  -30.0333  -27.5150   20.2629 C   0  0  0  0  0  0  0  0  0  1  0  0
  -21.4169  -28.1012   22.1135 C   0  0  1  0  0  0  0  0  0  0  0  0
  -19.8244  -26.2169   19.2355 C   0  0  2  0  0  0  0  0  0  0  0  0
  -20.7851  -28.0652   23.5337 C   0  0  0  0  0  0  0  0  0  0  0  0
  -25.0831  -15.5252   19.8917 N   0  0  0  0  0  0  0  0  0  0  0  0
  -24.2808  -16.6030   19.9198 N   0  0  0  0  0  0  0  0  0  0  0  0
  -23.1858  -29.6860   21.4184 N   0  0  0  0  0  0  0  0  0  0  0  0
  -26.6851  -19.3134   18.7130 N   0  0  0  0  0  0  0  0  0  0  0  0
  -22.1733  -17.3695   20.6821 N   0  0  0  0  0  0  0  0  0  0  0  0
  -22.2799  -13.0707   22.0623 N   0  0  0  0  0  0  0  0  0  0  0  0
  -27.6386  -20.1868   20.6854 N   0  0  0  0  0  0  0  0  0  0  0  0
  -24.6597  -32.8359   22.5147 N   0  0  0  0  0  0  0  0  0  0  0  0
  -31.6479  -24.2494   21.1849 N   0  0  0  0  0  0  0  0  0  0  0  0
  -20.5422  -27.6029   21.0576 N   0  0  0  0  0  0  0  0  0  0  0  0
  -20.4360  -25.7338   17.9652 N   0  3  0  0  0  0  0  0  0  0  0  0
  -21.0124  -14.9812   22.0183 O   0  0  0  0  0  0  0  0  0  0  0  0
  -24.2185  -30.7685   23.4914 O   0  0  0  0  0  0  0  0  0  0  0  0
  -20.9691  -30.3787   21.6247 O   0  0  0  0  0  0  0  0  0  0  0  0
  -30.2053  -24.8254   19.4566 O   0  0  0  0  0  0  0  0  0  0  0  0
  -21.9634  -25.9255   20.3204 O   0  0  0  0  0  0  0  0  0  0  0  0
  -27.6755  -21.4022   18.7097 O   0  0  0  0  0  0  0  0  0  0  0  0
  -26.4428   -9.4565   21.2599 O   0  0  0  0  0  0  0  0  0  0  0  0
  -28.6706  -27.0932   20.3015 O   0  0  0  0  0  0  0  0  0  1  0  0
  -23.0873   -5.1856   20.3089 F   0  0  0  0  0  0  0  0  0  0  0  0
  -27.0550   -7.5741   19.3301 F   0  0  0  0  0  0  0  0  0  0  0  0
  1  2  1  0  0  0  0
  1  6  2  0  0  0  0
  2  7  2  0  0  0  0
  3  9  2  0  0  0  0
  3 10  1  0  0  0  0
  4 11  2  0  0  0  0
  4 19  1  0  0  0  0
  5 12  1  0  0  0  0
  5 19  2  0  0  0  0
  6 21  1  0  0  0  0
  7 23  1  0  0  0  0
  8 13  2  0  0  0  0
  8 22  1  0  0  0  0
  9 25  1  0  0  0  0
 10 26  2  0  0  0  0
 11 27  1  0  0  0  0
 12 27  2  0  0  0  0
 13 28  1  0  0  0  0
 14 15  2  0  0  0  0
 14 29  1  0  0  0  0
 15 30  1  0  0  0  0
 16 24  1  0  0  0  0
 16 28  2  0  0  0  0
 17 25  2  0  0  0  0
 17 26  1  0  0  0  0
 18 30  2  0  0  0  0
 18 31  1  0  0  0  0
 19 32  1  0  0  0  0
 20 32  1  0  0  0  0
 20 33  2  0  0  0  0
 20 34  1  0  0  0  0
 21 23  2  0  0  0  0
 21 40  1  0  0  0  0
 22 24  2  0  0  0  0
 22 41  1  0  0  0  0
 23 49  1  0  0  0  0
 24 42  1  0  0  0  0
 25 57  1  0  0  0  0
 26 69  1  0  0  0  0
 27 80  1  0  0  0  0
 28 81  1  0  0  0  0
 29 31  2  0  0  0  0
 29 80  1  0  0  0  0
 30 82  1  0  0  0  0
 31 83  1  0  0  0  0
 32 63  2  0  0  0  0
 33 64  1  0  0  0  0
 33 67  1  0  0  0  0
 34 68  1  0  0  0  0
 34 74  2  0  0  0  0
 35 50  1  0  0  0  0
 35 70  1  0  0  0  0
 35 75  2  0  0  0  0
 36 60  1  0  0  0  0
 36 65  1  0  0  0  0
 36 76  2  0  0  0  0
 37 58  1  0  0  0  0
 37 71  1  0  0  0  0
 37 77  2  0  0  0  0
 38 61  1  0  0  0  0
 38 72  1  0  0  0  0
 38 78  2  0  0  0  0
 39 66  1  0  0  0  0
 39 69  1  0  0  0  0
 39 79  2  0  0  0  0
 40 43  1  0  0  0  0
 41 50  1  0  0  0  0
 42 65  1  0  0  0  0
 43 45  1  0  0  0  0
 44 46  1  0  0  0  0
 44 47  1  0  0  0  0
 45 49  1  0  0  0  0
 46 51  1  0  0  0  0
 47 66  1  0  0  0  0
 48 51  1  0  0  0  0
 48 66  1  0  0  0  0
 49 70  1  0  0  0  0
 50 65  1  0  0  0  0
 51 64  1  0  0  0  0
 52 61  1  0  0  0  0
 53 62  1  0  0  0  0
 54 62  1  0  0  0  0
 55 62  1  0  0  0  0
 56 73  1  0  0  0  0
 57 71  1  0  0  0  0
 58 59  1  0  0  0  0
 59 81  1  0  0  0  0
 60 62  1  0  0  0  0
 60 72  1  0  0  0  0
 61 73  1  0  0  0  0
 63 64  1  0  0  0  0
M  CHG  1  73   1
M  ISO  4  39 100  59 101  69 100  81 101
M  END
> <Batch ID>
0049

> <Smiles>
CNC(C)C(=O)NC(C(=O)N1Cc2cc([101O:1][101CH2:1]CC(=O)NCc3cccc([100NH:0][100C:0](=O)N4CCCC(n5nc(-c6ccc(Oc7ccc(F)cc7F)cc6)c(C(N)=O)c5N)C4)c3)ccc2CC1C(=O)NC1CCCc2ccccc21)C(C)(C)C

> <Shape>
0.274

> <Color>
0.093

> <Negative vol penalty>
0.000

$$$$

  -OEChem-04042322323D

 91 99  0     1  0  0  0  0  0999 V2000
  -24.6803  -21.0034   13.6789 C   0  0  0  0  0  0  0  0  0  0  0  0
  -24.5402  -21.9480   14.6907 C   0  0  0  0  0  0  0  0  0  0  0  0
  -26.5513  -16.7590   21.1130 C   0  0  0  0  0  0  0  0  0  0  0  0
  -25.9118  -17.3887   18.8699 C   0  0  0  0  0  0  0  0  0  0  0  0
  -25.8132  -20.1918   13.6366 C   0  0  0  0  0  0  0  0  0  0  0  0
  -25.5325  -22.0807   15.6613 C   0  0  0  0  0  0  0  0  0  0  0  0
  -27.3207  -27.2503   18.4150 C   0  0  0  0  0  0  0  0  0  0  0  0
  -26.5299  -15.4146   20.7418 C   0  0  0  0  0  0  0  0  0  0  0  0
  -25.8904  -16.0443   18.4986 C   0  0  0  0  0  0  0  0  0  0  0  0
  -27.0026  -27.8137   19.6500 C   0  0  0  0  0  0  0  0  0  0  0  0
  -24.2124  -13.0049   20.2450 C   0  0  0  0  0  0  0  0  0  0  0  0
  -23.5904  -12.1043   21.1097 C   0  0  0  0  0  0  0  0  0  0  0  0
  -18.6652  -28.7535   23.1548 C   0  0  0  0  0  0  0  0  0  0  0  0
  -28.9904  -26.8334   20.6023 C   0  0  0  0  0  0  0  0  0  0  0  0
  -18.0692  -26.5797   22.2852 C   0  0  0  0  0  0  0  0  0  0  0  0
  -25.6685  -10.8945   21.3445 C   0  0  0  0  0  0  0  0  0  0  0  0
  -26.2422  -17.7460   20.1771 C   0  0  0  0  0  0  0  0  0  0  0  0
  -19.9327  -28.6339   22.5852 C   0  0  0  0  0  0  0  0  0  0  0  0
  -27.3583  -20.0177   20.4957 C   0  0  0  0  0  0  0  0  0  0  0  0
  -26.8244  -20.3212   14.6017 C   0  0  0  0  0  0  0  0  0  0  0  0
  -28.4722  -26.4639   18.2668 C   0  0  0  0  0  0  0  0  0  0  0  0
  -26.6793  -21.2691   15.6326 C   0  0  0  0  0  0  0  0  0  0  0  0
  -29.3222  -26.2633   19.3638 C   0  0  0  0  0  0  0  0  0  0  0  0
  -17.7334  -27.7264   23.0049 C   0  0  0  0  0  0  0  0  0  0  0  0
  -19.3368  -26.4601   21.7155 C   0  0  0  0  0  0  0  0  0  0  0  0
  -20.2685  -27.4872   21.8655 C   0  0  0  0  0  0  0  0  0  0  0  0
  -26.1994  -15.0573   19.4346 C   0  0  0  0  0  0  0  0  0  0  0  0
  -27.8360  -27.6029   20.7446 C   0  0  0  0  0  0  0  0  0  0  0  0
  -25.5624  -12.8502   19.9299 C   0  0  0  0  0  0  0  0  0  0  0  0
  -24.3185  -11.0492   21.6595 C   0  0  0  0  0  0  0  0  0  0  0  0
  -26.2904  -11.7951   20.4797 C   0  0  0  0  0  0  0  0  0  0  0  0
  -26.2637  -19.1349   20.5602 C   0  0  0  0  0  0  0  0  0  0  0  0
  -26.8667  -21.2094   20.9695 C   0  0  0  0  0  0  0  0  0  0  0  0
  -20.9031  -29.7337   22.7570 C   0  0  0  0  0  0  0  0  0  0  0  0
  -28.6996  -19.7816   20.0475 C   0  0  0  0  0  0  0  0  0  0  0  0
  -29.0348  -23.4365   17.4785 C   0  0  0  0  0  0  0  0  0  0  0  0
  -32.1316  -24.3987   17.5585 C   0  0  0  0  0  0  0  0  0  0  0  0
  -24.8931  -28.6782   23.6415 C   0  0  0  0  0  0  0  0  0  0  0  0
  -34.4500  -26.6056   18.7423 C   0  0  0  0  0  0  0  0  0  0  0  0
  -21.4059  -23.4513   21.0664 C   0  0  0  0  0  0  0  0  0  0  0  0
  -28.0085  -19.3891   14.5419 C   0  0  0  0  0  0  0  0  0  0  0  0
  -28.8154  -25.8854   16.9214 C   0  0  0  0  0  0  0  0  0  0  0  0
  -30.5810  -25.4439   19.2522 C   0  0  0  0  0  0  0  0  0  0  0  0
  -29.1897  -19.8496   15.3923 C   0  0  0  0  0  0  0  0  0  0  0  0
  -23.5561  -22.9790   23.9388 C   0  0  0  0  0  0  0  0  0  0  0  0
  -28.7157  -20.2758   16.7781 C   0  0  0  0  0  0  0  0  0  0  0  0
  -24.6039  -22.0151   23.3792 C   0  0  0  0  0  0  0  0  0  0  0  0
  -22.1675  -22.6660   23.3893 C   0  0  0  0  0  0  0  0  0  0  0  0
  -23.1284  -21.6905   21.3402 C   0  0  0  0  0  0  0  0  0  0  0  0
  -27.7456  -21.4601   16.6894 C   0  0  1  0  0  0  0  0  0  0  0  0
  -29.7418  -24.6766   17.0095 C   0  0  1  0  0  0  0  0  0  0  0  0
  -24.5576  -21.9688   21.8404 C   0  0  2  0  0  0  0  0  0  0  0  0
  -16.3778  -27.8533   23.6140 C   0  0  0  0  0  0  0  0  0  0  0  0
  -21.6275  -27.3583   21.2535 C   0  0  0  0  0  0  0  0  0  0  0  0
  -36.9061  -27.1141   18.6630 C   0  0  0  0  0  0  0  0  0  0  0  0
  -28.9185  -28.3093   23.9149 C   0  0  0  0  0  0  0  0  0  0  0  0
  -32.6693  -22.0885   19.4777 C   0  0  0  0  0  0  0  0  0  0  0  0
  -34.8316  -23.1921   20.0900 C   0  0  0  0  0  0  0  0  0  0  0  0
  -34.4382  -22.4384   17.7448 C   0  0  0  0  0  0  0  0  0  0  0  0
  -33.9784  -29.2660   17.5344 C   0  0  0  0  0  0  0  0  0  0  0  0
  -19.6714  -25.2219   20.9497 C   0  0  0  0  0  0  0  0  0  0  0  0
  -24.2464  -29.8422   24.3750 C   0  0  0  0  0  0  0  0  0  0  0  0
  -26.7258  -27.0130   23.9122 C   0  0  0  0  0  0  0  0  0  0  0  0
  -23.1006  -30.4756   23.6037 C   0  0  0  0  0  0  0  0  0  0  0  0
  -33.2037  -24.4641   18.6192 C   0  0  1  0  0  0  0  0  0  0  0  0
  -35.5456  -27.3883   18.0413 C   0  0  2  0  0  0  0  0  0  0  0  0
  -27.9547  -27.4432   23.1145 C   0  0  1  0  0  0  0  0  0  1  0  0
  -33.7611  -23.0597   18.9858 C   0  0  0  0  0  0  0  0  0  0  0  0
  -25.1599  -19.7161   21.0375 N   0  0  0  0  0  0  0  0  0  0  0  0
  -25.5585  -20.9769   21.2773 N   0  0  0  0  0  0  0  0  0  0  0  0
  -30.8700  -24.8941   17.9174 N   0  0  0  0  0  0  0  0  0  0  0  0
  -22.1881  -22.6555   21.9197 N   0  0  0  0  0  0  0  0  0  0  0  0
  -27.4301  -22.4230   21.1488 N   0  0  0  0  0  0  0  0  0  0  0  0
  -20.5766  -30.9383   22.2888 N   0  0  0  0  0  0  0  0  0  0  0  0
  -29.0361  -18.4994   19.5924 N   0  0  0  0  0  0  0  0  0  0  0  0
  -28.4708  -22.6914   16.4605 N   0  0  0  0  0  0  0  0  0  0  0  0
  -25.9362  -28.1233   24.3750 N   0  0  0  0  0  0  0  0  0  0  0  0
  -34.2111  -25.3962   18.1245 N   0  0  0  0  0  0  0  0  0  0  0  0
  -20.5360  -24.3340   21.6948 N   0  0  0  0  0  0  0  0  0  0  0  0
  -22.0626  -29.4690   23.3713 N   0  3  0  0  0  0  0  0  0  0  0  0
  -35.2748  -28.8511   18.1296 N   0  3  0  0  0  0  0  0  0  0  0  0
  -29.5782  -20.6767   20.0658 O   0  0  0  0  0  0  0  0  0  0  0  0
  -29.0046  -23.1741   18.6751 O   0  0  0  0  0  0  0  0  0  0  0  0
  -32.4053  -23.9322   16.4499 O   0  0  0  0  0  0  0  0  0  0  0  0
  -24.5285  -28.2947   22.5334 O   0  0  0  0  0  0  0  0  0  0  0  0
  -33.8672  -27.0234   19.7404 O   0  0  0  0  0  0  0  0  0  0  0  0
  -21.4809  -23.3841   19.8347 O   0  0  0  0  0  0  0  0  0  0  0  0
  -26.1786  -13.7456   19.0719 O   0  0  0  0  0  0  0  0  0  0  0  0
  -27.5275  -28.1510   21.9514 O   0  0  0  0  0  0  0  0  0  1  0  0
  -23.7214  -10.1854   22.4911 F   0  0  0  0  0  0  0  0  0  0  0  0
  -27.5880  -11.6420   20.1817 F   0  0  0  0  0  0  0  0  0  0  0  0
  1  2  1  0  0  0  0
  1  5  2  0  0  0  0
  2  6  2  0  0  0  0
  3  8  2  0  0  0  0
  3 17  1  0  0  0  0
  4  9  1  0  0  0  0
  4 17  2  0  0  0  0
  5 20  1  0  0  0  0
  6 22  1  0  0  0  0
  7 10  2  0  0  0  0
  7 21  1  0  0  0  0
  8 27  1  0  0  0  0
  9 27  2  0  0  0  0
 10 28  1  0  0  0  0
 11 12  2  0  0  0  0
 11 29  1  0  0  0  0
 12 30  1  0  0  0  0
 13 18  1  0  0  0  0
 13 24  2  0  0  0  0
 14 23  1  0  0  0  0
 14 28  2  0  0  0  0
 15 24  1  0  0  0  0
 15 25  2  0  0  0  0
 16 30  2  0  0  0  0
 16 31  1  0  0  0  0
 17 32  1  0  0  0  0
 18 26  2  0  0  0  0
 18 34  1  0  0  0  0
 19 32  1  0  0  0  0
 19 33  2  0  0  0  0
 19 35  1  0  0  0  0
 20 22  2  0  0  0  0
 20 41  1  0  0  0  0
 21 23  2  0  0  0  0
 21 42  1  0  0  0  0
 22 50  1  0  0  0  0
 23 43  1  0  0  0  0
 24 53  1  0  0  0  0
 25 26  1  0  0  0  0
 25 61  1  0  0  0  0
 26 54  1  0  0  0  0
 27 88  1  0  0  0  0
 28 89  1  0  0  0  0
 29 31  2  0  0  0  0
 29 88  1  0  0  0  0
 30 90  1  0  0  0  0
 31 91  1  0  0  0  0
 32 69  2  0  0  0  0
 33 70  1  0  0  0  0
 33 73  1  0  0  0  0
 34 74  1  0  0  0  0
 34 80  2  0  0  0  0
 35 75  1  0  0  0  0
 35 82  2  0  0  0  0
 36 51  1  0  0  0  0
 36 76  1  0  0  0  0
 36 83  2  0  0  0  0
 37 65  1  0  0  0  0
 37 71  1  0  0  0  0
 37 84  2  0  0  0  0
 38 62  1  0  0  0  0
 38 77  1  0  0  0  0
 38 85  2  0  0  0  0
 39 66  1  0  0  0  0
 39 78  1  0  0  0  0
 39 86  2  0  0  0  0
 40 72  1  0  0  0  0
 40 79  1  0  0  0  0
 40 87  2  0  0  0  0
 41 44  1  0  0  0  0
 42 51  1  0  0  0  0
 43 71  1  0  0  0  0
 44 46  1  0  0  0  0
 45 47  1  0  0  0  0
 45 48  1  0  0  0  0
 46 50  1  0  0  0  0
 47 52  1  0  0  0  0
 48 72  1  0  0  0  0
 49 52  1  0  0  0  0
 49 72  1  0  0  0  0
 50 76  1  0  0  0  0
 51 71  1  0  0  0  0
 52 70  1  0  0  0  0
 55 66  1  0  0  0  0
 56 67  1  0  0  0  0
 57 68  1  0  0  0  0
 58 68  1  0  0  0  0
 59 68  1  0  0  0  0
 60 81  1  0  0  0  0
 61 79  1  0  0  0  0
 62 64  1  0  0  0  0
 63 67  1  0  0  0  0
 63 77  1  0  0  0  0
 64 80  1  0  0  0  0
 65 68  1  0  0  0  0
 65 78  1  0  0  0  0
 66 81  1  0  0  0  0
 67 89  1  0  0  0  0
 69 70  1  0  0  0  0
M  CHG  2  80   1  81   1
M  ISO  4  40 100  67 101  79 100  89 101
M  END
> <Batch ID>
0049

> <Smiles>
CNC(C)C(=O)NC(C(=O)N1Cc2cc([101O:1][101CH:1](C)CNC(=O)CCNC(=N)c3cc(C)cc(C[100NH:0][100C:0](=O)N4CCCC(n5nc(-c6ccc(Oc7ccc(F)cc7F)cc6)c(C(N)=O)c5N)C4)c3C)ccc2CC1C(=O)NC1CCCc2ccccc21)C(C)(C)C

> <Shape>
0.215

> <Color>
0.066

> <Negative vol penalty>
0.000

$$$$

  -OEChem-04042322323D

 86 95  0     1  0  0  0  0  0999 V2000
  -28.5559  -11.1914   21.2438 C   0  0  0  0  0  0  0  0  0  0  0  0
  -28.8795  -12.4589   20.7703 C   0  0  0  0  0  0  0  0  0  0  0  0
  -19.5423  -28.3926   23.8586 C   0  0  0  0  0  0  0  0  0  0  0  0
  -20.7508  -27.2219   22.1248 C   0  0  0  0  0  0  0  0  0  0  0  0
  -27.2251  -10.7762   21.2679 C   0  0  0  0  0  0  0  0  0  0  0  0
  -27.8725  -13.3115   20.3195 C   0  0  0  0  0  0  0  0  0  0  0  0
  -28.4163  -18.0421   22.0432 C   0  0  0  0  0  0  0  0  0  0  0  0
  -18.3359  -27.9469   23.3188 C   0  0  0  0  0  0  0  0  0  0  0  0
  -19.5443  -26.7761   21.5850 C   0  0  0  0  0  0  0  0  0  0  0  0
  -29.3672  -18.8439   21.4134 C   0  0  0  0  0  0  0  0  0  0  0  0
  -17.2623  -24.3710   22.2396 C   0  0  0  0  0  0  0  0  0  0  0  0
  -17.1765  -23.0290   21.8691 C   0  0  0  0  0  0  0  0  0  0  0  0
  -27.6176  -19.9049   20.1358 C   0  0  0  0  0  0  0  0  0  0  0  0
  -29.6975  -26.9585   17.7552 C   0  0  0  0  0  0  0  0  0  0  0  0
  -29.0641  -29.0621   18.7605 C   0  0  0  0  0  0  0  0  0  0  0  0
  -28.3085  -26.9830   19.7319 C   0  0  0  0  0  0  0  0  0  0  0  0
  -16.7133  -23.6876   19.5911 C   0  0  0  0  0  0  0  0  0  0  0  0
  -20.7498  -28.0302   23.2616 C   0  0  0  0  0  0  0  0  0  0  0  0
  -22.4923  -28.2436   25.1125 C   0  0  0  0  0  0  0  0  0  0  0  0
  -26.2003  -11.6279   20.8261 C   0  0  0  0  0  0  0  0  0  0  0  0
  -27.0578  -18.1583   21.7156 C   0  0  0  0  0  0  0  0  0  0  0  0
  -26.5269  -12.9069   20.3364 C   0  0  0  0  0  0  0  0  0  0  0  0
  -26.6511  -19.1052   20.7648 C   0  0  0  0  0  0  0  0  0  0  0  0
  -29.7382  -28.3527   17.7665 C   0  0  0  0  0  0  0  0  0  0  0  0
  -28.9826  -26.2736   18.7379 C   0  0  0  0  0  0  0  0  0  0  0  0
  -28.3493  -28.3773   19.7432 C   0  0  0  0  0  0  0  0  0  0  0  0
  -18.3369  -27.1385   22.1821 C   0  0  0  0  0  0  0  0  0  0  0  0
  -28.9682  -19.7735   20.4574 C   0  0  0  0  0  0  0  0  0  0  0  0
  -17.0736  -25.3713   21.2859 C   0  0  0  0  0  0  0  0  0  0  0  0
  -16.9020  -22.6873   20.5448 C   0  0  0  0  0  0  0  0  0  0  0  0
  -16.7991  -25.0296   19.9617 C   0  0  0  0  0  0  0  0  0  0  0  0
  -21.9963  -28.4909   23.8184 C   0  0  0  0  0  0  0  0  0  0  0  0
  -23.7018  -28.8936   25.1467 C   0  0  0  0  0  0  0  0  0  0  0  0
  -30.9507  -24.5626   20.0617 C   0  0  0  0  0  0  0  0  0  0  0  0
  -31.9233  -25.4818   19.9662 C   0  0  0  0  0  0  0  0  0  0  0  0
  -21.9116  -27.4935   26.1876 C   0  0  0  0  0  0  0  0  0  0  0  0
  -24.8746  -16.2089   20.4757 C   0  0  0  0  0  0  0  0  0  0  0  0
  -22.8685  -18.6727   21.1297 C   0  0  0  0  0  0  0  0  0  0  0  0
  -22.9399  -22.2698   20.8587 C   0  0  0  0  0  0  0  0  0  0  0  0
  -27.6034  -30.4823   20.9090 C   0  0  0  0  0  0  0  0  0  0  0  0
  -24.7812  -11.1172   20.8271 C   0  0  0  0  0  0  0  0  0  0  0  0
  -26.0415  -17.3047   22.4234 C   0  0  0  0  0  0  0  0  0  0  0  0
  -25.2027  -19.2833   20.3921 C   0  0  0  0  0  0  0  0  0  0  0  0
  -30.5428  -23.9325   21.3656 C   0  0  0  0  0  0  0  0  0  0  0  0
  -23.7367  -12.2209   20.6815 C   0  0  0  0  0  0  0  0  0  0  0  0
  -30.5279  -22.4140   21.2390 C   0  0  0  0  0  0  0  0  0  0  0  0
  -25.9947  -32.6405   23.2395 C   0  0  0  0  0  0  0  0  0  0  0  0
  -24.1251  -13.1789   19.5597 C   0  0  0  0  0  0  0  0  0  0  0  0
  -24.8355  -31.7966   23.7747 C   0  0  0  0  0  0  0  0  0  0  0  0
  -26.2449  -32.3835   21.7545 C   0  0  0  0  0  0  0  0  0  0  0  0
  -25.2675  -30.1286   21.9258 C   0  0  0  0  0  0  0  0  0  0  0  0
  -30.2991  -22.6387   18.7366 C   0  0  0  0  0  0  0  0  0  0  0  0
  -25.4602  -13.8699   19.8620 C   0  0  1  0  0  0  0  0  0  0  0  0
  -24.7418  -17.1495   21.6399 C   0  0  1  0  0  0  0  0  0  0  0  0
  -25.0195  -30.3050   23.4328 C   0  0  2  0  0  0  0  0  0  0  0  0
  -29.7583  -21.9668   19.9962 C   0  0  1  0  0  0  0  0  0  1  0  0
  -30.5024  -29.0848   16.7156 C   0  0  0  0  0  0  0  0  0  0  0  0
  -21.7196  -24.0290   22.1675 C   0  0  0  0  0  0  0  0  0  0  0  0
  -20.8190  -18.5171   18.8746 C   0  0  0  0  0  0  0  0  0  0  0  0
  -20.5488  -21.0004   19.0428 C   0  0  0  0  0  0  0  0  0  0  0  0
  -19.9688  -19.5499   20.9876 C   0  0  0  0  0  0  0  0  0  0  0  0
  -25.4600  -23.6375   21.5916 C   0  0  0  0  0  0  0  0  0  0  0  0
  -28.9390  -24.7740   18.7258 C   0  0  0  0  0  0  0  0  0  0  0  0
  -22.3985  -19.8964   20.3808 C   0  0  1  0  0  0  0  0  0  0  0  0
  -23.0243  -23.2657   22.0012 C   0  0  2  0  0  0  0  0  0  0  0  0
  -20.9594  -19.7295   19.8166 C   0  0  0  0  0  0  0  0  0  0  0  0
  -22.8231  -29.2396   23.0837 N   0  0  0  0  0  0  0  0  0  0  0  0
  -23.8508  -29.4685   23.9189 N   0  0  0  0  0  0  0  0  0  0  0  0
  -24.2476  -18.4209   21.1073 N   0  0  0  0  0  0  0  0  0  0  0  0
  -26.4140  -30.9500   21.5068 N   0  0  0  0  0  0  0  0  0  0  0  0
  -24.6417  -29.0237   26.1069 N   0  0  0  0  0  0  0  0  0  0  0  0
  -20.6631  -26.8903   25.9834 N   0  0  0  0  0  0  0  0  0  0  0  0
  -27.6646  -29.0979   20.7530 N   0  0  0  0  0  0  0  0  0  0  0  0
  -25.2724  -14.9328   20.8260 N   0  0  0  0  0  0  0  0  0  0  0  0
  -22.5544  -21.0207   21.2974 N   0  0  0  0  0  0  0  0  0  0  0  0
  -30.2993  -24.1441   18.8443 N   0  3  1  0  0  0  0  0  0  0  0  0
  -24.1157  -24.2493   21.7515 N   0  3  0  0  0  0  0  0  0  0  0  0
  -22.4754  -27.3757   27.3019 O   0  0  0  0  0  0  0  0  0  0  0  0
  -24.6326  -16.6108   19.3436 O   0  0  0  0  0  0  0  0  0  0  0  0
  -22.0433  -17.9703   21.7189 O   0  0  0  0  0  0  0  0  0  0  0  0
  -23.1873  -22.5708   19.6930 O   0  0  0  0  0  0  0  0  0  0  0  0
  -28.5130  -31.2506   20.5859 O   0  0  0  0  0  0  0  0  0  0  0  0
  -17.1599  -26.7031   21.6552 O   0  0  0  0  0  0  0  0  0  0  0  0
  -29.8944  -20.5569   19.8407 O   0  0  0  0  0  0  0  0  0  1  0  0
  -16.8212  -21.3985   20.1889 F   0  0  0  0  0  0  0  0  0  0  0  0
  -16.6180  -25.9861   19.0408 F   0  0  0  0  0  0  0  0  0  0  0  0
  1  2  1  0  0  0  0
  1  5  2  0  0  0  0
  2  6  2  0  0  0  0
  3  8  2  0  0  0  0
  3 18  1  0  0  0  0
  4  9  1  0  0  0  0
  4 18  2  0  0  0  0
  5 20  1  0  0  0  0
  6 22  1  0  0  0  0
  7 10  2  0  0  0  0
  7 21  1  0  0  0  0
  8 27  1  0  0  0  0
  9 27  2  0  0  0  0
 10 28  1  0  0  0  0
 11 12  2  0  0  0  0
 11 29  1  0  0  0  0
 12 30  1  0  0  0  0
 13 23  1  0  0  0  0
 13 28  2  0  0  0  0
 14 24  2  0  0  0  0
 14 25  1  0  0  0  0
 15 24  1  0  0  0  0
 15 26  2  0  0  0  0
 16 25  2  0  0  0  0
 16 26  1  0  0  0  0
 17 30  2  0  0  0  0
 17 31  1  0  0  0  0
 18 32  1  0  0  0  0
 19 32  1  0  0  0  0
 19 33  2  0  0  0  0
 19 36  1  0  0  0  0
 20 22  2  0  0  0  0
 20 41  1  0  0  0  0
 21 23  2  0  0  0  0
 21 42  1  0  0  0  0
 22 53  1  0  0  0  0
 23 43  1  0  0  0  0
 24 57  1  0  0  0  0
 25 63  1  0  0  0  0
 26 73  1  0  0  0  0
 27 83  1  0  0  0  0
 28 84  1  0  0  0  0
 29 31  2  0  0  0  0
 29 83  1  0  0  0  0
 30 85  1  0  0  0  0
 31 86  1  0  0  0  0
 32 67  2  0  0  0  0
 33 68  1  0  0  0  0
 33 71  1  0  0  0  0
 34 35  2  0  0  0  0
 34 44  1  0  0  0  0
 34 76  1  0  0  0  0
 36 72  1  0  0  0  0
 36 78  2  0  0  0  0
 37 54  1  0  0  0  0
 37 74  1  0  0  0  0
 37 79  2  0  0  0  0
 38 64  1  0  0  0  0
 38 69  1  0  0  0  0
 38 80  2  0  0  0  0
 39 65  1  0  0  0  0
 39 75  1  0  0  0  0
 39 81  2  0  0  0  0
 40 70  1  0  0  0  0
 40 73  1  0  0  0  0
 40 82  2  0  0  0  0
 41 45  1  0  0  0  0
 42 54  1  0  0  0  0
 43 69  1  0  0  0  0
 44 46  1  0  0  0  0
 45 48  1  0  0  0  0
 46 56  1  0  0  0  0
 47 49  1  0  0  0  0
 47 50  1  0  0  0  0
 48 53  1  0  0  0  0
 49 55  1  0  0  0  0
 50 70  1  0  0  0  0
 51 55  1  0  0  0  0
 51 70  1  0  0  0  0
 52 56  1  0  0  0  0
 52 76  1  0  0  0  0
 53 74  1  0  0  0  0
 54 69  1  0  0  0  0
 55 68  1  0  0  0  0
 56 84  1  0  0  0  0
 58 65  1  0  0  0  0
 59 66  1  0  0  0  0
 60 66  1  0  0  0  0
 61 66  1  0  0  0  0
 62 77  1  0  0  0  0
 63 76  1  0  0  0  0
 64 66  1  0  0  0  0
 64 75  1  0  0  0  0
 65 77  1  0  0  0  0
 67 68  1  0  0  0  0
M  CHG  2  76   1  77   1
M  ISO  4  40 100  56 101  73 100  84 101
M  END
> <Batch ID>
0049

> <Smiles>
C=C1CC[101CH:1]([101O:1]c2ccc3c(c2)CN(C(=O)C(NC(=O)C(C)NC)C(C)(C)C)C(C(=O)NC2CCCc4ccccc42)C3)CN1Cc1cc(C)cc([100NH:0][100C:0](=O)N2CCCC(n3nc(-c4ccc(Oc5ccc(F)cc5F)cc4)c(C(N)=O)c3N)C2)c1

> <Shape>
0.242

> <Color>
0.074

> <Negative vol penalty>
0.000

$$$$

  -OEChem-04042322323D

 84 92  0     1  0  0  0  0  0999 V2000
  -28.6527  -30.4231   24.4864 C   0  0  0  0  0  0  0  0  0  0  0  0
  -28.8737  -29.0506   24.5402 C   0  0  0  0  0  0  0  0  0  0  0  0
  -28.6884  -23.6379   21.5359 C   0  0  0  0  0  0  0  0  0  0  0  0
  -29.7714  -23.3881   19.3907 C   0  0  0  0  0  0  0  0  0  0  0  0
  -27.3926  -30.9374   24.7891 C   0  0  0  0  0  0  0  0  0  0  0  0
  -27.8350  -28.1917   24.8977 C   0  0  0  0  0  0  0  0  0  0  0  0
  -25.3367  -21.6060   23.5927 C   0  0  0  0  0  0  0  0  0  0  0  0
  -28.4163  -24.9742   21.2429 C   0  0  0  0  0  0  0  0  0  0  0  0
  -29.4992  -24.7244   19.0977 C   0  0  0  0  0  0  0  0  0  0  0  0
  -24.9405  -20.4513   24.2661 C   0  0  0  0  0  0  0  0  0  0  0  0
  -27.1185  -28.3536   20.9108 C   0  0  0  0  0  0  0  0  0  0  0  0
  -25.8393  -28.8321   21.1940 C   0  0  0  0  0  0  0  0  0  0  0  0
  -22.2150  -14.5955   21.7445 C   0  0  0  0  0  0  0  0  0  0  0  0
  -22.7844  -21.4463   24.6911 C   0  0  0  0  0  0  0  0  0  0  0  0
  -24.1022  -14.5645   20.2363 C   0  0  0  0  0  0  0  0  0  0  0  0
  -24.8939  -27.1948   19.6899 C   0  0  0  0  0  0  0  0  0  0  0  0
  -29.3660  -22.8448   20.6098 C   0  0  0  0  0  0  0  0  0  0  0  0
  -22.6199  -15.8406   22.2255 C   0  0  0  0  0  0  0  0  0  0  0  0
  -30.4107  -20.9681   21.9861 C   0  0  0  0  0  0  0  0  0  0  0  0
  -26.3353  -30.0837   25.1411 C   0  0  0  0  0  0  0  0  0  0  0  0
  -24.4621  -22.6955   23.4727 C   0  0  0  0  0  0  0  0  0  0  0  0
  -26.5599  -28.6953   25.2066 C   0  0  0  0  0  0  0  0  0  0  0  0
  -23.1711  -22.6127   24.0134 C   0  0  0  0  0  0  0  0  0  0  0  0
  -23.7659  -16.4477   21.7119 C   0  0  0  0  0  0  0  0  0  0  0  0
  -24.5071  -15.8096   20.7173 C   0  0  0  0  0  0  0  0  0  0  0  0
  -28.8217  -25.5175   20.0238 C   0  0  0  0  0  0  0  0  0  0  0  0
  -23.6652  -20.3724   24.8179 C   0  0  0  0  0  0  0  0  0  0  0  0
  -27.2855  -27.2957   20.0171 C   0  0  0  0  0  0  0  0  0  0  0  0
  -24.7270  -28.2527   20.5836 C   0  0  0  0  0  0  0  0  0  0  0  0
  -22.9562  -13.9574   20.7499 C   0  0  0  0  0  0  0  0  0  0  0  0
  -26.1731  -26.7163   19.4066 C   0  0  0  0  0  0  0  0  0  0  0  0
  -29.6479  -21.4645   20.9120 C   0  0  0  0  0  0  0  0  0  0  0  0
  -30.3772  -19.6040   21.8295 C   0  0  0  0  0  0  0  0  0  0  0  0
  -21.8193  -16.4960   23.2791 C   0  0  0  0  0  0  0  0  0  0  0  0
  -31.0888  -21.6767   23.0319 C   0  0  0  0  0  0  0  0  0  0  0  0
  -24.5031  -25.7223   24.4425 C   0  0  0  0  0  0  0  0  0  0  0  0
  -21.7919  -25.9184   22.6725 C   0  0  0  0  0  0  0  0  0  0  0  0
  -19.1208  -24.3170   21.2770 C   0  0  0  0  0  0  0  0  0  0  0  0
  -26.5092  -15.8918   19.1906 C   0  0  0  0  0  0  0  0  0  0  0  0
  -25.0033  -30.6899   25.5057 C   0  0  0  0  0  0  0  0  0  0  0  0
  -24.8954  -23.9236   22.7201 C   0  0  0  0  0  0  0  0  0  0  0  0
  -22.1872  -23.7468   23.8944 C   0  0  0  0  0  0  0  0  0  0  0  0
  -23.8566  -29.6823   25.5114 C   0  0  0  0  0  0  0  0  0  0  0  0
  -29.9761  -16.2310   18.4537 C   0  0  0  0  0  0  0  0  0  0  0  0
  -24.2644  -28.4137   26.2540 C   0  0  0  0  0  0  0  0  0  0  0  0
  -30.3562  -17.5635   19.1034 C   0  0  0  0  0  0  0  0  0  0  0  0
  -28.5707  -16.2719   17.8561 C   0  0  0  0  0  0  0  0  0  0  0  0
  -27.8965  -18.0446   19.4284 C   0  0  0  0  0  0  0  0  0  0  0  0
  -25.4518  -27.7294   25.5661 C   0  0  1  0  0  0  0  0  0  0  0  0
  -24.1034  -25.1699   23.1036 C   0  0  1  0  0  0  0  0  0  0  0  0
  -29.2788  -18.0314   20.1013 C   0  0  2  0  0  0  0  0  0  0  0  0
  -24.1974  -17.7836   22.2311 C   0  0  0  0  0  0  0  0  0  0  0  0
  -17.0541  -24.7483   19.9203 C   0  0  0  0  0  0  0  0  0  0  0  0
  -20.4101  -27.0562   25.1435 C   0  0  0  0  0  0  0  0  0  0  0  0
  -18.2103  -26.5753   24.0492 C   0  0  0  0  0  0  0  0  0  0  0  0
  -19.8004  -28.1829   22.9957 C   0  0  0  0  0  0  0  0  0  0  0  0
  -20.0612  -22.5752   19.0769 C   0  0  0  0  0  0  0  0  0  0  0  0
  -21.7223  -17.4207   25.5665 C   0  0  0  0  0  0  0  0  0  0  0  0
  -21.8870  -18.9218   25.4422 C   0  0  0  0  0  0  0  0  0  1  0  0
  -20.3214  -25.7095   22.9425 C   0  0  1  0  0  0  0  0  0  0  0  0
  -18.5281  -24.3758   19.8807 C   0  0  2  0  0  0  0  0  0  0  0  0
  -19.7045  -26.8602   23.7868 C   0  0  0  0  0  0  0  0  0  0  0  0
  -29.1653  -20.4947   20.1307 N   0  0  0  0  0  0  0  0  0  0  0  0
  -29.6260  -19.3752   20.7144 N   0  0  0  0  0  0  0  0  0  0  0  0
  -22.6600  -24.9287   23.1548 N   0  0  0  0  0  0  0  0  0  0  0  0
  -27.6029  -16.7197   18.8599 N   0  0  0  0  0  0  0  0  0  0  0  0
  -30.9174  -18.5899   22.5382 N   0  0  0  0  0  0  0  0  0  0  0  0
  -20.5436  -16.7782   23.0146 N   0  0  0  0  0  0  0  0  0  0  0  0
  -32.4202  -22.0620   22.8237 N   0  0  0  0  0  0  0  0  0  0  0  0
  -25.6742  -16.4079   20.1811 N   0  0  0  0  0  0  0  0  0  0  0  0
  -25.0087  -27.0074   24.3928 N   0  0  0  0  0  0  0  0  0  0  0  0
  -19.6904  -25.5188   21.6410 N   0  0  0  0  0  0  0  0  0  0  0  0
  -22.4119  -16.7768   24.4458 N   0  3  0  0  0  0  0  0  0  0  0  0
  -18.6607  -23.0538   19.2056 N   0  3  0  0  0  0  0  0  0  0  0  0
  -30.5358  -21.9455   24.1253 O   0  0  0  0  0  0  0  0  0  0  0  0
  -24.3618  -25.0342   25.4466 O   0  0  0  0  0  0  0  0  0  0  0  0
  -22.1562  -26.9192   22.0501 O   0  0  0  0  0  0  0  0  0  0  0  0
  -19.0790  -23.3072   21.9764 O   0  0  0  0  0  0  0  0  0  0  0  0
  -26.3420  -14.7930   18.6553 O   0  0  0  0  0  0  0  0  0  0  0  0
  -28.5561  -26.8213   19.7375 O   0  0  0  0  0  0  0  0  0  0  0  0
  -23.2761  -19.2468   25.4763 O   0  0  0  0  0  0  0  0  0  1  0  0
  -23.4985  -28.7113   20.8568 F   0  0  0  0  0  0  0  0  0  0  0  0
  -22.5670  -12.7620   20.2874 F   0  0  0  0  0  0  0  0  0  0  0  0
  -26.3271  -25.6990   18.5481 F   0  0  0  0  0  0  0  0  0  0  0  0
  1  2  1  0  0  0  0
  1  5  2  0  0  0  0
  2  6  2  0  0  0  0
  3  8  2  0  0  0  0
  3 17  1  0  0  0  0
  4  9  1  0  0  0  0
  4 17  2  0  0  0  0
  5 20  1  0  0  0  0
  6 22  1  0  0  0  0
  7 10  2  0  0  0  0
  7 21  1  0  0  0  0
  8 26  1  0  0  0  0
  9 26  2  0  0  0  0
 10 27  1  0  0  0  0
 11 12  2  0  0  0  0
 11 28  1  0  0  0  0
 12 29  1  0  0  0  0
 13 18  1  0  0  0  0
 13 30  2  0  0  0  0
 14 23  1  0  0  0  0
 14 27  2  0  0  0  0
 15 25  2  0  0  0  0
 15 30  1  0  0  0  0
 16 29  2  0  0  0  0
 16 31  1  0  0  0  0
 17 32  1  0  0  0  0
 18 24  2  0  0  0  0
 18 34  1  0  0  0  0
 19 32  1  0  0  0  0
 19 33  2  0  0  0  0
 19 35  1  0  0  0  0
 20 22  2  0  0  0  0
 20 40  1  0  0  0  0
 21 23  2  0  0  0  0
 21 41  1  0  0  0  0
 22 49  1  0  0  0  0
 23 42  1  0  0  0  0
 24 25  1  0  0  0  0
 24 52  1  0  0  0  0
 25 70  1  0  0  0  0
 26 80  1  0  0  0  0
 27 81  1  0  0  0  0
 28 31  2  0  0  0  0
 28 80  1  0  0  0  0
 29 82  1  0  0  0  0
 30 83  1  0  0  0  0
 31 84  1  0  0  0  0
 32 63  2  0  0  0  0
 33 64  1  0  0  0  0
 33 67  1  0  0  0  0
 34 68  1  0  0  0  0
 34 73  2  0  0  0  0
 35 69  1  0  0  0  0
 35 75  2  0  0  0  0
 36 50  1  0  0  0  0
 36 71  1  0  0  0  0
 36 76  2  0  0  0  0
 37 60  1  0  0  0  0
 37 65  1  0  0  0  0
 37 77  2  0  0  0  0
 38 61  1  0  0  0  0
 38 72  1  0  0  0  0
 38 78  2  0  0  0  0
 39 66  1  0  0  0  0
 39 70  1  0  0  0  0
 39 79  2  0  0  0  0
 40 43  1  0  0  0  0
 41 50  1  0  0  0  0
 42 65  1  0  0  0  0
 43 45  1  0  0  0  0
 44 46  1  0  0  0  0
 44 47  1  0  0  0  0
 45 49  1  0  0  0  0
 46 51  1  0  0  0  0
 47 66  1  0  0  0  0
 48 51  1  0  0  0  0
 48 66  1  0  0  0  0
 49 71  1  0  0  0  0
 50 65  1  0  0  0  0
 51 64  1  0  0  0  0
 53 61  1  0  0  0  0
 54 62  1  0  0  0  0
 55 62  1  0  0  0  0
 56 62  1  0  0  0  0
 57 74  1  0  0  0  0
 58 59  1  0  0  0  0
 58 73  1  0  0  0  0
 59 81  1  0  0  0  0
 60 62  1  0  0  0  0
 60 72  1  0  0  0  0
 61 74  1  0  0  0  0
 63 64  1  0  0  0  0
M  CHG  2  73   1  74   1
M  ISO  4  39 100  59 101  70 100  81 101
M  END
> <Batch ID>
0049

> <Smiles>
CNC(C)C(=O)NC(C(=O)N1Cc2cc([101O:1][101CH2:1]CNC(=N)c3cc(F)cc([100NH:0][100C:0](=O)N4CCCC(n5nc(-c6ccc(Oc7ccc(F)cc7F)cc6)c(C(N)=O)c5N)C4)c3C)ccc2CC1C(=O)NC1CCCc2ccccc21)C(C)(C)C

> <Shape>
0.201

> <Color>
0.052

> <Negative vol penalty>
0.000

$$$$

  -OEChem-04042322323D

 85 93  0     1  0  0  0  0  0999 V2000
  -27.0179  -22.6293   18.0633 C   0  0  0  0  0  0  0  0  0  0  0  0
  -26.6196  -23.1029   19.3092 C   0  0  0  0  0  0  0  0  0  0  0  0
  -28.0232  -14.8371   21.4222 C   0  0  0  0  0  0  0  0  0  0  0  0
  -26.0469  -15.5046   20.2033 C   0  0  0  0  0  0  0  0  0  0  0  0
  -28.3483  -22.7526   17.6646 C   0  0  0  0  0  0  0  0  0  0  0  0
  -27.5517  -23.6991   20.1578 C   0  0  0  0  0  0  0  0  0  0  0  0
  -26.4034  -28.1798   18.3941 C   0  0  0  0  0  0  0  0  0  0  0  0
  -27.6557  -13.4986   21.2851 C   0  0  0  0  0  0  0  0  0  0  0  0
  -25.6794  -14.1660   20.0661 C   0  0  0  0  0  0  0  0  0  0  0  0
  -25.0592  -28.0062   18.0671 C   0  0  0  0  0  0  0  0  0  0  0  0
  -24.0342  -10.9452   19.7061 C   0  0  0  0  0  0  0  0  0  0  0  0
  -22.7021  -10.6104   19.9489 C   0  0  0  0  0  0  0  0  0  0  0  0
  -20.5388  -22.1094   19.7836 C   0  0  0  0  0  0  0  0  0  0  0  0
  -24.4967  -27.9918   20.4128 C   0  0  0  0  0  0  0  0  0  0  0  0
  -21.1808  -21.5660   22.0485 C   0  0  0  0  0  0  0  0  0  0  0  0
  -22.9074  -11.4341   22.2109 C   0  0  0  0  0  0  0  0  0  0  0  0
  -27.2187  -15.8401   20.8814 C   0  0  0  0  0  0  0  0  0  0  0  0
  -21.3948  -23.2105   19.8052 C   0  0  0  0  0  0  0  0  0  0  0  0
  -28.3950  -17.9805   20.1446 C   0  0  0  0  0  0  0  0  0  0  0  0
  -29.2952  -23.3593   18.5048 C   0  0  0  0  0  0  0  0  0  0  0  0
  -26.8063  -28.2499   19.7355 C   0  0  0  0  0  0  0  0  0  0  0  0
  -28.8962  -23.8295   19.7706 C   0  0  0  0  0  0  0  0  0  0  0  0
  -25.8462  -28.1688   20.7542 C   0  0  0  0  0  0  0  0  0  0  0  0
  -22.0368  -22.6671   22.0700 C   0  0  0  0  0  0  0  0  0  0  0  0
  -22.1438  -23.4893   20.9483 C   0  0  0  0  0  0  0  0  0  0  0  0
  -26.4839  -13.1630   20.6070 C   0  0  0  0  0  0  0  0  0  0  0  0
  -24.1060  -27.9093   19.0766 C   0  0  0  0  0  0  0  0  0  0  0  0
  -24.8030  -11.5244   20.7157 C   0  0  0  0  0  0  0  0  0  0  0  0
  -22.1387  -10.8549   21.2013 C   0  0  0  0  0  0  0  0  0  0  0  0
  -24.2396  -11.7688   21.9681 C   0  0  0  0  0  0  0  0  0  0  0  0
  -20.4318  -21.2871   20.9053 C   0  0  0  0  0  0  0  0  0  0  0  0
  -27.5975  -17.2231   21.0232 C   0  0  0  0  0  0  0  0  0  0  0  0
  -28.4572  -19.2246   20.7233 C   0  0  0  0  0  0  0  0  0  0  0  0
  -21.4885  -24.0675   18.5952 C   0  0  0  0  0  0  0  0  0  0  0  0
  -29.0233  -17.5941   18.9151 C   0  0  0  0  0  0  0  0  0  0  0  0
  -28.7031  -26.5111   21.6016 C   0  0  0  0  0  0  0  0  0  0  0  0
  -28.1333  -28.8880   23.7342 C   0  0  0  0  0  0  0  0  0  0  0  0
  -26.0884  -31.4112   24.7823 C   0  0  0  0  0  0  0  0  0  0  0  0
  -24.8504  -22.1475   24.5046 C   0  0  0  0  0  0  0  0  0  0  0  0
  -30.7315  -23.4275   18.0498 C   0  0  0  0  0  0  0  0  0  0  0  0
  -28.2568  -28.4641   20.0710 C   0  0  0  0  0  0  0  0  0  0  0  0
  -26.2244  -28.2584   22.2093 C   0  0  0  0  0  0  0  0  0  0  0  0
  -31.5794  -24.4091   18.8545 C   0  0  0  0  0  0  0  0  0  0  0  0
  -28.2933  -21.3816   24.9907 C   0  0  0  0  0  0  0  0  0  0  0  0
  -31.3367  -24.2238   20.3490 C   0  0  0  0  0  0  0  0  0  0  0  0
  -28.5773  -20.2973   23.9498 C   0  0  0  0  0  0  0  0  0  0  0  0
  -26.8912  -21.2447   25.5800 C   0  0  0  0  0  0  0  0  0  0  0  0
  -26.0874  -20.1118   23.5443 C   0  0  0  0  0  0  0  0  0  0  0  0
  -29.8728  -24.5045   20.7091 C   0  0  1  0  0  0  0  0  0  0  0  0
  -28.6178  -28.0064   21.4808 C   0  0  1  0  0  0  0  0  0  0  0  0
  -27.4692  -20.2420   22.8810 C   0  0  2  0  0  0  0  0  0  0  0  0
  -23.0625  -24.6701   20.9748 C   0  0  0  0  0  0  0  0  0  0  0  0
  -25.8680  -33.1515   26.5769 C   0  0  0  0  0  0  0  0  0  0  0  0
  -27.2622  -26.7344   25.7123 C   0  0  0  0  0  0  0  0  0  0  0  0
  -26.1832  -28.5293   27.0842 C   0  0  0  0  0  0  0  0  0  0  0  0
  -28.6486  -28.5637   26.7053 C   0  0  0  0  0  0  0  0  0  0  0  0
  -26.1657  -33.6188   22.8127 C   0  0  0  0  0  0  0  0  0  0  0  0
  -22.8280  -22.9438   23.3067 C   0  0  0  0  0  0  0  0  0  0  0  0
  -21.1543  -26.3499   17.6814 C   0  0  0  0  0  0  0  0  0  0  0  0
  -22.5022  -27.0367   17.5527 C   0  0  0  0  0  0  0  0  0  1  0  0
  -27.0932  -29.1431   24.7982 C   0  0  1  0  0  0  0  0  0  0  0  0
  -26.3820  -32.8470   25.1783 C   0  0  2  0  0  0  0  0  0  0  0  0
  -27.2896  -28.2389   26.0477 C   0  0  0  0  0  0  0  0  0  0  0  0
  -27.1829  -17.9271   22.0799 N   0  0  0  0  0  0  0  0  0  0  0  0
  -27.7221  -19.1399   21.8690 N   0  0  0  0  0  0  0  0  0  0  0  0
  -27.6559  -28.4618   22.4867 N   0  0  0  0  0  0  0  0  0  0  0  0
  -25.8870  -21.1997   24.5144 N   0  0  0  0  0  0  0  0  0  0  0  0
  -29.0685  -20.3717   20.3588 N   0  0  0  0  0  0  0  0  0  0  0  0
  -28.8571  -16.2772   18.4649 N   0  0  0  0  0  0  0  0  0  0  0  0
  -21.1385  -25.4013   18.7633 N   0  0  0  0  0  0  0  0  0  0  0  0
  -29.6280  -25.9302   20.7551 N   0  0  0  0  0  0  0  0  0  0  0  0
  -27.1417  -30.5733   25.0819 N   0  0  0  0  0  0  0  0  0  0  0  0
  -23.9449  -22.0378   23.4563 N   0  0  0  0  0  0  0  0  0  0  0  0
  -25.7340  -33.7904   24.2238 N   0  3  0  0  0  0  0  0  0  0  0  0
  -21.8406  -23.5661   17.5307 O   0  0  0  0  0  0  0  0  0  0  0  0
  -29.7252  -18.3883   18.2442 O   0  0  0  0  0  0  0  0  0  0  0  0
  -27.9841  -25.9278   22.4044 O   0  0  0  0  0  0  0  0  0  0  0  0
  -29.3249  -29.0675   23.9979 O   0  0  0  0  0  0  0  0  0  0  0  0
  -25.0291  -31.0668   24.2629 O   0  0  0  0  0  0  0  0  0  0  0  0
  -24.7430  -23.0297   25.3632 O   0  0  0  0  0  0  0  0  0  0  0  0
  -26.1251  -11.8569   20.4728 O   0  0  0  0  0  0  0  0  0  0  0  0
  -22.7934  -27.7392   18.7602 O   0  0  0  0  0  0  0  0  0  1  0  0
  -20.8590  -10.5347   21.4339 F   0  0  0  0  0  0  0  0  0  0  0  0
  -24.9728  -12.3261   22.9415 F   0  0  0  0  0  0  0  0  0  0  0  0
  -19.3760  -19.9278   20.8787 Cl  0  0  0  0  0  0  0  0  0  0  0  0
  1  2  1  0  0  0  0
  1  5  2  0  0  0  0
  2  6  2  0  0  0  0
  3  8  2  0  0  0  0
  3 17  1  0  0  0  0
  4  9  1  0  0  0  0
  4 17  2  0  0  0  0
  5 20  1  0  0  0  0
  6 22  1  0  0  0  0
  7 10  2  0  0  0  0
  7 21  1  0  0  0  0
  8 26  1  0  0  0  0
  9 26  2  0  0  0  0
 10 27  1  0  0  0  0
 11 12  2  0  0  0  0
 11 28  1  0  0  0  0
 12 29  1  0  0  0  0
 13 18  1  0  0  0  0
 13 31  2  0  0  0  0
 14 23  1  0  0  0  0
 14 27  2  0  0  0  0
 15 24  2  0  0  0  0
 15 31  1  0  0  0  0
 16 29  2  0  0  0  0
 16 30  1  0  0  0  0
 17 32  1  0  0  0  0
 18 25  2  0  0  0  0
 18 34  1  0  0  0  0
 19 32  1  0  0  0  0
 19 33  2  0  0  0  0
 19 35  1  0  0  0  0
 20 22  2  0  0  0  0
 20 40  1  0  0  0  0
 21 23  2  0  0  0  0
 21 41  1  0  0  0  0
 22 49  1  0  0  0  0
 23 42  1  0  0  0  0
 24 25  1  0  0  0  0
 24 58  1  0  0  0  0
 25 52  1  0  0  0  0
 26 81  1  0  0  0  0
 27 82  1  0  0  0  0
 28 30  2  0  0  0  0
 28 81  1  0  0  0  0
 29 83  1  0  0  0  0
 30 84  1  0  0  0  0
 31 85  1  0  0  0  0
 32 64  2  0  0  0  0
 33 65  1  0  0  0  0
 33 68  1  0  0  0  0
 34 70  1  0  0  0  0
 34 75  2  0  0  0  0
 35 69  1  0  0  0  0
 35 76  2  0  0  0  0
 36 50  1  0  0  0  0
 36 71  1  0  0  0  0
 36 77  2  0  0  0  0
 37 61  1  0  0  0  0
 37 66  1  0  0  0  0
 37 78  2  0  0  0  0
 38 62  1  0  0  0  0
 38 72  1  0  0  0  0
 38 79  2  0  0  0  0
 39 67  1  0  0  0  0
 39 73  1  0  0  0  0
 39 80  2  0  0  0  0
 40 43  1  0  0  0  0
 41 50  1  0  0  0  0
 42 66  1  0  0  0  0
 43 45  1  0  0  0  0
 44 46  1  0  0  0  0
 44 47  1  0  0  0  0
 45 49  1  0  0  0  0
 46 51  1  0  0  0  0
 47 67  1  0  0  0  0
 48 51  1  0  0  0  0
 48 67  1  0  0  0  0
 49 71  1  0  0  0  0
 50 66  1  0  0  0  0
 51 65  1  0  0  0  0
 53 62  1  0  0  0  0
 54 63  1  0  0  0  0
 55 63  1  0  0  0  0
 56 63  1  0  0  0  0
 57 74  1  0  0  0  0
 58 73  1  0  0  0  0
 59 60  1  0  0  0  0
 59 70  1  0  0  0  0
 60 82  1  0  0  0  0
 61 63  1  0  0  0  0
 61 72  1  0  0  0  0
 62 74  1  0  0  0  0
 64 65  1  0  0  0  0
M  CHG  1  74   1
M  ISO  4  39 100  60 101  73 100  82 101
M  END
> <Batch ID>
0049

> <Smiles>
CNC(C)C(=O)NC(C(=O)N1Cc2cc([101O:1][101CH2:1]CNC(=O)c3cc(Cl)cc(C[100NH:0][100C:0](=O)N4CCCC(n5nc(-c6ccc(Oc7ccc(F)cc7F)cc6)c(C(N)=O)c5N)C4)c3C)ccc2CC1C(=O)NC1CCCc2ccccc21)C(C)(C)C

> <Shape>
0.225

> <Color>
0.061

> <Negative vol penalty>
0.000

$$$$

  -OEChem-04042322323D

 87 96  0     1  0  0  0  0  0999 V2000
  -32.0993  -29.7700   21.3617 C   0  0  0  0  0  0  0  0  0  0  0  0
  -31.8152  -28.6366   22.1167 C   0  0  0  0  0  0  0  0  0  0  0  0
  -23.1943   -9.8165   19.9308 C   0  0  0  0  0  0  0  0  0  0  0  0
  -23.5727   -9.9979   22.3101 C   0  0  0  0  0  0  0  0  0  0  0  0
  -32.2409  -29.6673   19.9785 C   0  0  0  0  0  0  0  0  0  0  0  0
  -31.6714  -27.3999   21.4888 C   0  0  0  0  0  0  0  0  0  0  0  0
  -34.1058  -23.6884   23.9266 C   0  0  0  0  0  0  0  0  0  0  0  0
  -32.6013  -15.2398   24.8037 C   0  0  0  0  0  0  0  0  0  0  0  0
  -32.1114  -14.4629   23.7540 C   0  0  0  0  0  0  0  0  0  0  0  0
  -22.4308   -8.6681   20.1397 C   0  0  0  0  0  0  0  0  0  0  0  0
  -22.8091   -8.8494   22.5191 C   0  0  0  0  0  0  0  0  0  0  0  0
  -33.4971  -23.1708   25.0691 C   0  0  0  0  0  0  0  0  0  0  0  0
  -21.2593   -5.7619   23.6484 C   0  0  0  0  0  0  0  0  0  0  0  0
  -21.7581   -4.8033   24.5302 C   0  0  0  0  0  0  0  0  0  0  0  0
  -32.6918  -21.2954   23.7833 C   0  0  0  0  0  0  0  0  0  0  0  0
  -30.9833  -14.2438   26.2960 C   0  0  0  0  0  0  0  0  0  0  0  0
  -23.7171   -4.5439   23.1401 C   0  0  0  0  0  0  0  0  0  0  0  0
  -23.7653  -10.4814   21.0160 C   0  0  0  0  0  0  0  0  0  0  0  0
  -24.0980  -12.9989   20.7721 C   0  0  0  0  0  0  0  0  0  0  0  0
  -32.1083  -28.4271   19.3343 C   0  0  0  0  0  0  0  0  0  0  0  0
  -34.0027  -23.0177   22.6993 C   0  0  0  0  0  0  0  0  0  0  0  0
  -31.8100  -27.2808   20.0954 C   0  0  0  0  0  0  0  0  0  0  0  0
  -33.3022  -21.8052   22.6272 C   0  0  0  0  0  0  0  0  0  0  0  0
  -32.0373  -15.1302   26.0748 C   0  0  0  0  0  0  0  0  0  0  0  0
  -30.4933  -13.4669   25.2463 C   0  0  0  0  0  0  0  0  0  0  0  0
  -31.0574  -13.5764   23.9752 C   0  0  0  0  0  0  0  0  0  0  0  0
  -22.2382   -8.1845   21.4339 C   0  0  0  0  0  0  0  0  0  0  0  0
  -32.7876  -21.9757   24.9970 C   0  0  0  0  0  0  0  0  0  0  0  0
  -21.9893   -6.1115   22.5123 C   0  0  0  0  0  0  0  0  0  0  0  0
  -22.9870   -4.1943   24.2762 C   0  0  0  0  0  0  0  0  0  0  0  0
  -23.2182   -5.5025   22.2582 C   0  0  0  0  0  0  0  0  0  0  0  0
  -24.5546  -11.6675   20.8008 C   0  0  0  0  0  0  0  0  0  0  0  0
  -25.2273  -13.7442   20.5365 C   0  0  0  0  0  0  0  0  0  0  0  0
  -33.5185  -19.5304   26.2540 C   0  0  0  0  0  0  0  0  0  0  0  0
  -31.1634  -19.4005   26.7591 C   0  0  0  0  0  0  0  0  0  0  0  0
  -32.3352  -20.1337   26.3656 C   0  0  0  0  0  0  0  0  0  1  0  0
  -31.1949  -18.0779   27.0334 C   0  0  0  0  0  0  0  0  0  0  0  0
  -33.6305  -18.0770   26.5399 C   0  0  0  0  0  0  0  0  0  0  0  0
  -22.7716  -13.5156   20.9432 C   0  0  0  0  0  0  0  0  0  0  0  0
  -32.7655  -23.7195   19.8567 C   0  0  0  0  0  0  0  0  0  0  0  0
  -34.1253  -20.9008   19.0032 C   0  0  0  0  0  0  0  0  0  0  0  0
  -35.2910  -17.8393   19.9599 C   0  0  0  0  0  0  0  0  0  0  0  0
  -31.0343  -12.7974   21.5796 C   0  0  0  0  0  0  0  0  0  0  0  0
  -32.2232  -28.3737   17.8315 C   0  0  0  0  0  0  0  0  0  0  0  0
  -34.6875  -23.5754   21.4818 C   0  0  0  0  0  0  0  0  0  0  0  0
  -33.1790  -21.0360   21.3381 C   0  0  0  0  0  0  0  0  0  0  0  0
  -32.4263  -26.9625   17.2859 C   0  0  0  0  0  0  0  0  0  0  0  0
  -29.5195  -13.4753   18.4296 C   0  0  0  0  0  0  0  0  0  0  0  0
  -31.4470  -25.9919   17.9384 C   0  0  0  0  0  0  0  0  0  0  0  0
  -28.0321  -13.2157   18.6792 C   0  0  0  0  0  0  0  0  0  0  0  0
  -30.4031  -12.4924   19.1956 C   0  0  0  0  0  0  0  0  0  0  0  0
  -28.6445  -12.1468   20.8859 C   0  0  0  0  0  0  0  0  0  0  0  0
  -31.6712  -25.9174   19.4536 C   0  0  1  0  0  0  0  0  0  0  0  0
  -34.0841  -23.0727   20.1740 C   0  0  1  0  0  0  0  0  0  0  0  0
  -27.7161  -13.1531   20.1864 C   0  0  2  0  0  0  0  0  0  0  0  0
  -29.3613  -12.5278   25.5114 C   0  0  0  0  0  0  0  0  0  0  0  0
  -36.3082  -15.7410   19.0327 C   0  0  0  0  0  0  0  0  0  0  0  0
  -31.3933  -20.0462   17.9466 C   0  0  0  0  0  0  0  0  0  0  0  0
  -32.2201  -17.6832   17.9207 C   0  0  0  0  0  0  0  0  0  0  0  0
  -33.3225  -19.4041   16.4905 C   0  0  0  0  0  0  0  0  0  0  0  0
  -37.7531  -18.1851   21.5655 C   0  0  0  0  0  0  0  0  0  0  0  0
  -32.5632  -15.9683   27.2041 C   0  0  0  0  0  0  0  0  0  0  0  0
  -33.6794  -19.4585   18.9928 C   0  0  1  0  0  0  0  0  0  0  0  0
  -36.5823  -17.1081   19.6398 C   0  0  2  0  0  0  0  0  0  0  0  0
  -32.6543  -19.1633   17.8617 C   0  0  0  0  0  0  0  0  0  0  0  0
  -25.8713  -11.5695   20.5993 N   0  0  0  0  0  0  0  0  0  0  0  0
  -26.2518  -12.8488   20.4418 N   0  0  0  0  0  0  0  0  0  0  0  0
  -32.4473  -17.4099   26.9213 N   0  0  0  0  0  0  0  0  0  0  0  0
  -33.8608  -21.6255   20.1740 N   0  0  0  0  0  0  0  0  0  0  0  0
  -30.0497  -12.4901   20.6168 N   0  0  0  0  0  0  0  0  0  0  0  0
  -25.4341  -15.0715   20.4032 N   0  0  0  0  0  0  0  0  0  0  0  0
  -21.7271  -12.6109   21.1775 N   0  0  0  0  0  0  0  0  0  0  0  0
  -30.5738  -12.7961   22.8959 N   0  0  0  0  0  0  0  0  0  0  0  0
  -32.8244  -25.0962   19.7541 N   0  0  0  0  0  0  0  0  0  0  0  0
  -34.8956  -18.6558   18.9216 N   0  0  0  0  0  0  0  0  0  0  0  0
  -37.3911  -16.9193   20.8772 N   0  3  0  0  0  0  0  0  0  0  0  0
  -30.2282  -17.3441   27.3851 O   0  5  0  0  0  0  0  0  0  0  0  0
  -34.7393  -17.5532   26.4264 O   0  0  0  0  0  0  0  0  0  0  0  0
  -22.5174  -14.7420   20.8736 O   0  0  0  0  0  0  0  0  0  0  0  0
  -31.7687  -23.0210   19.7140 O   0  0  0  0  0  0  0  0  0  0  0  0
  -34.6938  -21.3652   18.0119 O   0  0  0  0  0  0  0  0  0  0  0  0
  -34.6911  -17.6973   21.0231 O   0  0  0  0  0  0  0  0  0  0  0  0
  -32.1936  -13.0702   21.2580 O   0  0  0  0  0  0  0  0  0  0  0  0
  -21.4930   -7.0640   21.6381 O   0  0  0  0  0  0  0  0  0  0  0  0
  -32.1920  -21.4687   26.1106 O   0  0  0  0  0  0  0  0  0  1  0  0
  -23.4667   -3.2749   25.1240 F   0  0  0  0  0  0  0  0  0  0  0  0
  -23.9246   -5.8351   21.1691 F   0  0  0  0  0  0  0  0  0  0  0  0
  1  2  1  0  0  0  0
  1  5  2  0  0  0  0
  2  6  2  0  0  0  0
  3 10  2  0  0  0  0
  3 18  1  0  0  0  0
  4 11  1  0  0  0  0
  4 18  2  0  0  0  0
  5 20  1  0  0  0  0
  6 22  1  0  0  0  0
  7 12  2  0  0  0  0
  7 21  1  0  0  0  0
  8  9  2  0  0  0  0
  8 24  1  0  0  0  0
  9 26  1  0  0  0  0
 10 27  1  0  0  0  0
 11 27  2  0  0  0  0
 12 28  1  0  0  0  0
 13 14  2  0  0  0  0
 13 29  1  0  0  0  0
 14 30  1  0  0  0  0
 15 23  1  0  0  0  0
 15 28  2  0  0  0  0
 16 24  2  0  0  0  0
 16 25  1  0  0  0  0
 17 30  2  0  0  0  0
 17 31  1  0  0  0  0
 18 32  1  0  0  0  0
 19 32  1  0  0  0  0
 19 33  2  0  0  0  0
 19 39  1  0  0  0  0
 20 22  2  0  0  0  0
 20 44  1  0  0  0  0
 21 23  2  0  0  0  0
 21 45  1  0  0  0  0
 22 53  1  0  0  0  0
 23 46  1  0  0  0  0
 24 62  1  0  0  0  0
 25 26  2  0  0  0  0
 25 56  1  0  0  0  0
 26 73  1  0  0  0  0
 27 84  1  0  0  0  0
 28 85  1  0  0  0  0
 29 31  2  0  0  0  0
 29 84  1  0  0  0  0
 30 86  1  0  0  0  0
 31 87  1  0  0  0  0
 32 66  2  0  0  0  0
 33 67  1  0  0  0  0
 33 71  1  0  0  0  0
 34 36  2  0  0  0  0
 34 38  1  0  0  0  0
 35 36  1  0  0  0  0
 35 37  2  0  0  0  0
 36 85  1  0  0  0  0
 37 68  1  0  0  0  0
 37 77  1  0  0  0  0
 38 68  1  0  0  0  0
 38 78  2  0  0  0  0
 39 72  1  0  0  0  0
 39 79  2  0  0  0  0
 40 54  1  0  0  0  0
 40 74  1  0  0  0  0
 40 80  2  0  0  0  0
 41 63  1  0  0  0  0
 41 69  1  0  0  0  0
 41 81  2  0  0  0  0
 42 64  1  0  0  0  0
 42 75  1  0  0  0  0
 42 82  2  0  0  0  0
 43 70  1  0  0  0  0
 43 73  1  0  0  0  0
 43 83  2  0  0  0  0
 44 47  1  0  0  0  0
 45 54  1  0  0  0  0
 46 69  1  0  0  0  0
 47 49  1  0  0  0  0
 48 50  1  0  0  0  0
 48 51  1  0  0  0  0
 49 53  1  0  0  0  0
 50 55  1  0  0  0  0
 51 70  1  0  0  0  0
 52 55  1  0  0  0  0
 52 70  1  0  0  0  0
 53 74  1  0  0  0  0
 54 69  1  0  0  0  0
 55 67  1  0  0  0  0
 57 64  1  0  0  0  0
 58 65  1  0  0  0  0
 59 65  1  0  0  0  0
 60 65  1  0  0  0  0
 61 76  1  0  0  0  0
 62 68  1  0  0  0  0
 63 65  1  0  0  0  0
 63 75  1  0  0  0  0
 64 76  1  0  0  0  0
 66 67  1  0  0  0  0
M  CHG  2  76   1  77  -1
M  ISO  4  36 101  43 100  73 100  85 101
M  END
> <Batch ID>
0049

> <Smiles>
CNC(C)C(=O)NC(C(=O)N1Cc2cc([101O:1][101C:1]3=CC(=O)N(Cc4ccc([100NH:0][100C:0](=O)N5CCCC(n6nc(-c7ccc(Oc8ccc(F)cc8F)cc7)c(C(N)=O)c6N)C5)c(C)c4)C(=O)C3)ccc2CC1C(=O)NC1CCCc2ccccc21)C(C)(C)C

> <Shape>
0.160

> <Color>
0.178

> <Negative vol penalty>
0.000

$$$$

  -OEChem-04042322323D

 90 99  0     1  0  0  0  0  0999 V2000
  -20.2587  -23.1334   21.5762 C   0  0  0  0  0  0  0  0  0  0  0  0
  -21.5780  -23.2265   22.0075 C   0  0  0  0  0  0  0  0  0  0  0  0
  -23.0392  -10.1402   21.8976 C   0  0  0  0  0  0  0  0  0  0  0  0
  -24.6216  -10.5678   23.6725 C   0  0  0  0  0  0  0  0  0  0  0  0
  -19.6509  -24.2236   20.9550 C   0  0  0  0  0  0  0  0  0  0  0  0
  -22.2908  -24.4098   21.8169 C   0  0  0  0  0  0  0  0  0  0  0  0
  -24.9091  -25.7844   25.9278 C   0  0  0  0  0  0  0  0  0  0  0  0
  -22.4545   -9.1307   22.6621 C   0  0  0  0  0  0  0  0  0  0  0  0
  -24.0368   -9.5583   24.4370 C   0  0  0  0  0  0  0  0  0  0  0  0
  -26.1052  -25.1121   26.1751 C   0  0  0  0  0  0  0  0  0  0  0  0
  -23.1120   -5.9125   23.4591 C   0  0  0  0  0  0  0  0  0  0  0  0
  -22.8187   -4.7063   22.8230 C   0  0  0  0  0  0  0  0  0  0  0  0
  -27.3327  -26.9608   25.2290 C   0  0  0  0  0  0  0  0  0  0  0  0
  -28.3849  -20.7275   23.0320 C   0  0  0  0  0  0  0  0  0  0  0  0
  -28.1022  -19.1748   21.2027 C   0  0  0  0  0  0  0  0  0  0  0  0
  -20.4811   -4.9895   23.3640 C   0  0  0  0  0  0  0  0  0  0  0  0
  -24.1228  -10.8588   22.4028 C   0  0  0  0  0  0  0  0  0  0  0  0
  -24.1063  -13.0657   21.1233 C   0  0  0  0  0  0  0  0  0  0  0  0
  -20.3535  -25.4241   20.7654 C   0  0  0  0  0  0  0  0  0  0  0  0
  -24.9152  -27.0473   25.3183 C   0  0  0  0  0  0  0  0  0  0  0  0
  -21.6923  -25.5167   21.1914 C   0  0  0  0  0  0  0  0  0  0  0  0
  -26.1354  -27.6480   24.9774 C   0  0  0  0  0  0  0  0  0  0  0  0
  -29.7629  -20.5134   23.0008 C   0  0  0  0  0  0  0  0  0  0  0  0
  -29.4802  -18.9608   21.1714 C   0  0  0  0  0  0  0  0  0  0  0  0
  -30.3105  -19.6301   22.0705 C   0  0  0  0  0  0  0  0  0  0  0  0
  -22.9532   -8.8397   23.9318 C   0  0  0  0  0  0  0  0  0  0  0  0
  -27.3171  -25.6991   25.8231 C   0  0  0  0  0  0  0  0  0  0  0  0
  -22.0900   -6.6572   24.0477 C   0  0  0  0  0  0  0  0  0  0  0  0
  -21.5033   -4.2448   22.7754 C   0  0  0  0  0  0  0  0  0  0  0  0
  -20.7745   -6.1957   24.0002 C   0  0  0  0  0  0  0  0  0  0  0  0
  -27.5546  -20.0582   22.1330 C   0  0  0  0  0  0  0  0  0  0  0  0
  -24.7277  -11.9013   21.6133 C   0  0  0  0  0  0  0  0  0  0  0  0
  -25.0999  -13.7237   20.4404 C   0  0  0  0  0  0  0  0  0  0  0  0
  -29.3328  -23.1228   24.9040 C   0  0  0  0  0  0  0  0  0  0  0  0
  -22.7521  -13.5125   21.2722 C   0  0  0  0  0  0  0  0  0  0  0  0
  -23.7540  -28.2358   22.6086 C   0  0  0  0  0  0  0  0  0  0  0  0
  -24.7886  -31.0468   23.8536 C   0  0  0  0  0  0  0  0  0  0  0  0
  -26.9033  -32.6670   25.9867 C   0  0  0  0  0  0  0  0  0  0  0  0
  -30.3598  -15.5507   20.0652 C   0  0  0  0  0  0  0  0  0  0  0  0
  -19.6694  -26.5597   20.0464 C   0  0  0  0  0  0  0  0  0  0  0  0
  -23.6178  -27.7709   25.0827 C   0  0  0  0  0  0  0  0  0  0  0  0
  -26.1974  -29.0109   24.3393 C   0  0  0  0  0  0  0  0  0  0  0  0
  -20.3745  -27.9026   20.2190 C   0  0  0  0  0  0  0  0  0  0  0  0
  -28.8955  -21.5976   27.3676 C   0  0  0  0  0  0  0  0  0  0  0  0
  -29.7215  -12.1929   19.0679 C   0  0  0  0  0  0  0  0  0  0  0  0
  -21.8759  -27.7497   19.9973 C   0  0  0  0  0  0  0  0  0  0  0  0
  -28.8594  -23.1111   27.4029 C   0  0  0  0  0  0  0  0  0  0  0  0
  -28.3174  -11.9121   19.6060 C   0  0  0  0  0  0  0  0  0  0  0  0
  -29.9156  -21.1349   26.3428 C   0  0  0  0  0  0  0  0  0  0  0  0
  -30.5233  -13.0793   20.0183 C   0  0  0  0  0  0  0  0  0  0  0  0
  -28.4563  -14.0609   20.9335 C   0  0  0  0  0  0  0  0  0  0  0  0
  -22.4905  -26.7915   21.0248 C   0  0  1  0  0  0  0  0  0  0  0  0
  -28.4492  -23.6275   26.0378 C   0  0  1  0  0  0  0  0  0  1  0  0
  -23.7142  -28.8294   23.9884 C   0  0  1  0  0  0  0  0  0  0  0  0
  -27.5901  -13.2168   19.9830 C   0  0  2  0  0  0  0  0  0  0  0  0
  -32.1792  -18.0741   22.6815 C   0  0  0  0  0  0  0  0  0  0  0  0
  -29.7486  -18.4328   18.7197 C   0  0  0  0  0  0  0  0  0  0  0  0
  -27.5417  -34.9681   26.7576 C   0  0  0  0  0  0  0  0  0  0  0  0
  -26.3249  -31.4887   21.2546 C   0  0  0  0  0  0  0  0  0  0  0  0
  -27.6550  -33.2588   22.4233 C   0  0  0  0  0  0  0  0  0  0  0  0
  -25.1895  -33.5271   22.1548 C   0  0  0  0  0  0  0  0  0  0  0  0
  -26.1238  -32.0737   28.7795 C   0  0  0  0  0  0  0  0  0  0  0  0
  -31.7881  -19.3997   22.0375 C   0  0  0  0  0  0  0  0  0  0  0  0
  -30.6347  -21.2461   23.9792 C   0  0  0  0  0  0  0  0  0  0  0  0
  -30.0423  -18.0100   20.1654 C   0  0  2  0  0  0  0  0  0  0  0  0
  -26.0793  -31.8282   23.8023 C   0  0  1  0  0  0  0  0  0  0  0  0
  -26.6575  -33.7576   27.0136 C   0  0  2  0  0  0  0  0  0  0  0  0
  -26.3112  -32.4991   22.4190 C   0  0  0  0  0  0  0  0  0  0  0  0
  -26.0162  -11.8213   21.2706 N   0  0  0  0  0  0  0  0  0  0  0  0
  -26.2125  -12.9437   20.5580 N   0  0  0  0  0  0  0  0  0  0  0  0
  -29.8604  -21.8398   25.0610 N   0  0  0  0  0  0  0  0  0  0  0  0
  -24.9016  -29.6756   24.1235 N   0  0  0  0  0  0  0  0  0  0  0  0
  -29.7787  -14.3006   20.3347 N   0  0  0  0  0  0  0  0  0  0  0  0
  -25.1216  -14.8875   19.7568 N   0  0  0  0  0  0  0  0  0  0  0  0
  -22.4322  -14.3203   22.3719 N   0  0  0  0  0  0  0  0  0  0  0  0
  -22.6558  -27.4559   22.2998 N   0  0  0  0  0  0  0  0  0  0  0  0
  -26.0346  -32.7642   24.9204 N   0  0  0  0  0  0  0  0  0  0  0  0
  -29.5841  -16.6570   20.3894 N   0  0  0  0  0  0  0  0  0  0  0  0
  -26.9408  -33.2504   28.3860 N   0  3  0  0  0  0  0  0  0  0  0  0
  -29.4914  -23.8139   23.8943 O   0  0  0  0  0  0  0  0  0  0  0  0
  -21.8489  -13.1910   20.4633 O   0  0  0  0  0  0  0  0  0  0  0  0
  -24.7094  -28.4694   21.8777 O   0  0  0  0  0  0  0  0  0  0  0  0
  -23.7191  -31.6329   23.6684 O   0  0  0  0  0  0  0  0  0  0  0  0
  -27.7809  -31.8162   26.1157 O   0  0  0  0  0  0  0  0  0  0  0  0
  -31.4842  -15.6718   19.5674 O   0  0  0  0  0  0  0  0  0  0  0  0
  -22.3827   -7.8548   24.6782 O   0  0  0  0  0  0  0  0  0  0  0  0
  -28.4860  -25.0448   26.0627 O   0  0  0  0  0  0  0  0  0  1  0  0
  -21.2215   -3.0872   22.1632 F   0  0  0  0  0  0  0  0  0  0  0  0
  -19.7882   -6.9073   24.5629 F   0  0  0  0  0  0  0  0  0  0  0  0
  -25.8541  -20.3220   22.1715 Cl  0  0  0  0  0  0  0  0  0  0  0  0
  1  2  1  0  0  0  0
  1  5  2  0  0  0  0
  2  6  2  0  0  0  0
  3  8  2  0  0  0  0
  3 17  1  0  0  0  0
  4  9  1  0  0  0  0
  4 17  2  0  0  0  0
  5 19  1  0  0  0  0
  6 21  1  0  0  0  0
  7 10  2  0  0  0  0
  7 20  1  0  0  0  0
  8 26  1  0  0  0  0
  9 26  2  0  0  0  0
 10 27  1  0  0  0  0
 11 12  2  0  0  0  0
 11 28  1  0  0  0  0
 12 29  1  0  0  0  0
 13 22  1  0  0  0  0
 13 27  2  0  0  0  0
 14 23  2  0  0  0  0
 14 31  1  0  0  0  0
 15 24  1  0  0  0  0
 15 31  2  0  0  0  0
 16 29  2  0  0  0  0
 16 30  1  0  0  0  0
 17 32  1  0  0  0  0
 18 32  1  0  0  0  0
 18 33  2  0  0  0  0
 18 35  1  0  0  0  0
 19 21  2  0  0  0  0
 19 40  1  0  0  0  0
 20 22  2  0  0  0  0
 20 41  1  0  0  0  0
 21 52  1  0  0  0  0
 22 42  1  0  0  0  0
 23 25  1  0  0  0  0
 23 64  1  0  0  0  0
 24 25  2  0  0  0  0
 24 65  1  0  0  0  0
 25 63  1  0  0  0  0
 26 86  1  0  0  0  0
 27 87  1  0  0  0  0
 28 30  2  0  0  0  0
 28 86  1  0  0  0  0
 29 88  1  0  0  0  0
 30 89  1  0  0  0  0
 31 90  1  0  0  0  0
 32 69  2  0  0  0  0
 33 70  1  0  0  0  0
 33 74  1  0  0  0  0
 34 53  1  0  0  0  0
 34 71  1  0  0  0  0
 34 80  2  0  0  0  0
 35 75  1  0  0  0  0
 35 81  2  0  0  0  0
 36 54  1  0  0  0  0
 36 76  1  0  0  0  0
 36 82  2  0  0  0  0
 37 66  1  0  0  0  0
 37 72  1  0  0  0  0
 37 83  2  0  0  0  0
 38 67  1  0  0  0  0
 38 77  1  0  0  0  0
 38 84  2  0  0  0  0
 39 73  1  0  0  0  0
 39 78  1  0  0  0  0
 39 85  2  0  0  0  0
 40 43  1  0  0  0  0
 41 54  1  0  0  0  0
 42 72  1  0  0  0  0
 43 46  1  0  0  0  0
 44 47  1  0  0  0  0
 44 49  1  0  0  0  0
 45 48  1  0  0  0  0
 45 50  1  0  0  0  0
 46 52  1  0  0  0  0
 47 53  1  0  0  0  0
 48 55  1  0  0  0  0
 49 71  1  0  0  0  0
 50 73  1  0  0  0  0
 51 55  1  0  0  0  0
 51 73  1  0  0  0  0
 52 76  1  0  0  0  0
 53 87  1  0  0  0  0
 54 72  1  0  0  0  0
 55 70  1  0  0  0  0
 56 63  1  0  0  0  0
 57 65  1  0  0  0  0
 58 67  1  0  0  0  0
 59 68  1  0  0  0  0
 60 68  1  0  0  0  0
 61 68  1  0  0  0  0
 62 79  1  0  0  0  0
 64 71  1  0  0  0  0
 65 78  1  0  0  0  0
 66 68  1  0  0  0  0
 66 77  1  0  0  0  0
 67 79  1  0  0  0  0
 69 70  1  0  0  0  0
M  CHG  1  79   1
M  ISO  4  39 100  53 101  78 100  87 101
M  END
> <Batch ID>
0049

> <Smiles>
CCc1c(CN2CCC[101CH:1]([101O:1]c3ccc4c(c3)CN(C(=O)C(NC(=O)C(C)NC)C(C)(C)C)C(C(=O)NC3CCCc5ccccc53)C4)C2=O)cc(Cl)cc1C(C)[100NH:0][100C:0](=O)N1CCCC(n2nc(-c3ccc(Oc4ccc(F)cc4F)cc3)c(C(N)=O)c2N)C1

> <Shape>
0.253

> <Color>
0.109

> <Negative vol penalty>
0.000

$$$$

  -OEChem-04042322323D

 84 92  0     1  0  0  0  0  0999 V2000
  -20.4334   -8.8266   21.4007 C   0  0  0  0  0  0  0  0  0  0  0  0
  -19.7158   -9.9332   20.9582 C   0  0  0  0  0  0  0  0  0  0  0  0
  -28.6383  -25.0283   20.6816 C   0  0  0  0  0  0  0  0  0  0  0  0
  -26.5488  -23.9075   21.1455 C   0  0  0  0  0  0  0  0  0  0  0  0
  -19.1960  -26.1292   23.7920 C   0  0  0  0  0  0  0  0  0  0  0  0
  -21.4997   -8.9959   22.2828 C   0  0  0  0  0  0  0  0  0  0  0  0
  -20.0634  -11.2098   21.3984 C   0  0  0  0  0  0  0  0  0  0  0  0
  -20.2019  -18.0272   19.2028 C   0  0  0  0  0  0  0  0  0  0  0  0
  -19.8257  -27.3737   23.8066 C   0  0  0  0  0  0  0  0  0  0  0  0
  -29.3316  -23.9995   21.3190 C   0  0  0  0  0  0  0  0  0  0  0  0
  -27.2422  -22.8786   21.7829 C   0  0  0  0  0  0  0  0  0  0  0  0
  -19.7764  -19.2948   19.5977 C   0  0  0  0  0  0  0  0  0  0  0  0
  -30.0257  -23.0550   24.4893 C   0  0  0  0  0  0  0  0  0  0  0  0
  -31.0409  -23.4114   25.3769 C   0  0  0  0  0  0  0  0  0  0  0  0
  -21.6870  -19.4743   21.0594 C   0  0  0  0  0  0  0  0  0  0  0  0
  -18.6770  -27.9787   21.7691 C   0  0  0  0  0  0  0  0  0  0  0  0
  -32.6424  -22.2037   24.0302 C   0  0  0  0  0  0  0  0  0  0  0  0
  -27.2468  -24.9824   20.5949 C   0  0  0  0  0  0  0  0  0  0  0  0
  -18.3068  -25.8094   22.7660 C   0  0  0  0  0  0  0  0  0  0  0  0
  -26.1859  -26.1221   18.5742 C   0  0  0  0  0  0  0  0  0  0  0  0
  -21.8668  -10.2762   22.7265 C   0  0  0  0  0  0  0  0  0  0  0  0
  -21.3693  -17.4682   19.7424 C   0  0  0  0  0  0  0  0  0  0  0  0
  -21.1349  -11.3963   22.2883 C   0  0  0  0  0  0  0  0  0  0  0  0
  -22.1266  -18.2005   20.6678 C   0  0  0  0  0  0  0  0  0  0  0  0
  -19.5662  -28.2985   22.7951 C   0  0  0  0  0  0  0  0  0  0  0  0
  -18.0473  -26.7342   21.7545 C   0  0  0  0  0  0  0  0  0  0  0  0
  -28.6336  -22.9246   21.8696 C   0  0  0  0  0  0  0  0  0  0  0  0
  -20.5173  -20.0173   20.5283 C   0  0  0  0  0  0  0  0  0  0  0  0
  -30.3188  -22.2728   23.3721 C   0  0  0  0  0  0  0  0  0  0  0  0
  -32.3493  -22.9858   25.1474 C   0  0  0  0  0  0  0  0  0  0  0  0
  -31.6272  -21.8472   23.1426 C   0  0  0  0  0  0  0  0  0  0  0  0
  -26.5299  -26.0452   19.9371 C   0  0  0  0  0  0  0  0  0  0  0  0
  -25.5180  -27.3163   18.4555 C   0  0  0  0  0  0  0  0  0  0  0  0
  -18.4064  -22.4967   21.9865 C   0  0  0  0  0  0  0  0  0  0  0  0
  -17.6489  -24.4737   22.7753 C   0  0  0  0  0  0  0  0  0  0  0  0
  -26.4467  -25.1966   17.5106 C   0  0  0  0  0  0  0  0  0  0  0  0
  -22.0250  -14.8911   21.4837 C   0  0  0  0  0  0  0  0  0  0  0  0
  -25.0948  -15.8083   20.9766 C   0  0  0  0  0  0  0  0  0  0  0  0
  -27.2849  -18.3225   20.2494 C   0  0  0  0  0  0  0  0  0  0  0  0
  -22.4423  -30.6720   22.3454 C   0  0  0  0  0  0  0  0  0  0  0  0
  -22.9968  -10.4049   23.7170 C   0  0  0  0  0  0  0  0  0  0  0  0
  -21.8293  -16.1108   19.2860 C   0  0  0  0  0  0  0  0  0  0  0  0
  -23.3981  -17.6536   21.2617 C   0  0  0  0  0  0  0  0  0  0  0  0
  -23.5378  -11.8269   23.8425 C   0  0  0  0  0  0  0  0  0  0  0  0
  -25.2612  -31.6737   20.4147 C   0  0  0  0  0  0  0  0  0  0  0  0
  -22.3912  -12.8249   23.9695 C   0  0  0  0  0  0  0  0  0  0  0  0
  -25.8749  -30.3517   19.9504 C   0  0  0  0  0  0  0  0  0  0  0  0
  -24.6937  -31.5667   21.8284 C   0  0  0  0  0  0  0  0  0  0  0  0
  -24.3508  -29.1404   21.5655 C   0  0  0  0  0  0  0  0  0  0  0  0
  -21.4972  -12.7996   22.7239 C   0  0  1  0  0  0  0  0  0  0  0  0
  -22.7567  -15.4268   20.2857 C   0  0  1  0  0  0  0  0  0  0  0  0
  -24.8865  -29.1829   20.1241 C   0  0  2  0  0  0  0  0  0  0  0  0
  -17.0990  -26.4181   20.6443 C   0  0  0  0  0  0  0  0  0  0  0  0
  -29.7340  -18.7736   19.9402 C   0  0  0  0  0  0  0  0  0  0  0  0
  -25.4925  -15.7082   24.0001 C   0  0  0  0  0  0  0  0  0  0  0  0
  -27.5853  -17.0490   23.6992 C   0  0  0  0  0  0  0  0  0  0  0  0
  -27.3965  -14.7861   22.6664 C   0  0  0  0  0  0  0  0  0  0  0  0
  -26.8902  -19.1871   17.4466 C   0  0  0  0  0  0  0  0  0  0  0  0
  -20.2388  -29.6297   22.8113 C   0  0  0  0  0  0  0  0  0  0  0  0
  -18.6987  -21.5032   20.9033 C   0  0  0  0  0  0  0  0  0  1  0  0
  -26.0739  -16.7077   21.6917 C   0  0  1  0  0  0  0  0  0  0  0  0
  -28.4277  -18.4064   19.2537 C   0  0  2  0  0  0  0  0  0  0  0  0
  -26.6121  -16.0725   23.0048 C   0  0  0  0  0  0  0  0  0  0  0  0
  -26.1150  -27.1062   20.6343 N   0  0  0  0  0  0  0  0  0  0  0  0
  -17.8574  -23.6344   21.7075 N   0  0  0  0  0  0  0  0  0  0  0  0
  -25.5035  -27.8611   19.7058 N   0  0  0  0  0  0  0  0  0  0  0  0
  -23.8029  -16.3195   20.7885 N   0  0  0  0  0  0  0  0  0  0  0  0
  -23.7625  -30.4400   21.9255 N   0  0  0  0  0  0  0  0  0  0  0  0
  -24.9477  -27.9431   17.4047 N   0  0  0  0  0  0  0  0  0  0  0  0
  -27.1453  -24.0182   17.8065 N   0  0  0  0  0  0  0  0  0  0  0  0
  -22.1238  -13.5214   21.6372 N   0  0  0  0  0  0  0  0  0  0  0  0
  -27.1100  -17.0381   20.7193 N   0  0  0  0  0  0  0  0  0  0  0  0
  -21.6238  -29.5507   22.4036 N   0  0  0  0  0  0  0  0  0  0  0  0
  -16.8648  -24.0968   23.7227 N   0  3  0  0  0  0  0  0  0  0  0  0
  -28.1363  -19.4358   18.2163 N   0  3  0  0  0  0  0  0  0  0  0  0
  -26.0856  -25.4161   16.3295 O   0  0  0  0  0  0  0  0  0  0  0  0
  -21.4169  -15.6634   22.2155 O   0  0  0  0  0  0  0  0  0  0  0  0
  -25.4647  -14.6959   20.5926 O   0  0  0  0  0  0  0  0  0  0  0  0
  -26.6167  -19.2996   20.5803 O   0  0  0  0  0  0  0  0  0  0  0  0
  -22.0225  -31.7960   22.6409 O   0  0  0  0  0  0  0  0  0  0  0  0
  -29.3099  -21.9204   22.4914 O   0  0  0  0  0  0  0  0  0  0  0  0
  -20.1038  -21.2545   20.9160 O   0  0  0  0  0  0  0  0  0  1  0  0
  -33.3243  -23.3295   25.9990 F   0  0  0  0  0  0  0  0  0  0  0  0
  -31.9151  -21.0966   22.0704 F   0  0  0  0  0  0  0  0  0  0  0  0
  1  2  1  0  0  0  0
  1  6  2  0  0  0  0
  2  7  2  0  0  0  0
  3 10  2  0  0  0  0
  3 18  1  0  0  0  0
  4 11  1  0  0  0  0
  4 18  2  0  0  0  0
  5  9  2  0  0  0  0
  5 19  1  0  0  0  0
  6 21  1  0  0  0  0
  7 23  1  0  0  0  0
  8 12  2  0  0  0  0
  8 22  1  0  0  0  0
  9 25  1  0  0  0  0
 10 27  1  0  0  0  0
 11 27  2  0  0  0  0
 12 28  1  0  0  0  0
 13 14  2  0  0  0  0
 13 29  1  0  0  0  0
 14 30  1  0  0  0  0
 15 24  1  0  0  0  0
 15 28  2  0  0  0  0
 16 25  2  0  0  0  0
 16 26  1  0  0  0  0
 17 30  2  0  0  0  0
 17 31  1  0  0  0  0
 18 32  1  0  0  0  0
 19 26  2  0  0  0  0
 19 35  1  0  0  0  0
 20 32  1  0  0  0  0
 20 33  2  0  0  0  0
 20 36  1  0  0  0  0
 21 23  2  0  0  0  0
 21 41  1  0  0  0  0
 22 24  2  0  0  0  0
 22 42  1  0  0  0  0
 23 50  1  0  0  0  0
 24 43  1  0  0  0  0
 25 59  1  0  0  0  0
 26 53  1  0  0  0  0
 27 81  1  0  0  0  0
 28 82  1  0  0  0  0
 29 31  2  0  0  0  0
 29 81  1  0  0  0  0
 30 83  1  0  0  0  0
 31 84  1  0  0  0  0
 32 64  2  0  0  0  0
 33 66  1  0  0  0  0
 33 69  1  0  0  0  0
 34 60  1  0  0  0  0
 34 65  2  0  0  0  0
 35 65  1  0  0  0  0
 35 74  2  0  0  0  0
 36 70  1  0  0  0  0
 36 76  2  0  0  0  0
 37 51  1  0  0  0  0
 37 71  1  0  0  0  0
 37 77  2  0  0  0  0
 38 61  1  0  0  0  0
 38 67  1  0  0  0  0
 38 78  2  0  0  0  0
 39 62  1  0  0  0  0
 39 72  1  0  0  0  0
 39 79  2  0  0  0  0
 40 68  1  0  0  0  0
 40 73  1  0  0  0  0
 40 80  2  0  0  0  0
 41 44  1  0  0  0  0
 42 51  1  0  0  0  0
 43 67  1  0  0  0  0
 44 46  1  0  0  0  0
 45 47  1  0  0  0  0
 45 48  1  0  0  0  0
 46 50  1  0  0  0  0
 47 52  1  0  0  0  0
 48 68  1  0  0  0  0
 49 52  1  0  0  0  0
 49 68  1  0  0  0  0
 50 71  1  0  0  0  0
 51 67  1  0  0  0  0
 52 66  1  0  0  0  0
 54 62  1  0  0  0  0
 55 63  1  0  0  0  0
 56 63  1  0  0  0  0
 57 63  1  0  0  0  0
 58 75  1  0  0  0  0
 59 73  1  0  0  0  0
 60 82  1  0  0  0  0
 61 63  1  0  0  0  0
 61 72  1  0  0  0  0
 62 75  1  0  0  0  0
 64 66  1  0  0  0  0
M  CHG  2  74   1  75   1
M  ISO  4  40 100  60 101  73 100  82 101
M  END
> <Batch ID>
0049

> <Smiles>
CNC(C)C(=O)NC(C(=O)N1Cc2cc([101O:1][101CH2:1]C=NC(=N)c3ccc(C[100NH:0][100C:0](=O)N4CCCC(n5nc(-c6ccc(Oc7ccc(F)cc7F)cc6)c(C(N)=O)c5N)C4)cc3C)ccc2CC1C(=O)NC1CCCc2ccccc21)C(C)(C)C

> <Shape>
0.182

> <Color>
0.072

> <Negative vol penalty>
0.000

$$$$

  -OEChem-04042322323D

 86 95  0     1  0  0  0  0  0999 V2000
  -25.2557  -38.3125   22.6656 C   0  0  0  0  0  0  0  0  0  0  0  0
  -26.0179  -37.4691   21.8636 C   0  0  0  0  0  0  0  0  0  0  0  0
  -33.2111  -21.8858   22.4793 C   0  0  0  0  0  0  0  0  0  0  0  0
  -24.3787  -14.0406   19.9066 C   0  0  0  0  0  0  0  0  0  0  0  0
  -26.6901  -13.9286   20.6009 C   0  0  0  0  0  0  0  0  0  0  0  0
  -24.5953  -37.8019   23.7823 C   0  0  0  0  0  0  0  0  0  0  0  0
  -26.1210  -36.1147   22.1786 C   0  0  0  0  0  0  0  0  0  0  0  0
  -26.7895  -29.6953   19.0704 C   0  0  0  0  0  0  0  0  0  0  0  0
  -33.3523  -20.5026   22.3684 C   0  0  0  0  0  0  0  0  0  0  0  0
  -32.3227  -22.5653   21.6458 C   0  0  0  0  0  0  0  0  0  0  0  0
  -24.3084  -12.6476   19.9155 C   0  0  0  0  0  0  0  0  0  0  0  0
  -26.6198  -12.5355   20.6099 C   0  0  0  0  0  0  0  0  0  0  0  0
  -27.5880  -28.5533   19.1183 C   0  0  0  0  0  0  0  0  0  0  0  0
  -23.9688  -10.1853   22.2078 C   0  0  0  0  0  0  0  0  0  0  0  0
  -22.8513   -9.5964   22.7994 C   0  0  0  0  0  0  0  0  0  0  0  0
  -26.3391  -27.7674   21.0266 C   0  0  0  0  0  0  0  0  0  0  0  0
  -22.2971   -8.5385   20.6992 C   0  0  0  0  0  0  0  0  0  0  0  0
  -25.5695  -14.6811   20.2492 C   0  0  0  0  0  0  0  0  0  0  0  0
  -24.8707  -17.0158   21.0033 C   0  0  0  0  0  0  0  0  0  0  0  0
  -24.6825  -36.4387   24.1056 C   0  0  0  0  0  0  0  0  0  0  0  0
  -25.7652  -29.8873   20.0087 C   0  0  0  0  0  0  0  0  0  0  0  0
  -25.4622  -35.5856   23.3015 C   0  0  0  0  0  0  0  0  0  0  0  0
  -25.5275  -28.9114   20.9870 C   0  0  0  0  0  0  0  0  0  0  0  0
  -32.6051  -19.7988   21.4239 C   0  0  0  0  0  0  0  0  0  0  0  0
  -31.5755  -21.8615   20.7013 C   0  0  0  0  0  0  0  0  0  0  0  0
  -31.7167  -20.4782   20.5903 C   0  0  0  0  0  0  0  0  0  0  0  0
  -25.4290  -11.8950   20.2672 C   0  0  0  0  0  0  0  0  0  0  0  0
  -27.3647  -27.5906   20.0982 C   0  0  0  0  0  0  0  0  0  0  0  0
  -24.2504   -9.9509   20.8619 C   0  0  0  0  0  0  0  0  0  0  0  0
  -22.0155   -8.7730   22.0451 C   0  0  0  0  0  0  0  0  0  0  0  0
  -23.4146   -9.1275   20.1076 C   0  0  0  0  0  0  0  0  0  0  0  0
  -25.6429  -16.1201   20.2396 C   0  0  0  0  0  0  0  0  0  0  0  0
  -25.3201  -18.2594   20.6320 C   0  0  0  0  0  0  0  0  0  0  0  0
  -28.9399  -23.6942   21.2576 C   0  0  0  0  0  0  0  0  0  0  0  0
  -23.8395  -16.7476   21.9626 C   0  0  0  0  0  0  0  0  0  0  0  0
  -25.1541  -32.0567   22.2501 C   0  0  0  0  0  0  0  0  0  0  0  0
  -22.3666  -30.4204   22.5233 C   0  0  0  0  0  0  0  0  0  0  0  0
  -21.3330  -26.9637   22.5392 C   0  0  0  0  0  0  0  0  0  0  0  0
  -30.5004  -20.2291   18.3983 C   0  0  0  0  0  0  0  0  0  0  0  0
  -23.9894  -35.9418   25.3496 C   0  0  0  0  0  0  0  0  0  0  0  0
  -24.8955  -31.1118   19.9271 C   0  0  0  0  0  0  0  0  0  0  0  0
  -24.4275  -29.0604   22.0050 C   0  0  0  0  0  0  0  0  0  0  0  0
  -28.4727  -24.9444   21.9835 C   0  0  0  0  0  0  0  0  0  0  0  0
  -23.8453  -34.4230   25.4012 C   0  0  0  0  0  0  0  0  0  0  0  0
  -27.2764  -20.5828   16.9294 C   0  0  0  0  0  0  0  0  0  0  0  0
  -25.1619  -33.7489   25.0283 C   0  0  0  0  0  0  0  0  0  0  0  0
  -26.4199  -19.5643   17.6852 C   0  0  0  0  0  0  0  0  0  0  0  0
  -30.3699  -26.2314   21.0263 C   0  0  0  0  0  0  0  0  0  0  0  0
  -28.6961  -20.0688   16.6972 C   0  0  0  0  0  0  0  0  0  0  0  0
  -30.6951  -25.0764   20.0951 C   0  0  0  0  0  0  0  0  0  0  0  0
  -28.5375  -18.5877   18.6594 C   0  0  0  0  0  0  0  0  0  0  0  0
  -25.5783  -34.1058   23.5963 C   0  0  1  0  0  0  0  0  0  0  0  0
  -24.2127  -31.4489   21.2491 C   0  0  1  0  0  0  0  0  0  0  0  0
  -27.1178  -19.0870   18.9739 C   0  0  2  0  0  0  0  0  0  0  0  0
  -28.8868  -26.2563   21.3422 C   0  0  1  0  0  0  0  0  0  1  0  0
  -32.7784  -18.3173   21.3289 C   0  0  0  0  0  0  0  0  0  0  0  0
  -19.1474  -25.9115   21.8964 C   0  0  0  0  0  0  0  0  0  0  0  0
  -21.7101  -30.6579   25.4936 C   0  0  0  0  0  0  0  0  0  0  0  0
  -20.5739  -28.4315   25.3492 C   0  0  0  0  0  0  0  0  0  0  0  0
  -19.7222  -30.3539   24.0069 C   0  0  0  0  0  0  0  0  0  0  0  0
  -22.6441  -25.1449   20.6075 C   0  0  0  0  0  0  0  0  0  0  0  0
  -30.6275  -22.6214   19.8192 C   0  0  0  0  0  0  0  0  0  0  0  0
  -21.8938  -29.2432   23.3416 C   0  0  1  0  0  0  0  0  0  0  0  0
  -20.5631  -26.2404   21.4490 C   0  0  2  0  0  0  0  0  0  0  0  0
  -21.0023  -29.6745   24.5402 C   0  0  0  0  0  0  0  0  0  0  0  0
  -26.5164  -16.7419   19.4431 N   0  0  0  0  0  0  0  0  0  0  0  0
  -26.2958  -18.0416   19.7043 N   0  0  0  0  0  0  0  0  0  0  0  0
  -30.0926  -23.8026   20.4836 N   0  0  0  0  0  0  0  0  0  0  0  0
  -23.6082  -30.2780   21.8877 N   0  0  0  0  0  0  0  0  0  0  0  0
  -29.2956  -19.6383   17.9622 N   0  0  0  0  0  0  0  0  0  0  0  0
  -24.9717  -19.5072   21.0117 N   0  0  0  0  0  0  0  0  0  0  0  0
  -24.2029  -16.5855   23.3065 N   0  0  0  0  0  0  0  0  0  0  0  0
  -30.9579  -19.7635   19.6306 N   0  0  0  0  0  0  0  0  0  0  0  0
  -24.8105  -33.3370   22.6403 N   0  0  0  0  0  0  0  0  0  0  0  0
  -21.2398  -28.3331   22.4076 N   0  0  0  0  0  0  0  0  0  0  0  0
  -21.2494  -24.9679   21.0875 N   0  3  0  0  0  0  0  0  0  0  0  0
  -28.3315  -22.6363   21.4443 O   0  0  0  0  0  0  0  0  0  0  0  0
  -22.6335  -16.6381   21.6353 O   0  0  0  0  0  0  0  0  0  0  0  0
  -26.1199  -31.4114   22.6407 O   0  0  0  0  0  0  0  0  0  0  0  0
  -21.6571  -31.4264   22.4450 O   0  0  0  0  0  0  0  0  0  0  0  0
  -21.9517  -26.3731   23.4217 O   0  0  0  0  0  0  0  0  0  0  0  0
  -31.0691  -21.1046   17.7409 O   0  0  0  0  0  0  0  0  0  0  0  0
  -25.3607  -10.5357   20.2763 O   0  0  0  0  0  0  0  0  0  0  0  0
  -28.1430  -26.4754   20.1475 O   0  0  0  0  0  0  0  0  0  1  0  0
  -20.9432   -8.2062   22.6137 F   0  0  0  0  0  0  0  0  0  0  0  0
  -23.6807   -8.8976   18.8145 F   0  0  0  0  0  0  0  0  0  0  0  0
  1  2  1  0  0  0  0
  1  6  2  0  0  0  0
  2  7  2  0  0  0  0
  3  9  1  0  0  0  0
  3 10  2  0  0  0  0
  4 11  2  0  0  0  0
  4 18  1  0  0  0  0
  5 12  1  0  0  0  0
  5 18  2  0  0  0  0
  6 20  1  0  0  0  0
  7 22  1  0  0  0  0
  8 13  2  0  0  0  0
  8 21  1  0  0  0  0
  9 24  2  0  0  0  0
 10 25  1  0  0  0  0
 11 27  1  0  0  0  0
 12 27  2  0  0  0  0
 13 28  1  0  0  0  0
 14 15  2  0  0  0  0
 14 29  1  0  0  0  0
 15 30  1  0  0  0  0
 16 23  1  0  0  0  0
 16 28  2  0  0  0  0
 17 30  2  0  0  0  0
 17 31  1  0  0  0  0
 18 32  1  0  0  0  0
 19 32  1  0  0  0  0
 19 33  2  0  0  0  0
 19 35  1  0  0  0  0
 20 22  2  0  0  0  0
 20 40  1  0  0  0  0
 21 23  2  0  0  0  0
 21 41  1  0  0  0  0
 22 52  1  0  0  0  0
 23 42  1  0  0  0  0
 24 26  1  0  0  0  0
 24 56  1  0  0  0  0
 25 26  2  0  0  0  0
 25 62  1  0  0  0  0
 26 73  1  0  0  0  0
 27 83  1  0  0  0  0
 28 84  1  0  0  0  0
 29 31  2  0  0  0  0
 29 83  1  0  0  0  0
 30 85  1  0  0  0  0
 31 86  1  0  0  0  0
 32 66  2  0  0  0  0
 33 67  1  0  0  0  0
 33 71  1  0  0  0  0
 34 43  1  0  0  0  0
 34 68  1  0  0  0  0
 34 77  2  0  0  0  0
 35 72  1  0  0  0  0
 35 78  2  0  0  0  0
 36 53  1  0  0  0  0
 36 74  1  0  0  0  0
 36 79  2  0  0  0  0
 37 63  1  0  0  0  0
 37 69  1  0  0  0  0
 37 80  2  0  0  0  0
 38 64  1  0  0  0  0
 38 75  1  0  0  0  0
 38 81  2  0  0  0  0
 39 70  1  0  0  0  0
 39 73  1  0  0  0  0
 39 82  2  0  0  0  0
 40 44  1  0  0  0  0
 41 53  1  0  0  0  0
 42 69  1  0  0  0  0
 43 55  1  0  0  0  0
 44 46  1  0  0  0  0
 45 47  1  0  0  0  0
 45 49  1  0  0  0  0
 46 52  1  0  0  0  0
 47 54  1  0  0  0  0
 48 50  1  0  0  0  0
 48 55  1  0  0  0  0
 49 70  1  0  0  0  0
 50 68  1  0  0  0  0
 51 54  1  0  0  0  0
 51 70  1  0  0  0  0
 52 74  1  0  0  0  0
 53 69  1  0  0  0  0
 54 67  1  0  0  0  0
 55 84  1  0  0  0  0
 57 64  1  0  0  0  0
 58 65  1  0  0  0  0
 59 65  1  0  0  0  0
 60 65  1  0  0  0  0
 61 76  1  0  0  0  0
 62 68  1  0  0  0  0
 63 65  1  0  0  0  0
 63 75  1  0  0  0  0
 64 76  1  0  0  0  0
 66 67  1  0  0  0  0
M  CHG  1  76   1
M  ISO  4  39 100  55 101  73 100  84 101
M  END
> <Batch ID>
0049

> <Smiles>
CNC(C)C(=O)NC(C(=O)N1Cc2cc([101O:1][101CH:1]3CCN(Cc4cccc(C)c4[100NH:0][100C:0](=O)N4CCCC(n5nc(-c6ccc(Oc7ccc(F)cc7F)cc6)c(C(N)=O)c5N)C4)C(=O)C3)ccc2CC1C(=O)NC1CCCc2ccccc21)C(C)(C)C

> <Shape>
0.292

> <Color>
0.087

> <Negative vol penalty>
0.000

$$$$

  -OEChem-04042322323D

 88 96  0     1  0  0  0  0  0999 V2000
  -28.5957  -14.3275   20.5883 C   0  0  0  0  0  0  0  0  0  0  0  0
  -27.9912  -15.1639   21.5213 C   0  0  0  0  0  0  0  0  0  0  0  0
  -22.1814  -14.1686   22.2230 C   0  0  0  0  0  0  0  0  0  0  0  0
  -24.1873  -15.0350   21.1922 C   0  0  0  0  0  0  0  0  0  0  0  0
  -21.3645  -28.2215   22.7831 C   0  0  0  0  0  0  0  0  0  0  0  0
  -29.6978  -14.7767   19.8621 C   0  0  0  0  0  0  0  0  0  0  0  0
  -28.4892  -16.4496   21.7294 C   0  0  0  0  0  0  0  0  0  0  0  0
  -25.2602  -21.4737   23.0849 C   0  0  0  0  0  0  0  0  0  0  0  0
  -22.3146  -12.9889   21.4908 C   0  0  0  0  0  0  0  0  0  0  0  0
  -24.3207  -13.8552   20.4600 C   0  0  0  0  0  0  0  0  0  0  0  0
  -24.9998  -22.1246   24.2900 C   0  0  0  0  0  0  0  0  0  0  0  0
  -22.3268   -9.6053   20.1617 C   0  0  0  0  0  0  0  0  0  0  0  0
  -20.4765  -28.1238   21.7119 C   0  0  0  0  0  0  0  0  0  0  0  0
  -22.1416   -8.3988   20.8366 C   0  0  0  0  0  0  0  0  0  0  0  0
  -26.8297  -23.6370   23.8616 C   0  0  0  0  0  0  0  0  0  0  0  0
  -23.9684   -8.9479   22.3193 C   0  0  0  0  0  0  0  0  0  0  0  0
  -23.1177  -15.1917   22.0736 C   0  0  0  0  0  0  0  0  0  0  0  0
  -22.3116  -27.2202   22.9974 C   0  0  0  0  0  0  0  0  0  0  0  0
  -23.5151  -16.6870   24.1018 C   0  0  0  0  0  0  0  0  0  0  0  0
  -30.2037  -16.0720   20.0545 C   0  0  0  0  0  0  0  0  0  0  0  0
  -26.3159  -21.8935   22.2629 C   0  0  0  0  0  0  0  0  0  0  0  0
  -29.6000  -16.9160   21.0061 C   0  0  0  0  0  0  0  0  0  0  0  0
  -27.0998  -22.9914   22.6453 C   0  0  0  0  0  0  0  0  0  0  0  0
  -22.3707  -26.1211   22.1406 C   0  0  0  0  0  0  0  0  0  0  0  0
  -21.4826  -26.0234   21.0693 C   0  0  0  0  0  0  0  0  0  0  0  0
  -23.3843  -12.8321   20.6093 C   0  0  0  0  0  0  0  0  0  0  0  0
  -25.7864  -23.2046   24.6799 C   0  0  0  0  0  0  0  0  0  0  0  0
  -23.3328  -10.4832   20.5655 C   0  0  0  0  0  0  0  0  0  0  0  0
  -22.9624   -8.0701   21.9154 C   0  0  0  0  0  0  0  0  0  0  0  0
  -20.5355  -27.0248   20.8550 C   0  0  0  0  0  0  0  0  0  0  0  0
  -24.1535  -10.1545   21.6444 C   0  0  0  0  0  0  0  0  0  0  0  0
  -22.9803  -16.4108   22.8293 C   0  0  0  0  0  0  0  0  0  0  0  0
  -23.1037  -17.9684   24.3764 C   0  0  0  0  0  0  0  0  0  0  0  0
  -23.2410  -27.3454   24.1380 C   0  0  0  0  0  0  0  0  0  0  0  0
  -24.3125  -15.8594   24.9591 C   0  0  0  0  0  0  0  0  0  0  0  0
  -28.9934  -20.5561   21.1921 C   0  0  0  0  0  0  0  0  0  0  0  0
  -29.2147  -23.2983   19.4734 C   0  0  0  0  0  0  0  0  0  0  0  0
  -28.3710  -26.5889   19.1467 C   0  0  0  0  0  0  0  0  0  0  0  0
  -21.6778  -22.4826   20.8487 C   0  0  0  0  0  0  0  0  0  0  0  0
  -31.4263  -16.4963   19.2800 C   0  0  0  0  0  0  0  0  0  0  0  0
  -26.5670  -21.1976   20.9532 C   0  0  0  0  0  0  0  0  0  0  0  0
  -28.2323  -23.4940   21.7889 C   0  0  0  0  0  0  0  0  0  0  0  0
  -31.6613  -18.0046   19.2911 C   0  0  0  0  0  0  0  0  0  0  0  0
  -19.5711  -21.0531   23.4209 C   0  0  0  0  0  0  0  0  0  0  0  0
  -31.5133  -18.5575   20.7050 C   0  0  0  0  0  0  0  0  0  0  0  0
  -20.2698  -19.7168   23.6783 C   0  0  0  0  0  0  0  0  0  0  0  0
  -19.6104  -21.4213   21.9407 C   0  0  0  0  0  0  0  0  0  0  0  0
  -21.6785  -20.1230   21.6070 C   0  0  0  0  0  0  0  0  0  0  0  0
  -30.0959  -18.3261   21.2424 C   0  0  1  0  0  0  0  0  0  0  0  0
  -27.9913  -21.3856   20.4401 C   0  0  1  0  0  0  0  0  0  0  0  0
  -21.6926  -19.7056   23.0888 C   0  0  2  0  0  0  0  0  0  0  0  0
  -23.3873  -25.0476   22.3692 C   0  0  0  0  0  0  0  0  0  0  0  0
  -28.7338  -28.5773   17.6594 C   0  0  0  0  0  0  0  0  0  0  0  0
  -32.0150  -23.6514   20.6327 C   0  0  0  0  0  0  0  0  0  0  0  0
  -31.9420  -26.0436   19.8975 C   0  0  0  0  0  0  0  0  0  0  0  0
  -31.8122  -24.2159   18.2048 C   0  0  0  0  0  0  0  0  0  0  0  0
  -24.8146  -25.2235   28.3301 C   0  0  0  0  0  0  0  0  0  0  0  0
  -22.4239  -25.0859   27.6074 C   0  0  0  0  0  0  0  0  0  0  0  0
  -25.4831  -26.8051   18.5362 C   0  0  0  0  0  0  0  0  0  0  0  0
  -21.5275  -24.8555   20.1390 C   0  0  0  0  0  0  0  0  0  0  0  0
  -24.1034  -26.4030   26.2511 C   0  0  0  0  0  0  0  0  0  0  0  0
  -24.1827  -23.8530   26.3119 C   0  0  0  0  0  0  0  0  0  1  0  0
  -29.8262  -24.6589   19.7052 C   0  0  1  0  0  0  0  0  0  0  0  0
  -27.8451  -27.3812   17.9635 C   0  0  2  0  0  0  0  0  0  0  0  0
  -31.3788  -24.6320   19.6273 C   0  0  0  0  0  0  0  0  0  0  0  0
  -23.8787  -25.1405   27.1082 C   0  0  0  0  0  0  0  0  0  0  0  0
  -22.2823  -17.4343   22.3300 N   0  0  0  0  0  0  0  0  0  0  0  0
  -22.3756  -18.3661   23.2939 N   0  0  0  0  0  0  0  0  0  0  0  0
  -28.4421  -22.7765   20.5206 N   0  0  0  0  0  0  0  0  0  0  0  0
  -20.9944  -21.4105   21.4462 N   0  0  0  0  0  0  0  0  0  0  0  0
  -23.2974  -18.7824   25.4358 N   0  0  0  0  0  0  0  0  0  0  0  0
  -24.0461  -28.4071   24.1787 N   0  0  0  0  0  0  0  0  0  0  0  0
  -24.6444  -14.5696   24.5226 N   0  0  0  0  0  0  0  0  0  0  0  0
  -29.1765  -19.2884   20.6737 N   0  0  0  0  0  0  0  0  0  0  0  0
  -29.1953  -25.5588   18.7458 N   0  0  0  0  0  0  0  0  0  0  0  0
  -20.9569  -23.6642   20.7275 N   0  0  0  0  0  0  0  0  0  0  0  0
  -23.2321  -26.3880   25.0728 N   0  3  0  0  0  0  0  0  0  0  0  0
  -26.4682  -27.8779   18.2435 N   0  3  0  0  0  0  0  0  0  0  0  0
  -24.7049  -16.2461   26.0860 O   0  0  0  0  0  0  0  0  0  0  0  0
  -29.5596  -21.0316   22.1693 O   0  0  0  0  0  0  0  0  0  0  0  0
  -29.4094  -22.7228   18.3998 O   0  0  0  0  0  0  0  0  0  0  0  0
  -28.0825  -26.8591   20.3104 O   0  0  0  0  0  0  0  0  0  0  0  0
  -22.8465  -22.3950   20.4569 O   0  0  0  0  0  0  0  0  0  0  0  0
  -23.5148  -11.6810   19.8949 O   0  0  0  0  0  0  0  0  0  0  0  0
  -25.5348  -23.8413   25.8560 O   0  0  0  0  0  0  0  0  0  1  0  0
  -22.7835   -6.9121   22.5644 F   0  0  0  0  0  0  0  0  0  0  0  0
  -19.6779  -26.9410   19.8282 F   0  0  0  0  0  0  0  0  0  0  0  0
  -25.1209  -10.9943   22.0377 F   0  0  0  0  0  0  0  0  0  0  0  0
  1  2  1  0  0  0  0
  1  6  2  0  0  0  0
  2  7  2  0  0  0  0
  3  9  2  0  0  0  0
  3 17  1  0  0  0  0
  4 10  1  0  0  0  0
  4 17  2  0  0  0  0
  5 13  2  0  0  0  0
  5 18  1  0  0  0  0
  6 20  1  0  0  0  0
  7 22  1  0  0  0  0
  8 11  2  0  0  0  0
  8 21  1  0  0  0  0
  9 26  1  0  0  0  0
 10 26  2  0  0  0  0
 11 27  1  0  0  0  0
 12 14  2  0  0  0  0
 12 28  1  0  0  0  0
 13 30  1  0  0  0  0
 14 29  1  0  0  0  0
 15 23  1  0  0  0  0
 15 27  2  0  0  0  0
 16 29  2  0  0  0  0
 16 31  1  0  0  0  0
 17 32  1  0  0  0  0
 18 24  2  0  0  0  0
 18 34  1  0  0  0  0
 19 32  1  0  0  0  0
 19 33  2  0  0  0  0
 19 35  1  0  0  0  0
 20 22  2  0  0  0  0
 20 40  1  0  0  0  0
 21 23  2  0  0  0  0
 21 41  1  0  0  0  0
 22 49  1  0  0  0  0
 23 42  1  0  0  0  0
 24 25  1  0  0  0  0
 24 52  1  0  0  0  0
 25 30  2  0  0  0  0
 25 60  1  0  0  0  0
 26 84  1  0  0  0  0
 27 85  1  0  0  0  0
 28 31  2  0  0  0  0
 28 84  1  0  0  0  0
 29 86  1  0  0  0  0
 30 87  1  0  0  0  0
 31 88  1  0  0  0  0
 32 67  2  0  0  0  0
 33 68  1  0  0  0  0
 33 71  1  0  0  0  0
 34 72  1  0  0  0  0
 34 77  2  0  0  0  0
 35 73  1  0  0  0  0
 35 79  2  0  0  0  0
 36 50  1  0  0  0  0
 36 74  1  0  0  0  0
 36 80  2  0  0  0  0
 37 63  1  0  0  0  0
 37 69  1  0  0  0  0
 37 81  2  0  0  0  0
 38 64  1  0  0  0  0
 38 75  1  0  0  0  0
 38 82  2  0  0  0  0
 39 70  1  0  0  0  0
 39 76  1  0  0  0  0
 39 83  2  0  0  0  0
 40 43  1  0  0  0  0
 41 50  1  0  0  0  0
 42 69  1  0  0  0  0
 43 45  1  0  0  0  0
 44 46  1  0  0  0  0
 44 47  1  0  0  0  0
 45 49  1  0  0  0  0
 46 51  1  0  0  0  0
 47 70  1  0  0  0  0
 48 51  1  0  0  0  0
 48 70  1  0  0  0  0
 49 74  1  0  0  0  0
 50 69  1  0  0  0  0
 51 68  1  0  0  0  0
 53 64  1  0  0  0  0
 54 65  1  0  0  0  0
 55 65  1  0  0  0  0
 56 65  1  0  0  0  0
 57 66  1  0  0  0  0
 58 66  1  0  0  0  0
 59 78  1  0  0  0  0
 60 76  1  0  0  0  0
 61 66  1  0  0  0  0
 61 77  1  0  0  0  0
 62 66  1  0  0  0  0
 62 85  1  0  0  0  0
 63 65  1  0  0  0  0
 63 75  1  0  0  0  0
 64 78  1  0  0  0  0
 67 68  1  0  0  0  0
M  CHG  2  77   1  78   1
M  ISO  4  39 100  62 101  76 100  85 101
M  END
> <Batch ID>
0049

> <Smiles>
CNC(C)C(=O)NC(C(=O)N1Cc2cc([101O:1][101CH2:1]C(C)(C)CNC(=N)c3ccc(F)c(C[100NH:0][100C:0](=O)N4CCCC(n5nc(-c6ccc(Oc7ccc(F)cc7F)cc6)c(C(N)=O)c5N)C4)c3C)ccc2CC1C(=O)NC1CCCc2ccccc21)C(C)(C)C

> <Shape>
0.208

> <Color>
0.044

> <Negative vol penalty>
0.000

$$$$

  -OEChem-04042322323D

 88 97  0     1  0  0  0  0  0999 V2000
  -27.4667  -28.9495   14.3335 C   0  0  0  0  0  0  0  0  0  0  0  0
  -27.9500  -28.1355   15.3529 C   0  0  0  0  0  0  0  0  0  0  0  0
  -23.1108   -9.6364   20.0506 C   0  0  0  0  0  0  0  0  0  0  0  0
  -24.2860   -9.5250   22.1586 C   0  0  0  0  0  0  0  0  0  0  0  0
  -27.1623  -30.2849   14.5944 C   0  0  0  0  0  0  0  0  0  0  0  0
  -28.1302  -28.6567   16.6337 C   0  0  0  0  0  0  0  0  0  0  0  0
  -26.3857  -25.5708   20.2501 C   0  0  0  0  0  0  0  0  0  0  0  0
  -22.5041   -8.4105   20.3240 C   0  0  0  0  0  0  0  0  0  0  0  0
  -23.6793   -8.2990   22.4320 C   0  0  0  0  0  0  0  0  0  0  0  0
  -27.1800  -24.4769   20.5914 C   0  0  0  0  0  0  0  0  0  0  0  0
  -20.6810   -7.1964   23.5344 C   0  0  0  0  0  0  0  0  0  0  0  0
  -20.1618   -7.0032   24.8145 C   0  0  0  0  0  0  0  0  0  0  0  0
  -27.9910  -25.6756   22.5214 C   0  0  0  0  0  0  0  0  0  0  0  0
  -31.8625  -16.5072   24.0408 C   0  0  0  0  0  0  0  0  0  0  0  0
  -29.5063  -17.5986   25.0606 C   0  0  0  0  0  0  0  0  0  0  0  0
  -21.6435   -5.1213   25.1313 C   0  0  0  0  0  0  0  0  0  0  0  0
  -24.0018  -10.1936   20.9679 C   0  0  0  0  0  0  0  0  0  0  0  0
  -23.9903  -12.6944   20.4645 C   0  0  0  0  0  0  0  0  0  0  0  0
  -27.3296  -30.8202   15.8813 C   0  0  0  0  0  0  0  0  0  0  0  0
  -26.3965  -26.7313   21.0372 C   0  0  0  0  0  0  0  0  0  0  0  0
  -27.8289  -30.0009   16.9117 C   0  0  0  0  0  0  0  0  0  0  0  0
  -27.1941  -26.7818   22.1893 C   0  0  0  0  0  0  0  0  0  0  0  0
  -31.7318  -17.8902   24.1666 C   0  0  0  0  0  0  0  0  0  0  0  0
  -29.6370  -16.2155   24.9347 C   0  0  0  0  0  0  0  0  0  0  0  0
  -30.8151  -15.6699   24.4248 C   0  0  0  0  0  0  0  0  0  0  0  0
  -30.5537  -18.4359   24.6765 C   0  0  0  0  0  0  0  0  0  0  0  0
  -22.7883   -7.7418   21.5147 C   0  0  0  0  0  0  0  0  0  0  0  0
  -27.9849  -24.5303   21.7256 C   0  0  0  0  0  0  0  0  0  0  0  0
  -21.6814   -6.3521   23.0527 C   0  0  0  0  0  0  0  0  0  0  0  0
  -20.6431   -5.9657   25.6130 C   0  0  0  0  0  0  0  0  0  0  0  0
  -22.1626   -5.3145   23.8512 C   0  0  0  0  0  0  0  0  0  0  0  0
  -24.6292  -11.4597   20.6858 C   0  0  0  0  0  0  0  0  0  0  0  0
  -25.0182  -13.5779   20.2424 C   0  0  0  0  0  0  0  0  0  0  0  0
  -29.2876  -20.5504   22.7573 C   0  0  0  0  0  0  0  0  0  0  0  0
  -29.2732  -19.7107   21.7110 C   0  0  0  0  0  0  0  0  0  0  0  0
  -22.5927  -13.0142   20.4601 C   0  0  0  0  0  0  0  0  0  0  0  0
  -27.1931  -29.7687   20.5442 C   0  0  0  0  0  0  0  0  0  0  0  0
  -26.0102  -30.1589   23.5393 C   0  0  0  0  0  0  0  0  0  0  0  0
  -26.1476  -28.3829   26.6768 C   0  0  0  0  0  0  0  0  0  0  0  0
  -30.7794  -13.6235   21.8726 C   0  0  0  0  0  0  0  0  0  0  0  0
  -27.0317  -32.2818   16.1039 C   0  0  0  0  0  0  0  0  0  0  0  0
  -25.5138  -27.8926   20.6703 C   0  0  0  0  0  0  0  0  0  0  0  0
  -27.2262  -27.9967   23.0790 C   0  0  0  0  0  0  0  0  0  0  0  0
  -28.1059  -21.4028   23.1418 C   0  0  0  0  0  0  0  0  0  0  0  0
  -26.8963  -32.6583   17.5770 C   0  0  0  0  0  0  0  0  0  0  0  0
  -29.4916  -13.7706   18.5565 C   0  0  0  0  0  0  0  0  0  0  0  0
  -28.0376  -32.0548   18.3894 C   0  0  0  0  0  0  0  0  0  0  0  0
  -28.0418  -13.3065   18.7062 C   0  0  0  0  0  0  0  0  0  0  0  0
  -29.7901  -22.9796   24.1796 C   0  0  0  0  0  0  0  0  0  0  0  0
  -30.4265  -13.0141   19.4976 C   0  0  0  0  0  0  0  0  0  0  0  0
  -28.5781  -12.5737   21.0672 C   0  0  0  0  0  0  0  0  0  0  0  0
  -30.9237  -22.1032   23.6487 C   0  0  0  0  0  0  0  0  0  0  0  0
  -28.0144  -30.5231   18.3199 C   0  0  1  0  0  0  0  0  0  0  0  0
  -25.9924  -29.2163   21.2588 C   0  0  1  0  0  0  0  0  0  0  0  0
  -27.5892  -13.3470   20.1782 C   0  0  2  0  0  0  0  0  0  0  0  0
  -28.5235  -22.8612   23.3320 C   0  0  1  0  0  0  0  0  0  1  0  0
  -32.8669  -18.7667   23.7496 C   0  0  0  0  0  0  0  0  0  0  0  0
  -28.5019  -15.3390   25.3516 C   0  0  0  0  0  0  0  0  0  0  0  0
  -24.5305  -28.3322   28.5951 C   0  0  0  0  0  0  0  0  0  0  0  0
  -27.7544  -32.3818   24.6909 C   0  0  0  0  0  0  0  0  0  0  0  0
  -27.4318  -31.3660   26.9563 C   0  0  0  0  0  0  0  0  0  0  0  0
  -25.4656  -32.2296   25.6872 C   0  0  0  0  0  0  0  0  0  0  0  0
  -25.9431  -25.4321   26.5776 C   0  0  0  0  0  0  0  0  0  0  0  0
  -30.9776  -14.1923   24.2802 C   0  0  0  0  0  0  0  0  0  0  0  0
  -30.3905  -19.9202   24.8216 C   0  0  0  0  0  0  0  0  0  0  0  0
  -26.5860  -30.0923   24.9332 C   0  0  1  0  0  0  0  0  0  0  0  0
  -25.0143  -27.6216   27.3406 C   0  0  2  0  0  0  0  0  0  0  0  0
  -26.8203  -31.5021   25.5456 C   0  0  0  0  0  0  0  0  0  0  0  0
  -25.9599  -11.5469   20.6110 N   0  0  0  0  0  0  0  0  0  0  0  0
  -26.1656  -12.8470   20.3401 N   0  0  0  0  0  0  0  0  0  0  0  0
  -26.3502  -29.1088   22.6746 N   0  0  0  0  0  0  0  0  0  0  0  0
  -29.9417  -13.0928   20.8778 N   0  0  0  0  0  0  0  0  0  0  0  0
  -25.0435  -14.9009   19.9750 N   0  0  0  0  0  0  0  0  0  0  0  0
  -21.9932  -13.4064   21.6647 N   0  0  0  0  0  0  0  0  0  0  0  0
  -26.9915  -29.9928   19.1956 N   0  0  0  0  0  0  0  0  0  0  0  0
  -25.6837  -29.2469   25.7076 N   0  0  0  0  0  0  0  0  0  0  0  0
  -30.2401  -13.6677   23.1524 N   0  0  0  0  0  0  0  0  0  0  0  0
  -30.5093  -20.6564   23.5158 N   0  3  1  0  0  0  0  0  0  0  0  0
  -25.4626  -26.2518   27.7196 N   0  3  0  0  0  0  0  0  0  0  0  0
  -21.8924  -12.9382   19.4221 O   0  0  0  0  0  0  0  0  0  0  0  0
  -28.2257  -29.9777   21.1702 O   0  0  0  0  0  0  0  0  0  0  0  0
  -25.2797  -31.1039   23.2312 O   0  0  0  0  0  0  0  0  0  0  0  0
  -27.3262  -28.2294   26.9897 O   0  0  0  0  0  0  0  0  0  0  0  0
  -31.9213  -14.0327   21.6367 O   0  0  0  0  0  0  0  0  0  0  0  0
  -22.1964   -6.5457   21.7819 O   0  0  0  0  0  0  0  0  0  0  0  0
  -28.7616  -23.4642   22.0606 O   0  0  0  0  0  0  0  0  0  1  0  0
  -20.1455   -5.7812   26.8428 F   0  0  0  0  0  0  0  0  0  0  0  0
  -23.1244   -4.5008   23.3943 F   0  0  0  0  0  0  0  0  0  0  0  0
  1  2  1  0  0  0  0
  1  5  2  0  0  0  0
  2  6  2  0  0  0  0
  3  8  2  0  0  0  0
  3 17  1  0  0  0  0
  4  9  1  0  0  0  0
  4 17  2  0  0  0  0
  5 19  1  0  0  0  0
  6 21  1  0  0  0  0
  7 10  2  0  0  0  0
  7 20  1  0  0  0  0
  8 27  1  0  0  0  0
  9 27  2  0  0  0  0
 10 28  1  0  0  0  0
 11 12  2  0  0  0  0
 11 29  1  0  0  0  0
 12 30  1  0  0  0  0
 13 22  1  0  0  0  0
 13 28  2  0  0  0  0
 14 23  1  0  0  0  0
 14 25  2  0  0  0  0
 15 24  2  0  0  0  0
 15 26  1  0  0  0  0
 16 30  2  0  0  0  0
 16 31  1  0  0  0  0
 17 32  1  0  0  0  0
 18 32  1  0  0  0  0
 18 33  2  0  0  0  0
 18 36  1  0  0  0  0
 19 21  2  0  0  0  0
 19 41  1  0  0  0  0
 20 22  2  0  0  0  0
 20 42  1  0  0  0  0
 21 53  1  0  0  0  0
 22 43  1  0  0  0  0
 23 26  2  0  0  0  0
 23 57  1  0  0  0  0
 24 25  1  0  0  0  0
 24 58  1  0  0  0  0
 25 64  1  0  0  0  0
 26 65  1  0  0  0  0
 27 85  1  0  0  0  0
 28 86  1  0  0  0  0
 29 31  2  0  0  0  0
 29 85  1  0  0  0  0
 30 87  1  0  0  0  0
 31 88  1  0  0  0  0
 32 69  2  0  0  0  0
 33 70  1  0  0  0  0
 33 73  1  0  0  0  0
 34 35  2  0  0  0  0
 34 44  1  0  0  0  0
 34 78  1  0  0  0  0
 36 74  1  0  0  0  0
 36 80  2  0  0  0  0
 37 54  1  0  0  0  0
 37 75  1  0  0  0  0
 37 81  2  0  0  0  0
 38 66  1  0  0  0  0
 38 71  1  0  0  0  0
 38 82  2  0  0  0  0
 39 67  1  0  0  0  0
 39 76  1  0  0  0  0
 39 83  2  0  0  0  0
 40 72  1  0  0  0  0
 40 77  1  0  0  0  0
 40 84  2  0  0  0  0
 41 45  1  0  0  0  0
 42 54  1  0  0  0  0
 43 71  1  0  0  0  0
 44 56  1  0  0  0  0
 45 47  1  0  0  0  0
 46 48  1  0  0  0  0
 46 50  1  0  0  0  0
 47 53  1  0  0  0  0
 48 55  1  0  0  0  0
 49 52  1  0  0  0  0
 49 56  1  0  0  0  0
 50 72  1  0  0  0  0
 51 55  1  0  0  0  0
 51 72  1  0  0  0  0
 52 78  1  0  0  0  0
 53 75  1  0  0  0  0
 54 71  1  0  0  0  0
 55 70  1  0  0  0  0
 56 86  1  0  0  0  0
 59 67  1  0  0  0  0
 60 68  1  0  0  0  0
 61 68  1  0  0  0  0
 62 68  1  0  0  0  0
 63 79  1  0  0  0  0
 64 77  1  0  0  0  0
 65 78  1  0  0  0  0
 66 68  1  0  0  0  0
 66 76  1  0  0  0  0
 67 79  1  0  0  0  0
 69 70  1  0  0  0  0
M  CHG  2  78   1  79   1
M  ISO  4  40 100  56 101  77 100  86 101
M  END
> <Batch ID>
0049

> <Smiles>
C=C1C[101CH:1]([101O:1]c2ccc3c(c2)CN(C(=O)C(NC(=O)C(C)NC)C(C)(C)C)C(C(=O)NC2CCCc4ccccc42)C3)CCN1Cc1cc(C)c(C[100NH:0][100C:0](=O)N2CCCC(n3nc(-c4ccc(Oc5ccc(F)cc5F)cc4)c(C(N)=O)c3N)C2)cc1C

> <Shape>
0.242

> <Color>
0.143

> <Negative vol penalty>
0.000

$$$$

  -OEChem-04042322323D

 90 99  0     1  0  0  0  0  0999 V2000
  -30.7665  -23.0259   27.3808 C   0  0  0  0  0  0  0  0  0  0  0  0
  -29.5779  -23.1783   26.6741 C   0  0  0  0  0  0  0  0  0  0  0  0
  -30.8600  -24.8889   20.9926 C   0  0  0  0  0  0  0  0  0  0  0  0
  -31.1707  -27.0397   19.9368 C   0  0  0  0  0  0  0  0  0  0  0  0
  -31.7408  -22.1406   26.9214 C   0  0  0  0  0  0  0  0  0  0  0  0
  -29.3634  -22.4463   25.5069 C   0  0  0  0  0  0  0  0  0  0  0  0
  -24.7212  -20.4331   25.3021 C   0  0  0  0  0  0  0  0  0  0  0  0
  -32.1815  -24.9165   21.4379 C   0  0  0  0  0  0  0  0  0  0  0  0
  -32.4923  -27.0673   20.3822 C   0  0  0  0  0  0  0  0  0  0  0  0
  -23.6731  -21.2836   24.9528 C   0  0  0  0  0  0  0  0  0  0  0  0
  -35.3664  -24.5866   23.1592 C   0  0  0  0  0  0  0  0  0  0  0  0
  -35.6129  -24.2180   24.4817 C   0  0  0  0  0  0  0  0  0  0  0  0
  -20.5973  -27.0370   22.9444 C   0  0  0  0  0  0  0  0  0  0  0  0
  -23.7407  -20.4305   22.6973 C   0  0  0  0  0  0  0  0  0  0  0  0
  -19.1682  -28.9491   22.5721 C   0  0  0  0  0  0  0  0  0  0  0  0
  -34.1897  -26.0139   25.2475 C   0  0  0  0  0  0  0  0  0  0  0  0
  -30.3546  -25.9504   20.2419 C   0  0  0  0  0  0  0  0  0  0  0  0
  -28.3970  -24.9639   18.9371 C   0  0  0  0  0  0  0  0  0  0  0  0
  -31.5340  -21.3902   25.7532 C   0  0  0  0  0  0  0  0  0  0  0  0
  -25.2950  -19.5813   24.3474 C   0  0  0  0  0  0  0  0  0  0  0  0
  -30.3363  -21.5511   25.0307 C   0  0  0  0  0  0  0  0  0  0  0  0
  -19.5661  -26.1881   22.5427 C   0  0  0  0  0  0  0  0  0  0  0  0
  -24.7941  -19.5683   23.0377 C   0  0  0  0  0  0  0  0  0  0  0  0
  -20.3984  -28.4176   22.9592 C   0  0  0  0  0  0  0  0  0  0  0  0
  -18.3359  -26.7196   22.1557 C   0  0  0  0  0  0  0  0  0  0  0  0
  -32.9977  -26.0057   21.1328 C   0  0  0  0  0  0  0  0  0  0  0  0
  -23.1846  -21.2845   23.6495 C   0  0  0  0  0  0  0  0  0  0  0  0
  -34.5316  -25.6689   22.8809 C   0  0  0  0  0  0  0  0  0  0  0  0
  -35.0246  -24.9316   25.5258 C   0  0  0  0  0  0  0  0  0  0  0  0
  -33.9433  -26.3826   23.9250 C   0  0  0  0  0  0  0  0  0  0  0  0
  -18.1370  -28.1002   22.1704 C   0  0  0  0  0  0  0  0  0  0  0  0
  -28.9897  -25.9222   19.7811 C   0  0  0  0  0  0  0  0  0  0  0  0
  -27.0961  -25.3832   18.8018 C   0  0  0  0  0  0  0  0  0  0  0  0
  -20.8973  -24.2568   21.5628 C   0  0  0  0  0  0  0  0  0  0  0  0
  -28.9711  -23.7989   18.3298 C   0  0  0  0  0  0  0  0  0  0  0  0
  -20.6077  -23.8911   20.3034 C   0  0  0  0  0  0  0  0  0  0  0  0
  -28.1905  -19.2660   23.0744 C   0  0  0  0  0  0  0  0  0  0  0  0
  -26.8659  -16.6553   21.6774 C   0  0  0  0  0  0  0  0  0  0  0  0
  -24.0449  -15.0560   20.6138 C   0  0  0  0  0  0  0  0  0  0  0  0
  -23.6224  -28.6217   22.3090 C   0  0  0  0  0  0  0  0  0  0  0  0
  -32.6359  -20.4809   25.2700 C   0  0  0  0  0  0  0  0  0  0  0  0
  -26.4071  -18.6506   24.7468 C   0  0  0  0  0  0  0  0  0  0  0  0
  -25.3620  -18.6583   21.9805 C   0  0  0  0  0  0  0  0  0  0  0  0
  -22.3083  -24.1883   22.0931 C   0  0  0  0  0  0  0  0  0  0  0  0
  -32.1743  -19.4647   24.2285 C   0  0  0  0  0  0  0  0  0  0  0  0
  -24.4148  -29.3474   18.8531 C   0  0  0  0  0  0  0  0  0  0  0  0
  -31.3217  -20.1437   23.1614 C   0  0  0  0  0  0  0  0  0  0  0  0
  -25.6318  -28.4491   18.6250 C   0  0  0  0  0  0  0  0  0  0  0  0
  -24.4227  -29.9429   20.2580 C   0  0  0  0  0  0  0  0  0  0  0  0
  -25.7212  -28.0372   21.1275 C   0  0  0  0  0  0  0  0  0  0  0  0
  -21.3899  -24.0854   24.4752 C   0  0  0  0  0  0  0  0  0  0  0  0
  -19.8124  -24.6830   22.5367 C   0  0  1  0  0  0  0  0  0  0  0  0
  -30.0562  -20.7563   23.7737 C   0  0  1  0  0  0  0  0  0  0  0  0
  -27.2582  -18.1949   23.5655 C   0  0  1  0  0  0  0  0  0  0  0  0
  -25.7595  -27.3866   19.7327 C   0  0  2  0  0  0  0  0  0  0  0  0
  -22.3813  -23.5159   23.4647 C   0  0  1  0  0  0  0  0  0  1  0  0
  -17.2394  -25.7945   21.7280 C   0  0  0  0  0  0  0  0  0  0  0  0
  -19.2110  -23.9536   19.7622 C   0  0  0  0  0  0  0  0  0  0  0  0
  -21.6631  -23.3969   19.3603 C   0  0  0  0  0  0  0  0  0  0  0  0
  -23.2829  -12.9531   19.4761 C   0  0  0  0  0  0  0  0  0  0  0  0
  -27.8059  -17.7679   18.9963 C   0  0  0  0  0  0  0  0  0  0  0  0
  -26.2353  -16.1796   17.8654 C   0  0  0  0  0  0  0  0  0  0  0  0
  -28.1043  -15.2994   19.2636 C   0  0  0  0  0  0  0  0  0  0  0  0
  -18.9495  -24.4205   24.9263 C   0  0  0  0  0  0  0  0  0  0  0  0
  -22.4420  -14.2294   22.9604 C   0  0  0  0  0  0  0  0  0  0  0  0
  -21.5017  -29.3248   23.3885 C   0  0  0  0  0  0  0  0  0  0  0  0
  -26.1225  -16.3931   20.3899 C   0  0  1  0  0  0  0  0  0  0  0  0
  -23.5608  -13.6306   20.8090 C   0  0  2  0  0  0  0  0  0  0  0  0
  -27.0574  -16.4287   19.1480 C   0  0  0  0  0  0  0  0  0  0  0  0
  -28.1354  -26.8783   20.1555 N   0  0  0  0  0  0  0  0  0  0  0  0
  -26.9928  -26.5229   19.5438 N   0  0  0  0  0  0  0  0  0  0  0  0
  -26.4525  -17.7714   22.4185 N   0  0  0  0  0  0  0  0  0  0  0  0
  -24.5274  -28.8781   21.2656 N   0  0  0  0  0  0  0  0  0  0  0  0
  -26.0420  -24.8845   18.1216 N   0  0  0  0  0  0  0  0  0  0  0  0
  -29.5570  -23.9257   17.0629 N   0  0  0  0  0  0  0  0  0  0  0  0
  -29.0717  -19.7279   24.0335 N   0  0  0  0  0  0  0  0  0  0  0  0
  -25.4213  -15.1270   20.5739 N   0  0  0  0  0  0  0  0  0  0  0  0
  -22.5220  -29.4678   22.3739 N   0  0  0  0  0  0  0  0  0  0  0  0
  -19.9882  -24.0173   23.9138 N   0  3  2  0  0  0  0  0  0  0  0  0
  -22.3071  -13.6150   21.6145 N   0  3  0  0  0  0  0  0  0  0  0  0
  -28.9502  -22.6751   18.8868 O   0  0  0  0  0  0  0  0  0  0  0  0
  -28.1170  -19.6442   21.9112 O   0  0  0  0  0  0  0  0  0  0  0  0
  -27.7749  -15.8936   22.0167 O   0  0  0  0  0  0  0  0  0  0  0  0
  -23.2785  -16.0106   20.5036 O   0  0  0  0  0  0  0  0  0  0  0  0
  -23.7804  -27.7029   23.1201 O   0  0  0  0  0  0  0  0  0  0  0  0
  -34.2872  -26.0332   21.5674 O   0  0  0  0  0  0  0  0  0  0  0  0
  -22.1622  -22.1141   23.3057 O   0  0  0  0  0  0  0  0  0  1  0  0
  -35.2602  -24.5766   26.7957 F   0  0  0  0  0  0  0  0  0  0  0  0
  -33.1394  -27.4225   23.6638 F   0  0  0  0  0  0  0  0  0  0  0  0
  -16.6300  -28.7969   21.6962 Cl  0  0  0  0  0  0  0  0  0  0  0  0
  1  2  1  0  0  0  0
  1  5  2  0  0  0  0
  2  6  2  0  0  0  0
  3  8  2  0  0  0  0
  3 17  1  0  0  0  0
  4  9  1  0  0  0  0
  4 17  2  0  0  0  0
  5 19  1  0  0  0  0
  6 21  1  0  0  0  0
  7 10  2  0  0  0  0
  7 20  1  0  0  0  0
  8 26  1  0  0  0  0
  9 26  2  0  0  0  0
 10 27  1  0  0  0  0
 11 12  2  0  0  0  0
 11 28  1  0  0  0  0
 12 29  1  0  0  0  0
 13 22  1  0  0  0  0
 13 24  2  0  0  0  0
 14 23  1  0  0  0  0
 14 27  2  0  0  0  0
 15 24  1  0  0  0  0
 15 31  2  0  0  0  0
 16 29  2  0  0  0  0
 16 30  1  0  0  0  0
 17 32  1  0  0  0  0
 18 32  1  0  0  0  0
 18 33  2  0  0  0  0
 18 35  1  0  0  0  0
 19 21  2  0  0  0  0
 19 41  1  0  0  0  0
 20 23  2  0  0  0  0
 20 42  1  0  0  0  0
 21 53  1  0  0  0  0
 22 25  2  0  0  0  0
 22 52  1  0  0  0  0
 23 43  1  0  0  0  0
 24 66  1  0  0  0  0
 25 31  1  0  0  0  0
 25 57  1  0  0  0  0
 26 86  1  0  0  0  0
 27 87  1  0  0  0  0
 28 30  2  0  0  0  0
 28 86  1  0  0  0  0
 29 88  1  0  0  0  0
 30 89  1  0  0  0  0
 31 90  1  0  0  0  0
 32 70  2  0  0  0  0
 33 71  1  0  0  0  0
 33 74  1  0  0  0  0
 34 36  2  0  0  0  0
 34 44  1  0  0  0  0
 34 52  1  0  0  0  0
 35 75  1  0  0  0  0
 35 81  2  0  0  0  0
 36 58  1  0  0  0  0
 36 59  1  0  0  0  0
 37 54  1  0  0  0  0
 37 76  1  0  0  0  0
 37 82  2  0  0  0  0
 38 67  1  0  0  0  0
 38 72  1  0  0  0  0
 38 83  2  0  0  0  0
 39 68  1  0  0  0  0
 39 77  1  0  0  0  0
 39 84  2  0  0  0  0
 40 73  1  0  0  0  0
 40 78  1  0  0  0  0
 40 85  2  0  0  0  0
 41 45  1  0  0  0  0
 42 54  1  0  0  0  0
 43 72  1  0  0  0  0
 44 56  1  0  0  0  0
 45 47  1  0  0  0  0
 46 48  1  0  0  0  0
 46 49  1  0  0  0  0
 47 53  1  0  0  0  0
 48 55  1  0  0  0  0
 49 73  1  0  0  0  0
 50 55  1  0  0  0  0
 50 73  1  0  0  0  0
 51 56  1  0  0  0  0
 51 79  1  0  0  0  0
 52 79  1  0  0  0  0
 53 76  1  0  0  0  0
 54 72  1  0  0  0  0
 55 71  1  0  0  0  0
 56 87  1  0  0  0  0
 60 68  1  0  0  0  0
 61 69  1  0  0  0  0
 62 69  1  0  0  0  0
 63 69  1  0  0  0  0
 64 79  1  0  0  0  0
 65 80  1  0  0  0  0
 66 78  1  0  0  0  0
 67 69  1  0  0  0  0
 67 77  1  0  0  0  0
 68 80  1  0  0  0  0
 70 71  1  0  0  0  0
M  CHG  2  79   1  80   1
M  ISO  4  40 100  56 101  78 100  87 101
M  END
> <Batch ID>
0049

> <Smiles>
CNC(C)C(=O)NC(C(=O)N1Cc2cc([101O:1][101CH:1]3CC(=C(C)C)C(c4cc(C[100NH:0][100C:0](=O)N5CCCC(n6nc(-c7ccc(Oc8ccc(F)cc8F)cc7)c(C(N)=O)c6N)C5)cc(Cl)c4C)N(C)C3)ccc2CC1C(=O)NC1CCCc2ccccc21)C(C)(C)C

> <Shape>
0.179

> <Color>
0.097

> <Negative vol penalty>
0.000

$$$$

  -OEChem-04042322323D

 84 92  0     1  0  0  0  0  0999 V2000
  -20.3581  -23.8606   21.9001 C   0  0  0  0  0  0  0  0  0  0  0  0
  -21.3898  -24.4322   21.1623 C   0  0  0  0  0  0  0  0  0  0  0  0
  -26.7082  -12.9224   20.9780 C   0  0  0  0  0  0  0  0  0  0  0  0
  -26.7162  -13.0267   18.5643 C   0  0  0  0  0  0  0  0  0  0  0  0
  -19.4120  -24.6754   22.5206 C   0  0  0  0  0  0  0  0  0  0  0  0
  -21.4754  -25.8189   21.0438 C   0  0  0  0  0  0  0  0  0  0  0  0
  -26.1915  -27.5385   21.7119 C   0  0  0  0  0  0  0  0  0  0  0  0
  -26.2024  -11.6238   20.9202 C   0  0  0  0  0  0  0  0  0  0  0  0
  -26.2104  -11.7280   18.5065 C   0  0  0  0  0  0  0  0  0  0  0  0
  -27.0770  -27.3998   20.6440 C   0  0  0  0  0  0  0  0  0  0  0  0
  -24.5702   -8.4116   21.4117 C   0  0  0  0  0  0  0  0  0  0  0  0
  -23.5191   -8.0847   22.2684 C   0  0  0  0  0  0  0  0  0  0  0  0
  -26.7144  -29.7098   20.0510 C   0  0  0  0  0  0  0  0  0  0  0  0
  -27.9011  -23.3069   16.1032 C   0  0  0  0  0  0  0  0  0  0  0  0
  -29.7535  -23.7682   14.6225 C   0  0  0  0  0  0  0  0  0  0  0  0
  -29.8797  -21.9224   16.1762 C   0  0  0  0  0  0  0  0  0  0  0  0
  -22.1595   -9.8072   21.2576 C   0  0  0  0  0  0  0  0  0  0  0  0
  -26.9650  -13.6239   19.8000 C   0  0  0  0  0  0  0  0  0  0  0  0
  -28.8408  -15.3510   19.8800 C   0  0  0  0  0  0  0  0  0  0  0  0
  -19.4916  -26.0731   22.4176 C   0  0  0  0  0  0  0  0  0  0  0  0
  -25.5513  -28.7630   21.9512 C   0  0  0  0  0  0  0  0  0  0  0  0
  -20.5287  -26.6531   21.6624 C   0  0  0  0  0  0  0  0  0  0  0  0
  -25.8231  -29.8621   21.1241 C   0  0  0  0  0  0  0  0  0  0  0  0
  -28.4765  -24.0760   15.0918 C   0  0  0  0  0  0  0  0  0  0  0  0
  -28.6027  -22.2301   16.6455 C   0  0  0  0  0  0  0  0  0  0  0  0
  -25.9536  -11.0266   19.6845 C   0  0  0  0  0  0  0  0  0  0  0  0
  -27.3364  -28.4847   19.8117 C   0  0  0  0  0  0  0  0  0  0  0  0
  -24.4160   -9.4364   20.4780 C   0  0  0  0  0  0  0  0  0  0  0  0
  -22.3138   -8.7824   22.1913 C   0  0  0  0  0  0  0  0  0  0  0  0
  -23.2107  -10.1342   20.4010 C   0  0  0  0  0  0  0  0  0  0  0  0
  -30.4551  -22.6914   15.1647 C   0  0  0  0  0  0  0  0  0  0  0  0
  -27.4869  -14.9656   19.8590 C   0  0  0  0  0  0  0  0  0  0  0  0
  -28.8064  -16.7228   19.9383 C   0  0  0  0  0  0  0  0  0  0  0  0
  -30.0236  -14.5413   19.8493 C   0  0  0  0  0  0  0  0  0  0  0  0
  -22.5278  -29.7429   21.9930 C   0  0  0  0  0  0  0  0  0  0  0  0
  -23.8478  -32.5110   23.0503 C   0  0  0  0  0  0  0  0  0  0  0  0
  -27.7459  -27.1323   16.1246 C   0  0  0  0  0  0  0  0  0  0  0  0
  -26.5923  -34.5323   23.2208 C   0  0  0  0  0  0  0  0  0  0  0  0
  -26.7617  -21.6200   18.2533 C   0  0  0  0  0  0  0  0  0  0  0  0
  -18.4186  -26.9111   23.0666 C   0  0  0  0  0  0  0  0  0  0  0  0
  -24.6192  -28.9037   23.1233 C   0  0  0  0  0  0  0  0  0  0  0  0
  -25.1772  -31.2038   21.3505 C   0  0  0  0  0  0  0  0  0  0  0  0
  -18.7955  -28.3840   23.2035 C   0  0  0  0  0  0  0  0  0  0  0  0
  -24.9474  -19.8883   20.7804 C   0  0  0  0  0  0  0  0  0  0  0  0
  -19.3853  -28.9076   21.8978 C   0  0  0  0  0  0  0  0  0  0  0  0
  -25.5577  -18.4849   20.7677 C   0  0  0  0  0  0  0  0  0  0  0  0
  -24.8593  -20.4812   19.3753 C   0  0  0  0  0  0  0  0  0  0  0  0
  -26.7285  -19.0725   18.6065 C   0  0  0  0  0  0  0  0  0  0  0  0
  -20.6695  -28.1541   21.5311 C   0  0  1  0  0  0  0  0  0  0  0  0
  -23.6301  -30.0544   22.9654 C   0  0  1  0  0  0  0  0  0  0  0  0
  -26.8976  -18.4600   20.0064 C   0  0  2  0  0  0  0  0  0  0  0  0
  -27.3543  -36.7477   24.1199 C   0  0  0  0  0  0  0  0  0  0  0  0
  -22.3648  -33.9336   20.7949 C   0  0  0  0  0  0  0  0  0  0  0  0
  -23.8704  -35.9036   21.1413 C   0  0  0  0  0  0  0  0  0  0  0  0
  -22.3594  -35.1526   22.9785 C   0  0  0  0  0  0  0  0  0  0  0  0
  -28.6410  -33.2618   24.9378 C   0  0  0  0  0  0  0  0  0  0  0  0
  -27.7216  -25.2354   14.5088 C   0  0  0  0  0  0  0  0  0  0  0  0
  -28.4637  -28.4487   16.3784 C   0  0  0  0  0  0  0  0  0  0  0  0
  -27.9635  -29.1678   17.6217 C   0  0  0  0  0  0  0  0  0  1  0  0
  -24.3856  -33.7587   22.3922 C   0  0  1  0  0  0  0  0  0  0  0  0
  -27.2399  -35.2552   24.3881 C   0  0  2  0  0  0  0  0  0  0  0  0
  -23.2559  -34.6614   21.8210 C   0  0  0  0  0  0  0  0  0  0  0  0
  -26.6533  -16.0084   19.9008 N   0  0  0  0  0  0  0  0  0  0  0  0
  -27.4856  -17.0625   19.9487 N   0  0  0  0  0  0  0  0  0  0  0  0
  -24.2686  -31.2894   22.5058 N   0  0  0  0  0  0  0  0  0  0  0  0
  -26.1663  -20.4278   18.7167 N   0  0  0  0  0  0  0  0  0  0  0  0
  -29.7775  -17.6596   19.9813 N   0  0  0  0  0  0  0  0  0  0  0  0
  -29.8786  -13.1486   19.7894 N   0  0  0  0  0  0  0  0  0  0  0  0
  -28.0185  -21.4494   17.6736 N   0  0  0  0  0  0  0  0  0  0  0  0
  -21.7799  -28.6303   22.3279 N   0  0  0  0  0  0  0  0  0  0  0  0
  -28.2258  -26.5034   14.9847 N   0  0  0  0  0  0  0  0  0  0  0  0
  -25.2286  -34.4137   23.3866 N   0  0  0  0  0  0  0  0  0  0  0  0
  -28.6068  -34.7163   24.6372 N   0  3  0  0  0  0  0  0  0  0  0  0
  -31.1750  -15.0374   19.8909 O   0  0  0  0  0  0  0  0  0  0  0  0
  -22.3667  -30.4599   21.0123 O   0  0  0  0  0  0  0  0  0  0  0  0
  -23.0881  -32.6163   24.0164 O   0  0  0  0  0  0  0  0  0  0  0  0
  -26.8557  -26.6995   16.8513 O   0  0  0  0  0  0  0  0  0  0  0  0
  -27.2317  -34.1177   22.2565 O   0  0  0  0  0  0  0  0  0  0  0  0
  -26.2103  -22.7155   18.3871 O   0  0  0  0  0  0  0  0  0  0  0  0
  -25.4603   -9.7593   19.6277 O   0  0  0  0  0  0  0  0  0  0  0  0
  -28.1998  -28.3518   18.7682 O   0  0  0  0  0  0  0  0  0  1  0  0
  -21.3039   -8.4673   23.0129 F   0  0  0  0  0  0  0  0  0  0  0  0
  -23.0563  -11.1189   19.5052 F   0  0  0  0  0  0  0  0  0  0  0  0
  -32.0315  -22.3128   14.5872 Cl  0  0  0  0  0  0  0  0  0  0  0  0
  1  2  1  0  0  0  0
  1  5  2  0  0  0  0
  2  6  2  0  0  0  0
  3  8  2  0  0  0  0
  3 18  1  0  0  0  0
  4  9  1  0  0  0  0
  4 18  2  0  0  0  0
  5 20  1  0  0  0  0
  6 22  1  0  0  0  0
  7 10  2  0  0  0  0
  7 21  1  0  0  0  0
  8 26  1  0  0  0  0
  9 26  2  0  0  0  0
 10 27  1  0  0  0  0
 11 12  2  0  0  0  0
 11 28  1  0  0  0  0
 12 29  1  0  0  0  0
 13 23  1  0  0  0  0
 13 27  2  0  0  0  0
 14 24  2  0  0  0  0
 14 25  1  0  0  0  0
 15 24  1  0  0  0  0
 15 31  2  0  0  0  0
 16 25  2  0  0  0  0
 16 31  1  0  0  0  0
 17 29  2  0  0  0  0
 17 30  1  0  0  0  0
 18 32  1  0  0  0  0
 19 32  1  0  0  0  0
 19 33  2  0  0  0  0
 19 34  1  0  0  0  0
 20 22  2  0  0  0  0
 20 40  1  0  0  0  0
 21 23  2  0  0  0  0
 21 41  1  0  0  0  0
 22 49  1  0  0  0  0
 23 42  1  0  0  0  0
 24 57  1  0  0  0  0
 25 69  1  0  0  0  0
 26 80  1  0  0  0  0
 27 81  1  0  0  0  0
 28 30  2  0  0  0  0
 28 80  1  0  0  0  0
 29 82  1  0  0  0  0
 30 83  1  0  0  0  0
 31 84  1  0  0  0  0
 32 63  2  0  0  0  0
 33 64  1  0  0  0  0
 33 67  1  0  0  0  0
 34 68  1  0  0  0  0
 34 74  2  0  0  0  0
 35 50  1  0  0  0  0
 35 70  1  0  0  0  0
 35 75  2  0  0  0  0
 36 60  1  0  0  0  0
 36 65  1  0  0  0  0
 36 76  2  0  0  0  0
 37 58  1  0  0  0  0
 37 71  1  0  0  0  0
 37 77  2  0  0  0  0
 38 61  1  0  0  0  0
 38 72  1  0  0  0  0
 38 78  2  0  0  0  0
 39 66  1  0  0  0  0
 39 69  1  0  0  0  0
 39 79  2  0  0  0  0
 40 43  1  0  0  0  0
 41 50  1  0  0  0  0
 42 65  1  0  0  0  0
 43 45  1  0  0  0  0
 44 46  1  0  0  0  0
 44 47  1  0  0  0  0
 45 49  1  0  0  0  0
 46 51  1  0  0  0  0
 47 66  1  0  0  0  0
 48 51  1  0  0  0  0
 48 66  1  0  0  0  0
 49 70  1  0  0  0  0
 50 65  1  0  0  0  0
 51 64  1  0  0  0  0
 52 61  1  0  0  0  0
 53 62  1  0  0  0  0
 54 62  1  0  0  0  0
 55 62  1  0  0  0  0
 56 73  1  0  0  0  0
 57 71  1  0  0  0  0
 58 59  1  0  0  0  0
 59 81  1  0  0  0  0
 60 62  1  0  0  0  0
 60 72  1  0  0  0  0
 61 73  1  0  0  0  0
 63 64  1  0  0  0  0
M  CHG  1  73   1
M  ISO  4  39 100  59 101  69 100  81 101
M  END
> <Batch ID>
0049

> <Smiles>
CNC(C)C(=O)NC(C(=O)N1Cc2cc([101O:1][101CH2:1]CC(=O)NCc3cc(Cl)cc([100NH:0][100C:0](=O)N4CCCC(n5nc(-c6ccc(Oc7ccc(F)cc7F)cc6)c(C(N)=O)c5N)C4)c3)ccc2CC1C(=O)NC1CCCc2ccccc21)C(C)(C)C

> <Shape>
0.256

> <Color>
0.115

> <Negative vol penalty>
0.000

$$$$

  -OEChem-04042322323D

 87 95  0     1  0  0  0  0  0999 V2000
  -30.1209  -27.7637   15.6312 C   0  0  0  0  0  0  0  0  0  0  0  0
  -28.7414  -27.6766   15.7890 C   0  0  0  0  0  0  0  0  0  0  0  0
  -26.2778  -16.6794   18.1825 C   0  0  0  0  0  0  0  0  0  0  0  0
  -24.8974  -16.7935   20.1621 C   0  0  0  0  0  0  0  0  0  0  0  0
  -21.1601  -23.8718   24.7077 C   0  0  0  0  0  0  0  0  0  0  0  0
  -30.9360  -27.9815   16.7411 C   0  0  0  0  0  0  0  0  0  0  0  0
  -28.1763  -27.8062   17.0572 C   0  0  0  0  0  0  0  0  0  0  0  0
  -22.7947  -30.3792   18.4441 C   0  0  0  0  0  0  0  0  0  0  0  0
  -22.1440  -22.9334   25.0187 C   0  0  0  0  0  0  0  0  0  0  0  0
  -26.6043  -15.3578   18.4863 C   0  0  0  0  0  0  0  0  0  0  0  0
  -25.2240  -15.4719   20.4659 C   0  0  0  0  0  0  0  0  0  0  0  0
  -21.5334  -29.8397   18.6926 C   0  0  0  0  0  0  0  0  0  0  0  0
  -28.6952  -13.7282   20.5832 C   0  0  0  0  0  0  0  0  0  0  0  0
  -30.0333  -13.3503   20.4727 C   0  0  0  0  0  0  0  0  0  0  0  0
  -21.9745  -29.9156   21.0630 C   0  0  0  0  0  0  0  0  0  0  0  0
  -29.4283  -11.6908   18.8242 C   0  0  0  0  0  0  0  0  0  0  0  0
  -25.4243  -17.3973   19.0204 C   0  0  0  0  0  0  0  0  0  0  0  0
  -21.5119  -25.0732   24.0923 C   0  0  0  0  0  0  0  0  0  0  0  0
  -24.0054  -19.2138   17.9274 C   0  0  0  0  0  0  0  0  0  0  0  0
  -30.3798  -28.1235   18.0222 C   0  0  0  0  0  0  0  0  0  0  0  0
  -23.6611  -30.6813   19.5046 C   0  0  0  0  0  0  0  0  0  0  0  0
  -28.9848  -28.0248   18.1855 C   0  0  0  0  0  0  0  0  0  0  0  0
  -23.2453  -30.4613   20.8255 C   0  0  0  0  0  0  0  0  0  0  0  0
  -23.4797  -23.1963   24.7145 C   0  0  0  0  0  0  0  0  0  0  0  0
  -22.8475  -25.3362   23.7881 C   0  0  0  0  0  0  0  0  0  0  0  0
  -23.8315  -24.3977   24.0992 C   0  0  0  0  0  0  0  0  0  0  0  0
  -26.0774  -14.7541   19.6280 C   0  0  0  0  0  0  0  0  0  0  0  0
  -21.1242  -29.6051   20.0021 C   0  0  0  0  0  0  0  0  0  0  0  0
  -27.7236  -13.0874   19.8144 C   0  0  0  0  0  0  0  0  0  0  0  0
  -30.3999  -12.3316   19.5932 C   0  0  0  0  0  0  0  0  0  0  0  0
  -28.0902  -12.0687   18.9349 C   0  0  0  0  0  0  0  0  0  0  0  0
  -25.0871  -18.7627   18.7073 C   0  0  0  0  0  0  0  0  0  0  0  0
  -24.1251  -20.5820   17.9330 C   0  0  0  0  0  0  0  0  0  0  0  0
  -20.4410  -26.0522   23.7730 C   0  0  0  0  0  0  0  0  0  0  0  0
  -22.9838  -18.4631   17.2577 C   0  0  0  0  0  0  0  0  0  0  0  0
  -26.5366  -29.6727   20.4089 C   0  0  0  0  0  0  0  0  0  0  0  0
  -26.2379  -32.0271   22.6201 C   0  0  0  0  0  0  0  0  0  0  0  0
  -24.1758  -34.0418   24.4465 C   0  0  0  0  0  0  0  0  0  0  0  0
  -26.6696  -24.4369   21.7431 C   0  0  0  0  0  0  0  0  0  0  0  0
  -31.3050  -28.3105   19.1986 C   0  0  0  0  0  0  0  0  0  0  0  0
  -25.0080  -31.2877   19.2210 C   0  0  0  0  0  0  0  0  0  0  0  0
  -24.1299  -30.7873   22.0001 C   0  0  0  0  0  0  0  0  0  0  0  0
  -30.5982  -28.8108   20.4558 C   0  0  0  0  0  0  0  0  0  0  0  0
  -27.3998  -24.0530   18.2795 C   0  0  0  0  0  0  0  0  0  0  0  0
  -29.3202  -28.0151   20.7021 C   0  0  0  0  0  0  0  0  0  0  0  0
  -26.7923  -22.6943   17.9260 C   0  0  0  0  0  0  0  0  0  0  0  0
  -27.9956  -24.0561   19.6856 C   0  0  0  0  0  0  0  0  0  0  0  0
  -26.4659  -22.2593   20.3965 C   0  0  0  0  0  0  0  0  0  0  0  0
  -28.3324  -28.1848   19.5416 C   0  0  1  0  0  0  0  0  0  0  0  0
  -26.0081  -31.0781   20.3538 C   0  0  1  0  0  0  0  0  0  0  0  0
  -25.8027  -22.2237   19.0089 C   0  0  2  0  0  0  0  0  0  0  0  0
  -24.5132  -22.1738   25.0584 C   0  0  0  0  0  0  0  0  0  0  0  0
  -23.2260  -26.6248   23.1282 C   0  0  0  0  0  0  0  0  0  0  0  0
  -24.2221  -35.8384   26.1979 C   0  0  0  0  0  0  0  0  0  0  0  0
  -18.9484  -26.3195   20.0232 C   0  0  0  0  0  0  0  0  0  0  0  0
  -26.8431  -29.9299   24.7521 C   0  0  0  0  0  0  0  0  0  0  0  0
  -25.9541  -31.5201   26.4694 C   0  0  0  0  0  0  0  0  0  0  0  0
  -27.9564  -32.1395   25.1166 C   0  0  0  0  0  0  0  0  0  0  0  0
  -22.8632  -35.9909   22.6474 C   0  0  0  0  0  0  0  0  0  0  0  0
  -25.2649  -24.6768   23.7749 C   0  0  0  0  0  0  0  0  0  0  0  0
  -18.3543  -26.4464   22.4899 C   0  0  0  0  0  0  0  0  0  0  0  0
  -19.7535  -28.2733   21.4174 C   0  0  0  0  0  0  0  0  0  1  0  0
  -25.6786  -32.1147   24.0196 C   0  0  1  0  0  0  0  0  0  0  0  0
  -24.2007  -35.5370   24.7075 C   0  0  2  0  0  0  0  0  0  0  0  0
  -18.6393  -27.2409   21.2081 C   0  0  1  0  0  0  0  0  0  0  0  0
  -26.5919  -31.4180   25.0675 C   0  0  0  0  0  0  0  0  0  0  0  0
  -25.8386  -19.7632   19.1743 N   0  0  0  0  0  0  0  0  0  0  0  0
  -25.2284  -20.8566   18.6863 N   0  0  0  0  0  0  0  0  0  0  0  0
  -25.4401  -31.3726   21.6710 N   0  0  0  0  0  0  0  0  0  0  0  0
  -27.0058  -23.6014   20.6651 N   0  0  0  0  0  0  0  0  0  0  0  0
  -23.3932  -21.5650   17.3669 N   0  0  0  0  0  0  0  0  0  0  0  0
  -23.0094  -17.0652   17.3552 N   0  0  0  0  0  0  0  0  0  0  0  0
  -19.4442  -25.6089   22.9120 N   0  0  0  0  0  0  0  0  0  0  0  0
  -27.6605  -29.4634   19.6326 N   0  0  0  0  0  0  0  0  0  0  0  0
  -25.4456  -33.5315   24.2782 N   0  0  0  0  0  0  0  0  0  0  0  0
  -25.7186  -23.9322   22.6215 N   0  0  0  0  0  0  0  0  0  0  0  0
  -22.9978  -36.1865   24.1139 N   0  3  0  0  0  0  0  0  0  0  0  0
  -20.4967  -27.1807   24.2545 O   0  0  0  0  0  0  0  0  0  0  0  0
  -22.0846  -19.0148   16.5790 O   0  0  0  0  0  0  0  0  0  0  0  0
  -25.9677  -28.8401   21.1053 O   0  0  0  0  0  0  0  0  0  0  0  0
  -27.3387  -32.5274   22.3764 O   0  0  0  0  0  0  0  0  0  0  0  0
  -23.1343  -33.3909   24.4007 O   0  0  0  0  0  0  0  0  0  0  0  0
  -27.1753  -25.5523   21.9073 O   0  0  0  0  0  0  0  0  0  0  0  0
  -26.3957  -13.4644   19.9247 O   0  0  0  0  0  0  0  0  0  0  0  0
  -19.8938  -29.0780   20.2474 O   0  0  0  0  0  0  0  0  0  1  0  0
  -31.6851  -11.9697   19.4859 F   0  0  0  0  0  0  0  0  0  0  0  0
  -27.1614  -11.4503   18.1927 F   0  0  0  0  0  0  0  0  0  0  0  0
  1  2  1  0  0  0  0
  1  6  2  0  0  0  0
  2  7  2  0  0  0  0
  3 10  2  0  0  0  0
  3 17  1  0  0  0  0
  4 11  1  0  0  0  0
  4 17  2  0  0  0  0
  5  9  2  0  0  0  0
  5 18  1  0  0  0  0
  6 20  1  0  0  0  0
  7 22  1  0  0  0  0
  8 12  2  0  0  0  0
  8 21  1  0  0  0  0
  9 24  1  0  0  0  0
 10 27  1  0  0  0  0
 11 27  2  0  0  0  0
 12 28  1  0  0  0  0
 13 14  2  0  0  0  0
 13 29  1  0  0  0  0
 14 30  1  0  0  0  0
 15 23  1  0  0  0  0
 15 28  2  0  0  0  0
 16 30  2  0  0  0  0
 16 31  1  0  0  0  0
 17 32  1  0  0  0  0
 18 25  2  0  0  0  0
 18 34  1  0  0  0  0
 19 32  1  0  0  0  0
 19 33  2  0  0  0  0
 19 35  1  0  0  0  0
 20 22  2  0  0  0  0
 20 40  1  0  0  0  0
 21 23  2  0  0  0  0
 21 41  1  0  0  0  0
 22 49  1  0  0  0  0
 23 42  1  0  0  0  0
 24 26  2  0  0  0  0
 24 52  1  0  0  0  0
 25 26  1  0  0  0  0
 25 53  1  0  0  0  0
 26 60  1  0  0  0  0
 27 84  1  0  0  0  0
 28 85  1  0  0  0  0
 29 31  2  0  0  0  0
 29 84  1  0  0  0  0
 30 86  1  0  0  0  0
 31 87  1  0  0  0  0
 32 67  2  0  0  0  0
 33 68  1  0  0  0  0
 33 71  1  0  0  0  0
 34 73  1  0  0  0  0
 34 78  2  0  0  0  0
 35 72  1  0  0  0  0
 35 79  2  0  0  0  0
 36 50  1  0  0  0  0
 36 74  1  0  0  0  0
 36 80  2  0  0  0  0
 37 63  1  0  0  0  0
 37 69  1  0  0  0  0
 37 81  2  0  0  0  0
 38 64  1  0  0  0  0
 38 75  1  0  0  0  0
 38 82  2  0  0  0  0
 39 70  1  0  0  0  0
 39 76  1  0  0  0  0
 39 83  2  0  0  0  0
 40 43  1  0  0  0  0
 41 50  1  0  0  0  0
 42 69  1  0  0  0  0
 43 45  1  0  0  0  0
 44 46  1  0  0  0  0
 44 47  1  0  0  0  0
 45 49  1  0  0  0  0
 46 51  1  0  0  0  0
 47 70  1  0  0  0  0
 48 51  1  0  0  0  0
 48 70  1  0  0  0  0
 49 74  1  0  0  0  0
 50 69  1  0  0  0  0
 51 68  1  0  0  0  0
 54 64  1  0  0  0  0
 55 65  1  0  0  0  0
 56 66  1  0  0  0  0
 57 66  1  0  0  0  0
 58 66  1  0  0  0  0
 59 77  1  0  0  0  0
 60 76  1  0  0  0  0
 61 65  1  0  0  0  0
 61 73  1  0  0  0  0
 62 65  1  0  0  0  0
 62 85  1  0  0  0  0
 63 66  1  0  0  0  0
 63 75  1  0  0  0  0
 64 77  1  0  0  0  0
 67 68  1  0  0  0  0
M  CHG  1  77   1
M  ISO  4  39 100  62 101  76 100  85 101
M  END
> <Batch ID>
0049

> <Smiles>
CNC(C)C(=O)NC(C(=O)N1Cc2cc([101O:1][101CH2:1]C(C)CNC(=O)c3ccc(C)c(C[100NH:0][100C:0](=O)N4CCCC(n5nc(-c6ccc(Oc7ccc(F)cc7F)cc6)c(C(N)=O)c5N)C4)c3C)ccc2CC1C(=O)NC1CCCc2ccccc21)C(C)(C)C

> <Shape>
0.249

> <Color>
0.063

> <Negative vol penalty>
0.000

$$$$

  -OEChem-04042322323D

 85 93  0     1  0  0  0  0  0999 V2000
  -23.5354   -8.0155   21.6655 C   0  0  0  0  0  0  0  0  0  0  0  0
  -24.4118   -9.0532   21.3645 C   0  0  0  0  0  0  0  0  0  0  0  0
  -21.2006  -28.2929   19.4986 C   0  0  0  0  0  0  0  0  0  0  0  0
  -22.0404  -26.6125   21.0178 C   0  0  0  0  0  0  0  0  0  0  0  0
  -22.1595   -8.2405   21.6518 C   0  0  0  0  0  0  0  0  0  0  0  0
  -23.9126  -10.3163   21.0486 C   0  0  0  0  0  0  0  0  0  0  0  0
  -26.4450  -15.7227   22.4139 C   0  0  0  0  0  0  0  0  0  0  0  0
  -29.1336  -22.8822   22.3222 C   0  0  0  0  0  0  0  0  0  0  0  0
  -20.0224  -27.5628   19.3423 C   0  0  0  0  0  0  0  0  0  0  0  0
  -20.8622  -25.8823   20.8615 C   0  0  0  0  0  0  0  0  0  0  0  0
  -27.2288  -16.6054   21.6722 C   0  0  0  0  0  0  0  0  0  0  0  0
  -17.9274  -23.7550   21.1429 C   0  0  0  0  0  0  0  0  0  0  0  0
  -17.3277  -23.2366   22.2906 C   0  0  0  0  0  0  0  0  0  0  0  0
  -29.6028  -23.2791   23.5743 C   0  0  0  0  0  0  0  0  0  0  0  0
  -25.2565  -17.8760   21.1113 C   0  0  0  0  0  0  0  0  0  0  0  0
  -30.7188  -25.1657   22.5581 C   0  0  0  0  0  0  0  0  0  0  0  0
  -17.0905  -25.4718   23.1763 C   0  0  0  0  0  0  0  0  0  0  0  0
  -22.2096  -27.8177   20.3364 C   0  0  0  0  0  0  0  0  0  0  0  0
  -23.6889  -29.5683   21.4564 C   0  0  0  0  0  0  0  0  0  0  0  0
  -21.6436   -9.5094   21.3451 C   0  0  0  0  0  0  0  0  0  0  0  0
  -25.0572  -15.9041   22.5011 C   0  0  0  0  0  0  0  0  0  0  0  0
  -22.5285  -10.5581   21.0295 C   0  0  0  0  0  0  0  0  0  0  0  0
  -24.4576  -16.9957   21.8569 C   0  0  0  0  0  0  0  0  0  0  0  0
  -29.4570  -23.6270   21.1880 C   0  0  0  0  0  0  0  0  0  0  0  0
  -30.2496  -24.7687   21.3060 C   0  0  0  0  0  0  0  0  0  0  0  0
  -19.8532  -26.3576   20.0237 C   0  0  0  0  0  0  0  0  0  0  0  0
  -26.6343  -17.6806   21.0183 C   0  0  0  0  0  0  0  0  0  0  0  0
  -18.1087  -25.1318   21.0119 C   0  0  0  0  0  0  0  0  0  0  0  0
  -16.9092  -24.0950   23.3073 C   0  0  0  0  0  0  0  0  0  0  0  0
  -17.6902  -25.9902   22.0286 C   0  0  0  0  0  0  0  0  0  0  0  0
  -30.3954  -24.4208   23.6923 C   0  0  0  0  0  0  0  0  0  0  0  0
  -23.4271  -28.5712   20.4978 C   0  0  0  0  0  0  0  0  0  0  0  0
  -24.9753  -29.9702   21.1913 C   0  0  0  0  0  0  0  0  0  0  0  0
  -22.8449  -30.0850   22.4939 C   0  0  0  0  0  0  0  0  0  0  0  0
  -22.5141  -14.2021   21.6413 C   0  0  0  0  0  0  0  0  0  0  0  0
  -20.9028  -16.5494   23.1958 C   0  0  0  0  0  0  0  0  0  0  0  0
  -28.1343  -20.8204   20.0655 C   0  0  0  0  0  0  0  0  0  0  0  0
  -20.8478  -19.7715   24.3190 C   0  0  0  0  0  0  0  0  0  0  0  0
  -29.6328  -27.2694   18.5713 C   0  0  0  0  0  0  0  0  0  0  0  0
  -20.1473   -9.6924   21.2968 C   0  0  0  0  0  0  0  0  0  0  0  0
  -24.2292  -14.9584   23.3272 C   0  0  0  0  0  0  0  0  0  0  0  0
  -22.9746  -17.2464   21.9358 C   0  0  0  0  0  0  0  0  0  0  0  0
  -19.7115  -11.1553   21.3180 C   0  0  0  0  0  0  0  0  0  0  0  0
  -28.1174  -30.3421   17.6025 C   0  0  0  0  0  0  0  0  0  0  0  0
  -20.5394  -11.9732   20.3318 C   0  0  0  0  0  0  0  0  0  0  0  0
  -26.7671  -30.3267   18.3212 C   0  0  0  0  0  0  0  0  0  0  0  0
  -28.5203  -28.9476   17.1282 C   0  0  0  0  0  0  0  0  0  0  0  0
  -27.1630  -27.8952   18.8957 C   0  0  0  0  0  0  0  0  0  0  0  0
  -22.0262  -11.9486   20.7062 C   0  0  1  0  0  0  0  0  0  0  0  0
  -22.7578  -14.9447   22.9246 C   0  0  1  0  0  0  0  0  0  0  0  0
  -26.7404  -29.2699   19.4417 C   0  0  2  0  0  0  0  0  0  0  0  0
  -19.3797  -21.4139   25.5209 C   0  0  0  0  0  0  0  0  0  0  0  0
  -19.2410  -16.9138   20.6629 C   0  0  0  0  0  0  0  0  0  0  0  0
  -18.4830  -19.1242   21.5618 C   0  0  0  0  0  0  0  0  0  0  0  0
  -17.9347  -17.0248   22.7926 C   0  0  0  0  0  0  0  0  0  0  0  0
  -26.5241  -22.7327   20.0102 C   0  0  0  0  0  0  0  0  0  0  0  0
  -22.7960  -20.0743   26.5263 C   0  0  0  0  0  0  0  0  0  0  0  0
  -28.9413  -23.1800   19.8506 C   0  0  0  0  0  0  0  0  0  0  0  0
  -30.6100  -25.5810   20.1054 C   0  0  0  0  0  0  0  0  0  0  0  0
  -26.9448  -19.8939   20.2055 C   0  0  0  0  0  0  0  0  0  1  0  0
  -20.3131  -17.8823   22.8027 C   0  0  1  0  0  0  0  0  0  0  0  0
  -20.4692  -20.3628   25.6650 C   0  0  2  0  0  0  0  0  0  0  0  0
  -19.0207  -17.7307   21.9517 C   0  0  0  0  0  0  0  0  0  0  0  0
  -24.4638  -28.3531   19.6843 N   0  0  0  0  0  0  0  0  0  0  0  0
  -25.3895  -29.2189   20.1310 N   0  0  0  0  0  0  0  0  0  0  0  0
  -22.2068  -16.2902   22.7506 N   0  0  0  0  0  0  0  0  0  0  0  0
  -28.4759  -27.9933   18.2388 N   0  0  0  0  0  0  0  0  0  0  0  0
  -25.7811  -30.8896   21.7639 N   0  0  0  0  0  0  0  0  0  0  0  0
  -21.5521  -29.5602   22.6269 N   0  0  0  0  0  0  0  0  0  0  0  0
  -22.2848  -12.8497   21.8087 N   0  0  0  0  0  0  0  0  0  0  0  0
  -20.1280  -18.6284   24.0426 N   0  0  0  0  0  0  0  0  0  0  0  0
  -29.5061  -26.3910   19.6405 N   0  0  0  0  0  0  0  0  0  0  0  0
  -27.8762  -22.1888   19.9790 N   0  0  0  0  0  0  0  0  0  0  0  0
  -21.6557  -21.0000   26.3030 N   0  3  0  0  0  0  0  0  0  0  0  0
  -23.2200  -30.9969   23.2693 O   0  0  0  0  0  0  0  0  0  0  0  0
  -22.5312  -14.8113   20.5781 O   0  0  0  0  0  0  0  0  0  0  0  0
  -20.2339  -15.7700   23.8789 O   0  0  0  0  0  0  0  0  0  0  0  0
  -29.2677  -20.3310   20.0419 O   0  0  0  0  0  0  0  0  0  0  0  0
  -21.6946  -20.2756   23.5845 O   0  0  0  0  0  0  0  0  0  0  0  0
  -30.7009  -27.4003   17.9640 O   0  0  0  0  0  0  0  0  0  0  0  0
  -18.7036  -25.6450   19.8715 O   0  0  0  0  0  0  0  0  0  0  0  0
  -27.3970  -18.5433   20.2931 O   0  0  0  0  0  0  0  0  0  1  0  0
  -16.3319  -23.5971   24.4087 F   0  0  0  0  0  0  0  0  0  0  0  0
  -17.8607  -27.3139   21.9079 F   0  0  0  0  0  0  0  0  0  0  0  0
  -30.9755  -24.9090   25.2369 Cl  0  0  0  0  0  0  0  0  0  0  0  0
  1  2  1  0  0  0  0
  1  5  2  0  0  0  0
  2  6  2  0  0  0  0
  3  9  2  0  0  0  0
  3 18  1  0  0  0  0
  4 10  1  0  0  0  0
  4 18  2  0  0  0  0
  5 20  1  0  0  0  0
  6 22  1  0  0  0  0
  7 11  2  0  0  0  0
  7 21  1  0  0  0  0
  8 14  2  0  0  0  0
  8 24  1  0  0  0  0
  9 26  1  0  0  0  0
 10 26  2  0  0  0  0
 11 27  1  0  0  0  0
 12 13  2  0  0  0  0
 12 28  1  0  0  0  0
 13 29  1  0  0  0  0
 14 31  1  0  0  0  0
 15 23  1  0  0  0  0
 15 27  2  0  0  0  0
 16 25  1  0  0  0  0
 16 31  2  0  0  0  0
 17 29  2  0  0  0  0
 17 30  1  0  0  0  0
 18 32  1  0  0  0  0
 19 32  1  0  0  0  0
 19 33  2  0  0  0  0
 19 34  1  0  0  0  0
 20 22  2  0  0  0  0
 20 40  1  0  0  0  0
 21 23  2  0  0  0  0
 21 41  1  0  0  0  0
 22 49  1  0  0  0  0
 23 42  1  0  0  0  0
 24 25  2  0  0  0  0
 24 58  1  0  0  0  0
 25 59  1  0  0  0  0
 26 81  1  0  0  0  0
 27 82  1  0  0  0  0
 28 30  2  0  0  0  0
 28 81  1  0  0  0  0
 29 83  1  0  0  0  0
 30 84  1  0  0  0  0
 31 85  1  0  0  0  0
 32 64  2  0  0  0  0
 33 65  1  0  0  0  0
 33 68  1  0  0  0  0
 34 69  1  0  0  0  0
 34 75  2  0  0  0  0
 35 50  1  0  0  0  0
 35 70  1  0  0  0  0
 35 76  2  0  0  0  0
 36 61  1  0  0  0  0
 36 66  1  0  0  0  0
 36 77  2  0  0  0  0
 37 60  1  0  0  0  0
 37 73  1  0  0  0  0
 37 78  2  0  0  0  0
 38 62  1  0  0  0  0
 38 71  1  0  0  0  0
 38 79  2  0  0  0  0
 39 67  1  0  0  0  0
 39 72  1  0  0  0  0
 39 80  2  0  0  0  0
 40 43  1  0  0  0  0
 41 50  1  0  0  0  0
 42 66  1  0  0  0  0
 43 45  1  0  0  0  0
 44 46  1  0  0  0  0
 44 47  1  0  0  0  0
 45 49  1  0  0  0  0
 46 51  1  0  0  0  0
 47 67  1  0  0  0  0
 48 51  1  0  0  0  0
 48 67  1  0  0  0  0
 49 70  1  0  0  0  0
 50 66  1  0  0  0  0
 51 65  1  0  0  0  0
 52 62  1  0  0  0  0
 53 63  1  0  0  0  0
 54 63  1  0  0  0  0
 55 63  1  0  0  0  0
 56 73  1  0  0  0  0
 57 74  1  0  0  0  0
 58 73  1  0  0  0  0
 59 72  1  0  0  0  0
 60 82  1  0  0  0  0
 61 63  1  0  0  0  0
 61 71  1  0  0  0  0
 62 74  1  0  0  0  0
 64 65  1  0  0  0  0
M  CHG  1  74   1
M  ISO  4  39 100  60 101  72 100  82 101
M  END
> <Batch ID>
0049

> <Smiles>
CNC(C)C(=O)NC(C(=O)N1Cc2cc([101O:1][101CH2:1]C(=O)N(C)Cc3ccc(Cl)cc3C[100NH:0][100C:0](=O)N3CCCC(n4nc(-c5ccc(Oc6ccc(F)cc6F)cc5)c(C(N)=O)c4N)C3)ccc2CC1C(=O)NC1CCCc2ccccc21)C(C)(C)C

> <Shape>
0.198

> <Color>
0.103

> <Negative vol penalty>
0.000

$$$$

  -OEChem-04042322323D

 88 97  0     1  0  0  0  0  0999 V2000
  -27.4474  -36.1010   22.7197 C   0  0  0  0  0  0  0  0  0  0  0  0
  -28.1764  -34.9250   22.5749 C   0  0  0  0  0  0  0  0  0  0  0  0
  -23.7717  -11.6255   23.2489 C   0  0  0  0  0  0  0  0  0  0  0  0
  -23.1755  -12.6111   21.1251 C   0  0  0  0  0  0  0  0  0  0  0  0
  -26.0839  -36.0439   23.0050 C   0  0  0  0  0  0  0  0  0  0  0  0
  -27.5425  -33.6911   22.7165 C   0  0  0  0  0  0  0  0  0  0  0  0
  -28.7950  -28.5361   19.6566 C   0  0  0  0  0  0  0  0  0  0  0  0
  -25.4384  -18.6315   19.6240 C   0  0  0  0  0  0  0  0  0  0  0  0
  -26.0476  -17.3853   19.4775 C   0  0  0  0  0  0  0  0  0  0  0  0
  -22.7230  -12.3114   23.8616 C   0  0  0  0  0  0  0  0  0  0  0  0
  -22.1267  -13.2969   21.7378 C   0  0  0  0  0  0  0  0  0  0  0  0
  -29.5487  -27.4101   19.9849 C   0  0  0  0  0  0  0  0  0  0  0  0
  -19.0696  -15.0273   22.6750 C   0  0  0  0  0  0  0  0  0  0  0  0
  -17.8326  -15.0320   22.0304 C   0  0  0  0  0  0  0  0  0  0  0  0
  -27.5404  -26.2819   20.7010 C   0  0  0  0  0  0  0  0  0  0  0  0
  -28.0168  -18.2155   20.6046 C   0  0  0  0  0  0  0  0  0  0  0  0
  -17.7546  -12.6209   22.1623 C   0  0  0  0  0  0  0  0  0  0  0  0
  -23.9980  -11.7754   21.8806 C   0  0  0  0  0  0  0  0  0  0  0  0
  -25.2656   -9.6733   21.1864 C   0  0  0  0  0  0  0  0  0  0  0  0
  -25.4309  -34.8087   23.1406 C   0  0  0  0  0  0  0  0  0  0  0  0
  -27.4074  -28.5474   19.8587 C   0  0  0  0  0  0  0  0  0  0  0  0
  -26.1692  -33.6175   23.0052 C   0  0  0  0  0  0  0  0  0  0  0  0
  -26.7709  -27.4083   20.3721 C   0  0  0  0  0  0  0  0  0  0  0  0
  -26.1184  -19.6698   20.2606 C   0  0  0  0  0  0  0  0  0  0  0  0
  -27.4076  -19.4618   20.7510 C   0  0  0  0  0  0  0  0  0  0  0  0
  -27.3368  -17.1773   19.9679 C   0  0  0  0  0  0  0  0  0  0  0  0
  -21.9005  -13.1470   23.1061 C   0  0  0  0  0  0  0  0  0  0  0  0
  -28.9219  -26.2838   20.5098 C   0  0  0  0  0  0  0  0  0  0  0  0
  -19.6491  -13.8193   23.0631 C   0  0  0  0  0  0  0  0  0  0  0  0
  -17.1751  -13.8289   21.7741 C   0  0  0  0  0  0  0  0  0  0  0  0
  -18.9916  -12.6161   22.8068 C   0  0  0  0  0  0  0  0  0  0  0  0
  -25.0815  -11.0677   21.2472 C   0  0  0  0  0  0  0  0  0  0  0  0
  -26.4333   -9.5116   20.4815 C   0  0  0  0  0  0  0  0  0  0  0  0
  -24.4537   -8.6186   21.7194 C   0  0  0  0  0  0  0  0  0  0  0  0
  -25.4135  -30.2693   21.6372 C   0  0  0  0  0  0  0  0  0  0  0  0
  -23.1498  -28.5911   20.0303 C   0  0  0  0  0  0  0  0  0  0  0  0
  -22.6696  -25.1820   18.9513 C   0  0  0  0  0  0  0  0  0  0  0  0
  -27.4284  -14.7652   19.2177 C   0  0  0  0  0  0  0  0  0  0  0  0
  -23.9652  -34.7975   23.4961 C   0  0  0  0  0  0  0  0  0  0  0  0
  -26.6049  -29.7602   19.4745 C   0  0  0  0  0  0  0  0  0  0  0  0
  -25.2812  -27.3623   20.5892 C   0  0  0  0  0  0  0  0  0  0  0  0
  -23.2915  -33.4482   23.2599 C   0  0  0  0  0  0  0  0  0  0  0  0
  -30.3253  -12.2999   19.8473 C   0  0  0  0  0  0  0  0  0  0  0  0
  -30.3321  -22.1553   18.7274 C   0  0  0  0  0  0  0  0  0  0  0  0
  -24.1473  -32.3183   23.8236 C   0  0  0  0  0  0  0  0  0  0  0  0
  -29.3449  -11.2343   20.3210 C   0  0  0  0  0  0  0  0  0  0  0  0
  -30.5548  -23.5208   19.3640 C   0  0  0  0  0  0  0  0  0  0  0  0
  -29.6498  -13.6683   19.8256 C   0  0  0  0  0  0  0  0  0  0  0  0
  -27.9087  -12.4198   18.5443 C   0  0  0  0  0  0  0  0  0  0  0  0
  -29.9112  -21.1166   19.7573 C   0  0  0  0  0  0  0  0  0  0  0  0
  -28.9124  -22.9230   21.1819 C   0  0  0  0  0  0  0  0  0  0  0  0
  -25.5121  -32.2597   23.1269 C   0  0  1  0  0  0  0  0  0  0  0  0
  -25.2672  -29.8468   20.2027 C   0  0  1  0  0  0  0  0  0  0  0  0
  -28.1108  -11.1527   19.4004 C   0  0  2  0  0  0  0  0  0  0  0  0
  -29.3331  -23.9704   20.1592 C   0  0  1  0  0  0  0  0  0  1  0  0
  -21.3495  -24.2487   17.0320 C   0  0  0  0  0  0  0  0  0  0  0  0
  -20.9216  -28.2805   22.0914 C   0  0  0  0  0  0  0  0  0  0  0  0
  -20.3125  -26.1096   21.0030 C   0  0  0  0  0  0  0  0  0  0  0  0
  -20.1545  -28.2378   19.7114 C   0  0  0  0  0  0  0  0  0  0  0  0
  -25.0268  -23.7535   17.8733 C   0  0  0  0  0  0  0  0  0  0  0  0
  -28.1574  -20.5629   21.4410 C   0  0  0  0  0  0  0  0  0  0  0  0
  -22.4319  -27.2816   20.2510 C   0  0  1  0  0  0  0  0  0  0  0  0
  -22.7268  -24.6633   17.5257 C   0  0  2  0  0  0  0  0  0  0  0  0
  -25.4459  -20.9955   20.4049 C   0  0  0  0  0  0  0  0  0  0  0  0
  -20.9815  -27.4818   20.7740 C   0  0  0  0  0  0  0  0  0  0  0  0
  -26.0543  -11.7437   20.6303 N   0  0  0  0  0  0  0  0  0  0  0  0
  -26.8611  -10.7699   20.1752 N   0  0  0  0  0  0  0  0  0  0  0  0
  -24.5410  -28.5752   20.2040 N   0  0  0  0  0  0  0  0  0  0  0  0
  -28.3046  -13.6512   19.2324 N   0  0  0  0  0  0  0  0  0  0  0  0
  -27.1256   -8.4173   20.1002 N   0  0  0  0  0  0  0  0  0  0  0  0
  -23.4351   -8.0884   20.9159 N   0  0  0  0  0  0  0  0  0  0  0  0
  -27.9556  -15.9102   19.8210 N   0  0  0  0  0  0  0  0  0  0  0  0
  -25.3891  -31.6380   21.8259 N   0  0  0  0  0  0  0  0  0  0  0  0
  -22.5173  -26.5518   18.9907 N   0  0  0  0  0  0  0  0  0  0  0  0
  -28.6838  -21.6029   20.4907 N   0  3  2  0  0  0  0  0  0  0  0  0
  -23.6319  -23.4825   17.4400 N   0  3  0  0  0  0  0  0  0  0  0  0
  -24.6158   -8.1712   22.8801 O   0  0  0  0  0  0  0  0  0  0  0  0
  -25.5377  -29.4166   22.5085 O   0  0  0  0  0  0  0  0  0  0  0  0
  -22.5011  -29.5897   19.7083 O   0  0  0  0  0  0  0  0  0  0  0  0
  -22.7482  -24.4451   19.9318 O   0  0  0  0  0  0  0  0  0  0  0  0
  -26.3081  -14.7015   18.7073 O   0  0  0  0  0  0  0  0  0  0  0  0
  -20.8769  -13.8162   23.7036 O   0  0  0  0  0  0  0  0  0  0  0  0
  -29.6553  -25.1836   20.8317 O   0  0  0  0  0  0  0  0  0  1  0  0
  -15.9865  -13.8337   21.1565 F   0  0  0  0  0  0  0  0  0  0  0  0
  -19.5428  -11.4525   23.1784 F   0  0  0  0  0  0  0  0  0  0  0  0
  -24.1898  -21.0308   19.8714 F   0  0  0  0  0  0  0  0  0  0  0  0
  -25.2947  -21.3912   21.7026 F   0  0  0  0  0  0  0  0  0  0  0  0
  -26.1344  -22.0007   19.7915 F   0  0  0  0  0  0  0  0  0  0  0  0
  1  2  1  0  0  0  0
  1  5  2  0  0  0  0
  2  6  2  0  0  0  0
  3 10  2  0  0  0  0
  3 18  1  0  0  0  0
  4 11  1  0  0  0  0
  4 18  2  0  0  0  0
  5 20  1  0  0  0  0
  6 22  1  0  0  0  0
  7 12  2  0  0  0  0
  7 21  1  0  0  0  0
  8  9  2  0  0  0  0
  8 24  1  0  0  0  0
  9 26  1  0  0  0  0
 10 27  1  0  0  0  0
 11 27  2  0  0  0  0
 12 28  1  0  0  0  0
 13 14  2  0  0  0  0
 13 29  1  0  0  0  0
 14 30  1  0  0  0  0
 15 23  1  0  0  0  0
 15 28  2  0  0  0  0
 16 25  1  0  0  0  0
 16 26  2  0  0  0  0
 17 30  2  0  0  0  0
 17 31  1  0  0  0  0
 18 32  1  0  0  0  0
 19 32  1  0  0  0  0
 19 33  2  0  0  0  0
 19 34  1  0  0  0  0
 20 22  2  0  0  0  0
 20 39  1  0  0  0  0
 21 23  2  0  0  0  0
 21 40  1  0  0  0  0
 22 52  1  0  0  0  0
 23 41  1  0  0  0  0
 24 25  2  0  0  0  0
 24 64  1  0  0  0  0
 25 61  1  0  0  0  0
 26 72  1  0  0  0  0
 27 82  1  0  0  0  0
 28 83  1  0  0  0  0
 29 31  2  0  0  0  0
 29 82  1  0  0  0  0
 30 84  1  0  0  0  0
 31 85  1  0  0  0  0
 32 66  2  0  0  0  0
 33 67  1  0  0  0  0
 33 70  1  0  0  0  0
 34 71  1  0  0  0  0
 34 77  2  0  0  0  0
 35 53  1  0  0  0  0
 35 73  1  0  0  0  0
 35 78  2  0  0  0  0
 36 62  1  0  0  0  0
 36 68  1  0  0  0  0
 36 79  2  0  0  0  0
 37 63  1  0  0  0  0
 37 74  1  0  0  0  0
 37 80  2  0  0  0  0
 38 69  1  0  0  0  0
 38 72  1  0  0  0  0
 38 81  2  0  0  0  0
 39 42  1  0  0  0  0
 40 53  1  0  0  0  0
 41 68  1  0  0  0  0
 42 45  1  0  0  0  0
 43 46  1  0  0  0  0
 43 48  1  0  0  0  0
 44 47  1  0  0  0  0
 44 50  1  0  0  0  0
 45 52  1  0  0  0  0
 46 54  1  0  0  0  0
 47 55  1  0  0  0  0
 48 69  1  0  0  0  0
 49 54  1  0  0  0  0
 49 69  1  0  0  0  0
 50 75  1  0  0  0  0
 51 55  1  0  0  0  0
 51 75  1  0  0  0  0
 52 73  1  0  0  0  0
 53 68  1  0  0  0  0
 54 67  1  0  0  0  0
 55 83  1  0  0  0  0
 56 63  1  0  0  0  0
 57 65  1  0  0  0  0
 58 65  1  0  0  0  0
 59 65  1  0  0  0  0
 60 76  1  0  0  0  0
 61 75  1  0  0  0  0
 62 65  1  0  0  0  0
 62 74  1  0  0  0  0
 63 76  1  0  0  0  0
 64 86  1  0  0  0  0
 64 87  1  0  0  0  0
 64 88  1  0  0  0  0
 66 67  1  0  0  0  0
M  CHG  2  75   1  76   1
M  ISO  4  38 100  55 101  72 100  83 101
M  END
> <Batch ID>
0049

> <Smiles>
CNC(C)C(=O)NC(C(=O)N1Cc2cc([101O:1][101CH:1]3CCCN(Cc4cc([100NH:0][100C:0](=O)N5CCCC(n6nc(-c7ccc(Oc8ccc(F)cc8F)cc7)c(C(N)=O)c6N)C5)ccc4C(F)(F)F)C3)ccc2CC1C(=O)NC1CCCc2ccccc21)C(C)(C)C

> <Shape>
0.283

> <Color>
0.052

> <Negative vol penalty>
0.000

$$$$

  -OEChem-04042322323D

 87 96  0     1  0  0  0  0  0999 V2000
  -23.7837  -21.8470   18.1446 C   0  0  0  0  0  0  0  0  0  0  0  0
  -24.6744  -20.9726   17.5302 C   0  0  0  0  0  0  0  0  0  0  0  0
  -27.9994  -26.2538   20.0846 C   0  0  0  0  0  0  0  0  0  0  0  0
  -26.3410  -24.8088   19.0852 C   0  0  0  0  0  0  0  0  0  0  0  0
  -23.3920  -21.6278   19.4646 C   0  0  0  0  0  0  0  0  0  0  0  0
  -25.1747  -19.8789   18.2360 C   0  0  0  0  0  0  0  0  0  0  0  0
  -27.3083  -13.1098   17.2645 C   0  0  0  0  0  0  0  0  0  0  0  0
  -31.8152  -14.5029   22.4242 C   0  0  0  0  0  0  0  0  0  0  0  0
  -30.6888  -15.2159   22.8344 C   0  0  0  0  0  0  0  0  0  0  0  0
  -27.2081  -27.3645   19.7919 C   0  0  0  0  0  0  0  0  0  0  0  0
  -25.5496  -25.9196   18.7925 C   0  0  0  0  0  0  0  0  0  0  0  0
  -28.3917  -12.2734   17.5299 C   0  0  0  0  0  0  0  0  0  0  0  0
  -24.4673  -28.8769   21.0701 C   0  0  0  0  0  0  0  0  0  0  0  0
  -24.3000  -29.8352   22.0697 C   0  0  0  0  0  0  0  0  0  0  0  0
  -27.5832  -11.9500   19.7795 C   0  0  0  0  0  0  0  0  0  0  0  0
  -31.6846  -15.5474   20.2496 C   0  0  0  0  0  0  0  0  0  0  0  0
  -25.2897  -31.5066   20.6331 C   0  0  0  0  0  0  0  0  0  0  0  0
  -27.5659  -24.9759   19.7312 C   0  0  0  0  0  0  0  0  0  0  0  0
  -28.8088  -23.3982   21.3039 C   0  0  0  0  0  0  0  0  0  0  0  0
  -23.8803  -20.5256   20.1837 C   0  0  0  0  0  0  0  0  0  0  0  0
  -26.3585  -13.3818   18.2597 C   0  0  0  0  0  0  0  0  0  0  0  0
  -24.7902  -19.6455   19.5673 C   0  0  0  0  0  0  0  0  0  0  0  0
  -26.4873  -12.7881   19.5235 C   0  0  0  0  0  0  0  0  0  0  0  0
  -32.3131  -14.6686   21.1318 C   0  0  0  0  0  0  0  0  0  0  0  0
  -30.0602  -16.0947   21.9522 C   0  0  0  0  0  0  0  0  0  0  0  0
  -30.5581  -16.2605   20.6598 C   0  0  0  0  0  0  0  0  0  0  0  0
  -25.9832  -27.1974   19.1459 C   0  0  0  0  0  0  0  0  0  0  0  0
  -28.5309  -11.6956   18.7884 C   0  0  0  0  0  0  0  0  0  0  0  0
  -25.0459  -29.2334   19.8520 C   0  0  0  0  0  0  0  0  0  0  0  0
  -24.7112  -31.1500   21.8512 C   0  0  0  0  0  0  0  0  0  0  0  0
  -25.4571  -30.5482   19.6335 C   0  0  0  0  0  0  0  0  0  0  0  0
  -28.3831  -23.8282   20.0328 C   0  0  0  0  0  0  0  0  0  0  0  0
  -29.5542  -22.2720   21.0535 C   0  0  0  0  0  0  0  0  0  0  0  0
  -32.2979  -11.8078   20.2369 C   0  0  0  0  0  0  0  0  0  0  0  0
  -28.5533  -23.9658   22.5955 C   0  0  0  0  0  0  0  0  0  0  0  0
  -25.3750  -16.0025   19.7657 C   0  0  0  0  0  0  0  0  0  0  0  0
  -23.1828  -13.9780   21.0377 C   0  0  0  0  0  0  0  0  0  0  0  0
  -22.3274  -10.7777   21.8583 C   0  0  0  0  0  0  0  0  0  0  0  0
  -30.3153  -17.4173   18.4351 C   0  0  0  0  0  0  0  0  0  0  0  0
  -23.4648  -20.3564   21.6237 C   0  0  0  0  0  0  0  0  0  0  0  0
  -25.1811  -14.2649   17.9494 C   0  0  0  0  0  0  0  0  0  0  0  0
  -25.4841  -13.0319   20.6201 C   0  0  0  0  0  0  0  0  0  0  0  0
  -23.7503  -18.9641   22.1805 C   0  0  0  0  0  0  0  0  0  0  0  0
  -33.7958  -11.5940   17.6734 C   0  0  0  0  0  0  0  0  0  0  0  0
  -31.2830  -20.3682   16.6936 C   0  0  0  0  0  0  0  0  0  0  0  0
  -25.1631  -18.5216   21.8130 C   0  0  0  0  0  0  0  0  0  0  0  0
  -33.2409  -10.3916   18.4222 C   0  0  0  0  0  0  0  0  0  0  0  0
  -30.6498  -21.4961   17.5117 C   0  0  0  0  0  0  0  0  0  0  0  0
  -33.6167  -12.9150   18.4165 C   0  0  0  0  0  0  0  0  0  0  0  0
  -30.3848  -19.1337   16.6395 C   0  0  0  0  0  0  0  0  0  0  0  0
  -29.3061  -19.7602   18.7639 C   0  0  0  0  0  0  0  0  0  0  0  0
  -25.3357  -18.4341   20.2918 C   0  0  1  0  0  0  0  0  0  0  0  0
  -31.9815  -10.7296   19.2129 C   0  0  2  0  0  0  0  0  0  0  0  0
  -24.5525  -14.8821   19.1948 C   0  0  1  0  0  0  0  0  0  0  0  0
  -30.2025  -21.0017   18.9013 C   0  0  2  0  0  0  0  0  0  0  0  0
  -28.8548  -16.8448   22.4186 C   0  0  0  0  0  0  0  0  0  0  0  0
  -20.4882   -9.4410   22.9203 C   0  0  0  0  0  0  0  0  0  0  0  0
  -24.0784  -14.9384   23.7919 C   0  0  0  0  0  0  0  0  0  0  0  0
  -22.9333  -12.9445   24.7826 C   0  0  0  0  0  0  0  0  0  0  0  0
  -21.6067  -14.6526   23.5395 C   0  0  0  0  0  0  0  0  0  0  0  0
  -21.8744   -9.2183   19.3840 C   0  0  0  0  0  0  0  0  0  0  0  0
  -33.5258  -13.9007   20.6912 C   0  0  0  0  0  0  0  0  0  0  0  0
  -30.7988  -11.1370   18.3408 C   0  0  0  0  0  0  0  0  0  1  0  0
  -23.1278  -13.0915   22.2584 C   0  0  1  0  0  0  0  0  0  0  0  0
  -21.0577   -9.9813   21.6178 C   0  0  2  0  0  0  0  0  0  0  0  0
  -22.9567  -13.9035   23.5732 C   0  0  0  0  0  0  0  0  0  0  0  0
  -28.8217  -23.0396   19.0481 N   0  0  0  0  0  0  0  0  0  0  0  0
  -29.5308  -22.1028   19.7004 N   0  0  0  0  0  0  0  0  0  0  0  0
  -33.1803  -12.7981   19.8059 N   0  0  0  0  0  0  0  0  0  0  0  0
  -24.3538  -13.9078   20.2697 N   0  0  0  0  0  0  0  0  0  0  0  0
  -30.0045  -18.7203   17.9921 N   0  0  0  0  0  0  0  0  0  0  0  0
  -30.2208  -21.4200   21.8610 N   0  0  0  0  0  0  0  0  0  0  0  0
  -27.4215  -23.5367   23.3019 N   0  0  0  0  0  0  0  0  0  0  0  0
  -29.9340  -17.1489   19.7494 N   0  0  0  0  0  0  0  0  0  0  0  0
  -24.7277  -17.2233   19.7830 N   0  0  0  0  0  0  0  0  0  0  0  0
  -22.0653  -12.1227   22.0118 N   0  0  0  0  0  0  0  0  0  0  0  0
  -21.3319   -8.8304   20.7115 N   0  3  0  0  0  0  0  0  0  0  0  0
  -31.7705  -11.7741   21.3503 O   0  0  0  0  0  0  0  0  0  0  0  0
  -29.2975  -24.8401   23.1009 O   0  0  0  0  0  0  0  0  0  0  0  0
  -26.5120  -15.7759   20.1624 O   0  0  0  0  0  0  0  0  0  0  0  0
  -22.2193  -14.7007   20.7712 O   0  0  0  0  0  0  0  0  0  0  0  0
  -23.4401  -10.2582   21.9089 O   0  0  0  0  0  0  0  0  0  0  0  0
  -30.9026  -16.6087   17.7118 O   0  0  0  0  0  0  0  0  0  0  0  0
  -25.2106  -28.2810   18.8603 O   0  0  0  0  0  0  0  0  0  0  0  0
  -29.5877  -10.8794   19.0503 O   0  0  0  0  0  0  0  0  0  1  0  0
  -24.5490  -32.0705   22.8107 F   0  0  0  0  0  0  0  0  0  0  0  0
  -26.0125  -30.8970   18.4648 F   0  0  0  0  0  0  0  0  0  0  0  0
  1  2  1  0  0  0  0
  1  5  2  0  0  0  0
  2  6  2  0  0  0  0
  3 10  2  0  0  0  0
  3 18  1  0  0  0  0
  4 11  1  0  0  0  0
  4 18  2  0  0  0  0
  5 20  1  0  0  0  0
  6 22  1  0  0  0  0
  7 12  2  0  0  0  0
  7 21  1  0  0  0  0
  8  9  2  0  0  0  0
  8 24  1  0  0  0  0
  9 25  1  0  0  0  0
 10 27  1  0  0  0  0
 11 27  2  0  0  0  0
 12 28  1  0  0  0  0
 13 14  2  0  0  0  0
 13 29  1  0  0  0  0
 14 30  1  0  0  0  0
 15 23  1  0  0  0  0
 15 28  2  0  0  0  0
 16 24  2  0  0  0  0
 16 26  1  0  0  0  0
 17 30  2  0  0  0  0
 17 31  1  0  0  0  0
 18 32  1  0  0  0  0
 19 32  1  0  0  0  0
 19 33  2  0  0  0  0
 19 35  1  0  0  0  0
 20 22  2  0  0  0  0
 20 40  1  0  0  0  0
 21 23  2  0  0  0  0
 21 41  1  0  0  0  0
 22 52  1  0  0  0  0
 23 42  1  0  0  0  0
 24 62  1  0  0  0  0
 25 26  2  0  0  0  0
 25 56  1  0  0  0  0
 26 74  1  0  0  0  0
 27 84  1  0  0  0  0
 28 85  1  0  0  0  0
 29 31  2  0  0  0  0
 29 84  1  0  0  0  0
 30 86  1  0  0  0  0
 31 87  1  0  0  0  0
 32 67  2  0  0  0  0
 33 68  1  0  0  0  0
 33 72  1  0  0  0  0
 34 53  1  0  0  0  0
 34 69  1  0  0  0  0
 34 78  2  0  0  0  0
 35 73  1  0  0  0  0
 35 79  2  0  0  0  0
 36 54  1  0  0  0  0
 36 75  1  0  0  0  0
 36 80  2  0  0  0  0
 37 64  1  0  0  0  0
 37 70  1  0  0  0  0
 37 81  2  0  0  0  0
 38 65  1  0  0  0  0
 38 76  1  0  0  0  0
 38 82  2  0  0  0  0
 39 71  1  0  0  0  0
 39 74  1  0  0  0  0
 39 83  2  0  0  0  0
 40 43  1  0  0  0  0
 41 54  1  0  0  0  0
 42 70  1  0  0  0  0
 43 46  1  0  0  0  0
 44 47  1  0  0  0  0
 44 49  1  0  0  0  0
 45 48  1  0  0  0  0
 45 50  1  0  0  0  0
 46 52  1  0  0  0  0
 47 53  1  0  0  0  0
 48 55  1  0  0  0  0
 49 69  1  0  0  0  0
 50 71  1  0  0  0  0
 51 55  1  0  0  0  0
 51 71  1  0  0  0  0
 52 75  1  0  0  0  0
 53 63  1  0  0  0  0
 54 70  1  0  0  0  0
 55 68  1  0  0  0  0
 57 65  1  0  0  0  0
 58 66  1  0  0  0  0
 59 66  1  0  0  0  0
 60 66  1  0  0  0  0
 61 77  1  0  0  0  0
 62 69  1  0  0  0  0
 63 85  1  0  0  0  0
 64 66  1  0  0  0  0
 64 76  1  0  0  0  0
 65 77  1  0  0  0  0
 67 68  1  0  0  0  0
M  CHG  1  77   1
M  ISO  4  39 100  63 101  74 100  85 101
M  END
> <Batch ID>
0049

> <Smiles>
CNC(C)C(=O)NC(C(=O)N1Cc2cc([101O:1][101CH2:1]C3CCCN(Cc4ccc(C)c([100NH:0][100C:0](=O)N5CCCC(n6nc(-c7ccc(Oc8ccc(F)cc8F)cc7)c(C(N)=O)c6N)C5)c4)C3=O)ccc2CC1C(=O)NC1CCCc2ccccc21)C(C)(C)C

> <Shape>
0.242

> <Color>
0.072

> <Negative vol penalty>
0.000

$$$$

  -OEChem-04042322323D

 83 91  0     1  0  0  0  0  0999 V2000
  -32.2470  -25.9867   17.7482 C   0  0  0  0  0  0  0  0  0  0  0  0
  -31.0365  -25.7243   18.3816 C   0  0  0  0  0  0  0  0  0  0  0  0
  -24.8885   -8.7085   21.4056 C   0  0  0  0  0  0  0  0  0  0  0  0
  -23.4009   -9.7424   19.8071 C   0  0  0  0  0  0  0  0  0  0  0  0
  -33.0842  -26.9897   18.2351 C   0  0  0  0  0  0  0  0  0  0  0  0
  -30.6629  -26.4640   19.5031 C   0  0  0  0  0  0  0  0  0  0  0  0
  -25.8248  -27.9493   19.3273 C   0  0  0  0  0  0  0  0  0  0  0  0
  -22.0494  -18.7122   18.5760 C   0  0  0  0  0  0  0  0  0  0  0  0
  -23.0725  -17.8186   18.8928 C   0  0  0  0  0  0  0  0  0  0  0  0
  -23.9192   -7.7449   21.6843 C   0  0  0  0  0  0  0  0  0  0  0  0
  -22.4317   -8.7788   20.0857 C   0  0  0  0  0  0  0  0  0  0  0  0
  -24.8549  -26.9980   19.6407 C   0  0  0  0  0  0  0  0  0  0  0  0
  -21.0810   -7.5216   23.5061 C   0  0  0  0  0  0  0  0  0  0  0  0
  -20.8438   -7.2104   24.8449 C   0  0  0  0  0  0  0  0  0  0  0  0
  -24.6728  -27.9238   21.8608 C   0  0  0  0  0  0  0  0  0  0  0  0
  -23.6472  -19.1596   20.8186 C   0  0  0  0  0  0  0  0  0  0  0  0
  -21.4629   -4.9139   24.4207 C   0  0  0  0  0  0  0  0  0  0  0  0
  -24.6293   -9.7073   20.4670 C   0  0  0  0  0  0  0  0  0  0  0  0
  -26.6376  -10.6373   19.1984 C   0  0  0  0  0  0  0  0  0  0  0  0
  -32.7163  -27.7486   19.3573 C   0  0  0  0  0  0  0  0  0  0  0  0
  -26.2345  -28.8897   20.2834 C   0  0  0  0  0  0  0  0  0  0  0  0
  -31.4966  -27.4772   20.0063 C   0  0  0  0  0  0  0  0  0  0  0  0
  -25.6462  -28.8876   21.5562 C   0  0  0  0  0  0  0  0  0  0  0  0
  -21.8252  -19.8295   19.3804 C   0  0  0  0  0  0  0  0  0  0  0  0
  -22.6241  -20.0532   20.5017 C   0  0  0  0  0  0  0  0  0  0  0  0
  -23.8714  -18.0423   20.0141 C   0  0  0  0  0  0  0  0  0  0  0  0
  -22.6909   -7.7800   21.0243 C   0  0  0  0  0  0  0  0  0  0  0  0
  -24.2808  -26.9834   20.9085 C   0  0  0  0  0  0  0  0  0  0  0  0
  -21.5091   -6.5290   22.6245 C   0  0  0  0  0  0  0  0  0  0  0  0
  -21.0347   -5.9066   25.3022 C   0  0  0  0  0  0  0  0  0  0  0  0
  -21.7001   -5.2251   23.0819 C   0  0  0  0  0  0  0  0  0  0  0  0
  -25.6299  -10.7033   20.1792 C   0  0  0  0  0  0  0  0  0  0  0  0
  -27.3207  -11.8218   19.3276 C   0  0  0  0  0  0  0  0  0  0  0  0
  -26.9300   -9.5981   18.2548 C   0  0  0  0  0  0  0  0  0  0  0  0
  -28.9833  -29.5677   21.7285 C   0  0  0  0  0  0  0  0  0  0  0  0
  -27.2869  -32.0560   22.9339 C   0  0  0  0  0  0  0  0  0  0  0  0
  -22.8370  -23.6959   21.4141 C   0  0  0  0  0  0  0  0  0  0  0  0
  -24.2408  -33.3614   23.7489 C   0  0  0  0  0  0  0  0  0  0  0  0
  -25.7927  -17.2086   21.4140 C   0  0  0  0  0  0  0  0  0  0  0  0
  -33.6758  -28.7906   19.8753 C   0  0  0  0  0  0  0  0  0  0  0  0
  -27.2625  -29.9262   19.9211 C   0  0  0  0  0  0  0  0  0  0  0  0
  -26.0366  -29.8884   22.6119 C   0  0  0  0  0  0  0  0  0  0  0  0
  -33.0347  -29.7808   20.8443 C   0  0  0  0  0  0  0  0  0  0  0  0
  -28.4587  -15.1534   22.5742 C   0  0  0  0  0  0  0  0  0  0  0  0
  -32.1904  -29.0443   21.8794 C   0  0  0  0  0  0  0  0  0  0  0  0
  -28.1307  -13.7743   21.9973 C   0  0  0  0  0  0  0  0  0  0  0  0
  -27.1980  -15.9060   22.9962 C   0  0  0  0  0  0  0  0  0  0  0  0
  -25.8363  -14.6371   21.3823 C   0  0  0  0  0  0  0  0  0  0  0  0
  -31.0450  -28.2748   21.2105 C   0  0  1  0  0  0  0  0  0  0  0  0
  -27.9750  -30.5114   21.1366 C   0  0  1  0  0  0  0  0  0  0  0  0
  -27.0699  -13.8673   20.8831 C   0  0  2  0  0  0  0  0  0  0  0  0
  -20.7244  -20.7725   19.0206 C   0  0  0  0  0  0  0  0  0  0  0  0
  -23.1760  -35.4004   24.7519 C   0  0  0  0  0  0  0  0  0  0  0  0
  -28.1564  -31.1407   25.7117 C   0  0  0  0  0  0  0  0  0  0  0  0
  -26.3469  -32.5777   26.6754 C   0  0  0  0  0  0  0  0  0  0  0  0
  -28.1997  -33.6175   25.3683 C   0  0  0  0  0  0  0  0  0  0  0  0
  -22.7224  -33.9288   21.2728 C   0  0  0  0  0  0  0  0  0  0  0  0
  -22.4001  -21.2477   21.3833 C   0  0  0  0  0  0  0  0  0  0  0  0
  -23.4185  -24.7958   20.5519 C   0  0  0  0  0  0  0  0  0  1  0  0
  -26.4323  -32.2735   24.1592 C   0  0  1  0  0  0  0  0  0  0  0  0
  -23.6178  -34.7168   23.4673 C   0  0  2  0  0  0  0  0  0  0  0  0
  -27.2777  -32.3821   25.4596 C   0  0  0  0  0  0  0  0  0  0  0  0
  -25.6660  -11.8398   20.8799 N   0  0  0  0  0  0  0  0  0  0  0  0
  -26.7048  -12.4988   20.3388 N   0  0  0  0  0  0  0  0  0  0  0  0
  -27.0506  -30.8778   22.2115 N   0  0  0  0  0  0  0  0  0  0  0  0
  -26.2407  -15.9578   21.8891 N   0  0  0  0  0  0  0  0  0  0  0  0
  -28.3822  -12.3399   18.6739 N   0  0  0  0  0  0  0  0  0  0  0  0
  -26.1288   -8.4482   18.2577 N   0  0  0  0  0  0  0  0  0  0  0  0
  -24.9095  -17.1338   20.3375 N   0  0  0  0  0  0  0  0  0  0  0  0
  -29.9737  -29.1775   20.8475 N   0  0  0  0  0  0  0  0  0  0  0  0
  -22.8910  -22.4648   20.7795 N   0  0  0  0  0  0  0  0  0  0  0  0
  -25.6107  -33.4465   23.8809 N   0  0  0  0  0  0  0  0  0  0  0  0
  -22.4284  -34.5662   22.5820 N   0  3  0  0  0  0  0  0  0  0  0  0
  -27.8840   -9.6796   17.4444 O   0  0  0  0  0  0  0  0  0  0  0  0
  -28.8718  -29.2204   22.8984 O   0  0  0  0  0  0  0  0  0  0  0  0
  -28.1280  -32.9037   22.6250 O   0  0  0  0  0  0  0  0  0  0  0  0
  -22.3794  -23.9020   22.5349 O   0  0  0  0  0  0  0  0  0  0  0  0
  -23.5782  -32.3309   23.8461 O   0  0  0  0  0  0  0  0  0  0  0  0
  -26.1862  -18.2688   21.9070 O   0  0  0  0  0  0  0  0  0  0  0  0
  -21.7450   -6.8397   21.2958 O   0  0  0  0  0  0  0  0  0  0  0  0
  -23.3344  -26.0555   21.2172 O   0  0  0  0  0  0  0  0  0  1  0  0
  -20.8083   -5.6082   26.5883 F   0  0  0  0  0  0  0  0  0  0  0  0
  -22.1124   -4.2675   22.2400 F   0  0  0  0  0  0  0  0  0  0  0  0
  1  2  1  0  0  0  0
  1  5  2  0  0  0  0
  2  6  2  0  0  0  0
  3 10  2  0  0  0  0
  3 18  1  0  0  0  0
  4 11  1  0  0  0  0
  4 18  2  0  0  0  0
  5 20  1  0  0  0  0
  6 22  1  0  0  0  0
  7 12  2  0  0  0  0
  7 21  1  0  0  0  0
  8  9  2  0  0  0  0
  8 24  1  0  0  0  0
  9 26  1  0  0  0  0
 10 27  1  0  0  0  0
 11 27  2  0  0  0  0
 12 28  1  0  0  0  0
 13 14  2  0  0  0  0
 13 29  1  0  0  0  0
 14 30  1  0  0  0  0
 15 23  1  0  0  0  0
 15 28  2  0  0  0  0
 16 25  1  0  0  0  0
 16 26  2  0  0  0  0
 17 30  2  0  0  0  0
 17 31  1  0  0  0  0
 18 32  1  0  0  0  0
 19 32  1  0  0  0  0
 19 33  2  0  0  0  0
 19 34  1  0  0  0  0
 20 22  2  0  0  0  0
 20 40  1  0  0  0  0
 21 23  2  0  0  0  0
 21 41  1  0  0  0  0
 22 49  1  0  0  0  0
 23 42  1  0  0  0  0
 24 25  2  0  0  0  0
 24 52  1  0  0  0  0
 25 58  1  0  0  0  0
 26 69  1  0  0  0  0
 27 80  1  0  0  0  0
 28 81  1  0  0  0  0
 29 31  2  0  0  0  0
 29 80  1  0  0  0  0
 30 82  1  0  0  0  0
 31 83  1  0  0  0  0
 32 63  2  0  0  0  0
 33 64  1  0  0  0  0
 33 67  1  0  0  0  0
 34 68  1  0  0  0  0
 34 74  2  0  0  0  0
 35 50  1  0  0  0  0
 35 70  1  0  0  0  0
 35 75  2  0  0  0  0
 36 60  1  0  0  0  0
 36 65  1  0  0  0  0
 36 76  2  0  0  0  0
 37 59  1  0  0  0  0
 37 71  1  0  0  0  0
 37 77  2  0  0  0  0
 38 61  1  0  0  0  0
 38 72  1  0  0  0  0
 38 78  2  0  0  0  0
 39 66  1  0  0  0  0
 39 69  1  0  0  0  0
 39 79  2  0  0  0  0
 40 43  1  0  0  0  0
 41 50  1  0  0  0  0
 42 65  1  0  0  0  0
 43 45  1  0  0  0  0
 44 46  1  0  0  0  0
 44 47  1  0  0  0  0
 45 49  1  0  0  0  0
 46 51  1  0  0  0  0
 47 66  1  0  0  0  0
 48 51  1  0  0  0  0
 48 66  1  0  0  0  0
 49 70  1  0  0  0  0
 50 65  1  0  0  0  0
 51 64  1  0  0  0  0
 53 61  1  0  0  0  0
 54 62  1  0  0  0  0
 55 62  1  0  0  0  0
 56 62  1  0  0  0  0
 57 73  1  0  0  0  0
 58 71  1  0  0  0  0
 59 81  1  0  0  0  0
 60 62  1  0  0  0  0
 60 72  1  0  0  0  0
 61 73  1  0  0  0  0
 63 64  1  0  0  0  0
M  CHG  1  73   1
M  ISO  4  39 100  59 101  69 100  81 101
M  END
> <Batch ID>
0049

> <Smiles>
CNC(C)C(=O)NC(C(=O)N1Cc2cc([101O:1][101CH2:1]C(=O)NCc3cc([100NH:0][100C:0](=O)N4CCCC(n5nc(-c6ccc(Oc7ccc(F)cc7F)cc6)c(C(N)=O)c5N)C4)ccc3C)ccc2CC1C(=O)NC1CCCc2ccccc21)C(C)(C)C

> <Shape>
0.244

> <Color>
0.096

> <Negative vol penalty>
0.000

$$$$

  -OEChem-04042322323D

 84 92  0     1  0  0  0  0  0999 V2000
  -20.3581  -23.8606   21.9001 C   0  0  0  0  0  0  0  0  0  0  0  0
  -21.3898  -24.4322   21.1623 C   0  0  0  0  0  0  0  0  0  0  0  0
  -26.7082  -12.9224   20.9780 C   0  0  0  0  0  0  0  0  0  0  0  0
  -26.7162  -13.0267   18.5643 C   0  0  0  0  0  0  0  0  0  0  0  0
  -19.4120  -24.6754   22.5206 C   0  0  0  0  0  0  0  0  0  0  0  0
  -21.4754  -25.8189   21.0438 C   0  0  0  0  0  0  0  0  0  0  0  0
  -26.1915  -27.5385   21.7119 C   0  0  0  0  0  0  0  0  0  0  0  0
  -26.2024  -11.6238   20.9202 C   0  0  0  0  0  0  0  0  0  0  0  0
  -26.2104  -11.7280   18.5065 C   0  0  0  0  0  0  0  0  0  0  0  0
  -27.0770  -27.3998   20.6440 C   0  0  0  0  0  0  0  0  0  0  0  0
  -24.5702   -8.4116   21.4117 C   0  0  0  0  0  0  0  0  0  0  0  0
  -23.5191   -8.0847   22.2684 C   0  0  0  0  0  0  0  0  0  0  0  0
  -26.7144  -29.7098   20.0510 C   0  0  0  0  0  0  0  0  0  0  0  0
  -27.9011  -23.3069   16.1032 C   0  0  0  0  0  0  0  0  0  0  0  0
  -29.7535  -23.7682   14.6225 C   0  0  0  0  0  0  0  0  0  0  0  0
  -29.8797  -21.9224   16.1762 C   0  0  0  0  0  0  0  0  0  0  0  0
  -22.1595   -9.8072   21.2576 C   0  0  0  0  0  0  0  0  0  0  0  0
  -26.9650  -13.6239   19.8000 C   0  0  0  0  0  0  0  0  0  0  0  0
  -28.8408  -15.3510   19.8800 C   0  0  0  0  0  0  0  0  0  0  0  0
  -19.4916  -26.0731   22.4176 C   0  0  0  0  0  0  0  0  0  0  0  0
  -25.5513  -28.7630   21.9512 C   0  0  0  0  0  0  0  0  0  0  0  0
  -20.5287  -26.6531   21.6624 C   0  0  0  0  0  0  0  0  0  0  0  0
  -25.8231  -29.8621   21.1241 C   0  0  0  0  0  0  0  0  0  0  0  0
  -28.4765  -24.0760   15.0918 C   0  0  0  0  0  0  0  0  0  0  0  0
  -28.6027  -22.2301   16.6455 C   0  0  0  0  0  0  0  0  0  0  0  0
  -25.9536  -11.0266   19.6845 C   0  0  0  0  0  0  0  0  0  0  0  0
  -27.3364  -28.4847   19.8117 C   0  0  0  0  0  0  0  0  0  0  0  0
  -24.4160   -9.4364   20.4780 C   0  0  0  0  0  0  0  0  0  0  0  0
  -22.3138   -8.7824   22.1913 C   0  0  0  0  0  0  0  0  0  0  0  0
  -23.2107  -10.1342   20.4010 C   0  0  0  0  0  0  0  0  0  0  0  0
  -30.4551  -22.6914   15.1647 C   0  0  0  0  0  0  0  0  0  0  0  0
  -27.4869  -14.9656   19.8590 C   0  0  0  0  0  0  0  0  0  0  0  0
  -28.8064  -16.7228   19.9383 C   0  0  0  0  0  0  0  0  0  0  0  0
  -30.0236  -14.5413   19.8493 C   0  0  0  0  0  0  0  0  0  0  0  0
  -22.5278  -29.7429   21.9930 C   0  0  0  0  0  0  0  0  0  0  0  0
  -23.8478  -32.5110   23.0503 C   0  0  0  0  0  0  0  0  0  0  0  0
  -27.7459  -27.1323   16.1246 C   0  0  0  0  0  0  0  0  0  0  0  0
  -26.5923  -34.5323   23.2208 C   0  0  0  0  0  0  0  0  0  0  0  0
  -26.7617  -21.6200   18.2533 C   0  0  0  0  0  0  0  0  0  0  0  0
  -18.4186  -26.9111   23.0666 C   0  0  0  0  0  0  0  0  0  0  0  0
  -24.6192  -28.9037   23.1233 C   0  0  0  0  0  0  0  0  0  0  0  0
  -25.1772  -31.2038   21.3505 C   0  0  0  0  0  0  0  0  0  0  0  0
  -18.7955  -28.3840   23.2035 C   0  0  0  0  0  0  0  0  0  0  0  0
  -24.9474  -19.8883   20.7804 C   0  0  0  0  0  0  0  0  0  0  0  0
  -19.3853  -28.9076   21.8978 C   0  0  0  0  0  0  0  0  0  0  0  0
  -25.5577  -18.4849   20.7677 C   0  0  0  0  0  0  0  0  0  0  0  0
  -24.8593  -20.4812   19.3753 C   0  0  0  0  0  0  0  0  0  0  0  0
  -26.7285  -19.0725   18.6065 C   0  0  0  0  0  0  0  0  0  0  0  0
  -20.6695  -28.1541   21.5311 C   0  0  1  0  0  0  0  0  0  0  0  0
  -23.6301  -30.0544   22.9654 C   0  0  1  0  0  0  0  0  0  0  0  0
  -26.8976  -18.4600   20.0064 C   0  0  2  0  0  0  0  0  0  0  0  0
  -27.3543  -36.7477   24.1199 C   0  0  0  0  0  0  0  0  0  0  0  0
  -22.3648  -33.9336   20.7949 C   0  0  0  0  0  0  0  0  0  0  0  0
  -23.8704  -35.9036   21.1413 C   0  0  0  0  0  0  0  0  0  0  0  0
  -22.3594  -35.1526   22.9785 C   0  0  0  0  0  0  0  0  0  0  0  0
  -28.6410  -33.2618   24.9378 C   0  0  0  0  0  0  0  0  0  0  0  0
  -27.7216  -25.2354   14.5088 C   0  0  0  0  0  0  0  0  0  0  0  0
  -28.4637  -28.4487   16.3784 C   0  0  0  0  0  0  0  0  0  0  0  0
  -27.9635  -29.1678   17.6217 C   0  0  0  0  0  0  0  0  0  1  0  0
  -24.3856  -33.7587   22.3922 C   0  0  1  0  0  0  0  0  0  0  0  0
  -27.2399  -35.2552   24.3881 C   0  0  2  0  0  0  0  0  0  0  0  0
  -23.2559  -34.6614   21.8210 C   0  0  0  0  0  0  0  0  0  0  0  0
  -26.6533  -16.0084   19.9008 N   0  0  0  0  0  0  0  0  0  0  0  0
  -27.4856  -17.0625   19.9487 N   0  0  0  0  0  0  0  0  0  0  0  0
  -24.2686  -31.2894   22.5058 N   0  0  0  0  0  0  0  0  0  0  0  0
  -26.1663  -20.4278   18.7167 N   0  0  0  0  0  0  0  0  0  0  0  0
  -29.7775  -17.6596   19.9813 N   0  0  0  0  0  0  0  0  0  0  0  0
  -29.8786  -13.1486   19.7894 N   0  0  0  0  0  0  0  0  0  0  0  0
  -28.0185  -21.4494   17.6736 N   0  0  0  0  0  0  0  0  0  0  0  0
  -21.7799  -28.6303   22.3279 N   0  0  0  0  0  0  0  0  0  0  0  0
  -28.2258  -26.5034   14.9847 N   0  0  0  0  0  0  0  0  0  0  0  0
  -25.2286  -34.4137   23.3866 N   0  0  0  0  0  0  0  0  0  0  0  0
  -28.6068  -34.7163   24.6372 N   0  3  0  0  0  0  0  0  0  0  0  0
  -31.1750  -15.0374   19.8909 O   0  0  0  0  0  0  0  0  0  0  0  0
  -22.3667  -30.4599   21.0123 O   0  0  0  0  0  0  0  0  0  0  0  0
  -23.0881  -32.6163   24.0164 O   0  0  0  0  0  0  0  0  0  0  0  0
  -26.8557  -26.6995   16.8513 O   0  0  0  0  0  0  0  0  0  0  0  0
  -27.2317  -34.1177   22.2565 O   0  0  0  0  0  0  0  0  0  0  0  0
  -26.2103  -22.7155   18.3871 O   0  0  0  0  0  0  0  0  0  0  0  0
  -25.4603   -9.7593   19.6277 O   0  0  0  0  0  0  0  0  0  0  0  0
  -28.1998  -28.3518   18.7682 O   0  0  0  0  0  0  0  0  0  1  0  0
  -21.3039   -8.4673   23.0129 F   0  0  0  0  0  0  0  0  0  0  0  0
  -23.0563  -11.1189   19.5052 F   0  0  0  0  0  0  0  0  0  0  0  0
  -32.0315  -22.3128   14.5872 Cl  0  0  0  0  0  0  0  0  0  0  0  0
  1  2  1  0  0  0  0
  1  5  2  0  0  0  0
  2  6  2  0  0  0  0
  3  8  2  0  0  0  0
  3 18  1  0  0  0  0
  4  9  1  0  0  0  0
  4 18  2  0  0  0  0
  5 20  1  0  0  0  0
  6 22  1  0  0  0  0
  7 10  2  0  0  0  0
  7 21  1  0  0  0  0
  8 26  1  0  0  0  0
  9 26  2  0  0  0  0
 10 27  1  0  0  0  0
 11 12  2  0  0  0  0
 11 28  1  0  0  0  0
 12 29  1  0  0  0  0
 13 23  1  0  0  0  0
 13 27  2  0  0  0  0
 14 24  2  0  0  0  0
 14 25  1  0  0  0  0
 15 24  1  0  0  0  0
 15 31  2  0  0  0  0
 16 25  2  0  0  0  0
 16 31  1  0  0  0  0
 17 29  2  0  0  0  0
 17 30  1  0  0  0  0
 18 32  1  0  0  0  0
 19 32  1  0  0  0  0
 19 33  2  0  0  0  0
 19 34  1  0  0  0  0
 20 22  2  0  0  0  0
 20 40  1  0  0  0  0
 21 23  2  0  0  0  0
 21 41  1  0  0  0  0
 22 49  1  0  0  0  0
 23 42  1  0  0  0  0
 24 57  1  0  0  0  0
 25 69  1  0  0  0  0
 26 80  1  0  0  0  0
 27 81  1  0  0  0  0
 28 30  2  0  0  0  0
 28 80  1  0  0  0  0
 29 82  1  0  0  0  0
 30 83  1  0  0  0  0
 31 84  1  0  0  0  0
 32 63  2  0  0  0  0
 33 64  1  0  0  0  0
 33 67  1  0  0  0  0
 34 68  1  0  0  0  0
 34 74  2  0  0  0  0
 35 50  1  0  0  0  0
 35 70  1  0  0  0  0
 35 75  2  0  0  0  0
 36 60  1  0  0  0  0
 36 65  1  0  0  0  0
 36 76  2  0  0  0  0
 37 58  1  0  0  0  0
 37 71  1  0  0  0  0
 37 77  2  0  0  0  0
 38 61  1  0  0  0  0
 38 72  1  0  0  0  0
 38 78  2  0  0  0  0
 39 66  1  0  0  0  0
 39 69  1  0  0  0  0
 39 79  2  0  0  0  0
 40 43  1  0  0  0  0
 41 50  1  0  0  0  0
 42 65  1  0  0  0  0
 43 45  1  0  0  0  0
 44 46  1  0  0  0  0
 44 47  1  0  0  0  0
 45 49  1  0  0  0  0
 46 51  1  0  0  0  0
 47 66  1  0  0  0  0
 48 51  1  0  0  0  0
 48 66  1  0  0  0  0
 49 70  1  0  0  0  0
 50 65  1  0  0  0  0
 51 64  1  0  0  0  0
 52 61  1  0  0  0  0
 53 62  1  0  0  0  0
 54 62  1  0  0  0  0
 55 62  1  0  0  0  0
 56 73  1  0  0  0  0
 57 71  1  0  0  0  0
 58 59  1  0  0  0  0
 59 81  1  0  0  0  0
 60 62  1  0  0  0  0
 60 72  1  0  0  0  0
 61 73  1  0  0  0  0
 63 64  1  0  0  0  0
M  CHG  1  73   1
M  ISO  4  39 100  59 101  69 100  81 101
M  END
> <Batch ID>
0049

> <Smiles>
CNC(C)C(=O)NC(C(=O)N1Cc2cc([101O:1][101CH2:1]CC(=O)NCc3cc(Cl)cc([100NH:0][100C:0](=O)N4CCCC(n5nc(-c6ccc(Oc7ccc(F)cc7F)cc6)c(C(N)=O)c5N)C4)c3)ccc2CC1C(=O)NC1CCCc2ccccc21)C(C)(C)C

> <Shape>
0.256

> <Color>
0.115

> <Negative vol penalty>
0.000

$$$$

  -OEChem-04042322323D

 89 98  0     1  0  0  0  0  0999 V2000
  -24.4619  -17.5762   37.8947 C   0  0  0  0  0  0  0  0  0  0  0  0
  -25.0275  -17.5420   36.6242 C   0  0  0  0  0  0  0  0  0  0  0  0
  -22.6503  -10.2105   20.2508 C   0  0  0  0  0  0  0  0  0  0  0  0
  -24.2549   -9.5369   21.9268 C   0  0  0  0  0  0  0  0  0  0  0  0
  -23.1594  -17.1183   38.0892 C   0  0  0  0  0  0  0  0  0  0  0  0
  -24.2914  -17.0487   35.5475 C   0  0  0  0  0  0  0  0  0  0  0  0
  -24.6817  -19.9670   31.4273 C   0  0  0  0  0  0  0  0  0  0  0  0
  -21.9054   -9.0581   20.5007 C   0  0  0  0  0  0  0  0  0  0  0  0
  -23.5099   -8.3844   22.1768 C   0  0  0  0  0  0  0  0  0  0  0  0
  -25.8486  -19.8512   30.6732 C   0  0  0  0  0  0  0  0  0  0  0  0
  -19.6996   -7.9725   22.8221 C   0  0  0  0  0  0  0  0  0  0  0  0
  -18.3167   -8.1082   22.9438 C   0  0  0  0  0  0  0  0  0  0  0  0
  -24.6874  -18.4324   29.1055 C   0  0  0  0  0  0  0  0  0  0  0  0
  -31.9228  -18.3303   24.1828 C   0  0  0  0  0  0  0  0  0  0  0  0
  -32.0666  -16.5781   22.5256 C   0  0  0  0  0  0  0  0  0  0  0  0
  -18.0051   -6.6082   21.0756 C   0  0  0  0  0  0  0  0  0  0  0  0
  -23.8251  -10.4499   20.9638 C   0  0  0  0  0  0  0  0  0  0  0  0
  -24.1690  -12.9747   20.8418 C   0  0  0  0  0  0  0  0  0  0  0  0
  -22.4035  -16.6281   37.0126 C   0  0  0  0  0  0  0  0  0  0  0  0
  -23.5098  -19.3064   31.0314 C   0  0  0  0  0  0  0  0  0  0  0  0
  -22.9781  -16.5825   35.7280 C   0  0  0  0  0  0  0  0  0  0  0  0
  -23.5063  -18.5435   29.8549 C   0  0  0  0  0  0  0  0  0  0  0  0
  -30.5344  -18.3416   24.0504 C   0  0  0  0  0  0  0  0  0  0  0  0
  -30.6781  -16.5894   22.3932 C   0  0  0  0  0  0  0  0  0  0  0  0
  -22.3352   -8.1450   21.4637 C   0  0  0  0  0  0  0  0  0  0  0  0
  -25.8524  -19.0815   29.5137 C   0  0  0  0  0  0  0  0  0  0  0  0
  -20.2353   -7.1547   21.8271 C   0  0  0  0  0  0  0  0  0  0  0  0
  -17.4695   -7.4261   22.0706 C   0  0  0  0  0  0  0  0  0  0  0  0
  -19.3881   -6.4726   20.9539 C   0  0  0  0  0  0  0  0  0  0  0  0
  -32.6890  -17.4485   23.4204 C   0  0  0  0  0  0  0  0  0  0  0  0
  -29.9120  -17.4712   23.1556 C   0  0  0  0  0  0  0  0  0  0  0  0
  -24.5954  -11.6400   20.7056 C   0  0  0  0  0  0  0  0  0  0  0  0
  -25.2621  -13.7230   20.4788 C   0  0  0  0  0  0  0  0  0  0  0  0
  -29.3520  -20.0177   27.1734 C   0  0  0  0  0  0  0  0  0  0  0  0
  -32.6942  -20.5259   28.6073 C   0  0  0  0  0  0  0  0  0  0  0  0
  -30.3507  -20.5258   27.9112 C   0  0  0  0  0  0  0  0  0  0  0  0
  -31.6988  -20.0188   27.8713 C   0  0  0  0  0  0  0  0  0  0  0  0
  -22.8986  -13.4919   21.2591 C   0  0  0  0  0  0  0  0  0  0  0  0
  -21.6623  -17.0569   32.3080 C   0  0  0  0  0  0  0  0  0  0  0  0
  -19.7771  -17.7010   29.7481 C   0  0  0  0  0  0  0  0  0  0  0  0
  -20.2456  -18.3574   26.2314 C   0  0  0  0  0  0  0  0  0  0  0  0
  -30.7290  -14.7645   20.6573 C   0  0  0  0  0  0  0  0  0  0  0  0
  -21.0164  -16.1000   37.2804 C   0  0  0  0  0  0  0  0  0  0  0  0
  -22.2522  -19.4632   31.8414 C   0  0  0  0  0  0  0  0  0  0  0  0
  -22.2690  -17.8309   29.3756 C   0  0  0  0  0  0  0  0  0  0  0  0
  -27.9437  -20.5520   27.2191 C   0  0  0  0  0  0  0  0  0  0  0  0
  -20.1713  -15.9408   36.0192 C   0  0  0  0  0  0  0  0  0  0  0  0
  -29.6147  -12.3494   18.2903 C   0  0  0  0  0  0  0  0  0  0  0  0
  -20.9740  -15.2480   34.9227 C   0  0  0  0  0  0  0  0  0  0  0  0
  -28.1745  -12.0593   18.7188 C   0  0  0  0  0  0  0  0  0  0  0  0
  -27.2181  -18.2392   26.4953 C   0  0  0  0  0  0  0  0  0  0  0  0
  -30.5290  -12.5785   19.4925 C   0  0  0  0  0  0  0  0  0  0  0  0
  -28.6214  -13.3058   20.8714 C   0  0  0  0  0  0  0  0  0  0  0  0
  -28.6681  -17.7658   26.5868 C   0  0  0  0  0  0  0  0  0  0  0  0
  -22.2027  -16.0775   34.5306 C   0  0  1  0  0  0  0  0  0  0  0  0
  -21.2548  -18.3299   31.6217 C   0  0  1  0  0  0  0  0  0  0  0  0
  -27.6494  -13.1322   19.6929 C   0  0  2  0  0  0  0  0  0  0  0  0
  -26.9367  -19.4201   27.4241 C   0  0  1  0  0  0  0  0  0  1  0  0
  -18.8364  -19.6576   24.6125 C   0  0  0  0  0  0  0  0  0  0  0  0
  -18.5316  -14.9912   29.1033 C   0  0  0  0  0  0  0  0  0  0  0  0
  -18.4416  -15.6828   26.6988 C   0  0  0  0  0  0  0  0  0  0  0  0
  -17.1566  -16.9624   28.4117 C   0  0  0  0  0  0  0  0  0  0  0  0
  -22.5194  -20.0893   25.4639 C   0  0  0  0  0  0  0  0  0  0  0  0
  -29.7515  -19.3069   24.8908 C   0  0  0  0  0  0  0  0  0  0  0  0
  -19.6747  -17.1755   28.3366 C   0  0  1  0  0  0  0  0  0  0  0  0
  -20.0552  -19.6857   25.5216 C   0  0  2  0  0  0  0  0  0  0  0  0
  -18.4758  -16.2029   28.1517 C   0  0  0  0  0  0  0  0  0  0  0  0
  -25.8605  -11.5428   20.2885 N   0  0  0  0  0  0  0  0  0  0  0  0
  -26.2385  -12.8259   20.1594 N   0  0  0  0  0  0  0  0  0  0  0  0
  -21.0660  -18.0097   30.2053 N   0  0  0  0  0  0  0  0  0  0  0  0
  -29.9700  -13.6106   20.3685 N   0  0  0  0  0  0  0  0  0  0  0  0
  -25.4736  -15.0542   20.4047 N   0  0  0  0  0  0  0  0  0  0  0  0
  -21.8857  -12.5838   21.5963 N   0  0  0  0  0  0  0  0  0  0  0  0
  -30.0816  -15.6907   21.4743 N   0  0  0  0  0  0  0  0  0  0  0  0
  -21.8166  -17.1796   33.6757 N   0  0  0  0  0  0  0  0  0  0  0  0
  -19.6339  -18.3463   27.4671 N   0  0  0  0  0  0  0  0  0  0  0  0
  -29.6491  -18.8859   26.3308 N   0  3  1  0  0  0  0  0  0  0  0  0
  -21.2519  -20.0067   24.6935 N   0  3  0  0  0  0  0  0  0  0  0  0
  -22.6633  -14.7228   21.3151 O   0  0  0  0  0  0  0  0  0  0  0  0
  -21.8233  -16.0383   31.6460 O   0  0  0  0  0  0  0  0  0  0  0  0
  -18.7504  -17.8393   30.4178 O   0  0  0  0  0  0  0  0  0  0  0  0
  -20.8711  -17.4218   25.7374 O   0  0  0  0  0  0  0  0  0  0  0  0
  -31.8586  -14.9319   20.1905 O   0  0  0  0  0  0  0  0  0  0  0  0
  -21.6084   -7.0205   21.7081 O   0  0  0  0  0  0  0  0  0  0  0  0
  -26.9902  -18.9662   28.7761 O   0  0  0  0  0  0  0  0  0  1  0  0
  -16.1415   -7.5552   22.1886 F   0  0  0  0  0  0  0  0  0  0  0  0
  -19.8968   -5.6846   19.9968 F   0  0  0  0  0  0  0  0  0  0  0  0
  -34.4023  -17.4348   23.5838 Cl  0  0  0  0  0  0  0  0  0  0  0  0
  -28.1858  -17.4900   22.9955 Cl  0  0  0  0  0  0  0  0  0  0  0  0
  1  2  1  0  0  0  0
  1  5  2  0  0  0  0
  2  6  2  0  0  0  0
  3  8  2  0  0  0  0
  3 17  1  0  0  0  0
  4  9  1  0  0  0  0
  4 17  2  0  0  0  0
  5 19  1  0  0  0  0
  6 21  1  0  0  0  0
  7 10  2  0  0  0  0
  7 20  1  0  0  0  0
  8 25  1  0  0  0  0
  9 25  2  0  0  0  0
 10 26  1  0  0  0  0
 11 12  2  0  0  0  0
 11 27  1  0  0  0  0
 12 28  1  0  0  0  0
 13 22  1  0  0  0  0
 13 26  2  0  0  0  0
 14 23  1  0  0  0  0
 14 30  2  0  0  0  0
 15 24  2  0  0  0  0
 15 30  1  0  0  0  0
 16 28  2  0  0  0  0
 16 29  1  0  0  0  0
 17 32  1  0  0  0  0
 18 32  1  0  0  0  0
 18 33  2  0  0  0  0
 18 38  1  0  0  0  0
 19 21  2  0  0  0  0
 19 43  1  0  0  0  0
 20 22  2  0  0  0  0
 20 44  1  0  0  0  0
 21 55  1  0  0  0  0
 22 45  1  0  0  0  0
 23 31  2  0  0  0  0
 23 64  1  0  0  0  0
 24 31  1  0  0  0  0
 24 74  1  0  0  0  0
 25 84  1  0  0  0  0
 26 85  1  0  0  0  0
 27 29  2  0  0  0  0
 27 84  1  0  0  0  0
 28 86  1  0  0  0  0
 29 87  1  0  0  0  0
 30 88  1  0  0  0  0
 31 89  1  0  0  0  0
 32 68  2  0  0  0  0
 33 69  1  0  0  0  0
 33 72  1  0  0  0  0
 34 36  2  0  0  0  0
 34 46  1  0  0  0  0
 34 77  1  0  0  0  0
 35 37  2  0  0  0  0
 36 37  1  0  0  0  0
 38 73  1  0  0  0  0
 38 79  2  0  0  0  0
 39 56  1  0  0  0  0
 39 75  1  0  0  0  0
 39 80  2  0  0  0  0
 40 65  1  0  0  0  0
 40 70  1  0  0  0  0
 40 81  2  0  0  0  0
 41 66  1  0  0  0  0
 41 76  1  0  0  0  0
 41 82  2  0  0  0  0
 42 71  1  0  0  0  0
 42 74  1  0  0  0  0
 42 83  2  0  0  0  0
 43 47  1  0  0  0  0
 44 56  1  0  0  0  0
 45 70  1  0  0  0  0
 46 58  1  0  0  0  0
 47 49  1  0  0  0  0
 48 50  1  0  0  0  0
 48 52  1  0  0  0  0
 49 55  1  0  0  0  0
 50 57  1  0  0  0  0
 51 54  1  0  0  0  0
 51 58  1  0  0  0  0
 52 71  1  0  0  0  0
 53 57  1  0  0  0  0
 53 71  1  0  0  0  0
 54 77  1  0  0  0  0
 55 75  1  0  0  0  0
 56 70  1  0  0  0  0
 57 69  1  0  0  0  0
 58 85  1  0  0  0  0
 59 66  1  0  0  0  0
 60 67  1  0  0  0  0
 61 67  1  0  0  0  0
 62 67  1  0  0  0  0
 63 78  1  0  0  0  0
 64 77  1  0  0  0  0
 65 67  1  0  0  0  0
 65 76  1  0  0  0  0
 66 78  1  0  0  0  0
 68 69  1  0  0  0  0
M  CHG  2  77   1  78   1
M  ISO  4  42 100  58 101  74 100  85 101
M  END
> <Batch ID>
0049

> <Smiles>
C=CC=C1C[101CH:1]([101O:1]c2ccc3c(c2)CN(C(=O)C(NC(=O)C(C)NC)C(C)(C)C)C(C(=O)NC2CCCc4ccccc42)C3)CCN1Cc1cc(Cl)cc([100NH:0][100C:0](=O)N2CCCC(n3nc(-c4ccc(Oc5ccc(F)cc5F)cc4)c(C(N)=O)c3N)C2)c1Cl

> <Shape>
0.148

> <Color>
0.184

> <Negative vol penalty>
0.000

$$$$

  -OEChem-04042322323D

 85 93  0     1  0  0  0  0  0999 V2000
  -16.3488  -28.9831   23.3992 C   0  0  0  0  0  0  0  0  0  0  0  0
  -17.1980  -28.6352   22.3537 C   0  0  0  0  0  0  0  0  0  0  0  0
  -27.6002  -13.4436   21.7564 C   0  0  0  0  0  0  0  0  0  0  0  0
  -27.1868  -13.9833   19.4381 C   0  0  0  0  0  0  0  0  0  0  0  0
  -16.7892  -29.8573   24.3921 C   0  0  0  0  0  0  0  0  0  0  0  0
  -18.4879  -29.1622   22.2998 C   0  0  0  0  0  0  0  0  0  0  0  0
  -23.5251  -26.3626   20.2273 C   0  0  0  0  0  0  0  0  0  0  0  0
  -32.5000  -24.0906   16.2400 C   0  0  0  0  0  0  0  0  0  0  0  0
  -26.7228  -12.3635   21.6615 C   0  0  0  0  0  0  0  0  0  0  0  0
  -26.3095  -12.9031   19.3430 C   0  0  0  0  0  0  0  0  0  0  0  0
  -24.1938  -26.4186   19.0053 C   0  0  0  0  0  0  0  0  0  0  0  0
  -26.7796   -9.2073   20.4497 C   0  0  0  0  0  0  0  0  0  0  0  0
  -27.1844   -7.9927   21.0033 C   0  0  0  0  0  0  0  0  0  0  0  0
  -32.9532  -22.7872   16.4436 C   0  0  0  0  0  0  0  0  0  0  0  0
  -25.7035  -28.0662   19.9138 C   0  0  0  0  0  0  0  0  0  0  0  0
  -30.9290  -23.8281   18.0566 C   0  0  0  0  0  0  0  0  0  0  0  0
  -25.2749   -8.0307   22.4830 C   0  0  0  0  0  0  0  0  0  0  0  0
  -27.8322  -14.2536   20.6448 C   0  0  0  0  0  0  0  0  0  0  0  0
  -30.1236  -15.3646   20.4939 C   0  0  0  0  0  0  0  0  0  0  0  0
  -18.0884  -30.3877   24.3555 C   0  0  0  0  0  0  0  0  0  0  0  0
  -23.9345  -27.1674   21.3003 C   0  0  0  0  0  0  0  0  0  0  0  0
  -18.9457  -30.0454   23.2923 C   0  0  0  0  0  0  0  0  0  0  0  0
  -25.0399  -28.0167   21.1492 C   0  0  0  0  0  0  0  0  0  0  0  0
  -31.4879  -24.6111   17.0465 C   0  0  0  0  0  0  0  0  0  0  0  0
  -31.3821  -22.5247   18.2601 C   0  0  0  0  0  0  0  0  0  0  0  0
  -26.0775  -12.0932   20.4548 C   0  0  0  0  0  0  0  0  0  0  0  0
  -25.2814  -27.2726   18.8475 C   0  0  0  0  0  0  0  0  0  0  0  0
  -25.6225   -9.8336   20.9128 C   0  0  0  0  0  0  0  0  0  0  0  0
  -26.4321   -7.4044   22.0199 C   0  0  0  0  0  0  0  0  0  0  0  0
  -24.8701   -9.2453   21.9294 C   0  0  0  0  0  0  0  0  0  0  0  0
  -32.3943  -22.0043   17.4536 C   0  0  0  0  0  0  0  0  0  0  0  0
  -28.7379  -15.3699   20.7424 C   0  0  0  0  0  0  0  0  0  0  0  0
  -30.5187  -16.6597   20.7241 C   0  0  0  0  0  0  0  0  0  0  0  0
  -30.9772  -14.2854   20.0910 C   0  0  0  0  0  0  0  0  0  0  0  0
  -22.5868  -29.4851   23.0077 C   0  0  0  0  0  0  0  0  0  0  0  0
  -25.3027  -29.2379   24.7642 C   0  0  0  0  0  0  0  0  0  0  0  0
  -28.4946  -26.0769   16.8683 C   0  0  0  0  0  0  0  0  0  0  0  0
  -28.5860  -28.3182   24.9085 C   0  0  0  0  0  0  0  0  0  0  0  0
  -29.7785  -22.1501   20.1666 C   0  0  0  0  0  0  0  0  0  0  0  0
  -18.5035  -31.3659   25.4258 C   0  0  0  0  0  0  0  0  0  0  0  0
  -23.2192  -27.0756   22.6202 C   0  0  0  0  0  0  0  0  0  0  0  0
  -25.5318  -28.8862   22.2763 C   0  0  0  0  0  0  0  0  0  0  0  0
  -20.0123  -31.5865   25.4973 C   0  0  0  0  0  0  0  0  0  0  0  0
  -28.0318  -20.5394   22.8183 C   0  0  0  0  0  0  0  0  0  0  0  0
  -20.5865  -31.8058   24.1012 C   0  0  0  0  0  0  0  0  0  0  0  0
  -28.1738  -19.0505   22.4942 C   0  0  0  0  0  0  0  0  0  0  0  0
  -27.8660  -21.3816   21.5546 C   0  0  0  0  0  0  0  0  0  0  0  0
  -29.0407  -19.6865   20.2070 C   0  0  0  0  0  0  0  0  0  0  0  0
  -20.3603  -30.5768   23.2124 C   0  0  1  0  0  0  0  0  0  0  0  0
  -23.4024  -28.3177   23.4868 C   0  0  1  0  0  0  0  0  0  0  0  0
  -29.2753  -18.8048   21.4444 C   0  0  2  0  0  0  0  0  0  0  0  0
  -30.5522  -28.2720   26.4672 C   0  0  0  0  0  0  0  0  0  0  0  0
  -25.6799  -32.2404   24.3735 C   0  0  0  0  0  0  0  0  0  0  0  0
  -28.0603  -31.9652   25.0988 C   0  0  0  0  0  0  0  0  0  0  0  0
  -26.2065  -31.4135   26.6742 C   0  0  0  0  0  0  0  0  0  0  0  0
  -29.7523  -26.0361   14.7032 C   0  0  0  0  0  0  0  0  0  0  0  0
  -28.7864  -25.3694   24.7545 C   0  0  0  0  0  0  0  0  0  0  0  0
  -31.0007  -26.0142   16.8273 C   0  0  0  0  0  0  0  0  0  0  0  0
  -27.2227  -26.1060   16.0271 C   0  0  0  0  0  0  0  0  0  0  0  0
  -25.9512  -26.1413   16.8657 C   0  0  0  0  0  0  0  0  0  1  0  0
  -26.6681  -29.8801   24.7177 C   0  0  1  0  0  0  0  0  0  0  0  0
  -29.3590  -27.4995   25.9267 C   0  0  2  0  0  0  0  0  0  0  0  0
  -26.6435  -31.3600   25.1940 C   0  0  0  0  0  0  0  0  0  0  0  0
  -28.2833  -16.5730   21.1030 N   0  0  0  0  0  0  0  0  0  0  0  0
  -29.3897  -17.3357   21.0828 N   0  0  0  0  0  0  0  0  0  0  0  0
  -24.7954  -28.7654   23.5455 N   0  0  0  0  0  0  0  0  0  0  0  0
  -28.9473  -21.0990   20.6082 N   0  0  0  0  0  0  0  0  0  0  0  0
  -31.7182  -17.2749   20.6527 N   0  0  0  0  0  0  0  0  0  0  0  0
  -30.4079  -13.0193   19.8985 N   0  0  0  0  0  0  0  0  0  0  0  0
  -30.7922  -21.7558   19.2939 N   0  0  0  0  0  0  0  0  0  0  0  0
  -21.3117  -29.5358   23.5377 N   0  0  0  0  0  0  0  0  0  0  0  0
  -27.5518  -29.0171   25.4941 N   0  0  0  0  0  0  0  0  0  0  0  0
  -29.7011  -26.0437   16.1601 N   0  0  0  0  0  0  0  0  0  0  0  0
  -29.8568  -26.2387   25.3073 N   0  3  0  0  0  0  0  0  0  0  0  0
  -32.2112  -14.4357   19.9230 O   0  0  0  0  0  0  0  0  0  0  0  0
  -23.0785  -30.2818   22.2170 O   0  0  0  0  0  0  0  0  0  0  0  0
  -24.7113  -29.1519   25.8432 O   0  0  0  0  0  0  0  0  0  0  0  0
  -28.4320  -26.0838   18.1005 O   0  0  0  0  0  0  0  0  0  0  0  0
  -28.8735  -28.3387   23.7137 O   0  0  0  0  0  0  0  0  0  0  0  0
  -29.6208  -23.3098   20.5566 O   0  0  0  0  0  0  0  0  0  0  0  0
  -25.2214  -11.0391   20.3616 O   0  0  0  0  0  0  0  0  0  0  0  0
  -25.9355  -27.3297   17.6555 O   0  0  0  0  0  0  0  0  0  1  0  0
  -26.8201   -6.2372   22.5504 F   0  0  0  0  0  0  0  0  0  0  0  0
  -23.7569   -9.8417   22.3776 F   0  0  0  0  0  0  0  0  0  0  0  0
  -32.9852  -20.3954   17.6707 Cl  0  0  0  0  0  0  0  0  0  0  0  0
  1  2  1  0  0  0  0
  1  5  2  0  0  0  0
  2  6  2  0  0  0  0
  3  9  2  0  0  0  0
  3 18  1  0  0  0  0
  4 10  1  0  0  0  0
  4 18  2  0  0  0  0
  5 20  1  0  0  0  0
  6 22  1  0  0  0  0
  7 11  2  0  0  0  0
  7 21  1  0  0  0  0
  8 14  2  0  0  0  0
  8 24  1  0  0  0  0
  9 26  1  0  0  0  0
 10 26  2  0  0  0  0
 11 27  1  0  0  0  0
 12 13  2  0  0  0  0
 12 28  1  0  0  0  0
 13 29  1  0  0  0  0
 14 31  1  0  0  0  0
 15 23  1  0  0  0  0
 15 27  2  0  0  0  0
 16 24  2  0  0  0  0
 16 25  1  0  0  0  0
 17 29  2  0  0  0  0
 17 30  1  0  0  0  0
 18 32  1  0  0  0  0
 19 32  1  0  0  0  0
 19 33  2  0  0  0  0
 19 34  1  0  0  0  0
 20 22  2  0  0  0  0
 20 40  1  0  0  0  0
 21 23  2  0  0  0  0
 21 41  1  0  0  0  0
 22 49  1  0  0  0  0
 23 42  1  0  0  0  0
 24 58  1  0  0  0  0
 25 31  2  0  0  0  0
 25 70  1  0  0  0  0
 26 81  1  0  0  0  0
 27 82  1  0  0  0  0
 28 30  2  0  0  0  0
 28 81  1  0  0  0  0
 29 83  1  0  0  0  0
 30 84  1  0  0  0  0
 31 85  1  0  0  0  0
 32 64  2  0  0  0  0
 33 65  1  0  0  0  0
 33 68  1  0  0  0  0
 34 69  1  0  0  0  0
 34 75  2  0  0  0  0
 35 50  1  0  0  0  0
 35 71  1  0  0  0  0
 35 76  2  0  0  0  0
 36 61  1  0  0  0  0
 36 66  1  0  0  0  0
 36 77  2  0  0  0  0
 37 59  1  0  0  0  0
 37 73  1  0  0  0  0
 37 78  2  0  0  0  0
 38 62  1  0  0  0  0
 38 72  1  0  0  0  0
 38 79  2  0  0  0  0
 39 67  1  0  0  0  0
 39 70  1  0  0  0  0
 39 80  2  0  0  0  0
 40 43  1  0  0  0  0
 41 50  1  0  0  0  0
 42 66  1  0  0  0  0
 43 45  1  0  0  0  0
 44 46  1  0  0  0  0
 44 47  1  0  0  0  0
 45 49  1  0  0  0  0
 46 51  1  0  0  0  0
 47 67  1  0  0  0  0
 48 51  1  0  0  0  0
 48 67  1  0  0  0  0
 49 71  1  0  0  0  0
 50 66  1  0  0  0  0
 51 65  1  0  0  0  0
 52 62  1  0  0  0  0
 53 63  1  0  0  0  0
 54 63  1  0  0  0  0
 55 63  1  0  0  0  0
 56 73  1  0  0  0  0
 57 74  1  0  0  0  0
 58 73  1  0  0  0  0
 59 60  1  0  0  0  0
 60 82  1  0  0  0  0
 61 63  1  0  0  0  0
 61 72  1  0  0  0  0
 62 74  1  0  0  0  0
 64 65  1  0  0  0  0
M  CHG  1  74   1
M  ISO  4  39 100  60 101  70 100  82 101
M  END
> <Batch ID>
0049

> <Smiles>
CNC(C)C(=O)NC(C(=O)N1Cc2cc([101O:1][101CH2:1]CC(=O)N(C)Cc3ccc(Cl)c([100NH:0][100C:0](=O)N4CCCC(n5nc(-c6ccc(Oc7ccc(F)cc7F)cc6)c(C(N)=O)c5N)C4)c3)ccc2CC1C(=O)NC1CCCc2ccccc21)C(C)(C)C

> <Shape>
0.284

> <Color>
0.068

> <Negative vol penalty>
0.000

$$$$

  -OEChem-04042322323D

 92101  0     1  0  0  0  0  0999 V2000
  -18.3900  -27.6132   18.6125 C   0  0  0  0  0  0  0  0  0  0  0  0
  -19.5243  -26.9048   18.9961 C   0  0  0  0  0  0  0  0  0  0  0  0
  -23.0442   -9.9879   21.5172 C   0  0  0  0  0  0  0  0  0  0  0  0
  -23.8173  -10.9065   23.6138 C   0  0  0  0  0  0  0  0  0  0  0  0
  -18.1815  -28.9056   19.0920 C   0  0  0  0  0  0  0  0  0  0  0  0
  -20.4512  -27.4890   19.8586 C   0  0  0  0  0  0  0  0  0  0  0  0
  -21.9625  -24.3287   23.5156 C   0  0  0  0  0  0  0  0  0  0  0  0
  -22.2910   -9.0402   22.2101 C   0  0  0  0  0  0  0  0  0  0  0  0
  -23.0641   -9.9588   24.3067 C   0  0  0  0  0  0  0  0  0  0  0  0
  -22.9043  -23.3601   23.1711 C   0  0  0  0  0  0  0  0  0  0  0  0
  -22.8338   -6.1115   23.8078 C   0  0  0  0  0  0  0  0  0  0  0  0
  -22.8856   -4.7911   23.3613 C   0  0  0  0  0  0  0  0  0  0  0  0
  -31.9940  -19.3451   21.9905 C   0  0  0  0  0  0  0  0  0  0  0  0
  -32.1117  -17.0744   21.1739 C   0  0  0  0  0  0  0  0  0  0  0  0
  -24.6472  -24.7202   24.1363 C   0  0  0  0  0  0  0  0  0  0  0  0
  -20.5007   -4.8278   22.9762 C   0  0  0  0  0  0  0  0  0  0  0  0
  -23.8075  -10.9210   22.2190 C   0  0  0  0  0  0  0  0  0  0  0  0
  -32.7474  -18.2238   21.6433 C   0  0  0  0  0  0  0  0  0  0  0  0
  -24.1723  -13.1817   21.0950 C   0  0  0  0  0  0  0  0  0  0  0  0
  -19.1015  -29.5023   19.9684 C   0  0  0  0  0  0  0  0  0  0  0  0
  -22.3582  -25.5072   24.1644 C   0  0  0  0  0  0  0  0  0  0  0  0
  -20.2554  -28.7911   20.3492 C   0  0  0  0  0  0  0  0  0  0  0  0
  -23.7081  -25.7010   24.4903 C   0  0  0  0  0  0  0  0  0  0  0  0
  -30.6047  -19.3171   21.8683 C   0  0  0  0  0  0  0  0  0  0  0  0
  -30.7224  -17.0464   21.0516 C   0  0  0  0  0  0  0  0  0  0  0  0
  -22.3009   -9.0257   23.6049 C   0  0  0  0  0  0  0  0  0  0  0  0
  -24.2472  -23.5571   23.4789 C   0  0  0  0  0  0  0  0  0  0  0  0
  -21.6154   -6.7901   23.8386 C   0  0  0  0  0  0  0  0  0  0  0  0
  -21.7190   -4.1492   22.9454 C   0  0  0  0  0  0  0  0  0  0  0  0
  -20.4489   -6.1482   23.4227 C   0  0  0  0  0  0  0  0  0  0  0  0
  -29.9690  -18.1677   21.3988 C   0  0  0  0  0  0  0  0  0  0  0  0
  -24.5862  -11.8998   21.5038 C   0  0  0  0  0  0  0  0  0  0  0  0
  -25.2694  -13.7104   20.4598 C   0  0  0  0  0  0  0  0  0  0  0  0
  -34.8695  -17.3850   22.5762 C   0  0  0  0  0  0  0  0  0  0  0  0
  -34.2247  -18.2538   21.7739 C   0  0  0  0  0  0  0  0  0  0  0  0
  -30.4776  -21.1370   18.9898 C   0  0  0  0  0  0  0  0  0  0  0  0
  -30.4324  -21.6580   20.2189 C   0  0  0  0  0  0  0  0  0  0  0  0
  -22.9092  -13.8362   21.2735 C   0  0  0  0  0  0  0  0  0  0  0  0
  -22.2485  -28.6037   23.4549 C   0  0  0  0  0  0  0  0  0  0  0  0
  -27.1598  -22.1653   21.8440 C   0  0  0  0  0  0  0  0  0  0  0  0
  -23.3392  -28.9395   26.4913 C   0  0  0  0  0  0  0  0  0  0  0  0
  -24.9893  -27.5683   29.1453 C   0  0  0  0  0  0  0  0  0  0  0  0
  -30.7460  -14.6785   20.1920 C   0  0  0  0  0  0  0  0  0  0  0  0
  -18.8570  -30.9195   20.4230 C   0  0  0  0  0  0  0  0  0  0  0  0
  -21.3263  -26.5302   24.5531 C   0  0  0  0  0  0  0  0  0  0  0  0
  -24.1817  -26.9397   25.2043 C   0  0  0  0  0  0  0  0  0  0  0  0
  -36.3593  -17.3681   22.7652 C   0  0  0  0  0  0  0  0  0  0  0  0
  -34.9775  -19.2999   20.9825 C   0  0  0  0  0  0  0  0  0  0  0  0
  -19.6987  -31.3258   21.6299 C   0  0  0  0  0  0  0  0  0  0  0  0
  -37.0631  -18.6012   22.2008 C   0  0  0  0  0  0  0  0  0  0  0  0
  -36.4735  -18.9995   20.8537 C   0  0  0  0  0  0  0  0  0  0  0  0
  -29.5954  -11.5294   18.9934 C   0  0  0  0  0  0  0  0  0  0  0  0
  -21.1516  -30.9045   21.4338 C   0  0  0  0  0  0  0  0  0  0  0  0
  -28.1556  -11.4505   19.5061 C   0  0  0  0  0  0  0  0  0  0  0  0
  -30.5195  -12.2113   20.0008 C   0  0  0  0  0  0  0  0  0  0  0  0
  -28.6274  -13.4500   20.9779 C   0  0  0  0  0  0  0  0  0  0  0  0
  -21.2715  -29.3814   21.3028 C   0  0  1  0  0  0  0  0  0  0  0  0
  -21.9126  -27.9245   24.7524 C   0  0  1  0  0  0  0  0  0  0  0  0
  -27.6463  -12.8292   19.9702 C   0  0  2  0  0  0  0  0  0  0  0  0
  -25.7575  -28.0985   31.4748 C   0  0  0  0  0  0  0  0  0  0  0  0
  -25.6128  -30.6275   25.3548 C   0  0  0  0  0  0  0  0  0  0  0  0
  -26.8278  -30.3253   27.5229 C   0  0  0  0  0  0  0  0  0  0  0  0
  -24.6278  -31.5004   27.4813 C   0  0  0  0  0  0  0  0  0  0  0  0
  -23.3471  -25.3967   30.3057 C   0  0  0  0  0  0  0  0  0  0  0  0
  -29.8357  -20.5465   22.2533 C   0  0  0  0  0  0  0  0  0  0  0  0
  -28.5591  -22.5326   21.4255 C   0  0  0  0  0  0  0  0  0  0  0  0
  -26.4910  -23.0690   22.8597 C   0  0  0  0  0  0  0  0  0  1  0  0
  -24.7024  -28.9967   27.1374 C   0  0  1  0  0  0  0  0  0  0  0  0
  -24.6454  -27.5069   30.6226 C   0  0  2  0  0  0  0  0  0  0  0  0
  -25.4344  -30.3399   26.8589 C   0  0  0  0  0  0  0  0  0  0  0  0
  -25.8477  -11.6303   21.1573 N   0  0  0  0  0  0  0  0  0  0  0  0
  -26.2359  -12.7503   20.5240 N   0  0  0  0  0  0  0  0  0  0  0  0
  -23.1356  -27.9135   25.5577 N   0  0  0  0  0  0  0  0  0  0  0  0
  -29.9753  -13.5136   20.3915 N   0  0  0  0  0  0  0  0  0  0  0  0
  -25.4918  -14.8983   19.8581 N   0  0  0  0  0  0  0  0  0  0  0  0
  -21.8907  -13.1499   21.9489 N   0  0  0  0  0  0  0  0  0  0  0  0
  -30.1121  -15.8613   20.5712 N   0  0  0  0  0  0  0  0  0  0  0  0
  -21.1711  -28.7529   22.6026 N   0  0  0  0  0  0  0  0  0  0  0  0
  -24.4955  -28.7114   28.5531 N   0  0  0  0  0  0  0  0  0  0  0  0
  -24.4298  -26.0943   31.0460 N   0  3  0  0  0  0  0  0  0  0  0  0
  -29.3275  -21.3205   21.0657 N   0  3  1  0  0  0  0  0  0  0  0  0
  -22.6848  -14.9888   20.8324 O   0  0  0  0  0  0  0  0  0  0  0  0
  -23.3996  -28.9670   23.2434 O   0  0  0  0  0  0  0  0  0  0  0  0
  -26.6049  -21.1640   21.3918 O   0  0  0  0  0  0  0  0  0  0  0  0
  -22.4842  -29.7701   26.8087 O   0  0  0  0  0  0  0  0  0  0  0  0
  -25.6349  -26.6919   28.5747 O   0  0  0  0  0  0  0  0  0  0  0  0
  -31.8740  -14.6330   19.6943 O   0  0  0  0  0  0  0  0  0  0  0  0
  -21.5658   -8.1012   24.2814 O   0  0  0  0  0  0  0  0  0  0  0  0
  -25.1686  -22.6136   23.1432 O   0  0  0  0  0  0  0  0  0  1  0  0
  -21.7692   -2.8817   22.5152 F   0  0  0  0  0  0  0  0  0  0  0  0
  -19.2758   -6.7954   23.4489 F   0  0  0  0  0  0  0  0  0  0  0  0
  -28.2419  -18.1393   21.2491 Cl  0  0  0  0  0  0  0  0  0  0  0  0
  1  2  1  0  0  0  0
  1  5  2  0  0  0  0
  2  6  2  0  0  0  0
  3  8  2  0  0  0  0
  3 17  1  0  0  0  0
  4  9  1  0  0  0  0
  4 17  2  0  0  0  0
  5 20  1  0  0  0  0
  6 22  1  0  0  0  0
  7 10  2  0  0  0  0
  7 21  1  0  0  0  0
  8 26  1  0  0  0  0
  9 26  2  0  0  0  0
 10 27  1  0  0  0  0
 11 12  2  0  0  0  0
 11 28  1  0  0  0  0
 12 29  1  0  0  0  0
 13 18  2  0  0  0  0
 13 24  1  0  0  0  0
 14 18  1  0  0  0  0
 14 25  2  0  0  0  0
 15 23  1  0  0  0  0
 15 27  2  0  0  0  0
 16 29  2  0  0  0  0
 16 30  1  0  0  0  0
 17 32  1  0  0  0  0
 18 35  1  0  0  0  0
 19 32  1  0  0  0  0
 19 33  2  0  0  0  0
 19 38  1  0  0  0  0
 20 22  2  0  0  0  0
 20 44  1  0  0  0  0
 21 23  2  0  0  0  0
 21 45  1  0  0  0  0
 22 57  1  0  0  0  0
 23 46  1  0  0  0  0
 24 31  2  0  0  0  0
 24 65  1  0  0  0  0
 25 31  1  0  0  0  0
 25 77  1  0  0  0  0
 26 88  1  0  0  0  0
 27 89  1  0  0  0  0
 28 30  2  0  0  0  0
 28 88  1  0  0  0  0
 29 90  1  0  0  0  0
 30 91  1  0  0  0  0
 31 92  1  0  0  0  0
 32 71  2  0  0  0  0
 33 72  1  0  0  0  0
 33 75  1  0  0  0  0
 34 35  2  0  0  0  0
 34 47  1  0  0  0  0
 35 48  1  0  0  0  0
 36 37  2  0  0  0  0
 37 81  1  0  0  0  0
 38 76  1  0  0  0  0
 38 82  2  0  0  0  0
 39 58  1  0  0  0  0
 39 78  1  0  0  0  0
 39 83  2  0  0  0  0
 40 66  1  0  0  0  0
 40 67  1  0  0  0  0
 40 84  2  0  0  0  0
 41 68  1  0  0  0  0
 41 73  1  0  0  0  0
 41 85  2  0  0  0  0
 42 69  1  0  0  0  0
 42 79  1  0  0  0  0
 42 86  2  0  0  0  0
 43 74  1  0  0  0  0
 43 77  1  0  0  0  0
 43 87  2  0  0  0  0
 44 49  1  0  0  0  0
 45 58  1  0  0  0  0
 46 73  1  0  0  0  0
 47 50  1  0  0  0  0
 48 51  1  0  0  0  0
 49 53  1  0  0  0  0
 50 51  1  0  0  0  0
 52 54  1  0  0  0  0
 52 55  1  0  0  0  0
 53 57  1  0  0  0  0
 54 59  1  0  0  0  0
 55 74  1  0  0  0  0
 56 59  1  0  0  0  0
 56 74  1  0  0  0  0
 57 78  1  0  0  0  0
 58 73  1  0  0  0  0
 59 72  1  0  0  0  0
 60 69  1  0  0  0  0
 61 70  1  0  0  0  0
 62 70  1  0  0  0  0
 63 70  1  0  0  0  0
 64 80  1  0  0  0  0
 65 81  1  0  0  0  0
 66 81  1  0  0  0  0
 67 89  1  0  0  0  0
 68 70  1  0  0  0  0
 68 79  1  0  0  0  0
 69 80  1  0  0  0  0
 71 72  1  0  0  0  0
M  CHG  2  80   1  81   1
M  ISO  4  43 100  67 101  77 100  89 101
M  END
> <Batch ID>
0049

> <Smiles>
C=CN(CC(=O)[101CH2:1][101O:1]c1ccc2c(c1)CN(C(=O)C(NC(=O)C(C)NC)C(C)(C)C)C(C(=O)NC1CCCc3ccccc31)C2)Cc1cc(C2=CCCCC2)cc([100NH:0][100C:0](=O)N2CCCC(n3nc(-c4ccc(Oc5ccc(F)cc5F)cc4)c(C(N)=O)c3N)C2)c1Cl

> <Shape>
0.233

> <Color>
0.179

> <Negative vol penalty>
0.000

$$$$

  -OEChem-04042322323D

 87 95  0     1  0  0  0  0  0999 V2000
  -16.3274  -30.2357   23.5350 C   0  0  0  0  0  0  0  0  0  0  0  0
  -17.0048  -29.0254   23.4267 C   0  0  0  0  0  0  0  0  0  0  0  0
  -26.3020  -12.4842   21.6580 C   0  0  0  0  0  0  0  0  0  0  0  0
  -25.8307  -13.4507   19.4945 C   0  0  0  0  0  0  0  0  0  0  0  0
  -17.0392  -31.4345   23.5297 C   0  0  0  0  0  0  0  0  0  0  0  0
  -18.3944  -29.0133   23.3119 C   0  0  0  0  0  0  0  0  0  0  0  0
  -22.2410  -24.8320   25.5981 C   0  0  0  0  0  0  0  0  0  0  0  0
  -25.1460  -11.7095   21.5638 C   0  0  0  0  0  0  0  0  0  0  0  0
  -24.6746  -12.6760   19.4002 C   0  0  0  0  0  0  0  0  0  0  0  0
  -22.8737  -23.7283   25.0277 C   0  0  0  0  0  0  0  0  0  0  0  0
  -24.1697   -8.8707   20.0078 C   0  0  0  0  0  0  0  0  0  0  0  0
  -24.2612   -7.5241   20.3598 C   0  0  0  0  0  0  0  0  0  0  0  0
  -30.5110  -22.7102   17.9553 C   0  0  0  0  0  0  0  0  0  0  0  0
  -29.7018  -22.9354   16.8418 C   0  0  0  0  0  0  0  0  0  0  0  0
  -24.8444  -25.0649   24.6418 C   0  0  0  0  0  0  0  0  0  0  0  0
  -22.6023   -7.8619   22.0835 C   0  0  0  0  0  0  0  0  0  0  0  0
  -26.6444  -13.3549   20.6234 C   0  0  0  0  0  0  0  0  0  0  0  0
  -29.1314  -13.8104   20.2841 C   0  0  0  0  0  0  0  0  0  0  0  0
  -18.4391  -31.4367   23.4245 C   0  0  0  0  0  0  0  0  0  0  0  0
  -22.9025  -26.0654   25.6849 C   0  0  0  0  0  0  0  0  0  0  0  0
  -19.1256  -30.2133   23.3039 C   0  0  0  0  0  0  0  0  0  0  0  0
  -24.2189  -26.1821   25.2160 C   0  0  0  0  0  0  0  0  0  0  0  0
  -27.9573  -21.5933   17.8383 C   0  0  0  0  0  0  0  0  0  0  0  0
  -28.7667  -21.3681   18.9518 C   0  0  0  0  0  0  0  0  0  0  0  0
  -24.3323  -11.8054   20.4349 C   0  0  0  0  0  0  0  0  0  0  0  0
  -24.1745  -23.8454   24.5468 C   0  0  0  0  0  0  0  0  0  0  0  0
  -23.2945   -9.7129   20.6937 C   0  0  0  0  0  0  0  0  0  0  0  0
  -23.4775   -7.0197   21.3976 C   0  0  0  0  0  0  0  0  0  0  0  0
  -30.0435  -21.9266   19.0103 C   0  0  0  0  0  0  0  0  0  0  0  0
  -22.5108   -9.2085   21.7315 C   0  0  0  0  0  0  0  0  0  0  0  0
  -28.4249  -22.3769   16.7833 C   0  0  0  0  0  0  0  0  0  0  0  0
  -27.8382  -14.1558   20.7203 C   0  0  0  0  0  0  0  0  0  0  0  0
  -29.9036  -14.9009   20.6021 C   0  0  0  0  0  0  0  0  0  0  0  0
  -24.3825  -21.2741   20.9297 C   0  0  0  0  0  0  0  0  0  0  0  0
  -24.7438  -21.1881   22.2177 C   0  0  0  0  0  0  0  0  0  0  0  0
  -29.5932  -12.6113   19.6483 C   0  0  0  0  0  0  0  0  0  0  0  0
  -25.2032  -20.6040   19.8799 C   0  0  0  0  0  0  0  0  0  0  0  0
  -22.3922  -28.9724   24.5046 C   0  0  0  0  0  0  0  0  0  0  0  0
  -24.9137  -29.7556   26.3890 C   0  0  0  0  0  0  0  0  0  0  0  0
  -27.7332  -28.7437   28.0241 C   0  0  0  0  0  0  0  0  0  0  0  0
  -28.6641  -20.6946   21.3772 C   0  0  0  0  0  0  0  0  0  0  0  0
  -19.1613  -32.7598   23.3757 C   0  0  0  0  0  0  0  0  0  0  0  0
  -22.2159  -27.2394   26.3272 C   0  0  0  0  0  0  0  0  0  0  0  0
  -24.9800  -27.4788   25.3040 C   0  0  0  0  0  0  0  0  0  0  0  0
  -20.6625  -32.6439   23.6274 C   0  0  0  0  0  0  0  0  0  0  0  0
  -30.1800  -18.5065   23.7417 C   0  0  0  0  0  0  0  0  0  0  0  0
  -21.2550  -31.5031   22.8063 C   0  0  0  0  0  0  0  0  0  0  0  0
  -29.8744  -17.1112   23.1923 C   0  0  0  0  0  0  0  0  0  0  0  0
  -29.0197  -19.4732   23.5118 C   0  0  0  0  0  0  0  0  0  0  0  0
  -28.2442  -18.1647   21.5738 C   0  0  0  0  0  0  0  0  0  0  0  0
  -20.6345  -30.1579   23.2025 C   0  0  1  0  0  0  0  0  0  0  0  0
  -22.7996  -28.5817   25.8971 C   0  0  1  0  0  0  0  0  0  0  0  0
  -29.4094  -17.1730   21.7242 C   0  0  2  0  0  0  0  0  0  0  0  0
  -29.6054  -29.6178   29.4481 C   0  0  0  0  0  0  0  0  0  0  0  0
  -26.2240  -30.9711   23.9160 C   0  0  0  0  0  0  0  0  0  0  0  0
  -28.4028  -30.9574   25.1492 C   0  0  0  0  0  0  0  0  0  0  0  0
  -26.4945  -32.3156   26.0073 C   0  0  0  0  0  0  0  0  0  0  0  0
  -25.5141  -22.8730   18.9678 C   0  0  0  0  0  0  0  0  0  0  0  0
  -26.9789  -26.9974   30.2914 C   0  0  0  0  0  0  0  0  0  0  0  0
  -26.5845  -20.9877   17.7864 C   0  0  0  0  0  0  0  0  0  0  0  0
  -23.9657  -21.8122   23.3309 C   0  0  0  0  0  0  0  0  0  1  0  0
  -26.4119  -29.7967   26.2076 C   0  0  1  0  0  0  0  0  0  0  0  0
  -28.2198  -28.9912   29.4406 C   0  0  2  0  0  0  0  0  0  0  0  0
  -26.8685  -30.9861   25.3164 C   0  0  0  0  0  0  0  0  0  0  0  0
  -27.7879  -15.3705   21.2735 N   0  0  0  0  0  0  0  0  0  0  0  0
  -29.0591  -15.7980   21.1870 N   0  0  0  0  0  0  0  0  0  0  0  0
  -24.2633  -28.5996   25.9346 N   0  0  0  0  0  0  0  0  0  0  0  0
  -28.6363  -19.4823   22.0984 N   0  0  0  0  0  0  0  0  0  0  0  0
  -31.2160  -15.1702   20.4357 N   0  0  0  0  0  0  0  0  0  0  0  0
  -28.6672  -11.5902   19.3947 N   0  0  0  0  0  0  0  0  0  0  0  0
  -28.3108  -20.5745   20.0335 N   0  0  0  0  0  0  0  0  0  0  0  0
  -21.2084  -29.6824   24.4430 N   0  0  0  0  0  0  0  0  0  0  0  0
  -26.9855  -29.8003   27.5489 N   0  0  0  0  0  0  0  0  0  0  0  0
  -25.7465  -21.4361   18.8970 N   0  0  0  0  0  0  0  0  0  0  0  0
  -28.2793  -27.7098   30.1991 N   0  3  0  0  0  0  0  0  0  0  0  0
  -30.7948  -12.4433   19.3297 O   0  0  0  0  0  0  0  0  0  0  0  0
  -25.3454  -19.3805   19.9037 O   0  0  0  0  0  0  0  0  0  0  0  0
  -23.1004  -28.6545   23.5563 O   0  0  0  0  0  0  0  0  0  0  0  0
  -24.3426  -30.7108   26.9209 O   0  0  0  0  0  0  0  0  0  0  0  0
  -27.9937  -27.7174   27.4001 O   0  0  0  0  0  0  0  0  0  0  0  0
  -29.0044  -21.7563   21.9054 O   0  0  0  0  0  0  0  0  0  0  0  0
  -23.2042  -11.0494   20.3425 O   0  0  0  0  0  0  0  0  0  0  0  0
  -24.7941  -22.7698   23.9890 O   0  0  0  0  0  0  0  0  0  1  0  0
  -23.5644   -5.7262   21.7346 F   0  0  0  0  0  0  0  0  0  0  0  0
  -30.8314  -21.7173   20.0748 F   0  0  0  0  0  0  0  0  0  0  0  0
  -21.6673  -10.0125   22.3932 F   0  0  0  0  0  0  0  0  0  0  0  0
  -27.4555  -22.6804   15.3871 Cl  0  0  0  0  0  0  0  0  0  0  0  0
  1  2  1  0  0  0  0
  1  5  2  0  0  0  0
  2  6  2  0  0  0  0
  3  8  2  0  0  0  0
  3 17  1  0  0  0  0
  4  9  1  0  0  0  0
  4 17  2  0  0  0  0
  5 19  1  0  0  0  0
  6 21  1  0  0  0  0
  7 10  2  0  0  0  0
  7 20  1  0  0  0  0
  8 25  1  0  0  0  0
  9 25  2  0  0  0  0
 10 26  1  0  0  0  0
 11 12  2  0  0  0  0
 11 27  1  0  0  0  0
 12 28  1  0  0  0  0
 13 14  1  0  0  0  0
 13 29  2  0  0  0  0
 14 31  2  0  0  0  0
 15 22  1  0  0  0  0
 15 26  2  0  0  0  0
 16 28  2  0  0  0  0
 16 30  1  0  0  0  0
 17 32  1  0  0  0  0
 18 32  1  0  0  0  0
 18 33  2  0  0  0  0
 18 36  1  0  0  0  0
 19 21  2  0  0  0  0
 19 42  1  0  0  0  0
 20 22  2  0  0  0  0
 20 43  1  0  0  0  0
 21 51  1  0  0  0  0
 22 44  1  0  0  0  0
 23 24  2  0  0  0  0
 23 31  1  0  0  0  0
 23 60  1  0  0  0  0
 24 29  1  0  0  0  0
 24 71  1  0  0  0  0
 25 82  1  0  0  0  0
 26 83  1  0  0  0  0
 27 30  2  0  0  0  0
 27 82  1  0  0  0  0
 28 84  1  0  0  0  0
 29 85  1  0  0  0  0
 30 86  1  0  0  0  0
 31 87  1  0  0  0  0
 32 65  2  0  0  0  0
 33 66  1  0  0  0  0
 33 69  1  0  0  0  0
 34 35  2  0  0  0  0
 34 37  1  0  0  0  0
 35 61  1  0  0  0  0
 36 70  1  0  0  0  0
 36 76  2  0  0  0  0
 37 74  1  0  0  0  0
 37 77  2  0  0  0  0
 38 52  1  0  0  0  0
 38 72  1  0  0  0  0
 38 78  2  0  0  0  0
 39 62  1  0  0  0  0
 39 67  1  0  0  0  0
 39 79  2  0  0  0  0
 40 63  1  0  0  0  0
 40 73  1  0  0  0  0
 40 80  2  0  0  0  0
 41 68  1  0  0  0  0
 41 71  1  0  0  0  0
 41 81  2  0  0  0  0
 42 45  1  0  0  0  0
 43 52  1  0  0  0  0
 44 67  1  0  0  0  0
 45 47  1  0  0  0  0
 46 48  1  0  0  0  0
 46 49  1  0  0  0  0
 47 51  1  0  0  0  0
 48 53  1  0  0  0  0
 49 68  1  0  0  0  0
 50 53  1  0  0  0  0
 50 68  1  0  0  0  0
 51 72  1  0  0  0  0
 52 67  1  0  0  0  0
 53 66  1  0  0  0  0
 54 63  1  0  0  0  0
 55 64  1  0  0  0  0
 56 64  1  0  0  0  0
 57 64  1  0  0  0  0
 58 74  1  0  0  0  0
 59 75  1  0  0  0  0
 60 74  1  0  0  0  0
 61 83  1  0  0  0  0
 62 64  1  0  0  0  0
 62 73  1  0  0  0  0
 63 75  1  0  0  0  0
 65 66  1  0  0  0  0
M  CHG  1  75   1
M  ISO  4  41 100  61 101  71 100  83 101
M  END
> <Batch ID>
0049

> <Smiles>
CNC(C)C(=O)NC(C(=O)N1Cc2cc([101O:1][101CH2:1]C=CC(=O)N(C)Cc3c(Cl)ccc(F)c3[100NH:0][100C:0](=O)N3CCCC(n4nc(-c5ccc(Oc6ccc(F)cc6F)cc5)c(C(N)=O)c4N)C3)ccc2CC1C(=O)NC1CCCc2ccccc21)C(C)(C)C

> <Shape>
0.241

> <Color>
0.078

> <Negative vol penalty>
0.000

$$$$

  -OEChem-04042322323D

 90 99  0     1  0  0  0  0  0999 V2000
  -18.7855  -24.3160   23.8535 C   0  0  0  0  0  0  0  0  0  0  0  0
  -20.0766  -24.1774   23.3542 C   0  0  0  0  0  0  0  0  0  0  0  0
  -23.8910  -10.6455   23.4135 C   0  0  0  0  0  0  0  0  0  0  0  0
  -24.1564  -12.4775   24.9660 C   0  0  0  0  0  0  0  0  0  0  0  0
  -18.1277  -25.5411   23.7513 C   0  0  0  0  0  0  0  0  0  0  0  0
  -20.7102  -25.2635   22.7514 C   0  0  0  0  0  0  0  0  0  0  0  0
  -26.6791  -26.6191   22.9512 C   0  0  0  0  0  0  0  0  0  0  0  0
  -31.2515  -20.5669   20.3378 C   0  0  0  0  0  0  0  0  0  0  0  0
  -30.9854  -19.1980   20.3687 C   0  0  0  0  0  0  0  0  0  0  0  0
  -23.3034   -9.8783   24.4192 C   0  0  0  0  0  0  0  0  0  0  0  0
  -23.5688  -11.7102   25.9718 C   0  0  0  0  0  0  0  0  0  0  0  0
  -27.7225  -26.3946   22.0542 C   0  0  0  0  0  0  0  0  0  0  0  0
  -20.2847   -9.6324   25.9226 C   0  0  0  0  0  0  0  0  0  0  0  0
  -19.1283   -8.9210   25.6032 C   0  0  0  0  0  0  0  0  0  0  0  0
  -27.4326  -28.6199   21.1693 C   0  0  0  0  0  0  0  0  0  0  0  0
  -20.2454   -6.8534   26.1639 C   0  0  0  0  0  0  0  0  0  0  0  0
  -24.3176  -11.9452   23.6869 C   0  0  0  0  0  0  0  0  0  0  0  0
  -24.2736  -13.5986   21.7448 C   0  0  0  0  0  0  0  0  0  0  0  0
  -18.7571  -26.6454   23.1556 C   0  0  0  0  0  0  0  0  0  0  0  0
  -25.9963  -27.8439   22.9566 C   0  0  0  0  0  0  0  0  0  0  0  0
  -20.0596  -26.5040   22.6399 C   0  0  0  0  0  0  0  0  0  0  0  0
  -26.3826  -28.8584   22.0691 C   0  0  0  0  0  0  0  0  0  0  0  0
  -30.2060  -21.4773   20.1833 C   0  0  0  0  0  0  0  0  0  0  0  0
  -28.8945  -21.0188   20.0595 C   0  0  0  0  0  0  0  0  0  0  0  0
  -28.6284  -19.6499   20.0904 C   0  0  0  0  0  0  0  0  0  0  0  0
  -29.6738  -18.7395   20.2449 C   0  0  0  0  0  0  0  0  0  0  0  0
  -23.1422  -10.4106   25.6984 C   0  0  0  0  0  0  0  0  0  0  0  0
  -28.0975  -27.3939   21.1611 C   0  0  0  0  0  0  0  0  0  0  0  0
  -21.4216   -8.9544   26.3626 C   0  0  0  0  0  0  0  0  0  0  0  0
  -19.1086   -7.5315   25.7239 C   0  0  0  0  0  0  0  0  0  0  0  0
  -21.4019   -7.5649   26.4832 C   0  0  0  0  0  0  0  0  0  0  0  0
  -24.9251  -12.7380   22.6485 C   0  0  0  0  0  0  0  0  0  0  0  0
  -25.2845  -14.1109   20.9688 C   0  0  0  0  0  0  0  0  0  0  0  0
  -31.1998  -24.7495   18.6509 C   0  0  0  0  0  0  0  0  0  0  0  0
  -30.8252  -25.8616   19.2939 C   0  0  0  0  0  0  0  0  0  0  0  0
  -22.8792  -13.9074   21.6181 C   0  0  0  0  0  0  0  0  0  0  0  0
  -22.9933  -28.7402   22.4253 C   0  0  0  0  0  0  0  0  0  0  0  0
  -24.1015  -31.6379   23.3726 C   0  0  0  0  0  0  0  0  0  0  0  0
  -26.7635  -33.7400   23.7491 C   0  0  0  0  0  0  0  0  0  0  0  0
  -30.3651  -16.3238   20.4271 C   0  0  0  0  0  0  0  0  0  0  0  0
  -17.9882  -27.9363   23.0255 C   0  0  0  0  0  0  0  0  0  0  0  0
  -24.8905  -28.0800   23.9486 C   0  0  0  0  0  0  0  0  0  0  0  0
  -25.6949  -30.1982   22.0483 C   0  0  0  0  0  0  0  0  0  0  0  0
  -32.2651  -24.6666   17.6051 C   0  0  0  0  0  0  0  0  0  0  0  0
  -18.8701  -29.1413   22.7085 C   0  0  0  0  0  0  0  0  0  0  0  0
  -31.6932  -23.5695   16.7247 C   0  0  0  0  0  0  0  0  0  0  0  0
  -30.1524  -12.7738   20.5977 C   0  0  0  0  0  0  0  0  0  0  0  0
  -19.8503  -28.8057   21.5890 C   0  0  0  0  0  0  0  0  0  0  0  0
  -28.7199  -12.5188   21.0721 C   0  0  0  0  0  0  0  0  0  0  0  0
  -30.7554  -14.0138   21.2554 C   0  0  0  0  0  0  0  0  0  0  0  0
  -28.5169  -14.9802   21.6080 C   0  0  0  0  0  0  0  0  0  0  0  0
  -31.0246  -22.6216   17.7078 C   0  0  0  0  0  0  0  0  0  0  0  0
  -20.7895  -27.6658   22.0013 C   0  0  1  0  0  0  0  0  0  0  0  0
  -23.9262  -29.1807   23.5177 C   0  0  1  0  0  0  0  0  0  0  0  0
  -27.8445  -13.7787   20.9240 C   0  0  2  0  0  0  0  0  0  0  0  0
  -27.7753  -21.9977   19.8940 C   0  0  0  0  0  0  0  0  0  0  0  0
  -27.3514  -36.0567   24.5137 C   0  0  0  0  0  0  0  0  0  0  0  0
  -22.9752  -32.7780   20.7761 C   0  0  0  0  0  0  0  0  0  0  0  0
  -24.3867  -34.8136   21.1392 C   0  0  0  0  0  0  0  0  0  0  0  0
  -22.6146  -34.2163   22.7900 C   0  0  0  0  0  0  0  0  0  0  0  0
  -28.5313  -32.7108   25.8880 C   0  0  0  0  0  0  0  0  0  0  0  0
  -30.5199  -22.9441   20.1534 C   0  0  0  0  0  0  0  0  0  0  0  0
  -29.7550  -25.9026   20.3338 C   0  0  0  0  0  0  0  0  0  1  0  0
  -24.7224  -32.8248   22.6764 C   0  0  1  0  0  0  0  0  0  0  0  0
  -27.2124  -34.5974   24.9186 C   0  0  2  0  0  0  0  0  0  0  0  0
  -27.2201  -19.1601   19.9575 C   0  0  0  0  0  0  0  0  0  0  0  0
  -23.6866  -33.6323   21.8443 C   0  0  0  0  0  0  0  0  0  0  0  0
  -26.2476  -12.7028   22.4647 N   0  0  0  0  0  0  0  0  0  0  0  0
  -26.4353  -13.5476   21.4365 N   0  0  0  0  0  0  0  0  0  0  0  0
  -24.6155  -30.3784   23.0332 N   0  0  0  0  0  0  0  0  0  0  0  0
  -29.8737  -15.1685   21.0708 N   0  0  0  0  0  0  0  0  0  0  0  0
  -25.2925  -14.9835   19.9389 N   0  0  0  0  0  0  0  0  0  0  0  0
  -21.9763  -13.2929   22.4964 N   0  0  0  0  0  0  0  0  0  0  0  0
  -29.4267  -17.3447   20.2792 N   0  0  0  0  0  0  0  0  0  0  0  0
  -21.8261  -28.1588   22.8827 N   0  0  0  0  0  0  0  0  0  0  0  0
  -25.3920  -33.6021   23.7136 N   0  0  0  0  0  0  0  0  0  0  0  0
  -30.4407  -23.5337   18.7778 N   0  3  1  0  0  0  0  0  0  0  0  0
  -28.5290  -34.1247   25.4323 N   0  3  0  0  0  0  0  0  0  0  0  0
  -22.4449  -14.6921   20.7410 O   0  0  0  0  0  0  0  0  0  0  0  0
  -23.3083  -28.9162   21.2542 O   0  0  0  0  0  0  0  0  0  0  0  0
  -23.1987  -31.8221   24.1927 O   0  0  0  0  0  0  0  0  0  0  0  0
  -27.5506  -33.2453   22.9452 O   0  0  0  0  0  0  0  0  0  0  0  0
  -31.5247  -16.3916   20.0115 O   0  0  0  0  0  0  0  0  0  0  0  0
  -22.5687   -9.6623   26.6800 O   0  0  0  0  0  0  0  0  0  0  0  0
  -29.1152  -27.1772   20.2841 O   0  0  0  0  0  0  0  0  0  1  0  0
  -17.9975   -6.8485   25.4186 F   0  0  0  0  0  0  0  0  0  0  0  0
  -22.4906   -6.9081   26.9065 F   0  0  0  0  0  0  0  0  0  0  0  0
  -26.3084  -20.1640   19.8135 F   0  0  0  0  0  0  0  0  0  0  0  0
  -27.0304  -18.3433   18.8820 F   0  0  0  0  0  0  0  0  0  0  0  0
  -26.8145  -18.4437   21.0435 F   0  0  0  0  0  0  0  0  0  0  0  0
  1  2  1  0  0  0  0
  1  5  2  0  0  0  0
  2  6  2  0  0  0  0
  3 10  2  0  0  0  0
  3 17  1  0  0  0  0
  4 11  1  0  0  0  0
  4 17  2  0  0  0  0
  5 19  1  0  0  0  0
  6 21  1  0  0  0  0
  7 12  2  0  0  0  0
  7 20  1  0  0  0  0
  8  9  2  0  0  0  0
  8 23  1  0  0  0  0
  9 26  1  0  0  0  0
 10 27  1  0  0  0  0
 11 27  2  0  0  0  0
 12 28  1  0  0  0  0
 13 14  2  0  0  0  0
 13 29  1  0  0  0  0
 14 30  1  0  0  0  0
 15 22  1  0  0  0  0
 15 28  2  0  0  0  0
 16 30  2  0  0  0  0
 16 31  1  0  0  0  0
 17 32  1  0  0  0  0
 18 32  1  0  0  0  0
 18 33  2  0  0  0  0
 18 36  1  0  0  0  0
 19 21  2  0  0  0  0
 19 41  1  0  0  0  0
 20 22  2  0  0  0  0
 20 42  1  0  0  0  0
 21 53  1  0  0  0  0
 22 43  1  0  0  0  0
 23 24  2  0  0  0  0
 23 62  1  0  0  0  0
 24 25  1  0  0  0  0
 24 56  1  0  0  0  0
 25 26  2  0  0  0  0
 25 66  1  0  0  0  0
 26 74  1  0  0  0  0
 27 84  1  0  0  0  0
 28 85  1  0  0  0  0
 29 31  2  0  0  0  0
 29 84  1  0  0  0  0
 30 86  1  0  0  0  0
 31 87  1  0  0  0  0
 32 68  2  0  0  0  0
 33 69  1  0  0  0  0
 33 72  1  0  0  0  0
 34 35  2  0  0  0  0
 34 44  1  0  0  0  0
 34 77  1  0  0  0  0
 35 63  1  0  0  0  0
 36 73  1  0  0  0  0
 36 79  2  0  0  0  0
 37 54  1  0  0  0  0
 37 75  1  0  0  0  0
 37 80  2  0  0  0  0
 38 64  1  0  0  0  0
 38 70  1  0  0  0  0
 38 81  2  0  0  0  0
 39 65  1  0  0  0  0
 39 76  1  0  0  0  0
 39 82  2  0  0  0  0
 40 71  1  0  0  0  0
 40 74  1  0  0  0  0
 40 83  2  0  0  0  0
 41 45  1  0  0  0  0
 42 54  1  0  0  0  0
 43 70  1  0  0  0  0
 44 46  1  0  0  0  0
 45 48  1  0  0  0  0
 46 52  1  0  0  0  0
 47 49  1  0  0  0  0
 47 50  1  0  0  0  0
 48 53  1  0  0  0  0
 49 55  1  0  0  0  0
 50 71  1  0  0  0  0
 51 55  1  0  0  0  0
 51 71  1  0  0  0  0
 52 77  1  0  0  0  0
 53 75  1  0  0  0  0
 54 70  1  0  0  0  0
 55 69  1  0  0  0  0
 57 65  1  0  0  0  0
 58 67  1  0  0  0  0
 59 67  1  0  0  0  0
 60 67  1  0  0  0  0
 61 78  1  0  0  0  0
 62 77  1  0  0  0  0
 63 85  1  0  0  0  0
 64 67  1  0  0  0  0
 64 76  1  0  0  0  0
 65 78  1  0  0  0  0
 66 88  1  0  0  0  0
 66 89  1  0  0  0  0
 66 90  1  0  0  0  0
 68 69  1  0  0  0  0
M  CHG  2  77   1  78   1
M  ISO  4  40 100  63 101  74 100  85 101
M  END
> <Batch ID>
0049

> <Smiles>
CNC(C)C(=O)NC(C(=O)N1Cc2cc([101O:1][101CH2:1]C=C3CCCN3Cc3ccc([100NH:0][100C:0](=O)N4CCCC(n5nc(-c6ccc(Oc7ccc(F)cc7F)cc6)c(C(N)=O)c5N)C4)c(C(F)(F)F)c3C)ccc2CC1C(=O)NC1CCCc2ccccc21)C(C)(C)C

> <Shape>
0.307

> <Color>
0.126

> <Negative vol penalty>
0.000

$$$$

  -OEChem-04042322323D

 85 93  0     1  0  0  0  0  0999 V2000
  -29.6360  -30.3579   32.7753 C   0  0  0  0  0  0  0  0  0  0  0  0
  -29.0065  -29.3938   31.9945 C   0  0  0  0  0  0  0  0  0  0  0  0
  -31.4057  -18.9626   20.5242 C   0  0  0  0  0  0  0  0  0  0  0  0
  -23.0003   -9.8941   19.9814 C   0  0  0  0  0  0  0  0  0  0  0  0
  -23.7251   -9.9453   22.2855 C   0  0  0  0  0  0  0  0  0  0  0  0
  -30.5659  -31.2219   32.1987 C   0  0  0  0  0  0  0  0  0  0  0  0
  -29.3058  -29.2939   30.6363 C   0  0  0  0  0  0  0  0  0  0  0  0
  -29.5221  -24.1753   27.2809 C   0  0  0  0  0  0  0  0  0  0  0  0
  -30.6841  -19.8012   21.3737 C   0  0  0  0  0  0  0  0  0  0  0  0
  -31.1993  -17.5837   20.5650 C   0  0  0  0  0  0  0  0  0  0  0  0
  -22.2335   -8.7598   20.2477 C   0  0  0  0  0  0  0  0  0  0  0  0
  -22.9582   -8.8110   22.5520 C   0  0  0  0  0  0  0  0  0  0  0  0
  -28.6036  -23.5805   26.4170 C   0  0  0  0  0  0  0  0  0  0  0  0
  -23.2019   -5.4720   22.0807 C   0  0  0  0  0  0  0  0  0  0  0  0
  -23.7891   -4.4548   22.8331 C   0  0  0  0  0  0  0  0  0  0  0  0
  -29.6911  -24.6390   24.5418 C   0  0  0  0  0  0  0  0  0  0  0  0
  -22.0649   -4.6984   24.5080 C   0  0  0  0  0  0  0  0  0  0  0  0
  -23.7462  -10.4868   21.0002 C   0  0  0  0  0  0  0  0  0  0  0  0
  -24.1321  -13.0023   20.8238 C   0  0  0  0  0  0  0  0  0  0  0  0
  -30.8839  -31.1263   30.8347 C   0  0  0  0  0  0  0  0  0  0  0  0
  -30.5270  -25.0165   26.7820 C   0  0  0  0  0  0  0  0  0  0  0  0
  -30.2399  -30.1584   30.0405 C   0  0  0  0  0  0  0  0  0  0  0  0
  -30.6227  -25.2411   25.4013 C   0  0  0  0  0  0  0  0  0  0  0  0
  -29.7563  -19.2609   22.2641 C   0  0  0  0  0  0  0  0  0  0  0  0
  -29.5499  -17.8820   22.3050 C   0  0  0  0  0  0  0  0  0  0  0  0
  -30.2715  -17.0434   21.4555 C   0  0  0  0  0  0  0  0  0  0  0  0
  -22.2124   -8.2183   21.5330 C   0  0  0  0  0  0  0  0  0  0  0  0
  -28.6862  -23.8147   25.0475 C   0  0  0  0  0  0  0  0  0  0  0  0
  -22.0462   -6.1024   22.5419 C   0  0  0  0  0  0  0  0  0  0  0  0
  -23.2206   -4.0680   24.0467 C   0  0  0  0  0  0  0  0  0  0  0  0
  -21.4778   -5.7156   23.7555 C   0  0  0  0  0  0  0  0  0  0  0  0
  -24.5390  -11.6582   20.7255 C   0  0  0  0  0  0  0  0  0  0  0  0
  -25.2421  -13.7246   20.4595 C   0  0  0  0  0  0  0  0  0  0  0  0
  -25.4696  -21.3856   22.7874 C   0  0  0  0  0  0  0  0  0  0  0  0
  -24.5367  -22.1914   23.3111 C   0  0  0  0  0  0  0  0  0  0  0  0
  -22.8642  -13.5490   21.2100 C   0  0  0  0  0  0  0  0  0  0  0  0
  -26.8476  -21.2036   23.3432 C   0  0  0  0  0  0  0  0  0  0  0  0
  -31.2889  -28.0776   27.1730 C   0  0  0  0  0  0  0  0  0  0  0  0
  -33.8714  -27.2596   25.3887 C   0  0  0  0  0  0  0  0  0  0  0  0
  -35.2556  -25.1469   23.0937 C   0  0  0  0  0  0  0  0  0  0  0  0
  -30.7217  -14.6845   20.6944 C   0  0  0  0  0  0  0  0  0  0  0  0
  -31.8606  -32.1133   30.2461 C   0  0  0  0  0  0  0  0  0  0  0  0
  -31.5265  -25.6290   27.7245 C   0  0  0  0  0  0  0  0  0  0  0  0
  -31.6954  -26.1198   24.8133 C   0  0  0  0  0  0  0  0  0  0  0  0
  -32.3988  -31.6965   28.8797 C   0  0  0  0  0  0  0  0  0  0  0  0
  -29.6033  -12.2314   18.3687 C   0  0  0  0  0  0  0  0  0  0  0  0
  -31.2610  -31.2294   27.9776 C   0  0  0  0  0  0  0  0  0  0  0  0
  -28.1526  -11.9742   18.7826 C   0  0  0  0  0  0  0  0  0  0  0  0
  -30.5037  -12.4748   19.5786 C   0  0  0  0  0  0  0  0  0  0  0  0
  -28.5882  -13.2644   20.9116 C   0  0  0  0  0  0  0  0  0  0  0  0
  -30.5562  -30.0026   28.5689 C   0  0  1  0  0  0  0  0  0  0  0  0
  -32.1941  -26.8784   27.1581 C   0  0  1  0  0  0  0  0  0  0  0  0
  -27.6308  -13.0780   19.7232 C   0  0  2  0  0  0  0  0  0  0  0  0
  -28.5532  -17.3070   23.2620 C   0  0  0  0  0  0  0  0  0  0  0  0
  -23.1717  -22.3535   22.7241 C   0  0  0  0  0  0  0  0  0  0  0  0
  -37.3706  -24.7545   21.8012 C   0  0  0  0  0  0  0  0  0  0  0  0
  -33.1560  -29.5654   23.5228 C   0  0  0  0  0  0  0  0  0  0  0  0
  -34.6732  -28.5553   21.8064 C   0  0  0  0  0  0  0  0  0  0  0  0
  -35.6006  -29.3225   23.9913 C   0  0  0  0  0  0  0  0  0  0  0  0
  -35.6510  -22.4845   24.3244 C   0  0  0  0  0  0  0  0  0  0  0  0
  -28.9923  -20.1873   23.1684 C   0  0  0  0  0  0  0  0  0  0  0  0
  -27.2525  -21.9728   24.5912 C   0  0  0  0  0  0  0  0  0  1  0  0
  -34.1846  -27.2295   23.9122 C   0  0  1  0  0  0  0  0  0  0  0  0
  -36.5913  -24.4259   23.0651 C   0  0  2  0  0  0  0  0  0  0  0  0
  -34.3821  -28.6531   23.3192 C   0  0  0  0  0  0  0  0  0  0  0  0
  -25.8083  -11.5313   20.3296 N   0  0  0  0  0  0  0  0  0  0  0  0
  -27.6316  -20.3958   22.7042 N   0  0  0  0  0  0  0  0  0  0  0  0
  -26.2086  -12.8050   20.1758 N   0  0  0  0  0  0  0  0  0  0  0  0
  -32.6452  -26.7011   25.7763 N   0  0  0  0  0  0  0  0  0  0  0  0
  -29.9487  -13.5361   20.4216 N   0  0  0  0  0  0  0  0  0  0  0  0
  -25.4758  -15.0502   20.3572 N   0  0  0  0  0  0  0  0  0  0  0  0
  -21.8321  -12.6652   21.5535 N   0  0  0  0  0  0  0  0  0  0  0  0
  -30.0775  -15.6400   21.4796 N   0  0  0  0  0  0  0  0  0  0  0  0
  -31.3441  -28.8097   28.3436 N   0  0  0  0  0  0  0  0  0  0  0  0
  -35.3401  -26.3523   23.7579 N   0  0  0  0  0  0  0  0  0  0  0  0
  -36.3850  -22.9510   23.1199 N   0  3  0  0  0  0  0  0  0  0  0  0
  -22.6477  -14.7844   21.2335 O   0  0  0  0  0  0  0  0  0  0  0  0
  -30.5930  -28.3215   26.1943 O   0  0  0  0  0  0  0  0  0  0  0  0
  -34.6879  -27.7538   26.1701 O   0  0  0  0  0  0  0  0  0  0  0  0
  -34.2400  -24.6884   22.5752 O   0  0  0  0  0  0  0  0  0  0  0  0
  -31.8605  -14.8231   20.2405 O   0  0  0  0  0  0  0  0  0  0  0  0
  -21.4641   -7.1116   21.7934 O   0  0  0  0  0  0  0  0  0  0  0  0
  -27.7906  -23.2359   24.2021 O   0  0  0  0  0  0  0  0  0  1  0  0
  -23.7837   -3.0901   24.7684 F   0  0  0  0  0  0  0  0  0  0  0  0
  -20.3669   -6.3168   24.2032 F   0  0  0  0  0  0  0  0  0  0  0  0
  1  2  1  0  0  0  0
  1  6  2  0  0  0  0
  2  7  2  0  0  0  0
  3  9  2  0  0  0  0
  3 10  1  0  0  0  0
  4 11  2  0  0  0  0
  4 18  1  0  0  0  0
  5 12  1  0  0  0  0
  5 18  2  0  0  0  0
  6 20  1  0  0  0  0
  7 22  1  0  0  0  0
  8 13  2  0  0  0  0
  8 21  1  0  0  0  0
  9 24  1  0  0  0  0
 10 26  2  0  0  0  0
 11 27  1  0  0  0  0
 12 27  2  0  0  0  0
 13 28  1  0  0  0  0
 14 15  2  0  0  0  0
 14 29  1  0  0  0  0
 15 30  1  0  0  0  0
 16 23  1  0  0  0  0
 16 28  2  0  0  0  0
 17 30  2  0  0  0  0
 17 31  1  0  0  0  0
 18 32  1  0  0  0  0
 19 32  1  0  0  0  0
 19 33  2  0  0  0  0
 19 36  1  0  0  0  0
 20 22  2  0  0  0  0
 20 42  1  0  0  0  0
 21 23  2  0  0  0  0
 21 43  1  0  0  0  0
 22 51  1  0  0  0  0
 23 44  1  0  0  0  0
 24 25  2  0  0  0  0
 24 61  1  0  0  0  0
 25 26  1  0  0  0  0
 25 54  1  0  0  0  0
 26 73  1  0  0  0  0
 27 82  1  0  0  0  0
 28 83  1  0  0  0  0
 29 31  2  0  0  0  0
 29 82  1  0  0  0  0
 30 84  1  0  0  0  0
 31 85  1  0  0  0  0
 32 66  2  0  0  0  0
 33 68  1  0  0  0  0
 33 71  1  0  0  0  0
 34 35  2  0  0  0  0
 34 37  1  0  0  0  0
 35 55  1  0  0  0  0
 36 72  1  0  0  0  0
 36 77  2  0  0  0  0
 37 62  1  0  0  0  0
 37 67  2  0  0  0  0
 38 52  1  0  0  0  0
 38 74  1  0  0  0  0
 38 78  2  0  0  0  0
 39 63  1  0  0  0  0
 39 69  1  0  0  0  0
 39 79  2  0  0  0  0
 40 64  1  0  0  0  0
 40 75  1  0  0  0  0
 40 80  2  0  0  0  0
 41 70  1  0  0  0  0
 41 73  1  0  0  0  0
 41 81  2  0  0  0  0
 42 45  1  0  0  0  0
 43 52  1  0  0  0  0
 44 69  1  0  0  0  0
 45 47  1  0  0  0  0
 46 48  1  0  0  0  0
 46 49  1  0  0  0  0
 47 51  1  0  0  0  0
 48 53  1  0  0  0  0
 49 70  1  0  0  0  0
 50 53  1  0  0  0  0
 50 70  1  0  0  0  0
 51 74  1  0  0  0  0
 52 69  1  0  0  0  0
 53 68  1  0  0  0  0
 56 64  1  0  0  0  0
 57 65  1  0  0  0  0
 58 65  1  0  0  0  0
 59 65  1  0  0  0  0
 60 76  1  0  0  0  0
 61 67  1  0  0  0  0
 62 83  1  0  0  0  0
 63 65  1  0  0  0  0
 63 75  1  0  0  0  0
 64 76  1  0  0  0  0
 66 68  1  0  0  0  0
M  CHG  1  76   1
M  ISO  4  41 100  62 101  73 100  83 101
M  END
> <Batch ID>
0049

> <Smiles>
CC=CC(=NCc1cccc([100NH:0][100C:0](=O)N2CCCC(n3nc(-c4ccc(Oc5ccc(F)cc5F)cc4)c(C(N)=O)c3N)C2)c1C)[101CH2:1][101O:1]c1ccc2c(c1)CN(C(=O)C(NC(=O)C(C)NC)C(C)(C)C)C(C(=O)NC1CCCc3ccccc31)C2

> <Shape>
0.183

> <Color>
0.198

> <Negative vol penalty>
0.000

$$$$

  -OEChem-04042322323D

 86 95  0     1  0  0  0  0  0999 V2000
  -19.7359  -17.9246   16.8429 C   0  0  0  0  0  0  0  0  0  0  0  0
  -20.6529  -18.5108   17.7093 C   0  0  0  0  0  0  0  0  0  0  0  0
  -32.6256  -25.7098   23.6993 C   0  0  0  0  0  0  0  0  0  0  0  0
  -22.7328  -29.4943   21.3549 C   0  0  0  0  0  0  0  0  0  0  0  0
  -23.9973  -28.2116   22.9652 C   0  0  0  0  0  0  0  0  0  0  0  0
  -19.7123  -16.5392   16.6878 C   0  0  0  0  0  0  0  0  0  0  0  0
  -21.5462  -17.7119   18.4221 C   0  0  0  0  0  0  0  0  0  0  0  0
  -26.2655  -19.5479   18.3661 C   0  0  0  0  0  0  0  0  0  0  0  0
  -32.2457  -25.0722   22.5183 C   0  0  0  0  0  0  0  0  0  0  0  0
  -21.6796  -29.5970   22.2636 C   0  0  0  0  0  0  0  0  0  0  0  0
  -22.9441  -28.3144   23.8740 C   0  0  0  0  0  0  0  0  0  0  0  0
  -26.5449  -20.6119   19.2226 C   0  0  0  0  0  0  0  0  0  0  0  0
  -19.1478  -27.6511   23.3717 C   0  0  0  0  0  0  0  0  0  0  0  0
  -17.8569  -27.4240   22.8948 C   0  0  0  0  0  0  0  0  0  0  0  0
  -31.9261  -25.4638   24.8808 C   0  0  0  0  0  0  0  0  0  0  0  0
  -27.5552  -19.0790   20.7875 C   0  0  0  0  0  0  0  0  0  0  0  0
  -17.2213  -29.6609   23.5502 C   0  0  0  0  0  0  0  0  0  0  0  0
  -23.8916  -28.8016   21.7056 C   0  0  0  0  0  0  0  0  0  0  0  0
  -25.7122  -29.7498   20.1910 C   0  0  0  0  0  0  0  0  0  0  0  0
  -20.6122  -15.7235   17.3918 C   0  0  0  0  0  0  0  0  0  0  0  0
  -26.6196  -18.2378   18.7194 C   0  0  0  0  0  0  0  0  0  0  0  0
  -21.5338  -16.3142   18.2774 C   0  0  0  0  0  0  0  0  0  0  0  0
  -27.2814  -18.0005   19.9326 C   0  0  0  0  0  0  0  0  0  0  0  0
  -31.1663  -24.1887   22.5188 C   0  0  0  0  0  0  0  0  0  0  0  0
  -30.4668  -23.9428   23.7003 C   0  0  0  0  0  0  0  0  0  0  0  0
  -21.7852  -29.0070   23.5231 C   0  0  0  0  0  0  0  0  0  0  0  0
  -27.1873  -20.3772   20.4348 C   0  0  0  0  0  0  0  0  0  0  0  0
  -19.4755  -28.8831   23.9379 C   0  0  0  0  0  0  0  0  0  0  0  0
  -16.8936  -28.4289   22.9840 C   0  0  0  0  0  0  0  0  0  0  0  0
  -18.5122  -29.8880   24.0271 C   0  0  0  0  0  0  0  0  0  0  0  0
  -30.8467  -24.5804   24.8813 C   0  0  0  0  0  0  0  0  0  0  0  0
  -24.9797  -28.6947   20.7671 C   0  0  0  0  0  0  0  0  0  0  0  0
  -26.6266  -29.1282   19.3762 C   0  0  0  0  0  0  0  0  0  0  0  0
  -28.0394  -23.4679   23.4298 C   0  0  0  0  0  0  0  0  0  0  0  0
  -25.5780  -31.1653   20.3759 C   0  0  0  0  0  0  0  0  0  0  0  0
  -25.0146  -15.5460   19.2503 C   0  0  0  0  0  0  0  0  0  0  0  0
  -27.9903  -14.2718   19.4606 C   0  0  0  0  0  0  0  0  0  0  0  0
  -31.3168  -13.6172   19.8511 C   0  0  0  0  0  0  0  0  0  0  0  0
  -29.0899  -23.6711   19.4306 C   0  0  0  0  0  0  0  0  0  0  0  0
  -20.5173  -14.2273   17.2272 C   0  0  0  0  0  0  0  0  0  0  0  0
  -26.3351  -17.1044   17.7725 C   0  0  0  0  0  0  0  0  0  0  0  0
  -27.7007  -16.6152   20.3494 C   0  0  0  0  0  0  0  0  0  0  0  0
  -27.0080  -22.3512   23.4424 C   0  0  0  0  0  0  0  0  0  0  0  0
  -21.7471  -13.4794   17.7357 C   0  0  0  0  0  0  0  0  0  0  0  0
  -27.2366  -25.1570   16.7784 C   0  0  0  0  0  0  0  0  0  0  0  0
  -22.1569  -13.9982   19.1104 C   0  0  0  0  0  0  0  0  0  0  0  0
  -26.5142  -26.3274   17.4480 C   0  0  0  0  0  0  0  0  0  0  0  0
  -28.8885  -20.6766   23.0766 C   0  0  0  0  0  0  0  0  0  0  0  0
  -27.3330  -23.9480   17.7064 C   0  0  0  0  0  0  0  0  0  0  0  0
  -29.5604  -21.6313   24.0630 C   0  0  0  0  0  0  0  0  0  0  0  0
  -27.2063  -25.3968   19.6960 C   0  0  0  0  0  0  0  0  0  0  0  0
  -22.5354  -15.4830   19.0493 C   0  0  1  0  0  0  0  0  0  0  0  0
  -26.2801  -15.7464   18.4654 C   0  0  1  0  0  0  0  0  0  0  0  0
  -27.1338  -26.6585   18.8190 C   0  0  2  0  0  0  0  0  0  0  0  0
  -27.4868  -21.1290   22.6724 C   0  0  2  0  0  0  0  0  0  1  0  0
  -32.9076  -11.7528   20.3905 C   0  0  0  0  0  0  0  0  0  0  0  0
  -27.2066  -14.4578   22.4036 C   0  0  0  0  0  0  0  0  0  0  0  0
  -29.3789  -13.3544   22.9799 C   0  0  0  0  0  0  0  0  0  0  0  0
  -27.6934  -12.1408   21.5982 C   0  0  0  0  0  0  0  0  0  0  0  0
  -32.6794  -13.8676   17.2359 C   0  0  0  0  0  0  0  0  0  0  0  0
  -30.7851  -23.5212   21.2370 C   0  0  0  0  0  0  0  0  0  0  0  0
  -28.9855  -14.0583   20.5755 C   0  0  1  0  0  0  0  0  0  0  0  0
  -32.2010  -12.5211   19.2845 C   0  0  2  0  0  0  0  0  0  0  0  0
  -28.3157  -13.5269   21.8741 C   0  0  0  0  0  0  0  0  0  0  0  0
  -25.3930  -27.4938   20.3533 N   0  0  0  0  0  0  0  0  0  0  0  0
  -26.3951  -27.7906   19.5084 N   0  0  0  0  0  0  0  0  0  0  0  0
  -29.3533  -23.0324   23.6855 N   0  0  0  0  0  0  0  0  0  0  0  0
  -27.3947  -15.5392   19.3922 N   0  0  0  0  0  0  0  0  0  0  0  0
  -27.9305  -24.3293   18.9884 N   0  0  0  0  0  0  0  0  0  0  0  0
  -27.5981  -29.6008   18.5667 N   0  0  0  0  0  0  0  0  0  0  0  0
  -26.3170  -31.7788   21.3966 N   0  0  0  0  0  0  0  0  0  0  0  0
  -23.8622  -15.6438   18.4941 N   0  0  0  0  0  0  0  0  0  0  0  0
  -30.0211  -13.1835   20.0363 N   0  0  0  0  0  0  0  0  0  0  0  0
  -29.5947  -24.0978   20.6528 N   0  0  0  0  0  0  0  0  0  0  0  0
  -33.2346  -13.1037   18.3827 N   0  3  0  0  0  0  0  0  0  0  0  0
  -27.6684  -24.6315   23.2764 O   0  0  0  0  0  0  0  0  0  0  0  0
  -24.8127  -31.8627   19.6679 O   0  0  0  0  0  0  0  0  0  0  0  0
  -25.0791  -15.3180   20.4526 O   0  0  0  0  0  0  0  0  0  0  0  0
  -27.7554  -13.3502   18.6750 O   0  0  0  0  0  0  0  0  0  0  0  0
  -31.7347  -14.7442   20.1076 O   0  0  0  0  0  0  0  0  0  0  0  0
  -29.6377  -22.7734   18.7817 O   0  0  0  0  0  0  0  0  0  0  0  0
  -20.7578  -29.1072   24.4102 O   0  0  0  0  0  0  0  0  0  0  0  0
  -27.4607  -21.4139   21.2729 O   0  0  0  0  0  0  0  0  0  1  0  0
  -15.6543  -28.2112   22.5246 F   0  0  0  0  0  0  0  0  0  0  0  0
  -18.8214  -31.0739   24.5690 F   0  0  0  0  0  0  0  0  0  0  0  0
  -30.0102  -24.3082   26.3687 Cl  0  0  0  0  0  0  0  0  0  0  0  0
  1  2  1  0  0  0  0
  1  6  2  0  0  0  0
  2  7  2  0  0  0  0
  3  9  2  0  0  0  0
  3 15  1  0  0  0  0
  4 10  2  0  0  0  0
  4 18  1  0  0  0  0
  5 11  1  0  0  0  0
  5 18  2  0  0  0  0
  6 20  1  0  0  0  0
  7 22  1  0  0  0  0
  8 12  2  0  0  0  0
  8 21  1  0  0  0  0
  9 24  1  0  0  0  0
 10 26  1  0  0  0  0
 11 26  2  0  0  0  0
 12 27  1  0  0  0  0
 13 14  2  0  0  0  0
 13 28  1  0  0  0  0
 14 29  1  0  0  0  0
 15 31  2  0  0  0  0
 16 23  1  0  0  0  0
 16 27  2  0  0  0  0
 17 29  2  0  0  0  0
 17 30  1  0  0  0  0
 18 32  1  0  0  0  0
 19 32  1  0  0  0  0
 19 33  2  0  0  0  0
 19 35  1  0  0  0  0
 20 22  2  0  0  0  0
 20 40  1  0  0  0  0
 21 23  2  0  0  0  0
 21 41  1  0  0  0  0
 22 52  1  0  0  0  0
 23 42  1  0  0  0  0
 24 25  2  0  0  0  0
 24 61  1  0  0  0  0
 25 31  1  0  0  0  0
 25 67  1  0  0  0  0
 26 82  1  0  0  0  0
 27 83  1  0  0  0  0
 28 30  2  0  0  0  0
 28 82  1  0  0  0  0
 29 84  1  0  0  0  0
 30 85  1  0  0  0  0
 31 86  1  0  0  0  0
 32 65  2  0  0  0  0
 33 66  1  0  0  0  0
 33 70  1  0  0  0  0
 34 43  1  0  0  0  0
 34 67  1  0  0  0  0
 34 76  2  0  0  0  0
 35 71  1  0  0  0  0
 35 77  2  0  0  0  0
 36 53  1  0  0  0  0
 36 72  1  0  0  0  0
 36 78  2  0  0  0  0
 37 62  1  0  0  0  0
 37 68  1  0  0  0  0
 37 79  2  0  0  0  0
 38 63  1  0  0  0  0
 38 73  1  0  0  0  0
 38 80  2  0  0  0  0
 39 69  1  0  0  0  0
 39 74  1  0  0  0  0
 39 81  2  0  0  0  0
 40 44  1  0  0  0  0
 41 53  1  0  0  0  0
 42 68  1  0  0  0  0
 43 55  1  0  0  0  0
 44 46  1  0  0  0  0
 45 47  1  0  0  0  0
 45 49  1  0  0  0  0
 46 52  1  0  0  0  0
 47 54  1  0  0  0  0
 48 50  1  0  0  0  0
 48 55  1  0  0  0  0
 49 69  1  0  0  0  0
 50 67  1  0  0  0  0
 51 54  1  0  0  0  0
 51 69  1  0  0  0  0
 52 72  1  0  0  0  0
 53 68  1  0  0  0  0
 54 66  1  0  0  0  0
 55 83  1  0  0  0  0
 56 63  1  0  0  0  0
 57 64  1  0  0  0  0
 58 64  1  0  0  0  0
 59 64  1  0  0  0  0
 60 75  1  0  0  0  0
 61 74  1  0  0  0  0
 62 64  1  0  0  0  0
 62 73  1  0  0  0  0
 63 75  1  0  0  0  0
 65 66  1  0  0  0  0
M  CHG  1  75   1
M  ISO  4  39 100  55 101  74 100  83 101
M  END
> <Batch ID>
0049

> <Smiles>
CNC(C)C(=O)NC(C(=O)N1Cc2cc([101O:1][101CH:1]3CCN(c4c(Cl)cccc4C[100NH:0][100C:0](=O)N4CCCC(n5nc(-c6ccc(Oc7ccc(F)cc7F)cc6)c(C(N)=O)c5N)C4)C(=O)C3)ccc2CC1C(=O)NC1CCCc2ccccc21)C(C)(C)C

> <Shape>
0.220

> <Color>
0.075

> <Negative vol penalty>
0.000

$$$$

  -OEChem-04042322323D

 85 93  0     1  0  0  0  0  0999 V2000
  -17.3075  -10.7793   22.1543 C   0  0  0  0  0  0  0  0  0  0  0  0
  -17.6761  -12.1049   21.9487 C   0  0  0  0  0  0  0  0  0  0  0  0
  -31.7776  -26.5858   18.9168 C   0  0  0  0  0  0  0  0  0  0  0  0
  -22.3305  -33.4518   24.4819 C   0  0  0  0  0  0  0  0  0  0  0  0
  -23.9140  -32.1715   25.7821 C   0  0  0  0  0  0  0  0  0  0  0  0
  -18.2190   -9.8814   22.7081 C   0  0  0  0  0  0  0  0  0  0  0  0
  -18.9562  -12.5336   22.2979 C   0  0  0  0  0  0  0  0  0  0  0  0
  -22.3449  -16.7401   19.4121 C   0  0  0  0  0  0  0  0  0  0  0  0
  -30.7084  -25.7578   19.2585 C   0  0  0  0  0  0  0  0  0  0  0  0
  -21.6233  -33.7579   25.6446 C   0  0  0  0  0  0  0  0  0  0  0  0
  -23.2069  -32.4776   26.9448 C   0  0  0  0  0  0  0  0  0  0  0  0
  -22.5724  -18.0930   19.6607 C   0  0  0  0  0  0  0  0  0  0  0  0
  -21.9093  -35.9038   28.2419 C   0  0  0  0  0  0  0  0  0  0  0  0
  -21.4990  -37.2246   28.4223 C   0  0  0  0  0  0  0  0  0  0  0  0
  -31.5661  -27.9493   18.7121 C   0  0  0  0  0  0  0  0  0  0  0  0
  -24.6014  -17.5294   20.8374 C   0  0  0  0  0  0  0  0  0  0  0  0
  -19.1958  -36.4989   28.4973 C   0  0  0  0  0  0  0  0  0  0  0  0
  -23.4758  -32.6585   24.5506 C   0  0  0  0  0  0  0  0  0  0  0  0
  -25.2657  -33.0737   22.7810 C   0  0  0  0  0  0  0  0  0  0  0  0
  -19.5141  -10.2970   23.0553 C   0  0  0  0  0  0  0  0  0  0  0  0
  -23.2398  -15.7693   19.8846 C   0  0  0  0  0  0  0  0  0  0  0  0
  -19.8855  -11.6407   22.8582 C   0  0  0  0  0  0  0  0  0  0  0  0
  -24.3844  -16.1651   20.5913 C   0  0  0  0  0  0  0  0  0  0  0  0
  -29.4277  -26.2932   19.3954 C   0  0  0  0  0  0  0  0  0  0  0  0
  -29.2162  -27.6567   19.1906 C   0  0  0  0  0  0  0  0  0  0  0  0
  -22.0615  -33.2708   26.8760 C   0  0  0  0  0  0  0  0  0  0  0  0
  -23.6993  -18.4876   20.3759 C   0  0  0  0  0  0  0  0  0  0  0  0
  -20.9628  -34.8805   28.1891 C   0  0  0  0  0  0  0  0  0  0  0  0
  -20.1423  -37.5222   28.5500 C   0  0  0  0  0  0  0  0  0  0  0  0
  -19.6061  -35.1781   28.3168 C   0  0  0  0  0  0  0  0  0  0  0  0
  -30.2854  -28.4847   18.8490 C   0  0  0  0  0  0  0  0  0  0  0  0
  -24.2064  -32.3415   23.3499 C   0  0  0  0  0  0  0  0  0  0  0  0
  -25.6121  -32.3611   21.6591 C   0  0  0  0  0  0  0  0  0  0  0  0
  -26.6492  -22.2334   19.7941 C   0  0  0  0  0  0  0  0  0  0  0  0
  -26.9606  -23.5238   19.9823 C   0  0  0  0  0  0  0  0  0  0  0  0
  -25.4297  -21.6440   20.3022 C   0  0  0  0  0  0  0  0  0  0  0  0
  -25.0755  -20.3641   20.1405 C   0  0  0  0  0  0  0  0  0  1  0  0
  -25.8817  -34.2892   23.2270 C   0  0  0  0  0  0  0  0  0  0  0  0
  -28.2349  -24.0802   19.4354 C   0  0  0  0  0  0  0  0  0  0  0  0
  -23.0341  -13.3209   21.9011 C   0  0  0  0  0  0  0  0  0  0  0  0
  -26.0632  -12.7420   20.8952 C   0  0  0  0  0  0  0  0  0  0  0  0
  -28.9485  -13.9604   19.5398 C   0  0  0  0  0  0  0  0  0  0  0  0
  -26.7015  -27.5407   19.0940 C   0  0  0  0  0  0  0  0  0  0  0  0
  -20.4491   -9.3012   23.6948 C   0  0  0  0  0  0  0  0  0  0  0  0
  -22.9941  -14.3160   19.5850 C   0  0  0  0  0  0  0  0  0  0  0  0
  -25.3864  -15.1636   21.1027 C   0  0  0  0  0  0  0  0  0  0  0  0
  -21.9091   -9.7468   23.6906 C   0  0  0  0  0  0  0  0  0  0  0  0
  -23.2829  -28.4995   19.3602 C   0  0  0  0  0  0  0  0  0  0  0  0
  -22.0260  -11.1969   24.1493 C   0  0  0  0  0  0  0  0  0  0  0  0
  -23.3055  -29.6448   20.3751 C   0  0  0  0  0  0  0  0  0  0  0  0
  -24.2974  -27.4121   19.7095 C   0  0  0  0  0  0  0  0  0  0  0  0
  -25.6939  -29.0331   20.9306 C   0  0  0  0  0  0  0  0  0  0  0  0
  -21.2730  -12.1379   23.2011 C   0  0  1  0  0  0  0  0  0  0  0  0
  -23.7029  -13.3775   20.5568 C   0  0  1  0  0  0  0  0  0  0  0  0
  -24.7343  -30.1835   20.5851 C   0  0  2  0  0  0  0  0  0  0  0  0
  -31.2629  -13.2557   18.8730 C   0  0  0  0  0  0  0  0  0  0  0  0
  -26.9009  -12.7257   23.8291 C   0  0  0  0  0  0  0  0  0  0  0  0
  -29.2769  -12.9739   23.0799 C   0  0  0  0  0  0  0  0  0  0  0  0
  -27.9706  -10.9510   22.4290 C   0  0  0  0  0  0  0  0  0  0  0  0
  -28.4758  -14.6763   16.7073 C   0  0  0  0  0  0  0  0  0  0  0  0
  -27.4391  -13.1717   21.3437 C   0  0  1  0  0  0  0  0  0  0  0  0
  -29.8265  -13.4484   18.4122 C   0  0  2  0  0  0  0  0  0  0  0  0
  -27.8772  -12.4746   22.6626 C   0  0  0  0  0  0  0  0  0  0  0  0
  -23.8998  -31.2478   22.6472 N   0  0  0  0  0  0  0  0  0  0  0  0
  -24.7717  -31.2875   21.6252 N   0  0  0  0  0  0  0  0  0  0  0  0
  -25.0986  -13.7541   20.7897 N   0  0  0  0  0  0  0  0  0  0  0  0
  -25.6285  -27.9957   19.8893 N   0  0  0  0  0  0  0  0  0  0  0  0
  -26.5504  -32.5545   20.7080 N   0  0  0  0  0  0  0  0  0  0  0  0
  -25.4032  -34.8896   24.3996 N   0  0  0  0  0  0  0  0  0  0  0  0
  -28.3603  -25.4289   19.7424 N   0  0  0  0  0  0  0  0  0  0  0  0
  -27.9117  -28.1917   19.3314 N   0  0  0  0  0  0  0  0  0  0  0  0
  -22.0425  -12.3632   21.9963 N   0  0  0  0  0  0  0  0  0  0  0  0
  -28.3308  -12.9289   20.2148 N   0  0  0  0  0  0  0  0  0  0  0  0
  -29.8230  -14.4113   17.2748 N   0  3  0  0  0  0  0  0  0  0  0  0
  -26.8174  -34.8358   22.5952 O   0  0  0  0  0  0  0  0  0  0  0  0
  -29.0186  -23.3778   18.8078 O   0  0  0  0  0  0  0  0  0  0  0  0
  -23.3923  -14.0882   22.7869 O   0  0  0  0  0  0  0  0  0  0  0  0
  -25.8539  -11.5533   20.6407 O   0  0  0  0  0  0  0  0  0  0  0  0
  -28.8261  -15.1557   19.7984 O   0  0  0  0  0  0  0  0  0  0  0  0
  -26.5512  -26.6587   18.2446 O   0  0  0  0  0  0  0  0  0  0  0  0
  -21.3718  -33.5695   28.0108 O   0  0  0  0  0  0  0  0  0  0  0  0
  -23.9234  -19.8074   20.6205 O   0  0  0  0  0  0  0  0  0  1  0  0
  -19.7485  -38.7905   28.7248 F   0  0  0  0  0  0  0  0  0  0  0  0
  -18.6923  -34.1991   28.2681 F   0  0  0  0  0  0  0  0  0  0  0  0
  -30.0733  -30.1796   18.5851 Cl  0  0  0  0  0  0  0  0  0  0  0  0
  1  2  1  0  0  0  0
  1  6  2  0  0  0  0
  2  7  2  0  0  0  0
  3  9  2  0  0  0  0
  3 15  1  0  0  0  0
  4 10  2  0  0  0  0
  4 18  1  0  0  0  0
  5 11  1  0  0  0  0
  5 18  2  0  0  0  0
  6 20  1  0  0  0  0
  7 22  1  0  0  0  0
  8 12  2  0  0  0  0
  8 21  1  0  0  0  0
  9 24  1  0  0  0  0
 10 26  1  0  0  0  0
 11 26  2  0  0  0  0
 12 27  1  0  0  0  0
 13 14  2  0  0  0  0
 13 28  1  0  0  0  0
 14 29  1  0  0  0  0
 15 31  2  0  0  0  0
 16 23  1  0  0  0  0
 16 27  2  0  0  0  0
 17 29  2  0  0  0  0
 17 30  1  0  0  0  0
 18 32  1  0  0  0  0
 19 32  1  0  0  0  0
 19 33  2  0  0  0  0
 19 38  1  0  0  0  0
 20 22  2  0  0  0  0
 20 44  1  0  0  0  0
 21 23  2  0  0  0  0
 21 45  1  0  0  0  0
 22 53  1  0  0  0  0
 23 46  1  0  0  0  0
 24 25  2  0  0  0  0
 24 70  1  0  0  0  0
 25 31  1  0  0  0  0
 25 71  1  0  0  0  0
 26 81  1  0  0  0  0
 27 82  1  0  0  0  0
 28 30  2  0  0  0  0
 28 81  1  0  0  0  0
 29 83  1  0  0  0  0
 30 84  1  0  0  0  0
 31 85  1  0  0  0  0
 32 64  2  0  0  0  0
 33 65  1  0  0  0  0
 33 68  1  0  0  0  0
 34 35  2  0  0  0  0
 34 36  1  0  0  0  0
 35 39  1  0  0  0  0
 36 37  2  0  0  0  0
 37 82  1  0  0  0  0
 38 69  1  0  0  0  0
 38 75  2  0  0  0  0
 39 70  1  0  0  0  0
 39 76  2  0  0  0  0
 40 54  1  0  0  0  0
 40 72  1  0  0  0  0
 40 77  2  0  0  0  0
 41 61  1  0  0  0  0
 41 66  1  0  0  0  0
 41 78  2  0  0  0  0
 42 62  1  0  0  0  0
 42 73  1  0  0  0  0
 42 79  2  0  0  0  0
 43 67  1  0  0  0  0
 43 71  1  0  0  0  0
 43 80  2  0  0  0  0
 44 47  1  0  0  0  0
 45 54  1  0  0  0  0
 46 66  1  0  0  0  0
 47 49  1  0  0  0  0
 48 50  1  0  0  0  0
 48 51  1  0  0  0  0
 49 53  1  0  0  0  0
 50 55  1  0  0  0  0
 51 67  1  0  0  0  0
 52 55  1  0  0  0  0
 52 67  1  0  0  0  0
 53 72  1  0  0  0  0
 54 66  1  0  0  0  0
 55 65  1  0  0  0  0
 56 62  1  0  0  0  0
 57 63  1  0  0  0  0
 58 63  1  0  0  0  0
 59 63  1  0  0  0  0
 60 74  1  0  0  0  0
 61 63  1  0  0  0  0
 61 73  1  0  0  0  0
 62 74  1  0  0  0  0
 64 65  1  0  0  0  0
M  CHG  1  74   1
M  ISO  4  37 101  43 100  71 100  82 101
M  END
> <Batch ID>
0049

> <Smiles>
CNC(C)C(=O)NC(C(=O)N1Cc2cc([101O:1][101CH:1]=CC=CC(=O)Nc3cccc(Cl)c3[100NH:0][100C:0](=O)N3CCCC(n4nc(-c5ccc(Oc6ccc(F)cc6F)cc5)c(C(N)=O)c4N)C3)ccc2CC1C(=O)NC1CCCc2ccccc21)C(C)(C)C

> <Shape>
0.221

> <Color>
0.081

> <Negative vol penalty>
0.000

$$$$

  -OEChem-04042322323D

 87 96  0     1  0  0  0  0  0999 V2000
  -22.2123  -17.6375   21.8704 C   0  0  0  0  0  0  0  0  0  0  0  0
  -22.8286  -18.6198   21.1019 C   0  0  0  0  0  0  0  0  0  0  0  0
  -25.9369  -14.2225   21.4776 C   0  0  0  0  0  0  0  0  0  0  0  0
  -25.6599  -15.7279   19.6084 C   0  0  0  0  0  0  0  0  0  0  0  0
  -20.9764  -17.8915   22.4638 C   0  0  0  0  0  0  0  0  0  0  0  0
  -22.2088  -19.8563   20.9253 C   0  0  0  0  0  0  0  0  0  0  0  0
  -25.4164  -23.7348   21.4860 C   0  0  0  0  0  0  0  0  0  0  0  0
  -24.5703  -13.9444   21.4562 C   0  0  0  0  0  0  0  0  0  0  0  0
  -24.2932  -15.4498   19.5869 C   0  0  0  0  0  0  0  0  0  0  0  0
  -26.2673  -24.0168   20.4182 C   0  0  0  0  0  0  0  0  0  0  0  0
  -22.4456  -12.0312   19.6511 C   0  0  0  0  0  0  0  0  0  0  0  0
  -22.0537  -10.6971   19.7616 C   0  0  0  0  0  0  0  0  0  0  0  0
  -24.8035  -25.8076   19.7327 C   0  0  0  0  0  0  0  0  0  0  0  0
  -30.8512  -22.8996   17.2951 C   0  0  0  0  0  0  0  0  0  0  0  0
  -30.1188  -21.8657   14.8097 C   0  0  0  0  0  0  0  0  0  0  0  0
  -20.8217  -11.2253   21.7716 C   0  0  0  0  0  0  0  0  0  0  0  0
  -26.4818  -15.1143   20.5537 C   0  0  0  0  0  0  0  0  0  0  0  0
  -28.9504  -14.4880   20.4074 C   0  0  0  0  0  0  0  0  0  0  0  0
  -20.3457  -19.1352   22.3023 C   0  0  0  0  0  0  0  0  0  0  0  0
  -24.2451  -24.4812   21.6792 C   0  0  0  0  0  0  0  0  0  0  0  0
  -20.9627  -20.1268   21.5159 C   0  0  0  0  0  0  0  0  0  0  0  0
  -23.9408  -25.5346   20.8052 C   0  0  0  0  0  0  0  0  0  0  0  0
  -30.6738  -23.7559   16.2084 C   0  0  0  0  0  0  0  0  0  0  0  0
  -30.2962  -21.0095   15.8964 C   0  0  0  0  0  0  0  0  0  0  0  0
  -30.6624  -21.5263   17.1391 C   0  0  0  0  0  0  0  0  0  0  0  0
  -23.7484  -14.5580   20.5108 C   0  0  0  0  0  0  0  0  0  0  0  0
  -25.9594  -25.0515   19.5396 C   0  0  0  0  0  0  0  0  0  0  0  0
  -22.0256  -12.9624   20.6010 C   0  0  0  0  0  0  0  0  0  0  0  0
  -21.2418  -10.2941   20.8218 C   0  0  0  0  0  0  0  0  0  0  0  0
  -21.2136  -12.5594   21.6612 C   0  0  0  0  0  0  0  0  0  0  0  0
  -30.3076  -23.2390   14.9657 C   0  0  0  0  0  0  0  0  0  0  0  0
  -27.8933  -15.4024   20.5757 C   0  0  0  0  0  0  0  0  0  0  0  0
  -30.0862  -15.2531   20.5121 C   0  0  0  0  0  0  0  0  0  0  0  0
  -29.8253  -25.9414   18.5224 C   0  0  0  0  0  0  0  0  0  0  0  0
  -28.9092  -13.0735   20.1771 C   0  0  0  0  0  0  0  0  0  0  0  0
  -21.1376  -23.8129   21.7030 C   0  0  0  0  0  0  0  0  0  0  0  0
  -20.8760  -26.9090   22.6346 C   0  0  0  0  0  0  0  0  0  0  0  0
  -22.3896  -30.0622   21.7493 C   0  0  0  0  0  0  0  0  0  0  0  0
  -31.2119  -21.0420   19.5495 C   0  0  0  0  0  0  0  0  0  0  0  0
  -18.9880  -19.3468   22.9240 C   0  0  0  0  0  0  0  0  0  0  0  0
  -23.3515  -24.1817   22.8514 C   0  0  0  0  0  0  0  0  0  0  0  0
  -22.7059  -26.3790   20.9806 C   0  0  0  0  0  0  0  0  0  0  0  0
  -28.6729  -26.6575   19.2060 C   0  0  0  0  0  0  0  0  0  0  0  0
  -18.5734  -20.8141   22.9969 C   0  0  0  0  0  0  0  0  0  0  0  0
  -31.7342  -19.2462   22.5793 C   0  0  0  0  0  0  0  0  0  0  0  0
  -18.8396  -21.5108   21.6662 C   0  0  0  0  0  0  0  0  0  0  0  0
  -30.9096  -17.9707   22.3915 C   0  0  0  0  0  0  0  0  0  0  0  0
  -27.5836  -27.0428   17.0067 C   0  0  0  0  0  0  0  0  0  0  0  0
  -31.0471  -20.4621   21.9602 C   0  0  0  0  0  0  0  0  0  0  0  0
  -28.5800  -26.1105   16.3399 C   0  0  0  0  0  0  0  0  0  0  0  0
  -29.8328  -19.0300   20.3653 C   0  0  0  0  0  0  0  0  0  0  0  0
  -20.3336  -21.4893   21.3214 C   0  0  1  0  0  0  0  0  0  0  0  0
  -21.9210  -24.6736   22.6533 C   0  0  1  0  0  0  0  0  0  0  0  0
  -30.5151  -17.7669   20.9155 C   0  0  2  0  0  0  0  0  0  0  0  0
  -27.3574  -26.6330   18.4493 C   0  0  1  0  0  0  0  0  0  1  0  0
  -30.0875  -19.5427   15.7002 C   0  0  0  0  0  0  0  0  0  0  0  0
  -22.7194  -32.1503   23.1014 C   0  0  0  0  0  0  0  0  0  0  0  0
  -18.2392  -27.7919   21.3786 C   0  0  0  0  0  0  0  0  0  0  0  0
  -19.1748  -30.1081   21.2112 C   0  0  0  0  0  0  0  0  0  0  0  0
  -18.8797  -29.0427   23.4474 C   0  0  0  0  0  0  0  0  0  0  0  0
  -25.3042  -30.0733   21.2357 C   0  0  0  0  0  0  0  0  0  0  0  0
  -30.8869  -25.2273   16.4174 C   0  0  0  0  0  0  0  0  0  0  0  0
  -20.7249  -28.2309   21.9214 C   0  0  1  0  0  0  0  0  0  0  0  0
  -23.3621  -30.8709   22.5887 C   0  0  2  0  0  0  0  0  0  0  0  0
  -19.2681  -28.7714   21.9776 C   0  0  0  0  0  0  0  0  0  0  0  0
  -28.3197  -16.6528   20.7725 N   0  0  0  0  0  0  0  0  0  0  0  0
  -29.6572  -16.5295   20.7286 N   0  0  0  0  0  0  0  0  0  0  0  0
  -29.7775  -25.8425   17.1340 N   0  0  0  0  0  0  0  0  0  0  0  0
  -21.8605  -26.0429   22.1381 N   0  0  0  0  0  0  0  0  0  0  0  0
  -30.7066  -20.1975   20.5606 N   0  0  0  0  0  0  0  0  0  0  0  0
  -31.4001  -14.9517   20.4393 N   0  0  0  0  0  0  0  0  0  0  0  0
  -27.6586  -12.4457   20.0968 N   0  0  0  0  0  0  0  0  0  0  0  0
  -30.8481  -20.6729   18.2548 N   0  0  0  0  0  0  0  0  0  0  0  0
  -21.0439  -22.4895   22.0894 N   0  0  0  0  0  0  0  0  0  0  0  0
  -21.7173  -29.1261   22.5063 N   0  0  0  0  0  0  0  0  0  0  0  0
  -24.5612  -31.2374   21.7832 N   0  3  0  0  0  0  0  0  0  0  0  0
  -30.7749  -25.5532   19.2092 O   0  0  0  0  0  0  0  0  0  0  0  0
  -29.9507  -12.3838   20.0626 O   0  0  0  0  0  0  0  0  0  0  0  0
  -20.6527  -24.3128   20.6947 O   0  0  0  0  0  0  0  0  0  0  0  0
  -20.1523  -26.6572   23.6013 O   0  0  0  0  0  0  0  0  0  0  0  0
  -22.2385  -30.2453   20.5434 O   0  0  0  0  0  0  0  0  0  0  0  0
  -31.9378  -22.0046   19.8107 O   0  0  0  0  0  0  0  0  0  0  0  0
  -22.4148  -14.2866   20.4895 O   0  0  0  0  0  0  0  0  0  0  0  0
  -26.7878  -25.3285   18.4962 O   0  0  0  0  0  0  0  0  0  1  0  0
  -20.8643   -9.0133   20.9268 F   0  0  0  0  0  0  0  0  0  0  0  0
  -20.8060  -13.4497   22.5761 F   0  0  0  0  0  0  0  0  0  0  0  0
  -30.0797  -24.2680   13.5987 Cl  0  0  0  0  0  0  0  0  0  0  0  0
  1  2  1  0  0  0  0
  1  5  2  0  0  0  0
  2  6  2  0  0  0  0
  3  8  2  0  0  0  0
  3 17  1  0  0  0  0
  4  9  1  0  0  0  0
  4 17  2  0  0  0  0
  5 19  1  0  0  0  0
  6 21  1  0  0  0  0
  7 10  2  0  0  0  0
  7 20  1  0  0  0  0
  8 26  1  0  0  0  0
  9 26  2  0  0  0  0
 10 27  1  0  0  0  0
 11 12  2  0  0  0  0
 11 28  1  0  0  0  0
 12 29  1  0  0  0  0
 13 22  1  0  0  0  0
 13 27  2  0  0  0  0
 14 23  1  0  0  0  0
 14 25  2  0  0  0  0
 15 24  2  0  0  0  0
 15 31  1  0  0  0  0
 16 29  2  0  0  0  0
 16 30  1  0  0  0  0
 17 32  1  0  0  0  0
 18 32  1  0  0  0  0
 18 33  2  0  0  0  0
 18 35  1  0  0  0  0
 19 21  2  0  0  0  0
 19 40  1  0  0  0  0
 20 22  2  0  0  0  0
 20 41  1  0  0  0  0
 21 52  1  0  0  0  0
 22 42  1  0  0  0  0
 23 31  2  0  0  0  0
 23 62  1  0  0  0  0
 24 25  1  0  0  0  0
 24 56  1  0  0  0  0
 25 73  1  0  0  0  0
 26 83  1  0  0  0  0
 27 84  1  0  0  0  0
 28 30  2  0  0  0  0
 28 83  1  0  0  0  0
 29 85  1  0  0  0  0
 30 86  1  0  0  0  0
 31 87  1  0  0  0  0
 32 66  2  0  0  0  0
 33 67  1  0  0  0  0
 33 71  1  0  0  0  0
 34 43  1  0  0  0  0
 34 68  1  0  0  0  0
 34 77  2  0  0  0  0
 35 72  1  0  0  0  0
 35 78  2  0  0  0  0
 36 53  1  0  0  0  0
 36 74  1  0  0  0  0
 36 79  2  0  0  0  0
 37 63  1  0  0  0  0
 37 69  1  0  0  0  0
 37 80  2  0  0  0  0
 38 64  1  0  0  0  0
 38 75  1  0  0  0  0
 38 81  2  0  0  0  0
 39 70  1  0  0  0  0
 39 73  1  0  0  0  0
 39 82  2  0  0  0  0
 40 44  1  0  0  0  0
 41 53  1  0  0  0  0
 42 69  1  0  0  0  0
 43 55  1  0  0  0  0
 44 46  1  0  0  0  0
 45 47  1  0  0  0  0
 45 49  1  0  0  0  0
 46 52  1  0  0  0  0
 47 54  1  0  0  0  0
 48 50  1  0  0  0  0
 48 55  1  0  0  0  0
 49 70  1  0  0  0  0
 50 68  1  0  0  0  0
 51 54  1  0  0  0  0
 51 70  1  0  0  0  0
 52 74  1  0  0  0  0
 53 69  1  0  0  0  0
 54 67  1  0  0  0  0
 55 84  1  0  0  0  0
 57 64  1  0  0  0  0
 58 65  1  0  0  0  0
 59 65  1  0  0  0  0
 60 65  1  0  0  0  0
 61 76  1  0  0  0  0
 62 68  1  0  0  0  0
 63 65  1  0  0  0  0
 63 75  1  0  0  0  0
 64 76  1  0  0  0  0
 66 67  1  0  0  0  0
M  CHG  1  76   1
M  ISO  4  39 100  55 101  73 100  84 101
M  END
> <Batch ID>
0049

> <Smiles>
CNC(C)C(=O)NC(C(=O)N1Cc2cc([101O:1][101CH:1]3CCN(Cc4cc([100NH:0][100C:0](=O)N5CCCC(n6nc(-c7ccc(Oc8ccc(F)cc8F)cc7)c(C(N)=O)c6N)C5)c(C)cc4Cl)C(=O)C3)ccc2CC1C(=O)NC1CCCc2ccccc21)C(C)(C)C

> <Shape>
0.238

> <Color>
0.064

> <Negative vol penalty>
0.000

$$$$

  -OEChem-04042322323D

 85 93  0     1  0  0  0  0  0999 V2000
  -30.1212  -24.8648   13.8348 C   0  0  0  0  0  0  0  0  0  0  0  0
  -29.9271  -24.6204   15.1905 C   0  0  0  0  0  0  0  0  0  0  0  0
  -23.0772   -9.8657   19.9415 C   0  0  0  0  0  0  0  0  0  0  0  0
  -23.8352   -9.8752   22.2355 C   0  0  0  0  0  0  0  0  0  0  0  0
  -31.4004  -24.7741   13.2875 C   0  0  0  0  0  0  0  0  0  0  0  0
  -31.0119  -24.2841   15.9996 C   0  0  0  0  0  0  0  0  0  0  0  0
  -31.0037  -26.7898   20.4003 C   0  0  0  0  0  0  0  0  0  0  0  0
  -22.3338   -8.7124   20.1920 C   0  0  0  0  0  0  0  0  0  0  0  0
  -23.0917   -8.7219   22.4860 C   0  0  0  0  0  0  0  0  0  0  0  0
  -30.1337  -26.3351   21.3903 C   0  0  0  0  0  0  0  0  0  0  0  0
  -19.8635   -7.9230   23.0866 C   0  0  0  0  0  0  0  0  0  0  0  0
  -19.1056   -7.8838   24.2569 C   0  0  0  0  0  0  0  0  0  0  0  0
  -30.6123  -19.8686   21.4592 C   0  0  0  0  0  0  0  0  0  0  0  0
  -31.9657  -25.1937   22.4675 C   0  0  0  0  0  0  0  0  0  0  0  0
  -31.1526  -17.6804   20.5892 C   0  0  0  0  0  0  0  0  0  0  0  0
  -20.3474   -5.9477   24.9962 C   0  0  0  0  0  0  0  0  0  0  0  0
  -23.8280  -10.4471   20.9633 C   0  0  0  0  0  0  0  0  0  0  0  0
  -29.7071  -19.2911   22.3496 C   0  0  0  0  0  0  0  0  0  0  0  0
  -24.1686  -12.9723   20.8411 C   0  0  0  0  0  0  0  0  0  0  0  0
  -32.5029  -24.4460   14.0921 C   0  0  0  0  0  0  0  0  0  0  0  0
  -32.3615  -26.4402   20.4306 C   0  0  0  0  0  0  0  0  0  0  0  0
  -32.3068  -24.1877   15.4622 C   0  0  0  0  0  0  0  0  0  0  0  0
  -32.8513  -25.6473   21.4782 C   0  0  0  0  0  0  0  0  0  0  0  0
  -29.5247  -17.9082   22.3599 C   0  0  0  0  0  0  0  0  0  0  0  0
  -30.2475  -17.1028   21.4797 C   0  0  0  0  0  0  0  0  0  0  0  0
  -22.3410   -8.1405   21.4642 C   0  0  0  0  0  0  0  0  0  0  0  0
  -30.6140  -25.5345   22.4225 C   0  0  0  0  0  0  0  0  0  0  0  0
  -20.8633   -6.9745   22.8710 C   0  0  0  0  0  0  0  0  0  0  0  0
  -19.3476   -6.8962   25.2118 C   0  0  0  0  0  0  0  0  0  0  0  0
  -21.1053   -5.9869   23.8259 C   0  0  0  0  0  0  0  0  0  0  0  0
  -31.3349  -19.0632   20.5789 C   0  0  0  0  0  0  0  0  0  0  0  0
  -24.5967  -11.6381   20.7051 C   0  0  0  0  0  0  0  0  0  0  0  0
  -25.2607  -13.7220   20.4781 C   0  0  0  0  0  0  0  0  0  0  0  0
  -28.9534  -20.1639   23.2719 C   0  0  0  0  0  0  0  0  0  0  0  0
  -22.8975  -13.4878   21.2585 C   0  0  0  0  0  0  0  0  0  0  0  0
  -34.3039  -24.8194   18.5062 C   0  0  0  0  0  0  0  0  0  0  0  0
  -36.5716  -25.8065   20.6050 C   0  0  0  0  0  0  0  0  0  0  0  0
  -37.3354  -26.8750   23.7549 C   0  0  0  0  0  0  0  0  0  0  0  0
  -30.7262  -14.7706   20.6563 C   0  0  0  0  0  0  0  0  0  0  0  0
  -33.8593  -24.3136   13.4461 C   0  0  0  0  0  0  0  0  0  0  0  0
  -33.2922  -26.9609   19.3699 C   0  0  0  0  0  0  0  0  0  0  0  0
  -34.3042  -25.2606   21.5675 C   0  0  0  0  0  0  0  0  0  0  0  0
  -35.0131  -24.3187   14.4456 C   0  0  0  0  0  0  0  0  0  0  0  0
  -29.6150  -12.3540   18.2894 C   0  0  0  0  0  0  0  0  0  0  0  0
  -34.7110  -23.3862   15.6144 C   0  0  0  0  0  0  0  0  0  0  0  0
  -28.1751  -12.0621   18.7181 C   0  0  0  0  0  0  0  0  0  0  0  0
  -30.5290  -12.5844   19.4916 C   0  0  0  0  0  0  0  0  0  0  0  0
  -28.6205  -13.3092   20.8706 C   0  0  0  0  0  0  0  0  0  0  0  0
  -33.4622  -23.8445   16.3773 C   0  0  1  0  0  0  0  0  0  0  0  0
  -34.5551  -26.1189   19.2174 C   0  0  1  0  0  0  0  0  0  0  0  0
  -27.6487  -13.1343   19.6921 C   0  0  2  0  0  0  0  0  0  0  0  0
  -28.5525  -17.2923   23.3170 C   0  0  0  0  0  0  0  0  0  0  0  0
  -39.2793  -27.5679   25.1828 C   0  0  0  0  0  0  0  0  0  0  0  0
  -37.3973  -22.8834   20.8950 C   0  0  0  0  0  0  0  0  0  0  0  0
  -38.6411  -23.5135   22.9745 C   0  0  0  0  0  0  0  0  0  0  0  0
  -39.3027  -24.4993   20.7806 C   0  0  0  0  0  0  0  0  0  0  0  0
  -36.2140  -29.5821   24.1713 C   0  0  0  0  0  0  0  0  0  0  0  0
  -28.7794  -23.1782   24.4541 C   0  0  0  0  0  0  0  0  0  0  0  0
  -29.0066  -21.8220   25.1007 C   0  0  0  0  0  0  0  0  0  0  0  0
  -30.0757  -23.8344   23.9960 C   0  0  0  0  0  0  0  0  0  1  0  0
  -37.1573  -25.2566   21.8832 C   0  0  1  0  0  0  0  0  0  0  0  0
  -38.1765  -28.0389   24.2475 C   0  0  2  0  0  0  0  0  0  0  0  0
  -38.0968  -24.0437   21.6308 C   0  0  0  0  0  0  0  0  0  0  0  0
  -25.8619  -11.5425   20.2879 N   0  0  0  0  0  0  0  0  0  0  0  0
  -26.2383  -12.8262   20.1587 N   0  0  0  0  0  0  0  0  0  0  0  0
  -35.1734  -25.7893   20.5032 N   0  0  0  0  0  0  0  0  0  0  0  0
  -29.9687  -13.6158   20.3675 N   0  0  0  0  0  0  0  0  0  0  0  0
  -25.4704  -15.0535   20.4040 N   0  0  0  0  0  0  0  0  0  0  0  0
  -27.6225  -20.1565   23.1969 N   0  0  0  0  0  0  0  0  0  0  0  0
  -21.8858  -12.5785   21.5958 N   0  0  0  0  0  0  0  0  0  0  0  0
  -30.0776  -15.6961   21.4733 N   0  0  0  0  0  0  0  0  0  0  0  0
  -33.7780  -24.9653   17.2367 N   0  0  0  0  0  0  0  0  0  0  0  0
  -37.8003  -26.3810   22.5544 N   0  0  0  0  0  0  0  0  0  0  0  0
  -29.6401  -20.9219   24.1368 N   0  3  0  0  0  0  0  0  0  0  0  0
  -37.3259  -29.0192   24.9798 N   0  3  0  0  0  0  0  0  0  0  0  0
  -22.6606  -14.7184   21.3145 O   0  0  0  0  0  0  0  0  0  0  0  0
  -34.5690  -23.7625   19.0670 O   0  0  0  0  0  0  0  0  0  0  0  0
  -37.3267  -26.2420   19.7322 O   0  0  0  0  0  0  0  0  0  0  0  0
  -36.3655  -26.4447   24.3750 O   0  0  0  0  0  0  0  0  0  0  0  0
  -31.8556  -14.9395   20.1894 O   0  0  0  0  0  0  0  0  0  0  0  0
  -21.6154   -7.0152   21.7090 O   0  0  0  0  0  0  0  0  0  0  0  0
  -29.7669  -25.0888   23.3897 O   0  0  0  0  0  0  0  0  0  1  0  0
  -18.6207   -6.8596   26.3363 F   0  0  0  0  0  0  0  0  0  0  0  0
  -22.0652   -5.0737   23.6249 F   0  0  0  0  0  0  0  0  0  0  0  0
  -32.4517  -19.7759   19.4802 Cl  0  0  0  0  0  0  0  0  0  0  0  0
  1  2  1  0  0  0  0
  1  5  2  0  0  0  0
  2  6  2  0  0  0  0
  3  8  2  0  0  0  0
  3 17  1  0  0  0  0
  4  9  1  0  0  0  0
  4 17  2  0  0  0  0
  5 20  1  0  0  0  0
  6 22  1  0  0  0  0
  7 10  2  0  0  0  0
  7 21  1  0  0  0  0
  8 26  1  0  0  0  0
  9 26  2  0  0  0  0
 10 27  1  0  0  0  0
 11 12  2  0  0  0  0
 11 28  1  0  0  0  0
 12 29  1  0  0  0  0
 13 18  1  0  0  0  0
 13 31  2  0  0  0  0
 14 23  1  0  0  0  0
 14 27  2  0  0  0  0
 15 25  2  0  0  0  0
 15 31  1  0  0  0  0
 16 29  2  0  0  0  0
 16 30  1  0  0  0  0
 17 32  1  0  0  0  0
 18 24  2  0  0  0  0
 18 34  1  0  0  0  0
 19 32  1  0  0  0  0
 19 33  2  0  0  0  0
 19 35  1  0  0  0  0
 20 22  2  0  0  0  0
 20 40  1  0  0  0  0
 21 23  2  0  0  0  0
 21 41  1  0  0  0  0
 22 49  1  0  0  0  0
 23 42  1  0  0  0  0
 24 25  1  0  0  0  0
 24 52  1  0  0  0  0
 25 71  1  0  0  0  0
 26 81  1  0  0  0  0
 27 82  1  0  0  0  0
 28 30  2  0  0  0  0
 28 81  1  0  0  0  0
 29 83  1  0  0  0  0
 30 84  1  0  0  0  0
 31 85  1  0  0  0  0
 32 64  2  0  0  0  0
 33 65  1  0  0  0  0
 33 68  1  0  0  0  0
 34 69  1  0  0  0  0
 34 74  2  0  0  0  0
 35 70  1  0  0  0  0
 35 76  2  0  0  0  0
 36 50  1  0  0  0  0
 36 72  1  0  0  0  0
 36 77  2  0  0  0  0
 37 61  1  0  0  0  0
 37 66  1  0  0  0  0
 37 78  2  0  0  0  0
 38 62  1  0  0  0  0
 38 73  1  0  0  0  0
 38 79  2  0  0  0  0
 39 67  1  0  0  0  0
 39 71  1  0  0  0  0
 39 80  2  0  0  0  0
 40 43  1  0  0  0  0
 41 50  1  0  0  0  0
 42 66  1  0  0  0  0
 43 45  1  0  0  0  0
 44 46  1  0  0  0  0
 44 47  1  0  0  0  0
 45 49  1  0  0  0  0
 46 51  1  0  0  0  0
 47 67  1  0  0  0  0
 48 51  1  0  0  0  0
 48 67  1  0  0  0  0
 49 72  1  0  0  0  0
 50 66  1  0  0  0  0
 51 65  1  0  0  0  0
 53 62  1  0  0  0  0
 54 63  1  0  0  0  0
 55 63  1  0  0  0  0
 56 63  1  0  0  0  0
 57 75  1  0  0  0  0
 58 59  1  0  0  0  0
 58 60  1  0  0  0  0
 59 74  1  0  0  0  0
 60 82  1  0  0  0  0
 61 63  1  0  0  0  0
 61 73  1  0  0  0  0
 62 75  1  0  0  0  0
 64 65  1  0  0  0  0
M  CHG  2  74   1  75   1
M  ISO  4  39 100  60 101  71 100  82 101
M  END
> <Batch ID>
0049

> <Smiles>
CNC(C)C(=O)NC(C(=O)N1Cc2cc([101O:1][101CH2:1]CCNC(=N)c3cc(Cl)cc([100NH:0][100C:0](=O)N4CCCC(n5nc(-c6ccc(Oc7ccc(F)cc7F)cc6)c(C(N)=O)c5N)C4)c3C)ccc2CC1C(=O)NC1CCCc2ccccc21)C(C)(C)C

> <Shape>
0.197

> <Color>
0.187

> <Negative vol penalty>
0.000

$$$$

  -OEChem-04042322323D

 88 97  0     1  0  0  0  0  0999 V2000
  -40.6526  -29.9335   24.4679 C   0  0  0  0  0  0  0  0  0  0  0  0
  -39.6470  -29.2580   23.7839 C   0  0  0  0  0  0  0  0  0  0  0  0
  -23.0670   -9.9158   19.9607 C   0  0  0  0  0  0  0  0  0  0  0  0
  -23.8317   -9.9272   22.2524 C   0  0  0  0  0  0  0  0  0  0  0  0
  -41.5415  -29.2256   25.2757 C   0  0  0  0  0  0  0  0  0  0  0  0
  -39.5305  -27.8739   23.9065 C   0  0  0  0  0  0  0  0  0  0  0  0
  -34.7404  -26.3809   24.5932 C   0  0  0  0  0  0  0  0  0  0  0  0
  -31.4985  -18.9600   20.5094 C   0  0  0  0  0  0  0  0  0  0  0  0
  -31.2896  -17.5810   20.5304 C   0  0  0  0  0  0  0  0  0  0  0  0
  -22.3027   -8.7785   20.2213 C   0  0  0  0  0  0  0  0  0  0  0  0
  -23.0674   -8.7898   22.5131 C   0  0  0  0  0  0  0  0  0  0  0  0
  -33.9177  -26.3434   23.4683 C   0  0  0  0  0  0  0  0  0  0  0  0
  -19.8266   -8.0559   23.1283 C   0  0  0  0  0  0  0  0  0  0  0  0
  -19.0715   -8.0391   24.3010 C   0  0  0  0  0  0  0  0  0  0  0  0
  -34.2491  -23.9590   23.3130 C   0  0  0  0  0  0  0  0  0  0  0  0
  -20.2789   -6.0852   25.0505 C   0  0  0  0  0  0  0  0  0  0  0  0
  -23.8315  -10.4902   20.9762 C   0  0  0  0  0  0  0  0  0  0  0  0
  -24.2191  -13.0076   20.8353 C   0  0  0  0  0  0  0  0  0  0  0  0
  -41.4298  -27.8333   25.4159 C   0  0  0  0  0  0  0  0  0  0  0  0
  -35.3334  -25.2075   25.0809 C   0  0  0  0  0  0  0  0  0  0  0  0
  -40.4195  -27.1465   24.7159 C   0  0  0  0  0  0  0  0  0  0  0  0
  -35.0768  -23.9840   24.4459 C   0  0  0  0  0  0  0  0  0  0  0  0
  -30.7941  -19.7855   21.3859 C   0  0  0  0  0  0  0  0  0  0  0  0
  -29.8808  -19.2320   22.2832 C   0  0  0  0  0  0  0  0  0  0  0  0
  -29.6719  -17.8531   22.3041 C   0  0  0  0  0  0  0  0  0  0  0  0
  -30.3763  -17.0276   21.4277 C   0  0  0  0  0  0  0  0  0  0  0  0
  -22.3029   -8.2155   21.4975 C   0  0  0  0  0  0  0  0  0  0  0  0
  -33.6742  -25.1327   22.8263 C   0  0  0  0  0  0  0  0  0  0  0  0
  -20.8078   -7.0873   22.9166 C   0  0  0  0  0  0  0  0  0  0  0  0
  -19.2977   -7.0538   25.2621 C   0  0  0  0  0  0  0  0  0  0  0  0
  -21.0340   -6.1020   23.8777 C   0  0  0  0  0  0  0  0  0  0  0  0
  -24.6217  -11.6647   20.7074 C   0  0  0  0  0  0  0  0  0  0  0  0
  -25.3240  -13.7341   20.4639 C   0  0  0  0  0  0  0  0  0  0  0  0
  -28.6826  -23.6022   19.8085 C   0  0  0  0  0  0  0  0  0  0  0  0
  -27.9849  -22.4754   19.6253 C   0  0  0  0  0  0  0  0  0  0  0  0
  -29.9279  -23.3323   20.4755 C   0  0  0  0  0  0  0  0  0  0  0  0
  -28.7994  -21.3759   20.2001 C   0  0  0  0  0  0  0  0  0  0  0  0
  -30.8593  -24.2322   20.8098 C   0  0  0  0  0  0  0  0  0  0  0  0
  -22.9592  -13.5499   21.2526 C   0  0  0  0  0  0  0  0  0  0  0  0
  -38.3226  -24.1988   25.4691 C   0  0  0  0  0  0  0  0  0  0  0  0
  -36.8732  -21.6850   26.9189 C   0  0  0  0  0  0  0  0  0  0  0  0
  -34.0698  -19.7732   27.2837 C   0  0  0  0  0  0  0  0  0  0  0  0
  -30.8087  -14.6811   20.6194 C   0  0  0  0  0  0  0  0  0  0  0  0
  -42.4432  -27.1053   26.2631 C   0  0  0  0  0  0  0  0  0  0  0  0
  -36.1969  -25.2608   26.3113 C   0  0  0  0  0  0  0  0  0  0  0  0
  -35.6731  -22.6928   24.9417 C   0  0  0  0  0  0  0  0  0  0  0  0
  -42.0197  -25.6867   26.6351 C   0  0  0  0  0  0  0  0  0  0  0  0
  -29.6454  -12.2693   18.2727 C   0  0  0  0  0  0  0  0  0  0  0  0
  -41.4872  -24.9501   25.4101 C   0  0  0  0  0  0  0  0  0  0  0  0
  -28.2016  -12.0074   18.7075 C   0  0  0  0  0  0  0  0  0  0  0  0
  -30.5671  -12.4909   19.4707 C   0  0  0  0  0  0  0  0  0  0  0  0
  -28.6766  -13.2610   20.8499 C   0  0  0  0  0  0  0  0  0  0  0  0
  -40.2454  -25.6486   24.8429 C   0  0  1  0  0  0  0  0  0  0  0  0
  -37.1615  -24.0835   26.4157 C   0  0  1  0  0  0  0  0  0  0  0  0
  -27.6983  -13.0962   19.6754 C   0  0  2  0  0  0  0  0  0  0  0  0
  -29.1270  -20.1200   23.2220 C   0  0  0  0  0  0  0  0  0  0  0  0
  -28.6913  -17.2613   23.2680 C   0  0  0  0  0  0  0  0  0  0  0  0
  -33.2009  -17.7655   28.5131 C   0  0  0  0  0  0  0  0  0  0  0  0
  -38.4365  -19.8600   25.0386 C   0  0  0  0  0  0  0  0  0  0  0  0
  -36.8616  -18.0086   25.6387 C   0  0  0  0  0  0  0  0  0  0  0  0
  -38.2913  -19.0474   27.3993 C   0  0  0  0  0  0  0  0  0  0  0  0
  -31.9668  -21.3627   28.6290 C   0  0  0  0  0  0  0  0  0  0  0  0
  -31.0381  -21.2663   21.3425 C   0  0  0  0  0  0  0  0  0  0  0  0
  -32.1365  -23.8913   21.5033 C   0  0  0  0  0  0  0  0  0  1  0  0
  -36.3380  -20.3498   26.4608 C   0  0  1  0  0  0  0  0  0  0  0  0
  -33.3410  -19.2798   28.5206 C   0  0  2  0  0  0  0  0  0  0  0  0
  -37.4720  -19.3409   26.1236 C   0  0  0  0  0  0  0  0  0  0  0  0
  -25.8837  -11.5425   20.2874 N   0  0  0  0  0  0  0  0  0  0  0  0
  -26.2837  -12.8179   20.1481 N   0  0  0  0  0  0  0  0  0  0  0  0
  -29.9569  -21.9741   20.6930 N   0  0  0  0  0  0  0  0  0  0  0  0
  -36.5155  -22.7977   26.1445 N   0  0  0  0  0  0  0  0  0  0  0  0
  -30.0289  -13.5387   20.3409 N   0  0  0  0  0  0  0  0  0  0  0  0
  -25.5585  -15.0609   20.3798 N   0  0  0  0  0  0  0  0  0  0  0  0
  -21.9315  -12.6620   21.5992 N   0  0  0  0  0  0  0  0  0  0  0  0
  -30.1801  -15.6243   21.4317 N   0  0  0  0  0  0  0  0  0  0  0  0
  -39.0813  -25.3402   25.6455 N   0  0  0  0  0  0  0  0  0  0  0  0
  -35.4253  -19.8960   27.5046 N   0  0  0  0  0  0  0  0  0  0  0  0
  -31.9778  -19.8776   28.5916 N   0  3  0  0  0  0  0  0  0  0  0  0
  -28.4614  -20.2047   20.2060 O   0  0  0  0  0  0  0  0  0  0  0  0
  -22.7455  -14.7850   21.3006 O   0  0  0  0  0  0  0  0  0  0  0  0
  -38.5168  -23.3167   24.6408 O   0  0  0  0  0  0  0  0  0  0  0  0
  -37.5767  -21.7396   27.9308 O   0  0  0  0  0  0  0  0  0  0  0  0
  -33.4947  -20.0212   26.2262 O   0  0  0  0  0  0  0  0  0  0  0  0
  -31.9397  -14.8254   20.1482 O   0  0  0  0  0  0  0  0  0  0  0  0
  -21.5571   -7.1058   21.7522 O   0  0  0  0  0  0  0  0  0  0  0  0
  -32.8721  -25.0933   21.7277 O   0  0  0  0  0  0  0  0  0  1  0  0
  -18.5736   -7.0387   26.3889 F   0  0  0  0  0  0  0  0  0  0  0  0
  -21.9760   -5.1696   23.6805 F   0  0  0  0  0  0  0  0  0  0  0  0
  1  2  1  0  0  0  0
  1  5  2  0  0  0  0
  2  6  2  0  0  0  0
  3 10  2  0  0  0  0
  3 17  1  0  0  0  0
  4 11  1  0  0  0  0
  4 17  2  0  0  0  0
  5 19  1  0  0  0  0
  6 21  1  0  0  0  0
  7 12  2  0  0  0  0
  7 20  1  0  0  0  0
  8  9  2  0  0  0  0
  8 23  1  0  0  0  0
  9 26  1  0  0  0  0
 10 27  1  0  0  0  0
 11 27  2  0  0  0  0
 12 28  1  0  0  0  0
 13 14  2  0  0  0  0
 13 29  1  0  0  0  0
 14 30  1  0  0  0  0
 15 22  1  0  0  0  0
 15 28  2  0  0  0  0
 16 30  2  0  0  0  0
 16 31  1  0  0  0  0
 17 32  1  0  0  0  0
 18 32  1  0  0  0  0
 18 33  2  0  0  0  0
 18 39  1  0  0  0  0
 19 21  2  0  0  0  0
 19 44  1  0  0  0  0
 20 22  2  0  0  0  0
 20 45  1  0  0  0  0
 21 53  1  0  0  0  0
 22 46  1  0  0  0  0
 23 24  2  0  0  0  0
 23 63  1  0  0  0  0
 24 25  1  0  0  0  0
 24 56  1  0  0  0  0
 25 26  2  0  0  0  0
 25 57  1  0  0  0  0
 26 75  1  0  0  0  0
 27 85  1  0  0  0  0
 28 86  1  0  0  0  0
 29 31  2  0  0  0  0
 29 85  1  0  0  0  0
 30 87  1  0  0  0  0
 31 88  1  0  0  0  0
 32 68  2  0  0  0  0
 33 69  1  0  0  0  0
 33 73  1  0  0  0  0
 34 35  2  0  0  0  0
 34 36  1  0  0  0  0
 35 37  1  0  0  0  0
 36 38  2  0  0  0  0
 36 70  1  0  0  0  0
 37 70  1  0  0  0  0
 37 79  2  0  0  0  0
 38 64  1  0  0  0  0
 39 74  1  0  0  0  0
 39 80  2  0  0  0  0
 40 54  1  0  0  0  0
 40 76  1  0  0  0  0
 40 81  2  0  0  0  0
 41 65  1  0  0  0  0
 41 71  1  0  0  0  0
 41 82  2  0  0  0  0
 42 66  1  0  0  0  0
 42 77  1  0  0  0  0
 42 83  2  0  0  0  0
 43 72  1  0  0  0  0
 43 75  1  0  0  0  0
 43 84  2  0  0  0  0
 44 47  1  0  0  0  0
 45 54  1  0  0  0  0
 46 71  1  0  0  0  0
 47 49  1  0  0  0  0
 48 50  1  0  0  0  0
 48 51  1  0  0  0  0
 49 53  1  0  0  0  0
 50 55  1  0  0  0  0
 51 72  1  0  0  0  0
 52 55  1  0  0  0  0
 52 72  1  0  0  0  0
 53 76  1  0  0  0  0
 54 71  1  0  0  0  0
 55 69  1  0  0  0  0
 58 66  1  0  0  0  0
 59 67  1  0  0  0  0
 60 67  1  0  0  0  0
 61 67  1  0  0  0  0
 62 78  1  0  0  0  0
 63 70  1  0  0  0  0
 64 86  1  0  0  0  0
 65 67  1  0  0  0  0
 65 77  1  0  0  0  0
 66 78  1  0  0  0  0
 68 69  1  0  0  0  0
M  CHG  1  78   1
M  ISO  4  43 100  64 101  75 100  86 101
M  END
> <Batch ID>
0049

> <Smiles>
CNC(C)C(=O)NC(C(=O)N1Cc2cc([101O:1][101CH2:1]C=C3C=CC(=O)N3Cc3ccc([100NH:0][100C:0](=O)N4CCCC(n5nc(-c6ccc(Oc7ccc(F)cc7F)cc6)c(C(N)=O)c5N)C4)c(C)c3C)ccc2CC1C(=O)NC1CCCc2ccccc21)C(C)(C)C

> <Shape>
0.213

> <Color>
0.200

> <Negative vol penalty>
0.000

$$$$

  -OEChem-04042322323D

 88 97  0     1  0  0  0  0  0999 V2000
  -28.3727  -11.4749   15.6867 C   0  0  0  0  0  0  0  0  0  0  0  0
  -27.2023  -12.1850   15.9343 C   0  0  0  0  0  0  0  0  0  0  0  0
  -25.6684  -30.7551   23.8264 C   0  0  0  0  0  0  0  0  0  0  0  0
  -23.8448  -32.2097   23.1972 C   0  0  0  0  0  0  0  0  0  0  0  0
  -29.3489  -11.3751   16.6771 C   0  0  0  0  0  0  0  0  0  0  0  0
  -27.0069  -12.7948   17.1730 C   0  0  0  0  0  0  0  0  0  0  0  0
  -23.9315  -18.5427   20.1428 C   0  0  0  0  0  0  0  0  0  0  0  0
  -21.0061  -23.0391   28.0623 C   0  0  0  0  0  0  0  0  0  0  0  0
  -26.3042  -31.8248   24.4565 C   0  0  0  0  0  0  0  0  0  0  0  0
  -24.4807  -33.2794   23.8274 C   0  0  0  0  0  0  0  0  0  0  0  0
  -23.0438  -18.8832   21.1624 C   0  0  0  0  0  0  0  0  0  0  0  0
  -25.7935  -36.4739   24.9593 C   0  0  0  0  0  0  0  0  0  0  0  0
  -19.9961  -23.3067   28.9863 C   0  0  0  0  0  0  0  0  0  0  0  0
  -25.8401  -37.6915   24.2804 C   0  0  0  0  0  0  0  0  0  0  0  0
  -24.8337  -18.7108   22.7704 C   0  0  0  0  0  0  0  0  0  0  0  0
  -19.0283  -24.9131   27.4632 C   0  0  0  0  0  0  0  0  0  0  0  0
  -27.0562  -36.6396   22.4772 C   0  0  0  0  0  0  0  0  0  0  0  0
  -24.4386  -30.9476   23.1967 C   0  0  0  0  0  0  0  0  0  0  0  0
  -24.2757  -29.0699   21.4775 C   0  0  0  0  0  0  0  0  0  0  0  0
  -29.1697  -11.9921   17.9252 C   0  0  0  0  0  0  0  0  0  0  0  0
  -25.2770  -18.2726   20.4313 C   0  0  0  0  0  0  0  0  0  0  0  0
  -27.9811  -12.7021   18.1815 C   0  0  0  0  0  0  0  0  0  0  0  0
  -25.7371  -18.3696   21.7522 C   0  0  0  0  0  0  0  0  0  0  0  0
  -21.0272  -23.7085   26.8387 C   0  0  0  0  0  0  0  0  0  0  0  0
  -20.0383  -24.6455   26.5392 C   0  0  0  0  0  0  0  0  0  0  0  0
  -25.7104  -33.0869   24.4570 C   0  0  0  0  0  0  0  0  0  0  0  0
  -23.4941  -18.9645   22.4768 C   0  0  0  0  0  0  0  0  0  0  0  0
  -26.3783  -35.3391   24.3971 C   0  0  0  0  0  0  0  0  0  0  0  0
  -19.0072  -24.2437   28.6868 C   0  0  0  0  0  0  0  0  0  0  0  0
  -26.4715  -37.7744   23.0394 C   0  0  0  0  0  0  0  0  0  0  0  0
  -27.0096  -35.4220   23.1561 C   0  0  0  0  0  0  0  0  0  0  0  0
  -23.7816  -29.8431   22.5451 C   0  0  0  0  0  0  0  0  0  0  0  0
  -23.2818  -28.1557   21.2268 C   0  0  0  0  0  0  0  0  0  0  0  0
  -22.7585  -22.3185   23.7913 C   0  0  0  0  0  0  0  0  0  0  0  0
  -22.7607  -23.0052   22.6388 C   0  0  0  0  0  0  0  0  0  0  0  0
  -25.5218  -29.1691   20.7753 C   0  0  0  0  0  0  0  0  0  0  0  0
  -27.1720  -15.7392   20.1243 C   0  0  0  0  0  0  0  0  0  0  0  0
  -29.4636  -17.8239   21.0859 C   0  0  0  0  0  0  0  0  0  0  0  0
  -30.2511  -20.7032   22.7401 C   0  0  0  0  0  0  0  0  0  0  0  0
  -18.9384  -25.8196   24.6006 C   0  0  0  0  0  0  0  0  0  0  0  0
  -30.2323  -11.8168   18.9810 C   0  0  0  0  0  0  0  0  0  0  0  0
  -26.2278  -17.9328   19.3164 C   0  0  0  0  0  0  0  0  0  0  0  0
  -27.1763  -18.1090   22.1118 C   0  0  0  0  0  0  0  0  0  0  0  0
  -23.8109  -21.2980   24.1407 C   0  0  0  0  0  0  0  0  0  0  0  0
  -30.1124  -12.8073   20.1363 C   0  0  0  0  0  0  0  0  0  0  0  0
  -18.5355  -27.6025   21.5451 C   0  0  0  0  0  0  0  0  0  0  0  0
  -28.6677  -12.8929   20.6183 C   0  0  0  0  0  0  0  0  0  0  0  0
  -19.8822  -28.3042   21.3545 C   0  0  0  0  0  0  0  0  0  0  0  0
  -22.0524  -20.2307   25.6132 C   0  0  0  0  0  0  0  0  0  0  0  0
  -18.1253  -27.5523   23.0158 C   0  0  0  0  0  0  0  0  0  0  0  0
  -20.4787  -27.6872   23.7316 C   0  0  0  0  0  0  0  0  0  0  0  0
  -21.0280  -21.2470   25.1105 C   0  0  0  0  0  0  0  0  0  0  0  0
  -27.7434  -13.3983   19.5039 C   0  0  1  0  0  0  0  0  0  0  0  0
  -27.4631  -17.1759   19.7946 C   0  0  1  0  0  0  0  0  0  0  0  0
  -20.9649  -27.7048   22.2732 C   0  0  2  0  0  0  0  0  0  0  0  0
  -23.1701  -19.9878   24.5992 C   0  0  1  0  0  0  0  0  0  1  0  0
  -20.5607  -23.3856   21.5305 C   0  0  0  0  0  0  0  0  0  0  0  0
  -32.2116  -22.1285   23.3899 C   0  0  0  0  0  0  0  0  0  0  0  0
  -30.1924  -15.8215   23.2698 C   0  0  0  0  0  0  0  0  0  0  0  0
  -31.4489  -17.6499   24.4300 C   0  0  0  0  0  0  0  0  0  0  0  0
  -32.1499  -16.9069   22.1542 C   0  0  0  0  0  0  0  0  0  0  0  0
  -29.2172  -23.0222   21.2194 C   0  0  0  0  0  0  0  0  0  0  0  0
  -22.1270  -23.4030   25.8649 C   0  0  0  0  0  0  0  0  0  0  0  0
  -21.7257  -24.0226   22.2719 C   0  0  0  0  0  0  0  0  0  0  0  0
  -30.0266  -18.2535   22.4192 C   0  0  1  0  0  0  0  0  0  0  0  0
  -31.1280  -21.8801   22.3522 C   0  0  2  0  0  0  0  0  0  0  0  0
  -30.9269  -17.1610   23.0621 C   0  0  0  0  0  0  0  0  0  0  0  0
  -22.5680  -29.4542   22.9450 N   0  0  0  0  0  0  0  0  0  0  0  0
  -22.2912  -28.4266   22.1243 N   0  0  0  0  0  0  0  0  0  0  0  0
  -28.0659  -17.7741   20.9875 N   0  0  0  0  0  0  0  0  0  0  0  0
  -19.1979  -26.9690   23.8245 N   0  0  0  0  0  0  0  0  0  0  0  0
  -23.1672  -27.1547   20.3283 N   0  0  0  0  0  0  0  0  0  0  0  0
  -25.5878  -29.9953   19.6450 N   0  0  0  0  0  0  0  0  0  0  0  0
  -20.0425  -25.3360   25.3019 N   0  0  0  0  0  0  0  0  0  0  0  0
  -27.8719  -14.8318   19.3520 N   0  0  0  0  0  0  0  0  0  0  0  0
  -30.7037  -19.5246   22.1859 N   0  0  0  0  0  0  0  0  0  0  0  0
  -21.6725  -22.5535   24.7103 N   0  3  1  0  0  0  0  0  0  0  0  0
  -30.3074  -23.1175   22.2241 N   0  3  0  0  0  0  0  0  0  0  0  0
  -26.5419  -28.5310   21.1297 O   0  0  0  0  0  0  0  0  0  0  0  0
  -26.3728  -15.4735   21.0144 O   0  0  0  0  0  0  0  0  0  0  0  0
  -30.2355  -17.5497   20.1636 O   0  0  0  0  0  0  0  0  0  0  0  0
  -29.2655  -20.8175   23.4654 O   0  0  0  0  0  0  0  0  0  0  0  0
  -17.8260  -25.2865   24.6189 O   0  0  0  0  0  0  0  0  0  0  0  0
  -26.3305  -34.1309   25.0720 O   0  0  0  0  0  0  0  0  0  0  0  0
  -22.6295  -19.2960   23.4741 O   0  0  0  0  0  0  0  0  0  1  0  0
  -18.0379  -24.5001   29.5749 F   0  0  0  0  0  0  0  0  0  0  0  0
  -26.5148  -38.9434   22.3869 F   0  0  0  0  0  0  0  0  0  0  0  0
  -27.5721  -34.3349   22.6104 F   0  0  0  0  0  0  0  0  0  0  0  0
  1  2  1  0  0  0  0
  1  5  2  0  0  0  0
  2  6  2  0  0  0  0
  3  9  2  0  0  0  0
  3 18  1  0  0  0  0
  4 10  1  0  0  0  0
  4 18  2  0  0  0  0
  5 20  1  0  0  0  0
  6 22  1  0  0  0  0
  7 11  2  0  0  0  0
  7 21  1  0  0  0  0
  8 13  2  0  0  0  0
  8 24  1  0  0  0  0
  9 26  1  0  0  0  0
 10 26  2  0  0  0  0
 11 27  1  0  0  0  0
 12 14  2  0  0  0  0
 12 28  1  0  0  0  0
 13 29  1  0  0  0  0
 14 30  1  0  0  0  0
 15 23  1  0  0  0  0
 15 27  2  0  0  0  0
 16 25  1  0  0  0  0
 16 29  2  0  0  0  0
 17 30  2  0  0  0  0
 17 31  1  0  0  0  0
 18 32  1  0  0  0  0
 19 32  1  0  0  0  0
 19 33  2  0  0  0  0
 19 36  1  0  0  0  0
 20 22  2  0  0  0  0
 20 41  1  0  0  0  0
 21 23  2  0  0  0  0
 21 42  1  0  0  0  0
 22 53  1  0  0  0  0
 23 43  1  0  0  0  0
 24 25  2  0  0  0  0
 24 63  1  0  0  0  0
 25 74  1  0  0  0  0
 26 84  1  0  0  0  0
 27 85  1  0  0  0  0
 28 31  2  0  0  0  0
 28 84  1  0  0  0  0
 29 86  1  0  0  0  0
 30 87  1  0  0  0  0
 31 88  1  0  0  0  0
 32 68  2  0  0  0  0
 33 69  1  0  0  0  0
 33 72  1  0  0  0  0
 34 35  2  0  0  0  0
 34 44  1  0  0  0  0
 34 77  1  0  0  0  0
 35 64  1  0  0  0  0
 36 73  1  0  0  0  0
 36 79  2  0  0  0  0
 37 54  1  0  0  0  0
 37 75  1  0  0  0  0
 37 80  2  0  0  0  0
 38 65  1  0  0  0  0
 38 70  1  0  0  0  0
 38 81  2  0  0  0  0
 39 66  1  0  0  0  0
 39 76  1  0  0  0  0
 39 82  2  0  0  0  0
 40 71  1  0  0  0  0
 40 74  1  0  0  0  0
 40 83  2  0  0  0  0
 41 45  1  0  0  0  0
 42 54  1  0  0  0  0
 43 70  1  0  0  0  0
 44 56  1  0  0  0  0
 45 47  1  0  0  0  0
 46 48  1  0  0  0  0
 46 50  1  0  0  0  0
 47 53  1  0  0  0  0
 48 55  1  0  0  0  0
 49 52  1  0  0  0  0
 49 56  1  0  0  0  0
 50 71  1  0  0  0  0
 51 55  1  0  0  0  0
 51 71  1  0  0  0  0
 52 77  1  0  0  0  0
 53 75  1  0  0  0  0
 54 70  1  0  0  0  0
 55 69  1  0  0  0  0
 56 85  1  0  0  0  0
 57 64  1  0  0  0  0
 58 66  1  0  0  0  0
 59 67  1  0  0  0  0
 60 67  1  0  0  0  0
 61 67  1  0  0  0  0
 62 78  1  0  0  0  0
 63 77  1  0  0  0  0
 65 67  1  0  0  0  0
 65 76  1  0  0  0  0
 66 78  1  0  0  0  0
 68 69  1  0  0  0  0
M  CHG  2  77   1  78   1
M  ISO  4  40 100  56 101  74 100  85 101
M  END
> <Batch ID>
0049

> <Smiles>
CCC=C1C[101CH:1]([101O:1]c2ccc3c(c2)CN(C(=O)C(NC(=O)C(C)NC)C(C)(C)C)C(C(=O)NC2CCCc4ccccc42)C3)CCN1Cc1ccc(F)cc1[100NH:0][100C:0](=O)N1CCCC(n2nc(-c3ccc(Oc4ccc(F)cc4F)cc3)c(C(N)=O)c2N)C1

> <Shape>
0.245

> <Color>
0.060

> <Negative vol penalty>
0.000

$$$$

  -OEChem-04042322323D

 86 94  0     1  0  0  0  0  0999 V2000
  -23.7252  -10.4860   20.8579 C   0  0  0  0  0  0  0  0  0  0  0  0
  -23.2256  -11.5628   21.5834 C   0  0  0  0  0  0  0  0  0  0  0  0
  -30.7490  -24.7077   19.5241 C   0  0  0  0  0  0  0  0  0  0  0  0
  -31.1009  -25.8966   21.5977 C   0  0  0  0  0  0  0  0  0  0  0  0
  -24.9666  -10.5852   20.2309 C   0  0  0  0  0  0  0  0  0  0  0  0
  -23.9676  -12.7392   21.6832 C   0  0  0  0  0  0  0  0  0  0  0  0
  -21.7883  -18.4575   21.9204 C   0  0  0  0  0  0  0  0  0  0  0  0
  -19.8216  -29.0060   22.2053 C   0  0  0  0  0  0  0  0  0  0  0  0
  -32.1277  -24.5553   19.3775 C   0  0  0  0  0  0  0  0  0  0  0  0
  -32.4796  -25.7442   21.4511 C   0  0  0  0  0  0  0  0  0  0  0  0
  -21.5548  -19.3290   22.9834 C   0  0  0  0  0  0  0  0  0  0  0  0
  -35.5391  -23.5384   18.6405 C   0  0  0  0  0  0  0  0  0  0  0  0
  -36.0161  -22.2841   18.2600 C   0  0  0  0  0  0  0  0  0  0  0  0
  -18.7588  -28.2269   21.7483 C   0  0  0  0  0  0  0  0  0  0  0  0
  -23.7036  -20.3576   22.6042 C   0  0  0  0  0  0  0  0  0  0  0  0
  -19.7477  -26.2759   22.7744 C   0  0  0  0  0  0  0  0  0  0  0  0
  -35.0387  -21.3108   20.2436 C   0  0  0  0  0  0  0  0  0  0  0  0
  -30.2356  -25.3784   20.6342 C   0  0  0  0  0  0  0  0  0  0  0  0
  -27.9236  -24.6609   21.4389 C   0  0  0  0  0  0  0  0  0  0  0  0
  -25.7199  -11.7668   20.3150 C   0  0  0  0  0  0  0  0  0  0  0  0
  -22.9879  -18.5225   21.1971 C   0  0  0  0  0  0  0  0  0  0  0  0
  -25.2208  -12.8538   21.0578 C   0  0  0  0  0  0  0  0  0  0  0  0
  -23.9488  -19.4876   21.5309 C   0  0  0  0  0  0  0  0  0  0  0  0
  -20.8476  -28.4201   22.9468 C   0  0  0  0  0  0  0  0  0  0  0  0
  -20.8106  -27.0551   23.2314 C   0  0  0  0  0  0  0  0  0  0  0  0
  -32.9930  -25.0735   20.3410 C   0  0  0  0  0  0  0  0  0  0  0  0
  -22.5137  -20.2773   23.3272 C   0  0  0  0  0  0  0  0  0  0  0  0
  -34.8120  -23.6789   19.8225 C   0  0  0  0  0  0  0  0  0  0  0  0
  -35.7659  -21.1702   19.0615 C   0  0  0  0  0  0  0  0  0  0  0  0
  -34.5618  -22.5651   20.6240 C   0  0  0  0  0  0  0  0  0  0  0  0
  -18.7218  -26.8619   22.0329 C   0  0  0  0  0  0  0  0  0  0  0  0
  -28.8115  -25.5367   20.7859 C   0  0  0  0  0  0  0  0  0  0  0  0
  -26.6935  -25.2574   21.3066 C   0  0  0  0  0  0  0  0  0  0  0  0
  -28.1872  -23.4192   22.1057 C   0  0  0  0  0  0  0  0  0  0  0  0
  -25.4048  -16.5245   20.6773 C   0  0  0  0  0  0  0  0  0  0  0  0
  -26.3906  -18.8610   18.6546 C   0  0  0  0  0  0  0  0  0  0  0  0
  -21.4292  -23.9565   24.3066 C   0  0  0  0  0  0  0  0  0  0  0  0
  -26.3204  -22.1605   17.7854 C   0  0  0  0  0  0  0  0  0  0  0  0
  -23.4361  -29.7854   21.4844 C   0  0  0  0  0  0  0  0  0  0  0  0
  -27.0776  -11.8103   19.6599 C   0  0  0  0  0  0  0  0  0  0  0  0
  -23.2131  -17.5930   20.0362 C   0  0  0  0  0  0  0  0  0  0  0  0
  -25.2444  -19.6119   20.7730 C   0  0  0  0  0  0  0  0  0  0  0  0
  -27.6327  -13.2235   19.5018 C   0  0  0  0  0  0  0  0  0  0  0  0
  -25.2232  -29.1759   18.4659 C   0  0  0  0  0  0  0  0  0  0  0  0
  -27.4658  -14.0106   20.7978 C   0  0  0  0  0  0  0  0  0  0  0  0
  -26.2463  -28.1077   18.8559 C   0  0  0  0  0  0  0  0  0  0  0  0
  -24.9922  -30.1757   19.5969 C   0  0  0  0  0  0  0  0  0  0  0  0
  -25.6526  -28.5036   21.2827 C   0  0  0  0  0  0  0  0  0  0  0  0
  -25.9849  -14.1554   21.1685 C   0  0  1  0  0  0  0  0  0  0  0  0
  -24.6888  -17.4088   19.6959 C   0  0  1  0  0  0  0  0  0  0  0  0
  -25.8774  -27.4400   20.1943 C   0  0  2  0  0  0  0  0  0  0  0  0
  -27.2561  -23.7762   16.1087 C   0  0  0  0  0  0  0  0  0  0  0  0
  -29.0681  -18.8246   20.1173 C   0  0  0  0  0  0  0  0  0  0  0  0
  -29.5922  -21.0366   19.0682 C   0  0  0  0  0  0  0  0  0  0  0  0
  -29.2405  -19.0284   17.6307 C   0  0  0  0  0  0  0  0  0  0  0  0
  -20.9039  -25.5932   26.1276 C   0  0  0  0  0  0  0  0  0  0  0  0
  -23.6260  -22.8515   16.7746 C   0  0  0  0  0  0  0  0  0  0  0  0
  -21.9758  -29.2739   23.4249 C   0  0  0  0  0  0  0  0  0  0  0  0
  -21.9042  -26.4022   24.0263 C   0  0  0  0  0  0  0  0  0  0  0  0
  -20.8821  -22.8795   25.2378 C   0  0  0  0  0  0  0  0  0  0  0  0
  -20.9322  -21.4826   24.6319 C   0  0  0  0  0  0  0  0  0  1  0  0
  -27.2566  -20.0909   18.7828 C   0  0  1  0  0  0  0  0  0  0  0  0
  -26.1023  -22.8455   16.4483 C   0  0  2  0  0  0  0  0  0  0  0  0
  -28.7659  -19.7418   18.9154 C   0  0  0  0  0  0  0  0  0  0  0  0
  -28.1976  -26.6079   20.2764 N   0  0  0  0  0  0  0  0  0  0  0  0
  -26.9108  -26.4091   20.6092 N   0  0  0  0  0  0  0  0  0  0  0  0
  -25.4208  -18.6762   19.6501 N   0  0  0  0  0  0  0  0  0  0  0  0
  -24.6444  -29.4783   20.8374 N   0  0  0  0  0  0  0  0  0  0  0  0
  -25.4580  -24.9037   21.7199 N   0  0  0  0  0  0  0  0  0  0  0  0
  -29.5077  -22.9514   22.1490 N   0  0  0  0  0  0  0  0  0  0  0  0
  -25.3595  -15.1803   20.3606 N   0  0  0  0  0  0  0  0  0  0  0  0
  -26.9373  -20.9362   17.6374 N   0  0  0  0  0  0  0  0  0  0  0  0
  -23.1805  -29.0742   22.6504 N   0  0  0  0  0  0  0  0  0  0  0  0
  -21.4127  -25.2653   24.8015 N   0  0  0  0  0  0  0  0  0  0  0  0
  -24.8453  -23.6456   16.4752 N   0  3  0  0  0  0  0  0  0  0  0  0
  -27.2764  -22.7365   22.6327 O   0  0  0  0  0  0  0  0  0  0  0  0
  -25.9587  -17.0250   21.6491 O   0  0  0  0  0  0  0  0  0  0  0  0
  -26.5634  -18.0964   17.7021 O   0  0  0  0  0  0  0  0  0  0  0  0
  -21.8558  -23.6603   23.1874 O   0  0  0  0  0  0  0  0  0  0  0  0
  -25.9811  -22.6630   18.8544 O   0  0  0  0  0  0  0  0  0  0  0  0
  -22.6412  -30.6269   21.0519 O   0  0  0  0  0  0  0  0  0  0  0  0
  -34.3384  -24.9248   20.1984 O   0  0  0  0  0  0  0  0  0  0  0  0
  -22.2886  -21.1287   24.3647 O   0  0  0  0  0  0  0  0  0  1  0  0
  -36.2227  -19.9655   18.6953 F   0  0  0  0  0  0  0  0  0  0  0  0
  -33.8628  -22.6937   21.7601 F   0  0  0  0  0  0  0  0  0  0  0  0
  -17.4114  -25.9008   21.4674 Cl  0  0  0  0  0  0  0  0  0  0  0  0
  1  2  1  0  0  0  0
  1  5  2  0  0  0  0
  2  6  2  0  0  0  0
  3  9  2  0  0  0  0
  3 18  1  0  0  0  0
  4 10  1  0  0  0  0
  4 18  2  0  0  0  0
  5 20  1  0  0  0  0
  6 22  1  0  0  0  0
  7 11  2  0  0  0  0
  7 21  1  0  0  0  0
  8 14  2  0  0  0  0
  8 24  1  0  0  0  0
  9 26  1  0  0  0  0
 10 26  2  0  0  0  0
 11 27  1  0  0  0  0
 12 13  2  0  0  0  0
 12 28  1  0  0  0  0
 13 29  1  0  0  0  0
 14 31  1  0  0  0  0
 15 23  1  0  0  0  0
 15 27  2  0  0  0  0
 16 25  1  0  0  0  0
 16 31  2  0  0  0  0
 17 29  2  0  0  0  0
 17 30  1  0  0  0  0
 18 32  1  0  0  0  0
 19 32  1  0  0  0  0
 19 33  2  0  0  0  0
 19 34  1  0  0  0  0
 20 22  2  0  0  0  0
 20 40  1  0  0  0  0
 21 23  2  0  0  0  0
 21 41  1  0  0  0  0
 22 49  1  0  0  0  0
 23 42  1  0  0  0  0
 24 25  2  0  0  0  0
 24 58  1  0  0  0  0
 25 59  1  0  0  0  0
 26 82  1  0  0  0  0
 27 83  1  0  0  0  0
 28 30  2  0  0  0  0
 28 82  1  0  0  0  0
 29 84  1  0  0  0  0
 30 85  1  0  0  0  0
 31 86  1  0  0  0  0
 32 65  2  0  0  0  0
 33 66  1  0  0  0  0
 33 69  1  0  0  0  0
 34 70  1  0  0  0  0
 34 76  2  0  0  0  0
 35 50  1  0  0  0  0
 35 71  1  0  0  0  0
 35 77  2  0  0  0  0
 36 62  1  0  0  0  0
 36 67  1  0  0  0  0
 36 78  2  0  0  0  0
 37 60  1  0  0  0  0
 37 74  1  0  0  0  0
 37 79  2  0  0  0  0
 38 63  1  0  0  0  0
 38 72  1  0  0  0  0
 38 80  2  0  0  0  0
 39 68  1  0  0  0  0
 39 73  1  0  0  0  0
 39 81  2  0  0  0  0
 40 43  1  0  0  0  0
 41 50  1  0  0  0  0
 42 67  1  0  0  0  0
 43 45  1  0  0  0  0
 44 46  1  0  0  0  0
 44 47  1  0  0  0  0
 45 49  1  0  0  0  0
 46 51  1  0  0  0  0
 47 68  1  0  0  0  0
 48 51  1  0  0  0  0
 48 68  1  0  0  0  0
 49 71  1  0  0  0  0
 50 67  1  0  0  0  0
 51 66  1  0  0  0  0
 52 63  1  0  0  0  0
 53 64  1  0  0  0  0
 54 64  1  0  0  0  0
 55 64  1  0  0  0  0
 56 74  1  0  0  0  0
 57 75  1  0  0  0  0
 58 73  1  0  0  0  0
 59 74  1  0  0  0  0
 60 61  1  0  0  0  0
 61 83  1  0  0  0  0
 62 64  1  0  0  0  0
 62 72  1  0  0  0  0
 63 75  1  0  0  0  0
 65 66  1  0  0  0  0
M  CHG  1  75   1
M  ISO  4  39 100  61 101  73 100  83 101
M  END
> <Batch ID>
0049

> <Smiles>
CNC(C)C(=O)NC(C(=O)N1Cc2cc([101O:1][101CH2:1]CC(=O)N(C)Cc3cc(Cl)ccc3C[100NH:0][100C:0](=O)N3CCCC(n4nc(-c5ccc(Oc6ccc(F)cc6F)cc5)c(C(N)=O)c4N)C3)ccc2CC1C(=O)NC1CCCc2ccccc21)C(C)(C)C

> <Shape>
0.206

> <Color>
0.070

> <Negative vol penalty>
0.000

$$$$

  -OEChem-04042322323D

 92100  0     1  0  0  0  0  0999 V2000
  -27.5709  -14.4599   14.7698 C   0  0  0  0  0  0  0  0  0  0  0  0
  -27.0459  -15.6377   14.2477 C   0  0  0  0  0  0  0  0  0  0  0  0
  -31.0183  -17.8010   20.4344 C   0  0  0  0  0  0  0  0  0  0  0  0
  -28.8078  -17.3551   19.5674 C   0  0  0  0  0  0  0  0  0  0  0  0
  -26.7871  -13.6541   15.5945 C   0  0  0  0  0  0  0  0  0  0  0  0
  -25.7363  -16.0098   14.5493 C   0  0  0  0  0  0  0  0  0  0  0  0
  -23.0195  -22.5986   17.7484 C   0  0  0  0  0  0  0  0  0  0  0  0
  -31.1046  -16.4857   20.8907 C   0  0  0  0  0  0  0  0  0  0  0  0
  -28.8941  -16.0398   20.0237 C   0  0  0  0  0  0  0  0  0  0  0  0
  -22.4350  -23.6526   18.4509 C   0  0  0  0  0  0  0  0  0  0  0  0
  -30.3499  -13.1537   19.0380 C   0  0  0  0  0  0  0  0  0  0  0  0
  -29.9396  -12.1406   18.1716 C   0  0  0  0  0  0  0  0  0  0  0  0
  -24.2944  -31.0063   21.7451 C   0  0  0  0  0  0  0  0  0  0  0  0
  -20.6439  -22.1950   19.1689 C   0  0  0  0  0  0  0  0  0  0  0  0
  -28.2667  -11.4494   19.7718 C   0  0  0  0  0  0  0  0  0  0  0  0
  -29.8698  -18.2357   19.7728 C   0  0  0  0  0  0  0  0  0  0  0  0
  -23.3298  -30.1799   21.1687 C   0  0  0  0  0  0  0  0  0  0  0  0
  -30.1743  -20.0856   18.0428 C   0  0  0  0  0  0  0  0  0  0  0  0
  -25.4704  -14.0214   15.9142 C   0  0  0  0  0  0  0  0  0  0  0  0
  -22.4259  -21.3334   17.7661 C   0  0  0  0  0  0  0  0  0  0  0  0
  -24.9337  -15.2075   15.3780 C   0  0  0  0  0  0  0  0  0  0  0  0
  -21.2315  -21.1323   18.4773 C   0  0  0  0  0  0  0  0  0  0  0  0
  -23.7176  -29.1358   20.3290 C   0  0  0  0  0  0  0  0  0  0  0  0
  -25.0700  -28.9181   20.0656 C   0  0  0  0  0  0  0  0  0  0  0  0
  -26.0346  -29.7446   20.6419 C   0  0  0  0  0  0  0  0  0  0  0  0
  -30.0426  -15.6051   20.6853 C   0  0  0  0  0  0  0  0  0  0  0  0
  -21.2500  -23.4513   19.1592 C   0  0  0  0  0  0  0  0  0  0  0  0
  -29.7186  -13.3147   20.2715 C   0  0  0  0  0  0  0  0  0  0  0  0
  -28.8980  -11.2884   18.5384 C   0  0  0  0  0  0  0  0  0  0  0  0
  -25.6468  -30.7887   21.4817 C   0  0  0  0  0  0  0  0  0  0  0  0
  -28.6770  -12.4626   20.6383 C   0  0  0  0  0  0  0  0  0  0  0  0
  -29.7798  -19.5944   19.3017 C   0  0  0  0  0  0  0  0  0  0  0  0
  -29.8839  -21.4271   18.0912 C   0  0  0  0  0  0  0  0  0  0  0  0
  -21.9043  -30.4301   21.4619 C   0  0  0  0  0  0  0  0  0  0  0  0
  -30.7517  -19.3912   16.9291 C   0  0  0  0  0  0  0  0  0  0  0  0
  -22.5760  -17.7584   16.6377 C   0  0  0  0  0  0  0  0  0  0  0  0
  -21.6476  -17.7318   19.5614 C   0  0  0  0  0  0  0  0  0  0  0  0
  -19.4512  -26.5964   21.4867 C   0  0  0  0  0  0  0  0  0  0  0  0
  -21.0574  -18.1116   22.8997 C   0  0  0  0  0  0  0  0  0  0  0  0
  -26.4346  -25.5075   19.2744 C   0  0  0  0  0  0  0  0  0  0  0  0
  -24.6459  -13.0942   16.7716 C   0  0  0  0  0  0  0  0  0  0  0  0
  -22.9873  -20.1843   16.9735 C   0  0  0  0  0  0  0  0  0  0  0  0
  -20.6099  -19.7629   18.4397 C   0  0  0  0  0  0  0  0  0  0  0  0
  -23.3924  -13.7492   17.3459 C   0  0  0  0  0  0  0  0  0  0  0  0
  -28.5488  -24.3707   21.9828 C   0  0  0  0  0  0  0  0  0  0  0  0
  -22.6530  -14.5280   16.2626 C   0  0  0  0  0  0  0  0  0  0  0  0
  -29.0918  -23.0583   21.4145 C   0  0  0  0  0  0  0  0  0  0  0  0
  -27.0934  -24.5876   21.5793 C   0  0  0  0  0  0  0  0  0  0  0  0
  -27.3906  -23.2364   19.5398 C   0  0  0  0  0  0  0  0  0  0  0  0
  -23.5257  -15.6576   15.7022 C   0  0  1  0  0  0  0  0  0  0  0  0
  -22.8030  -18.8239   17.6696 C   0  0  1  0  0  0  0  0  0  0  0  0
  -28.8651  -22.9699   19.8936 C   0  0  2  0  0  0  0  0  0  0  0  0
  -22.6814  -28.2508   19.7107 C   0  0  0  0  0  0  0  0  0  0  0  0
  -27.4885  -29.5314   20.3731 C   0  0  0  0  0  0  0  0  0  0  0  0
  -20.5636  -16.7908   24.9756 C   0  0  0  0  0  0  0  0  0  0  0  0
  -17.6061  -29.0853   22.5552 C   0  0  0  0  0  0  0  0  0  0  0  0
  -18.7724  -17.3378   18.6224 C   0  0  0  0  0  0  0  0  0  0  0  0
  -18.1278  -16.9127   21.0040 C   0  0  0  0  0  0  0  0  0  0  0  0
  -19.7417  -15.3929   19.8603 C   0  0  0  0  0  0  0  0  0  0  0  0
  -23.5237  -19.0623   24.2310 C   0  0  0  0  0  0  0  0  0  0  0  0
  -25.4883  -27.7987   19.1653 C   0  0  0  0  0  0  0  0  0  0  0  0
  -20.0316  -25.2941   22.0153 C   0  0  0  0  0  0  0  0  0  0  0  0
  -19.9526  -29.9829   22.9066 C   0  0  0  0  0  0  0  0  0  0  0  0
  -19.9375  -24.1525   21.0148 C   0  0  0  0  0  0  0  0  0  1  0  0
  -20.4827  -17.7188   20.5186 C   0  0  1  0  0  0  0  0  0  0  0  0
  -21.6485  -17.4165   24.1129 C   0  0  2  0  0  0  0  0  0  0  0  0
  -19.0802  -28.9598   22.1842 C   0  0  1  0  0  0  0  0  0  0  0  0
  -19.2941  -16.8648   19.9939 C   0  0  0  0  0  0  0  0  0  0  0  0
  -29.2772  -20.5465   20.0923 N   0  0  0  0  0  0  0  0  0  0  0  0
  -29.3540  -21.6494   19.3281 N   0  0  0  0  0  0  0  0  0  0  0  0
  -21.6519  -18.7342   18.5839 N   0  0  0  0  0  0  0  0  0  0  0  0
  -26.9491  -24.5096   20.1188 N   0  0  0  0  0  0  0  0  0  0  0  0
  -30.0326  -22.4265   17.1960 N   0  0  0  0  0  0  0  0  0  0  0  0
  -21.2340  -31.2575   20.6599 N   0  0  0  0  0  0  0  0  0  0  0  0
  -30.9837  -18.0141   17.0479 N   0  0  0  0  0  0  0  0  0  0  0  0
  -23.5502  -16.7787   16.6170 N   0  0  0  0  0  0  0  0  0  0  0  0
  -21.0148  -17.2768   21.8031 N   0  0  0  0  0  0  0  0  0  0  0  0
  -19.5530  -27.6152   22.4231 N   0  0  0  0  0  0  0  0  0  0  0  0
  -26.0325  -26.6800   19.9024 N   0  0  0  0  0  0  0  0  0  0  0  0
  -21.3555  -29.8175   22.5175 N   0  3  0  0  0  0  0  0  0  0  0  0
  -22.4099  -18.3888   24.9472 N   0  3  0  0  0  0  0  0  0  0  0  0
  -31.0680  -19.9777   15.8664 O   0  0  0  0  0  0  0  0  0  0  0  0
  -21.5890  -17.8188   15.9139 O   0  0  0  0  0  0  0  0  0  0  0  0
  -22.5284  -16.8742   19.6715 O   0  0  0  0  0  0  0  0  0  0  0  0
  -18.9589  -26.7092   20.3674 O   0  0  0  0  0  0  0  0  0  0  0  0
  -20.6685  -19.2773   22.9236 O   0  0  0  0  0  0  0  0  0  0  0  0
  -26.3451  -25.3662   18.0500 O   0  0  0  0  0  0  0  0  0  0  0  0
  -30.1266  -14.3216   21.1302 O   0  0  0  0  0  0  0  0  0  0  0  0
  -20.6872  -24.4836   19.8465 O   0  0  0  0  0  0  0  0  0  1  0  0
  -28.5032  -10.3165   17.7056 F   0  0  0  0  0  0  0  0  0  0  0  0
  -26.5657  -31.5889   22.0403 F   0  0  0  0  0  0  0  0  0  0  0  0
  -28.0660  -12.6131   21.8214 F   0  0  0  0  0  0  0  0  0  0  0  0
  1  2  1  0  0  0  0
  1  5  2  0  0  0  0
  2  6  2  0  0  0  0
  3  8  2  0  0  0  0
  3 16  1  0  0  0  0
  4  9  1  0  0  0  0
  4 16  2  0  0  0  0
  5 19  1  0  0  0  0
  6 21  1  0  0  0  0
  7 10  2  0  0  0  0
  7 20  1  0  0  0  0
  8 26  1  0  0  0  0
  9 26  2  0  0  0  0
 10 27  1  0  0  0  0
 11 12  2  0  0  0  0
 11 28  1  0  0  0  0
 12 29  1  0  0  0  0
 13 17  1  0  0  0  0
 13 30  2  0  0  0  0
 14 22  1  0  0  0  0
 14 27  2  0  0  0  0
 15 29  2  0  0  0  0
 15 31  1  0  0  0  0
 16 32  1  0  0  0  0
 17 23  2  0  0  0  0
 17 34  1  0  0  0  0
 18 32  1  0  0  0  0
 18 33  2  0  0  0  0
 18 35  1  0  0  0  0
 19 21  2  0  0  0  0
 19 41  1  0  0  0  0
 20 22  2  0  0  0  0
 20 42  1  0  0  0  0
 21 50  1  0  0  0  0
 22 43  1  0  0  0  0
 23 24  1  0  0  0  0
 23 53  1  0  0  0  0
 24 25  2  0  0  0  0
 24 61  1  0  0  0  0
 25 30  1  0  0  0  0
 25 54  1  0  0  0  0
 26 88  1  0  0  0  0
 27 89  1  0  0  0  0
 28 31  2  0  0  0  0
 28 88  1  0  0  0  0
 29 90  1  0  0  0  0
 30 91  1  0  0  0  0
 31 92  1  0  0  0  0
 32 69  2  0  0  0  0
 33 70  1  0  0  0  0
 33 73  1  0  0  0  0
 34 74  1  0  0  0  0
 34 80  2  0  0  0  0
 35 75  1  0  0  0  0
 35 82  2  0  0  0  0
 36 51  1  0  0  0  0
 36 76  1  0  0  0  0
 36 83  2  0  0  0  0
 37 65  1  0  0  0  0
 37 71  1  0  0  0  0
 37 84  2  0  0  0  0
 38 62  1  0  0  0  0
 38 78  1  0  0  0  0
 38 85  2  0  0  0  0
 39 66  1  0  0  0  0
 39 77  1  0  0  0  0
 39 86  2  0  0  0  0
 40 72  1  0  0  0  0
 40 79  1  0  0  0  0
 40 87  2  0  0  0  0
 41 44  1  0  0  0  0
 42 51  1  0  0  0  0
 43 71  1  0  0  0  0
 44 46  1  0  0  0  0
 45 47  1  0  0  0  0
 45 48  1  0  0  0  0
 46 50  1  0  0  0  0
 47 52  1  0  0  0  0
 48 72  1  0  0  0  0
 49 52  1  0  0  0  0
 49 72  1  0  0  0  0
 50 76  1  0  0  0  0
 51 71  1  0  0  0  0
 52 70  1  0  0  0  0
 55 66  1  0  0  0  0
 56 67  1  0  0  0  0
 57 68  1  0  0  0  0
 58 68  1  0  0  0  0
 59 68  1  0  0  0  0
 60 81  1  0  0  0  0
 61 79  1  0  0  0  0
 62 64  1  0  0  0  0
 63 67  1  0  0  0  0
 63 80  1  0  0  0  0
 64 89  1  0  0  0  0
 65 68  1  0  0  0  0
 65 77  1  0  0  0  0
 66 81  1  0  0  0  0
 67 78  1  0  0  0  0
 69 70  1  0  0  0  0
M  CHG  2  80   1  81   1
M  ISO  4  40 100  64 101  79 100  89 101
M  END
> <Batch ID>
0049

> <Smiles>
CNC(C)C(=O)NC(C(=O)N1Cc2cc([101O:1][101CH2:1]CC(=O)NC(C)CNC(=N)c3cc(F)c(C)c(C[100NH:0][100C:0](=O)N4CCCC(n5nc(-c6ccc(Oc7ccc(F)cc7F)cc6)c(C(N)=O)c5N)C4)c3C)ccc2CC1C(=O)NC1CCCc2ccccc21)C(C)(C)C

> <Shape>
0.225

> <Color>
0.063

> <Negative vol penalty>
0.000

$$$$

  -OEChem-04042322323D

 84 92  0     1  0  0  0  0  0999 V2000
  -22.5175  -10.6122   19.3467 C   0  0  0  0  0  0  0  0  0  0  0  0
  -21.9177  -11.6698   20.0227 C   0  0  0  0  0  0  0  0  0  0  0  0
  -29.6729  -28.4550   21.3049 C   0  0  0  0  0  0  0  0  0  0  0  0
  -28.2904  -26.5559   21.8698 C   0  0  0  0  0  0  0  0  0  0  0  0
  -23.9075  -10.5122   19.3042 C   0  0  0  0  0  0  0  0  0  0  0  0
  -22.7077  -12.6276   20.6577 C   0  0  0  0  0  0  0  0  0  0  0  0
  -21.5099  -18.6078   21.2125 C   0  0  0  0  0  0  0  0  0  0  0  0
  -30.7230  -27.9105   22.0441 C   0  0  0  0  0  0  0  0  0  0  0  0
  -29.3406  -26.0113   22.6090 C   0  0  0  0  0  0  0  0  0  0  0  0
  -20.9703  -19.3638   22.2522 C   0  0  0  0  0  0  0  0  0  0  0  0
  -31.7756  -23.9462   24.3480 C   0  0  0  0  0  0  0  0  0  0  0  0
  -32.0480  -22.5879   24.1855 C   0  0  0  0  0  0  0  0  0  0  0  0
  -23.1968  -19.9268   22.9903 C   0  0  0  0  0  0  0  0  0  0  0  0
  -20.3942  -26.4586   22.9594 C   0  0  0  0  0  0  0  0  0  0  0  0
  -19.2963  -25.0070   21.3707 C   0  0  0  0  0  0  0  0  0  0  0  0
  -18.8934  -27.3885   21.3102 C   0  0  0  0  0  0  0  0  0  0  0  0
  -32.4724  -22.9542   21.8354 C   0  0  0  0  0  0  0  0  0  0  0  0
  -28.4566  -27.7777   21.2178 C   0  0  0  0  0  0  0  0  0  0  0  0
  -27.0958  -28.1342   19.0897 C   0  0  0  0  0  0  0  0  0  0  0  0
  -24.7150  -11.4744   19.9307 C   0  0  0  0  0  0  0  0  0  0  0  0
  -22.8994  -18.4965   21.0601 C   0  0  0  0  0  0  0  0  0  0  0  0
  -24.1098  -12.5396   20.6247 C   0  0  0  0  0  0  0  0  0  0  0  0
  -23.7515  -19.1708   21.9463 C   0  0  0  0  0  0  0  0  0  0  0  0
  -20.1625  -25.1810   22.4500 C   0  0  0  0  0  0  0  0  0  0  0  0
  -19.7596  -27.5624   22.3896 C   0  0  0  0  0  0  0  0  0  0  0  0
  -30.5569  -26.6887   22.6962 C   0  0  0  0  0  0  0  0  0  0  0  0
  -21.8138  -20.0211   23.1431 C   0  0  0  0  0  0  0  0  0  0  0  0
  -31.8514  -24.8085   23.2542 C   0  0  0  0  0  0  0  0  0  0  0  0
  -32.3965  -22.0919   22.9293 C   0  0  0  0  0  0  0  0  0  0  0  0
  -32.1999  -24.3125   21.9980 C   0  0  0  0  0  0  0  0  0  0  0  0
  -18.6617  -26.1108   20.8007 C   0  0  0  0  0  0  0  0  0  0  0  0
  -27.3713  -28.3400   20.4549 C   0  0  0  0  0  0  0  0  0  0  0  0
  -25.9690  -28.8822   18.8503 C   0  0  0  0  0  0  0  0  0  0  0  0
  -27.7958  -27.3381   18.1244 C   0  0  0  0  0  0  0  0  0  0  0  0
  -24.9792  -16.0940   21.1376 C   0  0  0  0  0  0  0  0  0  0  0  0
  -21.0940  -22.9154   25.1576 C   0  0  0  0  0  0  0  0  0  0  0  0
  -27.0763  -18.3935   20.2229 C   0  0  0  0  0  0  0  0  0  0  0  0
  -27.8767  -21.7095   20.1198 C   0  0  0  0  0  0  0  0  0  0  0  0
  -21.5291  -30.8092   22.3753 C   0  0  0  0  0  0  0  0  0  0  0  0
  -26.2125  -11.2982   19.8978 C   0  0  0  0  0  0  0  0  0  0  0  0
  -23.4656  -17.6989   19.9174 C   0  0  0  0  0  0  0  0  0  0  0  0
  -25.2502  -19.0999   21.8141 C   0  0  0  0  0  0  0  0  0  0  0  0
  -26.9828  -12.5600   20.2783 C   0  0  0  0  0  0  0  0  0  0  0  0
  -23.6867  -32.8047   20.3656 C   0  0  0  0  0  0  0  0  0  0  0  0
  -26.3891  -13.1894   21.5346 C   0  0  0  0  0  0  0  0  0  0  0  0
  -24.8508  -31.8682   20.0374 C   0  0  0  0  0  0  0  0  0  0  0  0
  -23.1602  -32.5762   21.7807 C   0  0  0  0  0  0  0  0  0  0  0  0
  -23.9577  -30.2444   21.7590 C   0  0  0  0  0  0  0  0  0  0  0  0
  -24.9331  -13.6119   21.3047 C   0  0  1  0  0  0  0  0  0  0  0  0
  -24.8980  -17.2356   20.1640 C   0  0  1  0  0  0  0  0  0  0  0  0
  -24.4860  -30.3989   20.3226 C   0  0  2  0  0  0  0  0  0  0  0  0
  -20.7284  -22.7945   26.6177 C   0  0  0  0  0  0  0  0  0  0  0  0
  -29.6731  -23.2791   19.3408 C   0  0  0  0  0  0  0  0  0  0  0  0
  -28.8182  -17.5704   22.5890 C   0  0  0  0  0  0  0  0  0  0  0  0
  -30.0647  -19.7264   22.3319 C   0  0  0  0  0  0  0  0  0  0  0  0
  -30.0786  -18.0516   20.4832 C   0  0  0  0  0  0  0  0  0  0  0  0
  -26.0205  -23.1101   18.2890 C   0  0  0  0  0  0  0  0  0  0  0  0
  -20.8479  -23.9923   23.0636 C   0  0  0  0  0  0  0  0  0  0  0  0
  -20.0095  -28.9283   22.9341 C   0  0  0  0  0  0  0  0  0  0  0  0
  -22.0511  -21.8796   24.6079 C   0  0  0  0  0  0  0  0  0  1  0  0
  -27.9721  -19.3716   20.9441 C   0  0  1  0  0  0  0  0  0  0  0  0
  -28.3629  -22.5936   18.9855 C   0  0  2  0  0  0  0  0  0  0  0  0
  -29.2052  -18.6799   21.5910 C   0  0  0  0  0  0  0  0  0  0  0  0
  -26.4906  -29.1550   21.0415 N   0  0  0  0  0  0  0  0  0  0  0  0
  -20.5434  -23.8631   24.4788 N   0  0  0  0  0  0  0  0  0  0  0  0
  -25.6507  -29.4680   20.0402 N   0  0  0  0  0  0  0  0  0  0  0  0
  -25.7555  -18.3024   20.6844 N   0  0  0  0  0  0  0  0  0  0  0  0
  -22.8313  -31.1635   21.9857 N   0  0  0  0  0  0  0  0  0  0  0  0
  -25.2294  -29.0895   17.7402 N   0  0  0  0  0  0  0  0  0  0  0  0
  -28.9343  -26.6335   18.5387 N   0  0  0  0  0  0  0  0  0  0  0  0
  -24.8780  -14.8466   20.5518 N   0  0  0  0  0  0  0  0  0  0  0  0
  -28.3088  -20.4082   19.9743 N   0  0  0  0  0  0  0  0  0  0  0  0
  -21.3002  -29.4488   22.5416 N   0  0  0  0  0  0  0  0  0  0  0  0
  -27.3515  -23.6438   18.6773 N   0  3  0  0  0  0  0  0  0  0  0  0
  -27.4322  -27.2670   16.9260 O   0  0  0  0  0  0  0  0  0  0  0  0
  -25.1246  -16.3275   22.3318 O   0  0  0  0  0  0  0  0  0  0  0  0
  -27.5298  -17.7399   19.2802 O   0  0  0  0  0  0  0  0  0  0  0  0
  -27.1860  -22.1319   21.0444 O   0  0  0  0  0  0  0  0  0  0  0  0
  -20.6352  -31.6430   22.5560 O   0  0  0  0  0  0  0  0  0  0  0  0
  -31.5814  -26.1569   23.4174 O   0  0  0  0  0  0  0  0  0  0  0  0
  -21.2897  -20.7592   24.1592 O   0  0  0  0  0  0  0  0  0  1  0  0
  -32.6596  -20.7878   22.7737 F   0  0  0  0  0  0  0  0  0  0  0  0
  -32.2756  -25.1363   20.9437 F   0  0  0  0  0  0  0  0  0  0  0  0
  -17.5919  -25.8960   19.4698 Cl  0  0  0  0  0  0  0  0  0  0  0  0
  1  2  1  0  0  0  0
  1  5  2  0  0  0  0
  2  6  2  0  0  0  0
  3  8  2  0  0  0  0
  3 18  1  0  0  0  0
  4  9  1  0  0  0  0
  4 18  2  0  0  0  0
  5 20  1  0  0  0  0
  6 22  1  0  0  0  0
  7 10  2  0  0  0  0
  7 21  1  0  0  0  0
  8 26  1  0  0  0  0
  9 26  2  0  0  0  0
 10 27  1  0  0  0  0
 11 12  2  0  0  0  0
 11 28  1  0  0  0  0
 12 29  1  0  0  0  0
 13 23  1  0  0  0  0
 13 27  2  0  0  0  0
 14 24  2  0  0  0  0
 14 25  1  0  0  0  0
 15 24  1  0  0  0  0
 15 31  2  0  0  0  0
 16 25  2  0  0  0  0
 16 31  1  0  0  0  0
 17 29  2  0  0  0  0
 17 30  1  0  0  0  0
 18 32  1  0  0  0  0
 19 32  1  0  0  0  0
 19 33  2  0  0  0  0
 19 34  1  0  0  0  0
 20 22  2  0  0  0  0
 20 40  1  0  0  0  0
 21 23  2  0  0  0  0
 21 41  1  0  0  0  0
 22 49  1  0  0  0  0
 23 42  1  0  0  0  0
 24 58  1  0  0  0  0
 25 59  1  0  0  0  0
 26 80  1  0  0  0  0
 27 81  1  0  0  0  0
 28 30  2  0  0  0  0
 28 80  1  0  0  0  0
 29 82  1  0  0  0  0
 30 83  1  0  0  0  0
 31 84  1  0  0  0  0
 32 64  2  0  0  0  0
 33 66  1  0  0  0  0
 33 69  1  0  0  0  0
 34 70  1  0  0  0  0
 34 75  2  0  0  0  0
 35 50  1  0  0  0  0
 35 71  1  0  0  0  0
 35 76  2  0  0  0  0
 36 52  1  0  0  0  0
 36 60  1  0  0  0  0
 36 65  2  0  0  0  0
 37 61  1  0  0  0  0
 37 67  1  0  0  0  0
 37 77  2  0  0  0  0
 38 62  1  0  0  0  0
 38 72  1  0  0  0  0
 38 78  2  0  0  0  0
 39 68  1  0  0  0  0
 39 73  1  0  0  0  0
 39 79  2  0  0  0  0
 40 43  1  0  0  0  0
 41 50  1  0  0  0  0
 42 67  1  0  0  0  0
 43 45  1  0  0  0  0
 44 46  1  0  0  0  0
 44 47  1  0  0  0  0
 45 49  1  0  0  0  0
 46 51  1  0  0  0  0
 47 68  1  0  0  0  0
 48 51  1  0  0  0  0
 48 68  1  0  0  0  0
 49 71  1  0  0  0  0
 50 67  1  0  0  0  0
 51 66  1  0  0  0  0
 53 62  1  0  0  0  0
 54 63  1  0  0  0  0
 55 63  1  0  0  0  0
 56 63  1  0  0  0  0
 57 74  1  0  0  0  0
 58 65  1  0  0  0  0
 59 73  1  0  0  0  0
 60 81  1  0  0  0  0
 61 63  1  0  0  0  0
 61 72  1  0  0  0  0
 62 74  1  0  0  0  0
 64 66  1  0  0  0  0
M  CHG  1  74   1
M  ISO  4  39 100  60 101  73 100  81 101
M  END
> <Batch ID>
0049

> <Smiles>
CNC(C)C(=O)NC(C(=O)N1Cc2cc([101O:1][101CH:1]=C(C)NCc3cc(Cl)cc(C[100NH:0][100C:0](=O)N4CCCC(n5nc(-c6ccc(Oc7ccc(F)cc7F)cc6)c(C(N)=O)c5N)C4)c3)ccc2CC1C(=O)NC1CCCc2ccccc21)C(C)(C)C

> <Shape>
0.225

> <Color>
0.062

> <Negative vol penalty>
0.000

$$$$

  -OEChem-04042322323D

 97106  0     1  0  0  0  0  0999 V2000
  -32.3479  -25.6642   15.4403 C   0  0  0  0  0  0  0  0  0  0  0  0
  -31.1577  -25.4409   16.1252 C   0  0  0  0  0  0  0  0  0  0  0  0
  -23.5825  -10.0393   22.2481 C   0  0  0  0  0  0  0  0  0  0  0  0
  -24.3745  -11.5049   23.9979 C   0  0  0  0  0  0  0  0  0  0  0  0
  -33.4437  -26.2088   16.1085 C   0  0  0  0  0  0  0  0  0  0  0  0
  -31.0631  -25.7612   17.4791 C   0  0  0  0  0  0  0  0  0  0  0  0
  -26.7589  -28.1791   18.6072 C   0  0  0  0  0  0  0  0  0  0  0  0
  -23.0359   -9.1880   23.2084 C   0  0  0  0  0  0  0  0  0  0  0  0
  -23.8279  -10.6536   24.9582 C   0  0  0  0  0  0  0  0  0  0  0  0
  -25.6041  -27.4057   18.7169 C   0  0  0  0  0  0  0  0  0  0  0  0
  -20.7792  -10.0065   26.2648 C   0  0  0  0  0  0  0  0  0  0  0  0
  -20.0603  -10.5873   27.3095 C   0  0  0  0  0  0  0  0  0  0  0  0
  -25.8181  -27.4375   21.1194 C   0  0  0  0  0  0  0  0  0  0  0  0
  -29.1533  -18.7603   19.5977 C   0  0  0  0  0  0  0  0  0  0  0  0
  -31.4329  -17.9888   19.3838 C   0  0  0  0  0  0  0  0  0  0  0  0
  -21.6071   -9.6358   28.9030 C   0  0  0  0  0  0  0  0  0  0  0  0
  -24.2519  -11.1977   22.6428 C   0  0  0  0  0  0  0  0  0  0  0  0
  -24.1862  -13.1678   21.0236 C   0  0  0  0  0  0  0  0  0  0  0  0
  -33.3595  -26.5449   17.4688 C   0  0  0  0  0  0  0  0  0  0  0  0
  -27.4593  -28.5789   19.7544 C   0  0  0  0  0  0  0  0  0  0  0  0
  -32.1593  -26.3096   18.1664 C   0  0  0  0  0  0  0  0  0  0  0  0
  -26.9801  -28.2180   21.0218 C   0  0  0  0  0  0  0  0  0  0  0  0
  -29.6099  -20.0709   19.7368 C   0  0  0  0  0  0  0  0  0  0  0  0
  -31.8895  -19.2995   19.5229 C   0  0  0  0  0  0  0  0  0  0  0  0
  -30.9780  -20.3405   19.6994 C   0  0  0  0  0  0  0  0  0  0  0  0
  -30.0648  -17.7192   19.4212 C   0  0  0  0  0  0  0  0  0  0  0  0
  -23.1586   -9.4952   24.5635 C   0  0  0  0  0  0  0  0  0  0  0  0
  -25.1351  -27.0323   19.9729 C   0  0  0  0  0  0  0  0  0  0  0  0
  -21.9121   -9.2403   26.5392 C   0  0  0  0  0  0  0  0  0  0  0  0
  -20.4743  -10.4020   28.6286 C   0  0  0  0  0  0  0  0  0  0  0  0
  -22.3260   -9.0549   27.8582 C   0  0  0  0  0  0  0  0  0  0  0  0
  -24.8172  -12.0771   21.6512 C   0  0  0  0  0  0  0  0  0  0  0  0
  -25.1385  -13.6716   20.1717 C   0  0  0  0  0  0  0  0  0  0  0  0
  -27.7777  -20.7868   22.1717 C   0  0  0  0  0  0  0  0  0  0  0  0
  -26.5220  -23.1437   21.3079 C   0  0  0  0  0  0  0  0  0  0  0  0
  -30.5367  -19.2331   24.0316 C   0  0  0  0  0  0  0  0  0  0  0  0
  -28.4404  -20.0097   23.0413 C   0  0  0  0  0  0  0  0  0  0  0  0
  -29.8763  -20.0083   23.1641 C   0  0  0  0  0  0  0  0  0  0  0  0
  -22.8580  -13.6798   21.1953 C   0  0  0  0  0  0  0  0  0  0  0  0
  -30.3842  -28.0677   20.8888 C   0  0  0  0  0  0  0  0  0  0  0  0
  -29.4621  -30.2093   23.1439 C   0  0  0  0  0  0  0  0  0  0  0  0
  -26.9107  -31.7147   24.8383 C   0  0  0  0  0  0  0  0  0  0  0  0
  -30.3718  -15.2400   19.0962 C   0  0  0  0  0  0  0  0  0  0  0  0
  -34.5854  -27.0872   18.1599 C   0  0  0  0  0  0  0  0  0  0  0  0
  -28.6884  -29.4355   19.6202 C   0  0  0  0  0  0  0  0  0  0  0  0
  -27.6841  -28.6387   22.2850 C   0  0  0  0  0  0  0  0  0  0  0  0
  -26.2741  -20.7865   22.0448 C   0  0  0  0  0  0  0  0  0  0  0  0
  -28.0206  -23.0905   21.4602 C   0  0  0  0  0  0  0  0  0  0  0  0
  -34.2855  -27.7471   19.5034 C   0  0  0  0  0  0  0  0  0  0  0  0
  -29.6104  -11.7800   18.7413 C   0  0  0  0  0  0  0  0  0  0  0  0
  -33.3566  -26.8677   20.3345 C   0  0  0  0  0  0  0  0  0  0  0  0
  -28.2436  -11.6386   19.4151 C   0  0  0  0  0  0  0  0  0  0  0  0
  -30.5000  -12.7865   19.4689 C   0  0  0  0  0  0  0  0  0  0  0  0
  -28.5285  -13.9657   20.3587 C   0  0  0  0  0  0  0  0  0  0  0  0
  -32.0098  -26.6669   19.6293 C   0  0  1  0  0  0  0  0  0  0  0  0
  -25.6849  -22.1987   22.1517 C   0  0  1  0  0  0  0  0  0  0  0  0
  -29.6091  -29.3537   20.8339 C   0  0  1  0  0  0  0  0  0  0  0  0
  -27.5735  -13.0108   19.6238 C   0  0  2  0  0  0  0  0  0  0  0  0
  -31.4674  -21.7461   19.8480 C   0  0  0  0  0  0  0  0  0  0  0  0
  -25.6293  -22.7035   23.5917 C   0  0  0  0  0  0  0  0  0  0  0  0
  -26.4700  -33.3958   26.6486 C   0  0  0  0  0  0  0  0  0  0  0  0
  -22.6065  -24.6876   18.9962 C   0  0  0  0  0  0  0  0  0  0  0  0
  -30.2635  -28.1500   25.2479 C   0  0  0  0  0  0  0  0  0  0  0  0
  -28.9489  -29.4590   26.9291 C   0  0  0  0  0  0  0  0  0  0  0  0
  -30.9086  -30.5039   25.7932 C   0  0  0  0  0  0  0  0  0  0  0  0
  -25.4162  -33.4819   22.9937 C   0  0  0  0  0  0  0  0  0  0  0  0
  -28.6090  -21.1725   19.9261 C   0  0  0  0  0  0  0  0  0  0  0  0
  -24.5202  -23.9501   20.4524 C   0  0  0  0  0  0  0  0  0  0  0  0
  -28.7783  -30.1200   24.4868 C   0  0  1  0  0  0  0  0  0  0  0  0
  -26.6332  -33.1736   25.1530 C   0  0  2  0  0  0  0  0  0  0  0  0
  -24.0232  -24.9941   19.4579 C   0  0  2  0  0  0  0  0  0  1  0  0
  -33.3594  -19.5613   19.4792 C   0  0  0  0  0  0  0  0  0  0  0  0
  -29.7124  -29.5485   25.5906 C   0  0  0  0  0  0  0  0  0  0  0  0
  -26.0731  -11.8978   21.2336 N   0  0  0  0  0  0  0  0  0  0  0  0
  -25.9847  -24.0045   20.5068 N   0  0  0  0  0  0  0  0  0  0  0  0
  -26.2391  -12.8826   20.3343 N   0  0  0  0  0  0  0  0  0  0  0  0
  -28.8851  -29.4702   22.1014 N   0  0  0  0  0  0  0  0  0  0  0  0
  -29.8010  -14.0638   19.6267 N   0  0  0  0  0  0  0  0  0  0  0  0
  -25.1335  -14.7081   19.3068 N   0  0  0  0  0  0  0  0  0  0  0  0
  -22.0098  -13.0432   22.1115 N   0  0  0  0  0  0  0  0  0  0  0  0
  -29.6012  -16.3879   19.2788 N   0  0  0  0  0  0  0  0  0  0  0  0
  -31.1795  -27.8424   19.7814 N   0  0  0  0  0  0  0  0  0  0  0  0
  -28.2633  -31.4549   24.7721 N   0  0  0  0  0  0  0  0  0  0  0  0
  -28.5514  -21.6797   21.3408 N   0  3  2  0  0  0  0  0  0  0  0  0
  -25.3856  -33.6221   24.4723 N   0  3  0  0  0  0  0  0  0  0  0  0
  -22.4306  -14.6625   20.5432 O   0  0  0  0  0  0  0  0  0  0  0  0
  -30.2705  -27.3348   21.8643 O   0  0  0  0  0  0  0  0  0  0  0  0
  -30.4668  -30.9146   23.0225 O   0  0  0  0  0  0  0  0  0  0  0  0
  -26.0171  -30.8875   24.6718 O   0  0  0  0  0  0  0  0  0  0  0  0
  -31.4508  -15.2252   18.4983 O   0  0  0  0  0  0  0  0  0  0  0  0
  -22.6252   -8.6650   25.5008 O   0  0  0  0  0  0  0  0  0  0  0  0
  -24.0085  -26.2769   20.0828 O   0  0  0  0  0  0  0  0  0  1  0  0
  -19.7847  -10.9611   29.6316 F   0  0  0  0  0  0  0  0  0  0  0  0
  -23.4142   -8.3208   28.1279 F   0  0  0  0  0  0  0  0  0  0  0  0
  -34.1088  -18.4344   19.3003 F   0  0  0  0  0  0  0  0  0  0  0  0
  -33.7327  -20.4032   18.4716 F   0  0  0  0  0  0  0  0  0  0  0  0
  -33.8230  -20.1331   20.6275 F   0  0  0  0  0  0  0  0  0  0  0  0
  1  2  1  0  0  0  0
  1  5  2  0  0  0  0
  2  6  2  0  0  0  0
  3  8  2  0  0  0  0
  3 17  1  0  0  0  0
  4  9  1  0  0  0  0
  4 17  2  0  0  0  0
  5 19  1  0  0  0  0
  6 21  1  0  0  0  0
  7 10  2  0  0  0  0
  7 20  1  0  0  0  0
  8 27  1  0  0  0  0
  9 27  2  0  0  0  0
 10 28  1  0  0  0  0
 11 12  2  0  0  0  0
 11 29  1  0  0  0  0
 12 30  1  0  0  0  0
 13 22  1  0  0  0  0
 13 28  2  0  0  0  0
 14 23  1  0  0  0  0
 14 26  2  0  0  0  0
 15 24  2  0  0  0  0
 15 26  1  0  0  0  0
 16 30  2  0  0  0  0
 16 31  1  0  0  0  0
 17 32  1  0  0  0  0
 18 32  1  0  0  0  0
 18 33  2  0  0  0  0
 18 39  1  0  0  0  0
 19 21  2  0  0  0  0
 19 44  1  0  0  0  0
 20 22  2  0  0  0  0
 20 45  1  0  0  0  0
 21 55  1  0  0  0  0
 22 46  1  0  0  0  0
 23 25  2  0  0  0  0
 23 67  1  0  0  0  0
 24 25  1  0  0  0  0
 24 72  1  0  0  0  0
 25 59  1  0  0  0  0
 26 81  1  0  0  0  0
 27 91  1  0  0  0  0
 28 92  1  0  0  0  0
 29 31  2  0  0  0  0
 29 91  1  0  0  0  0
 30 93  1  0  0  0  0
 31 94  1  0  0  0  0
 32 74  2  0  0  0  0
 33 76  1  0  0  0  0
 33 79  1  0  0  0  0
 34 37  2  0  0  0  0
 34 47  1  0  0  0  0
 34 84  1  0  0  0  0
 35 48  1  0  0  0  0
 35 56  1  0  0  0  0
 35 75  2  0  0  0  0
 36 38  2  0  0  0  0
 37 38  1  0  0  0  0
 39 80  1  0  0  0  0
 39 86  2  0  0  0  0
 40 57  1  0  0  0  0
 40 82  1  0  0  0  0
 40 87  2  0  0  0  0
 41 69  1  0  0  0  0
 41 77  1  0  0  0  0
 41 88  2  0  0  0  0
 42 70  1  0  0  0  0
 42 83  1  0  0  0  0
 42 89  2  0  0  0  0
 43 78  1  0  0  0  0
 43 81  1  0  0  0  0
 43 90  2  0  0  0  0
 44 49  1  0  0  0  0
 45 57  1  0  0  0  0
 46 77  1  0  0  0  0
 47 56  1  0  0  0  0
 48 84  1  0  0  0  0
 49 51  1  0  0  0  0
 50 52  1  0  0  0  0
 50 53  1  0  0  0  0
 51 55  1  0  0  0  0
 52 58  1  0  0  0  0
 53 78  1  0  0  0  0
 54 58  1  0  0  0  0
 54 78  1  0  0  0  0
 55 82  1  0  0  0  0
 56 60  1  0  0  0  0
 57 77  1  0  0  0  0
 58 76  1  0  0  0  0
 61 70  1  0  0  0  0
 62 71  1  0  0  0  0
 63 73  1  0  0  0  0
 64 73  1  0  0  0  0
 65 73  1  0  0  0  0
 66 85  1  0  0  0  0
 67 84  1  0  0  0  0
 68 71  1  0  0  0  0
 68 75  1  0  0  0  0
 69 73  1  0  0  0  0
 69 83  1  0  0  0  0
 70 85  1  0  0  0  0
 71 92  1  0  0  0  0
 72 95  1  0  0  0  0
 72 96  1  0  0  0  0
 72 97  1  0  0  0  0
 74 76  1  0  0  0  0
M  CHG  2  84   1  85   1
M  ISO  4  43 100  71 101  81 100  92 101
M  END
> <Batch ID>
0049

> <Smiles>
C=CC=C1CC(C)=C(NC[101CH:1](C)[101O:1]c2ccc3c(c2)CN(C(=O)C(NC(=O)C(C)NC)C(C)(C)C)C(C(=O)NC2CCCc4ccccc42)C3)CN1Cc1cc([100NH:0][100C:0](=O)N2CCCC(n3nc(-c4ccc(Oc5ccc(F)cc5F)cc4)c(C(N)=O)c3N)C2)cc(C(F)(F)F)c1C

> <Shape>
0.238

> <Color>
0.124

> <Negative vol penalty>
0.000

$$$$

  -OEChem-04042322323D

 86 94  0     1  0  0  0  0  0999 V2000
  -24.2490  -31.2475   18.7528 C   0  0  0  0  0  0  0  0  0  0  0  0
  -23.2113  -30.3373   18.9262 C   0  0  0  0  0  0  0  0  0  0  0  0
  -29.3937  -23.3745   20.7295 C   0  0  0  0  0  0  0  0  0  0  0  0
  -29.3980  -22.8649   18.3678 C   0  0  0  0  0  0  0  0  0  0  0  0
  -25.5457  -30.9056   19.1346 C   0  0  0  0  0  0  0  0  0  0  0  0
  -23.4698  -29.0842   19.4804 C   0  0  0  0  0  0  0  0  0  0  0  0
  -20.4433  -24.0745   23.6107 C   0  0  0  0  0  0  0  0  0  0  0  0
  -29.9522  -24.6241   20.4609 C   0  0  0  0  0  0  0  0  0  0  0  0
  -29.9564  -24.1146   18.0992 C   0  0  0  0  0  0  0  0  0  0  0  0
  -20.1651  -22.7083   23.6179 C   0  0  0  0  0  0  0  0  0  0  0  0
  -33.0038  -25.8846   19.7376 C   0  0  0  0  0  0  0  0  0  0  0  0
  -34.0626  -26.3068   20.5414 C   0  0  0  0  0  0  0  0  0  0  0  0
  -22.4304  -22.2569   24.3135 C   0  0  0  0  0  0  0  0  0  0  0  0
  -24.9287  -13.5565   19.7878 C   0  0  0  0  0  0  0  0  0  0  0  0
  -24.3516  -12.0741   21.6062 C   0  0  0  0  0  0  0  0  0  0  0  0
  -26.4076  -11.7407   20.3819 C   0  0  0  0  0  0  0  0  0  0  0  0
  -32.7717  -28.2284   21.2327 C   0  0  0  0  0  0  0  0  0  0  0  0
  -29.1167  -22.4948   19.6829 C   0  0  0  0  0  0  0  0  0  0  0  0
  -27.1718  -20.8802   20.0269 C   0  0  0  0  0  0  0  0  0  0  0  0
  -25.8185  -29.6512   19.7027 C   0  0  0  0  0  0  0  0  0  0  0  0
  -21.7223  -24.5422   23.9449 C   0  0  0  0  0  0  0  0  0  0  0  0
  -24.7715  -28.7246   19.8689 C   0  0  0  0  0  0  0  0  0  0  0  0
  -22.7215  -23.6296   24.3123 C   0  0  0  0  0  0  0  0  0  0  0  0
  -24.0510  -13.1735   20.8020 C   0  0  0  0  0  0  0  0  0  0  0  0
  -26.1070  -12.8401   19.5777 C   0  0  0  0  0  0  0  0  0  0  0  0
  -30.2335  -24.9942   19.1458 C   0  0  0  0  0  0  0  0  0  0  0  0
  -21.1595  -21.7991   23.9665 C   0  0  0  0  0  0  0  0  0  0  0  0
  -31.8289  -26.6344   19.6812 C   0  0  0  0  0  0  0  0  0  0  0  0
  -33.9466  -27.4786   21.2890 C   0  0  0  0  0  0  0  0  0  0  0  0
  -25.5299  -11.3577   21.3961 C   0  0  0  0  0  0  0  0  0  0  0  0
  -31.7128  -27.8063   20.4288 C   0  0  0  0  0  0  0  0  0  0  0  0
  -28.5403  -21.2036   19.9598 C   0  0  0  0  0  0  0  0  0  0  0  0
  -27.1501  -19.5376   20.3157 C   0  0  0  0  0  0  0  0  0  0  0  0
  -26.0231  -21.7185   19.8444 C   0  0  0  0  0  0  0  0  0  0  0  0
  -23.9877  -26.1649   22.4157 C   0  0  0  0  0  0  0  0  0  0  0  0
  -25.4242  -26.1396   25.3240 C   0  0  0  0  0  0  0  0  0  0  0  0
  -22.0034  -16.0886   21.9988 C   0  0  0  0  0  0  0  0  0  0  0  0
  -25.7672  -24.6454   28.3730 C   0  0  0  0  0  0  0  0  0  0  0  0
  -29.0349  -14.3503   19.4880 C   0  0  0  0  0  0  0  0  0  0  0  0
  -27.2442  -29.3091   20.0563 C   0  0  0  0  0  0  0  0  0  0  0  0
  -21.9988  -26.0206   23.9582 C   0  0  0  0  0  0  0  0  0  0  0  0
  -24.1052  -24.0817   24.6989 C   0  0  0  0  0  0  0  0  0  0  0  0
  -27.3693  -28.1014   20.9815 C   0  0  0  0  0  0  0  0  0  0  0  0
  -30.8671  -16.4150   21.7367 C   0  0  0  0  0  0  0  0  0  0  0  0
  -26.4865  -26.9586   20.4900 C   0  0  0  0  0  0  0  0  0  0  0  0
  -30.3168  -17.8182   21.4759 C   0  0  0  0  0  0  0  0  0  0  0  0
  -30.9486  -15.5930   20.4522 C   0  0  0  0  0  0  0  0  0  0  0  0
  -29.1396  -16.9158   19.4268 C   0  0  0  0  0  0  0  0  0  0  0  0
  -25.0078  -27.3648   20.4894 C   0  0  1  0  0  0  0  0  0  0  0  0
  -23.4812  -26.3526   23.8178 C   0  0  1  0  0  0  0  0  0  0  0  0
  -28.9863  -17.7637   20.7011 C   0  0  2  0  0  0  0  0  0  0  0  0
  -27.0452  -24.8303   30.5248 C   0  0  0  0  0  0  0  0  0  0  0  0
  -27.8901  -24.9731   23.9569 C   0  0  0  0  0  0  0  0  0  0  0  0
  -28.7409  -24.3066   26.2152 C   0  0  0  0  0  0  0  0  0  0  0  0
  -28.3801  -26.7166   25.6816 C   0  0  0  0  0  0  0  0  0  0  0  0
  -23.2910  -25.0429   29.9444 C   0  0  0  0  0  0  0  0  0  0  0  0
  -22.7825  -13.9441   21.0279 C   0  0  0  0  0  0  0  0  0  0  0  0
  -27.0456  -13.2492   18.4933 C   0  0  0  0  0  0  0  0  0  0  0  0
  -22.5307  -17.3353   22.6864 C   0  0  0  0  0  0  0  0  0  0  0  0
  -21.4216  -18.3200   23.0387 C   0  0  0  0  0  0  0  0  0  0  0  0
  -21.9743  -19.5828   23.6835 C   0  0  0  0  0  0  0  0  0  1  0  0
  -26.3791  -25.2127   26.0367 C   0  0  1  0  0  0  0  0  0  0  0  0
  -25.7772  -25.2168   29.7794 C   0  0  2  0  0  0  0  0  0  0  0  0
  -27.8221  -25.2933   25.4635 C   0  0  0  0  0  0  0  0  0  0  0  0
  -29.3306  -20.1513   20.1878 N   0  0  0  0  0  0  0  0  0  0  0  0
  -28.4559  -19.1535   20.4011 N   0  0  0  0  0  0  0  0  0  0  0  0
  -24.3281  -25.5370   24.6905 N   0  0  0  0  0  0  0  0  0  0  0  0
  -29.6542  -15.5799   19.7665 N   0  0  0  0  0  0  0  0  0  0  0  0
  -26.1415  -18.6600   20.5025 N   0  0  0  0  0  0  0  0  0  0  0  0
  -26.2249  -23.0745   19.5530 N   0  0  0  0  0  0  0  0  0  0  0  0
  -24.4710  -27.3208   21.8327 N   0  0  0  0  0  0  0  0  0  0  0  0
  -23.0266  -15.2055   21.6864 N   0  0  0  0  0  0  0  0  0  0  0  0
  -26.2807  -25.5375   27.4556 N   0  0  0  0  0  0  0  0  0  0  0  0
  -27.8074  -14.4279   18.8414 N   0  0  0  0  0  0  0  0  0  0  0  0
  -24.6062  -24.7132   30.5514 N   0  3  0  0  0  0  0  0  0  0  0  0
  -24.8522  -21.2816   19.9533 O   0  0  0  0  0  0  0  0  0  0  0  0
  -23.9447  -25.0534   21.9015 O   0  0  0  0  0  0  0  0  0  0  0  0
  -25.6389  -27.3543   25.3352 O   0  0  0  0  0  0  0  0  0  0  0  0
  -20.8136  -15.9028   21.7581 O   0  0  0  0  0  0  0  0  0  0  0  0
  -25.3494  -23.5188   28.1147 O   0  0  0  0  0  0  0  0  0  0  0  0
  -29.5360  -13.2641   19.7977 O   0  0  0  0  0  0  0  0  0  0  0  0
  -30.7782  -26.2136   18.8833 O   0  0  0  0  0  0  0  0  0  0  0  0
  -20.8909  -20.4651   23.9737 O   0  0  0  0  0  0  0  0  0  1  0  0
  -34.9629  -27.8831   22.0621 F   0  0  0  0  0  0  0  0  0  0  0  0
  -25.8179  -10.3015   22.1677 F   0  0  0  0  0  0  0  0  0  0  0  0
  -30.5861  -28.5301   20.3797 F   0  0  0  0  0  0  0  0  0  0  0  0
  1  2  1  0  0  0  0
  1  5  2  0  0  0  0
  2  6  2  0  0  0  0
  3  8  2  0  0  0  0
  3 18  1  0  0  0  0
  4  9  1  0  0  0  0
  4 18  2  0  0  0  0
  5 20  1  0  0  0  0
  6 22  1  0  0  0  0
  7 10  2  0  0  0  0
  7 21  1  0  0  0  0
  8 26  1  0  0  0  0
  9 26  2  0  0  0  0
 10 27  1  0  0  0  0
 11 12  2  0  0  0  0
 11 28  1  0  0  0  0
 12 29  1  0  0  0  0
 13 23  1  0  0  0  0
 13 27  2  0  0  0  0
 14 24  2  0  0  0  0
 14 25  1  0  0  0  0
 15 24  1  0  0  0  0
 15 30  2  0  0  0  0
 16 25  2  0  0  0  0
 16 30  1  0  0  0  0
 17 29  2  0  0  0  0
 17 31  1  0  0  0  0
 18 32  1  0  0  0  0
 19 32  1  0  0  0  0
 19 33  2  0  0  0  0
 19 34  1  0  0  0  0
 20 22  2  0  0  0  0
 20 40  1  0  0  0  0
 21 23  2  0  0  0  0
 21 41  1  0  0  0  0
 22 49  1  0  0  0  0
 23 42  1  0  0  0  0
 24 57  1  0  0  0  0
 25 58  1  0  0  0  0
 26 82  1  0  0  0  0
 27 83  1  0  0  0  0
 28 31  2  0  0  0  0
 28 82  1  0  0  0  0
 29 84  1  0  0  0  0
 30 85  1  0  0  0  0
 31 86  1  0  0  0  0
 32 65  2  0  0  0  0
 33 66  1  0  0  0  0
 33 69  1  0  0  0  0
 34 70  1  0  0  0  0
 34 76  2  0  0  0  0
 35 50  1  0  0  0  0
 35 71  1  0  0  0  0
 35 77  2  0  0  0  0
 36 62  1  0  0  0  0
 36 67  1  0  0  0  0
 36 78  2  0  0  0  0
 37 59  1  0  0  0  0
 37 72  1  0  0  0  0
 37 79  2  0  0  0  0
 38 63  1  0  0  0  0
 38 73  1  0  0  0  0
 38 80  2  0  0  0  0
 39 68  1  0  0  0  0
 39 74  1  0  0  0  0
 39 81  2  0  0  0  0
 40 43  1  0  0  0  0
 41 50  1  0  0  0  0
 42 67  1  0  0  0  0
 43 45  1  0  0  0  0
 44 46  1  0  0  0  0
 44 47  1  0  0  0  0
 45 49  1  0  0  0  0
 46 51  1  0  0  0  0
 47 68  1  0  0  0  0
 48 51  1  0  0  0  0
 48 68  1  0  0  0  0
 49 71  1  0  0  0  0
 50 67  1  0  0  0  0
 51 66  1  0  0  0  0
 52 63  1  0  0  0  0
 53 64  1  0  0  0  0
 54 64  1  0  0  0  0
 55 64  1  0  0  0  0
 56 75  1  0  0  0  0
 57 72  1  0  0  0  0
 58 74  1  0  0  0  0
 59 60  1  0  0  0  0
 60 61  1  0  0  0  0
 61 83  1  0  0  0  0
 62 64  1  0  0  0  0
 62 73  1  0  0  0  0
 63 75  1  0  0  0  0
 65 66  1  0  0  0  0
M  CHG  1  75   1
M  ISO  4  39 100  61 101  74 100  83 101
M  END
> <Batch ID>
0049

> <Smiles>
CNC(C)C(=O)NC(C(=O)N1Cc2cc([101O:1][101CH2:1]CCC(=O)NCc3cc(F)cc(C[100NH:0][100C:0](=O)N4CCCC(n5nc(-c6ccc(Oc7ccc(F)cc7F)cc6)c(C(N)=O)c5N)C4)c3)ccc2CC1C(=O)NC1CCCc2ccccc21)C(C)(C)C

> <Shape>
0.211

> <Color>
0.060

> <Negative vol penalty>
0.000

$$$$

  -OEChem-04042322323D

 87 95  0     1  0  0  0  0  0999 V2000
  -30.2468  -31.9250   25.4169 C   0  0  0  0  0  0  0  0  0  0  0  0
  -29.7860  -30.7624   24.8074 C   0  0  0  0  0  0  0  0  0  0  0  0
  -25.0639  -13.6016   19.3492 C   0  0  0  0  0  0  0  0  0  0  0  0
  -25.7694  -14.4265   21.5076 C   0  0  0  0  0  0  0  0  0  0  0  0
  -29.3374  -32.8615   25.9067 C   0  0  0  0  0  0  0  0  0  0  0  0
  -28.4153  -30.5352   24.6884 C   0  0  0  0  0  0  0  0  0  0  0  0
  -27.1172  -28.8529   20.0917 C   0  0  0  0  0  0  0  0  0  0  0  0
  -25.0459  -12.3008   19.8522 C   0  0  0  0  0  0  0  0  0  0  0  0
  -25.7514  -13.1257   22.0107 C   0  0  0  0  0  0  0  0  0  0  0  0
  -27.3569  -27.5077   19.8148 C   0  0  0  0  0  0  0  0  0  0  0  0
  -24.4655   -8.8055   20.6656 C   0  0  0  0  0  0  0  0  0  0  0  0
  -23.3678   -8.0041   20.3521 C   0  0  0  0  0  0  0  0  0  0  0  0
  -25.0359  -27.0115   20.2460 C   0  0  0  0  0  0  0  0  0  0  0  0
  -33.3864  -21.1773   22.6512 C   0  0  0  0  0  0  0  0  0  0  0  0
  -32.6429  -20.8435   20.3769 C   0  0  0  0  0  0  0  0  0  0  0  0
  -21.9012   -9.5890   21.4358 C   0  0  0  0  0  0  0  0  0  0  0  0
  -25.4257  -14.6645   20.1768 C   0  0  0  0  0  0  0  0  0  0  0  0
  -24.3833  -16.9328   19.6516 C   0  0  0  0  0  0  0  0  0  0  0  0
  -27.9550  -32.6502   25.7849 C   0  0  0  0  0  0  0  0  0  0  0  0
  -25.8352  -29.2865   20.4590 C   0  0  0  0  0  0  0  0  0  0  0  0
  -27.4866  -31.4691   25.1782 C   0  0  0  0  0  0  0  0  0  0  0  0
  -24.7819  -28.3632   20.5245 C   0  0  0  0  0  0  0  0  0  0  0  0
  -33.6555  -21.1596   21.2827 C   0  0  0  0  0  0  0  0  0  0  0  0
  -32.1048  -20.8789   23.1140 C   0  0  0  0  0  0  0  0  0  0  0  0
  -31.0923  -20.5628   22.2082 C   0  0  0  0  0  0  0  0  0  0  0  0
  -31.3613  -20.5451   20.8396 C   0  0  0  0  0  0  0  0  0  0  0  0
  -25.3896  -12.0628   21.1829 C   0  0  0  0  0  0  0  0  0  0  0  0
  -26.3169  -26.5862   19.8948 C   0  0  0  0  0  0  0  0  0  0  0  0
  -24.2811   -9.9986   21.3643 C   0  0  0  0  0  0  0  0  0  0  0  0
  -22.0856   -8.3958   20.7371 C   0  0  0  0  0  0  0  0  0  0  0  0
  -22.9990  -10.3903   21.7494 C   0  0  0  0  0  0  0  0  0  0  0  0
  -25.4451  -16.0084   19.6576 C   0  0  0  0  0  0  0  0  0  0  0  0
  -24.9067  -18.0529   19.0534 C   0  0  0  0  0  0  0  0  0  0  0  0
  -26.7845  -22.5116   21.6766 C   0  0  0  0  0  0  0  0  0  0  0  0
  -26.5219  -23.0565   20.4804 C   0  0  0  0  0  0  0  0  0  0  0  0
  -23.0438  -16.7916   20.1429 C   0  0  0  0  0  0  0  0  0  0  0  0
  -27.5937  -21.2617   21.7639 C   0  0  0  0  0  0  0  0  0  0  0  0
  -24.5846  -30.6570   23.0400 C   0  0  0  0  0  0  0  0  0  0  0  0
  -21.9269  -30.8204   21.1873 C   0  0  0  0  0  0  0  0  0  0  0  0
  -20.1597  -29.5872   18.5411 C   0  0  0  0  0  0  0  0  0  0  0  0
  -30.4676  -20.1722   18.5140 C   0  0  0  0  0  0  0  0  0  0  0  0
  -27.0104  -33.6689   26.3719 C   0  0  0  0  0  0  0  0  0  0  0  0
  -25.5871  -30.7453   20.7285 C   0  0  0  0  0  0  0  0  0  0  0  0
  -23.3830  -28.7809   20.8946 C   0  0  0  0  0  0  0  0  0  0  0  0
  -25.5752  -33.5286   25.8709 C   0  0  0  0  0  0  0  0  0  0  0  0
  -28.2189  -19.3945   15.8653 C   0  0  0  0  0  0  0  0  0  0  0  0
  -25.1335  -32.0694   25.9185 C   0  0  0  0  0  0  0  0  0  0  0  0
  -27.1525  -18.5270   16.5379 C   0  0  0  0  0  0  0  0  0  0  0  0
  -29.6115  -19.1218   16.4310 C   0  0  0  0  0  0  0  0  0  0  0  0
  -28.6514  -18.3516   18.5651 C   0  0  0  0  0  0  0  0  0  0  0  0
  -26.0075  -31.1984   25.0080 C   0  0  1  0  0  0  0  0  0  0  0  0
  -24.3549  -30.9921   21.5934 C   0  0  1  0  0  0  0  0  0  0  0  0
  -27.2229  -18.6371   18.0737 C   0  0  2  0  0  0  0  0  0  0  0  0
  -35.0261  -21.4773   20.7880 C   0  0  0  0  0  0  0  0  0  0  0  0
  -31.8439  -20.9031   24.5846 C   0  0  0  0  0  0  0  0  0  0  0  0
  -18.0047  -29.9003   17.2938 C   0  0  0  0  0  0  0  0  0  0  0  0
  -20.4213  -29.4206   23.4420 C   0  0  0  0  0  0  0  0  0  0  0  0
  -18.5892  -28.9166   21.8118 C   0  0  0  0  0  0  0  0  0  0  0  0
  -19.1633  -31.2843   22.3473 C   0  0  0  0  0  0  0  0  0  0  0  0
  -29.1380  -22.6036   23.1392 C   0  0  0  0  0  0  0  0  0  0  0  0
  -21.5758  -30.2405   16.0258 C   0  0  0  0  0  0  0  0  0  0  0  0
  -29.7148  -20.2414   22.7116 C   0  0  0  0  0  0  0  0  0  0  0  0
  -25.7374  -24.3171   20.3082 C   0  0  0  0  0  0  0  0  0  1  0  0
  -20.7465  -29.9154   20.9290 C   0  0  1  0  0  0  0  0  0  0  0  0
  -19.4751  -30.2797   17.3765 C   0  0  2  0  0  0  0  0  0  0  0  0
  -19.7568  -29.8757   22.1274 C   0  0  0  0  0  0  0  0  0  0  0  0
  -26.5587  -16.4987   19.1068 N   0  0  0  0  0  0  0  0  0  0  0  0
  -26.1996  -17.7433   18.7490 N   0  0  0  0  0  0  0  0  0  0  0  0
  -23.1923  -30.2173   21.1550 N   0  0  0  0  0  0  0  0  0  0  0  0
  -29.6027  -19.2484   17.8901 N   0  0  0  0  0  0  0  0  0  0  0  0
  -24.3824  -19.2626   18.7632 N   0  0  0  0  0  0  0  0  0  0  0  0
  -22.6720  -15.5740   20.7290 N   0  0  0  0  0  0  0  0  0  0  0  0
  -30.3472  -20.2278   19.9022 N   0  0  0  0  0  0  0  0  0  0  0  0
  -25.6180  -31.3644   23.6241 N   0  0  0  0  0  0  0  0  0  0  0  0
  -20.1508  -30.3689   19.6768 N   0  0  0  0  0  0  0  0  0  0  0  0
  -28.7819  -21.3457   22.4953 N   0  0  0  0  0  0  0  0  0  0  0  0
  -20.1306  -29.9031   16.0921 N   0  3  0  0  0  0  0  0  0  0  0  0
  -22.1967  -17.7121   20.0498 O   0  0  0  0  0  0  0  0  0  0  0  0
  -27.2099  -20.2436   21.1862 O   0  0  0  0  0  0  0  0  0  0  0  0
  -23.8758  -29.8198   23.5861 O   0  0  0  0  0  0  0  0  0  0  0  0
  -21.7339  -32.0195   21.4026 O   0  0  0  0  0  0  0  0  0  0  0  0
  -20.6496  -28.4634   18.4531 O   0  0  0  0  0  0  0  0  0  0  0  0
  -31.2375  -20.8825   17.8625 O   0  0  0  0  0  0  0  0  0  0  0  0
  -25.3719  -10.7936   21.6742 O   0  0  0  0  0  0  0  0  0  0  0  0
  -26.5483  -25.2725   19.6257 O   0  0  0  0  0  0  0  0  0  1  0  0
  -21.0314   -7.6269   20.4346 F   0  0  0  0  0  0  0  0  0  0  0  0
  -22.8154  -11.5361   22.4198 F   0  0  0  0  0  0  0  0  0  0  0  0
  1  2  1  0  0  0  0
  1  5  2  0  0  0  0
  2  6  2  0  0  0  0
  3  8  2  0  0  0  0
  3 17  1  0  0  0  0
  4  9  1  0  0  0  0
  4 17  2  0  0  0  0
  5 19  1  0  0  0  0
  6 21  1  0  0  0  0
  7 10  2  0  0  0  0
  7 20  1  0  0  0  0
  8 27  1  0  0  0  0
  9 27  2  0  0  0  0
 10 28  1  0  0  0  0
 11 12  2  0  0  0  0
 11 29  1  0  0  0  0
 12 30  1  0  0  0  0
 13 22  1  0  0  0  0
 13 28  2  0  0  0  0
 14 23  1  0  0  0  0
 14 24  2  0  0  0  0
 15 23  2  0  0  0  0
 15 26  1  0  0  0  0
 16 30  2  0  0  0  0
 16 31  1  0  0  0  0
 17 32  1  0  0  0  0
 18 32  1  0  0  0  0
 18 33  2  0  0  0  0
 18 36  1  0  0  0  0
 19 21  2  0  0  0  0
 19 42  1  0  0  0  0
 20 22  2  0  0  0  0
 20 43  1  0  0  0  0
 21 51  1  0  0  0  0
 22 44  1  0  0  0  0
 23 54  1  0  0  0  0
 24 25  1  0  0  0  0
 24 55  1  0  0  0  0
 25 26  2  0  0  0  0
 25 62  1  0  0  0  0
 26 73  1  0  0  0  0
 27 84  1  0  0  0  0
 28 85  1  0  0  0  0
 29 31  2  0  0  0  0
 29 84  1  0  0  0  0
 30 86  1  0  0  0  0
 31 87  1  0  0  0  0
 32 67  2  0  0  0  0
 33 68  1  0  0  0  0
 33 71  1  0  0  0  0
 34 35  2  0  0  0  0
 34 37  1  0  0  0  0
 35 63  1  0  0  0  0
 36 72  1  0  0  0  0
 36 78  2  0  0  0  0
 37 76  1  0  0  0  0
 37 79  2  0  0  0  0
 38 52  1  0  0  0  0
 38 74  1  0  0  0  0
 38 80  2  0  0  0  0
 39 64  1  0  0  0  0
 39 69  1  0  0  0  0
 39 81  2  0  0  0  0
 40 65  1  0  0  0  0
 40 75  1  0  0  0  0
 40 82  2  0  0  0  0
 41 70  1  0  0  0  0
 41 73  1  0  0  0  0
 41 83  2  0  0  0  0
 42 45  1  0  0  0  0
 43 52  1  0  0  0  0
 44 69  1  0  0  0  0
 45 47  1  0  0  0  0
 46 48  1  0  0  0  0
 46 49  1  0  0  0  0
 47 51  1  0  0  0  0
 48 53  1  0  0  0  0
 49 70  1  0  0  0  0
 50 53  1  0  0  0  0
 50 70  1  0  0  0  0
 51 74  1  0  0  0  0
 52 69  1  0  0  0  0
 53 68  1  0  0  0  0
 56 65  1  0  0  0  0
 57 66  1  0  0  0  0
 58 66  1  0  0  0  0
 59 66  1  0  0  0  0
 60 76  1  0  0  0  0
 61 77  1  0  0  0  0
 62 76  1  0  0  0  0
 63 85  1  0  0  0  0
 64 66  1  0  0  0  0
 64 75  1  0  0  0  0
 65 77  1  0  0  0  0
 67 68  1  0  0  0  0
M  CHG  1  77   1
M  ISO  4  41 100  63 101  73 100  85 101
M  END
> <Batch ID>
0049

> <Smiles>
CNC(C)C(=O)NC(C(=O)N1Cc2cc([101O:1][101CH2:1]C=CC(=O)N(C)Cc3c(C)cc(C)cc3[100NH:0][100C:0](=O)N3CCCC(n4nc(-c5ccc(Oc6ccc(F)cc6F)cc5)c(C(N)=O)c4N)C3)ccc2CC1C(=O)NC1CCCc2ccccc21)C(C)(C)C

> <Shape>
0.241

> <Color>
0.072

> <Negative vol penalty>
0.000

$$$$

  -OEChem-04042322323D

 84 92  0     1  0  0  0  0  0999 V2000
  -22.1173  -26.7623   21.9610 C   0  0  0  0  0  0  0  0  0  0  0  0
  -22.9549  -25.7610   21.4799 C   0  0  0  0  0  0  0  0  0  0  0  0
  -29.7318  -11.2891   19.6457 C   0  0  0  0  0  0  0  0  0  0  0  0
  -21.7903  -21.0775   22.3716 C   0  0  0  0  0  0  0  0  0  0  0  0
  -23.6297  -20.7891   23.9113 C   0  0  0  0  0  0  0  0  0  0  0  0
  -22.5220  -28.0953   21.9036 C   0  0  0  0  0  0  0  0  0  0  0  0
  -24.1972  -26.0923   20.9402 C   0  0  0  0  0  0  0  0  0  0  0  0
  -27.9010  -23.0535   22.5809 C   0  0  0  0  0  0  0  0  0  0  0  0
  -30.5433  -12.0202   18.7782 C   0  0  0  0  0  0  0  0  0  0  0  0
  -28.5888  -11.8741   20.1909 C   0  0  0  0  0  0  0  0  0  0  0  0
  -21.2143  -22.0100   23.2344 C   0  0  0  0  0  0  0  0  0  0  0  0
  -23.0538  -21.7217   24.7740 C   0  0  0  0  0  0  0  0  0  0  0  0
  -27.9930  -21.7901   21.9985 C   0  0  0  0  0  0  0  0  0  0  0  0
  -22.8073  -25.0846   24.9990 C   0  0  0  0  0  0  0  0  0  0  0  0
  -23.6423  -26.0546   25.5533 C   0  0  0  0  0  0  0  0  0  0  0  0
  -29.7751  -22.5813   20.5781 C   0  0  0  0  0  0  0  0  0  0  0  0
  -23.0881  -25.2657   27.7686 C   0  0  0  0  0  0  0  0  0  0  0  0
  -22.9980  -20.4670   22.7101 C   0  0  0  0  0  0  0  0  0  0  0  0
  -24.5052  -19.7580   20.7779 C   0  0  0  0  0  0  0  0  0  0  0  0
  -23.7739  -28.4423   21.3717 C   0  0  0  0  0  0  0  0  0  0  0  0
  -28.7394  -24.0950   22.1579 C   0  0  0  0  0  0  0  0  0  0  0  0
  -24.6184  -27.4314   20.8744 C   0  0  0  0  0  0  0  0  0  0  0  0
  -29.6935  -23.8563   21.1585 C   0  0  0  0  0  0  0  0  0  0  0  0
  -30.2119  -13.3362   18.4558 C   0  0  0  0  0  0  0  0  0  0  0  0
  -29.0689  -13.9212   19.0010 C   0  0  0  0  0  0  0  0  0  0  0  0
  -28.2574  -13.1901   19.8685 C   0  0  0  0  0  0  0  0  0  0  0  0
  -21.8460  -22.3321   24.4355 C   0  0  0  0  0  0  0  0  0  0  0  0
  -28.9282  -21.5546   20.9950 C   0  0  0  0  0  0  0  0  0  0  0  0
  -22.1125  -24.2052   25.8294 C   0  0  0  0  0  0  0  0  0  0  0  0
  -23.7828  -26.1451   26.9381 C   0  0  0  0  0  0  0  0  0  0  0  0
  -22.2530  -24.2957   27.2142 C   0  0  0  0  0  0  0  0  0  0  0  0
  -23.5931  -19.5033   21.8196 C   0  0  0  0  0  0  0  0  0  0  0  0
  -24.7642  -18.5219   20.2383 C   0  0  0  0  0  0  0  0  0  0  0  0
  -25.0680  -21.0010   20.3376 C   0  0  0  0  0  0  0  0  0  0  0  0
  -28.2803  -26.9410   20.8189 C   0  0  0  0  0  0  0  0  0  0  0  0
  -31.4785  -27.2369   21.2729 C   0  0  0  0  0  0  0  0  0  0  0  0
  -29.4091  -17.6643   19.2144 C   0  0  0  0  0  0  0  0  0  0  0  0
  -34.4990  -25.7052   21.6940 C   0  0  0  0  0  0  0  0  0  0  0  0
  -25.9204  -13.1048   20.8052 C   0  0  0  0  0  0  0  0  0  0  0  0
  -24.1479  -29.9010   21.2876 C   0  0  0  0  0  0  0  0  0  0  0  0
  -28.6458  -25.4448   22.8149 C   0  0  0  0  0  0  0  0  0  0  0  0
  -30.6306  -24.9351   20.6829 C   0  0  0  0  0  0  0  0  0  0  0  0
  -25.6365  -30.1350   21.0435 C   0  0  0  0  0  0  0  0  0  0  0  0
  -22.4951  -14.0596   20.9876 C   0  0  0  0  0  0  0  0  0  0  0  0
  -26.1439  -29.2267   19.9280 C   0  0  0  0  0  0  0  0  0  0  0  0
  -22.5505  -15.5819   21.1346 C   0  0  0  0  0  0  0  0  0  0  0  0
  -23.6343  -13.3753   21.7411 C   0  0  0  0  0  0  0  0  0  0  0  0
  -25.0334  -15.3956   21.5675 C   0  0  0  0  0  0  0  0  0  0  0  0
  -25.9838  -27.7487   20.3044 C   0  0  1  0  0  0  0  0  0  0  0  0
  -29.2002  -26.5710   21.9478 C   0  0  1  0  0  0  0  0  0  0  0  0
  -23.9436  -16.1328   20.7722 C   0  0  2  0  0  0  0  0  0  0  0  0
  -31.0981  -14.0965   17.5243 C   0  0  0  0  0  0  0  0  0  0  0  0
  -36.9378  -26.2100   22.0017 C   0  0  0  0  0  0  0  0  0  0  0  0
  -31.7109  -27.9108   18.3061 C   0  0  0  0  0  0  0  0  0  0  0  0
  -34.1697  -27.4683   18.4696 C   0  0  0  0  0  0  0  0  0  0  0  0
  -33.1433  -29.3060   19.8081 C   0  0  0  0  0  0  0  0  0  0  0  0
  -34.5615  -24.3686   24.3338 C   0  0  0  0  0  0  0  0  0  0  0  0
  -28.7162  -15.3379   18.6509 C   0  0  0  0  0  0  0  0  0  0  0  0
  -30.4356  -18.4134   20.0496 C   0  0  0  0  0  0  0  0  0  0  0  0
  -30.3016  -19.9245   19.9404 C   0  0  0  0  0  0  0  0  0  1  0  0
  -32.7086  -26.9033   20.4638 C   0  0  1  0  0  0  0  0  0  0  0  0
  -35.6140  -25.9356   22.6981 C   0  0  2  0  0  0  0  0  0  0  0  0
  -32.9143  -27.8771   19.2693 C   0  0  0  0  0  0  0  0  0  0  0  0
  -23.2928  -18.2070   21.9364 N   0  0  0  0  0  0  0  0  0  0  0  0
  -24.0202  -17.6363   20.9611 N   0  0  0  0  0  0  0  0  0  0  0  0
  -30.4960  -26.2398   21.3517 N   0  0  0  0  0  0  0  0  0  0  0  0
  -24.9233  -13.9456   21.3436 N   0  0  0  0  0  0  0  0  0  0  0  0
  -25.5534  -18.1168   19.2207 N   0  0  0  0  0  0  0  0  0  0  0  0
  -24.6944  -22.1766   21.0030 N   0  0  0  0  0  0  0  0  0  0  0  0
  -27.0915  -13.7641   20.4333 N   0  0  0  0  0  0  0  0  0  0  0  0
  -27.0239  -27.3466   21.2269 N   0  0  0  0  0  0  0  0  0  0  0  0
  -29.5593  -16.2904   19.3368 N   0  0  0  0  0  0  0  0  0  0  0  0
  -33.8212  -26.8711   21.4069 N   0  0  0  0  0  0  0  0  0  0  0  0
  -35.7809  -24.7388   23.5704 N   0  3  0  0  0  0  0  0  0  0  0  0
  -25.8656  -21.0692   19.3718 O   0  0  0  0  0  0  0  0  0  0  0  0
  -28.6812  -26.8656   19.6634 O   0  0  0  0  0  0  0  0  0  0  0  0
  -31.3957  -28.3389   21.8210 O   0  0  0  0  0  0  0  0  0  0  0  0
  -28.5621  -18.2260   18.5252 O   0  0  0  0  0  0  0  0  0  0  0  0
  -34.2561  -24.6020   21.2097 O   0  0  0  0  0  0  0  0  0  0  0  0
  -25.7378  -11.8936   20.6580 O   0  0  0  0  0  0  0  0  0  0  0  0
  -21.2844  -23.2422   25.2775 O   0  0  0  0  0  0  0  0  0  0  0  0
  -29.0196  -20.3226   20.4244 O   0  0  0  0  0  0  0  0  0  1  0  0
  -24.5860  -27.0757   27.4703 F   0  0  0  0  0  0  0  0  0  0  0  0
  -21.5890  -23.4529   28.0171 F   0  0  0  0  0  0  0  0  0  0  0  0
  1  2  1  0  0  0  0
  1  6  2  0  0  0  0
  2  7  2  0  0  0  0
  3  9  1  0  0  0  0
  3 10  2  0  0  0  0
  4 11  2  0  0  0  0
  4 18  1  0  0  0  0
  5 12  1  0  0  0  0
  5 18  2  0  0  0  0
  6 20  1  0  0  0  0
  7 22  1  0  0  0  0
  8 13  2  0  0  0  0
  8 21  1  0  0  0  0
  9 24  2  0  0  0  0
 10 26  1  0  0  0  0
 11 27  1  0  0  0  0
 12 27  2  0  0  0  0
 13 28  1  0  0  0  0
 14 15  2  0  0  0  0
 14 29  1  0  0  0  0
 15 30  1  0  0  0  0
 16 23  1  0  0  0  0
 16 28  2  0  0  0  0
 17 30  2  0  0  0  0
 17 31  1  0  0  0  0
 18 32  1  0  0  0  0
 19 32  1  0  0  0  0
 19 33  2  0  0  0  0
 19 34  1  0  0  0  0
 20 22  2  0  0  0  0
 20 40  1  0  0  0  0
 21 23  2  0  0  0  0
 21 41  1  0  0  0  0
 22 49  1  0  0  0  0
 23 42  1  0  0  0  0
 24 25  1  0  0  0  0
 24 52  1  0  0  0  0
 25 26  2  0  0  0  0
 25 58  1  0  0  0  0
 26 70  1  0  0  0  0
 27 81  1  0  0  0  0
 28 82  1  0  0  0  0
 29 31  2  0  0  0  0
 29 81  1  0  0  0  0
 30 83  1  0  0  0  0
 31 84  1  0  0  0  0
 32 64  2  0  0  0  0
 33 65  1  0  0  0  0
 33 68  1  0  0  0  0
 34 69  1  0  0  0  0
 34 75  2  0  0  0  0
 35 50  1  0  0  0  0
 35 71  1  0  0  0  0
 35 76  2  0  0  0  0
 36 61  1  0  0  0  0
 36 66  1  0  0  0  0
 36 77  2  0  0  0  0
 37 59  1  0  0  0  0
 37 72  1  0  0  0  0
 37 78  2  0  0  0  0
 38 62  1  0  0  0  0
 38 73  1  0  0  0  0
 38 79  2  0  0  0  0
 39 67  1  0  0  0  0
 39 70  1  0  0  0  0
 39 80  2  0  0  0  0
 40 43  1  0  0  0  0
 41 50  1  0  0  0  0
 42 66  1  0  0  0  0
 43 45  1  0  0  0  0
 44 46  1  0  0  0  0
 44 47  1  0  0  0  0
 45 49  1  0  0  0  0
 46 51  1  0  0  0  0
 47 67  1  0  0  0  0
 48 51  1  0  0  0  0
 48 67  1  0  0  0  0
 49 71  1  0  0  0  0
 50 66  1  0  0  0  0
 51 65  1  0  0  0  0
 53 62  1  0  0  0  0
 54 63  1  0  0  0  0
 55 63  1  0  0  0  0
 56 63  1  0  0  0  0
 57 74  1  0  0  0  0
 58 72  1  0  0  0  0
 59 60  1  0  0  0  0
 60 82  1  0  0  0  0
 61 63  1  0  0  0  0
 61 73  1  0  0  0  0
 62 74  1  0  0  0  0
 64 65  1  0  0  0  0
M  CHG  1  74   1
M  ISO  4  39 100  60 101  70 100  82 101
M  END
> <Batch ID>
0049

> <Smiles>
CNC(C)C(=O)NC(C(=O)N1Cc2cc([101O:1][101CH2:1]CC(=O)NCc3c(C)cccc3[100NH:0][100C:0](=O)N3CCCC(n4nc(-c5ccc(Oc6ccc(F)cc6F)cc5)c(C(N)=O)c4N)C3)ccc2CC1C(=O)NC1CCCc2ccccc21)C(C)(C)C

> <Shape>
0.196

> <Color>
0.068

> <Negative vol penalty>
0.000

$$$$

  -OEChem-04042322323D

 87 95  0     1  0  0  0  0  0999 V2000
  -29.4374  -33.1012   24.3427 C   0  0  0  0  0  0  0  0  0  0  0  0
  -30.2767  -32.0231   24.6048 C   0  0  0  0  0  0  0  0  0  0  0  0
  -23.0792   -9.8650   19.9404 C   0  0  0  0  0  0  0  0  0  0  0  0
  -23.8357   -9.8755   22.2349 C   0  0  0  0  0  0  0  0  0  0  0  0
  -28.0626  -32.9764   24.5383 C   0  0  0  0  0  0  0  0  0  0  0  0
  -29.7418  -30.8200   25.0639 C   0  0  0  0  0  0  0  0  0  0  0  0
  -31.7332  -25.1746   23.7715 C   0  0  0  0  0  0  0  0  0  0  0  0
  -22.3360   -8.7115   20.1907 C   0  0  0  0  0  0  0  0  0  0  0  0
  -23.0924   -8.7220   22.4852 C   0  0  0  0  0  0  0  0  0  0  0  0
  -32.5463  -24.2838   24.4709 C   0  0  0  0  0  0  0  0  0  0  0  0
  -19.8641   -7.9221   23.0839 C   0  0  0  0  0  0  0  0  0  0  0  0
  -19.1054   -7.8830   24.2537 C   0  0  0  0  0  0  0  0  0  0  0  0
  -30.4608  -18.3512   24.0436 C   0  0  0  0  0  0  0  0  0  0  0  0
  -30.5832  -23.1931   25.3518 C   0  0  0  0  0  0  0  0  0  0  0  0
  -32.0567  -16.6158   22.5521 C   0  0  0  0  0  0  0  0  0  0  0  0
  -20.3474   -5.9476   24.9945 C   0  0  0  0  0  0  0  0  0  0  0  0
  -23.8291  -10.4470   20.9625 C   0  0  0  0  0  0  0  0  0  0  0  0
  -31.8465  -18.3685   24.2017 C   0  0  0  0  0  0  0  0  0  0  0  0
  -24.1689  -12.9723   20.8398 C   0  0  0  0  0  0  0  0  0  0  0  0
  -27.5095  -31.7681   24.9908 C   0  0  0  0  0  0  0  0  0  0  0  0
  -30.3368  -25.0881   23.8659 C   0  0  0  0  0  0  0  0  0  0  0  0
  -28.3585  -30.6794   25.2671 C   0  0  0  0  0  0  0  0  0  0  0  0
  -29.7546  -24.0825   24.6506 C   0  0  0  0  0  0  0  0  0  0  0  0
  -30.6709  -16.5985   22.3941 C   0  0  0  0  0  0  0  0  0  0  0  0
  -22.3426   -8.1400   21.4631 C   0  0  0  0  0  0  0  0  0  0  0  0
  -31.9713  -23.2947   25.2635 C   0  0  0  0  0  0  0  0  0  0  0  0
  -20.8644   -6.9739   22.8693 C   0  0  0  0  0  0  0  0  0  0  0  0
  -19.3471   -6.8958   25.2090 C   0  0  0  0  0  0  0  0  0  0  0  0
  -29.8730  -17.4661   23.1398 C   0  0  0  0  0  0  0  0  0  0  0  0
  -32.6445  -17.5009   23.4560 C   0  0  0  0  0  0  0  0  0  0  0  0
  -21.1061   -5.9867   23.8246 C   0  0  0  0  0  0  0  0  0  0  0  0
  -24.5975  -11.6383   20.7044 C   0  0  0  0  0  0  0  0  0  0  0  0
  -25.2609  -13.7223   20.4773 C   0  0  0  0  0  0  0  0  0  0  0  0
  -32.4661  -19.3064   25.1593 C   0  0  0  0  0  0  0  0  0  0  0  0
  -22.8973  -13.4875   21.2562 C   0  0  0  0  0  0  0  0  0  0  0  0
  -28.0354  -27.0159   24.9103 C   0  0  0  0  0  0  0  0  0  0  0  0
  -26.0955  -24.7017   23.7257 C   0  0  0  0  0  0  0  0  0  0  0  0
  -25.6948  -21.4307   22.8387 C   0  0  0  0  0  0  0  0  0  0  0  0
  -30.7259  -14.7730   20.6588 C   0  0  0  0  0  0  0  0  0  0  0  0
  -26.0226  -31.6959   25.2326 C   0  0  0  0  0  0  0  0  0  0  0  0
  -29.4734  -26.0399   23.0840 C   0  0  0  0  0  0  0  0  0  0  0  0
  -28.2605  -23.9344   24.7694 C   0  0  0  0  0  0  0  0  0  0  0  0
  -25.4954  -30.2693   25.3637 C   0  0  0  0  0  0  0  0  0  0  0  0
  -29.6172  -12.3552   18.2919 C   0  0  0  0  0  0  0  0  0  0  0  0
  -26.3868  -29.4543   26.2954 C   0  0  0  0  0  0  0  0  0  0  0  0
  -28.1772  -12.0629   18.7197 C   0  0  0  0  0  0  0  0  0  0  0  0
  -30.5303  -12.5864   19.4946 C   0  0  0  0  0  0  0  0  0  0  0  0
  -28.6206  -13.3109   20.8721 C   0  0  0  0  0  0  0  0  0  0  0  0
  -27.8133  -29.3502   25.7426 C   0  0  1  0  0  0  0  0  0  0  0  0
  -28.0681  -26.1828   23.6603 C   0  0  1  0  0  0  0  0  0  0  0  0
  -27.6497  -13.1353   19.6931 C   0  0  2  0  0  0  0  0  0  0  0  0
  -23.9857  -19.8290   21.9380 C   0  0  0  0  0  0  0  0  0  0  0  0
  -36.5136  -20.6593   24.2845 C   0  0  0  0  0  0  0  0  0  0  0  0
  -36.2586  -18.9878   26.1346 C   0  0  0  0  0  0  0  0  0  0  0  0
  -24.7453  -24.6084   26.4603 C   0  0  0  0  0  0  0  0  0  0  0  0
  -23.7412  -22.4084   25.8120 C   0  0  0  0  0  0  0  0  0  0  0  0
  -23.1773  -24.4647   24.5173 C   0  0  0  0  0  0  0  0  0  0  0  0
  -27.3269  -20.8586   20.4370 C   0  0  0  0  0  0  0  0  0  0  0  0
  -34.0304  -22.1097   25.3731 C   0  0  0  0  0  0  0  0  0  1  0  0
  -25.4761  -23.4401   24.2770 C   0  0  1  0  0  0  0  0  0  0  0  0
  -25.1132  -20.7891   21.5918 C   0  0  2  0  0  0  0  0  0  0  0  0
  -35.9314  -20.4135   25.6791 C   0  0  0  0  0  0  0  0  0  0  0  0
  -34.4177  -20.6888   25.7733 C   0  0  2  0  0  0  0  0  0  0  0  0
  -24.3132  -23.7341   25.2662 C   0  0  0  0  0  0  0  0  0  0  0  0
  -25.8631  -11.5430   20.2882 N   0  0  0  0  0  0  0  0  0  0  0  0
  -26.2390  -12.8268   20.1588 N   0  0  0  0  0  0  0  0  0  0  0  0
  -27.4589  -24.8929   23.9908 N   0  0  0  0  0  0  0  0  0  0  0  0
  -29.9691  -13.6178   20.3699 N   0  0  0  0  0  0  0  0  0  0  0  0
  -25.4702  -15.0539   20.4029 N   0  0  0  0  0  0  0  0  0  0  0  0
  -31.7651  -19.6579   26.2372 N   0  0  0  0  0  0  0  0  0  0  0  0
  -21.8857  -12.5779   21.5931 N   0  0  0  0  0  0  0  0  0  0  0  0
  -30.0765  -15.6985   21.4751 N   0  0  0  0  0  0  0  0  0  0  0  0
  -27.8735  -28.3689   24.6806 N   0  0  0  0  0  0  0  0  0  0  0  0
  -25.0896  -22.6368   23.1221 N   0  0  0  0  0  0  0  0  0  0  0  0
  -33.6947  -19.7552   24.8944 N   0  3  0  0  0  0  0  0  0  0  0  0
  -26.1671  -20.0317   20.8593 N   0  3  0  0  0  0  0  0  0  0  0  0
  -22.6599  -14.7180   21.3116 O   0  0  0  0  0  0  0  0  0  0  0  0
  -28.1471  -26.4714   26.0024 O   0  0  0  0  0  0  0  0  0  0  0  0
  -25.3970  -25.4850   23.0774 O   0  0  0  0  0  0  0  0  0  0  0  0
  -26.5933  -20.9119   23.4975 O   0  0  0  0  0  0  0  0  0  0  0  0
  -31.8555  -14.9422   20.1927 O   0  0  0  0  0  0  0  0  0  0  0  0
  -21.6173   -7.0146   21.7078 O   0  0  0  0  0  0  0  0  0  0  0  0
  -32.7626  -22.4243   25.9477 O   0  0  0  0  0  0  0  0  0  1  0  0
  -18.6195   -6.8592   26.3331 F   0  0  0  0  0  0  0  0  0  0  0  0
  -28.5399  -17.4579   22.9961 F   0  0  0  0  0  0  0  0  0  0  0  0
  -33.9770  -17.5100   23.6011 F   0  0  0  0  0  0  0  0  0  0  0  0
  -22.0665   -5.0738   23.6246 F   0  0  0  0  0  0  0  0  0  0  0  0
  1  2  1  0  0  0  0
  1  5  2  0  0  0  0
  2  6  2  0  0  0  0
  3  8  2  0  0  0  0
  3 17  1  0  0  0  0
  4  9  1  0  0  0  0
  4 17  2  0  0  0  0
  5 20  1  0  0  0  0
  6 22  1  0  0  0  0
  7 10  2  0  0  0  0
  7 21  1  0  0  0  0
  8 25  1  0  0  0  0
  9 25  2  0  0  0  0
 10 26  1  0  0  0  0
 11 12  2  0  0  0  0
 11 27  1  0  0  0  0
 12 28  1  0  0  0  0
 13 18  1  0  0  0  0
 13 29  2  0  0  0  0
 14 23  1  0  0  0  0
 14 26  2  0  0  0  0
 15 24  2  0  0  0  0
 15 30  1  0  0  0  0
 16 28  2  0  0  0  0
 16 31  1  0  0  0  0
 17 32  1  0  0  0  0
 18 30  2  0  0  0  0
 18 34  1  0  0  0  0
 19 32  1  0  0  0  0
 19 33  2  0  0  0  0
 19 35  1  0  0  0  0
 20 22  2  0  0  0  0
 20 40  1  0  0  0  0
 21 23  2  0  0  0  0
 21 41  1  0  0  0  0
 22 49  1  0  0  0  0
 23 42  1  0  0  0  0
 24 29  1  0  0  0  0
 24 72  1  0  0  0  0
 25 82  1  0  0  0  0
 26 83  1  0  0  0  0
 27 31  2  0  0  0  0
 27 82  1  0  0  0  0
 28 84  1  0  0  0  0
 29 85  1  0  0  0  0
 30 86  1  0  0  0  0
 31 87  1  0  0  0  0
 32 65  2  0  0  0  0
 33 66  1  0  0  0  0
 33 69  1  0  0  0  0
 34 70  1  0  0  0  0
 34 75  2  0  0  0  0
 35 71  1  0  0  0  0
 35 77  2  0  0  0  0
 36 50  1  0  0  0  0
 36 73  1  0  0  0  0
 36 78  2  0  0  0  0
 37 60  1  0  0  0  0
 37 67  1  0  0  0  0
 37 79  2  0  0  0  0
 38 61  1  0  0  0  0
 38 74  1  0  0  0  0
 38 80  2  0  0  0  0
 39 68  1  0  0  0  0
 39 72  1  0  0  0  0
 39 81  2  0  0  0  0
 40 43  1  0  0  0  0
 41 50  1  0  0  0  0
 42 67  1  0  0  0  0
 43 45  1  0  0  0  0
 44 46  1  0  0  0  0
 44 47  1  0  0  0  0
 45 49  1  0  0  0  0
 46 51  1  0  0  0  0
 47 68  1  0  0  0  0
 48 51  1  0  0  0  0
 48 68  1  0  0  0  0
 49 73  1  0  0  0  0
 50 67  1  0  0  0  0
 51 66  1  0  0  0  0
 52 61  1  0  0  0  0
 53 62  1  0  0  0  0
 54 62  1  0  0  0  0
 55 64  1  0  0  0  0
 56 64  1  0  0  0  0
 57 64  1  0  0  0  0
 58 76  1  0  0  0  0
 59 63  1  0  0  0  0
 59 83  1  0  0  0  0
 60 64  1  0  0  0  0
 60 74  1  0  0  0  0
 61 76  1  0  0  0  0
 62 63  1  0  0  0  0
 63 75  1  0  0  0  0
 65 66  1  0  0  0  0
M  CHG  2  75   1  76   1
M  ISO  4  39 100  59 101  72 100  83 101
M  END
> <Batch ID>
0049

> <Smiles>
CNC(C)C(=O)NC(C(=O)N1Cc2cc([101O:1][101CH2:1]C(NC(=N)c3cc(F)c([100NH:0][100C:0](=O)N4CCCC(n5nc(-c6ccc(Oc7ccc(F)cc7F)cc6)c(C(N)=O)c5N)C4)cc3F)C(C)C)ccc2CC1C(=O)NC1CCCc2ccccc21)C(C)(C)C

> <Shape>
0.216

> <Color>
0.184

> <Negative vol penalty>
0.000

$$$$

  -OEChem-04042322323D

 82 90  0     1  0  0  0  0  0999 V2000
  -27.5066  -30.6688   28.4776 C   0  0  0  0  0  0  0  0  0  0  0  0
  -27.5613  -29.8117   27.3832 C   0  0  0  0  0  0  0  0  0  0  0  0
  -24.5036  -10.0577   22.6091 C   0  0  0  0  0  0  0  0  0  0  0  0
  -24.5217  -11.6450   24.4304 C   0  0  0  0  0  0  0  0  0  0  0  0
  -26.3533  -31.4132   28.7217 C   0  0  0  0  0  0  0  0  0  0  0  0
  -26.4621  -29.6976   26.5328 C   0  0  0  0  0  0  0  0  0  0  0  0
  -27.7730  -29.7776   21.6420 C   0  0  0  0  0  0  0  0  0  0  0  0
  -24.0803   -9.0578   23.4847 C   0  0  0  0  0  0  0  0  0  0  0  0
  -24.0984  -10.6451   25.3060 C   0  0  0  0  0  0  0  0  0  0  0  0
  -28.3011  -28.6044   21.1051 C   0  0  0  0  0  0  0  0  0  0  0  0
  -21.1914   -8.0901   24.9511 C   0  0  0  0  0  0  0  0  0  0  0  0
  -20.1546   -7.2569   24.5311 C   0  0  0  0  0  0  0  0  0  0  0  0
  -26.1521  -28.0864   20.1391 C   0  0  0  0  0  0  0  0  0  0  0  0
  -30.0156  -20.0454   20.9101 C   0  0  0  0  0  0  0  0  0  0  0  0
  -27.6079  -20.1024   20.7179 C   0  0  0  0  0  0  0  0  0  0  0  0
  -21.6074   -5.3389   24.7493 C   0  0  0  0  0  0  0  0  0  0  0  0
  -24.7244  -11.3513   23.0820 C   0  0  0  0  0  0  0  0  0  0  0  0
  -28.8390  -22.1480   21.0879 C   0  0  0  0  0  0  0  0  0  0  0  0
  -24.3515  -13.2562   21.4267 C   0  0  0  0  0  0  0  0  0  0  0  0
  -25.2429  -31.3154   27.8684 C   0  0  0  0  0  0  0  0  0  0  0  0
  -26.4255  -30.1092   21.4404 C   0  0  0  0  0  0  0  0  0  0  0  0
  -25.2923  -30.4403   26.7665 C   0  0  0  0  0  0  0  0  0  0  0  0
  -25.6101  -29.2657   20.6724 C   0  0  0  0  0  0  0  0  0  0  0  0
  -30.0338  -21.4281   21.0926 C   0  0  0  0  0  0  0  0  0  0  0  0
  -28.8027  -19.3825   20.7227 C   0  0  0  0  0  0  0  0  0  0  0  0
  -23.8777   -9.3515   24.8331 C   0  0  0  0  0  0  0  0  0  0  0  0
  -27.4899  -27.7571   20.3559 C   0  0  0  0  0  0  0  0  0  0  0  0
  -22.4363   -7.5477   25.2702 C   0  0  0  0  0  0  0  0  0  0  0  0
  -20.3626   -5.8814   24.4302 C   0  0  0  0  0  0  0  0  0  0  0  0
  -22.6443   -6.1722   25.1693 C   0  0  0  0  0  0  0  0  0  0  0  0
  -27.6261  -21.4851   20.9005 C   0  0  0  0  0  0  0  0  0  0  0  0
  -25.1622  -12.3844   22.1781 C   0  0  0  0  0  0  0  0  0  0  0  0
  -25.2409  -14.0413   20.7347 C   0  0  0  0  0  0  0  0  0  0  0  0
  -28.8817  -23.6071   21.2812 C   0  0  0  0  0  0  0  0  0  0  0  0
  -29.0154  -24.5143   20.3012 C   0  0  0  0  0  0  0  0  0  0  0  0
  -22.9222  -13.3481   21.3603 C   0  0  0  0  0  0  0  0  0  0  0  0
  -23.9143  -30.5457   23.3397 C   0  0  0  0  0  0  0  0  0  0  0  0
  -22.4753  -31.4550   20.5784 C   0  0  0  0  0  0  0  0  0  0  0  0
  -22.3829  -31.2957   17.1706 C   0  0  0  0  0  0  0  0  0  0  0  0
  -29.8790  -17.1143   20.5150 C   0  0  0  0  0  0  0  0  0  0  0  0
  -24.0010  -32.1043   28.1998 C   0  0  0  0  0  0  0  0  0  0  0  0
  -25.8779  -31.3918   22.0038 C   0  0  0  0  0  0  0  0  0  0  0  0
  -24.1621  -29.5863   20.4097 C   0  0  0  0  0  0  0  0  0  0  0  0
  -23.0166  -32.2073   27.0376 C   0  0  0  0  0  0  0  0  0  0  0  0
  -30.2457  -13.5945   20.1225 C   0  0  0  0  0  0  0  0  0  0  0  0
  -22.8145  -30.8427   26.3867 C   0  0  0  0  0  0  0  0  0  0  0  0
  -28.8891  -13.0377   20.5605 C   0  0  0  0  0  0  0  0  0  0  0  0
  -30.6626  -14.7993   20.9642 C   0  0  0  0  0  0  0  0  0  0  0  0
  -28.3106  -15.3191   21.4810 C   0  0  0  0  0  0  0  0  0  0  0  0
  -24.1295  -30.3078   25.8071 C   0  0  1  0  0  0  0  0  0  0  0  0
  -24.3613  -31.3730   22.1677 C   0  0  1  0  0  0  0  0  0  0  0  0
  -27.8182  -14.1445   20.6200 C   0  0  2  0  0  0  0  0  0  0  0  0
  -31.3555  -22.0995   21.2890 C   0  0  0  0  0  0  0  0  0  0  0  0
  -21.0689  -32.1134   15.1953 C   0  0  0  0  0  0  0  0  0  0  0  0
  -20.2859  -29.4216   21.1963 C   0  0  0  0  0  0  0  0  0  0  0  0
  -19.5490  -29.5939   18.8097 C   0  0  0  0  0  0  0  0  0  0  0  0
  -19.4598  -31.6007   20.2888 C   0  0  0  0  0  0  0  0  0  0  0  0
  -24.7237  -32.7246   16.0580 C   0  0  0  0  0  0  0  0  0  0  0  0
  -29.0676  -25.9879   20.5483 C   0  0  0  0  0  0  0  0  0  1  0  0
  -21.7022  -30.7468   19.4922 C   0  0  1  0  0  0  0  0  0  0  0  0
  -22.2507  -32.3785   16.1149 C   0  0  2  0  0  0  0  0  0  0  0  0
  -20.2760  -30.3335   19.9531 C   0  0  0  0  0  0  0  0  0  0  0  0
  -26.4664  -12.5955   21.9818 N   0  0  0  0  0  0  0  0  0  0  0  0
  -26.4820  -13.6088   21.0992 N   0  0  0  0  0  0  0  0  0  0  0  0
  -23.6716  -30.8487   20.9872 N   0  0  0  0  0  0  0  0  0  0  0  0
  -29.6011  -15.8083   20.9709 N   0  0  0  0  0  0  0  0  0  0  0  0
  -25.0747  -15.0526   19.8560 N   0  0  0  0  0  0  0  0  0  0  0  0
  -22.1591  -12.4651   22.1364 N   0  0  0  0  0  0  0  0  0  0  0  0
  -28.7843  -17.9779   20.5372 N   0  0  0  0  0  0  0  0  0  0  0  0
  -24.4315  -30.9615   24.5518 N   0  0  0  0  0  0  0  0  0  0  0  0
  -21.7223  -31.6325   18.3331 N   0  0  0  0  0  0  0  0  0  0  0  0
  -23.4864  -32.4459   15.2845 N   0  3  0  0  0  0  0  0  0  0  0  0
  -22.3389  -14.1774   20.6217 O   0  0  0  0  0  0  0  0  0  0  0  0
  -23.1553  -29.6010   23.1580 O   0  0  0  0  0  0  0  0  0  0  0  0
  -22.0376  -32.5110   21.0419 O   0  0  0  0  0  0  0  0  0  0  0  0
  -23.0065  -30.2536   16.9816 O   0  0  0  0  0  0  0  0  0  0  0  0
  -30.9984  -17.4349   20.1073 O   0  0  0  0  0  0  0  0  0  0  0  0
  -23.4644   -8.3761   25.6878 O   0  0  0  0  0  0  0  0  0  0  0  0
  -28.0026  -26.6109   19.8313 O   0  0  0  0  0  0  0  0  0  1  0  0
  -19.3664   -5.0812   24.0284 F   0  0  0  0  0  0  0  0  0  0  0  0
  -23.8377   -5.6452   25.4756 F   0  0  0  0  0  0  0  0  0  0  0  0
  -26.1129  -22.3238   20.8852 Cl  0  0  0  0  0  0  0  0  0  0  0  0
  1  2  1  0  0  0  0
  1  5  2  0  0  0  0
  2  6  2  0  0  0  0
  3  8  2  0  0  0  0
  3 17  1  0  0  0  0
  4  9  1  0  0  0  0
  4 17  2  0  0  0  0
  5 20  1  0  0  0  0
  6 22  1  0  0  0  0
  7 10  2  0  0  0  0
  7 21  1  0  0  0  0
  8 26  1  0  0  0  0
  9 26  2  0  0  0  0
 10 27  1  0  0  0  0
 11 12  2  0  0  0  0
 11 28  1  0  0  0  0
 12 29  1  0  0  0  0
 13 23  1  0  0  0  0
 13 27  2  0  0  0  0
 14 24  2  0  0  0  0
 14 25  1  0  0  0  0
 15 25  2  0  0  0  0
 15 31  1  0  0  0  0
 16 29  2  0  0  0  0
 16 30  1  0  0  0  0
 17 32  1  0  0  0  0
 18 24  1  0  0  0  0
 18 31  2  0  0  0  0
 18 34  1  0  0  0  0
 19 32  1  0  0  0  0
 19 33  2  0  0  0  0
 19 36  1  0  0  0  0
 20 22  2  0  0  0  0
 20 41  1  0  0  0  0
 21 23  2  0  0  0  0
 21 42  1  0  0  0  0
 22 50  1  0  0  0  0
 23 43  1  0  0  0  0
 24 53  1  0  0  0  0
 25 69  1  0  0  0  0
 26 78  1  0  0  0  0
 27 79  1  0  0  0  0
 28 30  2  0  0  0  0
 28 78  1  0  0  0  0
 29 80  1  0  0  0  0
 30 81  1  0  0  0  0
 31 82  1  0  0  0  0
 32 63  2  0  0  0  0
 33 64  1  0  0  0  0
 33 67  1  0  0  0  0
 34 35  2  0  0  0  0
 35 59  1  0  0  0  0
 36 68  1  0  0  0  0
 36 73  2  0  0  0  0
 37 51  1  0  0  0  0
 37 70  1  0  0  0  0
 37 74  2  0  0  0  0
 38 60  1  0  0  0  0
 38 65  1  0  0  0  0
 38 75  2  0  0  0  0
 39 61  1  0  0  0  0
 39 71  1  0  0  0  0
 39 76  2  0  0  0  0
 40 66  1  0  0  0  0
 40 69  1  0  0  0  0
 40 77  2  0  0  0  0
 41 44  1  0  0  0  0
 42 51  1  0  0  0  0
 43 65  1  0  0  0  0
 44 46  1  0  0  0  0
 45 47  1  0  0  0  0
 45 48  1  0  0  0  0
 46 50  1  0  0  0  0
 47 52  1  0  0  0  0
 48 66  1  0  0  0  0
 49 52  1  0  0  0  0
 49 66  1  0  0  0  0
 50 70  1  0  0  0  0
 51 65  1  0  0  0  0
 52 64  1  0  0  0  0
 54 61  1  0  0  0  0
 55 62  1  0  0  0  0
 56 62  1  0  0  0  0
 57 62  1  0  0  0  0
 58 72  1  0  0  0  0
 59 79  1  0  0  0  0
 60 62  1  0  0  0  0
 60 71  1  0  0  0  0
 61 72  1  0  0  0  0
 63 64  1  0  0  0  0
M  CHG  1  72   1
M  ISO  4  40 100  59 101  69 100  79 101
M  END
> <Batch ID>
0049

> <Smiles>
CNC(C)C(=O)NC(C(=O)N1Cc2cc([101O:1][101CH2:1]C=Cc3c(C)cc([100NH:0][100C:0](=O)N4CCCC(n5nc(-c6ccc(Oc7ccc(F)cc7F)cc6)c(C(N)=O)c5N)C4)cc3Cl)ccc2CC1C(=O)NC1CCCc2ccccc21)C(C)(C)C

> <Shape>
0.274

> <Color>
0.132

> <Negative vol penalty>
0.000

$$$$

  -OEChem-04042322323D

 85 93  0     1  0  0  0  0  0999 V2000
  -27.9436  -24.3333   16.9633 C   0  0  0  0  0  0  0  0  0  0  0  0
  -26.7738  -24.5607   17.6813 C   0  0  0  0  0  0  0  0  0  0  0  0
  -26.9776  -15.0153   19.6414 C   0  0  0  0  0  0  0  0  0  0  0  0
  -24.7490  -15.1428   20.5656 C   0  0  0  0  0  0  0  0  0  0  0  0
  -21.4265  -23.5017   26.3605 C   0  0  0  0  0  0  0  0  0  0  0  0
  -29.1526  -24.8579   17.4184 C   0  0  0  0  0  0  0  0  0  0  0  0
  -26.8126  -25.3120   18.8554 C   0  0  0  0  0  0  0  0  0  0  0  0
  -23.0552  -28.6967   19.1210 C   0  0  0  0  0  0  0  0  0  0  0  0
  -26.9860  -13.6365   19.8518 C   0  0  0  0  0  0  0  0  0  0  0  0
  -24.7574  -13.7639   20.7760 C   0  0  0  0  0  0  0  0  0  0  0  0
  -21.7936  -28.2209   19.4757 C   0  0  0  0  0  0  0  0  0  0  0  0
  -24.3178  -10.9627   18.9374 C   0  0  0  0  0  0  0  0  0  0  0  0
  -23.1784  -10.2460   18.5718 C   0  0  0  0  0  0  0  0  0  0  0  0
  -22.5747  -23.0534   27.0133 C   0  0  0  0  0  0  0  0  0  0  0  0
  -22.1467  -28.9869   21.7357 C   0  0  0  0  0  0  0  0  0  0  0  0
  -22.9089   -9.5089   20.8568 C   0  0  0  0  0  0  0  0  0  0  0  0
  -25.8591  -15.7686   19.9983 C   0  0  0  0  0  0  0  0  0  0  0  0
  -21.3227  -23.3872   24.9742 C   0  0  0  0  0  0  0  0  0  0  0  0
  -25.4116  -17.8752   18.6310 C   0  0  0  0  0  0  0  0  0  0  0  0
  -29.2046  -25.6242   18.5935 C   0  0  0  0  0  0  0  0  0  0  0  0
  -23.8778  -29.3124   20.0753 C   0  0  0  0  0  0  0  0  0  0  0  0
  -28.0237  -25.8462   19.3273 C   0  0  0  0  0  0  0  0  0  0  0  0
  -23.4173  -29.4719   21.3900 C   0  0  0  0  0  0  0  0  0  0  0  0
  -22.3673  -22.8244   24.2407 C   0  0  0  0  0  0  0  0  0  0  0  0
  -23.5155  -22.3761   24.8935 C   0  0  0  0  0  0  0  0  0  0  0  0
  -25.8759  -13.0108   20.4191 C   0  0  0  0  0  0  0  0  0  0  0  0
  -21.3403  -28.3634   20.7839 C   0  0  0  0  0  0  0  0  0  0  0  0
  -24.7528  -10.9525   20.2627 C   0  0  0  0  0  0  0  0  0  0  0  0
  -22.4740   -9.5191   19.5315 C   0  0  0  0  0  0  0  0  0  0  0  0
  -24.0483  -10.2257   21.2224 C   0  0  0  0  0  0  0  0  0  0  0  0
  -23.6193  -22.4906   26.2799 C   0  0  0  0  0  0  0  0  0  0  0  0
  -25.8500  -17.1930   19.7818 C   0  0  0  0  0  0  0  0  0  0  0  0
  -25.6078  -19.2028   18.9232 C   0  0  0  0  0  0  0  0  0  0  0  0
  -20.0865  -23.8724   24.3084 C   0  0  0  0  0  0  0  0  0  0  0  0
  -24.8748  -17.3552   17.4074 C   0  0  0  0  0  0  0  0  0  0  0  0
  -26.7327  -28.6772   21.3202 C   0  0  0  0  0  0  0  0  0  0  0  0
  -26.3194  -31.5606   22.7477 C   0  0  0  0  0  0  0  0  0  0  0  0
  -24.1631  -33.9649   23.8507 C   0  0  0  0  0  0  0  0  0  0  0  0
  -25.8870  -22.2559   24.0521 C   0  0  0  0  0  0  0  0  0  0  0  0
  -30.5425  -26.1307   19.0711 C   0  0  0  0  0  0  0  0  0  0  0  0
  -25.2253  -29.8441   19.6704 C   0  0  0  0  0  0  0  0  0  0  0  0
  -24.2537  -30.1437   22.4472 C   0  0  0  0  0  0  0  0  0  0  0  0
  -30.4367  -27.2311   20.1238 C   0  0  0  0  0  0  0  0  0  0  0  0
  -28.3980  -22.0901   21.5333 C   0  0  0  0  0  0  0  0  0  0  0  0
  -29.4204  -26.8489   21.1953 C   0  0  0  0  0  0  0  0  0  0  0  0
  -27.9863  -20.8812   20.6899 C   0  0  0  0  0  0  0  0  0  0  0  0
  -28.1132  -21.8694   23.0178 C   0  0  0  0  0  0  0  0  0  0  0  0
  -26.3242  -20.2602   22.4896 C   0  0  0  0  0  0  0  0  0  0  0  0
  -28.0211  -26.6770   20.5922 C   0  0  1  0  0  0  0  0  0  0  0  0
  -26.1863  -29.9940   20.8457 C   0  0  1  0  0  0  0  0  0  0  0  0
  -26.5319  -20.4610   20.9796 C   0  0  2  0  0  0  0  0  0  0  0  0
  -22.2497  -22.7035   22.7526 C   0  0  0  0  0  0  0  0  0  0  0  0
  -24.1195  -36.1902   25.0096 C   0  0  0  0  0  0  0  0  0  0  0  0
  -26.8768  -30.1814   25.4117 C   0  0  0  0  0  0  0  0  0  0  0  0
  -25.9028  -32.1765   26.5689 C   0  0  0  0  0  0  0  0  0  0  0  0
  -27.9439  -32.4288   25.1572 C   0  0  0  0  0  0  0  0  0  0  0  0
  -22.8889  -35.2809   21.5261 C   0  0  0  0  0  0  0  0  0  0  0  0
  -18.8649  -26.3813   22.5129 C   0  0  0  0  0  0  0  0  0  0  0  0
  -18.6184  -25.8329   23.9120 C   0  0  0  0  0  0  0  0  0  0  0  0
  -19.9383  -27.4624   22.4805 C   0  0  0  0  0  0  0  0  0  1  0  0
  -25.7083  -32.0337   24.0445 C   0  0  1  0  0  0  0  0  0  0  0  0
  -24.1568  -35.4721   23.6696 C   0  0  2  0  0  0  0  0  0  0  0  0
  -26.5927  -31.6907   25.2764 C   0  0  0  0  0  0  0  0  0  0  0  0
  -26.2916  -18.0191   20.7340 N   0  0  0  0  0  0  0  0  0  0  0  0
  -26.1318  -19.2339   20.1820 N   0  0  0  0  0  0  0  0  0  0  0  0
  -25.5664  -30.6413   22.0037 N   0  0  0  0  0  0  0  0  0  0  0  0
  -26.7159  -21.4782   23.2161 N   0  0  0  0  0  0  0  0  0  0  0  0
  -25.3816  -20.3349   18.2235 N   0  0  0  0  0  0  0  0  0  0  0  0
  -24.7407  -15.9665   17.2735 N   0  0  0  0  0  0  0  0  0  0  0  0
  -24.5701  -21.8055   24.1385 N   0  0  0  0  0  0  0  0  0  0  0  0
  -19.7906  -25.2209   24.4737 N   0  0  0  0  0  0  0  0  0  0  0  0
  -27.4134  -27.9678   20.3492 N   0  0  0  0  0  0  0  0  0  0  0  0
  -25.4455  -33.4588   23.8759 N   0  0  0  0  0  0  0  0  0  0  0  0
  -22.9671  -35.8936   22.8772 N   0  3  0  0  0  0  0  0  0  0  0  0
  -19.3928  -23.0782   23.6786 O   0  0  0  0  0  0  0  0  0  0  0  0
  -24.5399  -18.0991   16.4545 O   0  0  0  0  0  0  0  0  0  0  0  0
  -26.5516  -28.3312   22.4817 O   0  0  0  0  0  0  0  0  0  0  0  0
  -27.4211  -31.9963   22.4039 O   0  0  0  0  0  0  0  0  0  0  0  0
  -23.1335  -33.3031   23.9625 O   0  0  0  0  0  0  0  0  0  0  0  0
  -26.3070  -23.2640   24.6260 O   0  0  0  0  0  0  0  0  0  0  0  0
  -25.8837  -11.6653   20.6243 O   0  0  0  0  0  0  0  0  0  0  0  0
  -20.1096  -27.8993   21.1329 O   0  0  0  0  0  0  0  0  0  1  0  0
  -21.3790   -8.8321   19.1805 F   0  0  0  0  0  0  0  0  0  0  0  0
  -24.4606  -10.2130   22.4974 F   0  0  0  0  0  0  0  0  0  0  0  0
  -25.0207  -21.9478   27.1329 Cl  0  0  0  0  0  0  0  0  0  0  0  0
  1  2  1  0  0  0  0
  1  6  2  0  0  0  0
  2  7  2  0  0  0  0
  3  9  2  0  0  0  0
  3 17  1  0  0  0  0
  4 10  1  0  0  0  0
  4 17  2  0  0  0  0
  5 14  2  0  0  0  0
  5 18  1  0  0  0  0
  6 20  1  0  0  0  0
  7 22  1  0  0  0  0
  8 11  2  0  0  0  0
  8 21  1  0  0  0  0
  9 26  1  0  0  0  0
 10 26  2  0  0  0  0
 11 27  1  0  0  0  0
 12 13  2  0  0  0  0
 12 28  1  0  0  0  0
 13 29  1  0  0  0  0
 14 31  1  0  0  0  0
 15 23  1  0  0  0  0
 15 27  2  0  0  0  0
 16 29  2  0  0  0  0
 16 30  1  0  0  0  0
 17 32  1  0  0  0  0
 18 24  2  0  0  0  0
 18 34  1  0  0  0  0
 19 32  1  0  0  0  0
 19 33  2  0  0  0  0
 19 35  1  0  0  0  0
 20 22  2  0  0  0  0
 20 40  1  0  0  0  0
 21 23  2  0  0  0  0
 21 41  1  0  0  0  0
 22 49  1  0  0  0  0
 23 42  1  0  0  0  0
 24 25  1  0  0  0  0
 24 52  1  0  0  0  0
 25 31  2  0  0  0  0
 25 70  1  0  0  0  0
 26 81  1  0  0  0  0
 27 82  1  0  0  0  0
 28 30  2  0  0  0  0
 28 81  1  0  0  0  0
 29 83  1  0  0  0  0
 30 84  1  0  0  0  0
 31 85  1  0  0  0  0
 32 64  2  0  0  0  0
 33 65  1  0  0  0  0
 33 68  1  0  0  0  0
 34 71  1  0  0  0  0
 34 75  2  0  0  0  0
 35 69  1  0  0  0  0
 35 76  2  0  0  0  0
 36 50  1  0  0  0  0
 36 72  1  0  0  0  0
 36 77  2  0  0  0  0
 37 61  1  0  0  0  0
 37 66  1  0  0  0  0
 37 78  2  0  0  0  0
 38 62  1  0  0  0  0
 38 73  1  0  0  0  0
 38 79  2  0  0  0  0
 39 67  1  0  0  0  0
 39 70  1  0  0  0  0
 39 80  2  0  0  0  0
 40 43  1  0  0  0  0
 41 50  1  0  0  0  0
 42 66  1  0  0  0  0
 43 45  1  0  0  0  0
 44 46  1  0  0  0  0
 44 47  1  0  0  0  0
 45 49  1  0  0  0  0
 46 51  1  0  0  0  0
 47 67  1  0  0  0  0
 48 51  1  0  0  0  0
 48 67  1  0  0  0  0
 49 72  1  0  0  0  0
 50 66  1  0  0  0  0
 51 65  1  0  0  0  0
 53 62  1  0  0  0  0
 54 63  1  0  0  0  0
 55 63  1  0  0  0  0
 56 63  1  0  0  0  0
 57 74  1  0  0  0  0
 58 59  1  0  0  0  0
 58 60  1  0  0  0  0
 59 71  1  0  0  0  0
 60 82  1  0  0  0  0
 61 63  1  0  0  0  0
 61 73  1  0  0  0  0
 62 74  1  0  0  0  0
 64 65  1  0  0  0  0
M  CHG  1  74   1
M  ISO  4  39 100  60 101  70 100  82 101
M  END
> <Batch ID>
0049

> <Smiles>
CNC(C)C(=O)NC(C(=O)N1Cc2cc([101O:1][101CH2:1]CCNC(=O)c3ccc(Cl)c([100NH:0][100C:0](=O)N4CCCC(n5nc(-c6ccc(Oc7ccc(F)cc7F)cc6)c(C(N)=O)c5N)C4)c3C)ccc2CC1C(=O)NC1CCCc2ccccc21)C(C)(C)C

> <Shape>
0.284

> <Color>
0.074

> <Negative vol penalty>
0.000

$$$$

  -OEChem-04042322323D

 84 93  0     1  0  0  0  0  0999 V2000
  -32.0011  -32.2345   24.1907 C   0  0  0  0  0  0  0  0  0  0  0  0
  -32.3376  -30.9607   24.6376 C   0  0  0  0  0  0  0  0  0  0  0  0
  -23.0782   -9.8654   19.9404 C   0  0  0  0  0  0  0  0  0  0  0  0
  -23.8349   -9.8759   22.2348 C   0  0  0  0  0  0  0  0  0  0  0  0
  -30.4566  -18.3521   24.0399 C   0  0  0  0  0  0  0  0  0  0  0  0
  -30.6610  -32.6073   24.0959 C   0  0  0  0  0  0  0  0  0  0  0  0
  -31.3340  -30.0593   24.9909 C   0  0  0  0  0  0  0  0  0  0  0  0
  -32.1489  -25.4188   23.1344 C   0  0  0  0  0  0  0  0  0  0  0  0
  -29.8711  -17.4643   23.1374 C   0  0  0  0  0  0  0  0  0  0  0  0
  -22.3348   -8.7121   20.1909 C   0  0  0  0  0  0  0  0  0  0  0  0
  -23.0915   -8.7226   22.4853 C   0  0  0  0  0  0  0  0  0  0  0  0
  -33.0851  -24.6242   23.7947 C   0  0  0  0  0  0  0  0  0  0  0  0
  -19.8631   -7.9232   23.0844 C   0  0  0  0  0  0  0  0  0  0  0  0
  -19.1046   -7.8842   24.2543 C   0  0  0  0  0  0  0  0  0  0  0  0
  -31.2957  -23.4590   24.9169 C   0  0  0  0  0  0  0  0  0  0  0  0
  -32.0571  -16.6190   22.5507 C   0  0  0  0  0  0  0  0  0  0  0  0
  -20.3464   -5.9487   24.9950 C   0  0  0  0  0  0  0  0  0  0  0  0
  -23.8283  -10.4474   20.9624 C   0  0  0  0  0  0  0  0  0  0  0  0
  -31.8424  -18.3735   24.1978 C   0  0  0  0  0  0  0  0  0  0  0  0
  -24.1685  -12.9726   20.8396 C   0  0  0  0  0  0  0  0  0  0  0  0
  -29.6403  -31.7068   24.4391 C   0  0  0  0  0  0  0  0  0  0  0  0
  -30.7772  -25.2465   23.3691 C   0  0  0  0  0  0  0  0  0  0  0  0
  -29.9790  -30.4209   24.9019 C   0  0  0  0  0  0  0  0  0  0  0  0
  -30.3440  -24.2509   24.2564 C   0  0  0  0  0  0  0  0  0  0  0  0
  -32.6426  -17.5069   23.4532 C   0  0  0  0  0  0  0  0  0  0  0  0
  -30.6713  -16.5977   22.3928 C   0  0  0  0  0  0  0  0  0  0  0  0
  -22.3415   -8.1406   21.4633 C   0  0  0  0  0  0  0  0  0  0  0  0
  -32.6587  -23.6461   24.6882 C   0  0  0  0  0  0  0  0  0  0  0  0
  -20.8633   -6.9748   22.8697 C   0  0  0  0  0  0  0  0  0  0  0  0
  -19.3462   -6.8970   25.2096 C   0  0  0  0  0  0  0  0  0  0  0  0
  -21.1049   -5.9876   23.8250 C   0  0  0  0  0  0  0  0  0  0  0  0
  -24.5969  -11.6384   20.7042 C   0  0  0  0  0  0  0  0  0  0  0  0
  -25.2606  -13.7224   20.4768 C   0  0  0  0  0  0  0  0  0  0  0  0
  -32.8285  -20.6700   24.7751 C   0  0  0  0  0  0  0  0  0  0  0  0
  -32.6302  -18.9140   26.4297 C   0  0  0  0  0  0  0  0  0  0  0  0
  -32.4317  -19.3246   25.1616 C   0  0  0  0  0  0  0  0  0  0  0  0
  -33.2015  -21.5875   25.6810 C   0  0  0  0  0  0  0  0  0  1  0  0
  -22.8971  -13.4880   21.2561 C   0  0  0  0  0  0  0  0  0  0  0  0
  -28.4539  -27.0754   24.5357 C   0  0  0  0  0  0  0  0  0  0  0  0
  -26.5795  -24.5756   23.6639 C   0  0  0  0  0  0  0  0  0  0  0  0
  -26.3292  -21.2403   22.9853 C   0  0  0  0  0  0  0  0  0  0  0  0
  -30.7258  -14.7722   20.6577 C   0  0  0  0  0  0  0  0  0  0  0  0
  -28.2073  -32.1712   24.3651 C   0  0  0  0  0  0  0  0  0  0  0  0
  -29.7790  -26.0938   22.6287 C   0  0  0  0  0  0  0  0  0  0  0  0
  -28.8819  -24.0122   24.5280 C   0  0  0  0  0  0  0  0  0  0  0  0
  -33.2361  -19.7922   27.4889 C   0  0  0  0  0  0  0  0  0  0  0  0
  -33.2432  -21.2912   27.1515 C   0  0  0  0  0  0  0  0  0  0  0  0
  -27.1943  -31.0298   24.4025 C   0  0  0  0  0  0  0  0  0  0  0  0
  -29.6164  -12.3545   18.2910 C   0  0  0  0  0  0  0  0  0  0  0  0
  -27.5437  -30.0422   25.5113 C   0  0  0  0  0  0  0  0  0  0  0  0
  -28.1764  -12.0624   18.7190 C   0  0  0  0  0  0  0  0  0  0  0  0
  -30.5297  -12.5855   19.4936 C   0  0  0  0  0  0  0  0  0  0  0  0
  -28.6203  -13.3104   20.8713 C   0  0  0  0  0  0  0  0  0  0  0  0
  -28.9184  -29.4066   25.2709 C   0  0  1  0  0  0  0  0  0  0  0  0
  -28.4276  -26.1767   23.3318 C   0  0  1  0  0  0  0  0  0  0  0  0
  -27.6492  -13.1349   19.6924 C   0  0  2  0  0  0  0  0  0  0  0  0
  -34.1306  -17.5017   23.5968 C   0  0  0  0  0  0  0  0  0  0  0  0
  -24.6605  -19.4817   22.3375 C   0  0  0  0  0  0  0  0  0  0  0  0
  -25.5027  -24.5491   26.5187 C   0  0  0  0  0  0  0  0  0  0  0  0
  -24.6000  -22.2549   26.0828 C   0  0  0  0  0  0  0  0  0  0  0  0
  -23.7729  -24.1931   24.7479 C   0  0  0  0  0  0  0  0  0  0  0  0
  -27.7643  -20.6412   20.4673 C   0  0  0  0  0  0  0  0  0  0  0  0
  -26.1055  -23.3094   24.3356 C   0  0  1  0  0  0  0  0  0  0  0  0
  -25.6797  -20.4924   21.8351 C   0  0  2  0  0  0  0  0  0  0  0  0
  -25.0230  -23.5822   25.4178 C   0  0  0  0  0  0  0  0  0  0  0  0
  -25.8624  -11.5430   20.2878 N   0  0  0  0  0  0  0  0  0  0  0  0
  -26.2386  -12.8267   20.1583 N   0  0  0  0  0  0  0  0  0  0  0  0
  -27.9449  -24.8705   23.7845 N   0  0  0  0  0  0  0  0  0  0  0  0
  -29.9688  -13.6171   20.3689 N   0  0  0  0  0  0  0  0  0  0  0  0
  -25.4701  -15.0539   20.4024 N   0  0  0  0  0  0  0  0  0  0  0  0
  -21.8853  -12.5786   21.5931 N   0  0  0  0  0  0  0  0  0  0  0  0
  -30.0766  -15.6978   21.4740 N   0  0  0  0  0  0  0  0  0  0  0  0
  -28.8288  -28.3762   24.2586 N   0  0  0  0  0  0  0  0  0  0  0  0
  -25.6697  -22.4183   23.2658 N   0  0  0  0  0  0  0  0  0  0  0  0
  -26.7109  -19.7654   21.0419 N   0  3  0  0  0  0  0  0  0  0  0  0
  -22.6598  -14.7185   21.3115 O   0  0  0  0  0  0  0  0  0  0  0  0
  -28.1546  -26.6225   25.6343 O   0  0  0  0  0  0  0  0  0  0  0  0
  -25.7695  -25.2734   23.0486 O   0  0  0  0  0  0  0  0  0  0  0  0
  -27.3202  -20.8197   23.5783 O   0  0  0  0  0  0  0  0  0  0  0  0
  -31.8554  -14.9411   20.1914 O   0  0  0  0  0  0  0  0  0  0  0  0
  -21.6160   -7.0153   21.7081 O   0  0  0  0  0  0  0  0  0  0  0  0
  -33.5704  -22.8696   25.3345 O   0  0  0  0  0  0  0  0  0  1  0  0
  -18.6188   -6.8607   26.3337 F   0  0  0  0  0  0  0  0  0  0  0  0
  -22.0652   -5.0746   23.6249 F   0  0  0  0  0  0  0  0  0  0  0  0
  1  2  1  0  0  0  0
  1  6  2  0  0  0  0
  2  7  2  0  0  0  0
  3 10  2  0  0  0  0
  3 18  1  0  0  0  0
  4 11  1  0  0  0  0
  4 18  2  0  0  0  0
  5  9  2  0  0  0  0
  5 19  1  0  0  0  0
  6 21  1  0  0  0  0
  7 23  1  0  0  0  0
  8 12  2  0  0  0  0
  8 22  1  0  0  0  0
  9 26  1  0  0  0  0
 10 27  1  0  0  0  0
 11 27  2  0  0  0  0
 12 28  1  0  0  0  0
 13 14  2  0  0  0  0
 13 29  1  0  0  0  0
 14 30  1  0  0  0  0
 15 24  1  0  0  0  0
 15 28  2  0  0  0  0
 16 25  1  0  0  0  0
 16 26  2  0  0  0  0
 17 30  2  0  0  0  0
 17 31  1  0  0  0  0
 18 32  1  0  0  0  0
 19 25  2  0  0  0  0
 19 36  1  0  0  0  0
 20 32  1  0  0  0  0
 20 33  2  0  0  0  0
 20 38  1  0  0  0  0
 21 23  2  0  0  0  0
 21 43  1  0  0  0  0
 22 24  2  0  0  0  0
 22 44  1  0  0  0  0
 23 54  1  0  0  0  0
 24 45  1  0  0  0  0
 25 57  1  0  0  0  0
 26 72  1  0  0  0  0
 27 81  1  0  0  0  0
 28 82  1  0  0  0  0
 29 31  2  0  0  0  0
 29 81  1  0  0  0  0
 30 83  1  0  0  0  0
 31 84  1  0  0  0  0
 32 66  2  0  0  0  0
 33 67  1  0  0  0  0
 33 70  1  0  0  0  0
 34 36  1  0  0  0  0
 34 37  2  0  0  0  0
 35 36  2  0  0  0  0
 35 46  1  0  0  0  0
 37 47  1  0  0  0  0
 37 82  1  0  0  0  0
 38 71  1  0  0  0  0
 38 76  2  0  0  0  0
 39 55  1  0  0  0  0
 39 73  1  0  0  0  0
 39 77  2  0  0  0  0
 40 63  1  0  0  0  0
 40 68  1  0  0  0  0
 40 78  2  0  0  0  0
 41 64  1  0  0  0  0
 41 74  1  0  0  0  0
 41 79  2  0  0  0  0
 42 69  1  0  0  0  0
 42 72  1  0  0  0  0
 42 80  2  0  0  0  0
 43 48  1  0  0  0  0
 44 55  1  0  0  0  0
 45 68  1  0  0  0  0
 46 47  1  0  0  0  0
 48 50  1  0  0  0  0
 49 51  1  0  0  0  0
 49 52  1  0  0  0  0
 50 54  1  0  0  0  0
 51 56  1  0  0  0  0
 52 69  1  0  0  0  0
 53 56  1  0  0  0  0
 53 69  1  0  0  0  0
 54 73  1  0  0  0  0
 55 68  1  0  0  0  0
 56 67  1  0  0  0  0
 58 64  1  0  0  0  0
 59 65  1  0  0  0  0
 60 65  1  0  0  0  0
 61 65  1  0  0  0  0
 62 75  1  0  0  0  0
 63 65  1  0  0  0  0
 63 74  1  0  0  0  0
 64 75  1  0  0  0  0
 66 67  1  0  0  0  0
M  CHG  1  75   1
M  ISO  4  37 101  42 100  72 100  82 101
M  END
> <Batch ID>
0049

> <Smiles>
CNC(C)C(=O)NC(C(=O)N1Cc2cc([101O:1][101C:1]3=CC(c4ccc([100NH:0][100C:0](=O)N5CCCC(n6nc(-c7ccc(Oc8ccc(F)cc8F)cc7)c(C(N)=O)c6N)C5)cc4C)=CCC3)ccc2CC1C(=O)NC1CCCc2ccccc21)C(C)(C)C

> <Shape>
0.200

> <Color>
0.196

> <Negative vol penalty>
0.000

$$$$

  -OEChem-04042322323D

 85 94  0     1  0  0  0  0  0999 V2000
  -26.8744  -29.2154   20.1350 C   0  0  0  0  0  0  0  0  0  0  0  0
  -27.5042  -28.0509   20.5625 C   0  0  0  0  0  0  0  0  0  0  0  0
  -23.7608   -9.7302   21.3332 C   0  0  0  0  0  0  0  0  0  0  0  0
  -24.3516  -10.7069   23.4625 C   0  0  0  0  0  0  0  0  0  0  0  0
  -25.5222  -29.1912   19.7963 C   0  0  0  0  0  0  0  0  0  0  0  0
  -26.7816  -26.8617   20.6527 C   0  0  0  0  0  0  0  0  0  0  0  0
  -28.8502  -21.2042   19.5483 C   0  0  0  0  0  0  0  0  0  0  0  0
  -32.1288  -15.1397   25.4977 C   0  0  0  0  0  0  0  0  0  0  0  0
  -23.2334   -8.6181   21.9896 C   0  0  0  0  0  0  0  0  0  0  0  0
  -23.8242   -9.5949   24.1189 C   0  0  0  0  0  0  0  0  0  0  0  0
  -29.3005  -20.1890   20.3910 C   0  0  0  0  0  0  0  0  0  0  0  0
  -20.7723   -8.4354   24.9919 C   0  0  0  0  0  0  0  0  0  0  0  0
  -19.9605   -8.6651   26.1026 C   0  0  0  0  0  0  0  0  0  0  0  0
  -33.4930  -14.9443   25.2826 C   0  0  0  0  0  0  0  0  0  0  0  0
  -27.1025  -19.1955   20.3588 C   0  0  0  0  0  0  0  0  0  0  0  0
  -33.0521  -14.4169   22.9664 C   0  0  0  0  0  0  0  0  0  0  0  0
  -21.4941   -7.4086   27.4834 C   0  0  0  0  0  0  0  0  0  0  0  0
  -24.3199  -10.7746   22.0696 C   0  0  0  0  0  0  0  0  0  0  0  0
  -24.1853  -13.1043   21.0392 C   0  0  0  0  0  0  0  0  0  0  0  0
  -24.7850  -27.9990   19.8732 C   0  0  0  0  0  0  0  0  0  0  0  0
  -27.5175  -21.2288   19.1125 C   0  0  0  0  0  0  0  0  0  0  0  0
  -25.4178  -26.8218   20.3161 C   0  0  0  0  0  0  0  0  0  0  0  0
  -26.6384  -20.2107   19.5085 C   0  0  0  0  0  0  0  0  0  0  0  0
  -31.2262  -14.9737   24.4473 C   0  0  0  0  0  0  0  0  0  0  0  0
  -31.6879  -14.6123   23.1816 C   0  0  0  0  0  0  0  0  0  0  0  0
  -23.2651   -8.5505   23.3824 C   0  0  0  0  0  0  0  0  0  0  0  0
  -28.4259  -19.1860   20.7988 C   0  0  0  0  0  0  0  0  0  0  0  0
  -21.9450   -7.6922   25.1268 C   0  0  0  0  0  0  0  0  0  0  0  0
  -20.3214   -8.1517   27.3484 C   0  0  0  0  0  0  0  0  0  0  0  0
  -22.3059   -7.1788   26.3726 C   0  0  0  0  0  0  0  0  0  0  0  0
  -33.9547  -14.5829   24.0169 C   0  0  0  0  0  0  0  0  0  0  0  0
  -24.8654  -11.9233   21.3921 C   0  0  0  0  0  0  0  0  0  0  0  0
  -25.1378  -13.8773   20.4213 C   0  0  0  0  0  0  0  0  0  0  0  0
  -28.2723  -16.5990   23.2403 C   0  0  0  0  0  0  0  0  0  0  0  0
  -22.8153  -13.4700   21.2511 C   0  0  0  0  0  0  0  0  0  0  0  0
  -25.0837  -23.2452   19.4508 C   0  0  0  0  0  0  0  0  0  0  0  0
  -23.6240  -21.2185   17.3810 C   0  0  0  0  0  0  0  0  0  0  0  0
  -23.4345  -18.0849   16.0424 C   0  0  0  0  0  0  0  0  0  0  0  0
  -31.0982  -14.0818   20.7905 C   0  0  0  0  0  0  0  0  0  0  0  0
  -23.3140  -28.0324   19.5419 C   0  0  0  0  0  0  0  0  0  0  0  0
  -27.0543  -22.3160   18.1821 C   0  0  0  0  0  0  0  0  0  0  0  0
  -25.2033  -20.1803   19.0523 C   0  0  0  0  0  0  0  0  0  0  0  0
  -22.7111  -26.6499   19.3068 C   0  0  0  0  0  0  0  0  0  0  0  0
  -29.1647  -13.5176   17.8545 C   0  0  0  0  0  0  0  0  0  0  0  0
  -23.1505  -25.6826   20.4014 C   0  0  0  0  0  0  0  0  0  0  0  0
  -27.7793  -13.1581   18.3962 C   0  0  0  0  0  0  0  0  0  0  0  0
  -28.9996  -18.7518   23.9869 C   0  0  0  0  0  0  0  0  0  0  0  0
  -30.2807  -12.9543   18.7325 C   0  0  0  0  0  0  0  0  0  0  0  0
  -29.9777  -17.6908   24.4601 C   0  0  0  0  0  0  0  0  0  0  0  0
  -28.7969  -12.9369   20.6990 C   0  0  0  0  0  0  0  0  0  0  0  0
  -24.6739  -25.5069   20.4034 C   0  0  1  0  0  0  0  0  0  0  0  0
  -28.2153  -18.0637   22.8721 C   0  0  1  0  0  0  0  0  0  1  0  0
  -25.5436  -22.5264   18.2140 C   0  0  1  0  0  0  0  0  0  0  0  0
  -27.6401  -13.5374   19.8836 C   0  0  2  0  0  0  0  0  0  0  0  0
  -22.1150  -16.7206   14.4007 C   0  0  0  0  0  0  0  0  0  0  0  0
  -21.3457  -20.9984   19.3986 C   0  0  0  0  0  0  0  0  0  0  0  0
  -20.5572  -18.9580   18.1808 C   0  0  0  0  0  0  0  0  0  0  0  0
  -20.6141  -21.1614   17.0127 C   0  0  0  0  0  0  0  0  0  0  0  0
  -25.8186  -17.5911   14.3599 C   0  0  0  0  0  0  0  0  0  0  0  0
  -29.7636  -15.1906   24.7081 C   0  0  0  0  0  0  0  0  0  0  0  0
  -22.7860  -19.9703   17.5187 C   0  0  1  0  0  0  0  0  0  0  0  0
  -23.3330  -17.6082   14.6048 C   0  0  2  0  0  0  0  0  0  0  0  0
  -21.3522  -20.2734   18.0380 C   0  0  0  0  0  0  0  0  0  0  0  0
  -26.1505  -11.9399   21.0284 N   0  0  0  0  0  0  0  0  0  0  0  0
  -26.2856  -13.1408   20.4405 N   0  0  0  0  0  0  0  0  0  0  0  0
  -29.2986  -16.4505   24.1696 N   0  0  0  0  0  0  0  0  0  0  0  0
  -24.7963  -21.2688   18.1484 N   0  0  0  0  0  0  0  0  0  0  0  0
  -30.0853  -13.3579   20.1267 N   0  0  0  0  0  0  0  0  0  0  0  0
  -25.0970  -15.1083   19.8687 N   0  0  0  0  0  0  0  0  0  0  0  0
  -21.9734  -12.5580   21.9022 N   0  0  0  0  0  0  0  0  0  0  0  0
  -30.7867  -14.4389   22.1020 N   0  0  0  0  0  0  0  0  0  0  0  0
  -25.0820  -24.6220   19.3334 N   0  0  0  0  0  0  0  0  0  0  0  0
  -22.8233  -19.3082   16.2192 N   0  0  0  0  0  0  0  0  0  0  0  0
  -24.5484  -16.8318   14.2295 N   0  3  0  0  0  0  0  0  0  0  0  0
  -27.5665  -15.7299   22.7498 O   0  0  0  0  0  0  0  0  0  0  0  0
  -22.3473  -14.5660   20.8596 O   0  0  0  0  0  0  0  0  0  0  0  0
  -24.7534  -22.5985   20.4379 O   0  0  0  0  0  0  0  0  0  0  0  0
  -23.2557  -22.1127   16.6153 O   0  0  0  0  0  0  0  0  0  0  0  0
  -23.9962  -17.4352   16.9216 O   0  0  0  0  0  0  0  0  0  0  0  0
  -32.1525  -14.3877   20.2275 O   0  0  0  0  0  0  0  0  0  0  0  0
  -22.7503   -7.4657   24.0233 O   0  0  0  0  0  0  0  0  0  0  0  0
  -28.8627  -18.1943   21.6219 O   0  0  0  0  0  0  0  0  0  1  0  0
  -19.5425   -8.3737   28.4152 F   0  0  0  0  0  0  0  0  0  0  0  0
  -23.4319   -6.4652   26.5087 F   0  0  0  0  0  0  0  0  0  0  0  0
  -35.6381  -14.3419   23.7522 Cl  0  0  0  0  0  0  0  0  0  0  0  0
  1  2  1  0  0  0  0
  1  5  2  0  0  0  0
  2  6  2  0  0  0  0
  3  9  2  0  0  0  0
  3 18  1  0  0  0  0
  4 10  1  0  0  0  0
  4 18  2  0  0  0  0
  5 20  1  0  0  0  0
  6 22  1  0  0  0  0
  7 11  2  0  0  0  0
  7 21  1  0  0  0  0
  8 14  2  0  0  0  0
  8 24  1  0  0  0  0
  9 26  1  0  0  0  0
 10 26  2  0  0  0  0
 11 27  1  0  0  0  0
 12 13  2  0  0  0  0
 12 28  1  0  0  0  0
 13 29  1  0  0  0  0
 14 31  1  0  0  0  0
 15 23  1  0  0  0  0
 15 27  2  0  0  0  0
 16 25  1  0  0  0  0
 16 31  2  0  0  0  0
 17 29  2  0  0  0  0
 17 30  1  0  0  0  0
 18 32  1  0  0  0  0
 19 32  1  0  0  0  0
 19 33  2  0  0  0  0
 19 35  1  0  0  0  0
 20 22  2  0  0  0  0
 20 40  1  0  0  0  0
 21 23  2  0  0  0  0
 21 41  1  0  0  0  0
 22 51  1  0  0  0  0
 23 42  1  0  0  0  0
 24 25  2  0  0  0  0
 24 60  1  0  0  0  0
 25 71  1  0  0  0  0
 26 81  1  0  0  0  0
 27 82  1  0  0  0  0
 28 30  2  0  0  0  0
 28 81  1  0  0  0  0
 29 83  1  0  0  0  0
 30 84  1  0  0  0  0
 31 85  1  0  0  0  0
 32 64  2  0  0  0  0
 33 65  1  0  0  0  0
 33 69  1  0  0  0  0
 34 52  1  0  0  0  0
 34 66  1  0  0  0  0
 34 75  2  0  0  0  0
 35 70  1  0  0  0  0
 35 76  2  0  0  0  0
 36 53  1  0  0  0  0
 36 72  1  0  0  0  0
 36 77  2  0  0  0  0
 37 61  1  0  0  0  0
 37 67  1  0  0  0  0
 37 78  2  0  0  0  0
 38 62  1  0  0  0  0
 38 73  1  0  0  0  0
 38 79  2  0  0  0  0
 39 68  1  0  0  0  0
 39 71  1  0  0  0  0
 39 80  2  0  0  0  0
 40 43  1  0  0  0  0
 41 53  1  0  0  0  0
 42 67  1  0  0  0  0
 43 45  1  0  0  0  0
 44 46  1  0  0  0  0
 44 48  1  0  0  0  0
 45 51  1  0  0  0  0
 46 54  1  0  0  0  0
 47 49  1  0  0  0  0
 47 52  1  0  0  0  0
 48 68  1  0  0  0  0
 49 66  1  0  0  0  0
 50 54  1  0  0  0  0
 50 68  1  0  0  0  0
 51 72  1  0  0  0  0
 52 82  1  0  0  0  0
 53 67  1  0  0  0  0
 54 65  1  0  0  0  0
 55 62  1  0  0  0  0
 56 63  1  0  0  0  0
 57 63  1  0  0  0  0
 58 63  1  0  0  0  0
 59 74  1  0  0  0  0
 60 66  1  0  0  0  0
 61 63  1  0  0  0  0
 61 73  1  0  0  0  0
 62 74  1  0  0  0  0
 64 65  1  0  0  0  0
M  CHG  1  74   1
M  ISO  4  39 100  52 101  71 100  82 101
M  END
> <Batch ID>
0049

> <Smiles>
CNC(C)C(=O)NC(C(=O)N1Cc2cc([101O:1][101CH:1]3CCN(Cc4ccc(Cl)cc4[100NH:0][100C:0](=O)N4CCCC(n5nc(-c6ccc(Oc7ccc(F)cc7F)cc6)c(C(N)=O)c5N)C4)C3=O)ccc2CC1C(=O)NC1CCCc2ccccc21)C(C)(C)C

> <Shape>
0.193

> <Color>
0.152

> <Negative vol penalty>
0.000

$$$$

  -OEChem-04042322323D

 86 94  0     1  0  0  0  0  0999 V2000
  -25.6699  -11.9502   20.6543 C   0  0  0  0  0  0  0  0  0  0  0  0
  -26.5280  -12.8442   21.2865 C   0  0  0  0  0  0  0  0  0  0  0  0
  -26.2685  -27.9772   18.9363 C   0  0  0  0  0  0  0  0  0  0  0  0
  -26.2149  -27.1557   21.2077 C   0  0  0  0  0  0  0  0  0  0  0  0
  -24.5688  -12.4264   19.9439 C   0  0  0  0  0  0  0  0  0  0  0  0
  -26.2861  -14.2153   21.2077 C   0  0  0  0  0  0  0  0  0  0  0  0
  -26.8129  -16.5408   25.6753 C   0  0  0  0  0  0  0  0  0  0  0  0
  -25.1789  -28.8040   19.2096 C   0  0  0  0  0  0  0  0  0  0  0  0
  -25.1253  -27.9826   21.4810 C   0  0  0  0  0  0  0  0  0  0  0  0
  -28.1123  -16.8022   26.1077 C   0  0  0  0  0  0  0  0  0  0  0  0
  -21.7905  -27.9749   20.9239 C   0  0  0  0  0  0  0  0  0  0  0  0
  -20.7192  -27.4240   21.6270 C   0  0  0  0  0  0  0  0  0  0  0  0
  -32.6801  -16.3864   20.5319 C   0  0  0  0  0  0  0  0  0  0  0  0
  -27.8944  -19.0861   25.3622 C   0  0  0  0  0  0  0  0  0  0  0  0
  -30.9479  -16.7837   18.8952 C   0  0  0  0  0  0  0  0  0  0  0  0
  -21.0293  -29.0578   23.3796 C   0  0  0  0  0  0  0  0  0  0  0  0
  -26.7865  -27.1530   19.9353 C   0  0  0  0  0  0  0  0  0  0  0  0
  -31.7626  -16.6124   21.5579 C   0  0  0  0  0  0  0  0  0  0  0  0
  -29.2760  -26.6130   19.7998 C   0  0  0  0  0  0  0  0  0  0  0  0
  -24.3078  -13.8034   19.8645 C   0  0  0  0  0  0  0  0  0  0  0  0
  -26.0471  -17.5488   25.0722 C   0  0  0  0  0  0  0  0  0  0  0  0
  -25.1812  -14.7104   20.4945 C   0  0  0  0  0  0  0  0  0  0  0  0
  -26.5846  -18.8355   24.9253 C   0  0  0  0  0  0  0  0  0  0  0  0
  -30.0303  -17.0096   19.9212 C   0  0  0  0  0  0  0  0  0  0  0  0
  -24.6073  -28.8067   20.4819 C   0  0  0  0  0  0  0  0  0  0  0  0
  -28.6543  -18.0742   25.9486 C   0  0  0  0  0  0  0  0  0  0  0  0
  -22.4813  -29.0673   21.4486 C   0  0  0  0  0  0  0  0  0  0  0  0
  -20.3386  -27.9654   22.8548 C   0  0  0  0  0  0  0  0  0  0  0  0
  -32.2728  -16.4721   19.2006 C   0  0  0  0  0  0  0  0  0  0  0  0
  -22.1006  -29.6087   22.6765 C   0  0  0  0  0  0  0  0  0  0  0  0
  -30.4377  -16.9240   21.2526 C   0  0  0  0  0  0  0  0  0  0  0  0
  -27.9117  -26.2983   19.6535 C   0  0  0  0  0  0  0  0  0  0  0  0
  -29.9353  -25.4748   19.4046 C   0  0  0  0  0  0  0  0  0  0  0  0
  -32.1975  -16.5220   22.9662 C   0  0  0  0  0  0  0  0  0  0  0  0
  -29.8923  -27.8259   20.2525 C   0  0  0  0  0  0  0  0  0  0  0  0
  -24.7188  -17.9490   22.2122 C   0  0  0  0  0  0  0  0  0  0  0  0
  -23.4596  -20.5973   23.5992 C   0  0  0  0  0  0  0  0  0  0  0  0
  -23.6847  -22.9779   26.0341 C   0  0  0  0  0  0  0  0  0  0  0  0
  -28.3125  -19.7984   19.3766 C   0  0  0  0  0  0  0  0  0  0  0  0
  -23.1318  -14.2733   19.0455 C   0  0  0  0  0  0  0  0  0  0  0  0
  -24.6375  -17.2578   24.6354 C   0  0  0  0  0  0  0  0  0  0  0  0
  -25.7967  -19.9578   24.3025 C   0  0  0  0  0  0  0  0  0  0  0  0
  -22.7350  -15.7208   19.3241 C   0  0  0  0  0  0  0  0  0  0  0  0
  -29.4672  -21.6885   16.5145 C   0  0  0  0  0  0  0  0  0  0  0  0
  -23.9680  -16.6187   19.3402 C   0  0  0  0  0  0  0  0  0  0  0  0
  -29.3249  -23.1249   17.0211 C   0  0  0  0  0  0  0  0  0  0  0  0
  -28.3254  -20.8096   17.0165 C   0  0  0  0  0  0  0  0  0  0  0  0
  -28.0207  -22.2315   19.0062 C   0  0  0  0  0  0  0  0  0  0  0  0
  -24.9383  -16.2035   20.4527 C   0  0  1  0  0  0  0  0  0  0  0  0
  -24.1314  -18.2230   23.5678 C   0  0  1  0  0  0  0  0  0  0  0  0
  -29.1571  -23.1653   18.5516 C   0  0  2  0  0  0  0  0  0  0  0  0
  -22.5296  -25.0340   26.8916 C   0  0  0  0  0  0  0  0  0  0  0  0
  -24.6013  -22.2064   21.2717 C   0  0  0  0  0  0  0  0  0  0  0  0
  -24.2625  -24.2814   22.6310 C   0  0  0  0  0  0  0  0  0  0  0  0
  -22.3008  -22.8849   21.9798 C   0  0  0  0  0  0  0  0  0  0  0  0
  -23.1780  -21.7344   28.6715 C   0  0  0  0  0  0  0  0  0  0  0  0
  -28.6151  -17.3449   19.5909 C   0  0  0  0  0  0  0  0  0  0  0  0
  -32.1385  -19.0020   25.7378 C   0  0  0  0  0  0  0  0  0  0  0  0
  -32.4703  -17.6403   25.1505 C   0  0  0  0  0  0  0  0  0  0  0  0
  -30.6529  -19.3297   25.6569 C   0  0  0  0  0  0  0  0  0  1  0  0
  -23.8945  -22.0351   23.7490 C   0  0  1  0  0  0  0  0  0  0  0  0
  -22.6558  -23.5230   27.0081 C   0  0  2  0  0  0  0  0  0  0  0  0
  -23.7806  -22.8305   22.4179 C   0  0  0  0  0  0  0  0  0  0  0  0
  -27.7145  -25.0573   19.2006 N   0  0  0  0  0  0  0  0  0  0  0  0
  -28.9636  -24.5823   19.0587 N   0  0  0  0  0  0  0  0  0  0  0  0
  -24.4252  -19.6219   23.8856 N   0  0  0  0  0  0  0  0  0  0  0  0
  -28.2317  -20.8782   18.4817 N   0  0  0  0  0  0  0  0  0  0  0  0
  -31.2455  -25.1603   19.3225 N   0  0  0  0  0  0  0  0  0  0  0  0
  -32.6935  -15.3621   23.3972 N   0  0  0  0  0  0  0  0  0  0  0  0
  -29.0674  -28.8977   20.6199 N   0  0  0  0  0  0  0  0  0  0  0  0
  -24.4670  -16.6762   21.7368 N   0  0  0  0  0  0  0  0  0  0  0  0
  -23.1059  -22.5880   24.8448 N   0  0  0  0  0  0  0  0  0  0  0  0
  -28.5061  -18.5497   18.7987 N   0  0  0  0  0  0  0  0  0  0  0  0
  -32.0717  -17.6057   23.7432 N   0  3  0  0  0  0  0  0  0  0  0  0
  -23.0411  -23.1901   28.4087 N   0  3  0  0  0  0  0  0  0  0  0  0
  -31.1379  -27.9609   20.3134 O   0  0  0  0  0  0  0  0  0  0  0  0
  -25.3522  -18.8278   21.6394 O   0  0  0  0  0  0  0  0  0  0  0  0
  -22.3035  -20.3486   23.2480 O   0  0  0  0  0  0  0  0  0  0  0  0
  -24.8826  -22.9086   26.3001 O   0  0  0  0  0  0  0  0  0  0  0  0
  -28.2240  -19.9374   20.6014 O   0  0  0  0  0  0  0  0  0  0  0  0
  -23.5442  -29.6136   20.7490 O   0  0  0  0  0  0  0  0  0  0  0  0
  -29.9226  -18.3319   26.3692 O   0  0  0  0  0  0  0  0  0  1  0  0
  -19.3088  -27.4372   23.5292 F   0  0  0  0  0  0  0  0  0  0  0  0
  -33.1544  -16.2556   18.2157 F   0  0  0  0  0  0  0  0  0  0  0  0
  -22.7596  -30.6589   23.1851 F   0  0  0  0  0  0  0  0  0  0  0  0
  -29.5551  -17.1411   22.2391 F   0  0  0  0  0  0  0  0  0  0  0  0
  1  2  1  0  0  0  0
  1  5  2  0  0  0  0
  2  6  2  0  0  0  0
  3  8  2  0  0  0  0
  3 17  1  0  0  0  0
  4  9  1  0  0  0  0
  4 17  2  0  0  0  0
  5 20  1  0  0  0  0
  6 22  1  0  0  0  0
  7 10  2  0  0  0  0
  7 21  1  0  0  0  0
  8 25  1  0  0  0  0
  9 25  2  0  0  0  0
 10 26  1  0  0  0  0
 11 12  2  0  0  0  0
 11 27  1  0  0  0  0
 12 28  1  0  0  0  0
 13 18  1  0  0  0  0
 13 29  2  0  0  0  0
 14 23  1  0  0  0  0
 14 26  2  0  0  0  0
 15 24  2  0  0  0  0
 15 29  1  0  0  0  0
 16 28  2  0  0  0  0
 16 30  1  0  0  0  0
 17 32  1  0  0  0  0
 18 31  2  0  0  0  0
 18 34  1  0  0  0  0
 19 32  1  0  0  0  0
 19 33  2  0  0  0  0
 19 35  1  0  0  0  0
 20 22  2  0  0  0  0
 20 40  1  0  0  0  0
 21 23  2  0  0  0  0
 21 41  1  0  0  0  0
 22 49  1  0  0  0  0
 23 42  1  0  0  0  0
 24 31  1  0  0  0  0
 24 57  1  0  0  0  0
 25 81  1  0  0  0  0
 26 82  1  0  0  0  0
 27 30  2  0  0  0  0
 27 81  1  0  0  0  0
 28 83  1  0  0  0  0
 29 84  1  0  0  0  0
 30 85  1  0  0  0  0
 31 86  1  0  0  0  0
 32 64  2  0  0  0  0
 33 65  1  0  0  0  0
 33 68  1  0  0  0  0
 34 69  1  0  0  0  0
 34 74  2  0  0  0  0
 35 70  1  0  0  0  0
 35 76  2  0  0  0  0
 36 50  1  0  0  0  0
 36 71  1  0  0  0  0
 36 77  2  0  0  0  0
 37 61  1  0  0  0  0
 37 66  1  0  0  0  0
 37 78  2  0  0  0  0
 38 62  1  0  0  0  0
 38 72  1  0  0  0  0
 38 79  2  0  0  0  0
 39 67  1  0  0  0  0
 39 73  1  0  0  0  0
 39 80  2  0  0  0  0
 40 43  1  0  0  0  0
 41 50  1  0  0  0  0
 42 66  1  0  0  0  0
 43 45  1  0  0  0  0
 44 46  1  0  0  0  0
 44 47  1  0  0  0  0
 45 49  1  0  0  0  0
 46 51  1  0  0  0  0
 47 67  1  0  0  0  0
 48 51  1  0  0  0  0
 48 67  1  0  0  0  0
 49 71  1  0  0  0  0
 50 66  1  0  0  0  0
 51 65  1  0  0  0  0
 52 62  1  0  0  0  0
 53 63  1  0  0  0  0
 54 63  1  0  0  0  0
 55 63  1  0  0  0  0
 56 75  1  0  0  0  0
 57 73  1  0  0  0  0
 58 59  1  0  0  0  0
 58 60  1  0  0  0  0
 59 74  1  0  0  0  0
 60 82  1  0  0  0  0
 61 63  1  0  0  0  0
 61 72  1  0  0  0  0
 62 75  1  0  0  0  0
 64 65  1  0  0  0  0
M  CHG  2  74   1  75   1
M  ISO  4  39 100  60 101  73 100  82 101
M  END
> <Batch ID>
0049

> <Smiles>
CNC(C)C(=O)NC(C(=O)N1Cc2cc([101O:1][101CH2:1]CCNC(=N)c3cc(F)cc(C[100NH:0][100C:0](=O)N4CCCC(n5nc(-c6ccc(Oc7ccc(F)cc7F)cc6)c(C(N)=O)c5N)C4)c3F)ccc2CC1C(=O)NC1CCCc2ccccc21)C(C)(C)C

> <Shape>
0.218

> <Color>
0.043

> <Negative vol penalty>
0.000

$$$$

  -OEChem-04042322323D

 96106  0     1  0  0  0  0  0999 V2000
  -18.4531  -30.5160   26.4796 C   0  0  0  0  0  0  0  0  0  0  0  0
  -19.8088  -30.2103   26.5432 C   0  0  0  0  0  0  0  0  0  0  0  0
  -22.6948  -11.2879   22.7592 C   0  0  0  0  0  0  0  0  0  0  0  0
  -21.8595  -12.9838   21.2550 C   0  0  0  0  0  0  0  0  0  0  0  0
  -17.7217  -30.2016   25.3350 C   0  0  0  0  0  0  0  0  0  0  0  0
  -20.4337  -29.5889   25.4625 C   0  0  0  0  0  0  0  0  0  0  0  0
  -26.7360  -29.2999   22.0692 C   0  0  0  0  0  0  0  0  0  0  0  0
  -30.4507  -19.3613   18.6704 C   0  0  0  0  0  0  0  0  0  0  0  0
  -30.6692  -18.3641   19.6209 C   0  0  0  0  0  0  0  0  0  0  0  0
  -21.4314  -11.1811   23.3406 C   0  0  0  0  0  0  0  0  0  0  0  0
  -20.5960  -12.8771   21.8363 C   0  0  0  0  0  0  0  0  0  0  0  0
  -27.6789  -28.3737   21.6257 C   0  0  0  0  0  0  0  0  0  0  0  0
  -19.0430  -13.9598   24.6375 C   0  0  0  0  0  0  0  0  0  0  0  0
  -18.3686  -15.1417   24.9438 C   0  0  0  0  0  0  0  0  0  0  0  0
  -26.3330  -27.9493   19.6693 C   0  0  0  0  0  0  0  0  0  0  0  0
  -28.7358  -20.3235   20.0741 C   0  0  0  0  0  0  0  0  0  0  0  0
  -31.9061  -18.6867   24.0252 C   0  0  0  0  0  0  0  0  0  0  0  0
  -33.1531  -18.9495   21.9726 C   0  0  0  0  0  0  0  0  0  0  0  0
  -16.5653  -14.4942   23.4721 C   0  0  0  0  0  0  0  0  0  0  0  0
  -33.4664  -20.5157   23.7854 C   0  0  0  0  0  0  0  0  0  0  0  0
  -22.9089  -12.1893   21.7165 C   0  0  0  0  0  0  0  0  0  0  0  0
  -24.9406  -11.2840   20.4673 C   0  0  0  0  0  0  0  0  0  0  0  0
  -18.3401  -29.5848   24.2360 C   0  0  0  0  0  0  0  0  0  0  0  0
  -25.5772  -29.5502   21.3202 C   0  0  0  0  0  0  0  0  0  0  0  0
  -19.7096  -29.2647   24.3026 C   0  0  0  0  0  0  0  0  0  0  0  0
  -25.3781  -28.8810   20.1042 C   0  0  0  0  0  0  0  0  0  0  0  0
  -29.4840  -20.3410   18.8971 C   0  0  0  0  0  0  0  0  0  0  0  0
  -28.9542  -19.3262   21.0246 C   0  0  0  0  0  0  0  0  0  0  0  0
  -32.2173  -18.2523   22.7367 C   0  0  0  0  0  0  0  0  0  0  0  0
  -29.9210  -18.3465   20.7980 C   0  0  0  0  0  0  0  0  0  0  0  0
  -20.3820  -11.9757   22.8791 C   0  0  0  0  0  0  0  0  0  0  0  0
  -27.4762  -27.6961   20.4270 C   0  0  0  0  0  0  0  0  0  0  0  0
  -18.4785  -13.0450   23.7484 C   0  0  0  0  0  0  0  0  0  0  0  0
  -17.1298  -15.4089   24.3611 C   0  0  0  0  0  0  0  0  0  0  0  0
  -17.2397  -13.3122   23.1658 C   0  0  0  0  0  0  0  0  0  0  0  0
  -32.5306  -19.8184   24.5495 C   0  0  0  0  0  0  0  0  0  0  0  0
  -33.7776  -20.0812   22.4969 C   0  0  0  0  0  0  0  0  0  0  0  0
  -24.2139  -12.3004   21.1159 C   0  0  0  0  0  0  0  0  0  0  0  0
  -26.1088  -11.8922   20.0778 C   0  0  0  0  0  0  0  0  0  0  0  0
  -30.4448  -23.0923   19.1458 C   0  0  0  0  0  0  0  0  0  0  0  0
  -31.4818  -22.7432   19.9219 C   0  0  0  0  0  0  0  0  0  0  0  0
  -24.5907   -9.9127   20.2372 C   0  0  0  0  0  0  0  0  0  0  0  0
  -22.4583  -29.2147   21.8338 C   0  0  0  0  0  0  0  0  0  0  0  0
  -22.2206  -30.7163   18.9683 C   0  0  0  0  0  0  0  0  0  0  0  0
  -23.6673  -31.4968   15.9776 C   0  0  0  0  0  0  0  0  0  0  0  0
  -29.1400  -16.4113   22.1531 C   0  0  0  0  0  0  0  0  0  0  0  0
  -17.4979  -29.2214   23.0388 C   0  0  0  0  0  0  0  0  0  0  0  0
  -24.5826  -30.5719   21.7991 C   0  0  0  0  0  0  0  0  0  0  0  0
  -24.1606  -29.1286   19.2529 C   0  0  0  0  0  0  0  0  0  0  0  0
  -29.4315  -24.1302   19.5464 C   0  0  0  0  0  0  0  0  0  0  0  0
  -18.3179  -28.9027   21.7913 C   0  0  0  0  0  0  0  0  0  0  0  0
  -27.8914  -16.1459   18.8345 C   0  0  0  0  0  0  0  0  0  0  0  0
  -19.4703  -27.9643   22.1353 C   0  0  0  0  0  0  0  0  0  0  0  0
  -26.8610  -15.0275   18.9865 C   0  0  0  0  0  0  0  0  0  0  0  0
  -29.0565  -24.4947   17.0798 C   0  0  0  0  0  0  0  0  0  0  0  0
  -27.8940  -17.0893   20.0378 C   0  0  0  0  0  0  0  0  0  0  0  0
  -27.0286  -15.2835   21.4919 C   0  0  0  0  0  0  0  0  0  0  0  0
  -30.1709  -23.4980   16.7701 C   0  0  0  0  0  0  0  0  0  0  0  0
  -20.4286  -28.6132   23.1413 C   0  0  1  0  0  0  0  0  0  0  0  0
  -23.1892  -30.3706   21.2115 C   0  0  1  0  0  0  0  0  0  0  0  0
  -29.2709  -25.1774   18.4378 C   0  0  1  0  0  0  0  0  0  0  0  0
  -27.0434  -14.2864   20.3227 C   0  0  1  0  0  0  0  0  0  0  0  0
  -28.1359  -19.3303   22.2751 C   0  0  0  0  0  0  0  0  0  0  0  0
  -23.2135  -32.7051   13.8255 C   0  0  0  0  0  0  0  0  0  0  0  0
  -20.4627  -28.4009   18.0418 C   0  0  0  0  0  0  0  0  0  0  0  0
  -20.8289  -29.1579   15.6837 C   0  0  0  0  0  0  0  0  0  0  0  0
  -19.6816  -30.6612   17.3104 C   0  0  0  0  0  0  0  0  0  0  0  0
  -25.9012  -33.3843   16.4314 C   0  0  0  0  0  0  0  0  0  0  0  0
  -31.5459  -17.0330   22.1737 C   0  0  0  0  0  0  0  0  0  0  0  0
  -29.2474  -21.4122   17.8735 C   0  0  0  0  0  0  0  0  0  0  0  0
  -28.1231  -26.1333   18.7552 C   0  0  0  0  0  0  0  0  0  1  0  0
  -22.1697  -30.2684   17.5276 C   0  0  1  0  0  0  0  0  0  0  0  0
  -23.7876  -32.8123   15.2297 C   0  0  2  0  0  0  0  0  0  0  0  0
  -20.8078  -29.6158   17.1576 C   0  0  0  0  0  0  0  0  0  0  0  0
  -24.8661  -13.4658   21.1394 N   0  0  0  0  0  0  0  0  0  0  0  0
  -26.0148  -13.1854   20.5007 N   0  0  0  0  0  0  0  0  0  0  0  0
  -23.2140  -30.1322   19.7669 N   0  0  0  0  0  0  0  0  0  0  0  0
  -28.0295  -16.3342   21.2915 N   0  0  0  0  0  0  0  0  0  0  0  0
  -27.1972  -11.4415   19.4183 N   0  0  0  0  0  0  0  0  0  0  0  0
  -23.9076   -9.5862   19.0578 N   0  0  0  0  0  0  0  0  0  0  0  0
  -21.2877  -29.5696   22.4766 N   0  0  0  0  0  0  0  0  0  0  0  0
  -22.5097  -31.4378   16.7243 N   0  0  0  0  0  0  0  0  0  0  0  0
  -30.1624  -17.3056   21.7694 N   0  0  0  0  0  0  0  0  0  0  0  0
  -30.3269  -22.4589   17.8557 N   0  3  2  0  0  0  0  0  0  0  0  0
  -25.2175  -33.2187   15.1230 N   0  3  0  0  0  0  0  0  0  0  0  0
  -24.8609   -9.0063   21.0612 O   0  0  0  0  0  0  0  0  0  0  0  0
  -22.9213  -28.0842   21.7367 O   0  0  0  0  0  0  0  0  0  0  0  0
  -21.4134  -31.5588   19.3686 O   0  0  0  0  0  0  0  0  0  0  0  0
  -24.5137  -30.6087   15.9036 O   0  0  0  0  0  0  0  0  0  0  0  0
  -29.2017  -15.7521   23.1979 O   0  0  0  0  0  0  0  0  0  0  0  0
  -19.1490  -11.8717   23.4459 O   0  0  0  0  0  0  0  0  0  0  0  0
  -28.3947  -26.7911   19.9921 O   0  0  0  0  0  0  0  0  0  1  0  0
  -16.4816  -16.5432   24.6566 F   0  0  0  0  0  0  0  0  0  0  0  0
  -16.6919  -12.4367   22.3119 F   0  0  0  0  0  0  0  0  0  0  0  0
  -32.1455  -20.3550   26.1387 Cl  0  0  0  0  0  0  0  0  0  0  0  0
  -34.9330  -20.9406   21.5540 Cl  0  0  0  0  0  0  0  0  0  0  0  0
  1  2  1  0  0  0  0
  1  5  2  0  0  0  0
  2  6  2  0  0  0  0
  3 10  2  0  0  0  0
  3 21  1  0  0  0  0
  4 11  1  0  0  0  0
  4 21  2  0  0  0  0
  5 23  1  0  0  0  0
  6 25  1  0  0  0  0
  7 12  2  0  0  0  0
  7 24  1  0  0  0  0
  8  9  2  0  0  0  0
  8 27  1  0  0  0  0
  9 30  1  0  0  0  0
 10 31  1  0  0  0  0
 11 31  2  0  0  0  0
 12 32  1  0  0  0  0
 13 14  2  0  0  0  0
 13 33  1  0  0  0  0
 14 34  1  0  0  0  0
 15 26  1  0  0  0  0
 15 32  2  0  0  0  0
 16 27  2  0  0  0  0
 16 28  1  0  0  0  0
 17 29  1  0  0  0  0
 17 36  2  0  0  0  0
 18 29  2  0  0  0  0
 18 37  1  0  0  0  0
 19 34  2  0  0  0  0
 19 35  1  0  0  0  0
 20 36  1  0  0  0  0
 20 37  2  0  0  0  0
 21 38  1  0  0  0  0
 22 38  1  0  0  0  0
 22 39  2  0  0  0  0
 22 42  1  0  0  0  0
 23 25  2  0  0  0  0
 23 47  1  0  0  0  0
 24 26  2  0  0  0  0
 24 48  1  0  0  0  0
 25 59  1  0  0  0  0
 26 49  1  0  0  0  0
 27 70  1  0  0  0  0
 28 30  2  0  0  0  0
 28 63  1  0  0  0  0
 29 69  1  0  0  0  0
 30 83  1  0  0  0  0
 31 91  1  0  0  0  0
 32 92  1  0  0  0  0
 33 35  2  0  0  0  0
 33 91  1  0  0  0  0
 34 93  1  0  0  0  0
 35 94  1  0  0  0  0
 36 95  1  0  0  0  0
 37 96  1  0  0  0  0
 38 75  2  0  0  0  0
 39 76  1  0  0  0  0
 39 79  1  0  0  0  0
 40 41  2  0  0  0  0
 40 50  1  0  0  0  0
 40 84  1  0  0  0  0
 42 80  1  0  0  0  0
 42 86  2  0  0  0  0
 43 60  1  0  0  0  0
 43 81  1  0  0  0  0
 43 87  2  0  0  0  0
 44 72  1  0  0  0  0
 44 77  1  0  0  0  0
 44 88  2  0  0  0  0
 45 73  1  0  0  0  0
 45 82  1  0  0  0  0
 45 89  2  0  0  0  0
 46 78  1  0  0  0  0
 46 83  1  0  0  0  0
 46 90  2  0  0  0  0
 47 51  1  0  0  0  0
 48 60  1  0  0  0  0
 49 77  1  0  0  0  0
 50 61  1  0  0  0  0
 51 53  1  0  0  0  0
 52 54  1  0  0  0  0
 52 56  1  0  0  0  0
 53 59  1  0  0  0  0
 54 62  1  0  0  0  0
 55 58  1  0  0  0  0
 55 61  1  0  0  0  0
 56 78  1  0  0  0  0
 57 62  1  0  0  0  0
 57 78  1  0  0  0  0
 58 84  1  0  0  0  0
 59 81  1  0  0  0  0
 60 77  1  0  0  0  0
 61 71  1  0  0  0  0
 62 76  1  0  0  0  0
 64 73  1  0  0  0  0
 65 74  1  0  0  0  0
 66 74  1  0  0  0  0
 67 74  1  0  0  0  0
 68 85  1  0  0  0  0
 69 83  1  0  0  0  0
 70 84  1  0  0  0  0
 71 92  1  0  0  0  0
 72 74  1  0  0  0  0
 72 82  1  0  0  0  0
 73 85  1  0  0  0  0
 75 76  1  0  0  0  0
M  CHG  2  84   1  85   1
M  ISO  4  46 100  71 101  83 100  92 101
M  END
> <Batch ID>
0049

> <Smiles>
C=C1CC([101CH2:1][101O:1]c2ccc3c(c2)CN(C(=O)C(NC(=O)C(C)NC)C(C)(C)C)C(C(=O)NC2CCCc4ccccc42)C3)CCN1Cc1ccc([100N:0](Cc2cc(Cl)cc(Cl)c2)[100C:0](=O)N2CCCC(n3nc(-c4ccc(Oc5ccc(F)cc5F)cc4)c(C(N)=O)c3N)C2)c(C)c1

> <Shape>
0.272

> <Color>
0.083

> <Negative vol penalty>
0.000

$$$$

  -OEChem-04042322323D

 93102  0     1  0  0  0  0  0999 V2000
  -30.4731  -31.6493   15.8115 C   0  0  0  0  0  0  0  0  0  0  0  0
  -30.5091  -30.4715   16.5510 C   0  0  0  0  0  0  0  0  0  0  0  0
  -22.6379  -10.3185   20.3167 C   0  0  0  0  0  0  0  0  0  0  0  0
  -24.1739   -9.7444   22.0909 C   0  0  0  0  0  0  0  0  0  0  0  0
  -32.7252  -17.5906   23.2533 C   0  0  0  0  0  0  0  0  0  0  0  0
  -29.7469  -32.7434   16.2800 C   0  0  0  0  0  0  0  0  0  0  0  0
  -29.8197  -30.3875   17.7602 C   0  0  0  0  0  0  0  0  0  0  0  0
  -27.0222  -25.4525   20.0679 C   0  0  0  0  0  0  0  0  0  0  0  0
  -32.1245  -16.6586   22.4071 C   0  0  0  0  0  0  0  0  0  0  0  0
  -21.8589   -9.2048   20.6306 C   0  0  0  0  0  0  0  0  0  0  0  0
  -23.3949   -8.6307   22.4049 C   0  0  0  0  0  0  0  0  0  0  0  0
  -27.4142  -24.5107   21.0183 C   0  0  0  0  0  0  0  0  0  0  0  0
  -20.5270   -7.9895   24.0734 C   0  0  0  0  0  0  0  0  0  0  0  0
  -20.2551   -7.7496   25.4203 C   0  0  0  0  0  0  0  0  0  0  0  0
  -26.2382  -25.7492   22.7219 C   0  0  0  0  0  0  0  0  0  0  0  0
  -21.3446   -5.5993   25.2573 C   0  0  0  0  0  0  0  0  0  0  0  0
  -23.7954  -10.5882   21.0468 C   0  0  0  0  0  0  0  0  0  0  0  0
  -31.9439  -18.5402   23.9118 C   0  0  0  0  0  0  0  0  0  0  0  0
  -24.2017  -13.0881   20.7412 C   0  0  0  0  0  0  0  0  0  0  0  0
  -29.0404  -32.6696   17.4908 C   0  0  0  0  0  0  0  0  0  0  0  0
  -26.2431  -26.5574   20.4401 C   0  0  0  0  0  0  0  0  0  0  0  0
  -29.0844  -31.4821   18.2460 C   0  0  0  0  0  0  0  0  0  0  0  0
  -25.8355  -26.7022   21.7739 C   0  0  0  0  0  0  0  0  0  0  0  0
  -30.5618  -18.5578   23.7239 C   0  0  0  0  0  0  0  0  0  0  0  0
  -29.9611  -17.6258   22.8777 C   0  0  0  0  0  0  0  0  0  0  0  0
  -30.7425  -16.6762   22.2192 C   0  0  0  0  0  0  0  0  0  0  0  0
  -22.2374   -8.3609   21.6747 C   0  0  0  0  0  0  0  0  0  0  0  0
  -27.0246  -24.6605   22.3460 C   0  0  0  0  0  0  0  0  0  0  0  0
  -21.2076   -7.0343   23.3184 C   0  0  0  0  0  0  0  0  0  0  0  0
  -20.6639   -6.5545   26.0122 C   0  0  0  0  0  0  0  0  0  0  0  0
  -21.6164   -5.8392   23.9103 C   0  0  0  0  0  0  0  0  0  0  0  0
  -24.6008  -11.7382   20.7226 C   0  0  0  0  0  0  0  0  0  0  0  0
  -25.3226  -13.7828   20.3571 C   0  0  0  0  0  0  0  0  0  0  0  0
  -32.7777  -19.2057   26.1017 C   0  0  0  0  0  0  0  0  0  0  0  0
  -32.6144  -19.5141   24.8021 C   0  0  0  0  0  0  0  0  0  0  0  0
  -22.9314  -13.6626   21.0758 C   0  0  0  0  0  0  0  0  0  0  0  0
  -26.6509  -29.7094   20.3881 C   0  0  0  0  0  0  0  0  0  0  0  0
  -23.5475  -29.7350   21.3315 C   0  0  0  0  0  0  0  0  0  0  0  0
  -28.5182  -21.7065   23.9616 C   0  0  0  0  0  0  0  0  0  0  0  0
  -20.9641  -28.0922   22.8397 C   0  0  0  0  0  0  0  0  0  0  0  0
  -30.8042  -14.7207   20.6322 C   0  0  0  0  0  0  0  0  0  0  0  0
  -28.3081  -33.8940   17.9797 C   0  0  0  0  0  0  0  0  0  0  0  0
  -25.8061  -27.5502   19.3980 C   0  0  0  0  0  0  0  0  0  0  0  0
  -24.9819  -27.8598   22.2211 C   0  0  0  0  0  0  0  0  0  0  0  0
  -33.4612  -20.0616   27.1250 C   0  0  0  0  0  0  0  0  0  0  0  0
  -33.1307  -20.7846   24.1726 C   0  0  0  0  0  0  0  0  0  0  0  0
  -27.2987  -33.5987   19.0862 C   0  0  0  0  0  0  0  0  0  0  0  0
  -32.8594  -21.4552   27.2868 C   0  0  0  0  0  0  0  0  0  0  0  0
  -32.5779  -22.0632   24.8057 C   0  0  0  0  0  0  0  0  0  0  0  0
  -33.2041  -22.4167   26.1525 C   0  0  0  0  0  0  0  0  0  0  0  0
  -29.7073  -12.1521   18.4240 C   0  0  0  0  0  0  0  0  0  0  0  0
  -27.9189  -32.6954   20.1474 C   0  0  0  0  0  0  0  0  0  0  0  0
  -28.2481  -11.9265   18.8267 C   0  0  0  0  0  0  0  0  0  0  0  0
  -30.5892  -12.4553   19.6340 C   0  0  0  0  0  0  0  0  0  0  0  0
  -28.6575  -13.3275   20.8898 C   0  0  0  0  0  0  0  0  0  0  0  0
  -28.3293  -31.3440   19.5502 C   0  0  1  0  0  0  0  0  0  0  0  0
  -25.4437  -28.9112   19.9842 C   0  0  1  0  0  0  0  0  0  0  0  0
  -27.7185  -13.0828   19.6973 C   0  0  2  0  0  0  0  0  0  0  0  0
  -18.5599  -28.3840   23.4969 C   0  0  0  0  0  0  0  0  0  0  0  0
  -24.4032  -31.4978   23.6703 C   0  0  0  0  0  0  0  0  0  0  0  0
  -22.2193  -30.9715   24.7756 C   0  0  0  0  0  0  0  0  0  0  0  0
  -22.2512  -32.1716   22.5890 C   0  0  0  0  0  0  0  0  0  0  0  0
  -20.1017  -25.8381   21.1267 C   0  0  0  0  0  0  0  0  0  0  0  0
  -29.7134  -19.5761   24.4291 C   0  0  0  0  0  0  0  0  0  0  0  0
  -28.2056  -22.6517   22.8213 C   0  0  0  0  0  0  0  0  0  1  0  0
  -22.8342  -29.7125   22.6619 C   0  0  1  0  0  0  0  0  0  0  0  0
  -19.5181  -27.8915   22.4235 C   0  0  2  0  0  0  0  0  0  0  0  0
  -28.4779  -17.6462   22.6755 C   0  0  0  0  0  0  0  0  0  0  0  0
  -22.9447  -31.0675   23.4164 C   0  0  0  0  0  0  0  0  0  0  0  0
  -25.8756  -11.5824   20.3556 N   0  0  0  0  0  0  0  0  0  0  0  0
  -26.2872  -12.8434   20.1400 N   0  0  0  0  0  0  0  0  0  0  0  0
  -24.5856  -28.8072   21.1662 N   0  0  0  0  0  0  0  0  0  0  0  0
  -30.0278  -13.5640   20.4089 N   0  0  0  0  0  0  0  0  0  0  0  0
  -25.5673  -15.0995   20.1873 N   0  0  0  0  0  0  0  0  0  0  0  0
  -22.6893  -14.0175   22.4098 N   0  0  0  0  0  0  0  0  0  0  0  0
  -30.1537  -15.7212   21.3537 N   0  0  0  0  0  0  0  0  0  0  0  0
  -27.1701  -30.4951   19.3769 N   0  0  0  0  0  0  0  0  0  0  0  0
  -29.2789  -20.6276   23.5389 N   0  0  0  0  0  0  0  0  0  0  0  0
  -21.4648  -29.2934   22.3838 N   0  0  0  0  0  0  0  0  0  0  0  0
  -19.2457  -26.4472   22.1771 N   0  3  0  0  0  0  0  0  0  0  0  0
  -22.0316  -13.8405   20.2201 O   0  0  0  0  0  0  0  0  0  0  0  0
  -27.0789  -29.6201   21.5329 O   0  0  0  0  0  0  0  0  0  0  0  0
  -23.1917  -30.5410   20.4682 O   0  0  0  0  0  0  0  0  0  0  0  0
  -28.1292  -21.8996   25.1103 O   0  0  0  0  0  0  0  0  0  0  0  0
  -21.5861  -27.2677   23.5059 O   0  0  0  0  0  0  0  0  0  0  0  0
  -31.9512  -14.8276   20.1908 O   0  0  0  0  0  0  0  0  0  0  0  0
  -21.4775   -7.2743   21.9815 O   0  0  0  0  0  0  0  0  0  0  0  0
  -27.4064  -23.7430   23.2757 O   0  0  0  0  0  0  0  0  0  1  0  0
  -20.4041   -6.3249   27.3061 F   0  0  0  0  0  0  0  0  0  0  0  0
  -22.2717   -4.9183   23.1904 F   0  0  0  0  0  0  0  0  0  0  0  0
  -27.8483  -18.6286   23.3813 F   0  0  0  0  0  0  0  0  0  0  0  0
  -28.1115  -17.8432   21.3769 F   0  0  0  0  0  0  0  0  0  0  0  0
  -27.8858  -16.4790   23.0552 F   0  0  0  0  0  0  0  0  0  0  0  0
  1  2  1  0  0  0  0
  1  6  2  0  0  0  0
  2  7  2  0  0  0  0
  3 10  2  0  0  0  0
  3 17  1  0  0  0  0
  4 11  1  0  0  0  0
  4 17  2  0  0  0  0
  5  9  1  0  0  0  0
  5 18  2  0  0  0  0
  6 20  1  0  0  0  0
  7 22  1  0  0  0  0
  8 12  2  0  0  0  0
  8 21  1  0  0  0  0
  9 26  2  0  0  0  0
 10 27  1  0  0  0  0
 11 27  2  0  0  0  0
 12 28  1  0  0  0  0
 13 14  2  0  0  0  0
 13 29  1  0  0  0  0
 14 30  1  0  0  0  0
 15 23  1  0  0  0  0
 15 28  2  0  0  0  0
 16 30  2  0  0  0  0
 16 31  1  0  0  0  0
 17 32  1  0  0  0  0
 18 24  1  0  0  0  0
 18 35  1  0  0  0  0
 19 32  1  0  0  0  0
 19 33  2  0  0  0  0
 19 36  1  0  0  0  0
 20 22  2  0  0  0  0
 20 42  1  0  0  0  0
 21 23  2  0  0  0  0
 21 43  1  0  0  0  0
 22 56  1  0  0  0  0
 23 44  1  0  0  0  0
 24 25  2  0  0  0  0
 24 64  1  0  0  0  0
 25 26  1  0  0  0  0
 25 68  1  0  0  0  0
 26 76  1  0  0  0  0
 27 87  1  0  0  0  0
 28 88  1  0  0  0  0
 29 31  2  0  0  0  0
 29 87  1  0  0  0  0
 30 89  1  0  0  0  0
 31 90  1  0  0  0  0
 32 70  2  0  0  0  0
 33 71  1  0  0  0  0
 33 74  1  0  0  0  0
 34 35  2  0  0  0  0
 34 45  1  0  0  0  0
 35 46  1  0  0  0  0
 36 75  1  0  0  0  0
 36 81  2  0  0  0  0
 37 57  1  0  0  0  0
 37 77  1  0  0  0  0
 37 82  2  0  0  0  0
 38 66  1  0  0  0  0
 38 72  1  0  0  0  0
 38 83  2  0  0  0  0
 39 65  1  0  0  0  0
 39 78  1  0  0  0  0
 39 84  2  0  0  0  0
 40 67  1  0  0  0  0
 40 79  1  0  0  0  0
 40 85  2  0  0  0  0
 41 73  1  0  0  0  0
 41 76  1  0  0  0  0
 41 86  2  0  0  0  0
 42 47  1  0  0  0  0
 43 57  1  0  0  0  0
 44 72  1  0  0  0  0
 45 48  1  0  0  0  0
 46 49  1  0  0  0  0
 47 52  1  0  0  0  0
 48 50  1  0  0  0  0
 49 50  1  0  0  0  0
 51 53  1  0  0  0  0
 51 54  1  0  0  0  0
 52 56  1  0  0  0  0
 53 58  1  0  0  0  0
 54 73  1  0  0  0  0
 55 58  1  0  0  0  0
 55 73  1  0  0  0  0
 56 77  1  0  0  0  0
 57 72  1  0  0  0  0
 58 71  1  0  0  0  0
 59 67  1  0  0  0  0
 60 69  1  0  0  0  0
 61 69  1  0  0  0  0
 62 69  1  0  0  0  0
 63 80  1  0  0  0  0
 64 78  1  0  0  0  0
 65 88  1  0  0  0  0
 66 69  1  0  0  0  0
 66 79  1  0  0  0  0
 67 80  1  0  0  0  0
 68 91  1  0  0  0  0
 68 92  1  0  0  0  0
 68 93  1  0  0  0  0
 70 71  1  0  0  0  0
M  CHG  1  80   1
M  ISO  4  41 100  65 101  76 100  88 101
M  END
> <Batch ID>
0049

> <Smiles>
CNC(C)C(=O)NC(C(=O)N1Cc2cc([101O:1][101CH2:1]C(=O)NCc3c(C4=CCCCCC4)ccc([100NH:0][100C:0](=O)N4CCCC(n5nc(-c6ccc(Oc7ccc(F)cc7F)cc6)c(C(N)=O)c5N)C4)c3C(F)(F)F)ccc2CC1C(=O)NC1CCCc2ccccc21)C(C)(C)C

> <Shape>
0.308

> <Color>
0.190

> <Negative vol penalty>
0.000

$$$$

  -OEChem-04042322323D

 88 97  0     1  0  0  0  0  0999 V2000
  -16.5207  -30.3336   20.9109 C   0  0  0  0  0  0  0  0  0  0  0  0
  -17.6273  -30.6795   20.1419 C   0  0  0  0  0  0  0  0  0  0  0  0
  -26.0566  -11.2379   19.9307 C   0  0  0  0  0  0  0  0  0  0  0  0
  -25.5264  -13.4179   20.8271 C   0  0  0  0  0  0  0  0  0  0  0  0
  -16.5934  -30.3944   22.3019 C   0  0  0  0  0  0  0  0  0  0  0  0
  -18.8069  -31.0875   20.7636 C   0  0  0  0  0  0  0  0  0  0  0  0
  -24.9869  -27.5495   19.6764 C   0  0  0  0  0  0  0  0  0  0  0  0
  -29.1741  -21.9991   20.4264 C   0  0  0  0  0  0  0  0  0  0  0  0
  -29.2994  -20.6099   20.4303 C   0  0  0  0  0  0  0  0  0  0  0  0
  -24.9732  -10.6915   20.6185 C   0  0  0  0  0  0  0  0  0  0  0  0
  -24.4429  -12.8715   21.5149 C   0  0  0  0  0  0  0  0  0  0  0  0
  -26.2504  -27.0534   19.3543 C   0  0  0  0  0  0  0  0  0  0  0  0
  -24.2637   -9.7156   23.7759 C   0  0  0  0  0  0  0  0  0  0  0  0
  -24.4685   -8.5170   24.4592 C   0  0  0  0  0  0  0  0  0  0  0  0
  -27.2622  -28.5679   20.9451 C   0  0  0  0  0  0  0  0  0  0  0  0
  -31.6207  -20.8211   21.0659 C   0  0  0  0  0  0  0  0  0  0  0  0
  -22.7672   -7.4572   23.1104 C   0  0  0  0  0  0  0  0  0  0  0  0
  -26.3333  -12.6011   20.0350 C   0  0  0  0  0  0  0  0  0  0  0  0
  -27.6633  -13.1680   17.9333 C   0  0  0  0  0  0  0  0  0  0  0  0
  -17.7776  -30.7940   22.9412 C   0  0  0  0  0  0  0  0  0  0  0  0
  -24.8547  -28.5471   20.6463 C   0  0  0  0  0  0  0  0  0  0  0  0
  -18.8951  -31.1549   22.1644 C   0  0  0  0  0  0  0  0  0  0  0  0
  -25.9981  -29.0600   21.2808 C   0  0  0  0  0  0  0  0  0  0  0  0
  -31.4954  -22.2103   21.0619 C   0  0  0  0  0  0  0  0  0  0  0  0
  -30.2722  -22.7993   20.7421 C   0  0  0  0  0  0  0  0  0  0  0  0
  -30.5226  -20.0209   20.7501 C   0  0  0  0  0  0  0  0  0  0  0  0
  -24.1663  -11.5083   21.4106 C   0  0  0  0  0  0  0  0  0  0  0  0
  -27.3852  -27.5616   19.9870 C   0  0  0  0  0  0  0  0  0  0  0  0
  -23.3105   -9.7851   22.7598 C   0  0  0  0  0  0  0  0  0  0  0  0
  -23.7203   -7.3878   24.1265 C   0  0  0  0  0  0  0  0  0  0  0  0
  -22.5623   -8.6559   22.4271 C   0  0  0  0  0  0  0  0  0  0  0  0
  -27.4527  -13.1660   19.3252 C   0  0  0  0  0  0  0  0  0  0  0  0
  -28.8601  -13.8213   17.7680 C   0  0  0  0  0  0  0  0  0  0  0  0
  -30.8994  -25.0370   19.8772 C   0  0  0  0  0  0  0  0  0  0  0  0
  -26.8497  -12.6277   16.8835 C   0  0  0  0  0  0  0  0  0  0  0  0
  -22.5464  -30.7783   22.5877 C   0  0  0  0  0  0  0  0  0  0  0  0
  -24.6929  -29.7961   24.5468 C   0  0  0  0  0  0  0  0  0  0  0  0
  -26.9864  -28.1592   26.4697 C   0  0  0  0  0  0  0  0  0  0  0  0
  -31.7908  -17.8648   21.0491 C   0  0  0  0  0  0  0  0  0  0  0  0
  -17.7934  -30.8895   24.4462 C   0  0  0  0  0  0  0  0  0  0  0  0
  -23.5193  -29.1544   20.9806 C   0  0  0  0  0  0  0  0  0  0  0  0
  -25.8110  -30.1571   22.2929 C   0  0  0  0  0  0  0  0  0  0  0  0
  -30.8997  -26.5334   20.1485 C   0  0  0  0  0  0  0  0  0  0  0  0
  -19.1987  -30.9724   25.0366 C   0  0  0  0  0  0  0  0  0  0  0  0
  -33.0001  -14.6789   20.0172 C   0  0  0  0  0  0  0  0  0  0  0  0
  -20.0401  -31.9890   24.2714 C   0  0  0  0  0  0  0  0  0  0  0  0
  -31.7346  -13.9317   19.5902 C   0  0  0  0  0  0  0  0  0  0  0  0
  -29.1615  -26.2602   21.8861 C   0  0  0  0  0  0  0  0  0  0  0  0
  -32.7472  -15.5781   21.2260 C   0  0  0  0  0  0  0  0  0  0  0  0
  -28.9899  -24.8027   21.4869 C   0  0  0  0  0  0  0  0  0  0  0  0
  -30.3584  -15.7655   20.6534 C   0  0  0  0  0  0  0  0  0  0  0  0
  -20.2003  -31.5785   22.8025 C   0  0  1  0  0  0  0  0  0  0  0  0
  -23.3869  -29.5415   22.4644 C   0  0  1  0  0  0  0  0  0  0  0  0
  -30.5479  -14.8964   19.3994 C   0  0  2  0  0  0  0  0  0  0  0  0
  -29.6023  -27.0876   20.6971 C   0  0  2  0  0  0  0  0  0  1  0  0
  -27.7964  -27.9705   28.8373 C   0  0  0  0  0  0  0  0  0  0  0  0
  -33.6216  -22.3273   22.3752 C   0  0  0  0  0  0  0  0  0  0  0  0
  -26.1457  -32.4626   24.2584 C   0  0  0  0  0  0  0  0  0  0  0  0
  -27.6288  -31.7790   26.1562 C   0  0  0  0  0  0  0  0  0  0  0  0
  -25.1757  -32.0424   26.5249 C   0  0  0  0  0  0  0  0  0  0  0  0
  -26.2851  -25.2871   26.6031 C   0  0  0  0  0  0  0  0  0  0  0  0
  -26.0246  -30.0623   25.2018 C   0  0  1  0  0  0  0  0  0  0  0  0
  -26.8501  -27.4137   27.7850 C   0  0  2  0  0  0  0  0  0  0  0  0
  -32.6881  -23.0432   21.4035 C   0  0  0  0  0  0  0  0  0  0  0  0
  -26.2415  -31.5703   25.5121 C   0  0  0  0  0  0  0  0  0  0  0  0
  -28.4370  -13.7699   19.9964 N   0  0  0  0  0  0  0  0  0  0  0  0
  -29.2776  -14.1574   19.0221 N   0  0  0  0  0  0  0  0  0  0  0  0
  -30.1211  -24.2388   20.7322 N   0  0  0  0  0  0  0  0  0  0  0  0
  -24.6519  -29.8588   23.1486 N   0  0  0  0  0  0  0  0  0  0  0  0
  -31.6119  -16.4674   20.9711 N   0  0  0  0  0  0  0  0  0  0  0  0
  -29.5856  -14.1351   16.6737 N   0  0  0  0  0  0  0  0  0  0  0  0
  -25.6512  -11.9885   17.2289 N   0  0  0  0  0  0  0  0  0  0  0  0
  -30.6492  -18.6096   20.7548 N   0  0  0  0  0  0  0  0  0  0  0  0
  -21.1899  -30.5302   22.6758 N   0  0  0  0  0  0  0  0  0  0  0  0
  -26.0830  -29.1966   26.3746 N   0  0  0  0  0  0  0  0  0  0  0  0
  -27.1568  -25.9678   27.5951 N   0  3  0  0  0  0  0  0  0  0  0  0
  -31.6205  -24.6163   18.9678 O   0  0  0  0  0  0  0  0  0  0  0  0
  -27.1840  -12.6949   15.6764 O   0  0  0  0  0  0  0  0  0  0  0  0
  -23.0877  -31.8776   22.6034 O   0  0  0  0  0  0  0  0  0  0  0  0
  -23.7127  -29.5448   25.2534 O   0  0  0  0  0  0  0  0  0  0  0  0
  -27.8142  -27.8544   25.6139 O   0  0  0  0  0  0  0  0  0  0  0  0
  -32.8838  -18.3645   21.3279 O   0  0  0  0  0  0  0  0  0  0  0  0
  -23.1088  -10.9755   22.0818 O   0  0  0  0  0  0  0  0  0  0  0  0
  -28.6152  -27.0696   19.6711 O   0  0  0  0  0  0  0  0  0  1  0  0
  -23.9183   -6.2365   24.7817 F   0  0  0  0  0  0  0  0  0  0  0  0
  -21.6459   -8.7161   21.4511 F   0  0  0  0  0  0  0  0  0  0  0  0
  -32.3546  -24.2435   21.9750 F   0  0  0  0  0  0  0  0  0  0  0  0
  -33.4335  -23.3836   20.3047 F   0  0  0  0  0  0  0  0  0  0  0  0
  1  2  1  0  0  0  0
  1  5  2  0  0  0  0
  2  6  2  0  0  0  0
  3 10  2  0  0  0  0
  3 18  1  0  0  0  0
  4 11  1  0  0  0  0
  4 18  2  0  0  0  0
  5 20  1  0  0  0  0
  6 22  1  0  0  0  0
  7 12  2  0  0  0  0
  7 21  1  0  0  0  0
  8  9  2  0  0  0  0
  8 25  1  0  0  0  0
  9 26  1  0  0  0  0
 10 27  1  0  0  0  0
 11 27  2  0  0  0  0
 12 28  1  0  0  0  0
 13 14  2  0  0  0  0
 13 29  1  0  0  0  0
 14 30  1  0  0  0  0
 15 23  1  0  0  0  0
 15 28  2  0  0  0  0
 16 24  1  0  0  0  0
 16 26  2  0  0  0  0
 17 30  2  0  0  0  0
 17 31  1  0  0  0  0
 18 32  1  0  0  0  0
 19 32  1  0  0  0  0
 19 33  2  0  0  0  0
 19 35  1  0  0  0  0
 20 22  2  0  0  0  0
 20 40  1  0  0  0  0
 21 23  2  0  0  0  0
 21 41  1  0  0  0  0
 22 52  1  0  0  0  0
 23 42  1  0  0  0  0
 24 25  2  0  0  0  0
 24 64  1  0  0  0  0
 25 68  1  0  0  0  0
 26 73  1  0  0  0  0
 27 83  1  0  0  0  0
 28 84  1  0  0  0  0
 29 31  2  0  0  0  0
 29 83  1  0  0  0  0
 30 85  1  0  0  0  0
 31 86  1  0  0  0  0
 32 66  2  0  0  0  0
 33 67  1  0  0  0  0
 33 71  1  0  0  0  0
 34 43  1  0  0  0  0
 34 68  1  0  0  0  0
 34 77  2  0  0  0  0
 35 72  1  0  0  0  0
 35 78  2  0  0  0  0
 36 53  1  0  0  0  0
 36 74  1  0  0  0  0
 36 79  2  0  0  0  0
 37 62  1  0  0  0  0
 37 69  1  0  0  0  0
 37 80  2  0  0  0  0
 38 63  1  0  0  0  0
 38 75  1  0  0  0  0
 38 81  2  0  0  0  0
 39 70  1  0  0  0  0
 39 73  1  0  0  0  0
 39 82  2  0  0  0  0
 40 44  1  0  0  0  0
 41 53  1  0  0  0  0
 42 69  1  0  0  0  0
 43 55  1  0  0  0  0
 44 46  1  0  0  0  0
 45 47  1  0  0  0  0
 45 49  1  0  0  0  0
 46 52  1  0  0  0  0
 47 54  1  0  0  0  0
 48 50  1  0  0  0  0
 48 55  1  0  0  0  0
 49 70  1  0  0  0  0
 50 68  1  0  0  0  0
 51 54  1  0  0  0  0
 51 70  1  0  0  0  0
 52 74  1  0  0  0  0
 53 69  1  0  0  0  0
 54 67  1  0  0  0  0
 55 84  1  0  0  0  0
 56 63  1  0  0  0  0
 57 64  1  0  0  0  0
 58 65  1  0  0  0  0
 59 65  1  0  0  0  0
 60 65  1  0  0  0  0
 61 76  1  0  0  0  0
 62 65  1  0  0  0  0
 62 75  1  0  0  0  0
 63 76  1  0  0  0  0
 64 87  1  0  0  0  0
 64 88  1  0  0  0  0
 66 67  1  0  0  0  0
M  CHG  1  76   1
M  ISO  4  39 100  55 101  73 100  84 101
M  END
> <Batch ID>
0049

> <Smiles>
CNC(C)C(=O)NC(C(=O)N1Cc2cc([101O:1][101CH:1]3CCN(c4ccc([100NH:0][100C:0](=O)N5CCCC(n6nc(-c7ccc(Oc8ccc(F)cc8F)cc7)c(C(N)=O)c6N)C5)cc4C(C)(F)F)C(=O)C3)ccc2CC1C(=O)NC1CCCc2ccccc21)C(C)(C)C

> <Shape>
0.304

> <Color>
0.081

> <Negative vol penalty>
0.000

$$$$

  -OEChem-04042322323D

 88 96  0     1  0  0  0  0  0999 V2000
  -26.2425  -35.2018   26.7059 C   0  0  0  0  0  0  0  0  0  0  0  0
  -26.8979  -34.1266   26.1145 C   0  0  0  0  0  0  0  0  0  0  0  0
  -24.7181  -20.4002   17.9260 C   0  0  0  0  0  0  0  0  0  0  0  0
  -27.8924  -14.0063   18.7901 C   0  0  0  0  0  0  0  0  0  0  0  0
  -28.0556  -13.1027   21.0248 C   0  0  0  0  0  0  0  0  0  0  0  0
  -24.8564  -35.1758   26.8543 C   0  0  0  0  0  0  0  0  0  0  0  0
  -26.1676  -33.0242   25.6720 C   0  0  0  0  0  0  0  0  0  0  0  0
  -27.3586  -29.5438   20.7757 C   0  0  0  0  0  0  0  0  0  0  0  0
  -24.1728  -21.5054   18.5791 C   0  0  0  0  0  0  0  0  0  0  0  0
  -25.7500  -19.6761   18.5232 C   0  0  0  0  0  0  0  0  0  0  0  0
  -29.1751  -13.5374   18.5068 C   0  0  0  0  0  0  0  0  0  0  0  0
  -29.3384  -12.6337   20.7414 C   0  0  0  0  0  0  0  0  0  0  0  0
  -27.9941  -28.3111   20.6333 C   0  0  0  0  0  0  0  0  0  0  0  0
  -32.3628  -14.4702   19.1340 C   0  0  0  0  0  0  0  0  0  0  0  0
  -33.2374  -15.3348   18.4760 C   0  0  0  0  0  0  0  0  0  0  0  0
  -25.8490  -27.2080   20.6690 C   0  0  0  0  0  0  0  0  0  0  0  0
  -33.4242  -13.7592   16.6539 C   0  0  0  0  0  0  0  0  0  0  0  0
  -27.3327  -13.7890   20.0492 C   0  0  0  0  0  0  0  0  0  0  0  0
  -24.7917  -13.5900   20.1552 C   0  0  0  0  0  0  0  0  0  0  0  0
  -24.1077  -34.0767   26.4046 C   0  0  0  0  0  0  0  0  0  0  0  0
  -25.9619  -29.6171   20.8769 C   0  0  0  0  0  0  0  0  0  0  0  0
  -24.7703  -32.9828   25.8157 C   0  0  0  0  0  0  0  0  0  0  0  0
  -25.1981  -28.4432   20.8100 C   0  0  0  0  0  0  0  0  0  0  0  0
  -24.6594  -21.8867   19.8296 C   0  0  0  0  0  0  0  0  0  0  0  0
  -25.6912  -21.1626   20.4268 C   0  0  0  0  0  0  0  0  0  0  0  0
  -26.2366  -20.0574   19.7736 C   0  0  0  0  0  0  0  0  0  0  0  0
  -29.8981  -12.8510   19.4824 C   0  0  0  0  0  0  0  0  0  0  0  0
  -27.2395  -27.1427   20.5828 C   0  0  0  0  0  0  0  0  0  0  0  0
  -32.0188  -13.2500   18.5520 C   0  0  0  0  0  0  0  0  0  0  0  0
  -33.7681  -14.9794   17.2359 C   0  0  0  0  0  0  0  0  0  0  0  0
  -32.5495  -12.8946   17.3120 C   0  0  0  0  0  0  0  0  0  0  0  0
  -26.0079  -14.2737   20.3427 C   0  0  0  0  0  0  0  0  0  0  0  0
  -23.8315  -14.4738   20.5836 C   0  0  0  0  0  0  0  0  0  0  0  0
  -30.7754  -19.5351   20.4231 C   0  0  0  0  0  0  0  0  0  0  0  0
  -24.5513  -12.2738   19.6400 C   0  0  0  0  0  0  0  0  0  0  0  0
  -29.5956  -19.9230   19.9203 C   0  0  0  0  0  0  0  0  0  0  0  0
  -29.4195  -21.3877   19.6856 C   0  0  0  0  0  0  0  0  0  0  0  0
  -23.9238  -30.6286   23.0965 C   0  0  0  0  0  0  0  0  0  0  0  0
  -21.7227  -30.0398   20.7877 C   0  0  0  0  0  0  0  0  0  0  0  0
  -20.8844  -28.3391   17.9501 C   0  0  0  0  0  0  0  0  0  0  0  0
  -27.1371  -18.6520   21.6181 C   0  0  0  0  0  0  0  0  0  0  0  0
  -22.6164  -34.0733   26.6295 C   0  0  0  0  0  0  0  0  0  0  0  0
  -25.2900  -30.9569   21.0032 C   0  0  0  0  0  0  0  0  0  0  0  0
  -23.6945  -28.4695   20.8938 C   0  0  0  0  0  0  0  0  0  0  0  0
  -21.8769  -33.0309   25.7948 C   0  0  0  0  0  0  0  0  0  0  0  0
  -24.8853  -17.1298   23.9054 C   0  0  0  0  0  0  0  0  0  0  0  0
  -22.5894  -31.6842   25.8691 C   0  0  0  0  0  0  0  0  0  0  0  0
  -23.6582  -16.7871   23.0647 C   0  0  0  0  0  0  0  0  0  0  0  0
  -25.4984  -18.4531   23.4696 C   0  0  0  0  0  0  0  0  0  0  0  0
  -24.6778  -18.1499   21.1486 C   0  0  0  0  0  0  0  0  0  0  0  0
  -24.0104  -31.7798   25.3006 C   0  0  1  0  0  0  0  0  0  0  0  0
  -23.8946  -30.8703   21.6138 C   0  0  1  0  0  0  0  0  0  0  0  0
  -23.9080  -16.8729   21.5489 C   0  0  1  0  0  0  0  0  0  0  0  0
  -24.0575  -23.0740   20.5071 C   0  0  0  0  0  0  0  0  0  0  0  0
  -26.2099  -21.5754   21.7687 C   0  0  0  0  0  0  0  0  0  0  0  0
  -29.1354  -21.8286   18.2658 C   0  0  0  0  0  0  0  0  0  0  0  0
  -19.0032  -28.0388   16.3166 C   0  0  0  0  0  0  0  0  0  0  0  0
  -20.2387  -28.3121   22.8181 C   0  0  0  0  0  0  0  0  0  0  0  0
  -18.9521  -27.3083   20.9194 C   0  0  0  0  0  0  0  0  0  0  0  0
  -18.7659  -29.7496   21.3973 C   0  0  0  0  0  0  0  0  0  0  0  0
  -22.5311  -29.3210   15.6954 C   0  0  0  0  0  0  0  0  0  0  0  0
  -28.4875  -18.9846   19.5643 C   0  0  0  0  0  0  0  0  0  0  0  0
  -29.1693  -25.8143   20.9919 C   0  0  0  0  0  0  0  0  0  1  0  0
  -29.3959  -24.3758   21.4147 C   0  0  0  0  0  0  0  0  0  0  0  0
  -20.8957  -28.8448   20.3788 C   0  0  1  0  0  0  0  0  0  0  0  0
  -20.2769  -28.8046   16.6391 C   0  0  2  0  0  0  0  0  0  0  0  0
  -19.7415  -28.5527   21.3787 C   0  0  0  0  0  0  0  0  0  0  0  0
  -25.8386  -15.4974   20.8504 N   0  0  0  0  0  0  0  0  0  0  0  0
  -29.5029  -22.2141   20.6882 N   0  0  0  0  0  0  0  0  0  0  0  0
  -24.5047  -15.5897   20.9856 N   0  0  0  0  0  0  0  0  0  0  0  0
  -23.0844  -29.8031   21.0231 N   0  0  0  0  0  0  0  0  0  0  0  0
  -25.8064  -18.4564   22.0403 N   0  0  0  0  0  0  0  0  0  0  0  0
  -22.4854  -14.3974   20.6518 N   0  0  0  0  0  0  0  0  0  0  0  0
  -25.6511  -11.4995   19.2458 N   0  0  0  0  0  0  0  0  0  0  0  0
  -23.9768  -31.7832   23.8538 N   0  0  0  0  0  0  0  0  0  0  0  0
  -20.4521  -29.1034   19.0132 N   0  0  0  0  0  0  0  0  0  0  0  0
  -27.3044  -19.2931   20.3730 N   0  0  0  0  0  0  0  0  0  0  0  0
  -21.2416  -28.6042   15.5210 N   0  3  0  0  0  0  0  0  0  0  0  0
  -23.3945  -11.8046   19.5171 O   0  0  0  0  0  0  0  0  0  0  0  0
  -23.8986  -29.4797   23.5220 O   0  0  0  0  0  0  0  0  0  0  0  0
  -21.1818  -31.1439   20.8874 O   0  0  0  0  0  0  0  0  0  0  0  0
  -21.6617  -27.3900   18.0241 O   0  0  0  0  0  0  0  0  0  0  0  0
  -28.1018  -18.2940   22.3042 O   0  0  0  0  0  0  0  0  0  0  0  0
  -31.1497  -12.3931   19.2062 O   0  0  0  0  0  0  0  0  0  0  0  0
  -27.8572  -25.9380   20.4446 O   0  0  0  0  0  0  0  0  0  1  0  0
  -29.2903  -23.5339   20.2730 O   0  0  0  0  0  0  0  0  0  0  0  0
  -34.6068  -15.8104   16.6034 F   0  0  0  0  0  0  0  0  0  0  0  0
  -32.2219  -11.7243   16.7473 F   0  0  0  0  0  0  0  0  0  0  0  0
  1  2  1  0  0  0  0
  1  6  2  0  0  0  0
  2  7  2  0  0  0  0
  3  9  1  0  0  0  0
  3 10  2  0  0  0  0
  4 11  2  0  0  0  0
  4 18  1  0  0  0  0
  5 12  1  0  0  0  0
  5 18  2  0  0  0  0
  6 20  1  0  0  0  0
  7 22  1  0  0  0  0
  8 13  2  0  0  0  0
  8 21  1  0  0  0  0
  9 24  2  0  0  0  0
 10 26  1  0  0  0  0
 11 27  1  0  0  0  0
 12 27  2  0  0  0  0
 13 28  1  0  0  0  0
 14 15  2  0  0  0  0
 14 29  1  0  0  0  0
 15 30  1  0  0  0  0
 16 23  1  0  0  0  0
 16 28  2  0  0  0  0
 17 30  2  0  0  0  0
 17 31  1  0  0  0  0
 18 32  1  0  0  0  0
 19 32  1  0  0  0  0
 19 33  2  0  0  0  0
 19 35  1  0  0  0  0
 20 22  2  0  0  0  0
 20 42  1  0  0  0  0
 21 23  2  0  0  0  0
 21 43  1  0  0  0  0
 22 51  1  0  0  0  0
 23 44  1  0  0  0  0
 24 25  1  0  0  0  0
 24 54  1  0  0  0  0
 25 26  2  0  0  0  0
 25 55  1  0  0  0  0
 26 77  1  0  0  0  0
 27 84  1  0  0  0  0
 28 85  1  0  0  0  0
 29 31  2  0  0  0  0
 29 84  1  0  0  0  0
 30 87  1  0  0  0  0
 31 88  1  0  0  0  0
 32 68  2  0  0  0  0
 33 70  1  0  0  0  0
 33 73  1  0  0  0  0
 34 36  2  0  0  0  0
 35 74  1  0  0  0  0
 35 79  2  0  0  0  0
 36 37  1  0  0  0  0
 36 62  1  0  0  0  0
 37 56  1  0  0  0  0
 37 69  2  0  0  0  0
 38 52  1  0  0  0  0
 38 75  1  0  0  0  0
 38 80  2  0  0  0  0
 39 65  1  0  0  0  0
 39 71  1  0  0  0  0
 39 81  2  0  0  0  0
 40 66  1  0  0  0  0
 40 76  1  0  0  0  0
 40 82  2  0  0  0  0
 41 72  1  0  0  0  0
 41 77  1  0  0  0  0
 41 83  2  0  0  0  0
 42 45  1  0  0  0  0
 43 52  1  0  0  0  0
 44 71  1  0  0  0  0
 45 47  1  0  0  0  0
 46 48  1  0  0  0  0
 46 49  1  0  0  0  0
 47 51  1  0  0  0  0
 48 53  1  0  0  0  0
 49 72  1  0  0  0  0
 50 53  1  0  0  0  0
 50 72  1  0  0  0  0
 51 75  1  0  0  0  0
 52 71  1  0  0  0  0
 53 70  1  0  0  0  0
 57 66  1  0  0  0  0
 58 67  1  0  0  0  0
 59 67  1  0  0  0  0
 60 67  1  0  0  0  0
 61 78  1  0  0  0  0
 62 77  1  0  0  0  0
 63 64  1  0  0  0  0
 63 85  1  0  0  0  0
 64 86  1  0  0  0  0
 65 67  1  0  0  0  0
 65 76  1  0  0  0  0
 66 78  1  0  0  0  0
 68 70  1  0  0  0  0
 69 86  1  0  0  0  0
M  CHG  1  78   1
M  ISO  4  41 100  63 101  77 100  85 101
M  END
> <Batch ID>
0049

> <Smiles>
C=C(C[100N:0](c1cccc(C)c1C)[100C:0](=O)N1CCCC(n2nc(-c3ccc(Oc4ccc(F)cc4F)cc3)c(C(N)=O)c2N)C1)C(C)=NOC[101CH2:1][101O:1]c1ccc2c(c1)CN(C(=O)C(NC(=O)C(C)NC)C(C)(C)C)C(C(=O)NC1CCCc3ccccc31)C2

> <Shape>
0.258

> <Color>
0.086

> <Negative vol penalty>
0.000

$$$$

  -OEChem-04042322323D

 86 94  0     1  0  0  0  0  0999 V2000
  -34.0234  -27.4046   17.1552 C   0  0  0  0  0  0  0  0  0  0  0  0
  -32.6848  -27.5590   17.5014 C   0  0  0  0  0  0  0  0  0  0  0  0
  -23.3107  -14.5455   19.4682 C   0  0  0  0  0  0  0  0  0  0  0  0
  -24.5915  -15.1008   21.4401 C   0  0  0  0  0  0  0  0  0  0  0  0
  -34.5275  -26.1355   16.8738 C   0  0  0  0  0  0  0  0  0  0  0  0
  -31.8493  -26.4444   17.5652 C   0  0  0  0  0  0  0  0  0  0  0  0
  -28.9165  -26.4489   21.6936 C   0  0  0  0  0  0  0  0  0  0  0  0
  -24.3183  -13.6718   19.0598 C   0  0  0  0  0  0  0  0  0  0  0  0
  -25.5991  -14.2269   21.0317 C   0  0  0  0  0  0  0  0  0  0  0  0
  -27.7963  -27.2787   21.6779 C   0  0  0  0  0  0  0  0  0  0  0  0
  -28.1569  -14.2330   18.8207 C   0  0  0  0  0  0  0  0  0  0  0  0
  -29.4757  -14.6789   18.9071 C   0  0  0  0  0  0  0  0  0  0  0  0
  -26.4057  -25.3813   21.1440 C   0  0  0  0  0  0  0  0  0  0  0  0
  -20.2650  -27.0624   23.4812 C   0  0  0  0  0  0  0  0  0  0  0  0
  -18.5491  -26.2909   21.9656 C   0  0  0  0  0  0  0  0  0  0  0  0
  -19.2091  -28.6150   21.9609 C   0  0  0  0  0  0  0  0  0  0  0  0
  -29.9914  -12.8617   20.4135 C   0  0  0  0  0  0  0  0  0  0  0  0
  -23.4473  -15.2601   20.6584 C   0  0  0  0  0  0  0  0  0  0  0  0
  -21.2948  -15.8607   21.8886 C   0  0  0  0  0  0  0  0  0  0  0  0
  -33.7001  -25.0036   16.9436 C   0  0  0  0  0  0  0  0  0  0  0  0
  -28.7911  -25.0786   21.4234 C   0  0  0  0  0  0  0  0  0  0  0  0
  -32.3426  -25.1591   17.2831 C   0  0  0  0  0  0  0  0  0  0  0  0
  -27.5255  -24.5358   21.1594 C   0  0  0  0  0  0  0  0  0  0  0  0
  -19.4730  -26.0306   22.9776 C   0  0  0  0  0  0  0  0  0  0  0  0
  -20.1331  -28.3546   22.9729 C   0  0  0  0  0  0  0  0  0  0  0  0
  -25.4625  -13.5124   19.8415 C   0  0  0  0  0  0  0  0  0  0  0  0
  -26.5410  -26.7455   21.4002 C   0  0  0  0  0  0  0  0  0  0  0  0
  -27.7553  -13.1015   19.5307 C   0  0  0  0  0  0  0  0  0  0  0  0
  -30.3930  -13.9932   19.7034 C   0  0  0  0  0  0  0  0  0  0  0  0
  -28.6725  -12.4159   20.3271 C   0  0  0  0  0  0  0  0  0  0  0  0
  -18.4171  -27.5832   21.4572 C   0  0  0  0  0  0  0  0  0  0  0  0
  -22.4071  -16.1633   21.0806 C   0  0  0  0  0  0  0  0  0  0  0  0
  -20.6151  -17.0493   21.9964 C   0  0  0  0  0  0  0  0  0  0  0  0
  -20.9103  -14.6163   22.4882 C   0  0  0  0  0  0  0  0  0  0  0  0
  -29.9226  -23.1198   19.1904 C   0  0  0  0  0  0  0  0  0  0  0  0
  -28.5187  -20.8446   21.0275 C   0  0  0  0  0  0  0  0  0  0  0  0
  -23.3086  -29.1870   22.6087 C   0  0  0  0  0  0  0  0  0  0  0  0
  -26.1420  -20.0515   23.3447 C   0  0  0  0  0  0  0  0  0  0  0  0
  -20.5819  -22.4425   22.9234 C   0  0  0  0  0  0  0  0  0  0  0  0
  -34.2790  -23.6580   16.5847 C   0  0  0  0  0  0  0  0  0  0  0  0
  -30.0054  -24.1923   21.4706 C   0  0  0  0  0  0  0  0  0  0  0  0
  -27.3343  -23.0676   20.8829 C   0  0  0  0  0  0  0  0  0  0  0  0
  -33.4172  -22.4832   17.0399 C   0  0  0  0  0  0  0  0  0  0  0  0
  -21.1982  -21.4152   19.5084 C   0  0  0  0  0  0  0  0  0  0  0  0
  -31.9542  -22.7235   16.6809 C   0  0  0  0  0  0  0  0  0  0  0  0
  -21.4771  -19.9216   19.6857 C   0  0  0  0  0  0  0  0  0  0  0  0
  -21.7793  -22.2269   20.6623 C   0  0  0  0  0  0  0  0  0  0  0  0
  -21.5966  -20.3030   22.1917 C   0  0  0  0  0  0  0  0  0  0  0  0
  -31.4107  -23.9713   17.3873 C   0  0  1  0  0  0  0  0  0  0  0  0
  -29.8346  -22.9021   20.6745 C   0  0  1  0  0  0  0  0  0  0  0  0
  -21.0147  -19.4255   21.0686 C   0  0  2  0  0  0  0  0  0  0  0  0
  -25.2104  -18.1038   24.6238 C   0  0  0  0  0  0  0  0  0  0  0  0
  -27.0545  -19.9026   18.5218 C   0  0  0  0  0  0  0  0  0  0  0  0
  -25.4805  -18.6374   20.0017 C   0  0  0  0  0  0  0  0  0  0  0  0
  -27.9079  -18.0628   19.9851 C   0  0  0  0  0  0  0  0  0  0  0  0
  -21.7454  -30.8979   21.6599 C   0  0  0  0  0  0  0  0  0  0  0  0
  -26.8644  -21.2650   25.9456 C   0  0  0  0  0  0  0  0  0  0  0  0
  -19.6158  -24.6487   23.5205 C   0  0  0  0  0  0  0  0  0  0  0  0
  -20.9874  -29.4641   23.5147 C   0  0  0  0  0  0  0  0  0  0  0  0
  -24.3263  -29.6775   21.5840 C   0  0  0  0  0  0  0  0  0  0  0  0
  -25.6560  -28.9376   21.6596 C   0  0  0  0  0  0  0  0  0  1  0  0
  -27.1500  -20.2101   21.0835 C   0  0  1  0  0  0  0  0  0  0  0  0
  -26.2164  -19.2443   24.6282 C   0  0  2  0  0  0  0  0  0  0  0  0
  -26.9017  -19.2313   19.9012 C   0  0  0  0  0  0  0  0  0  0  0  0
  -22.4361  -17.4438   20.7018 N   0  0  0  0  0  0  0  0  0  0  0  0
  -21.3335  -17.9563   21.2743 N   0  0  0  0  0  0  0  0  0  0  0  0
  -28.5530  -22.2432   20.9342 N   0  0  0  0  0  0  0  0  0  0  0  0
  -21.2854  -21.7156   21.9487 N   0  0  0  0  0  0  0  0  0  0  0  0
  -19.4790  -17.3967   22.6374 N   0  0  0  0  0  0  0  0  0  0  0  0
  -21.7219  -13.4935   22.2762 N   0  0  0  0  0  0  0  0  0  0  0  0
  -31.1155  -23.6791   18.7736 N   0  0  0  0  0  0  0  0  0  0  0  0
  -27.0387  -19.5953   22.4018 N   0  0  0  0  0  0  0  0  0  0  0  0
  -20.3337  -23.7753   22.6189 N   0  0  0  0  0  0  0  0  0  0  0  0
  -22.0633  -29.8250   22.5943 N   0  0  0  0  0  0  0  0  0  0  0  0
  -25.9349  -20.1148   25.8046 N   0  3  0  0  0  0  0  0  0  0  0  0
  -19.8688  -14.4996   23.1775 O   0  0  0  0  0  0  0  0  0  0  0  0
  -28.9788  -22.8024   18.4762 O   0  0  0  0  0  0  0  0  0  0  0  0
  -29.5205  -20.1263   21.0724 O   0  0  0  0  0  0  0  0  0  0  0  0
  -23.5953  -28.2777   23.3918 O   0  0  0  0  0  0  0  0  0  0  0  0
  -25.3636  -20.9904   23.1924 O   0  0  0  0  0  0  0  0  0  0  0  0
  -20.1982  -21.9394   23.9849 O   0  0  0  0  0  0  0  0  0  0  0  0
  -26.4458  -12.6597   19.4433 O   0  0  0  0  0  0  0  0  0  0  0  0
  -25.4461  -27.5533   21.3836 O   0  0  0  0  0  0  0  0  0  1  0  0
  -31.6598  -14.4206   19.7851 F   0  0  0  0  0  0  0  0  0  0  0  0
  -28.2928  -11.3276   21.0107 F   0  0  0  0  0  0  0  0  0  0  0  0
  -17.2762  -27.9047   20.2094 Cl  0  0  0  0  0  0  0  0  0  0  0  0
  1  2  1  0  0  0  0
  1  5  2  0  0  0  0
  2  6  2  0  0  0  0
  3  8  2  0  0  0  0
  3 18  1  0  0  0  0
  4  9  1  0  0  0  0
  4 18  2  0  0  0  0
  5 20  1  0  0  0  0
  6 22  1  0  0  0  0
  7 10  2  0  0  0  0
  7 21  1  0  0  0  0
  8 26  1  0  0  0  0
  9 26  2  0  0  0  0
 10 27  1  0  0  0  0
 11 12  2  0  0  0  0
 11 28  1  0  0  0  0
 12 29  1  0  0  0  0
 13 23  1  0  0  0  0
 13 27  2  0  0  0  0
 14 24  1  0  0  0  0
 14 25  2  0  0  0  0
 15 24  2  0  0  0  0
 15 31  1  0  0  0  0
 16 25  1  0  0  0  0
 16 31  2  0  0  0  0
 17 29  2  0  0  0  0
 17 30  1  0  0  0  0
 18 32  1  0  0  0  0
 19 32  1  0  0  0  0
 19 33  2  0  0  0  0
 19 34  1  0  0  0  0
 20 22  2  0  0  0  0
 20 40  1  0  0  0  0
 21 23  2  0  0  0  0
 21 41  1  0  0  0  0
 22 49  1  0  0  0  0
 23 42  1  0  0  0  0
 24 58  1  0  0  0  0
 25 59  1  0  0  0  0
 26 82  1  0  0  0  0
 27 83  1  0  0  0  0
 28 30  2  0  0  0  0
 28 82  1  0  0  0  0
 29 84  1  0  0  0  0
 30 85  1  0  0  0  0
 31 86  1  0  0  0  0
 32 65  2  0  0  0  0
 33 66  1  0  0  0  0
 33 69  1  0  0  0  0
 34 70  1  0  0  0  0
 34 76  2  0  0  0  0
 35 50  1  0  0  0  0
 35 71  1  0  0  0  0
 35 77  2  0  0  0  0
 36 62  1  0  0  0  0
 36 67  1  0  0  0  0
 36 78  2  0  0  0  0
 37 60  1  0  0  0  0
 37 74  1  0  0  0  0
 37 79  2  0  0  0  0
 38 63  1  0  0  0  0
 38 72  1  0  0  0  0
 38 80  2  0  0  0  0
 39 68  1  0  0  0  0
 39 73  1  0  0  0  0
 39 81  2  0  0  0  0
 40 43  1  0  0  0  0
 41 50  1  0  0  0  0
 42 67  1  0  0  0  0
 43 45  1  0  0  0  0
 44 46  1  0  0  0  0
 44 47  1  0  0  0  0
 45 49  1  0  0  0  0
 46 51  1  0  0  0  0
 47 68  1  0  0  0  0
 48 51  1  0  0  0  0
 48 68  1  0  0  0  0
 49 71  1  0  0  0  0
 50 67  1  0  0  0  0
 51 66  1  0  0  0  0
 52 63  1  0  0  0  0
 53 64  1  0  0  0  0
 54 64  1  0  0  0  0
 55 64  1  0  0  0  0
 56 74  1  0  0  0  0
 57 75  1  0  0  0  0
 58 73  1  0  0  0  0
 59 74  1  0  0  0  0
 60 61  1  0  0  0  0
 61 83  1  0  0  0  0
 62 64  1  0  0  0  0
 62 72  1  0  0  0  0
 63 75  1  0  0  0  0
 65 66  1  0  0  0  0
M  CHG  1  75   1
M  ISO  4  39 100  61 101  73 100  83 101
M  END
> <Batch ID>
0049

> <Smiles>
CNC(C)C(=O)NC(C(=O)N1Cc2cc([101O:1][101CH2:1]CC(=O)N(C)Cc3cc(Cl)cc(C[100NH:0][100C:0](=O)N4CCCC(n5nc(-c6ccc(Oc7ccc(F)cc7F)cc6)c(C(N)=O)c5N)C4)c3)ccc2CC1C(=O)NC1CCCc2ccccc21)C(C)(C)C

> <Shape>
0.218

> <Color>
0.075

> <Negative vol penalty>
0.000

$$$$

  -OEChem-04042322323D

 89 98  0     1  0  0  0  0  0999 V2000
  -24.5337   -7.4570   25.1295 C   0  0  0  0  0  0  0  0  0  0  0  0
  -25.5333   -8.4235   25.0837 C   0  0  0  0  0  0  0  0  0  0  0  0
  -25.7847  -31.9219   20.2707 C   0  0  0  0  0  0  0  0  0  0  0  0
  -25.0328  -31.4117   22.5093 C   0  0  0  0  0  0  0  0  0  0  0  0
  -23.6602   -7.3077   24.0531 C   0  0  0  0  0  0  0  0  0  0  0  0
  -25.6605   -9.2406   23.9610 C   0  0  0  0  0  0  0  0  0  0  0  0
  -27.4008  -15.1115   23.8587 C   0  0  0  0  0  0  0  0  0  0  0  0
  -30.3563  -23.9193   17.6454 C   0  0  0  0  0  0  0  0  0  0  0  0
  -29.1155  -24.3574   18.1080 C   0  0  0  0  0  0  0  0  0  0  0  0
  -26.4017  -33.0806   20.7420 C   0  0  0  0  0  0  0  0  0  0  0  0
  -25.6498  -32.5705   22.9806 C   0  0  0  0  0  0  0  0  0  0  0  0
  -28.6246  -15.7225   23.5888 C   0  0  0  0  0  0  0  0  0  0  0  0
  -25.0057  -35.8890   23.0380 C   0  0  0  0  0  0  0  0  0  0  0  0
  -24.2852  -36.6937   23.9206 C   0  0  0  0  0  0  0  0  0  0  0  0
  -27.9377  -16.0752   21.3034 C   0  0  0  0  0  0  0  0  0  0  0  0
  -29.0933  -22.5738   19.7376 C   0  0  0  0  0  0  0  0  0  0  0  0
  -25.9976  -36.3875   25.5973 C   0  0  0  0  0  0  0  0  0  0  0  0
  -25.1002  -31.0874   21.1543 C   0  0  0  0  0  0  0  0  0  0  0  0
  -23.4429  -29.8035   19.7009 C   0  0  0  0  0  0  0  0  0  0  0  0
  -23.7707   -8.1299   22.9207 C   0  0  0  0  0  0  0  0  0  0  0  0
  -26.4390  -14.9677   22.8484 C   0  0  0  0  0  0  0  0  0  0  0  0
  -24.7885   -9.1013   22.8679 C   0  0  0  0  0  0  0  0  0  0  0  0
  -26.7015  -15.4643   21.5637 C   0  0  0  0  0  0  0  0  0  0  0  0
  -30.9657  -22.8085   18.2289 C   0  0  0  0  0  0  0  0  0  0  0  0
  -30.3341  -22.1357   19.2749 C   0  0  0  0  0  0  0  0  0  0  0  0
  -28.4839  -23.6847   19.1540 C   0  0  0  0  0  0  0  0  0  0  0  0
  -26.3343  -33.4049   22.0970 C   0  0  0  0  0  0  0  0  0  0  0  0
  -28.8944  -16.2019   22.3103 C   0  0  0  0  0  0  0  0  0  0  0  0
  -26.2220  -35.3335   23.4350 C   0  0  0  0  0  0  0  0  0  0  0  0
  -24.7812  -36.9430   25.2003 C   0  0  0  0  0  0  0  0  0  0  0  0
  -26.7180  -35.5828   24.7146 C   0  0  0  0  0  0  0  0  0  0  0  0
  -24.4621  -29.8905   20.6680 C   0  0  0  0  0  0  0  0  0  0  0  0
  -23.1850  -28.4587   19.5939 C   0  0  0  0  0  0  0  0  0  0  0  0
  -29.5799  -19.1075   19.1584 C   0  0  0  0  0  0  0  0  0  0  0  0
  -28.7475  -19.2715   18.1193 C   0  0  0  0  0  0  0  0  0  0  0  0
  -22.7878  -30.8451   18.9650 C   0  0  0  0  0  0  0  0  0  0  0  0
  -25.0244  -12.4981   21.4329 C   0  0  0  0  0  0  0  0  0  0  0  0
  -23.2683  -14.8219   20.0053 C   0  0  0  0  0  0  0  0  0  0  0  0
  -23.0317  -18.0795   19.0159 C   0  0  0  0  0  0  0  0  0  0  0  0
  -26.4631  -23.5766   20.6543 C   0  0  0  0  0  0  0  0  0  0  0  0
  -22.8331   -7.8995   21.7620 C   0  0  0  0  0  0  0  0  0  0  0  0
  -25.1133  -14.3302   23.1624 C   0  0  0  0  0  0  0  0  0  0  0  0
  -25.6945  -15.3529   20.4493 C   0  0  0  0  0  0  0  0  0  0  0  0
  -29.2192  -18.3105   20.3823 C   0  0  0  0  0  0  0  0  0  0  0  0
  -22.7992   -9.0563   20.7666 C   0  0  0  0  0  0  0  0  0  0  0  0
  -23.3333  -24.4033   22.1368 C   0  0  0  0  0  0  0  0  0  0  0  0
  -24.2153   -9.5116   20.4288 C   0  0  0  0  0  0  0  0  0  0  0  0
  -23.1719  -25.8950   21.8351 C   0  0  0  0  0  0  0  0  0  0  0  0
  -31.6903  -17.9195   20.6663 C   0  0  0  0  0  0  0  0  0  0  0  0
  -24.7873  -24.0380   22.4302 C   0  0  0  0  0  0  0  0  0  0  0  0
  -25.5911  -25.9538   21.1062 C   0  0  0  0  0  0  0  0  0  0  0  0
  -31.9602  -18.6737   19.3665 C   0  0  0  0  0  0  0  0  0  0  0  0
  -24.9429  -10.0234   21.6779 C   0  0  1  0  0  0  0  0  0  0  0  0
  -24.4091  -13.7765   21.9276 C   0  0  1  0  0  0  0  0  0  0  0  0
  -24.1535  -26.3579   20.7406 C   0  0  2  0  0  0  0  0  0  0  0  0
  -30.2984  -17.2675   20.7089 C   0  0  2  0  0  0  0  0  0  1  0  0
  -32.2940  -22.3577   17.7161 C   0  0  0  0  0  0  0  0  0  0  0  0
  -21.4919  -19.6741   17.8396 C   0  0  0  0  0  0  0  0  0  0  0  0
  -24.0318  -13.5786   17.3255 C   0  0  0  0  0  0  0  0  0  0  0  0
  -23.2931  -15.6957   16.2118 C   0  0  0  0  0  0  0  0  0  0  0  0
  -21.6495  -14.3217   17.4898 C   0  0  0  0  0  0  0  0  0  0  0  0
  -22.8190  -19.8166   21.4026 C   0  0  0  0  0  0  0  0  0  0  0  0
  -31.2355  -13.9893   19.3063 C   0  0  0  0  0  0  0  0  0  0  0  0
  -30.9714  -20.9399   19.9191 C   0  0  0  0  0  0  0  0  0  0  0  0
  -30.2159  -16.0543   19.7746 C   0  0  0  0  0  0  0  0  0  0  0  0
  -23.4030  -15.6416   18.7448 C   0  0  1  0  0  0  0  0  0  0  0  0
  -21.9245  -19.1047   19.1818 C   0  0  2  0  0  0  0  0  0  0  0  0
  -23.1143  -14.8099   17.4633 C   0  0  0  0  0  0  0  0  0  0  0  0
  -24.8268  -28.6961   21.1417 N   0  0  0  0  0  0  0  0  0  0  0  0
  -24.0323  -27.8459   20.4695 N   0  0  0  0  0  0  0  0  0  0  0  0
  -24.4155  -14.7160   20.8044 N   0  0  0  0  0  0  0  0  0  0  0  0
  -25.6581  -24.5042   21.3489 N   0  0  0  0  0  0  0  0  0  0  0  0
  -22.3184  -27.7524   18.8372 N   0  0  0  0  0  0  0  0  0  0  0  0
  -21.6327  -31.4230   19.5093 N   0  0  0  0  0  0  0  0  0  0  0  0
  -27.2243  -24.1305   19.6256 N   0  0  0  0  0  0  0  0  0  0  0  0
  -24.4968  -11.3592   22.0109 N   0  0  0  0  0  0  0  0  0  0  0  0
  -22.5309  -16.7987   18.9153 N   0  0  0  0  0  0  0  0  0  0  0  0
  -30.8915  -19.7009   19.0706 N   0  3  2  0  0  0  0  0  0  0  0  0
  -22.3855  -20.2301   20.0432 N   0  3  0  0  0  0  0  0  0  0  0  0
  -23.2047  -31.2401   17.8498 O   0  0  0  0  0  0  0  0  0  0  0  0
  -25.9112  -12.5416   20.5883 O   0  0  0  0  0  0  0  0  0  0  0  0
  -22.1831  -14.3008   20.2747 O   0  0  0  0  0  0  0  0  0  0  0  0
  -24.2216  -18.3847   18.9757 O   0  0  0  0  0  0  0  0  0  0  0  0
  -26.4557  -22.3747   20.9326 O   0  0  0  0  0  0  0  0  0  0  0  0
  -26.9364  -34.5355   22.5573 O   0  0  0  0  0  0  0  0  0  0  0  0
  -30.0883  -16.7981   22.0441 O   0  0  0  0  0  0  0  0  0  1  0  0
  -31.2425  -15.1504   20.1309 O   0  0  0  0  0  0  0  0  0  0  0  0
  -24.0900  -37.7170   26.0472 F   0  0  0  0  0  0  0  0  0  0  0  0
  -27.8865  -35.0529   25.1013 F   0  0  0  0  0  0  0  0  0  0  0  0
  1  2  1  0  0  0  0
  1  5  2  0  0  0  0
  2  6  2  0  0  0  0
  3 10  2  0  0  0  0
  3 18  1  0  0  0  0
  4 11  1  0  0  0  0
  4 18  2  0  0  0  0
  5 20  1  0  0  0  0
  6 22  1  0  0  0  0
  7 12  2  0  0  0  0
  7 21  1  0  0  0  0
  8  9  2  0  0  0  0
  8 24  1  0  0  0  0
  9 26  1  0  0  0  0
 10 27  1  0  0  0  0
 11 27  2  0  0  0  0
 12 28  1  0  0  0  0
 13 14  2  0  0  0  0
 13 29  1  0  0  0  0
 14 30  1  0  0  0  0
 15 23  1  0  0  0  0
 15 28  2  0  0  0  0
 16 25  1  0  0  0  0
 16 26  2  0  0  0  0
 17 30  2  0  0  0  0
 17 31  1  0  0  0  0
 18 32  1  0  0  0  0
 19 32  1  0  0  0  0
 19 33  2  0  0  0  0
 19 36  1  0  0  0  0
 20 22  2  0  0  0  0
 20 41  1  0  0  0  0
 21 23  2  0  0  0  0
 21 42  1  0  0  0  0
 22 53  1  0  0  0  0
 23 43  1  0  0  0  0
 24 25  2  0  0  0  0
 24 57  1  0  0  0  0
 25 64  1  0  0  0  0
 26 75  1  0  0  0  0
 27 85  1  0  0  0  0
 28 86  1  0  0  0  0
 29 31  2  0  0  0  0
 29 85  1  0  0  0  0
 30 88  1  0  0  0  0
 31 89  1  0  0  0  0
 32 69  2  0  0  0  0
 33 70  1  0  0  0  0
 33 73  1  0  0  0  0
 34 35  2  0  0  0  0
 34 44  1  0  0  0  0
 34 78  1  0  0  0  0
 36 74  1  0  0  0  0
 36 80  2  0  0  0  0
 37 54  1  0  0  0  0
 37 76  1  0  0  0  0
 37 81  2  0  0  0  0
 38 66  1  0  0  0  0
 38 71  1  0  0  0  0
 38 82  2  0  0  0  0
 39 67  1  0  0  0  0
 39 77  1  0  0  0  0
 39 83  2  0  0  0  0
 40 72  1  0  0  0  0
 40 75  1  0  0  0  0
 40 84  2  0  0  0  0
 41 45  1  0  0  0  0
 42 54  1  0  0  0  0
 43 71  1  0  0  0  0
 44 56  1  0  0  0  0
 45 47  1  0  0  0  0
 46 48  1  0  0  0  0
 46 50  1  0  0  0  0
 47 53  1  0  0  0  0
 48 55  1  0  0  0  0
 49 52  1  0  0  0  0
 49 56  1  0  0  0  0
 50 72  1  0  0  0  0
 51 55  1  0  0  0  0
 51 72  1  0  0  0  0
 52 78  1  0  0  0  0
 53 76  1  0  0  0  0
 54 71  1  0  0  0  0
 55 70  1  0  0  0  0
 56 65  1  0  0  0  0
 56 86  1  0  0  0  0
 58 67  1  0  0  0  0
 59 68  1  0  0  0  0
 60 68  1  0  0  0  0
 61 68  1  0  0  0  0
 62 79  1  0  0  0  0
 63 87  1  0  0  0  0
 64 78  1  0  0  0  0
 65 87  1  0  0  0  0
 66 68  1  0  0  0  0
 66 77  1  0  0  0  0
 67 79  1  0  0  0  0
 69 70  1  0  0  0  0
M  CHG  2  78   1  79   1
M  ISO  4  40 100  56 101  75 100  86 101
M  END
> <Batch ID>
0049

> <Smiles>
C=C1C[101C:1](COC)([101O:1]c2ccc3c(c2)CN(C(=O)C(NC(=O)C(C)NC)C(C)(C)C)C(C(=O)NC2CCCc4ccccc42)C3)CCN1Cc1cc([100NH:0][100C:0](=O)N2CCCC(n3nc(-c4ccc(Oc5ccc(F)cc5F)cc4)c(C(N)=O)c3N)C2)ccc1C

> <Shape>
0.258

> <Color>
0.057

> <Negative vol penalty>
0.000

$$$$

  -OEChem-04042322323D

 87 96  0     1  0  0  0  0  0999 V2000
  -27.8185  -12.1452   18.0055 C   0  0  0  0  0  0  0  0  0  0  0  0
  -27.0801  -13.1462   17.3824 C   0  0  0  0  0  0  0  0  0  0  0  0
  -28.7769  -25.0915   19.0490 C   0  0  0  0  0  0  0  0  0  0  0  0
  -26.8827  -23.8153   19.8368 C   0  0  0  0  0  0  0  0  0  0  0  0
  -27.4997  -11.7514   19.3044 C   0  0  0  0  0  0  0  0  0  0  0  0
  -26.0217  -13.7531   18.0575 C   0  0  0  0  0  0  0  0  0  0  0  0
  -22.6560  -20.0488   18.6520 C   0  0  0  0  0  0  0  0  0  0  0  0
  -19.3711  -25.6554   22.7580 C   0  0  0  0  0  0  0  0  0  0  0  0
  -18.0811  -27.4279   21.7426 C   0  0  0  0  0  0  0  0  0  0  0  0
  -20.2546  -26.5987   23.2824 C   0  0  0  0  0  0  0  0  0  0  0  0
  -18.9646  -28.3713   22.2671 C   0  0  0  0  0  0  0  0  0  0  0  0
  -29.6258  -24.0347   19.3781 C   0  0  0  0  0  0  0  0  0  0  0  0
  -27.7316  -22.7585   20.1659 C   0  0  0  0  0  0  0  0  0  0  0  0
  -21.3752  -20.5957   18.5875 C   0  0  0  0  0  0  0  0  0  0  0  0
  -29.3213  -20.2485   18.5556 C   0  0  0  0  0  0  0  0  0  0  0  0
  -28.9230  -18.9621   18.1923 C   0  0  0  0  0  0  0  0  0  0  0  0
  -20.9659  -19.8892   20.8574 C   0  0  0  0  0  0  0  0  0  0  0  0
  -28.9549  -18.2964   20.5146 C   0  0  0  0  0  0  0  0  0  0  0  0
  -27.4054  -24.9818   19.2784 C   0  0  0  0  0  0  0  0  0  0  0  0
  -25.8730  -26.2875   17.7117 C   0  0  0  0  0  0  0  0  0  0  0  0
  -26.4430  -12.3605   19.9994 C   0  0  0  0  0  0  0  0  0  0  0  0
  -23.0982  -19.4073   19.8179 C   0  0  0  0  0  0  0  0  0  0  0  0
  -25.6876  -13.3661   19.3665 C   0  0  0  0  0  0  0  0  0  0  0  0
  -22.2537  -19.3372   20.9350 C   0  0  0  0  0  0  0  0  0  0  0  0
  -18.2844  -26.0700   21.9881 C   0  0  0  0  0  0  0  0  0  0  0  0
  -20.0514  -27.9567   23.0370 C   0  0  0  0  0  0  0  0  0  0  0  0
  -29.1031  -22.8683   19.9365 C   0  0  0  0  0  0  0  0  0  0  0  0
  -20.5288  -20.5134   19.6894 C   0  0  0  0  0  0  0  0  0  0  0  0
  -29.5365  -20.5589   19.8984 C   0  0  0  0  0  0  0  0  0  0  0  0
  -28.7398  -17.9860   19.1717 C   0  0  0  0  0  0  0  0  0  0  0  0
  -29.3532  -19.5829   20.8779 C   0  0  0  0  0  0  0  0  0  0  0  0
  -26.5281  -26.0733   18.9392 C   0  0  0  0  0  0  0  0  0  0  0  0
  -25.1661  -27.4502   17.8980 C   0  0  0  0  0  0  0  0  0  0  0  0
  -17.7250  -24.9243   19.0036 C   0  0  0  0  0  0  0  0  0  0  0  0
  -18.5352  -23.1208   20.5660 C   0  0  0  0  0  0  0  0  0  0  0  0
  -25.9009  -25.5052   16.5104 C   0  0  0  0  0  0  0  0  0  0  0  0
  -24.0331  -16.4556   20.5372 C   0  0  0  0  0  0  0  0  0  0  0  0
  -24.7287  -17.7939   23.4090 C   0  0  0  0  0  0  0  0  0  0  0  0
  -24.1472  -20.2953   25.6567 C   0  0  0  0  0  0  0  0  0  0  0  0
  -23.0021  -30.1695   22.7739 C   0  0  0  0  0  0  0  0  0  0  0  0
  -26.1059  -11.8684   21.3846 C   0  0  0  0  0  0  0  0  0  0  0  0
  -24.4923  -18.8460   19.8805 C   0  0  0  0  0  0  0  0  0  0  0  0
  -22.6878  -18.6769   22.2172 C   0  0  0  0  0  0  0  0  0  0  0  0
  -18.3356  -24.1655   17.8469 C   0  0  0  0  0  0  0  0  0  0  0  0
  -25.2075  -12.8220   22.1680 C   0  0  0  0  0  0  0  0  0  0  0  0
  -18.3861  -22.6779   18.1101 C   0  0  0  0  0  0  0  0  0  0  0  0
  -25.2652  -31.5345   20.3880 C   0  0  0  0  0  0  0  0  0  0  0  0
  -24.0446  -13.2935   21.3007 C   0  0  0  0  0  0  0  0  0  0  0  0
  -25.7864  -30.3089   19.6354 C   0  0  0  0  0  0  0  0  0  0  0  0
  -25.0470  -31.2361   21.8697 C   0  0  0  0  0  0  0  0  0  0  0  0
  -24.7132  -28.8411   21.3940 C   0  0  0  0  0  0  0  0  0  0  0  0
  -24.5480  -14.0656   20.0751 C   0  0  1  0  0  0  0  0  0  0  0  0
  -19.1805  -22.4366   19.3760 C   0  0  2  0  0  0  0  0  0  1  0  0
  -24.6532  -17.7628   20.9427 C   0  0  1  0  0  0  0  0  0  0  0  0
  -24.8956  -29.0770   19.8849 C   0  0  2  0  0  0  0  0  0  0  0  0
  -24.4550  -21.6889   27.7207 C   0  0  0  0  0  0  0  0  0  0  0  0
  -23.0306  -15.6104   24.6970 C   0  0  0  0  0  0  0  0  0  0  0  0
  -22.9737  -16.9854   26.7885 C   0  0  0  0  0  0  0  0  0  0  0  0
  -25.1507  -16.1375   25.9143 C   0  0  0  0  0  0  0  0  0  0  0  0
  -26.1414  -22.0318   24.3274 C   0  0  0  0  0  0  0  0  0  0  0  0
  -17.3329  -25.0552   21.4232 C   0  0  0  0  0  0  0  0  0  0  0  0
  -20.9956  -28.9649   23.5996 C   0  0  0  0  0  0  0  0  0  0  0  0
  -23.9727  -18.0143   24.6970 C   0  0  1  0  0  0  0  0  0  0  0  0
  -25.0945  -21.1915   26.4338 C   0  0  2  0  0  0  0  0  0  0  0  0
  -23.7727  -16.6977   25.4995 C   0  0  0  0  0  0  0  0  0  0  0  0
  -26.2612  -27.0238   19.8388 N   0  0  0  0  0  0  0  0  0  0  0  0
  -25.4307  -27.8466   19.1759 N   0  0  0  0  0  0  0  0  0  0  0  0
  -17.9018  -24.3508   20.2790 N   0  0  0  0  0  0  0  0  0  0  0  0
  -24.0577  -18.1377   22.2269 N   0  0  0  0  0  0  0  0  0  0  0  0
  -24.1929  -30.0578   22.0373 N   0  0  0  0  0  0  0  0  0  0  0  0
  -24.3502  -28.1621   17.0918 N   0  0  0  0  0  0  0  0  0  0  0  0
  -26.6788  -24.3395   16.4901 N   0  0  0  0  0  0  0  0  0  0  0  0
  -24.9323  -15.4102   20.4477 N   0  0  0  0  0  0  0  0  0  0  0  0
  -24.6966  -19.0524   25.4228 N   0  0  0  0  0  0  0  0  0  0  0  0
  -22.2484  -29.0069   22.8788 N   0  0  0  0  0  0  0  0  0  0  0  0
  -25.4795  -22.3740   25.6126 N   0  3  0  0  0  0  0  0  0  0  0  0
  -17.1550  -25.9970   18.7905 O   0  0  0  0  0  0  0  0  0  0  0  0
  -18.5965  -22.6212   21.6913 O   0  0  0  0  0  0  0  0  0  0  0  0
  -25.2682  -25.8391   15.4800 O   0  0  0  0  0  0  0  0  0  0  0  0
  -22.8279  -16.3993   20.3228 O   0  0  0  0  0  0  0  0  0  0  0  0
  -25.8751  -17.3404   23.4507 O   0  0  0  0  0  0  0  0  0  0  0  0
  -23.0301  -20.6600   25.2967 O   0  0  0  0  0  0  0  0  0  0  0  0
  -22.6350  -31.2283   23.2946 O   0  0  0  0  0  0  0  0  0  0  0  0
  -29.9311  -21.8368   20.2576 O   0  0  0  0  0  0  0  0  0  0  0  0
  -19.2779  -21.0458   19.6289 O   0  0  0  0  0  0  0  0  0  1  0  0
  -28.3558  -16.7511   18.8228 F   0  0  0  0  0  0  0  0  0  0  0  0
  -29.5572  -19.8754   22.1696 F   0  0  0  0  0  0  0  0  0  0  0  0
  1  2  1  0  0  0  0
  1  5  2  0  0  0  0
  2  6  2  0  0  0  0
  3 12  2  0  0  0  0
  3 19  1  0  0  0  0
  4 13  1  0  0  0  0
  4 19  2  0  0  0  0
  5 21  1  0  0  0  0
  6 23  1  0  0  0  0
  7 14  2  0  0  0  0
  7 22  1  0  0  0  0
  8 10  2  0  0  0  0
  8 25  1  0  0  0  0
  9 11  1  0  0  0  0
  9 25  2  0  0  0  0
 10 26  1  0  0  0  0
 11 26  2  0  0  0  0
 12 27  1  0  0  0  0
 13 27  2  0  0  0  0
 14 28  1  0  0  0  0
 15 16  2  0  0  0  0
 15 29  1  0  0  0  0
 16 30  1  0  0  0  0
 17 24  1  0  0  0  0
 17 28  2  0  0  0  0
 18 30  2  0  0  0  0
 18 31  1  0  0  0  0
 19 32  1  0  0  0  0
 20 32  1  0  0  0  0
 20 33  2  0  0  0  0
 20 36  1  0  0  0  0
 21 23  2  0  0  0  0
 21 41  1  0  0  0  0
 22 24  2  0  0  0  0
 22 42  1  0  0  0  0
 23 52  1  0  0  0  0
 24 43  1  0  0  0  0
 25 61  1  0  0  0  0
 26 62  1  0  0  0  0
 27 84  1  0  0  0  0
 28 85  1  0  0  0  0
 29 31  2  0  0  0  0
 29 84  1  0  0  0  0
 30 86  1  0  0  0  0
 31 87  1  0  0  0  0
 32 66  2  0  0  0  0
 33 67  1  0  0  0  0
 33 71  1  0  0  0  0
 34 44  1  0  0  0  0
 34 68  1  0  0  0  0
 34 77  2  0  0  0  0
 35 53  1  0  0  0  0
 35 68  1  0  0  0  0
 35 78  2  0  0  0  0
 36 72  1  0  0  0  0
 36 79  2  0  0  0  0
 37 54  1  0  0  0  0
 37 73  1  0  0  0  0
 37 80  2  0  0  0  0
 38 63  1  0  0  0  0
 38 69  1  0  0  0  0
 38 81  2  0  0  0  0
 39 64  1  0  0  0  0
 39 74  1  0  0  0  0
 39 82  2  0  0  0  0
 40 70  1  0  0  0  0
 40 75  1  0  0  0  0
 40 83  2  0  0  0  0
 41 45  1  0  0  0  0
 42 54  1  0  0  0  0
 43 69  1  0  0  0  0
 44 46  1  0  0  0  0
 45 48  1  0  0  0  0
 46 53  1  0  0  0  0
 47 49  1  0  0  0  0
 47 50  1  0  0  0  0
 48 52  1  0  0  0  0
 49 55  1  0  0  0  0
 50 70  1  0  0  0  0
 51 55  1  0  0  0  0
 51 70  1  0  0  0  0
 52 73  1  0  0  0  0
 53 85  1  0  0  0  0
 54 69  1  0  0  0  0
 55 67  1  0  0  0  0
 56 64  1  0  0  0  0
 57 65  1  0  0  0  0
 58 65  1  0  0  0  0
 59 65  1  0  0  0  0
 60 76  1  0  0  0  0
 61 68  1  0  0  0  0
 62 75  1  0  0  0  0
 63 65  1  0  0  0  0
 63 74  1  0  0  0  0
 64 76  1  0  0  0  0
 66 67  1  0  0  0  0
M  CHG  1  76   1
M  ISO  4  40 100  53 101  75 100  85 101
M  END
> <Batch ID>
0049

> <Smiles>
CNC(C)C(=O)NC(C(=O)N1Cc2cc([101O:1][101CH:1]3CCC(=O)N(Cc4ccc(C[100NH:0][100C:0](=O)N5CCCC(n6nc(-c7ccc(Oc8ccc(F)cc8F)cc7)c(C(N)=O)c6N)C5)cc4)C3=O)ccc2CC1C(=O)NC1CCCc2ccccc21)C(C)(C)C

> <Shape>
0.215

> <Color>
0.073

> <Negative vol penalty>
0.000

$$$$

  -OEChem-04042322323D

 87 96  0     1  0  0  0  0  0999 V2000
  -24.0213  -18.7991   25.6739 C   0  0  0  0  0  0  0  0  0  0  0  0
  -24.9980  -19.7829   25.5571 C   0  0  0  0  0  0  0  0  0  0  0  0
  -22.9568  -14.7546   21.0755 C   0  0  0  0  0  0  0  0  0  0  0  0
  -24.2125  -13.4632   19.4653 C   0  0  0  0  0  0  0  0  0  0  0  0
  -22.8820  -18.8507   24.8718 C   0  0  0  0  0  0  0  0  0  0  0  0
  -24.8364  -20.8184   24.6372 C   0  0  0  0  0  0  0  0  0  0  0  0
  -26.6540  -26.6311   25.2808 C   0  0  0  0  0  0  0  0  0  0  0  0
  -22.1732  -13.6366   21.3612 C   0  0  0  0  0  0  0  0  0  0  0  0
  -23.4289  -12.3451   19.7510 C   0  0  0  0  0  0  0  0  0  0  0  0
  -27.7743  -27.3202   24.8184 C   0  0  0  0  0  0  0  0  0  0  0  0
  -23.2420   -9.9875   22.1649 C   0  0  0  0  0  0  0  0  0  0  0  0
  -23.8956   -8.7681   22.3423 C   0  0  0  0  0  0  0  0  0  0  0  0
  -26.4976  -28.1189   22.9338 C   0  0  0  0  0  0  0  0  0  0  0  0
  -28.7093  -24.2481   20.8137 C   0  0  0  0  0  0  0  0  0  0  0  0
  -30.7700  -22.4063   20.4347 C   0  0  0  0  0  0  0  0  0  0  0  0
  -22.6504   -7.8320   20.4956 C   0  0  0  0  0  0  0  0  0  0  0  0
  -23.9764  -14.6679   20.1276 C   0  0  0  0  0  0  0  0  0  0  0  0
  -24.3462  -17.0641   19.3342 C   0  0  0  0  0  0  0  0  0  0  0  0
  -22.7018  -19.8927   23.9485 C   0  0  0  0  0  0  0  0  0  0  0  0
  -25.4481  -26.6719   24.5662 C   0  0  0  0  0  0  0  0  0  0  0  0
  -23.6943  -20.8833   23.8211 C   0  0  0  0  0  0  0  0  0  0  0  0
  -25.3628  -27.4315   23.3907 C   0  0  0  0  0  0  0  0  0  0  0  0
  -29.9120  -24.6561   20.2368 C   0  0  0  0  0  0  0  0  0  0  0  0
  -28.5371  -22.9192   21.2012 C   0  0  0  0  0  0  0  0  0  0  0  0
  -30.9423  -23.7352   20.0472 C   0  0  0  0  0  0  0  0  0  0  0  0
  -29.5674  -21.9983   21.0116 C   0  0  0  0  0  0  0  0  0  0  0  0
  -22.4093  -12.4319   20.6990 C   0  0  0  0  0  0  0  0  0  0  0  0
  -27.6970  -28.0619   23.6432 C   0  0  0  0  0  0  0  0  0  0  0  0
  -22.2925  -10.1291   21.1529 C   0  0  0  0  0  0  0  0  0  0  0  0
  -23.5998   -7.6904   21.5076 C   0  0  0  0  0  0  0  0  0  0  0  0
  -21.9967   -9.0514   20.3183 C   0  0  0  0  0  0  0  0  0  0  0  0
  -24.7858  -15.8227   19.8316 C   0  0  0  0  0  0  0  0  0  0  0  0
  -25.4908  -17.8155   19.2263 C   0  0  0  0  0  0  0  0  0  0  0  0
  -31.4802  -28.0455   20.1081 C   0  0  0  0  0  0  0  0  0  0  0  0
  -32.7617  -28.0167   19.7122 C   0  0  0  0  0  0  0  0  0  0  0  0
  -23.0216  -17.4991   18.9995 C   0  0  0  0  0  0  0  0  0  0  0  0
  -23.6275  -24.5092   23.1131 C   0  0  0  0  0  0  0  0  0  0  0  0
  -21.6164  -27.0262   22.7359 C   0  0  0  0  0  0  0  0  0  0  0  0
  -21.9017  -30.5196   21.8805 C   0  0  0  0  0  0  0  0  0  0  0  0
  -30.3460  -19.6167   21.2724 C   0  0  0  0  0  0  0  0  0  0  0  0
  -21.4760  -19.8803   23.0700 C   0  0  0  0  0  0  0  0  0  0  0  0
  -24.2413  -25.9447   25.0926 C   0  0  0  0  0  0  0  0  0  0  0  0
  -24.0858  -27.5242   22.5974 C   0  0  0  0  0  0  0  0  0  0  0  0
  -30.5936  -29.2479   19.9301 C   0  0  0  0  0  0  0  0  0  0  0  0
  -21.2045  -21.2168   22.3843 C   0  0  0  0  0  0  0  0  0  0  0  0
  -29.9175  -29.6079   21.2476 C   0  0  0  0  0  0  0  0  0  0  0  0
  -30.3580  -16.4756   19.5960 C   0  0  0  0  0  0  0  0  0  0  0  0
  -22.4865  -21.7734   21.7731 C   0  0  0  0  0  0  0  0  0  0  0  0
  -28.8733  -16.1278   19.4669 C   0  0  0  0  0  0  0  0  0  0  0  0
  -30.6632  -17.1777   20.9180 C   0  0  0  0  0  0  0  0  0  0  0  0
  -28.3490  -18.0081   21.0721 C   0  0  0  0  0  0  0  0  0  0  0  0
  -30.2919  -27.2516   22.0676 C   0  0  0  0  0  0  0  0  0  0  0  0
  -23.5435  -22.0361   22.8525 C   0  0  1  0  0  0  0  0  0  0  0  0
  -23.2094  -25.6387   24.0113 C   0  0  1  0  0  0  0  0  0  0  0  0
  -27.9816  -17.3575   19.7284 C   0  0  2  0  0  0  0  0  0  0  0  0
  -29.2790  -28.3811   21.8987 C   0  0  1  0  0  0  0  0  0  1  0  0
  -27.2382  -22.5101   21.8166 C   0  0  0  0  0  0  0  0  0  0  0  0
  -32.2387  -24.1490   19.4319 C   0  0  0  0  0  0  0  0  0  0  0  0
  -20.4321  -32.4679   22.4655 C   0  0  0  0  0  0  0  0  0  0  0  0
  -20.2797  -26.4514   20.0539 C   0  0  0  0  0  0  0  0  0  0  0  0
  -20.0703  -28.9222   19.7078 C   0  0  0  0  0  0  0  0  0  0  0  0
  -18.9103  -27.8308   21.6277 C   0  0  0  0  0  0  0  0  0  0  0  0
  -24.1653  -32.0244   23.0513 C   0  0  0  0  0  0  0  0  0  0  0  0
  -30.0743  -26.0906   19.8284 C   0  0  0  0  0  0  0  0  0  0  0  0
  -21.4243  -28.0930   21.6852 C   0  0  1  0  0  0  0  0  0  0  0  0
  -21.7001  -31.7024   22.8105 C   0  0  2  0  0  0  0  0  0  0  0  0
  -20.1966  -27.8125   20.7734 C   0  0  0  0  0  0  0  0  0  0  0  0
  -26.1067  -15.7836   20.0262 N   0  0  0  0  0  0  0  0  0  0  0  0
  -26.5069  -17.0099   19.6489 N   0  0  0  0  0  0  0  0  0  0  0  0
  -22.9351  -26.7904   23.1496 N   0  0  0  0  0  0  0  0  0  0  0  0
  -29.7834  -18.3349   21.0955 N   0  0  0  0  0  0  0  0  0  0  0  0
  -25.7172  -19.0803   18.8121 N   0  0  0  0  0  0  0  0  0  0  0  0
  -22.5622  -17.2958   17.6911 N   0  0  0  0  0  0  0  0  0  0  0  0
  -29.4115  -20.6441   21.3984 N   0  0  0  0  0  0  0  0  0  0  0  0
  -23.2453  -23.2603   23.5645 N   0  0  0  0  0  0  0  0  0  0  0  0
  -21.3598  -29.3631   22.4002 N   0  0  0  0  0  0  0  0  0  0  0  0
  -30.9527  -26.8739   20.7644 N   0  3  1  0  0  0  0  0  0  0  0  0
  -22.8552  -32.6391   22.7151 N   0  3  0  0  0  0  0  0  0  0  0  0
  -22.2738  -18.0664   19.8316 O   0  0  0  0  0  0  0  0  0  0  0  0
  -24.2495  -24.7527   22.0857 O   0  0  0  0  0  0  0  0  0  0  0  0
  -20.6319  -26.4291   23.1785 O   0  0  0  0  0  0  0  0  0  0  0  0
  -22.4786  -30.6132   20.7993 O   0  0  0  0  0  0  0  0  0  0  0  0
  -31.5668  -19.7938   21.2822 O   0  0  0  0  0  0  0  0  0  0  0  0
  -21.6450  -11.3406   20.9776 O   0  0  0  0  0  0  0  0  0  0  0  0
  -28.7892  -28.7350   23.1893 O   0  0  0  0  0  0  0  0  0  1  0  0
  -24.2287   -6.5199   21.6771 F   0  0  0  0  0  0  0  0  0  0  0  0
  -21.0863   -9.1818   19.3436 F   0  0  0  0  0  0  0  0  0  0  0  0
  1  2  1  0  0  0  0
  1  5  2  0  0  0  0
  2  6  2  0  0  0  0
  3  8  2  0  0  0  0
  3 17  1  0  0  0  0
  4  9  1  0  0  0  0
  4 17  2  0  0  0  0
  5 19  1  0  0  0  0
  6 21  1  0  0  0  0
  7 10  2  0  0  0  0
  7 20  1  0  0  0  0
  8 27  1  0  0  0  0
  9 27  2  0  0  0  0
 10 28  1  0  0  0  0
 11 12  2  0  0  0  0
 11 29  1  0  0  0  0
 12 30  1  0  0  0  0
 13 22  1  0  0  0  0
 13 28  2  0  0  0  0
 14 23  1  0  0  0  0
 14 24  2  0  0  0  0
 15 25  1  0  0  0  0
 15 26  2  0  0  0  0
 16 30  2  0  0  0  0
 16 31  1  0  0  0  0
 17 32  1  0  0  0  0
 18 32  1  0  0  0  0
 18 33  2  0  0  0  0
 18 36  1  0  0  0  0
 19 21  2  0  0  0  0
 19 41  1  0  0  0  0
 20 22  2  0  0  0  0
 20 42  1  0  0  0  0
 21 53  1  0  0  0  0
 22 43  1  0  0  0  0
 23 25  2  0  0  0  0
 23 64  1  0  0  0  0
 24 26  1  0  0  0  0
 24 57  1  0  0  0  0
 25 58  1  0  0  0  0
 26 74  1  0  0  0  0
 27 84  1  0  0  0  0
 28 85  1  0  0  0  0
 29 31  2  0  0  0  0
 29 84  1  0  0  0  0
 30 86  1  0  0  0  0
 31 87  1  0  0  0  0
 32 68  2  0  0  0  0
 33 69  1  0  0  0  0
 33 72  1  0  0  0  0
 34 35  2  0  0  0  0
 34 44  1  0  0  0  0
 34 77  1  0  0  0  0
 36 73  1  0  0  0  0
 36 79  2  0  0  0  0
 37 54  1  0  0  0  0
 37 75  1  0  0  0  0
 37 80  2  0  0  0  0
 38 65  1  0  0  0  0
 38 70  1  0  0  0  0
 38 81  2  0  0  0  0
 39 66  1  0  0  0  0
 39 76  1  0  0  0  0
 39 82  2  0  0  0  0
 40 71  1  0  0  0  0
 40 74  1  0  0  0  0
 40 83  2  0  0  0  0
 41 45  1  0  0  0  0
 42 54  1  0  0  0  0
 43 70  1  0  0  0  0
 44 46  1  0  0  0  0
 45 48  1  0  0  0  0
 46 56  1  0  0  0  0
 47 49  1  0  0  0  0
 47 50  1  0  0  0  0
 48 53  1  0  0  0  0
 49 55  1  0  0  0  0
 50 71  1  0  0  0  0
 51 55  1  0  0  0  0
 51 71  1  0  0  0  0
 52 56  1  0  0  0  0
 52 77  1  0  0  0  0
 53 75  1  0  0  0  0
 54 70  1  0  0  0  0
 55 69  1  0  0  0  0
 56 85  1  0  0  0  0
 59 66  1  0  0  0  0
 60 67  1  0  0  0  0
 61 67  1  0  0  0  0
 62 67  1  0  0  0  0
 63 78  1  0  0  0  0
 64 77  1  0  0  0  0
 65 67  1  0  0  0  0
 65 76  1  0  0  0  0
 66 78  1  0  0  0  0
 68 69  1  0  0  0  0
M  CHG  2  77   1  78   1
M  ISO  4  40 100  56 101  74 100  85 101
M  END
> <Batch ID>
0049

> <Smiles>
C=C1CC[101CH:1]([101O:1]c2ccc3c(c2)CN(C(=O)C(NC(=O)C(C)NC)C(C)(C)C)C(C(=O)NC2CCCc4ccccc42)C3)CN1Cc1cc(C)c([100NH:0][100C:0](=O)N2CCCC(n3nc(-c4ccc(Oc5ccc(F)cc5F)cc4)c(C(N)=O)c3N)C2)cc1C

> <Shape>
0.216

> <Color>
0.040

> <Negative vol penalty>
0.000

$$$$

  -OEChem-04042322323D

 86 94  0     1  0  0  0  0  0999 V2000
  -27.5019  -37.8263   20.1158 C   0  0  0  0  0  0  0  0  0  0  0  0
  -27.9917  -36.5540   19.8388 C   0  0  0  0  0  0  0  0  0  0  0  0
  -24.0688   -8.8736   21.4029 C   0  0  0  0  0  0  0  0  0  0  0  0
  -23.1037  -10.7252   20.1874 C   0  0  0  0  0  0  0  0  0  0  0  0
  -26.6300  -38.0185   21.1867 C   0  0  0  0  0  0  0  0  0  0  0  0
  -27.6106  -35.4732   20.6332 C   0  0  0  0  0  0  0  0  0  0  0  0
  -26.7172  -29.6962   18.8072 C   0  0  0  0  0  0  0  0  0  0  0  0
  -22.8153   -8.5679   21.9326 C   0  0  0  0  0  0  0  0  0  0  0  0
  -21.8501  -10.4195   20.7171 C   0  0  0  0  0  0  0  0  0  0  0  0
  -27.5254  -28.5612   18.8567 C   0  0  0  0  0  0  0  0  0  0  0  0
  -19.8036   -7.0799   23.3220 C   0  0  0  0  0  0  0  0  0  0  0  0
  -19.4124   -5.7411   23.3311 C   0  0  0  0  0  0  0  0  0  0  0  0
  -26.7370  -19.0610   19.0952 C   0  0  0  0  0  0  0  0  0  0  0  0
  -26.4449  -27.8886   20.9059 C   0  0  0  0  0  0  0  0  0  0  0  0
  -28.7512  -18.3024   20.8701 C   0  0  0  0  0  0  0  0  0  0  0  0
  -19.6010   -5.6696   20.9236 C   0  0  0  0  0  0  0  0  0  0  0  0
  -24.2131   -9.9523   20.5303 C   0  0  0  0  0  0  0  0  0  0  0  0
  -27.3533  -20.0182   19.9012 C   0  0  0  0  0  0  0  0  0  0  0  0
  -26.0694   -9.7781   18.7892 C   0  0  0  0  0  0  0  0  0  0  0  0
  -26.2304  -36.9379   21.9887 C   0  0  0  0  0  0  0  0  0  0  0  0
  -25.7727  -29.9419   19.8142 C   0  0  0  0  0  0  0  0  0  0  0  0
  -26.7335  -35.6513   21.7166 C   0  0  0  0  0  0  0  0  0  0  0  0
  -25.6242  -29.0261   20.8656 C   0  0  0  0  0  0  0  0  0  0  0  0
  -28.3604  -19.6389   20.7886 C   0  0  0  0  0  0  0  0  0  0  0  0
  -28.1349  -17.3451   20.0642 C   0  0  0  0  0  0  0  0  0  0  0  0
  -21.7059   -9.3408   21.5898 C   0  0  0  0  0  0  0  0  0  0  0  0
  -27.3913  -27.6587   19.9077 C   0  0  0  0  0  0  0  0  0  0  0  0
  -20.0934   -7.7136   22.1136 C   0  0  0  0  0  0  0  0  0  0  0  0
  -19.3111   -5.0359   22.1319 C   0  0  0  0  0  0  0  0  0  0  0  0
  -27.1278  -17.7244   19.1768 C   0  0  0  0  0  0  0  0  0  0  0  0
  -19.9921   -7.0084   20.9144 C   0  0  0  0  0  0  0  0  0  0  0  0
  -25.5079  -10.2690   19.9831 C   0  0  0  0  0  0  0  0  0  0  0  0
  -27.3037  -10.3765   18.7188 C   0  0  0  0  0  0  0  0  0  0  0  0
  -26.9230  -21.4278   19.7996 C   0  0  0  0  0  0  0  0  0  0  0  0
  -25.5240   -8.8632   17.8294 C   0  0  0  0  0  0  0  0  0  0  0  0
  -25.3333  -32.2409   21.9648 C   0  0  0  0  0  0  0  0  0  0  0  0
  -22.5904  -30.6172   22.5664 C   0  0  0  0  0  0  0  0  0  0  0  0
  -27.6089  -23.7614   19.2885 C   0  0  0  0  0  0  0  0  0  0  0  0
  -20.8851  -27.6636   22.4413 C   0  0  0  0  0  0  0  0  0  0  0  0
  -29.5169  -15.4468   20.9768 C   0  0  0  0  0  0  0  0  0  0  0  0
  -25.3233  -37.2027   23.1641 C   0  0  0  0  0  0  0  0  0  0  0  0
  -24.8901  -31.1571   19.7322 C   0  0  0  0  0  0  0  0  0  0  0  0
  -24.6113  -29.2334   21.9607 C   0  0  0  0  0  0  0  0  0  0  0  0
  -24.6736  -35.9418   23.7284 C   0  0  0  0  0  0  0  0  0  0  0  0
  -30.7672  -12.1555   21.5070 C   0  0  0  0  0  0  0  0  0  0  0  0
  -25.7100  -34.8346   23.8918 C   0  0  0  0  0  0  0  0  0  0  0  0
  -29.6137  -11.2535   21.0620 C   0  0  0  0  0  0  0  0  0  0  0  0
  -30.2634  -13.4185   22.2031 C   0  0  0  0  0  0  0  0  0  0  0  0
  -28.1172  -13.2891   21.0004 C   0  0  0  0  0  0  0  0  0  0  0  0
  -26.3239  -34.4497   22.5403 C   0  0  1  0  0  0  0  0  0  0  0  0
  -24.3168  -31.5715   21.0838 C   0  0  1  0  0  0  0  0  0  0  0  0
  -28.5731  -12.0352   20.2364 C   0  0  2  0  0  0  0  0  0  0  0  0
  -29.0356  -20.6458   21.6613 C   0  0  0  0  0  0  0  0  0  0  0  0
  -18.6749  -26.6381   23.0417 C   0  0  0  0  0  0  0  0  0  0  0  0
  -23.4230  -30.5469   25.5010 C   0  0  0  0  0  0  0  0  0  0  0  0
  -21.7239  -28.7450   25.8677 C   0  0  0  0  0  0  0  0  0  0  0  0
  -20.9955  -31.0093   25.1161 C   0  0  0  0  0  0  0  0  0  0  0  0
  -20.3015  -26.9867   19.6199 C   0  0  0  0  0  0  0  0  0  0  0  0
  -28.8543  -24.5114   18.8740 C   0  0  0  0  0  0  0  0  0  0  0  0
  -28.6130  -26.0039   18.7139 C   0  0  0  0  0  0  0  0  0  1  0  0
  -22.1958  -29.4902   23.4901 C   0  0  1  0  0  0  0  0  0  0  0  0
  -19.4864  -27.3278   21.9561 C   0  0  2  0  0  0  0  0  0  0  0  0
  -22.1051  -29.9447   24.9743 C   0  0  0  0  0  0  0  0  0  0  0  0
  -26.3190  -11.1139   20.6252 N   0  0  0  0  0  0  0  0  0  0  0  0
  -27.4028  -11.1586   19.8318 N   0  0  0  0  0  0  0  0  0  0  0  0
  -23.7761  -30.4398   21.8394 N   0  0  0  0  0  0  0  0  0  0  0  0
  -29.2846  -14.1091   21.3604 N   0  0  0  0  0  0  0  0  0  0  0  0
  -28.3032  -10.3046   17.8142 N   0  0  0  0  0  0  0  0  0  0  0  0
  -24.2425   -8.3428   18.0557 N   0  0  0  0  0  0  0  0  0  0  0  0
  -28.5340  -15.9882   20.1489 N   0  0  0  0  0  0  0  0  0  0  0  0
  -27.8350  -22.3423   19.4415 N   0  0  0  0  0  0  0  0  0  0  0  0
  -25.4131  -33.6096   21.7924 N   0  0  0  0  0  0  0  0  0  0  0  0
  -20.9541  -28.9407   22.9565 N   0  0  0  0  0  0  0  0  0  0  0  0
  -25.6493  -21.7088   20.0731 N   0  3  0  0  0  0  0  0  0  0  0  0
  -19.5516  -26.4246   20.7726 N   0  3  0  0  0  0  0  0  0  0  0  0
  -26.1610   -8.5048   16.8100 O   0  0  0  0  0  0  0  0  0  0  0  0
  -25.9952  -31.5658   22.7445 O   0  0  0  0  0  0  0  0  0  0  0  0
  -21.8693  -31.6149   22.4873 O   0  0  0  0  0  0  0  0  0  0  0  0
  -26.5100  -24.2593   19.4849 O   0  0  0  0  0  0  0  0  0  0  0  0
  -21.8219  -26.8709   22.3735 O   0  0  0  0  0  0  0  0  0  0  0  0
  -30.5279  -16.0578   21.3326 O   0  0  0  0  0  0  0  0  0  0  0  0
  -20.4824   -9.0426   22.1063 O   0  0  0  0  0  0  0  0  0  0  0  0
  -28.1793  -26.5504   19.9587 O   0  0  0  0  0  0  0  0  0  1  0  0
  -18.9369   -3.7498   22.1410 F   0  0  0  0  0  0  0  0  0  0  0  0
  -26.5281  -16.8127   18.3980 F   0  0  0  0  0  0  0  0  0  0  0  0
  -20.2704   -7.6115   19.7506 F   0  0  0  0  0  0  0  0  0  0  0  0
  1  2  1  0  0  0  0
  1  5  2  0  0  0  0
  2  6  2  0  0  0  0
  3  8  2  0  0  0  0
  3 17  1  0  0  0  0
  4  9  1  0  0  0  0
  4 17  2  0  0  0  0
  5 20  1  0  0  0  0
  6 22  1  0  0  0  0
  7 10  2  0  0  0  0
  7 21  1  0  0  0  0
  8 26  1  0  0  0  0
  9 26  2  0  0  0  0
 10 27  1  0  0  0  0
 11 12  2  0  0  0  0
 11 28  1  0  0  0  0
 12 29  1  0  0  0  0
 13 18  1  0  0  0  0
 13 30  2  0  0  0  0
 14 23  1  0  0  0  0
 14 27  2  0  0  0  0
 15 24  1  0  0  0  0
 15 25  2  0  0  0  0
 16 29  2  0  0  0  0
 16 31  1  0  0  0  0
 17 32  1  0  0  0  0
 18 24  2  0  0  0  0
 18 34  1  0  0  0  0
 19 32  1  0  0  0  0
 19 33  2  0  0  0  0
 19 35  1  0  0  0  0
 20 22  2  0  0  0  0
 20 41  1  0  0  0  0
 21 23  2  0  0  0  0
 21 42  1  0  0  0  0
 22 50  1  0  0  0  0
 23 43  1  0  0  0  0
 24 53  1  0  0  0  0
 25 30  1  0  0  0  0
 25 70  1  0  0  0  0
 26 82  1  0  0  0  0
 27 83  1  0  0  0  0
 28 31  2  0  0  0  0
 28 82  1  0  0  0  0
 29 84  1  0  0  0  0
 30 85  1  0  0  0  0
 31 86  1  0  0  0  0
 32 64  2  0  0  0  0
 33 65  1  0  0  0  0
 33 68  1  0  0  0  0
 34 71  1  0  0  0  0
 34 74  2  0  0  0  0
 35 69  1  0  0  0  0
 35 76  2  0  0  0  0
 36 51  1  0  0  0  0
 36 72  1  0  0  0  0
 36 77  2  0  0  0  0
 37 61  1  0  0  0  0
 37 66  1  0  0  0  0
 37 78  2  0  0  0  0
 38 59  1  0  0  0  0
 38 71  1  0  0  0  0
 38 79  2  0  0  0  0
 39 62  1  0  0  0  0
 39 73  1  0  0  0  0
 39 80  2  0  0  0  0
 40 67  1  0  0  0  0
 40 70  1  0  0  0  0
 40 81  2  0  0  0  0
 41 44  1  0  0  0  0
 42 51  1  0  0  0  0
 43 66  1  0  0  0  0
 44 46  1  0  0  0  0
 45 47  1  0  0  0  0
 45 48  1  0  0  0  0
 46 50  1  0  0  0  0
 47 52  1  0  0  0  0
 48 67  1  0  0  0  0
 49 52  1  0  0  0  0
 49 67  1  0  0  0  0
 50 72  1  0  0  0  0
 51 66  1  0  0  0  0
 52 65  1  0  0  0  0
 54 62  1  0  0  0  0
 55 63  1  0  0  0  0
 56 63  1  0  0  0  0
 57 63  1  0  0  0  0
 58 75  1  0  0  0  0
 59 60  1  0  0  0  0
 60 83  1  0  0  0  0
 61 63  1  0  0  0  0
 61 73  1  0  0  0  0
 62 75  1  0  0  0  0
 64 65  1  0  0  0  0
M  CHG  2  74   1  75   1
M  ISO  4  40 100  60 101  70 100  83 101
M  END
> <Batch ID>
0049

> <Smiles>
CNC(C)C(=O)NC(C(=O)N1Cc2cc([101O:1][101CH2:1]CC(=O)NC(=N)c3cc(F)c([100NH:0][100C:0](=O)N4CCCC(n5nc(-c6ccc(Oc7ccc(F)cc7F)cc6)c(C(N)=O)c5N)C4)cc3C)ccc2CC1C(=O)NC1CCCc2ccccc21)C(C)(C)C

> <Shape>
0.288

> <Color>
0.083

> <Negative vol penalty>
0.000

$$$$

  -OEChem-04042322323D

 87 96  0     1  0  0  0  0  0999 V2000
  -25.4072  -35.5407   16.8431 C   0  0  0  0  0  0  0  0  0  0  0  0
  -26.4415  -34.6123   16.9036 C   0  0  0  0  0  0  0  0  0  0  0  0
  -22.6024  -10.4787   20.2238 C   0  0  0  0  0  0  0  0  0  0  0  0
  -24.2718   -9.5412   21.6974 C   0  0  0  0  0  0  0  0  0  0  0  0
  -24.4654  -35.6013   17.8695 C   0  0  0  0  0  0  0  0  0  0  0  0
  -26.5353  -33.7446   17.9911 C   0  0  0  0  0  0  0  0  0  0  0  0
  -26.7861  -25.9384   18.1539 C   0  0  0  0  0  0  0  0  0  0  0  0
  -21.8158   -9.3388   20.3898 C   0  0  0  0  0  0  0  0  0  0  0  0
  -23.4851   -8.4014   21.8634 C   0  0  0  0  0  0  0  0  0  0  0  0
  -26.6792  -24.5575   18.3206 C   0  0  0  0  0  0  0  0  0  0  0  0
  -20.7595   -7.4957   23.6443 C   0  0  0  0  0  0  0  0  0  0  0  0
  -20.6028   -7.0013   24.9391 C   0  0  0  0  0  0  0  0  0  0  0  0
  -25.7321  -24.8857   20.5214 C   0  0  0  0  0  0  0  0  0  0  0  0
  -31.9674  -18.1625   20.3624 C   0  0  0  0  0  0  0  0  0  0  0  0
  -30.6213  -20.0434   19.6642 C   0  0  0  0  0  0  0  0  0  0  0  0
  -21.5951   -4.9060   24.2591 C   0  0  0  0  0  0  0  0  0  0  0  0
  -23.8305  -10.5799   20.8776 C   0  0  0  0  0  0  0  0  0  0  0  0
  -24.2968  -13.0836   21.0237 C   0  0  0  0  0  0  0  0  0  0  0  0
  -24.5422  -34.7274   18.9654 C   0  0  0  0  0  0  0  0  0  0  0  0
  -26.3516  -26.7996   19.1654 C   0  0  0  0  0  0  0  0  0  0  0  0
  -25.5945  -33.7944   19.0337 C   0  0  0  0  0  0  0  0  0  0  0  0
  -25.8251  -26.2700   20.3550 C   0  0  0  0  0  0  0  0  0  0  0  0
  -30.9620  -17.7711   21.2464 C   0  0  0  0  0  0  0  0  0  0  0  0
  -29.6159  -19.6519   20.5482 C   0  0  0  0  0  0  0  0  0  0  0  0
  -22.2571   -8.3002   21.2096 C   0  0  0  0  0  0  0  0  0  0  0  0
  -26.1537  -24.0324   19.5015 C   0  0  0  0  0  0  0  0  0  0  0  0
  -21.3340   -6.6953   22.6568 C   0  0  0  0  0  0  0  0  0  0  0  0
  -21.0206   -5.7065   25.2465 C   0  0  0  0  0  0  0  0  0  0  0  0
  -21.7518   -5.4005   22.9642 C   0  0  0  0  0  0  0  0  0  0  0  0
  -31.7971  -19.2987   19.5713 C   0  0  0  0  0  0  0  0  0  0  0  0
  -29.7862  -18.5158   21.3393 C   0  0  0  0  0  0  0  0  0  0  0  0
  -24.6438  -11.7568   20.7060 C   0  0  0  0  0  0  0  0  0  0  0  0
  -25.4023  -13.8205   20.6754 C   0  0  0  0  0  0  0  0  0  0  0  0
  -27.1503  -19.9265   20.3342 C   0  0  0  0  0  0  0  0  0  0  0  0
  -26.8798  -18.8696   19.5429 C   0  0  0  0  0  0  0  0  0  0  0  0
  -23.0836  -13.6035   21.5838 C   0  0  0  0  0  0  0  0  0  0  0  0
  -25.8853  -30.3406   20.3141 C   0  0  0  0  0  0  0  0  0  0  0  0
  -23.3982  -28.7805   21.2035 C   0  0  0  0  0  0  0  0  0  0  0  0
  -20.6489  -26.8070   21.6325 C   0  0  0  0  0  0  0  0  0  0  0  0
  -30.9332  -14.5618   20.6076 C   0  0  0  0  0  0  0  0  0  0  0  0
  -23.5284  -34.8622   20.0738 C   0  0  0  0  0  0  0  0  0  0  0  0
  -26.5045  -28.2922   19.0542 C   0  0  0  0  0  0  0  0  0  0  0  0
  -25.4024  -27.2337   21.4299 C   0  0  0  0  0  0  0  0  0  0  0  0
  -25.9710  -20.6592   20.9519 C   0  0  0  0  0  0  0  0  0  0  0  0
  -23.4832  -33.6557   21.0080 C   0  0  0  0  0  0  0  0  0  0  0  0
  -29.5260  -12.5276   18.0467 C   0  0  0  0  0  0  0  0  0  0  0  0
  -24.8943  -33.2387   21.4100 C   0  0  0  0  0  0  0  0  0  0  0  0
  -28.1046  -12.2503   18.5394 C   0  0  0  0  0  0  0  0  0  0  0  0
  -27.4998  -22.5325   21.5913 C   0  0  0  0  0  0  0  0  0  0  0  0
  -30.5261  -12.5644   19.2001 C   0  0  0  0  0  0  0  0  0  0  0  0
  -28.6544  -21.8764   20.8377 C   0  0  0  0  0  0  0  0  0  0  0  0
  -28.7550  -13.2128   20.7865 C   0  0  0  0  0  0  0  0  0  0  0  0
  -25.7158  -32.8196   20.1849 C   0  0  1  0  0  0  0  0  0  0  0  0
  -25.3549  -29.0680   19.7219 C   0  0  1  0  0  0  0  0  0  0  0  0
  -27.7019  -13.2217   19.6652 C   0  0  2  0  0  0  0  0  0  0  0  0
  -26.1517  -22.1734   20.9819 C   0  0  1  0  0  0  0  0  0  1  0  0
  -18.3260  -26.8444   22.5810 C   0  0  0  0  0  0  0  0  0  0  0  0
  -24.5499  -28.5929   24.0217 C   0  0  0  0  0  0  0  0  0  0  0  0
  -22.3415  -27.6964   24.7880 C   0  0  0  0  0  0  0  0  0  0  0  0
  -22.4876  -29.9942   23.8282 C   0  0  0  0  0  0  0  0  0  0  0  0
  -19.4380  -26.2234   18.9958 C   0  0  0  0  0  0  0  0  0  0  0  0
  -31.1887  -16.5472   22.0746 C   0  0  0  0  0  0  0  0  0  0  0  0
  -22.7224  -27.9949   22.2987 C   0  0  1  0  0  0  0  0  0  0  0  0
  -19.1793  -27.0489   21.3389 C   0  0  2  0  0  0  0  0  0  0  0  0
  -23.0398  -28.5567   23.7133 C   0  0  0  0  0  0  0  0  0  0  0  0
  -25.8735  -11.6537   20.1950 N   0  0  0  0  0  0  0  0  0  0  0  0
  -26.3088  -12.9251   20.1888 N   0  0  0  0  0  0  0  0  0  0  0  0
  -28.4285  -20.4359   20.6184 N   0  0  0  0  0  0  0  0  0  0  0  0
  -24.6843  -28.3700   20.8318 N   0  0  0  0  0  0  0  0  0  0  0  0
  -30.0864  -13.5056   20.2329 N   0  0  0  0  0  0  0  0  0  0  0  0
  -25.6776  -15.1404   20.7408 N   0  0  0  0  0  0  0  0  0  0  0  0
  -22.9766  -13.6943   22.9783 N   0  0  0  0  0  0  0  0  0  0  0  0
  -25.3462  -31.4862   19.7606 N   0  0  0  0  0  0  0  0  0  0  0  0
  -21.3014  -27.9741   21.9690 N   0  0  0  0  0  0  0  0  0  0  0  0
  -30.4371  -15.4115   21.5888 N   0  0  0  0  0  0  0  0  0  0  0  0
  -18.7016  -26.1139   20.2813 N   0  3  0  0  0  0  0  0  0  0  0  0
  -22.1166  -13.9613   20.8693 O   0  0  0  0  0  0  0  0  0  0  0  0
  -26.7211  -30.2883   21.2088 O   0  0  0  0  0  0  0  0  0  0  0  0
  -22.8065  -29.7360   20.6935 O   0  0  0  0  0  0  0  0  0  0  0  0
  -21.1655  -25.6934   21.5730 O   0  0  0  0  0  0  0  0  0  0  0  0
  -32.0466  -14.7378   20.1012 O   0  0  0  0  0  0  0  0  0  0  0  0
  -21.4897   -7.1879   21.3720 O   0  0  0  0  0  0  0  0  0  0  0  0
  -26.0480  -22.6835   19.6558 O   0  0  0  0  0  0  0  0  0  1  0  0
  -20.8714   -5.2323   26.4903 F   0  0  0  0  0  0  0  0  0  0  0  0
  -22.3055   -4.6272   22.0201 F   0  0  0  0  0  0  0  0  0  0  0  0
  -33.0381  -19.7813   18.4807 Cl  0  0  0  0  0  0  0  0  0  0  0  0
  -28.5398  -18.0235   22.4388 Cl  0  0  0  0  0  0  0  0  0  0  0  0
  1  2  1  0  0  0  0
  1  5  2  0  0  0  0
  2  6  2  0  0  0  0
  3  8  2  0  0  0  0
  3 17  1  0  0  0  0
  4  9  1  0  0  0  0
  4 17  2  0  0  0  0
  5 19  1  0  0  0  0
  6 21  1  0  0  0  0
  7 10  2  0  0  0  0
  7 20  1  0  0  0  0
  8 25  1  0  0  0  0
  9 25  2  0  0  0  0
 10 26  1  0  0  0  0
 11 12  2  0  0  0  0
 11 27  1  0  0  0  0
 12 28  1  0  0  0  0
 13 22  1  0  0  0  0
 13 26  2  0  0  0  0
 14 23  2  0  0  0  0
 14 30  1  0  0  0  0
 15 24  1  0  0  0  0
 15 30  2  0  0  0  0
 16 28  2  0  0  0  0
 16 29  1  0  0  0  0
 17 32  1  0  0  0  0
 18 32  1  0  0  0  0
 18 33  2  0  0  0  0
 18 36  1  0  0  0  0
 19 21  2  0  0  0  0
 19 41  1  0  0  0  0
 20 22  2  0  0  0  0
 20 42  1  0  0  0  0
 21 53  1  0  0  0  0
 22 43  1  0  0  0  0
 23 31  1  0  0  0  0
 23 62  1  0  0  0  0
 24 31  2  0  0  0  0
 24 68  1  0  0  0  0
 25 82  1  0  0  0  0
 26 83  1  0  0  0  0
 27 29  2  0  0  0  0
 27 82  1  0  0  0  0
 28 84  1  0  0  0  0
 29 85  1  0  0  0  0
 30 86  1  0  0  0  0
 31 87  1  0  0  0  0
 32 66  2  0  0  0  0
 33 67  1  0  0  0  0
 33 71  1  0  0  0  0
 34 35  2  0  0  0  0
 34 44  1  0  0  0  0
 34 68  1  0  0  0  0
 36 72  1  0  0  0  0
 36 77  2  0  0  0  0
 37 54  1  0  0  0  0
 37 73  1  0  0  0  0
 37 78  2  0  0  0  0
 38 63  1  0  0  0  0
 38 69  1  0  0  0  0
 38 79  2  0  0  0  0
 39 64  1  0  0  0  0
 39 74  1  0  0  0  0
 39 80  2  0  0  0  0
 40 70  1  0  0  0  0
 40 75  1  0  0  0  0
 40 81  2  0  0  0  0
 41 45  1  0  0  0  0
 42 54  1  0  0  0  0
 43 69  1  0  0  0  0
 44 56  1  0  0  0  0
 45 47  1  0  0  0  0
 46 48  1  0  0  0  0
 46 50  1  0  0  0  0
 47 53  1  0  0  0  0
 48 55  1  0  0  0  0
 49 51  1  0  0  0  0
 49 56  1  0  0  0  0
 50 70  1  0  0  0  0
 51 68  1  0  0  0  0
 52 55  1  0  0  0  0
 52 70  1  0  0  0  0
 53 73  1  0  0  0  0
 54 69  1  0  0  0  0
 55 67  1  0  0  0  0
 56 83  1  0  0  0  0
 57 64  1  0  0  0  0
 58 65  1  0  0  0  0
 59 65  1  0  0  0  0
 60 65  1  0  0  0  0
 61 76  1  0  0  0  0
 62 75  1  0  0  0  0
 63 65  1  0  0  0  0
 63 74  1  0  0  0  0
 64 76  1  0  0  0  0
 66 67  1  0  0  0  0
M  CHG  1  76   1
M  ISO  4  40 100  56 101  75 100  83 101
M  END
> <Batch ID>
0049

> <Smiles>
C=C1C[101CH:1]([101O:1]c2ccc3c(c2)CN(C(=O)C(NC(=O)C(C)NC)C(C)(C)C)C(C(=O)NC2CCCc4ccccc42)C3)CCN1c1cc(Cl)cc(C[100NH:0][100C:0](=O)N2CCCC(n3nc(-c4ccc(Oc5ccc(F)cc5F)cc4)c(C(N)=O)c3N)C2)c1Cl

> <Shape>
0.358

> <Color>
0.193

> <Negative vol penalty>
0.000

$$$$

  -OEChem-04042322323D

 86 94  0     1  0  0  0  0  0999 V2000
  -25.1595  -34.2424   19.2188 C   0  0  0  0  0  0  0  0  0  0  0  0
  -25.8208  -33.0935   19.6411 C   0  0  0  0  0  0  0  0  0  0  0  0
  -23.1738   -9.6775   20.1245 C   0  0  0  0  0  0  0  0  0  0  0  0
  -23.7734  -10.0237   22.4392 C   0  0  0  0  0  0  0  0  0  0  0  0
  -23.9691  -34.6263   19.8347 C   0  0  0  0  0  0  0  0  0  0  0  0
  -25.2925  -32.3285   20.6803 C   0  0  0  0  0  0  0  0  0  0  0  0
  -25.5542  -26.2384   21.2697 C   0  0  0  0  0  0  0  0  0  0  0  0
  -22.4395   -8.5473   20.4837 C   0  0  0  0  0  0  0  0  0  0  0  0
  -23.0390   -8.8934   22.7984 C   0  0  0  0  0  0  0  0  0  0  0  0
  -26.3948  -25.4022   22.0033 C   0  0  0  0  0  0  0  0  0  0  0  0
  -19.7950   -8.0866   23.2941 C   0  0  0  0  0  0  0  0  0  0  0  0
  -18.9601   -8.1848   24.4072 C   0  0  0  0  0  0  0  0  0  0  0  0
  -31.4558  -18.9409   23.7218 C   0  0  0  0  0  0  0  0  0  0  0  0
  -24.7587  -25.3212   23.7742 C   0  0  0  0  0  0  0  0  0  0  0  0
  -31.8123  -16.9864   22.3471 C   0  0  0  0  0  0  0  0  0  0  0  0
  -20.1894   -6.4065   25.4861 C   0  0  0  0  0  0  0  0  0  0  0  0
  -23.8407  -10.4157   21.1022 C   0  0  0  0  0  0  0  0  0  0  0  0
  -30.0845  -18.8611   23.4796 C   0  0  0  0  0  0  0  0  0  0  0  0
  -24.1354  -12.9097   20.6539 C   0  0  0  0  0  0  0  0  0  0  0  0
  -23.4209  -33.8603   20.8756 C   0  0  0  0  0  0  0  0  0  0  0  0
  -24.3121  -26.6316   21.7884 C   0  0  0  0  0  0  0  0  0  0  0  0
  -24.0943  -32.7033   21.3116 C   0  0  0  0  0  0  0  0  0  0  0  0
  -23.9031  -26.1603   23.0441 C   0  0  0  0  0  0  0  0  0  0  0  0
  -30.4410  -16.9066   22.1049 C   0  0  0  0  0  0  0  0  0  0  0  0
  -22.3721   -8.1553   21.8206 C   0  0  0  0  0  0  0  0  0  0  0  0
  -25.9983  -24.9458   23.2569 C   0  0  0  0  0  0  0  0  0  0  0  0
  -20.8270   -7.1483   23.2770 C   0  0  0  0  0  0  0  0  0  0  0  0
  -19.1573   -7.3448   25.5032 C   0  0  0  0  0  0  0  0  0  0  0  0
  -32.3198  -18.0035   23.1555 C   0  0  0  0  0  0  0  0  0  0  0  0
  -21.0242   -6.3083   24.3729 C   0  0  0  0  0  0  0  0  0  0  0  0
  -29.5770  -17.8440   22.6712 C   0  0  0  0  0  0  0  0  0  0  0  0
  -24.5999  -11.5830   20.7317 C   0  0  0  0  0  0  0  0  0  0  0  0
  -25.2336  -13.6354   20.2618 C   0  0  0  0  0  0  0  0  0  0  0  0
  -29.1736  -19.8538   24.0805 C   0  0  0  0  0  0  0  0  0  0  0  0
  -22.8282  -13.4386   20.9129 C   0  0  0  0  0  0  0  0  0  0  0  0
  -22.9895  -29.4123   22.5773 C   0  0  0  0  0  0  0  0  0  0  0  0
  -20.3524  -27.5818   23.0436 C   0  0  0  0  0  0  0  0  0  0  0  0
  -27.9518  -22.0082   24.0294 C   0  0  0  0  0  0  0  0  0  0  0  0
  -19.0453  -24.5011   23.7125 C   0  0  0  0  0  0  0  0  0  0  0  0
  -30.6508  -14.8639   20.6455 C   0  0  0  0  0  0  0  0  0  0  0  0
  -22.1565  -34.3411   21.5425 C   0  0  0  0  0  0  0  0  0  0  0  0
  -23.4055  -27.5124   20.9731 C   0  0  0  0  0  0  0  0  0  0  0  0
  -22.5708  -26.5369   23.6370 C   0  0  0  0  0  0  0  0  0  0  0  0
  -21.4675  -33.2709   22.3853 C   0  0  0  0  0  0  0  0  0  0  0  0
  -29.7548  -12.1137   18.5693 C   0  0  0  0  0  0  0  0  0  0  0  0
  -22.4825  -32.5506   23.2673 C   0  0  0  0  0  0  0  0  0  0  0  0
  -28.2956  -11.8396   18.9404 C   0  0  0  0  0  0  0  0  0  0  0  0
  -30.5797  -12.5340   19.7845 C   0  0  0  0  0  0  0  0  0  0  0  0
  -28.5668  -13.3823   20.9237 C   0  0  0  0  0  0  0  0  0  0  0  0
  -23.5399  -31.8336   22.4191 C   0  0  1  0  0  0  0  0  0  0  0  0
  -22.3836  -28.2647   21.8199 C   0  0  1  0  0  0  0  0  0  0  0  0
  -27.6815  -13.0185   19.7206 C   0  0  2  0  0  0  0  0  0  0  0  0
  -16.8578  -23.3248   24.0706 C   0  0  0  0  0  0  0  0  0  0  0  0
  -20.1690  -28.7803   25.8436 C   0  0  0  0  0  0  0  0  0  0  0  0
  -18.6059  -26.9243   26.4600 C   0  0  0  0  0  0  0  0  0  0  0  0
  -17.9758  -28.5393   24.6663 C   0  0  0  0  0  0  0  0  0  0  0  0
  -29.4515  -21.3205   22.1054 C   0  0  0  0  0  0  0  0  0  0  0  0
  -19.4893  -22.7217   21.3897 C   0  0  0  0  0  0  0  0  0  0  0  0
  -27.6838  -23.2681   23.2391 C   0  0  0  0  0  0  0  0  0  1  0  0
  -19.7726  -26.8200   24.2108 C   0  0  1  0  0  0  0  0  0  0  0  0
  -17.9205  -23.7202   23.0572 C   0  0  2  0  0  0  0  0  0  0  0  0
  -19.1568  -27.7602   25.2852 C   0  0  0  0  0  0  0  0  0  0  0  0
  -25.8923  -11.4697   20.4144 N   0  0  0  0  0  0  0  0  0  0  0  0
  -26.2494  -12.7344   20.1333 N   0  0  0  0  0  0  0  0  0  0  0  0
  -21.7225  -27.4052   22.8040 N   0  0  0  0  0  0  0  0  0  0  0  0
  -29.9394  -13.6579   20.4712 N   0  0  0  0  0  0  0  0  0  0  0  0
  -25.4197  -14.9501   20.0177 N   0  0  0  0  0  0  0  0  0  0  0  0
  -21.8153  -12.5537   21.3068 N   0  0  0  0  0  0  0  0  0  0  0  0
  -29.9287  -15.8723   21.2829 N   0  0  0  0  0  0  0  0  0  0  0  0
  -23.0039  -30.6035   21.8770 N   0  0  0  0  0  0  0  0  0  0  0  0
  -18.8298  -25.8613   23.6447 N   0  0  0  0  0  0  0  0  0  0  0  0
  -28.8613  -21.0113   23.4353 N   0  0  0  0  0  0  0  0  0  0  0  0
  -28.7309  -19.5241   25.2969 N   0  3  0  0  0  0  0  0  0  0  0  0
  -18.4513  -22.4797   22.4245 N   0  3  0  0  0  0  0  0  0  0  0  0
  -22.5620  -14.6575   20.7826 O   0  0  0  0  0  0  0  0  0  0  0  0
  -23.4113  -29.2308   23.7134 O   0  0  0  0  0  0  0  0  0  0  0  0
  -19.6153  -28.3014   22.3650 O   0  0  0  0  0  0  0  0  0  0  0  0
  -27.4502  -21.8139   25.1322 O   0  0  0  0  0  0  0  0  0  0  0  0
  -20.0161  -23.9586   24.2358 O   0  0  0  0  0  0  0  0  0  0  0  0
  -31.8056  -15.0015   20.2337 O   0  0  0  0  0  0  0  0  0  0  0  0
  -21.6555   -7.0526   22.1715 O   0  0  0  0  0  0  0  0  0  0  0  0
  -26.8171  -24.1302   23.9753 O   0  0  0  0  0  0  0  0  0  1  0  0
  -18.3565   -7.4403   26.5726 F   0  0  0  0  0  0  0  0  0  0  0  0
  -33.6365  -18.0801   23.3883 F   0  0  0  0  0  0  0  0  0  0  0  0
  -22.0147   -5.4058   24.3627 F   0  0  0  0  0  0  0  0  0  0  0  0
  -28.2578  -17.7687   22.4388 F   0  0  0  0  0  0  0  0  0  0  0  0
  1  2  1  0  0  0  0
  1  5  2  0  0  0  0
  2  6  2  0  0  0  0
  3  8  2  0  0  0  0
  3 17  1  0  0  0  0
  4  9  1  0  0  0  0
  4 17  2  0  0  0  0
  5 20  1  0  0  0  0
  6 22  1  0  0  0  0
  7 10  2  0  0  0  0
  7 21  1  0  0  0  0
  8 25  1  0  0  0  0
  9 25  2  0  0  0  0
 10 26  1  0  0  0  0
 11 12  2  0  0  0  0
 11 27  1  0  0  0  0
 12 28  1  0  0  0  0
 13 18  1  0  0  0  0
 13 29  2  0  0  0  0
 14 23  1  0  0  0  0
 14 26  2  0  0  0  0
 15 24  2  0  0  0  0
 15 29  1  0  0  0  0
 16 28  2  0  0  0  0
 16 30  1  0  0  0  0
 17 32  1  0  0  0  0
 18 31  2  0  0  0  0
 18 34  1  0  0  0  0
 19 32  1  0  0  0  0
 19 33  2  0  0  0  0
 19 35  1  0  0  0  0
 20 22  2  0  0  0  0
 20 41  1  0  0  0  0
 21 23  2  0  0  0  0
 21 42  1  0  0  0  0
 22 50  1  0  0  0  0
 23 43  1  0  0  0  0
 24 31  1  0  0  0  0
 24 69  1  0  0  0  0
 25 81  1  0  0  0  0
 26 82  1  0  0  0  0
 27 30  2  0  0  0  0
 27 81  1  0  0  0  0
 28 83  1  0  0  0  0
 29 84  1  0  0  0  0
 30 85  1  0  0  0  0
 31 86  1  0  0  0  0
 32 63  2  0  0  0  0
 33 64  1  0  0  0  0
 33 67  1  0  0  0  0
 34 72  1  0  0  0  0
 34 73  2  0  0  0  0
 35 68  1  0  0  0  0
 35 75  2  0  0  0  0
 36 51  1  0  0  0  0
 36 70  1  0  0  0  0
 36 76  2  0  0  0  0
 37 60  1  0  0  0  0
 37 65  1  0  0  0  0
 37 77  2  0  0  0  0
 38 59  1  0  0  0  0
 38 72  1  0  0  0  0
 38 78  2  0  0  0  0
 39 61  1  0  0  0  0
 39 71  1  0  0  0  0
 39 79  2  0  0  0  0
 40 66  1  0  0  0  0
 40 69  1  0  0  0  0
 40 80  2  0  0  0  0
 41 44  1  0  0  0  0
 42 51  1  0  0  0  0
 43 65  1  0  0  0  0
 44 46  1  0  0  0  0
 45 47  1  0  0  0  0
 45 48  1  0  0  0  0
 46 50  1  0  0  0  0
 47 52  1  0  0  0  0
 48 66  1  0  0  0  0
 49 52  1  0  0  0  0
 49 66  1  0  0  0  0
 50 70  1  0  0  0  0
 51 65  1  0  0  0  0
 52 64  1  0  0  0  0
 53 61  1  0  0  0  0
 54 62  1  0  0  0  0
 55 62  1  0  0  0  0
 56 62  1  0  0  0  0
 57 72  1  0  0  0  0
 58 74  1  0  0  0  0
 59 82  1  0  0  0  0
 60 62  1  0  0  0  0
 60 71  1  0  0  0  0
 61 74  1  0  0  0  0
 63 64  1  0  0  0  0
M  CHG  2  73   1  74   1
M  ISO  4  40 100  59 101  69 100  82 101
M  END
> <Batch ID>
0049

> <Smiles>
CNC(C)C(=O)NC(C(=O)N1Cc2cc([101O:1][101CH2:1]C(=O)N(C)C(=N)c3cc(F)cc([100NH:0][100C:0](=O)N4CCCC(n5nc(-c6ccc(Oc7ccc(F)cc7F)cc6)c(C(N)=O)c5N)C4)c3F)ccc2CC1C(=O)NC1CCCc2ccccc21)C(C)(C)C

> <Shape>
0.247

> <Color>
0.192

> <Negative vol penalty>
0.000

$$$$

  -OEChem-04042322323D

 88 97  0     1  0  0  0  0  0999 V2000
  -31.5759  -24.2022   15.3360 C   0  0  0  0  0  0  0  0  0  0  0  0
  -30.3332  -24.7636   15.0601 C   0  0  0  0  0  0  0  0  0  0  0  0
  -24.7176  -13.3496   18.7985 C   0  0  0  0  0  0  0  0  0  0  0  0
  -23.5720  -14.9512   20.1982 C   0  0  0  0  0  0  0  0  0  0  0  0
  -31.8566  -23.7284   16.6168 C   0  0  0  0  0  0  0  0  0  0  0  0
  -29.3701  -24.8505   16.0647 C   0  0  0  0  0  0  0  0  0  0  0  0
  -23.9853  -29.0175   18.2910 C   0  0  0  0  0  0  0  0  0  0  0  0
  -23.8628  -12.3439   19.2496 C   0  0  0  0  0  0  0  0  0  0  0  0
  -22.7171  -13.9455   20.6493 C   0  0  0  0  0  0  0  0  0  0  0  0
  -22.6385  -28.9406   18.6430 C   0  0  0  0  0  0  0  0  0  0  0  0
  -23.5416  -10.3923   21.9906 C   0  0  0  0  0  0  0  0  0  0  0  0
  -24.1115   -9.1706   22.3483 C   0  0  0  0  0  0  0  0  0  0  0  0
  -23.2631  -28.1615   20.8389 C   0  0  0  0  0  0  0  0  0  0  0  0
  -24.1899  -23.1392   23.0852 C   0  0  0  0  0  0  0  0  0  0  0  0
  -23.2437  -23.0562   20.4621 C   0  0  0  0  0  0  0  0  0  0  0  0
  -22.7834   -8.0579   20.6645 C   0  0  0  0  0  0  0  0  0  0  0  0
  -24.5722  -14.6532   19.2729 C   0  0  0  0  0  0  0  0  0  0  0  0
  -25.6286  -16.1299   17.4809 C   0  0  0  0  0  0  0  0  0  0  0  0
  -30.8999  -23.8183   17.6402 C   0  0  0  0  0  0  0  0  0  0  0  0
  -24.9825  -28.6559   19.2083 C   0  0  0  0  0  0  0  0  0  0  0  0
  -29.6378  -24.3762   17.3601 C   0  0  0  0  0  0  0  0  0  0  0  0
  -24.6219  -28.2371   20.4970 C   0  0  0  0  0  0  0  0  0  0  0  0
  -25.0619  -22.8403   22.0384 C   0  0  0  0  0  0  0  0  0  0  0  0
  -22.3717  -23.3550   21.5090 C   0  0  0  0  0  0  0  0  0  0  0  0
  -22.8626  -12.6418   20.1750 C   0  0  0  0  0  0  0  0  0  0  0  0
  -22.2771  -28.5098   19.9161 C   0  0  0  0  0  0  0  0  0  0  0  0
  -22.5925  -10.4469   20.9698 C   0  0  0  0  0  0  0  0  0  0  0  0
  -22.8448  -23.3965   22.8205 C   0  0  0  0  0  0  0  0  0  0  0  0
  -23.7325   -8.0034   21.6853 C   0  0  0  0  0  0  0  0  0  0  0  0
  -24.5888  -22.7988   20.7268 C   0  0  0  0  0  0  0  0  0  0  0  0
  -22.2134   -9.2797   20.3068 C   0  0  0  0  0  0  0  0  0  0  0  0
  -25.4553  -15.6924   18.8077 C   0  0  0  0  0  0  0  0  0  0  0  0
  -26.5692  -17.1269   17.5682 C   0  0  0  0  0  0  0  0  0  0  0  0
  -24.9958  -15.6758   16.2772 C   0  0  0  0  0  0  0  0  0  0  0  0
  -27.2535  -26.4335   19.2928 C   0  0  0  0  0  0  0  0  0  0  0  0
  -28.1286  -27.9861   22.0031 C   0  0  0  0  0  0  0  0  0  0  0  0
  -27.2314  -30.0073   24.6024 C   0  0  0  0  0  0  0  0  0  0  0  0
  -28.2160  -20.8023   21.9989 C   0  0  0  0  0  0  0  0  0  0  0  0
  -31.2324  -23.2494   18.9968 C   0  0  0  0  0  0  0  0  0  0  0  0
  -26.4317  -28.7700   18.8221 C   0  0  0  0  0  0  0  0  0  0  0  0
  -25.6547  -27.8570   21.5253 C   0  0  0  0  0  0  0  0  0  0  0  0
  -30.2903  -23.7197   20.1020 C   0  0  0  0  0  0  0  0  0  0  0  0
  -30.2997  -18.5341   20.2129 C   0  0  0  0  0  0  0  0  0  0  0  0
  -18.6162  -26.4343   22.3958 C   0  0  0  0  0  0  0  0  0  0  0  0
  -28.8383  -23.6148   19.6463 C   0  0  0  0  0  0  0  0  0  0  0  0
  -29.3101  -17.5881   19.5305 C   0  0  0  0  0  0  0  0  0  0  0  0
  -19.1039  -27.5544   21.4863 C   0  0  0  0  0  0  0  0  0  0  0  0
  -29.8154  -18.9534   21.5991 C   0  0  0  0  0  0  0  0  0  0  0  0
  -27.4671  -18.5802   20.9510 C   0  0  0  0  0  0  0  0  0  0  0  0
  -18.9936  -25.0637   21.8520 C   0  0  0  0  0  0  0  0  0  0  0  0
  -20.9731  -26.0649   20.6818 C   0  0  0  0  0  0  0  0  0  0  0  0
  -28.5758  -24.5106   18.4298 C   0  0  1  0  0  0  0  0  0  0  0  0
  -27.3461  -27.8863   19.6649 C   0  0  1  0  0  0  0  0  0  0  0  0
  -27.8853  -18.1740   19.5275 C   0  0  2  0  0  0  0  0  0  0  0  0
  -20.6013  -27.4412   21.2176 C   0  0  1  0  0  0  0  0  0  1  0  0
  -28.1535  -31.0714   26.6797 C   0  0  0  0  0  0  0  0  0  0  0  0
  -27.9907  -25.2972   23.4387 C   0  0  0  0  0  0  0  0  0  0  0  0
  -27.9758  -26.5378   25.6134 C   0  0  0  0  0  0  0  0  0  0  0  0
  -29.9385  -26.7264   24.0853 C   0  0  0  0  0  0  0  0  0  0  0  0
  -26.6932  -32.7337   23.5845 C   0  0  0  0  0  0  0  0  0  0  0  0
  -22.5747  -23.7079   25.1627 C   0  0  0  0  0  0  0  0  0  0  0  0
  -26.4997  -22.5652   22.3237 C   0  0  0  0  0  0  0  0  0  0  0  0
  -20.9282  -23.6296   21.2056 C   0  0  0  0  0  0  0  0  0  0  0  0
  -27.7705  -27.8696   23.4650 C   0  0  1  0  0  0  0  0  0  0  0  0
  -27.8891  -31.2421   25.1918 C   0  0  2  0  0  0  0  0  0  0  0  0
  -28.3991  -26.6130   24.1308 C   0  0  0  0  0  0  0  0  0  0  0  0
  -26.2243  -16.3570   19.6744 N   0  0  0  0  0  0  0  0  0  0  0  0
  -26.8899  -17.2221   18.8904 N   0  0  0  0  0  0  0  0  0  0  0  0
  -27.0582  -27.9792   21.0977 N   0  0  0  0  0  0  0  0  0  0  0  0
  -28.4591  -19.5020   21.5264 N   0  0  0  0  0  0  0  0  0  0  0  0
  -27.1451  -17.9227   16.6422 N   0  0  0  0  0  0  0  0  0  0  0  0
  -24.0527  -14.6428   16.3668 N   0  0  0  0  0  0  0  0  0  0  0  0
  -28.4412  -25.8922   18.8391 N   0  0  0  0  0  0  0  0  0  0  0  0
  -28.1615  -29.1320   24.0830 N   0  0  0  0  0  0  0  0  0  0  0  0
  -26.9046  -21.2476   21.8871 N   0  0  0  0  0  0  0  0  0  0  0  0
  -20.4867  -25.0019   21.6338 N   0  3  2  0  0  0  0  0  0  0  0  0
  -27.0150  -32.4343   25.0036 N   0  3  0  0  0  0  0  0  0  0  0  0
  -25.2709  -16.1600   15.1532 O   0  0  0  0  0  0  0  0  0  0  0  0
  -26.1841  -25.8468   19.4100 O   0  0  0  0  0  0  0  0  0  0  0  0
  -29.3140  -28.0869   21.6771 O   0  0  0  0  0  0  0  0  0  0  0  0
  -26.0146  -29.8348   24.6061 O   0  0  0  0  0  0  0  0  0  0  0  0
  -29.1032  -21.5156   22.4796 O   0  0  0  0  0  0  0  0  0  0  0  0
  -22.0281  -11.6608   20.6152 O   0  0  0  0  0  0  0  0  0  0  0  0
  -20.9632  -28.4332   20.2621 O   0  0  0  0  0  0  0  0  0  1  0  0
  -22.0067  -23.6870   23.8547 O   0  0  0  0  0  0  0  0  0  0  0  0
  -24.2810   -6.8304   22.0280 F   0  0  0  0  0  0  0  0  0  0  0  0
  -25.4195  -22.5128   19.7145 F   0  0  0  0  0  0  0  0  0  0  0  0
  -21.3030   -9.3260   19.3245 F   0  0  0  0  0  0  0  0  0  0  0  0
  1  2  1  0  0  0  0
  1  5  2  0  0  0  0
  2  6  2  0  0  0  0
  3  8  2  0  0  0  0
  3 17  1  0  0  0  0
  4  9  1  0  0  0  0
  4 17  2  0  0  0  0
  5 19  1  0  0  0  0
  6 21  1  0  0  0  0
  7 10  2  0  0  0  0
  7 20  1  0  0  0  0
  8 25  1  0  0  0  0
  9 25  2  0  0  0  0
 10 26  1  0  0  0  0
 11 12  2  0  0  0  0
 11 27  1  0  0  0  0
 12 29  1  0  0  0  0
 13 22  1  0  0  0  0
 13 26  2  0  0  0  0
 14 23  2  0  0  0  0
 14 28  1  0  0  0  0
 15 24  1  0  0  0  0
 15 30  2  0  0  0  0
 16 29  2  0  0  0  0
 16 31  1  0  0  0  0
 17 32  1  0  0  0  0
 18 32  1  0  0  0  0
 18 33  2  0  0  0  0
 18 34  1  0  0  0  0
 19 21  2  0  0  0  0
 19 39  1  0  0  0  0
 20 22  2  0  0  0  0
 20 40  1  0  0  0  0
 21 52  1  0  0  0  0
 22 41  1  0  0  0  0
 23 30  1  0  0  0  0
 23 62  1  0  0  0  0
 24 28  2  0  0  0  0
 24 63  1  0  0  0  0
 25 83  1  0  0  0  0
 26 84  1  0  0  0  0
 27 31  2  0  0  0  0
 27 83  1  0  0  0  0
 28 85  1  0  0  0  0
 29 86  1  0  0  0  0
 30 87  1  0  0  0  0
 31 88  1  0  0  0  0
 32 67  2  0  0  0  0
 33 68  1  0  0  0  0
 33 71  1  0  0  0  0
 34 72  1  0  0  0  0
 34 78  2  0  0  0  0
 35 53  1  0  0  0  0
 35 73  1  0  0  0  0
 35 79  2  0  0  0  0
 36 64  1  0  0  0  0
 36 69  1  0  0  0  0
 36 80  2  0  0  0  0
 37 65  1  0  0  0  0
 37 74  1  0  0  0  0
 37 81  2  0  0  0  0
 38 70  1  0  0  0  0
 38 75  1  0  0  0  0
 38 82  2  0  0  0  0
 39 42  1  0  0  0  0
 40 53  1  0  0  0  0
 41 69  1  0  0  0  0
 42 45  1  0  0  0  0
 43 46  1  0  0  0  0
 43 48  1  0  0  0  0
 44 47  1  0  0  0  0
 44 50  1  0  0  0  0
 45 52  1  0  0  0  0
 46 54  1  0  0  0  0
 47 55  1  0  0  0  0
 48 70  1  0  0  0  0
 49 54  1  0  0  0  0
 49 70  1  0  0  0  0
 50 76  1  0  0  0  0
 51 55  1  0  0  0  0
 51 76  1  0  0  0  0
 52 73  1  0  0  0  0
 53 69  1  0  0  0  0
 54 68  1  0  0  0  0
 55 84  1  0  0  0  0
 56 65  1  0  0  0  0
 57 66  1  0  0  0  0
 58 66  1  0  0  0  0
 59 66  1  0  0  0  0
 60 77  1  0  0  0  0
 61 85  1  0  0  0  0
 62 75  1  0  0  0  0
 63 76  1  0  0  0  0
 64 66  1  0  0  0  0
 64 74  1  0  0  0  0
 65 77  1  0  0  0  0
 67 68  1  0  0  0  0
M  CHG  2  76   1  77   1
M  ISO  4  38 100  55 101  75 100  84 101
M  END
> <Batch ID>
0049

> <Smiles>
CNC(C)C(=O)NC(C(=O)N1Cc2cc([101O:1][101CH:1]3CCCN(Cc4cc(F)c(C[100NH:0][100C:0](=O)N5CCCC(n6nc(-c7ccc(Oc8ccc(F)cc8F)cc7)c(C(N)=O)c6N)C5)cc4OC)C3)ccc2CC1C(=O)NC1CCCc2ccccc21)C(C)(C)C

> <Shape>
0.252

> <Color>
0.038

> <Negative vol penalty>
0.000

$$$$

  -OEChem-04042322323D

 97107  0     1  0  0  0  0  0999 V2000
  -32.4439  -15.2855   22.4286 C   0  0  0  0  0  0  0  0  0  0  0  0
  -31.4635  -16.2172   22.7545 C   0  0  0  0  0  0  0  0  0  0  0  0
  -33.5576  -22.0282   17.5008 C   0  0  0  0  0  0  0  0  0  0  0  0
  -22.5804  -26.7536   23.8024 C   0  0  0  0  0  0  0  0  0  0  0  0
  -22.9397  -26.4871   21.4282 C   0  0  0  0  0  0  0  0  0  0  0  0
  -32.2765  -14.4585   21.3187 C   0  0  0  0  0  0  0  0  0  0  0  0
  -30.3156  -16.3231   21.9700 C   0  0  0  0  0  0  0  0  0  0  0  0
  -23.3305  -17.8312   22.4715 C   0  0  0  0  0  0  0  0  0  0  0  0
  -32.4563  -22.8842   17.5055 C   0  0  0  0  0  0  0  0  0  0  0  0
  -21.5906  -27.7024   23.5462 C   0  0  0  0  0  0  0  0  0  0  0  0
  -21.9498  -27.4359   21.1720 C   0  0  0  0  0  0  0  0  0  0  0  0
  -22.3638  -18.6588   21.9022 C   0  0  0  0  0  0  0  0  0  0  0  0
  -18.3454  -27.7225   22.5970 C   0  0  0  0  0  0  0  0  0  0  0  0
  -17.1533  -27.6256   23.3147 C   0  0  0  0  0  0  0  0  0  0  0  0
  -33.3742  -20.6550   17.6627 C   0  0  0  0  0  0  0  0  0  0  0  0
  -22.1460  -17.1234   20.0544 C   0  0  0  0  0  0  0  0  0  0  0  0
  -25.1046  -21.4296   18.4818 C   0  0  0  0  0  0  0  0  0  0  0  0
  -26.8343  -23.6050   18.2399 C   0  0  0  0  0  0  0  0  0  0  0  0
  -30.9882  -20.9938   17.8341 C   0  0  0  0  0  0  0  0  0  0  0  0
  -17.5230  -29.8321   24.2268 C   0  0  0  0  0  0  0  0  0  0  0  0
  -23.2550  -26.1460   22.7434 C   0  0  0  0  0  0  0  0  0  0  0  0
  -24.1294  -23.9455   23.6927 C   0  0  0  0  0  0  0  0  0  0  0  0
  -31.1215  -14.5477   20.5258 C   0  0  0  0  0  0  0  0  0  0  0  0
  -23.7208  -16.6469   21.8300 C   0  0  0  0  0  0  0  0  0  0  0  0
  -30.1332  -15.4974   20.8477 C   0  0  0  0  0  0  0  0  0  0  0  0
  -23.1161  -16.2812   20.6189 C   0  0  0  0  0  0  0  0  0  0  0  0
  -31.1716  -22.3670   17.6721 C   0  0  0  0  0  0  0  0  0  0  0  0
  -26.3761  -21.3764   19.0527 C   0  0  0  0  0  0  0  0  0  0  0  0
  -24.6979  -22.5704   17.7898 C   0  0  0  0  0  0  0  0  0  0  0  0
  -27.2410  -22.4641   18.9318 C   0  0  0  0  0  0  0  0  0  0  0  0
  -21.2753  -28.0435   22.2310 C   0  0  0  0  0  0  0  0  0  0  0  0
  -21.7734  -18.3065   20.6920 C   0  0  0  0  0  0  0  0  0  0  0  0
  -19.1264  -28.8741   22.6943 C   0  0  0  0  0  0  0  0  0  0  0  0
  -16.7420  -28.6804   24.1295 C   0  0  0  0  0  0  0  0  0  0  0  0
  -25.5627  -23.6581   17.6689 C   0  0  0  0  0  0  0  0  0  0  0  0
  -18.7152  -29.9289   23.5092 C   0  0  0  0  0  0  0  0  0  0  0  0
  -32.0895  -20.1377   17.8294 C   0  0  0  0  0  0  0  0  0  0  0  0
  -24.2780  -25.1663   23.0075 C   0  0  0  0  0  0  0  0  0  0  0  0
  -25.3840  -23.3869   23.6750 C   0  0  0  0  0  0  0  0  0  0  0  0
  -21.4083  -21.3730   18.0911 C   0  0  0  0  0  0  0  0  0  0  0  0
  -22.9616  -23.3681   24.2915 C   0  0  0  0  0  0  0  0  0  0  0  0
  -26.4455  -15.5441   20.6201 C   0  0  0  0  0  0  0  0  0  0  0  0
  -24.7152  -12.8301   20.2171 C   0  0  0  0  0  0  0  0  0  0  0  0
  -21.6493  -11.3761   19.8531 C   0  0  0  0  0  0  0  0  0  0  0  0
  -30.0033  -24.5222   19.8135 C   0  0  0  0  0  0  0  0  0  0  0  0
  -31.0068  -13.6650   19.3083 C   0  0  0  0  0  0  0  0  0  0  0  0
  -24.7458  -15.7515   22.4705 C   0  0  0  0  0  0  0  0  0  0  0  0
  -23.4853  -15.0101   19.9002 C   0  0  0  0  0  0  0  0  0  0  0  0
  -29.5897  -13.5829   18.7468 C   0  0  0  0  0  0  0  0  0  0  0  0
  -21.0057  -23.5931   20.0328 C   0  0  0  0  0  0  0  0  0  0  0  0
  -30.0145  -24.5562   23.5149 C   0  0  0  0  0  0  0  0  0  0  0  0
  -28.9718  -14.9742   18.6515 C   0  0  0  0  0  0  0  0  0  0  0  0
  -19.8835  -22.6833   19.5561 C   0  0  0  0  0  0  0  0  0  0  0  0
  -28.5299  -24.6854   23.8513 C   0  0  0  0  0  0  0  0  0  0  0  0
  -22.3390  -23.3393   19.3347 C   0  0  0  0  0  0  0  0  0  0  0  0
  -30.3472  -25.1859   22.1656 C   0  0  0  0  0  0  0  0  0  0  0  0
  -28.0357  -24.8005   21.3768 C   0  0  0  0  0  0  0  0  0  0  0  0
  -28.8627  -15.6254   20.0356 C   0  0  1  0  0  0  0  0  0  0  0  0
  -20.3785  -21.2841   19.2060 C   0  0  2  0  0  0  0  0  0  0  0  0
  -25.4381  -14.8271   21.4737 C   0  0  1  0  0  0  0  0  0  0  0  0
  -27.6586  -24.1350   22.7089 C   0  0  2  0  0  0  0  0  0  0  0  0
  -26.7887  -20.1447   19.7897 C   0  0  0  0  0  0  0  0  0  0  0  0
  -20.5564   -9.1441   19.5049 C   0  0  0  0  0  0  0  0  0  0  0  0
  -25.5554  -12.8789   17.2843 C   0  0  0  0  0  0  0  0  0  0  0  0
  -23.7229  -11.2420   16.8042 C   0  0  0  0  0  0  0  0  0  0  0  0
  -25.5848  -10.6121   18.3402 C   0  0  0  0  0  0  0  0  0  0  0  0
  -20.1589  -11.5782   22.4020 C   0  0  0  0  0  0  0  0  0  0  0  0
  -23.3291  -22.6245   17.1754 C   0  0  0  0  0  0  0  0  0  0  0  0
  -29.9868  -23.2892   17.6783 C   0  0  0  0  0  0  0  0  0  0  0  0
  -28.6070  -22.4305   19.5342 C   0  0  0  0  0  0  0  0  0  0  0  0
  -20.9321  -20.5114   20.3984 C   0  0  0  0  0  0  0  0  0  1  0  0
  -23.8432  -12.2713   19.1187 C   0  0  1  0  0  0  0  0  0  0  0  0
  -21.0199  -10.1703   20.5272 C   0  0  2  0  0  0  0  0  0  0  0  0
  -24.6708  -11.7761   17.8992 C   0  0  0  0  0  0  0  0  0  0  0  0
  -25.5285  -25.3717   22.5854 N   0  0  0  0  0  0  0  0  0  0  0  0
  -26.1770  -24.2726   23.0067 N   0  0  0  0  0  0  0  0  0  0  0  0
  -22.2788  -22.4598   18.1696 N   0  0  0  0  0  0  0  0  0  0  0  0
  -24.4971  -14.1711   20.5635 N   0  0  0  0  0  0  0  0  0  0  0  0
  -29.4758  -24.6770   21.1060 N   0  0  0  0  0  0  0  0  0  0  0  0
  -25.8752  -22.2294   24.1663 N   0  0  0  0  0  0  0  0  0  0  0  0
  -21.7539  -24.0756   24.2183 N   0  0  0  0  0  0  0  0  0  0  0  0
  -27.7384  -15.0782   20.7643 N   0  0  0  0  0  0  0  0  0  0  0  0
  -23.0166  -11.2410   19.7381 N   0  0  0  0  0  0  0  0  0  0  0  0
  -29.4648  -23.4967   19.0215 N   0  0  0  0  0  0  0  0  0  0  0  0
  -19.8433  -10.5873   21.3412 N   0  3  0  0  0  0  0  0  0  0  0  0
  -21.4420  -20.5090   17.2130 O   0  0  0  0  0  0  0  0  0  0  0  0
  -22.9918  -22.2654   24.8885 O   0  0  0  0  0  0  0  0  0  0  0  0
  -26.0769  -16.4519   19.8840 O   0  0  0  0  0  0  0  0  0  0  0  0
  -25.5540  -12.1015   20.7530 O   0  0  0  0  0  0  0  0  0  0  0  0
  -20.9930  -12.3397   19.4640 O   0  0  0  0  0  0  0  0  0  0  0  0
  -30.9107  -25.2524   19.3949 O   0  0  0  0  0  0  0  0  0  0  0  0
  -20.3093  -28.9691   21.9806 O   0  0  0  0  0  0  0  0  0  0  0  0
  -20.8300  -19.1129   20.1339 O   0  0  0  0  0  0  0  0  0  1  0  0
  -15.5964  -28.5878   24.8174 F   0  0  0  0  0  0  0  0  0  0  0  0
  -25.1809  -24.7587   17.0058 F   0  0  0  0  0  0  0  0  0  0  0  0
  -19.4607  -31.0383   23.6057 F   0  0  0  0  0  0  0  0  0  0  0  0
  -31.8640  -18.4435   18.0302 Cl  0  0  0  0  0  0  0  0  0  0  0  0
  1  2  1  0  0  0  0
  1  6  2  0  0  0  0
  2  7  2  0  0  0  0
  3  9  2  0  0  0  0
  3 15  1  0  0  0  0
  4 10  2  0  0  0  0
  4 21  1  0  0  0  0
  5 11  1  0  0  0  0
  5 21  2  0  0  0  0
  6 23  1  0  0  0  0
  7 25  1  0  0  0  0
  8 12  2  0  0  0  0
  8 24  1  0  0  0  0
  9 27  1  0  0  0  0
 10 31  1  0  0  0  0
 11 31  2  0  0  0  0
 12 32  1  0  0  0  0
 13 14  2  0  0  0  0
 13 33  1  0  0  0  0
 14 34  1  0  0  0  0
 15 37  2  0  0  0  0
 16 26  1  0  0  0  0
 16 32  2  0  0  0  0
 17 28  2  0  0  0  0
 17 29  1  0  0  0  0
 18 30  2  0  0  0  0
 18 35  1  0  0  0  0
 19 27  2  0  0  0  0
 19 37  1  0  0  0  0
 20 34  2  0  0  0  0
 20 36  1  0  0  0  0
 21 38  1  0  0  0  0
 22 38  1  0  0  0  0
 22 39  2  0  0  0  0
 22 41  1  0  0  0  0
 23 25  2  0  0  0  0
 23 46  1  0  0  0  0
 24 26  2  0  0  0  0
 24 47  1  0  0  0  0
 25 58  1  0  0  0  0
 26 48  1  0  0  0  0
 27 69  1  0  0  0  0
 28 30  1  0  0  0  0
 28 62  1  0  0  0  0
 29 35  2  0  0  0  0
 29 68  1  0  0  0  0
 30 70  1  0  0  0  0
 31 92  1  0  0  0  0
 32 93  1  0  0  0  0
 33 36  2  0  0  0  0
 33 92  1  0  0  0  0
 34 94  1  0  0  0  0
 35 95  1  0  0  0  0
 36 96  1  0  0  0  0
 37 97  1  0  0  0  0
 38 75  2  0  0  0  0
 39 76  1  0  0  0  0
 39 80  1  0  0  0  0
 40 59  1  0  0  0  0
 40 77  1  0  0  0  0
 40 86  2  0  0  0  0
 41 81  1  0  0  0  0
 41 87  2  0  0  0  0
 42 60  1  0  0  0  0
 42 82  1  0  0  0  0
 42 88  2  0  0  0  0
 43 72  1  0  0  0  0
 43 78  1  0  0  0  0
 43 89  2  0  0  0  0
 44 73  1  0  0  0  0
 44 83  1  0  0  0  0
 44 90  2  0  0  0  0
 45 79  1  0  0  0  0
 45 84  1  0  0  0  0
 45 91  2  0  0  0  0
 46 49  1  0  0  0  0
 47 60  1  0  0  0  0
 48 78  1  0  0  0  0
 49 52  1  0  0  0  0
 50 53  1  0  0  0  0
 50 55  1  0  0  0  0
 51 54  1  0  0  0  0
 51 56  1  0  0  0  0
 52 58  1  0  0  0  0
 53 59  1  0  0  0  0
 54 61  1  0  0  0  0
 55 77  1  0  0  0  0
 56 79  1  0  0  0  0
 57 61  1  0  0  0  0
 57 79  1  0  0  0  0
 58 82  1  0  0  0  0
 59 71  1  0  0  0  0
 60 78  1  0  0  0  0
 61 76  1  0  0  0  0
 63 73  1  0  0  0  0
 64 74  1  0  0  0  0
 65 74  1  0  0  0  0
 66 74  1  0  0  0  0
 67 85  1  0  0  0  0
 68 77  1  0  0  0  0
 69 84  1  0  0  0  0
 70 84  1  0  0  0  0
 71 93  1  0  0  0  0
 72 74  1  0  0  0  0
 72 83  1  0  0  0  0
 73 85  1  0  0  0  0
 75 76  1  0  0  0  0
M  CHG  1  85   1
M  ISO  4  45 100  71 101  84 100  93 101
M  END
> <Batch ID>
0049

> <Smiles>
CNC(C)C(=O)NC(C(=O)N1Cc2cc([101O:1][101CH2:1]C3CCCN(Cc4cc(C)c(C[100N:0](Cc5cccc(Cl)c5)[100C:0](=O)N5CCCC(n6nc(-c7ccc(Oc8ccc(F)cc8F)cc7)c(C(N)=O)c6N)C5)cc4F)C3=O)ccc2CC1C(=O)NC1CCCc2ccccc21)C(C)(C)C

> <Shape>
0.183

> <Color>
0.046

> <Negative vol penalty>
0.000

$$$$

  -OEChem-04042322323D

 88 97  0     1  0  0  0  0  0999 V2000
  -31.5264  -33.1576   18.9766 C   0  0  0  0  0  0  0  0  0  0  0  0
  -30.9805  -31.8817   19.0742 C   0  0  0  0  0  0  0  0  0  0  0  0
  -22.7659  -10.2742   20.3653 C   0  0  0  0  0  0  0  0  0  0  0  0
  -24.5526   -9.0730   21.4616 C   0  0  0  0  0  0  0  0  0  0  0  0
  -31.2333  -34.1159   19.9460 C   0  0  0  0  0  0  0  0  0  0  0  0
  -30.1420  -31.5631   20.1418 C   0  0  0  0  0  0  0  0  0  0  0  0
  -26.0147  -29.0196   18.6785 C   0  0  0  0  0  0  0  0  0  0  0  0
  -21.8414   -9.6884   21.2300 C   0  0  0  0  0  0  0  0  0  0  0  0
  -23.6281   -8.4872   22.3263 C   0  0  0  0  0  0  0  0  0  0  0  0
  -26.1681  -27.6615   18.4030 C   0  0  0  0  0  0  0  0  0  0  0  0
  -21.3825   -5.9614   22.2332 C   0  0  0  0  0  0  0  0  0  0  0  0
  -21.4950   -4.5916   22.4708 C   0  0  0  0  0  0  0  0  0  0  0  0
  -25.2749  -27.1255   20.5788 C   0  0  0  0  0  0  0  0  0  0  0  0
  -27.5252  -19.4505   22.2549 C   0  0  0  0  0  0  0  0  0  0  0  0
  -21.8093   -5.0262   24.8266 C   0  0  0  0  0  0  0  0  0  0  0  0
  -24.1215   -9.9665   20.4810 C   0  0  0  0  0  0  0  0  0  0  0  0
  -25.1113  -10.4683   18.1841 C   0  0  0  0  0  0  0  0  0  0  0  0
  -30.3831  -33.8118   21.0208 C   0  0  0  0  0  0  0  0  0  0  0  0
  -25.4996  -29.4418   19.9125 C   0  0  0  0  0  0  0  0  0  0  0  0
  -29.8383  -32.5178   21.1271 C   0  0  0  0  0  0  0  0  0  0  0  0
  -25.1137  -28.4894   20.8665 C   0  0  0  0  0  0  0  0  0  0  0  0
  -26.5849  -20.1830   21.5304 C   0  0  0  0  0  0  0  0  0  0  0  0
  -26.0543  -19.6626   20.3501 C   0  0  0  0  0  0  0  0  0  0  0  0
  -27.4045  -17.6771   20.6185 C   0  0  0  0  0  0  0  0  0  0  0  0
  -22.2725   -8.7949   22.2105 C   0  0  0  0  0  0  0  0  0  0  0  0
  -25.8009  -26.7143   19.3543 C   0  0  0  0  0  0  0  0  0  0  0  0
  -21.4834   -6.8637   23.2922 C   0  0  0  0  0  0  0  0  0  0  0  0
  -21.7084   -4.1240   23.7675 C   0  0  0  0  0  0  0  0  0  0  0  0
  -21.6968   -6.3960   24.5889 C   0  0  0  0  0  0  0  0  0  0  0  0
  -27.9350  -18.1975   21.7989 C   0  0  0  0  0  0  0  0  0  0  0  0
  -26.4641  -18.4096   19.8941 C   0  0  0  0  0  0  0  0  0  0  0  0
  -25.0769  -10.5708   19.5877 C   0  0  0  0  0  0  0  0  0  0  0  0
  -26.2013  -11.2166   17.8118 C   0  0  0  0  0  0  0  0  0  0  0  0
  -25.9738  -23.5698   20.6403 C   0  0  0  0  0  0  0  0  0  0  0  0
  -24.2363   -9.7601   17.2961 C   0  0  0  0  0  0  0  0  0  0  0  0
  -26.6103  -31.1813   22.3299 C   0  0  0  0  0  0  0  0  0  0  0  0
  -23.5780  -30.8674   23.4385 C   0  0  0  0  0  0  0  0  0  0  0  0
  -21.1034  -28.2491   23.6335 C   0  0  0  0  0  0  0  0  0  0  0  0
  -29.0662  -15.8020   20.3558 C   0  0  0  0  0  0  0  0  0  0  0  0
  -30.1332  -34.8664   22.0696 C   0  0  0  0  0  0  0  0  0  0  0  0
  -25.3155  -30.9097   20.1839 C   0  0  0  0  0  0  0  0  0  0  0  0
  -24.5367  -28.8902   22.1988 C   0  0  0  0  0  0  0  0  0  0  0  0
  -28.9364  -34.5615   22.9669 C   0  0  0  0  0  0  0  0  0  0  0  0
  -28.8251  -23.1303   20.0091 C   0  0  0  0  0  0  0  0  0  0  0  0
  -30.4727  -12.6681   19.4190 C   0  0  0  0  0  0  0  0  0  0  0  0
  -28.9804  -33.1125   23.4415 C   0  0  0  0  0  0  0  0  0  0  0  0
  -27.9179  -24.0042   19.1449 C   0  0  0  0  0  0  0  0  0  0  0  0
  -29.2514  -11.7669   19.2223 C   0  0  0  0  0  0  0  0  0  0  0  0
  -28.2099  -22.7788   21.3608 C   0  0  0  0  0  0  0  0  0  0  0  0
  -30.2769  -13.6434   20.5784 C   0  0  0  0  0  0  0  0  0  0  0  0
  -27.8293  -13.5472   20.3155 C   0  0  0  0  0  0  0  0  0  0  0  0
  -28.9046  -32.1415   22.2570 C   0  0  1  0  0  0  0  0  0  0  0  0
  -26.7971  -24.6490   19.9501 C   0  0  1  0  0  0  0  0  0  1  0  0
  -25.2606  -31.2399   21.6723 C   0  0  1  0  0  0  0  0  0  0  0  0
  -27.9535  -12.5916   19.1176 C   0  0  2  0  0  0  0  0  0  0  0  0
  -25.0468  -20.4679   19.5887 C   0  0  0  0  0  0  0  0  0  0  0  0
  -18.5981  -28.3742   23.7067 C   0  0  0  0  0  0  0  0  0  0  0  0
  -23.9510  -30.7766   26.4655 C   0  0  0  0  0  0  0  0  0  0  0  0
  -21.9189  -29.3205   26.6023 C   0  0  0  0  0  0  0  0  0  0  0  0
  -21.7290  -31.6437   25.7137 C   0  0  0  0  0  0  0  0  0  0  0  0
  -20.8299  -26.4612   21.2910 C   0  0  0  0  0  0  0  0  0  0  0  0
  -26.1627  -21.5291   22.0442 C   0  0  0  0  0  0  0  0  0  0  0  0
  -22.8566  -29.8684   24.3106 C   0  0  1  0  0  0  0  0  0  0  0  0
  -19.8198  -28.1501   22.8292 C   0  0  2  0  0  0  0  0  0  0  0  0
  -22.6361  -30.3947   25.7569 C   0  0  0  0  0  0  0  0  0  0  0  0
  -26.0664  -11.3247   20.0741 N   0  0  0  0  0  0  0  0  0  0  0  0
  -26.7329  -11.7026   18.9700 N   0  0  0  0  0  0  0  0  0  0  0  0
  -26.7628  -22.6135   21.2853 N   0  0  0  0  0  0  0  0  0  0  0  0
  -24.3821  -30.3376   22.4194 N   0  0  0  0  0  0  0  0  0  0  0  0
  -29.0299  -14.3925   20.4093 N   0  0  0  0  0  0  0  0  0  0  0  0
  -26.7473  -11.4997   16.6101 N   0  0  0  0  0  0  0  0  0  0  0  0
  -23.1655   -9.0418   17.8454 N   0  0  0  0  0  0  0  0  0  0  0  0
  -27.8236  -16.4037   20.1596 N   0  0  0  0  0  0  0  0  0  0  0  0
  -27.5437  -32.0365   21.7759 N   0  0  0  0  0  0  0  0  0  0  0  0
  -21.6264  -29.5246   23.6058 N   0  0  0  0  0  0  0  0  0  0  0  0
  -19.7056  -26.8042   22.1994 N   0  3  0  0  0  0  0  0  0  0  0  0
  -24.7443  -23.5758   20.6226 O   0  0  0  0  0  0  0  0  0  0  0  0
  -24.4087   -9.7508   16.0537 O   0  0  0  0  0  0  0  0  0  0  0  0
  -26.7911  -30.4180   23.2713 O   0  0  0  0  0  0  0  0  0  0  0  0
  -23.4279  -32.0735   23.6491 O   0  0  0  0  0  0  0  0  0  0  0  0
  -21.5912  -27.2917   24.2301 O   0  0  0  0  0  0  0  0  0  0  0  0
  -30.1253  -16.4279   20.4479 O   0  0  0  0  0  0  0  0  0  0  0  0
  -21.3707   -8.2233   23.0547 O   0  0  0  0  0  0  0  0  0  0  0  0
  -25.9501  -25.3881   19.0883 O   0  0  0  0  0  0  0  0  0  1  0  0
  -21.8149   -2.8084   23.9959 F   0  0  0  0  0  0  0  0  0  0  0  0
  -21.7934   -7.2579   25.6105 F   0  0  0  0  0  0  0  0  0  0  0  0
  -29.1024  -17.3290   22.7319 Cl  0  0  0  0  0  0  0  0  0  0  0  0
  -25.7992  -17.7696   18.4242 Cl  0  0  0  0  0  0  0  0  0  0  0  0
  1  2  1  0  0  0  0
  1  5  2  0  0  0  0
  2  6  2  0  0  0  0
  3  8  2  0  0  0  0
  3 16  1  0  0  0  0
  4  9  1  0  0  0  0
  4 16  2  0  0  0  0
  5 18  1  0  0  0  0
  6 20  1  0  0  0  0
  7 10  2  0  0  0  0
  7 19  1  0  0  0  0
  8 25  1  0  0  0  0
  9 25  2  0  0  0  0
 10 26  1  0  0  0  0
 11 12  2  0  0  0  0
 11 27  1  0  0  0  0
 12 28  1  0  0  0  0
 13 21  1  0  0  0  0
 13 26  2  0  0  0  0
 14 22  1  0  0  0  0
 14 30  2  0  0  0  0
 15 28  2  0  0  0  0
 15 29  1  0  0  0  0
 16 32  1  0  0  0  0
 17 32  1  0  0  0  0
 17 33  2  0  0  0  0
 17 35  1  0  0  0  0
 18 20  2  0  0  0  0
 18 40  1  0  0  0  0
 19 21  2  0  0  0  0
 19 41  1  0  0  0  0
 20 52  1  0  0  0  0
 21 42  1  0  0  0  0
 22 23  2  0  0  0  0
 22 62  1  0  0  0  0
 23 31  1  0  0  0  0
 23 56  1  0  0  0  0
 24 30  1  0  0  0  0
 24 31  2  0  0  0  0
 24 73  1  0  0  0  0
 25 83  1  0  0  0  0
 26 84  1  0  0  0  0
 27 29  2  0  0  0  0
 27 83  1  0  0  0  0
 28 85  1  0  0  0  0
 29 86  1  0  0  0  0
 30 87  1  0  0  0  0
 31 88  1  0  0  0  0
 32 66  2  0  0  0  0
 33 67  1  0  0  0  0
 33 71  1  0  0  0  0
 34 53  1  0  0  0  0
 34 68  1  0  0  0  0
 34 77  2  0  0  0  0
 35 72  1  0  0  0  0
 35 78  2  0  0  0  0
 36 54  1  0  0  0  0
 36 74  1  0  0  0  0
 36 79  2  0  0  0  0
 37 63  1  0  0  0  0
 37 69  1  0  0  0  0
 37 80  2  0  0  0  0
 38 64  1  0  0  0  0
 38 75  1  0  0  0  0
 38 81  2  0  0  0  0
 39 70  1  0  0  0  0
 39 73  1  0  0  0  0
 39 82  2  0  0  0  0
 40 43  1  0  0  0  0
 41 54  1  0  0  0  0
 42 69  1  0  0  0  0
 43 46  1  0  0  0  0
 44 47  1  0  0  0  0
 44 49  1  0  0  0  0
 45 48  1  0  0  0  0
 45 50  1  0  0  0  0
 46 52  1  0  0  0  0
 47 53  1  0  0  0  0
 48 55  1  0  0  0  0
 49 68  1  0  0  0  0
 50 70  1  0  0  0  0
 51 55  1  0  0  0  0
 51 70  1  0  0  0  0
 52 74  1  0  0  0  0
 53 84  1  0  0  0  0
 54 69  1  0  0  0  0
 55 67  1  0  0  0  0
 57 64  1  0  0  0  0
 58 65  1  0  0  0  0
 59 65  1  0  0  0  0
 60 65  1  0  0  0  0
 61 76  1  0  0  0  0
 62 68  1  0  0  0  0
 63 65  1  0  0  0  0
 63 75  1  0  0  0  0
 64 76  1  0  0  0  0
 66 67  1  0  0  0  0
M  CHG  1  76   1
M  ISO  4  39 100  53 101  73 100  84 101
M  END
> <Batch ID>
0049

> <Smiles>
CNC(C)C(=O)NC(C(=O)N1Cc2cc([101O:1][101CH:1]3CCCN(Cc4cc(Cl)c([100NH:0][100C:0](=O)N5CCCC(n6nc(-c7ccc(Oc8ccc(F)cc8F)cc7)c(C(N)=O)c6N)C5)c(Cl)c4C)C3=O)ccc2CC1C(=O)NC1CCCc2ccccc21)C(C)(C)C

> <Shape>
0.280

> <Color>
0.124

> <Negative vol penalty>
0.000

$$$$

  -OEChem-04042322323D

 86 94  0     1  0  0  0  0  0999 V2000
  -22.6821  -32.4986   14.5024 C   0  0  0  0  0  0  0  0  0  0  0  0
  -23.7612  -31.8199   15.0595 C   0  0  0  0  0  0  0  0  0  0  0  0
  -23.4368   -9.9076   23.1048 C   0  0  0  0  0  0  0  0  0  0  0  0
  -23.8420   -9.9821   20.7242 C   0  0  0  0  0  0  0  0  0  0  0  0
  -22.0215  -33.4802   15.2398 C   0  0  0  0  0  0  0  0  0  0  0  0
  -24.1810  -32.1233   16.3541 C   0  0  0  0  0  0  0  0  0  0  0  0
  -25.1140  -27.9816   19.1147 C   0  0  0  0  0  0  0  0  0  0  0  0
  -31.3098  -19.6081   19.2189 C   0  0  0  0  0  0  0  0  0  0  0  0
  -30.6841  -18.7405   18.3237 C   0  0  0  0  0  0  0  0  0  0  0  0
  -22.5678   -8.8318   22.9233 C   0  0  0  0  0  0  0  0  0  0  0  0
  -22.9731   -8.9062   20.5427 C   0  0  0  0  0  0  0  0  0  0  0  0
  -26.3209  -27.3223   18.8856 C   0  0  0  0  0  0  0  0  0  0  0  0
  -22.8042   -5.4989   22.4046 C   0  0  0  0  0  0  0  0  0  0  0  0
  -22.9225   -4.4159   23.2756 C   0  0  0  0  0  0  0  0  0  0  0  0
  -27.2642  -28.3840   20.8355 C   0  0  0  0  0  0  0  0  0  0  0  0
  -20.6413   -4.7481   23.9985 C   0  0  0  0  0  0  0  0  0  0  0  0
  -24.0739  -10.4829   22.0053 C   0  0  0  0  0  0  0  0  0  0  0  0
  -26.3582  -11.5375   22.4262 C   0  0  0  0  0  0  0  0  0  0  0  0
  -22.4274  -33.7891   16.5477 C   0  0  0  0  0  0  0  0  0  0  0  0
  -24.9764  -28.8570   20.2015 C   0  0  0  0  0  0  0  0  0  0  0  0
  -23.5261  -33.1110   17.1093 C   0  0  0  0  0  0  0  0  0  0  0  0
  -26.0537  -29.0512   21.0777 C   0  0  0  0  0  0  0  0  0  0  0  0
  -30.7766  -19.7987   20.4936 C   0  0  0  0  0  0  0  0  0  0  0  0
  -29.5250  -18.0637   18.7032 C   0  0  0  0  0  0  0  0  0  0  0  0
  -29.6175  -19.1219   20.8732 C   0  0  0  0  0  0  0  0  0  0  0  0
  -28.9917  -18.2543   19.9780 C   0  0  0  0  0  0  0  0  0  0  0  0
  -22.3360   -8.3310   21.6422 C   0  0  0  0  0  0  0  0  0  0  0  0
  -27.3971  -27.5256   19.7444 C   0  0  0  0  0  0  0  0  0  0  0  0
  -21.6044   -6.2066   22.3306 C   0  0  0  0  0  0  0  0  0  0  0  0
  -21.8411   -4.0405   24.0726 C   0  0  0  0  0  0  0  0  0  0  0  0
  -20.5230   -5.8312   23.1275 C   0  0  0  0  0  0  0  0  0  0  0  0
  -24.9713  -11.5946   22.1921 C   0  0  0  0  0  0  0  0  0  0  0  0
  -26.7430  -12.8518   22.5320 C   0  0  0  0  0  0  0  0  0  0  0  0
  -30.1278  -24.2347   21.0730 C   0  0  0  0  0  0  0  0  0  0  0  0
  -30.2014  -25.3700   20.3650 C   0  0  0  0  0  0  0  0  0  0  0  0
  -27.2217  -10.3984   22.5380 C   0  0  0  0  0  0  0  0  0  0  0  0
  -30.9864  -23.0707   20.7197 C   0  0  0  0  0  0  0  0  0  0  0  0
  -24.3637  -31.9598   20.5190 C   0  0  0  0  0  0  0  0  0  0  0  0
  -24.2745  -31.2214   23.6764 C   0  0  0  0  0  0  0  0  0  0  0  0
  -25.2340  -29.1202   26.1886 C   0  0  0  0  0  0  0  0  0  0  0  0
  -26.5991  -18.1271   20.7563 C   0  0  0  0  0  0  0  0  0  0  0  0
  -21.7122  -34.8910   17.2886 C   0  0  0  0  0  0  0  0  0  0  0  0
  -23.6595  -29.5400   20.4503 C   0  0  0  0  0  0  0  0  0  0  0  0
  -25.9510  -29.9651   22.2705 C   0  0  0  0  0  0  0  0  0  0  0  0
  -21.9833  -34.8906   18.7909 C   0  0  0  0  0  0  0  0  0  0  0  0
  -23.9764  -17.0727   22.9212 C   0  0  0  0  0  0  0  0  0  0  0  0
  -23.4755  -34.7304   19.0639 C   0  0  0  0  0  0  0  0  0  0  0  0
  -24.1155  -15.5488   22.9438 C   0  0  0  0  0  0  0  0  0  0  0  0
  -24.2905  -17.6505   21.5424 C   0  0  0  0  0  0  0  0  0  0  0  0
  -25.7238  -15.7211   21.0019 C   0  0  0  0  0  0  0  0  0  0  0  0
  -23.9957  -33.3945   18.5197 C   0  0  1  0  0  0  0  0  0  0  0  0
  -23.7923  -30.8052   21.2923 C   0  0  1  0  0  0  0  0  0  0  0  0
  -25.4805  -15.0992   22.3867 C   0  0  2  0  0  0  0  0  0  0  0  0
  -28.8773  -17.1413   17.7216 C   0  0  0  0  0  0  0  0  0  0  0  0
  -29.0501  -19.3323   22.2422 C   0  0  0  0  0  0  0  0  0  0  0  0
  -25.0372  -28.7968   28.6693 C   0  0  0  0  0  0  0  0  0  0  0  0
  -26.3174  -33.4429   24.1255 C   0  0  0  0  0  0  0  0  0  0  0  0
  -26.7826  -32.4635   26.3822 C   0  0  0  0  0  0  0  0  0  0  0  0
  -24.5053  -33.3287   25.8453 C   0  0  0  0  0  0  0  0  0  0  0  0
  -23.8760  -26.5114   25.8578 C   0  0  0  0  0  0  0  0  0  0  0  0
  -31.4703  -20.7384   21.4370 C   0  0  0  0  0  0  0  0  0  0  0  0
  -29.3746  -26.5784   20.6655 C   0  0  0  0  0  0  0  0  0  1  0  0
  -25.2911  -31.1692   24.7912 C   0  0  1  0  0  0  0  0  0  0  0  0
  -24.4469  -28.4632   27.3081 C   0  0  2  0  0  0  0  0  0  0  0  0
  -25.7270  -32.5853   25.2626 C   0  0  0  0  0  0  0  0  0  0  0  0
  -24.5062  -12.8461   22.1516 N   0  0  0  0  0  0  0  0  0  0  0  0
  -25.6072  -13.5875   22.3618 N   0  0  0  0  0  0  0  0  0  0  0  0
  -24.6447  -30.6150   22.4677 N   0  0  0  0  0  0  0  0  0  0  0  0
  -25.6001  -17.1851   21.0809 N   0  0  0  0  0  0  0  0  0  0  0  0
  -27.9386  -13.4383   22.7531 N   0  0  0  0  0  0  0  0  0  0  0  0
  -26.6623   -9.1203   22.4036 N   0  0  0  0  0  0  0  0  0  0  0  0
  -27.8134  -17.5668   20.3610 N   0  0  0  0  0  0  0  0  0  0  0  0
  -30.7668  -21.9952   21.5635 N   0  0  0  0  0  0  0  0  0  0  0  0
  -23.6262  -32.3102   19.4041 N   0  0  0  0  0  0  0  0  0  0  0  0
  -24.7033  -30.3445   25.8414 N   0  0  0  0  0  0  0  0  0  0  0  0
  -24.4511  -26.9820   27.1442 N   0  3  0  0  0  0  0  0  0  0  0  0
  -28.4499  -10.5100   22.7671 O   0  0  0  0  0  0  0  0  0  0  0  0
  -31.7804  -23.0972   19.7851 O   0  0  0  0  0  0  0  0  0  0  0  0
  -25.3963  -32.4943   20.9060 O   0  0  0  0  0  0  0  0  0  0  0  0
  -23.1891  -31.7735   23.8731 O   0  0  0  0  0  0  0  0  0  0  0  0
  -26.2231  -28.6009   25.6761 O   0  0  0  0  0  0  0  0  0  0  0  0
  -26.4013  -19.3412   20.8502 O   0  0  0  0  0  0  0  0  0  0  0  0
  -21.4883   -7.2811   21.4647 O   0  0  0  0  0  0  0  0  0  0  0  0
  -28.5764  -26.8838   19.5227 O   0  0  0  0  0  0  0  0  0  1  0  0
  -21.9544   -2.9995   24.9078 F   0  0  0  0  0  0  0  0  0  0  0  0
  -19.3674   -6.5064   23.0599 F   0  0  0  0  0  0  0  0  0  0  0  0
  1  2  1  0  0  0  0
  1  5  2  0  0  0  0
  2  6  2  0  0  0  0
  3 10  2  0  0  0  0
  3 17  1  0  0  0  0
  4 11  1  0  0  0  0
  4 17  2  0  0  0  0
  5 19  1  0  0  0  0
  6 21  1  0  0  0  0
  7 12  2  0  0  0  0
  7 20  1  0  0  0  0
  8  9  2  0  0  0  0
  8 23  1  0  0  0  0
  9 24  1  0  0  0  0
 10 27  1  0  0  0  0
 11 27  2  0  0  0  0
 12 28  1  0  0  0  0
 13 14  2  0  0  0  0
 13 29  1  0  0  0  0
 14 30  1  0  0  0  0
 15 22  1  0  0  0  0
 15 28  2  0  0  0  0
 16 30  2  0  0  0  0
 16 31  1  0  0  0  0
 17 32  1  0  0  0  0
 18 32  1  0  0  0  0
 18 33  2  0  0  0  0
 18 36  1  0  0  0  0
 19 21  2  0  0  0  0
 19 42  1  0  0  0  0
 20 22  2  0  0  0  0
 20 43  1  0  0  0  0
 21 51  1  0  0  0  0
 22 44  1  0  0  0  0
 23 25  2  0  0  0  0
 23 61  1  0  0  0  0
 24 26  2  0  0  0  0
 24 54  1  0  0  0  0
 25 26  1  0  0  0  0
 25 55  1  0  0  0  0
 26 72  1  0  0  0  0
 27 83  1  0  0  0  0
 28 84  1  0  0  0  0
 29 31  2  0  0  0  0
 29 83  1  0  0  0  0
 30 85  1  0  0  0  0
 31 86  1  0  0  0  0
 32 66  2  0  0  0  0
 33 67  1  0  0  0  0
 33 70  1  0  0  0  0
 34 35  2  0  0  0  0
 34 37  1  0  0  0  0
 35 62  1  0  0  0  0
 36 71  1  0  0  0  0
 36 77  2  0  0  0  0
 37 73  1  0  0  0  0
 37 78  2  0  0  0  0
 38 52  1  0  0  0  0
 38 74  1  0  0  0  0
 38 79  2  0  0  0  0
 39 63  1  0  0  0  0
 39 68  1  0  0  0  0
 39 80  2  0  0  0  0
 40 64  1  0  0  0  0
 40 75  1  0  0  0  0
 40 81  2  0  0  0  0
 41 69  1  0  0  0  0
 41 72  1  0  0  0  0
 41 82  2  0  0  0  0
 42 45  1  0  0  0  0
 43 52  1  0  0  0  0
 44 68  1  0  0  0  0
 45 47  1  0  0  0  0
 46 48  1  0  0  0  0
 46 49  1  0  0  0  0
 47 51  1  0  0  0  0
 48 53  1  0  0  0  0
 49 69  1  0  0  0  0
 50 53  1  0  0  0  0
 50 69  1  0  0  0  0
 51 74  1  0  0  0  0
 52 68  1  0  0  0  0
 53 67  1  0  0  0  0
 56 64  1  0  0  0  0
 57 65  1  0  0  0  0
 58 65  1  0  0  0  0
 59 65  1  0  0  0  0
 60 76  1  0  0  0  0
 61 73  1  0  0  0  0
 62 84  1  0  0  0  0
 63 65  1  0  0  0  0
 63 75  1  0  0  0  0
 64 76  1  0  0  0  0
 66 67  1  0  0  0  0
M  CHG  1  76   1
M  ISO  4  41 100  62 101  72 100  84 101
M  END
> <Batch ID>
0049

> <Smiles>
CNC(C)C(=O)NC(C(=O)N1Cc2cc([101O:1][101CH2:1]C=CC(=O)NCc3ccc(C)c([100NH:0][100C:0](=O)N4CCCC(n5nc(-c6ccc(Oc7ccc(F)cc7F)cc6)c(C(N)=O)c5N)C4)c3C)ccc2CC1C(=O)NC1CCCc2ccccc21)C(C)(C)C

> <Shape>
0.255

> <Color>
0.114

> <Negative vol penalty>
0.000

$$$$

  -OEChem-04042322323D

 90 99  0     1  0  0  0  0  0999 V2000
  -31.6064  -29.9449   12.1020 C   0  0  0  0  0  0  0  0  0  0  0  0
  -31.8103  -28.5699   12.0462 C   0  0  0  0  0  0  0  0  0  0  0  0
  -22.8603  -10.0402   20.2045 C   0  0  0  0  0  0  0  0  0  0  0  0
  -24.1987   -9.7132   22.1892 C   0  0  0  0  0  0  0  0  0  0  0  0
  -31.8092  -30.6305   13.2990 C   0  0  0  0  0  0  0  0  0  0  0  0
  -32.2182  -27.8798   13.1872 C   0  0  0  0  0  0  0  0  0  0  0  0
  -29.6424  -23.5749   13.8786 C   0  0  0  0  0  0  0  0  0  0  0  0
  -29.5722  -15.2894   12.8168 C   0  0  0  0  0  0  0  0  0  0  0  0
  -29.3748  -14.7638   14.0937 C   0  0  0  0  0  0  0  0  0  0  0  0
  -22.1500   -8.8745   20.4914 C   0  0  0  0  0  0  0  0  0  0  0  0
  -23.4883   -8.5475   22.4762 C   0  0  0  0  0  0  0  0  0  0  0  0
  -30.0082  -22.4812   13.0952 C   0  0  0  0  0  0  0  0  0  0  0  0
  -23.4483   -5.3330   21.4292 C   0  0  0  0  0  0  0  0  0  0  0  0
  -24.1774   -4.2078   21.8138 C   0  0  0  0  0  0  0  0  0  0  0  0
  -31.2737  -21.5876   14.9443 C   0  0  0  0  0  0  0  0  0  0  0  0
  -29.1436  -17.5107   13.6649 C   0  0  0  0  0  0  0  0  0  0  0  0
  -22.9990   -4.1650   23.9225 C   0  0  0  0  0  0  0  0  0  0  0  0
  -23.8847  -10.4595   21.0534 C   0  0  0  0  0  0  0  0  0  0  0  0
  -24.1020  -12.9671   20.6382 C   0  0  0  0  0  0  0  0  0  0  0  0
  -32.2104  -29.9470   14.4576 C   0  0  0  0  0  0  0  0  0  0  0  0
  -30.0992  -23.6888   15.1995 C   0  0  0  0  0  0  0  0  0  0  0  0
  -32.4278  -28.5571   14.4005 C   0  0  0  0  0  0  0  0  0  0  0  0
  -30.9102  -22.6824   15.7432 C   0  0  0  0  0  0  0  0  0  0  0  0
  -29.4566  -16.6629   12.6024 C   0  0  0  0  0  0  0  0  0  0  0  0
  -28.9462  -16.9851   14.9418 C   0  0  0  0  0  0  0  0  0  0  0  0
  -29.0618  -15.6116   15.1561 C   0  0  0  0  0  0  0  0  0  0  0  0
  -22.4640   -8.1282   21.6272 C   0  0  0  0  0  0  0  0  0  0  0  0
  -30.8264  -21.4888   13.6270 C   0  0  0  0  0  0  0  0  0  0  0  0
  -22.4945   -5.8742   22.2913 C   0  0  0  0  0  0  0  0  0  0  0  0
  -23.9528   -3.6238   23.0604 C   0  0  0  0  0  0  0  0  0  0  0  0
  -22.2699   -5.2902   23.5379 C   0  0  0  0  0  0  0  0  0  0  0  0
  -24.6192  -11.6632   20.7573 C   0  0  0  0  0  0  0  0  0  0  0  0
  -25.1965  -13.7458   20.3516 C   0  0  0  0  0  0  0  0  0  0  0  0
  -31.2389  -17.3446    9.3849 C   0  0  0  0  0  0  0  0  0  0  0  0
  -31.5964  -19.7189   10.8215 C   0  0  0  0  0  0  0  0  0  0  0  0
  -22.7528  -13.4327   20.7744 C   0  0  0  0  0  0  0  0  0  0  0  0
  -31.6273  -16.2378    8.7342 C   0  0  0  0  0  0  0  0  0  0  0  0
  -31.9047  -25.7762   16.7765 C   0  0  0  0  0  0  0  0  0  0  0  0
  -31.0657  -23.9740   19.3398 C   0  0  0  0  0  0  0  0  0  0  0  0
  -30.6932  -20.4629   20.0817 C   0  0  0  0  0  0  0  0  0  0  0  0
  -29.8527  -14.3239   17.1580 C   0  0  0  0  0  0  0  0  0  0  0  0
  -32.4626  -30.7383   15.7166 C   0  0  0  0  0  0  0  0  0  0  0  0
  -29.6738  -24.8613   16.0401 C   0  0  0  0  0  0  0  0  0  0  0  0
  -31.4107  -22.7474   17.1623 C   0  0  0  0  0  0  0  0  0  0  0  0
  -30.9594  -18.6537    8.6875 C   0  0  0  0  0  0  0  0  0  0  0  0
  -31.7473  -19.7942    9.3238 C   0  0  0  0  0  0  0  0  0  0  0  0
  -31.8949  -18.3940   11.4733 C   0  0  0  0  0  0  0  0  0  0  0  0
  -32.5325  -29.8760   16.9743 C   0  0  0  0  0  0  0  0  0  0  0  0
  -30.1363  -12.7221   20.4816 C   0  0  0  0  0  0  0  0  0  0  0  0
  -33.4169  -28.6561   16.7366 C   0  0  0  0  0  0  0  0  0  0  0  0
  -28.6922  -12.3366   20.7969 C   0  0  0  0  0  0  0  0  0  0  0  0
  -30.4020  -12.7425   18.9794 C   0  0  0  0  0  0  0  0  0  0  0  0
  -28.0143  -13.2357   18.5355 C   0  0  0  0  0  0  0  0  0  0  0  0
  -32.8464  -27.7696   15.6230 C   0  0  1  0  0  0  0  0  0  0  0  0
  -30.6171  -25.1329   17.2079 C   0  0  1  0  0  0  0  0  0  0  0  0
  -27.7104  -13.2472   20.0411 C   0  0  1  0  0  0  0  0  0  0  0  0
  -28.6089  -17.9165   16.0607 C   0  0  0  0  0  0  0  0  0  0  0  0
  -31.8984  -14.9495    9.4529 C   0  0  0  0  0  0  0  0  0  0  0  0
  -31.8161  -16.2179    7.2464 C   0  0  0  0  0  0  0  0  0  0  0  0
  -29.2465  -19.2962   21.7679 C   0  0  0  0  0  0  0  0  0  0  0  0
  -33.5345  -24.1168   21.1272 C   0  0  0  0  0  0  0  0  0  0  0  0
  -32.9668  -21.8306   21.9754 C   0  0  0  0  0  0  0  0  0  0  0  0
  -31.3859  -23.7244   22.3454 C   0  0  0  0  0  0  0  0  0  0  0  0
  -27.4985  -15.0042   16.9940 C   0  0  0  0  0  0  0  0  0  0  0  0
  -28.0833  -17.7104   19.6040 C   0  0  0  0  0  0  0  0  0  0  0  0
  -29.6666  -17.2278   11.2285 C   0  0  0  0  0  0  0  0  0  0  0  0
  -31.6381  -22.7559   20.0237 C   0  0  1  0  0  0  0  0  0  0  0  0
  -29.3920  -19.7161   20.3135 C   0  0  2  0  0  0  0  0  0  0  0  0
  -32.3851  -23.1115   21.3401 C   0  0  0  0  0  0  0  0  0  0  0  0
  -25.9396  -11.6124   20.5622 N   0  0  0  0  0  0  0  0  0  0  0  0
  -31.2531  -20.7622   11.5018 N   0  0  0  0  0  0  0  0  0  1  0  0
  -26.2613  -12.8941   20.3175 N   0  0  0  0  0  0  0  0  0  0  0  0
  -30.9724  -23.9168   17.9420 N   0  0  0  0  0  0  0  0  0  0  0  0
  -29.4236  -13.5651   18.2662 N   0  0  0  0  0  0  0  0  0  0  0  0
  -25.3424  -15.0691   20.1279 N   0  0  0  0  0  0  0  0  0  0  0  0
  -22.3090  -13.8331   22.0422 N   0  0  0  0  0  0  0  0  0  0  0  0
  -31.7395  -26.9816   16.1214 N   0  0  0  0  0  0  0  0  0  0  0  0
  -30.5273  -21.8266   20.1993 N   0  0  0  0  0  0  0  0  0  0  0  0
  -28.8614  -15.0484   16.4689 N   0  0  0  0  0  0  0  0  0  0  0  0
  -31.1145  -17.2704   10.8237 N   0  3  1  0  0  0  0  0  0  0  0  0
  -29.3382  -18.4931   19.4636 N   0  3  0  0  0  0  0  0  0  0  0  0
  -21.9591  -13.4765   19.8040 O   0  0  0  0  0  0  0  0  0  0  0  0
  -32.9692  -25.2208   17.0212 O   0  0  0  0  0  0  0  0  0  0  0  0
  -30.7078  -24.9379   20.0214 O   0  0  0  0  0  0  0  0  0  0  0  0
  -31.7517  -19.8931   19.8259 O   0  0  0  0  0  0  0  0  0  0  0  0
  -31.0286  -14.3135   16.7736 O   0  0  0  0  0  0  0  0  0  0  0  0
  -21.7709   -6.9909   21.9076 O   0  0  0  0  0  0  0  0  0  0  0  0
  -31.1854  -20.4205   12.8643 O   0  0  0  0  0  0  0  0  0  1  0  0
  -24.6520   -2.5424   23.4290 F   0  0  0  0  0  0  0  0  0  0  0  0
  -21.3541   -5.8049   24.3699 F   0  0  0  0  0  0  0  0  0  0  0  0
  1  2  1  0  0  0  0
  1  5  2  0  0  0  0
  2  6  2  0  0  0  0
  3 10  2  0  0  0  0
  3 18  1  0  0  0  0
  4 11  1  0  0  0  0
  4 18  2  0  0  0  0
  5 20  1  0  0  0  0
  6 22  1  0  0  0  0
  7 12  2  0  0  0  0
  7 21  1  0  0  0  0
  8  9  2  0  0  0  0
  8 24  1  0  0  0  0
  9 26  1  0  0  0  0
 10 27  1  0  0  0  0
 11 27  2  0  0  0  0
 12 28  1  0  0  0  0
 13 14  2  0  0  0  0
 13 29  1  0  0  0  0
 14 30  1  0  0  0  0
 15 23  1  0  0  0  0
 15 28  2  0  0  0  0
 16 24  2  0  0  0  0
 16 25  1  0  0  0  0
 17 30  2  0  0  0  0
 17 31  1  0  0  0  0
 18 32  1  0  0  0  0
 19 32  1  0  0  0  0
 19 33  2  0  0  0  0
 19 36  1  0  0  0  0
 20 22  2  0  0  0  0
 20 42  1  0  0  0  0
 21 23  2  0  0  0  0
 21 43  1  0  0  0  0
 22 54  1  0  0  0  0
 23 44  1  0  0  0  0
 24 66  1  0  0  0  0
 25 26  2  0  0  0  0
 25 57  1  0  0  0  0
 26 79  1  0  0  0  0
 27 87  1  0  0  0  0
 28 88  1  0  0  0  0
 29 31  2  0  0  0  0
 29 87  1  0  0  0  0
 30 89  1  0  0  0  0
 31 90  1  0  0  0  0
 32 70  2  0  0  0  0
 33 72  1  0  0  0  0
 33 75  1  0  0  0  0
 34 37  2  0  0  0  0
 34 45  1  0  0  0  0
 34 80  1  0  0  0  0
 35 46  1  0  0  0  0
 35 47  1  0  0  0  0
 35 71  2  0  0  0  0
 36 76  1  0  0  0  0
 36 82  2  0  0  0  0
 37 58  1  0  0  0  0
 37 59  1  0  0  0  0
 38 55  1  0  0  0  0
 38 77  1  0  0  0  0
 38 83  2  0  0  0  0
 39 67  1  0  0  0  0
 39 73  1  0  0  0  0
 39 84  2  0  0  0  0
 40 68  1  0  0  0  0
 40 78  1  0  0  0  0
 40 85  2  0  0  0  0
 41 74  1  0  0  0  0
 41 79  1  0  0  0  0
 41 86  2  0  0  0  0
 42 48  1  0  0  0  0
 43 55  1  0  0  0  0
 44 73  1  0  0  0  0
 45 46  1  0  0  0  0
 47 80  1  0  0  0  0
 48 50  1  0  0  0  0
 49 51  1  0  0  0  0
 49 52  1  0  0  0  0
 50 54  1  0  0  0  0
 51 56  1  0  0  0  0
 52 74  1  0  0  0  0
 53 56  1  0  0  0  0
 53 74  1  0  0  0  0
 54 77  1  0  0  0  0
 55 73  1  0  0  0  0
 56 72  1  0  0  0  0
 60 68  1  0  0  0  0
 61 69  1  0  0  0  0
 62 69  1  0  0  0  0
 63 69  1  0  0  0  0
 64 79  1  0  0  0  0
 65 81  1  0  0  0  0
 66 80  1  0  0  0  0
 67 69  1  0  0  0  0
 67 78  1  0  0  0  0
 68 81  1  0  0  0  0
 70 72  1  0  0  0  0
 71 88  1  0  0  0  0
M  CHG  2  80   1  81   1
M  ISO  4  41 100  71 101  79 100  88 101
M  END
> <Batch ID>
0049

> <Smiles>
CNC(C)C(=O)NC(C(=O)N1Cc2cc([101O:1][101N:1]=C3CCC(=C(C)C)N(Cc4ccc([100N:0](C)[100C:0](=O)N5CCCC(n6nc(-c7ccc(Oc8ccc(F)cc8F)cc7)c(C(N)=O)c6N)C5)c(C)c4)C3)ccc2CC1C(=O)NC1CCCc2ccccc21)C(C)(C)C

> <Shape>
0.193

> <Color>
0.154

> <Negative vol penalty>
0.000

$$$$

  -OEChem-04042322323D

 85 93  0     1  0  0  0  0  0999 V2000
  -20.8378  -13.9048   19.4747 C   0  0  0  0  0  0  0  0  0  0  0  0
  -21.3752  -15.1674   19.2454 C   0  0  0  0  0  0  0  0  0  0  0  0
  -17.9651  -21.8749   20.0279 C   0  0  0  0  0  0  0  0  0  0  0  0
  -20.2611  -22.1245   19.3185 C   0  0  0  0  0  0  0  0  0  0  0  0
  -21.5025  -13.0065   20.3083 C   0  0  0  0  0  0  0  0  0  0  0  0
  -22.5771  -15.5328   19.8507 C   0  0  0  0  0  0  0  0  0  0  0  0
  -26.9438  -19.1222   17.4940 C   0  0  0  0  0  0  0  0  0  0  0  0
  -25.5293  -28.9048   21.5962 C   0  0  0  0  0  0  0  0  0  0  0  0
  -17.7027  -21.0924   18.9035 C   0  0  0  0  0  0  0  0  0  0  0  0
  -19.9987  -21.3419   18.1940 C   0  0  0  0  0  0  0  0  0  0  0  0
  -27.2428  -20.4728   17.6677 C   0  0  0  0  0  0  0  0  0  0  0  0
  -17.1028  -21.5821   15.6134 C   0  0  0  0  0  0  0  0  0  0  0  0
  -15.9346  -21.8470   14.8987 C   0  0  0  0  0  0  0  0  0  0  0  0
  -26.6236  -28.2084   21.0834 C   0  0  0  0  0  0  0  0  0  0  0  0
  -28.8796  -19.8891   19.3408 C   0  0  0  0  0  0  0  0  0  0  0  0
  -24.5132  -28.9222   19.4043 C   0  0  0  0  0  0  0  0  0  0  0  0
  -15.1685  -19.5940   15.3161 C   0  0  0  0  0  0  0  0  0  0  0  0
  -19.2443  -22.3910   20.2354 C   0  0  0  0  0  0  0  0  0  0  0  0
  -19.9542  -22.7558   22.6583 C   0  0  0  0  0  0  0  0  0  0  0  0
  -22.7181  -13.3575   20.9164 C   0  0  0  0  0  0  0  0  0  0  0  0
  -27.6038  -18.1439   18.2515 C   0  0  0  0  0  0  0  0  0  0  0  0
  -23.2580  -14.6387   20.6943 C   0  0  0  0  0  0  0  0  0  0  0  0
  -28.5890  -18.5265   19.1730 C   0  0  0  0  0  0  0  0  0  0  0  0
  -24.4740  -29.2617   20.7566 C   0  0  0  0  0  0  0  0  0  0  0  0
  -25.6076  -28.2258   18.8914 C   0  0  0  0  0  0  0  0  0  0  0  0
  -18.7195  -20.8259   17.9866 C   0  0  0  0  0  0  0  0  0  0  0  0
  -28.2088  -20.8566   18.5932 C   0  0  0  0  0  0  0  0  0  0  0  0
  -17.3039  -20.3232   16.1794 C   0  0  0  0  0  0  0  0  0  0  0  0
  -14.9675  -20.8529   14.7501 C   0  0  0  0  0  0  0  0  0  0  0  0
  -16.3368  -19.3291   16.0308 C   0  0  0  0  0  0  0  0  0  0  0  0
  -26.6628  -27.8689   19.7310 C   0  0  0  0  0  0  0  0  0  0  0  0
  -19.5158  -23.1999   21.3965 C   0  0  0  0  0  0  0  0  0  0  0  0
  -20.0619  -23.9020   23.4074 C   0  0  0  0  0  0  0  0  0  0  0  0
  -28.2236  -24.5002   18.2918 C   0  0  0  0  0  0  0  0  0  0  0  0
  -27.4014  -25.4334   18.7843 C   0  0  0  0  0  0  0  0  0  0  0  0
  -20.2387  -21.4260   23.1128 C   0  0  0  0  0  0  0  0  0  0  0  0
  -26.6949  -15.9565   20.3711 C   0  0  0  0  0  0  0  0  0  0  0  0
  -29.8001  -15.0396   20.1743 C   0  0  0  0  0  0  0  0  0  0  0  0
  -33.0273  -15.8759   19.4444 C   0  0  0  0  0  0  0  0  0  0  0  0
  -20.9391  -29.6470   21.9666 C   0  0  0  0  0  0  0  0  0  0  0  0
  -23.3760  -12.3699   21.8472 C   0  0  0  0  0  0  0  0  0  0  0  0
  -27.2888  -16.6894   18.0332 C   0  0  0  0  0  0  0  0  0  0  0  0
  -29.3407  -17.5140   19.9965 C   0  0  0  0  0  0  0  0  0  0  0  0
  -24.8351  -12.6991   22.1522 C   0  0  0  0  0  0  0  0  0  0  0  0
  -18.2130  -28.2958   23.8158 C   0  0  0  0  0  0  0  0  0  0  0  0
  -24.9885  -14.1778   22.4940 C   0  0  0  0  0  0  0  0  0  0  0  0
  -18.2773  -26.7965   23.5193 C   0  0  0  0  0  0  0  0  0  0  0  0
  -18.5998  -29.1294   22.5961 C   0  0  0  0  0  0  0  0  0  0  0  0
  -19.9671  -27.2845   21.7013 C   0  0  0  0  0  0  0  0  0  0  0  0
  -24.5723  -15.0630   21.3130 C   0  0  1  0  0  0  0  0  0  0  0  0
  -27.6571  -15.8127   19.2261 C   0  0  1  0  0  0  0  0  0  0  0  0
  -19.6396  -26.4018   22.9178 C   0  0  2  0  0  0  0  0  0  0  0  0
  -25.6182  -27.8768   17.4391 C   0  0  0  0  0  0  0  0  0  0  0  0
  -35.3501  -14.9266   19.4158 C   0  0  0  0  0  0  0  0  0  0  0  0
  -29.9347  -15.2839   23.2128 C   0  0  0  0  0  0  0  0  0  0  0  0
  -32.4319  -15.2649   23.0340 C   0  0  0  0  0  0  0  0  0  0  0  0
  -31.1137  -13.2884   22.2734 C   0  0  0  0  0  0  0  0  0  0  0  0
  -33.2931  -16.3082   16.5286 C   0  0  0  0  0  0  0  0  0  0  0  0
  -23.3040  -30.0065   21.3055 C   0  0  0  0  0  0  0  0  0  0  0  0
  -27.7818  -23.1100   17.9640 C   0  0  0  0  0  0  0  0  0  1  0  0
  -31.0721  -15.4096   20.8984 C   0  0  1  0  0  0  0  0  0  0  0  0
  -34.0850  -15.1765   18.6097 C   0  0  2  0  0  0  0  0  0  0  0  0
  -31.1227  -14.8311   22.3407 C   0  0  0  0  0  0  0  0  0  0  0  0
  -19.3558  -24.5249   21.3432 N   0  0  0  0  0  0  0  0  0  0  0  0
  -19.6954  -24.9232   22.5810 N   0  0  0  0  0  0  0  0  0  0  0  0
  -28.9924  -16.1047   19.7513 N   0  0  0  0  0  0  0  0  0  0  0  0
  -19.9019  -28.7061   22.0752 N   0  0  0  0  0  0  0  0  0  0  0  0
  -20.4334  -24.1258   24.6858 N   0  0  0  0  0  0  0  0  0  0  0  0
  -20.0756  -20.3634   22.2135 N   0  0  0  0  0  0  0  0  0  0  0  0
  -25.6169  -15.0940   20.3119 N   0  0  0  0  0  0  0  0  0  0  0  0
  -32.1704  -14.9758   20.0417 N   0  0  0  0  0  0  0  0  0  0  0  0
  -22.1423  -29.1614   21.4695 N   0  0  0  0  0  0  0  0  0  0  0  0
  -34.4399  -16.0052   17.4230 N   0  3  0  0  0  0  0  0  0  0  0  0
  -20.6103  -21.1854   24.2864 O   0  0  0  0  0  0  0  0  0  0  0  0
  -26.9150  -16.7874   21.2446 O   0  0  0  0  0  0  0  0  0  0  0  0
  -29.5366  -13.8495   19.9846 O   0  0  0  0  0  0  0  0  0  0  0  0
  -32.9694  -17.0983   19.5583 O   0  0  0  0  0  0  0  0  0  0  0  0
  -20.8045  -30.8310   22.2938 O   0  0  0  0  0  0  0  0  0  0  0  0
  -28.4642  -27.6140   17.8652 O   0  0  0  0  0  0  0  0  0  0  0  0
  -29.0184  -26.8948   20.2094 O   0  0  0  0  0  0  0  0  0  0  0  0
  -18.4639  -20.0621   16.8893 O   0  0  0  0  0  0  0  0  0  0  0  0
  -28.5022  -22.1743   18.7652 O   0  0  0  0  0  0  0  0  0  1  0  0
  -13.8450  -21.1078   14.0650 F   0  0  0  0  0  0  0  0  0  0  0  0
  -16.5238  -18.1181   16.5733 F   0  0  0  0  0  0  0  0  0  0  0  0
  -28.0672  -26.9839   19.1136 S   0  0  0  0  0  0  0  0  0  0  0  0
  1  2  1  0  0  0  0
  1  5  2  0  0  0  0
  2  6  2  0  0  0  0
  3  9  2  0  0  0  0
  3 18  1  0  0  0  0
  4 10  1  0  0  0  0
  4 18  2  0  0  0  0
  5 20  1  0  0  0  0
  6 22  1  0  0  0  0
  7 11  2  0  0  0  0
  7 21  1  0  0  0  0
  8 14  2  0  0  0  0
  8 24  1  0  0  0  0
  9 26  1  0  0  0  0
 10 26  2  0  0  0  0
 11 27  1  0  0  0  0
 12 13  2  0  0  0  0
 12 28  1  0  0  0  0
 13 29  1  0  0  0  0
 14 31  1  0  0  0  0
 15 23  1  0  0  0  0
 15 27  2  0  0  0  0
 16 24  2  0  0  0  0
 16 25  1  0  0  0  0
 17 29  2  0  0  0  0
 17 30  1  0  0  0  0
 18 32  1  0  0  0  0
 19 32  1  0  0  0  0
 19 33  2  0  0  0  0
 19 36  1  0  0  0  0
 20 22  2  0  0  0  0
 20 41  1  0  0  0  0
 21 23  2  0  0  0  0
 21 42  1  0  0  0  0
 22 50  1  0  0  0  0
 23 43  1  0  0  0  0
 24 59  1  0  0  0  0
 25 31  2  0  0  0  0
 25 53  1  0  0  0  0
 26 81  1  0  0  0  0
 27 82  1  0  0  0  0
 28 30  2  0  0  0  0
 28 81  1  0  0  0  0
 29 83  1  0  0  0  0
 30 84  1  0  0  0  0
 31 85  1  0  0  0  0
 32 64  2  0  0  0  0
 33 65  1  0  0  0  0
 33 68  1  0  0  0  0
 34 35  2  0  0  0  0
 34 60  1  0  0  0  0
 35 85  1  0  0  0  0
 36 69  1  0  0  0  0
 36 74  2  0  0  0  0
 37 51  1  0  0  0  0
 37 70  1  0  0  0  0
 37 75  2  0  0  0  0
 38 61  1  0  0  0  0
 38 66  1  0  0  0  0
 38 76  2  0  0  0  0
 39 62  1  0  0  0  0
 39 71  1  0  0  0  0
 39 77  2  0  0  0  0
 40 67  1  0  0  0  0
 40 72  1  0  0  0  0
 40 78  2  0  0  0  0
 41 44  1  0  0  0  0
 42 51  1  0  0  0  0
 43 66  1  0  0  0  0
 44 46  1  0  0  0  0
 45 47  1  0  0  0  0
 45 48  1  0  0  0  0
 46 50  1  0  0  0  0
 47 52  1  0  0  0  0
 48 67  1  0  0  0  0
 49 52  1  0  0  0  0
 49 67  1  0  0  0  0
 50 70  1  0  0  0  0
 51 66  1  0  0  0  0
 52 65  1  0  0  0  0
 54 62  1  0  0  0  0
 55 63  1  0  0  0  0
 56 63  1  0  0  0  0
 57 63  1  0  0  0  0
 58 73  1  0  0  0  0
 59 72  1  0  0  0  0
 60 82  1  0  0  0  0
 61 63  1  0  0  0  0
 61 71  1  0  0  0  0
 62 73  1  0  0  0  0
 64 65  1  0  0  0  0
 79 85  2  0  0  0  0
 80 85  2  0  0  0  0
M  CHG  1  73   1
M  ISO  4  40 100  60 101  72 100  82 101
M  END
> <Batch ID>
0049

> <Smiles>
CNC(C)C(=O)NC(C(=O)N1Cc2cc([101O:1][101CH2:1]C=CS(=O)(=O)c3ccc(C[100NH:0][100C:0](=O)N4CCCC(n5nc(-c6ccc(Oc7ccc(F)cc7F)cc6)c(C(N)=O)c5N)C4)cc3C)ccc2CC1C(=O)NC1CCCc2ccccc21)C(C)(C)C

> <Shape>
0.201

> <Color>
0.075

> <Negative vol penalty>
0.000

$$$$

  -OEChem-04042322323D

 89 97  0     1  0  0  0  0  0999 V2000
  -32.1871  -14.5106   22.3488 C   0  0  0  0  0  0  0  0  0  0  0  0
  -32.3537  -15.8907   22.2922 C   0  0  0  0  0  0  0  0  0  0  0  0
  -18.8846  -28.4390   22.4273 C   0  0  0  0  0  0  0  0  0  0  0  0
  -22.7924  -16.3230   22.5118 C   0  0  0  0  0  0  0  0  0  0  0  0
  -22.8417  -17.5918   20.4564 C   0  0  0  0  0  0  0  0  0  0  0  0
  -20.1500  -28.9958   22.2424 C   0  0  0  0  0  0  0  0  0  0  0  0
  -31.4368  -13.8595   21.3705 C   0  0  0  0  0  0  0  0  0  0  0  0
  -31.7710  -16.6203   21.2566 C   0  0  0  0  0  0  0  0  0  0  0  0
  -29.4719  -22.2870   21.5856 C   0  0  0  0  0  0  0  0  0  0  0  0
  -18.7597  -27.1109   22.8351 C   0  0  0  0  0  0  0  0  0  0  0  0
  -23.0138  -15.1487   21.7923 C   0  0  0  0  0  0  0  0  0  0  0  0
  -23.0631  -16.4175   19.7368 C   0  0  0  0  0  0  0  0  0  0  0  0
  -29.9956  -23.5331   21.2438 C   0  0  0  0  0  0  0  0  0  0  0  0
  -25.6315  -13.5661   20.3516 C   0  0  0  0  0  0  0  0  0  0  0  0
  -26.5801  -12.6715   20.8469 C   0  0  0  0  0  0  0  0  0  0  0  0
  -28.8895  -23.4043   19.1040 C   0  0  0  0  0  0  0  0  0  0  0  0
  -24.8776  -10.9669   21.0289 C   0  0  0  0  0  0  0  0  0  0  0  0
  -22.7063  -17.5445   21.8438 C   0  0  0  0  0  0  0  0  0  0  0  0
  -21.2907  -28.2245   22.4651 C   0  0  0  0  0  0  0  0  0  0  0  0
  -23.4495  -19.6136   23.1378 C   0  0  0  0  0  0  0  0  0  0  0  0
  -30.8366  -14.5827   20.3277 C   0  0  0  0  0  0  0  0  0  0  0  0
  -28.6605  -21.5842   20.6834 C   0  0  0  0  0  0  0  0  0  0  0  0
  -31.0131  -15.9781   20.2627 C   0  0  0  0  0  0  0  0  0  0  0  0
  -28.3546  -22.1506   19.4377 C   0  0  0  0  0  0  0  0  0  0  0  0
  -21.1659  -26.8963   22.8728 C   0  0  0  0  0  0  0  0  0  0  0  0
  -19.9004  -26.3396   23.0578 C   0  0  0  0  0  0  0  0  0  0  0  0
  -23.1491  -15.1960   20.4049 C   0  0  0  0  0  0  0  0  0  0  0  0
  -29.7068  -24.0906   20.0017 C   0  0  0  0  0  0  0  0  0  0  0  0
  -24.3059  -13.1612   20.1951 C   0  0  0  0  0  0  0  0  0  0  0  0
  -26.2032  -11.3719   21.1855 C   0  0  0  0  0  0  0  0  0  0  0  0
  -23.9289  -11.8616   20.5337 C   0  0  0  0  0  0  0  0  0  0  0  0
  -22.4771  -18.7578   22.5864 C   0  0  0  0  0  0  0  0  0  0  0  0
  -22.7254  -20.6149   23.7374 C   0  0  0  0  0  0  0  0  0  0  0  0
  -22.6242  -28.8466   22.2604 C   0  0  0  0  0  0  0  0  0  0  0  0
  -24.8794  -19.5126   23.1102 C   0  0  0  0  0  0  0  0  0  0  0  0
  -28.8726  -18.7898   19.1833 C   0  0  0  0  0  0  0  0  0  0  0  0
  -25.8600  -19.5171   18.2253 C   0  0  0  0  0  0  0  0  0  0  0  0
  -26.9153  -28.7111   20.5373 C   0  0  0  0  0  0  0  0  0  0  0  0
  -23.5111  -21.9191   17.6254 C   0  0  0  0  0  0  0  0  0  0  0  0
  -18.5571  -24.3064   23.6967 C   0  0  0  0  0  0  0  0  0  0  0  0
  -30.0741  -13.8293   19.2668 C   0  0  0  0  0  0  0  0  0  0  0  0
  -28.0815  -20.2531   21.0777 C   0  0  0  0  0  0  0  0  0  0  0  0
  -27.4721  -21.4458   18.4413 C   0  0  0  0  0  0  0  0  0  0  0  0
  -29.1775  -14.7212   18.4119 C   0  0  0  0  0  0  0  0  0  0  0  0
  -17.7666  -20.9788   24.6864 C   0  0  0  0  0  0  0  0  0  0  0  0
  -29.9349  -15.9672   17.9642 C   0  0  0  0  0  0  0  0  0  0  0  0
  -19.0017  -20.1748   24.2737 C   0  0  0  0  0  0  0  0  0  0  0  0
  -17.4468  -22.0833   23.6807 C   0  0  0  0  0  0  0  0  0  0  0  0
  -19.8000  -22.1793   22.9577 C   0  0  0  0  0  0  0  0  0  0  0  0
  -30.3760  -16.8073   19.1688 C   0  0  1  0  0  0  0  0  0  0  0  0
  -27.6867  -19.3948   19.8799 C   0  0  1  0  0  0  0  0  0  0  0  0
  -20.1998  -21.0966   23.9734 C   0  0  2  0  0  0  0  0  0  0  0  0
  -22.3910  -26.0694   23.1112 C   0  0  0  0  0  0  0  0  0  0  0  0
  -21.1549  -22.2108   16.8124 C   0  0  0  0  0  0  0  0  0  0  0  0
  -26.7952  -19.0578   15.3575 C   0  0  0  0  0  0  0  0  0  0  0  0
  -24.7438  -20.2579   14.5702 C   0  0  0  0  0  0  0  0  0  0  0  0
  -24.5259  -18.1424   15.8740 C   0  0  0  0  0  0  0  0  0  0  0  0
  -22.6495  -23.1117   20.1933 C   0  0  0  0  0  0  0  0  0  0  0  0
  -25.5212  -28.2108   20.8707 C   0  0  0  0  0  0  0  0  0  0  0  0
  -29.6922  -27.5786   19.0999 C   0  0  0  0  0  0  0  0  0  0  0  0
  -24.4508  -29.2675   20.6349 C   0  0  0  0  0  0  0  0  0  0  0  0
  -29.2834  -27.9469   20.5198 C   0  0  0  0  0  0  0  0  0  0  0  0
  -29.4458  -26.1106   18.7739 C   0  0  0  0  0  0  0  0  0  1  0  0
  -25.2597  -20.2551   17.0531 C   0  0  1  0  0  0  0  0  0  0  0  0
  -22.0507  -22.0225   18.0268 C   0  0  2  0  0  0  0  0  0  0  0  0
  -25.3494  -19.4410   15.7315 C   0  0  0  0  0  0  0  0  0  0  0  0
  -21.2304  -19.1786   22.8156 N   0  0  0  0  0  0  0  0  0  0  0  0
  -21.4144  -20.3097   23.5177 N   0  0  0  0  0  0  0  0  0  0  0  0
  -26.9352  -20.1440   18.8709 N   0  0  0  0  0  0  0  0  0  0  0  0
  -18.6270  -22.9191   23.4491 N   0  0  0  0  0  0  0  0  0  0  0  0
  -23.0885  -21.7178   24.4261 N   0  0  0  0  0  0  0  0  0  0  0  0
  -25.4595  -18.4203   22.4508 N   0  0  0  0  0  0  0  0  0  0  0  0
  -19.7500  -24.9929   23.4722 N   0  0  0  0  0  0  0  0  0  0  0  0
  -23.1556  -28.7366   20.9837 N   0  0  0  0  0  0  0  0  0  0  0  0
  -29.2597  -17.5649   19.6925 N   0  0  0  0  0  0  0  0  0  0  0  0
  -27.8824  -27.7351   20.7576 N   0  0  0  0  0  0  0  0  0  0  0  0
  -23.8999  -20.6084   17.4461 N   0  0  0  0  0  0  0  0  0  0  0  0
  -21.8465  -23.1782   18.9452 N   0  3  0  0  0  0  0  0  0  0  0  0
  -23.1830  -29.3931   23.2078 O   0  0  0  0  0  0  0  0  0  0  0  0
  -25.6205  -20.3569   23.6683 O   0  0  0  0  0  0  0  0  0  0  0  0
  -29.3966  -19.3892   18.2517 O   0  0  0  0  0  0  0  0  0  0  0  0
  -25.3875  -18.4280   18.5604 O   0  0  0  0  0  0  0  0  0  0  0  0
  -27.1412  -29.8445   20.1223 O   0  0  0  0  0  0  0  0  0  0  0  0
  -24.2335  -22.9029   17.4813 O   0  0  0  0  0  0  0  0  0  0  0  0
  -17.5235  -24.8413   24.1059 O   0  0  0  0  0  0  0  0  0  0  0  0
  -23.3654  -14.0503   19.7025 O   0  0  0  0  0  0  0  0  0  0  0  0
  -30.2173  -25.3064   19.6653 O   0  0  0  0  0  0  0  0  0  1  0  0
  -27.1146  -10.5124   21.6597 F   0  0  0  0  0  0  0  0  0  0  0  0
  -22.6572  -11.4665   20.3843 F   0  0  0  0  0  0  0  0  0  0  0  0
  1  2  1  0  0  0  0
  1  7  2  0  0  0  0
  2  8  2  0  0  0  0
  3  6  2  0  0  0  0
  3 10  1  0  0  0  0
  4 11  2  0  0  0  0
  4 18  1  0  0  0  0
  5 12  1  0  0  0  0
  5 18  2  0  0  0  0
  6 19  1  0  0  0  0
  7 21  1  0  0  0  0
  8 23  1  0  0  0  0
  9 13  2  0  0  0  0
  9 22  1  0  0  0  0
 10 26  2  0  0  0  0
 11 27  1  0  0  0  0
 12 27  2  0  0  0  0
 13 28  1  0  0  0  0
 14 15  2  0  0  0  0
 14 29  1  0  0  0  0
 15 30  1  0  0  0  0
 16 24  1  0  0  0  0
 16 28  2  0  0  0  0
 17 30  2  0  0  0  0
 17 31  1  0  0  0  0
 18 32  1  0  0  0  0
 19 25  2  0  0  0  0
 19 34  1  0  0  0  0
 20 32  1  0  0  0  0
 20 33  2  0  0  0  0
 20 35  1  0  0  0  0
 21 23  2  0  0  0  0
 21 41  1  0  0  0  0
 22 24  2  0  0  0  0
 22 42  1  0  0  0  0
 23 50  1  0  0  0  0
 24 43  1  0  0  0  0
 25 26  1  0  0  0  0
 25 53  1  0  0  0  0
 26 73  1  0  0  0  0
 27 86  1  0  0  0  0
 28 87  1  0  0  0  0
 29 31  2  0  0  0  0
 29 86  1  0  0  0  0
 30 88  1  0  0  0  0
 31 89  1  0  0  0  0
 32 67  2  0  0  0  0
 33 68  1  0  0  0  0
 33 71  1  0  0  0  0
 34 74  1  0  0  0  0
 34 79  2  0  0  0  0
 35 72  1  0  0  0  0
 35 80  2  0  0  0  0
 36 51  1  0  0  0  0
 36 75  1  0  0  0  0
 36 81  2  0  0  0  0
 37 64  1  0  0  0  0
 37 69  1  0  0  0  0
 37 82  2  0  0  0  0
 38 59  1  0  0  0  0
 38 76  1  0  0  0  0
 38 83  2  0  0  0  0
 39 65  1  0  0  0  0
 39 77  1  0  0  0  0
 39 84  2  0  0  0  0
 40 70  1  0  0  0  0
 40 73  1  0  0  0  0
 40 85  2  0  0  0  0
 41 44  1  0  0  0  0
 42 51  1  0  0  0  0
 43 69  1  0  0  0  0
 44 46  1  0  0  0  0
 45 47  1  0  0  0  0
 45 48  1  0  0  0  0
 46 50  1  0  0  0  0
 47 52  1  0  0  0  0
 48 70  1  0  0  0  0
 49 52  1  0  0  0  0
 49 70  1  0  0  0  0
 50 75  1  0  0  0  0
 51 69  1  0  0  0  0
 52 68  1  0  0  0  0
 54 65  1  0  0  0  0
 55 66  1  0  0  0  0
 56 66  1  0  0  0  0
 57 66  1  0  0  0  0
 58 78  1  0  0  0  0
 59 61  1  0  0  0  0
 60 62  1  0  0  0  0
 60 63  1  0  0  0  0
 61 74  1  0  0  0  0
 62 76  1  0  0  0  0
 63 87  1  0  0  0  0
 64 66  1  0  0  0  0
 64 77  1  0  0  0  0
 65 78  1  0  0  0  0
 67 68  1  0  0  0  0
M  CHG  1  78   1
M  ISO  4  40 100  63 101  73 100  87 101
M  END
> <Batch ID>
0049

> <Smiles>
CNC(C)C(=O)NC(C(=O)N1Cc2cc([101O:1][101CH2:1]CCNC(=O)CCNC(=O)c3cccc([100NH:0][100C:0](=O)N4CCCC(n5nc(-c6ccc(Oc7ccc(F)cc7F)cc6)c(C(N)=O)c5N)C4)c3C)ccc2CC1C(=O)NC1CCCc2ccccc21)C(C)(C)C

> <Shape>
0.238

> <Color>
0.055

> <Negative vol penalty>
0.000

$$$$

  -OEChem-04042322323D

 85 93  0     1  0  0  0  0  0999 V2000
  -17.8438  -26.1028   31.0626 C   0  0  0  0  0  0  0  0  0  0  0  0
  -18.3086  -25.2505   30.0662 C   0  0  0  0  0  0  0  0  0  0  0  0
  -23.0742   -9.8684   19.9419 C   0  0  0  0  0  0  0  0  0  0  0  0
  -23.8381   -9.8747   22.2339 C   0  0  0  0  0  0  0  0  0  0  0  0
  -18.6429  -27.1556   31.5065 C   0  0  0  0  0  0  0  0  0  0  0  0
  -19.5725  -25.4510   29.5123 C   0  0  0  0  0  0  0  0  0  0  0  0
  -23.4668  -21.1421   27.5698 C   0  0  0  0  0  0  0  0  0  0  0  0
  -31.5057  -18.4288   20.0474 C   0  0  0  0  0  0  0  0  0  0  0  0
  -22.3316   -8.7147   20.1925 C   0  0  0  0  0  0  0  0  0  0  0  0
  -23.0954   -8.7209   22.4846 C   0  0  0  0  0  0  0  0  0  0  0  0
  -23.7495  -20.6360   26.3018 C   0  0  0  0  0  0  0  0  0  0  0  0
  -19.8688   -7.9206   23.0922 C   0  0  0  0  0  0  0  0  0  0  0  0
  -19.1139   -7.8795   24.2643 C   0  0  0  0  0  0  0  0  0  0  0  0
  -31.2457  -19.4811   19.1696 C   0  0  0  0  0  0  0  0  0  0  0  0
  -25.6190  -22.1498   26.1210 C   0  0  0  0  0  0  0  0  0  0  0  0
  -29.2939  -18.6682   20.9896 C   0  0  0  0  0  0  0  0  0  0  0  0
  -20.3578   -5.9425   24.9976 C   0  0  0  0  0  0  0  0  0  0  0  0
  -23.8275  -10.4485   20.9626 C   0  0  0  0  0  0  0  0  0  0  0  0
  -24.1674  -12.9739   20.8433 C   0  0  0  0  0  0  0  0  0  0  0  0
  -19.9211  -27.3633   30.9646 C   0  0  0  0  0  0  0  0  0  0  0  0
  -24.2529  -22.1651   28.1193 C   0  0  0  0  0  0  0  0  0  0  0  0
  -20.3889  -26.5084   29.9485 C   0  0  0  0  0  0  0  0  0  0  0  0
  -25.3458  -22.6653   27.3972 C   0  0  0  0  0  0  0  0  0  0  0  0
  -30.5298  -18.0223   20.9574 C   0  0  0  0  0  0  0  0  0  0  0  0
  -29.0339  -19.7206   20.1119 C   0  0  0  0  0  0  0  0  0  0  0  0
  -22.3421   -8.1409   21.4638 C   0  0  0  0  0  0  0  0  0  0  0  0
  -24.8239  -21.1418   25.5760 C   0  0  0  0  0  0  0  0  0  0  0  0
  -20.8682   -6.9726   22.8727 C   0  0  0  0  0  0  0  0  0  0  0  0
  -19.3584   -6.8905   25.2171 C   0  0  0  0  0  0  0  0  0  0  0  0
  -21.1127   -5.9836   23.8254 C   0  0  0  0  0  0  0  0  0  0  0  0
  -30.0098  -20.1271   19.2018 C   0  0  0  0  0  0  0  0  0  0  0  0
  -24.5954  -11.6400   20.7042 C   0  0  0  0  0  0  0  0  0  0  0  0
  -25.2585  -13.7243   20.4786 C   0  0  0  0  0  0  0  0  0  0  0  0
  -22.8973  -13.4886   21.2647 C   0  0  0  0  0  0  0  0  0  0  0  0
  -23.7093  -25.1524   29.0599 C   0  0  0  0  0  0  0  0  0  0  0  0
  -26.7811  -24.9749   30.0868 C   0  0  0  0  0  0  0  0  0  0  0  0
  -26.3755  -20.5443   22.3016 C   0  0  0  0  0  0  0  0  0  0  0  0
  -29.8506  -23.5103   29.8036 C   0  0  0  0  0  0  0  0  0  0  0  0
  -30.7418  -14.7470   20.6581 C   0  0  0  0  0  0  0  0  0  0  0  0
  -20.7295  -28.5432   31.4433 C   0  0  0  0  0  0  0  0  0  0  0  0
  -23.9511  -22.6817   29.4994 C   0  0  0  0  0  0  0  0  0  0  0  0
  -26.2328  -23.7495   27.9507 C   0  0  0  0  0  0  0  0  0  0  0  0
  -22.2071  -28.4614   31.0687 C   0  0  0  0  0  0  0  0  0  0  0  0
  -29.6018  -12.3630   18.2720 C   0  0  0  0  0  0  0  0  0  0  0  0
  -22.3654  -28.0643   29.6045 C   0  0  0  0  0  0  0  0  0  0  0  0
  -28.1653  -12.0681   18.7073 C   0  0  0  0  0  0  0  0  0  0  0  0
  -30.5208  -12.5838   19.4715 C   0  0  0  0  0  0  0  0  0  0  0  0
  -28.6209  -13.3129   20.8617 C   0  0  0  0  0  0  0  0  0  0  0  0
  -21.7643  -26.6785   29.3405 C   0  0  1  0  0  0  0  0  0  0  0  0
  -24.5062  -24.0807   29.7484 C   0  0  1  0  0  0  0  0  0  0  0  0
  -27.6449  -13.1382   19.6856 C   0  0  2  0  0  0  0  0  0  0  0  0
  -32.1722  -23.6025   30.7518 C   0  0  0  0  0  0  0  0  0  0  0  0
  -27.3308  -27.5147   28.4876 C   0  0  0  0  0  0  0  0  0  0  0  0
  -29.7783  -27.0253   28.6842 C   0  0  0  0  0  0  0  0  0  0  0  0
  -28.4225  -27.4411   30.7365 C   0  0  0  0  0  0  0  0  0  0  0  0
  -28.3575  -22.0159   21.9035 C   0  0  0  0  0  0  0  0  0  0  0  0
  -29.6954  -20.7143   30.7612 C   0  0  0  0  0  0  0  0  0  0  0  0
  -30.8083  -16.8970   21.8960 C   0  0  0  0  0  0  0  0  0  0  0  0
  -27.6912  -20.3891   20.1778 C   0  0  0  0  0  0  0  0  0  0  0  0
  -26.2174  -21.2144   23.6502 C   0  0  0  0  0  0  0  0  0  1  0  0
  -28.1307  -25.2682   29.4774 C   0  0  1  0  0  0  0  0  0  0  0  0
  -30.8007  -22.9525   30.8479 C   0  0  2  0  0  0  0  0  0  0  0  0
  -28.3979  -26.7932   29.3349 C   0  0  0  0  0  0  0  0  0  0  0  0
  -25.8596  -11.5453   20.2837 N   0  0  0  0  0  0  0  0  0  0  0  0
  -26.2354  -12.8292   20.1554 N   0  0  0  0  0  0  0  0  0  0  0  0
  -25.8930  -24.2262   29.3016 N   0  0  0  0  0  0  0  0  0  0  0  0
  -29.9710  -13.6115   20.3589 N   0  0  0  0  0  0  0  0  0  0  0  0
  -25.4678  -15.0560   20.4059 N   0  0  0  0  0  0  0  0  0  0  0  0
  -21.8866  -12.5786   21.6032 N   0  0  0  0  0  0  0  0  0  0  0  0
  -22.6579  -25.6420   29.8112 N   0  0  0  0  0  0  0  0  0  0  0  0
  -29.1106  -24.5639   30.2973 N   0  0  0  0  0  0  0  0  0  0  0  0
  -30.1435  -15.6750   21.5017 N   0  0  0  0  0  0  0  0  0  0  0  0
  -27.4322  -20.9666   21.4942 N   0  0  0  0  0  0  0  0  0  0  0  0
  -30.9637  -21.4822   30.6672 N   0  3  0  0  0  0  0  0  0  0  0  0
  -22.6603  -14.7191   21.3231 O   0  0  0  0  0  0  0  0  0  0  0  0
  -24.0257  -25.5097   27.9313 O   0  0  0  0  0  0  0  0  0  0  0  0
  -26.5269  -25.3886   31.2208 O   0  0  0  0  0  0  0  0  0  0  0  0
  -25.5765  -19.6588   21.9819 O   0  0  0  0  0  0  0  0  0  0  0  0
  -29.7752  -23.0591   28.6629 O   0  0  0  0  0  0  0  0  0  0  0  0
  -31.8769  -14.9235   20.2027 O   0  0  0  0  0  0  0  0  0  0  0  0
  -21.6174   -7.0152   21.7088 O   0  0  0  0  0  0  0  0  0  0  0  0
  -25.1016  -20.6501   24.3379 O   0  0  0  0  0  0  0  0  0  1  0  0
  -18.6344   -6.8521   26.3434 F   0  0  0  0  0  0  0  0  0  0  0  0
  -22.0723   -5.0709   23.6207 F   0  0  0  0  0  0  0  0  0  0  0  0
  -29.7235  -21.4250   18.1007 Cl  0  0  0  0  0  0  0  0  0  0  0  0
  1  2  1  0  0  0  0
  1  5  2  0  0  0  0
  2  6  2  0  0  0  0
  3  9  2  0  0  0  0
  3 18  1  0  0  0  0
  4 10  1  0  0  0  0
  4 18  2  0  0  0  0
  5 20  1  0  0  0  0
  6 22  1  0  0  0  0
  7 11  2  0  0  0  0
  7 21  1  0  0  0  0
  8 14  2  0  0  0  0
  8 24  1  0  0  0  0
  9 26  1  0  0  0  0
 10 26  2  0  0  0  0
 11 27  1  0  0  0  0
 12 13  2  0  0  0  0
 12 28  1  0  0  0  0
 13 29  1  0  0  0  0
 14 31  1  0  0  0  0
 15 23  1  0  0  0  0
 15 27  2  0  0  0  0
 16 24  2  0  0  0  0
 16 25  1  0  0  0  0
 17 29  2  0  0  0  0
 17 30  1  0  0  0  0
 18 32  1  0  0  0  0
 19 32  1  0  0  0  0
 19 33  2  0  0  0  0
 19 34  1  0  0  0  0
 20 22  2  0  0  0  0
 20 40  1  0  0  0  0
 21 23  2  0  0  0  0
 21 41  1  0  0  0  0
 22 49  1  0  0  0  0
 23 42  1  0  0  0  0
 24 58  1  0  0  0  0
 25 31  2  0  0  0  0
 25 59  1  0  0  0  0
 26 81  1  0  0  0  0
 27 82  1  0  0  0  0
 28 30  2  0  0  0  0
 28 81  1  0  0  0  0
 29 83  1  0  0  0  0
 30 84  1  0  0  0  0
 31 85  1  0  0  0  0
 32 64  2  0  0  0  0
 33 65  1  0  0  0  0
 33 68  1  0  0  0  0
 34 69  1  0  0  0  0
 34 75  2  0  0  0  0
 35 50  1  0  0  0  0
 35 70  1  0  0  0  0
 35 76  2  0  0  0  0
 36 61  1  0  0  0  0
 36 66  1  0  0  0  0
 36 77  2  0  0  0  0
 37 60  1  0  0  0  0
 37 73  1  0  0  0  0
 37 78  2  0  0  0  0
 38 62  1  0  0  0  0
 38 71  1  0  0  0  0
 38 79  2  0  0  0  0
 39 67  1  0  0  0  0
 39 72  1  0  0  0  0
 39 80  2  0  0  0  0
 40 43  1  0  0  0  0
 41 50  1  0  0  0  0
 42 66  1  0  0  0  0
 43 45  1  0  0  0  0
 44 46  1  0  0  0  0
 44 47  1  0  0  0  0
 45 49  1  0  0  0  0
 46 51  1  0  0  0  0
 47 67  1  0  0  0  0
 48 51  1  0  0  0  0
 48 67  1  0  0  0  0
 49 70  1  0  0  0  0
 50 66  1  0  0  0  0
 51 65  1  0  0  0  0
 52 62  1  0  0  0  0
 53 63  1  0  0  0  0
 54 63  1  0  0  0  0
 55 63  1  0  0  0  0
 56 73  1  0  0  0  0
 57 74  1  0  0  0  0
 58 72  1  0  0  0  0
 59 73  1  0  0  0  0
 60 82  1  0  0  0  0
 61 63  1  0  0  0  0
 61 71  1  0  0  0  0
 62 74  1  0  0  0  0
 64 65  1  0  0  0  0
M  CHG  1  74   1
M  ISO  4  39 100  60 101  72 100  82 101
M  END
> <Batch ID>
0049

> <Smiles>
CNC(C)C(=O)NC(C(=O)N1Cc2cc([101O:1][101CH2:1]C(=O)N(C)Cc3cc(C[100NH:0][100C:0](=O)N4CCCC(n5nc(-c6ccc(Oc7ccc(F)cc7F)cc6)c(C(N)=O)c5N)C4)ccc3Cl)ccc2CC1C(=O)NC1CCCc2ccccc21)C(C)(C)C

> <Shape>
0.201

> <Color>
0.196

> <Negative vol penalty>
0.000

$$$$

  -OEChem-04042322323D

 87 96  0     1  0  0  0  0  0999 V2000
  -31.6261  -26.6265   17.8403 C   0  0  0  0  0  0  0  0  0  0  0  0
  -30.8023  -25.6173   18.3285 C   0  0  0  0  0  0  0  0  0  0  0  0
  -28.4427  -17.9968   22.1328 C   0  0  0  0  0  0  0  0  0  0  0  0
  -28.7878  -17.1943   19.8803 C   0  0  0  0  0  0  0  0  0  0  0  0
  -31.5556  -27.9075   18.3862 C   0  0  0  0  0  0  0  0  0  0  0  0
  -29.9083  -25.8883   19.3637 C   0  0  0  0  0  0  0  0  0  0  0  0
  -24.3403  -23.4622   20.1491 C   0  0  0  0  0  0  0  0  0  0  0  0
  -20.8561  -13.8536   25.2902 C   0  0  0  0  0  0  0  0  0  0  0  0
  -28.7910  -19.2851   21.7272 C   0  0  0  0  0  0  0  0  0  0  0  0
  -29.1360  -18.4827   19.4746 C   0  0  0  0  0  0  0  0  0  0  0  0
  -23.8764  -22.4175   20.9474 C   0  0  0  0  0  0  0  0  0  0  0  0
  -27.5467  -21.3585   18.6847 C   0  0  0  0  0  0  0  0  0  0  0  0
  -26.9953  -21.8329   17.4945 C   0  0  0  0  0  0  0  0  0  0  0  0
  -20.7701  -14.8347   26.2780 C   0  0  0  0  0  0  0  0  0  0  0  0
  -23.2227  -24.0082   22.6389 C   0  0  0  0  0  0  0  0  0  0  0  0
  -20.4780  -15.5301   23.5922 C   0  0  0  0  0  0  0  0  0  0  0  0
  -29.2129  -22.1042   16.5751 C   0  0  0  0  0  0  0  0  0  0  0  0
  -28.4412  -16.9514   21.2093 C   0  0  0  0  0  0  0  0  0  0  0  0
  -28.7209  -14.8354   22.6065 C   0  0  0  0  0  0  0  0  0  0  0  0
  -30.6535  -28.1967   19.4221 C   0  0  0  0  0  0  0  0  0  0  0  0
  -24.2587  -24.7892   20.5952 C   0  0  0  0  0  0  0  0  0  0  0  0
  -29.8267  -27.1740   19.9249 C   0  0  0  0  0  0  0  0  0  0  0  0
  -23.6839  -25.0682   21.8434 C   0  0  0  0  0  0  0  0  0  0  0  0
  -20.7101  -14.2013   23.9473 C   0  0  0  0  0  0  0  0  0  0  0  0
  -20.3919  -16.5112   24.5800 C   0  0  0  0  0  0  0  0  0  0  0  0
  -29.1376  -19.5281   20.3981 C   0  0  0  0  0  0  0  0  0  0  0  0
  -23.3201  -22.6902   22.1937 C   0  0  0  0  0  0  0  0  0  0  0  0
  -28.9313  -21.2570   18.8200 C   0  0  0  0  0  0  0  0  0  0  0  0
  -27.8283  -22.2057   16.4397 C   0  0  0  0  0  0  0  0  0  0  0  0
  -29.7644  -21.6299   17.7652 C   0  0  0  0  0  0  0  0  0  0  0  0
  -20.5380  -16.1635   25.9229 C   0  0  0  0  0  0  0  0  0  0  0  0
  -28.0821  -15.6202   21.6278 C   0  0  0  0  0  0  0  0  0  0  0  0
  -28.0036  -13.6643   22.6295 C   0  0  0  0  0  0  0  0  0  0  0  0
  -22.3710  -18.7567   23.6862 C   0  0  0  0  0  0  0  0  0  0  0  0
  -23.4495  -18.0954   24.1327 C   0  0  0  0  0  0  0  0  0  0  0  0
  -29.8608  -15.1379   23.4219 C   0  0  0  0  0  0  0  0  0  0  0  0
  -26.3731  -27.0747   21.2349 C   0  0  0  0  0  0  0  0  0  0  0  0
  -23.7116  -28.8868   21.6287 C   0  0  0  0  0  0  0  0  0  0  0  0
  -20.4546  -28.4907   23.1296 C   0  0  0  0  0  0  0  0  0  0  0  0
  -22.3611  -12.3093   21.1539 C   0  0  0  0  0  0  0  0  0  0  0  0
  -30.6467  -29.5846   20.0124 C   0  0  0  0  0  0  0  0  0  0  0  0
  -24.7391  -25.9070   19.7109 C   0  0  0  0  0  0  0  0  0  0  0  0
  -23.5546  -26.4771   22.3598 C   0  0  0  0  0  0  0  0  0  0  0  0
  -22.3119  -19.4090   22.3290 C   0  0  0  0  0  0  0  0  0  0  0  0
  -29.4079  -29.8829   20.8530 C   0  0  0  0  0  0  0  0  0  0  0  0
  -25.3286  -10.8561   19.8278 C   0  0  0  0  0  0  0  0  0  0  0  0
  -29.1171  -28.7265   21.8043 C   0  0  0  0  0  0  0  0  0  0  0  0
  -26.4284  -11.8415   20.2270 C   0  0  0  0  0  0  0  0  0  0  0  0
  -20.5956  -20.9707   23.3365 C   0  0  0  0  0  0  0  0  0  0  0  0
  -24.0280  -11.5745   19.4752 C   0  0  0  0  0  0  0  0  0  0  0  0
  -24.6312  -13.4854   20.9099 C   0  0  0  0  0  0  0  0  0  0  0  0
  -20.8104  -20.3129   24.6988 C   0  0  0  0  0  0  0  0  0  0  0  0
  -28.8265  -27.4351   21.0302 C   0  0  1  0  0  0  0  0  0  0  0  0
  -25.0756  -27.1782   20.4843 C   0  0  1  0  0  0  0  0  0  0  0  0
  -25.9457  -12.8046   21.3282 C   0  0  2  0  0  0  0  0  0  0  0  0
  -21.8274  -20.8549   22.4388 C   0  0  1  0  0  0  0  0  0  1  0  0
  -18.2709  -29.6119   22.6086 C   0  0  0  0  0  0  0  0  0  0  0  0
  -24.5189  -30.8371   23.8320 C   0  0  0  0  0  0  0  0  0  0  0  0
  -22.1241  -30.8979   24.5596 C   0  0  0  0  0  0  0  0  0  0  0  0
  -22.7535  -31.6898   22.2794 C   0  0  0  0  0  0  0  0  0  0  0  0
  -19.0840  -25.8973   22.7366 C   0  0  0  0  0  0  0  0  0  0  0  0
  -20.8020  -13.1519   22.8913 C   0  0  0  0  0  0  0  0  0  0  0  0
  -20.1421  -17.9287   24.1566 C   0  0  0  0  0  0  0  0  0  0  0  0
  -22.8031  -29.2140   22.7892 C   0  0  1  0  0  0  0  0  0  0  0  0
  -19.1273  -28.3722   22.4026 C   0  0  2  0  0  0  0  0  0  0  0  0
  -23.0640  -30.6350   23.3637 C   0  0  0  0  0  0  0  0  0  0  0  0
  -27.0392  -15.0000   21.0694 N   0  0  0  0  0  0  0  0  0  0  0  0
  -27.0173  -13.8130   21.6992 N   0  0  0  0  0  0  0  0  0  0  0  0
  -24.0446  -27.5352   21.4609 N   0  0  0  0  0  0  0  0  0  0  0  0
  -23.6243  -12.4709   20.5613 N   0  0  0  0  0  0  0  0  0  0  0  0
  -28.1266  -12.5322   23.3544 N   0  0  0  0  0  0  0  0  0  0  0  0
  -31.1343  -14.8073   22.9390 N   0  0  0  0  0  0  0  0  0  0  0  0
  -27.4799  -27.4555   20.5004 N   0  0  0  0  0  0  0  0  0  0  0  0
  -21.4404  -29.0030   22.3128 N   0  0  0  0  0  0  0  0  0  0  0  0
  -22.0602  -13.1964   22.1802 N   0  0  0  0  0  0  0  0  0  0  0  0
  -21.2389  -18.8697   24.5721 N   0  3  1  0  0  0  0  0  0  0  0  0
  -18.3688  -27.1892   22.8987 N   0  3  0  0  0  0  0  0  0  0  0  0
  -29.7520  -15.6702   24.5525 O   0  0  0  0  0  0  0  0  0  0  0  0
  -26.3702  -26.6800   22.3950 O   0  0  0  0  0  0  0  0  0  0  0  0
  -24.1053  -29.7960   20.8939 O   0  0  0  0  0  0  0  0  0  0  0  0
  -20.6013  -28.1652   24.3057 O   0  0  0  0  0  0  0  0  0  0  0  0
  -21.5628  -11.4356   20.7986 O   0  0  0  0  0  0  0  0  0  0  0  0
  -29.4773  -20.7852   20.0020 O   0  0  0  0  0  0  0  0  0  0  0  0
  -22.8672  -21.6723   22.9751 O   0  0  0  0  0  0  0  0  0  1  0  0
  -27.2986  -22.6598   15.2963 F   0  0  0  0  0  0  0  0  0  0  0  0
  -31.0953  -21.5335   17.8890 F   0  0  0  0  0  0  0  0  0  0  0  0
  -20.4378  -17.3504   27.1720 Cl  0  0  0  0  0  0  0  0  0  0  0  0
  1  2  1  0  0  0  0
  1  5  2  0  0  0  0
  2  6  2  0  0  0  0
  3  9  2  0  0  0  0
  3 18  1  0  0  0  0
  4 10  1  0  0  0  0
  4 18  2  0  0  0  0
  5 20  1  0  0  0  0
  6 22  1  0  0  0  0
  7 11  2  0  0  0  0
  7 21  1  0  0  0  0
  8 14  2  0  0  0  0
  8 24  1  0  0  0  0
  9 26  1  0  0  0  0
 10 26  2  0  0  0  0
 11 27  1  0  0  0  0
 12 13  2  0  0  0  0
 12 28  1  0  0  0  0
 13 29  1  0  0  0  0
 14 31  1  0  0  0  0
 15 23  1  0  0  0  0
 15 27  2  0  0  0  0
 16 24  2  0  0  0  0
 16 25  1  0  0  0  0
 17 29  2  0  0  0  0
 17 30  1  0  0  0  0
 18 32  1  0  0  0  0
 19 32  1  0  0  0  0
 19 33  2  0  0  0  0
 19 36  1  0  0  0  0
 20 22  2  0  0  0  0
 20 41  1  0  0  0  0
 21 23  2  0  0  0  0
 21 42  1  0  0  0  0
 22 53  1  0  0  0  0
 23 43  1  0  0  0  0
 24 62  1  0  0  0  0
 25 31  2  0  0  0  0
 25 63  1  0  0  0  0
 26 83  1  0  0  0  0
 27 84  1  0  0  0  0
 28 30  2  0  0  0  0
 28 83  1  0  0  0  0
 29 85  1  0  0  0  0
 30 86  1  0  0  0  0
 31 87  1  0  0  0  0
 32 67  2  0  0  0  0
 33 68  1  0  0  0  0
 33 71  1  0  0  0  0
 34 35  2  0  0  0  0
 34 44  1  0  0  0  0
 34 76  1  0  0  0  0
 36 72  1  0  0  0  0
 36 78  2  0  0  0  0
 37 54  1  0  0  0  0
 37 73  1  0  0  0  0
 37 79  2  0  0  0  0
 38 64  1  0  0  0  0
 38 69  1  0  0  0  0
 38 80  2  0  0  0  0
 39 65  1  0  0  0  0
 39 74  1  0  0  0  0
 39 81  2  0  0  0  0
 40 70  1  0  0  0  0
 40 75  1  0  0  0  0
 40 82  2  0  0  0  0
 41 45  1  0  0  0  0
 42 54  1  0  0  0  0
 43 69  1  0  0  0  0
 44 56  1  0  0  0  0
 45 47  1  0  0  0  0
 46 48  1  0  0  0  0
 46 50  1  0  0  0  0
 47 53  1  0  0  0  0
 48 55  1  0  0  0  0
 49 52  1  0  0  0  0
 49 56  1  0  0  0  0
 50 70  1  0  0  0  0
 51 55  1  0  0  0  0
 51 70  1  0  0  0  0
 52 76  1  0  0  0  0
 53 73  1  0  0  0  0
 54 69  1  0  0  0  0
 55 68  1  0  0  0  0
 56 84  1  0  0  0  0
 57 65  1  0  0  0  0
 58 66  1  0  0  0  0
 59 66  1  0  0  0  0
 60 66  1  0  0  0  0
 61 77  1  0  0  0  0
 62 75  1  0  0  0  0
 63 76  1  0  0  0  0
 64 66  1  0  0  0  0
 64 74  1  0  0  0  0
 65 77  1  0  0  0  0
 67 68  1  0  0  0  0
M  CHG  2  76   1  77   1
M  ISO  4  40 100  56 101  75 100  84 101
M  END
> <Batch ID>
0049

> <Smiles>
C=C1C[101CH:1]([101O:1]c2ccc3c(c2)CN(C(=O)C(NC(=O)C(C)NC)C(C)(C)C)C(C(=O)NC2CCCc4ccccc42)C3)CCN1Cc1cc(C[100NH:0][100C:0](=O)N2CCCC(n3nc(-c4ccc(Oc5ccc(F)cc5F)cc4)c(C(N)=O)c3N)C2)ccc1Cl

> <Shape>
0.227

> <Color>
0.062

> <Negative vol penalty>
0.000

$$$$

  -OEChem-04042322323D

 89 98  0     1  0  0  0  0  0999 V2000
  -29.1206  -32.9385   26.2298 C   0  0  0  0  0  0  0  0  0  0  0  0
  -29.0201  -31.7535   25.5079 C   0  0  0  0  0  0  0  0  0  0  0  0
  -23.0125   -9.7168   21.5932 C   0  0  0  0  0  0  0  0  0  0  0  0
  -24.4365  -10.3209   23.4491 C   0  0  0  0  0  0  0  0  0  0  0  0
  -27.9661  -33.5965   26.6517 C   0  0  0  0  0  0  0  0  0  0  0  0
  -27.7648  -31.2252   25.2085 C   0  0  0  0  0  0  0  0  0  0  0  0
  -27.4105  -29.6619   20.4048 C   0  0  0  0  0  0  0  0  0  0  0  0
  -22.4186   -8.7237   22.3721 C   0  0  0  0  0  0  0  0  0  0  0  0
  -23.8426   -9.3279   24.2280 C   0  0  0  0  0  0  0  0  0  0  0  0
  -27.9939  -28.4355   20.0897 C   0  0  0  0  0  0  0  0  0  0  0  0
  -23.1602   -5.5917   23.4040 C   0  0  0  0  0  0  0  0  0  0  0  0
  -22.9704   -4.3388   22.8211 C   0  0  0  0  0  0  0  0  0  0  0  0
  -25.8267  -27.3821   20.2039 C   0  0  0  0  0  0  0  0  0  0  0  0
  -30.9427  -18.1201   20.6568 C   0  0  0  0  0  0  0  0  0  0  0  0
  -20.5884   -4.5353   23.1745 C   0  0  0  0  0  0  0  0  0  0  0  0
  -24.0215  -10.5154   22.1316 C   0  0  0  0  0  0  0  0  0  0  0  0
  -24.0005  -12.6438   20.7256 C   0  0  0  0  0  0  0  0  0  0  0  0
  -26.6959  -33.0811   26.3489 C   0  0  0  0  0  0  0  0  0  0  0  0
  -26.0301  -29.7558   20.6330 C   0  0  0  0  0  0  0  0  0  0  0  0
  -26.5922  -31.8762   25.6279 C   0  0  0  0  0  0  0  0  0  0  0  0
  -25.2279  -28.6114   20.5193 C   0  0  0  0  0  0  0  0  0  0  0  0
  -31.2915  -19.4276   20.9951 C   0  0  0  0  0  0  0  0  0  0  0  0
  -30.3000  -20.3966   21.1483 C   0  0  0  0  0  0  0  0  0  0  0  0
  -28.9595  -20.0581   20.9631 C   0  0  0  0  0  0  0  0  0  0  0  0
  -29.6022  -17.7817   20.4716 C   0  0  0  0  0  0  0  0  0  0  0  0
  -22.8336   -8.5292   23.6895 C   0  0  0  0  0  0  0  0  0  0  0  0
  -27.2024  -27.2948   19.9920 C   0  0  0  0  0  0  0  0  0  0  0  0
  -22.0641   -6.3164   23.8722 C   0  0  0  0  0  0  0  0  0  0  0  0
  -21.6845   -3.8106   22.7063 C   0  0  0  0  0  0  0  0  0  0  0  0
  -20.7783   -5.7882   23.7574 C   0  0  0  0  0  0  0  0  0  0  0  0
  -28.6106  -18.7507   20.6247 C   0  0  0  0  0  0  0  0  0  0  0  0
  -24.6357  -11.5410   21.3273 C   0  0  0  0  0  0  0  0  0  0  0  0
  -25.0115  -13.3112   20.0783 C   0  0  0  0  0  0  0  0  0  0  0  0
  -29.7553  -23.8229   20.4410 C   0  0  0  0  0  0  0  0  0  0  0  0
  -22.6201  -13.0305   20.7498 C   0  0  0  0  0  0  0  0  0  0  0  0
  -24.2170  -30.5879   23.1077 C   0  0  0  0  0  0  0  0  0  0  0  0
  -21.8131  -30.2790   20.9517 C   0  0  0  0  0  0  0  0  0  0  0  0
  -20.6885  -28.8861   18.0462 C   0  0  0  0  0  0  0  0  0  0  0  0
  -30.1772  -15.3852   19.9492 C   0  0  0  0  0  0  0  0  0  0  0  0
  -25.4772  -33.8029   26.8671 C   0  0  0  0  0  0  0  0  0  0  0  0
  -25.4123  -31.0911   20.9457 C   0  0  0  0  0  0  0  0  0  0  0  0
  -23.7381  -28.6626   20.7348 C   0  0  0  0  0  0  0  0  0  0  0  0
  -24.1800  -33.3745   26.1859 C   0  0  0  0  0  0  0  0  0  0  0  0
  -31.3054  -23.2353   18.0246 C   0  0  0  0  0  0  0  0  0  0  0  0
  -29.7928  -11.9389   19.1416 C   0  0  0  0  0  0  0  0  0  0  0  0
  -24.0981  -31.8536   26.1020 C   0  0  0  0  0  0  0  0  0  0  0  0
  -30.8955  -24.6636   18.3257 C   0  0  0  0  0  0  0  0  0  0  0  0
  -28.3646  -11.6189   19.5888 C   0  0  0  0  0  0  0  0  0  0  0  0
  -31.5895  -22.5018   19.3211 C   0  0  0  0  0  0  0  0  0  0  0  0
  -30.4769  -12.9224   20.0895 C   0  0  0  0  0  0  0  0  0  0  0  0
  -28.3014  -13.8404   20.7920 C   0  0  0  0  0  0  0  0  0  0  0  0
  -25.2481  -31.2847   25.2622 C   0  0  1  0  0  0  0  0  0  0  0  0
  -29.6210  -24.6508   19.1608 C   0  0  2  0  0  0  0  0  0  0  0  0
  -24.0710  -30.9755   21.6633 C   0  0  1  0  0  0  0  0  0  0  0  0
  -27.5491  -12.9038   19.8325 C   0  0  2  0  0  0  0  0  0  0  0  0
  -32.7344  -19.7640   21.1870 C   0  0  0  0  0  0  0  0  0  0  0  0
  -27.9102  -21.1137   21.1304 C   0  0  0  0  0  0  0  0  0  0  0  0
  -18.6686  -28.7904   16.5601 C   0  0  0  0  0  0  0  0  0  0  0  0
  -20.4526  -28.3924   22.9264 C   0  0  0  0  0  0  0  0  0  0  0  0
  -18.9813  -27.6100   21.0580 C   0  0  0  0  0  0  0  0  0  0  0  0
  -18.9104  -29.9956   21.7836 C   0  0  0  0  0  0  0  0  0  0  0  0
  -22.1695  -30.0492   15.7631 C   0  0  0  0  0  0  0  0  0  0  0  0
  -30.6804  -21.8032   21.5100 C   0  0  0  0  0  0  0  0  0  0  0  0
  -29.1808  -26.0801   19.4761 C   0  0  0  0  0  0  0  0  0  1  0  0
  -20.9188  -29.1489   20.5023 C   0  0  1  0  0  0  0  0  0  0  0  0
  -19.9876  -29.4922   16.8438 C   0  0  2  0  0  0  0  0  0  0  0  0
  -19.8441  -28.7851   21.5654 C   0  0  0  0  0  0  0  0  0  0  0  0
  -25.9485  -11.5061   21.0838 N   0  0  0  0  0  0  0  0  0  0  0  0
  -26.1465  -12.5952   20.3218 N   0  0  0  0  0  0  0  0  0  0  0  0
  -30.5883  -22.7038   20.3681 N   0  0  0  0  0  0  0  0  0  0  0  0
  -23.1820  -29.9901   21.0446 N   0  0  0  0  0  0  0  0  0  0  0  0
  -29.6487  -14.1168   20.2694 N   0  0  0  0  0  0  0  0  0  0  0  0
  -25.0313  -14.4347   19.3301 N   0  0  0  0  0  0  0  0  0  0  0  0
  -22.1824  -13.8816   21.7737 N   0  0  0  0  0  0  0  0  0  0  0  0
  -29.2868  -16.4432   20.1299 N   0  0  0  0  0  0  0  0  0  0  0  0
  -24.9817  -31.4663   23.8514 N   0  0  0  0  0  0  0  0  0  0  0  0
  -20.3703  -29.5510   19.2116 N   0  0  0  0  0  0  0  0  0  0  0  0
  -20.8486  -29.3820   15.6324 N   0  3  0  0  0  0  0  0  0  0  0  0
  -29.0779  -24.1015   21.4344 O   0  0  0  0  0  0  0  0  0  0  0  0
  -21.7955  -12.6198   19.8983 O   0  0  0  0  0  0  0  0  0  0  0  0
  -23.6747  -29.5682   23.5174 O   0  0  0  0  0  0  0  0  0  0  0  0
  -21.3165  -31.3796   21.2039 O   0  0  0  0  0  0  0  0  0  0  0  0
  -21.4398  -27.9173   17.9608 O   0  0  0  0  0  0  0  0  0  0  0  0
  -31.3254  -15.5200   19.5186 O   0  0  0  0  0  0  0  0  0  0  0  0
  -22.2542   -7.5605   24.4500 O   0  0  0  0  0  0  0  0  0  0  0  0
  -27.7693  -26.0964   19.6852 O   0  0  0  0  0  0  0  0  0  1  0  0
  -21.5022   -2.6081   22.1451 F   0  0  0  0  0  0  0  0  0  0  0  0
  -19.7213   -6.4802   24.2043 F   0  0  0  0  0  0  0  0  0  0  0  0
  -26.9432  -18.3312   20.3961 Cl  0  0  0  0  0  0  0  0  0  0  0  0
  1  2  1  0  0  0  0
  1  5  2  0  0  0  0
  2  6  2  0  0  0  0
  3  8  2  0  0  0  0
  3 16  1  0  0  0  0
  4  9  1  0  0  0  0
  4 16  2  0  0  0  0
  5 18  1  0  0  0  0
  6 20  1  0  0  0  0
  7 10  2  0  0  0  0
  7 19  1  0  0  0  0
  8 26  1  0  0  0  0
  9 26  2  0  0  0  0
 10 27  1  0  0  0  0
 11 12  2  0  0  0  0
 11 28  1  0  0  0  0
 12 29  1  0  0  0  0
 13 21  1  0  0  0  0
 13 27  2  0  0  0  0
 14 22  2  0  0  0  0
 14 25  1  0  0  0  0
 15 29  2  0  0  0  0
 15 30  1  0  0  0  0
 16 32  1  0  0  0  0
 17 32  1  0  0  0  0
 17 33  2  0  0  0  0
 17 35  1  0  0  0  0
 18 20  2  0  0  0  0
 18 40  1  0  0  0  0
 19 21  2  0  0  0  0
 19 41  1  0  0  0  0
 20 52  1  0  0  0  0
 21 42  1  0  0  0  0
 22 23  1  0  0  0  0
 22 56  1  0  0  0  0
 23 24  2  0  0  0  0
 23 63  1  0  0  0  0
 24 31  1  0  0  0  0
 24 57  1  0  0  0  0
 25 31  2  0  0  0  0
 25 75  1  0  0  0  0
 26 85  1  0  0  0  0
 27 86  1  0  0  0  0
 28 30  2  0  0  0  0
 28 85  1  0  0  0  0
 29 87  1  0  0  0  0
 30 88  1  0  0  0  0
 31 89  1  0  0  0  0
 32 68  2  0  0  0  0
 33 69  1  0  0  0  0
 33 73  1  0  0  0  0
 34 53  1  0  0  0  0
 34 70  1  0  0  0  0
 34 79  2  0  0  0  0
 35 74  1  0  0  0  0
 35 80  2  0  0  0  0
 36 54  1  0  0  0  0
 36 76  1  0  0  0  0
 36 81  2  0  0  0  0
 37 65  1  0  0  0  0
 37 71  1  0  0  0  0
 37 82  2  0  0  0  0
 38 66  1  0  0  0  0
 38 77  1  0  0  0  0
 38 83  2  0  0  0  0
 39 72  1  0  0  0  0
 39 75  1  0  0  0  0
 39 84  2  0  0  0  0
 40 43  1  0  0  0  0
 41 54  1  0  0  0  0
 42 71  1  0  0  0  0
 43 46  1  0  0  0  0
 44 47  1  0  0  0  0
 44 49  1  0  0  0  0
 45 48  1  0  0  0  0
 45 50  1  0  0  0  0
 46 52  1  0  0  0  0
 47 53  1  0  0  0  0
 48 55  1  0  0  0  0
 49 70  1  0  0  0  0
 50 72  1  0  0  0  0
 51 55  1  0  0  0  0
 51 72  1  0  0  0  0
 52 76  1  0  0  0  0
 53 64  1  0  0  0  0
 54 71  1  0  0  0  0
 55 69  1  0  0  0  0
 58 66  1  0  0  0  0
 59 67  1  0  0  0  0
 60 67  1  0  0  0  0
 61 67  1  0  0  0  0
 62 78  1  0  0  0  0
 63 70  1  0  0  0  0
 64 86  1  0  0  0  0
 65 67  1  0  0  0  0
 65 77  1  0  0  0  0
 66 78  1  0  0  0  0
 68 69  1  0  0  0  0
M  CHG  1  78   1
M  ISO  4  39 100  64 101  75 100  86 101
M  END
> <Batch ID>
0049

> <Smiles>
CNC(C)C(=O)NC(C(=O)N1Cc2cc([101O:1][101CH2:1]C3CCCN(Cc4c(C)cc([100NH:0][100C:0](=O)N5CCCC(n6nc(-c7ccc(Oc8ccc(F)cc8F)cc7)c(C(N)=O)c6N)C5)c(Cl)c4C)C3=O)ccc2CC1C(=O)NC1CCCc2ccccc21)C(C)(C)C

> <Shape>
0.389

> <Color>
0.138

> <Negative vol penalty>
0.000

$$$$

  -OEChem-04042322323D

 90 99  0     1  0  0  0  0  0999 V2000
  -16.6403  -25.0219   23.7137 C   0  0  0  0  0  0  0  0  0  0  0  0
  -17.2834  -24.3250   22.6958 C   0  0  0  0  0  0  0  0  0  0  0  0
  -24.9381  -13.9929   21.8004 C   0  0  0  0  0  0  0  0  0  0  0  0
  -26.1526  -14.0707   19.7133 C   0  0  0  0  0  0  0  0  0  0  0  0
  -17.0400  -26.3199   24.0287 C   0  0  0  0  0  0  0  0  0  0  0  0
  -18.3259  -24.9263   21.9914 C   0  0  0  0  0  0  0  0  0  0  0  0
  -23.3117  -22.1772   19.7354 C   0  0  0  0  0  0  0  0  0  0  0  0
  -29.9739  -24.8256   15.8392 C   0  0  0  0  0  0  0  0  0  0  0  0
  -29.4649  -25.4855   14.7208 C   0  0  0  0  0  0  0  0  0  0  0  0
  -24.1770  -12.9283   21.3179 C   0  0  0  0  0  0  0  0  0  0  0  0
  -25.3915  -13.0061   19.2308 C   0  0  0  0  0  0  0  0  0  0  0  0
  -23.6330  -21.7179   18.4588 C   0  0  0  0  0  0  0  0  0  0  0  0
  -24.5464   -9.5946   20.8899 C   0  0  0  0  0  0  0  0  0  0  0  0
  -24.3410   -8.5073   21.7391 C   0  0  0  0  0  0  0  0  0  0  0  0
  -24.7940  -23.7851   18.0139 C   0  0  0  0  0  0  0  0  0  0  0  0
  -28.8038  -22.8154   15.1856 C   0  0  0  0  0  0  0  0  0  0  0  0
  -21.9545   -8.8645   21.6193 C   0  0  0  0  0  0  0  0  0  0  0  0
  -25.9258  -14.5642   20.9981 C   0  0  0  0  0  0  0  0  0  0  0  0
  -27.5455  -15.6689   22.6303 C   0  0  0  0  0  0  0  0  0  0  0  0
  -18.0942  -26.9339   23.3343 C   0  0  0  0  0  0  0  0  0  0  0  0
  -23.7205  -23.4504   20.1576 C   0  0  0  0  0  0  0  0  0  0  0  0
  -18.7391  -26.2343   22.2965 C   0  0  0  0  0  0  0  0  0  0  0  0
  -24.4788  -24.2572   19.2973 C   0  0  0  0  0  0  0  0  0  0  0  0
  -29.6434  -23.4905   16.0716 C   0  0  0  0  0  0  0  0  0  0  0  0
  -28.6253  -24.8104   13.8347 C   0  0  0  0  0  0  0  0  0  0  0  0
  -28.2948  -23.4753   14.0671 C   0  0  0  0  0  0  0  0  0  0  0  0
  -24.4037  -12.4348   20.0331 C   0  0  0  0  0  0  0  0  0  0  0  0
  -24.3718  -22.5231   17.5968 C   0  0  0  0  0  0  0  0  0  0  0  0
  -23.4559  -10.3170   20.4055 C   0  0  0  0  0  0  0  0  0  0  0  0
  -23.0451   -8.1422   22.1037 C   0  0  0  0  0  0  0  0  0  0  0  0
  -22.1600   -9.9519   20.7702 C   0  0  0  0  0  0  0  0  0  0  0  0
  -26.7120  -15.6644   21.4959 C   0  0  0  0  0  0  0  0  0  0  0  0
  -28.0627  -16.9406   22.6713 C   0  0  0  0  0  0  0  0  0  0  0  0
  -27.8272  -14.6175   23.5635 C   0  0  0  0  0  0  0  0  0  0  0  0
  -22.2203  -26.1017   21.0650 C   0  0  0  0  0  0  0  0  0  0  0  0
  -25.2304  -27.1123   21.7286 C   0  0  0  0  0  0  0  0  0  0  0  0
  -28.5786  -26.8315   21.1308 C   0  0  0  0  0  0  0  0  0  0  0  0
  -29.0033  -20.9429   18.4343 C   0  0  0  0  0  0  0  0  0  0  0  0
  -18.4595  -28.3561   23.6788 C   0  0  0  0  0  0  0  0  0  0  0  0
  -23.3887  -23.9204   21.5474 C   0  0  0  0  0  0  0  0  0  0  0  0
  -24.9591  -25.6238   19.7097 C   0  0  0  0  0  0  0  0  0  0  0  0
  -19.8205  -28.7840   23.1358 C   0  0  0  0  0  0  0  0  0  0  0  0
  -27.0301  -21.4451   21.4262 C   0  0  0  0  0  0  0  0  0  0  0  0
  -19.9676  -28.3677   21.6757 C   0  0  0  0  0  0  0  0  0  0  0  0
  -26.8067  -20.0042   21.8887 C   0  0  0  0  0  0  0  0  0  0  0  0
  -23.2833  -22.0049   14.3776 C   0  0  0  0  0  0  0  0  0  0  0  0
  -24.0407  -20.8875   13.6695 C   0  0  0  0  0  0  0  0  0  0  0  0
  -26.9878  -21.5501   19.9046 C   0  0  0  0  0  0  0  0  0  0  0  0
  -27.7220  -19.2104   19.6589 C   0  0  0  0  0  0  0  0  0  0  0  0
  -25.4043  -23.3663   14.4621 C   0  0  0  0  0  0  0  0  0  0  0  0
  -19.8905  -26.8435   21.5262 C   0  0  1  0  0  0  0  0  0  0  0  0
  -23.4169  -25.4393   21.6871 C   0  0  1  0  0  0  0  0  0  0  0  0
  -27.7757  -19.0340   21.1873 C   0  0  2  0  0  0  0  0  0  0  0  0
  -24.2098  -22.8454   15.2472 C   0  0  2  0  0  0  0  0  0  1  0  0
  -25.2343  -21.4140   12.8637 C   0  0  2  0  0  0  0  0  0  0  0  0
  -25.9959  -20.2434   12.2450 C   0  0  0  0  0  0  0  0  0  0  0  0
  -30.7880  -27.8180   21.7962 C   0  0  0  0  0  0  0  0  0  0  0  0
  -28.5823  -26.9824   12.5938 C   0  0  0  0  0  0  0  0  0  0  0  0
  -24.6554  -29.5600   20.0000 C   0  0  0  0  0  0  0  0  0  0  0  0
  -27.1193  -29.9974   19.9222 C   0  0  0  0  0  0  0  0  0  0  0  0
  -25.9146  -30.0428   22.1061 C   0  0  0  0  0  0  0  0  0  0  0  0
  -29.5492  -24.2415   22.1839 C   0  0  0  0  0  0  0  0  0  0  0  0
  -30.1873  -22.7853   17.2678 C   0  0  0  0  0  0  0  0  0  0  0  0
  -27.3934  -22.7290   13.1283 C   0  0  0  0  0  0  0  0  0  0  0  0
  -26.3129  -27.8267   20.9561 C   0  0  1  0  0  0  0  0  0  0  0  0
  -29.7647  -26.7275   22.0725 C   0  0  2  0  0  0  0  0  0  0  0  0
  -28.0916  -25.5382   12.6447 C   0  0  0  0  0  0  0  0  0  0  0  0
  -25.9900  -29.3318   20.7373 C   0  0  0  0  0  0  0  0  0  0  0  0
  -26.6974  -16.8400   20.8621 N   0  0  0  0  0  0  0  0  0  0  0  0
  -27.5281  -17.5952   21.6009 N   0  0  0  0  0  0  0  0  0  0  0  0
  -24.6038  -26.0411   21.0761 N   0  0  0  0  0  0  0  0  0  0  0  0
  -27.9462  -20.6146   19.2992 N   0  0  0  0  0  0  0  0  0  0  0  0
  -28.9180  -17.5517   23.5183 N   0  0  0  0  0  0  0  0  0  0  0  0
  -28.9078  -13.7640   23.3023 N   0  0  0  0  0  0  0  0  0  0  0  0
  -21.1424  -26.2331   21.9196 N   0  0  0  0  0  0  0  0  0  0  0  0
  -27.5579  -27.5813   21.6760 N   0  0  0  0  0  0  0  0  0  0  0  0
  -29.1427  -22.2933   18.1383 N   0  0  0  0  0  0  0  0  0  0  0  0
  -26.1394  -22.2156   13.7948 N   0  3  1  0  0  0  0  0  0  0  0  0
  -30.4341  -25.4049   21.9184 N   0  3  0  0  0  0  0  0  0  0  0  0
  -27.1309  -14.4299   24.5900 O   0  0  0  0  0  0  0  0  0  0  0  0
  -22.2717  -26.4680   19.8967 O   0  0  0  0  0  0  0  0  0  0  0  0
  -24.9559  -27.4863   22.8716 O   0  0  0  0  0  0  0  0  0  0  0  0
  -28.5610  -26.3038   20.0210 O   0  0  0  0  0  0  0  0  0  0  0  0
  -29.7701  -20.0953   17.9643 O   0  0  0  0  0  0  0  0  0  0  0  0
  -23.6614  -11.3958   19.5619 O   0  0  0  0  0  0  0  0  0  0  0  0
  -24.6862  -22.0775   16.3500 O   0  0  0  0  0  0  0  0  0  1  0  0
  -22.8479   -7.0970   22.9179 F   0  0  0  0  0  0  0  0  0  0  0  0
  -21.1083  -10.6414   20.3070 F   0  0  0  0  0  0  0  0  0  0  0  0
  -26.7216  -25.5770   12.6123 F   0  0  0  0  0  0  0  0  0  0  0  0
  -28.4441  -24.9510   11.4570 F   0  0  0  0  0  0  0  0  0  0  0  0
  1  2  1  0  0  0  0
  1  5  2  0  0  0  0
  2  6  2  0  0  0  0
  3 10  2  0  0  0  0
  3 18  1  0  0  0  0
  4 11  1  0  0  0  0
  4 18  2  0  0  0  0
  5 20  1  0  0  0  0
  6 22  1  0  0  0  0
  7 12  2  0  0  0  0
  7 21  1  0  0  0  0
  8  9  2  0  0  0  0
  8 24  1  0  0  0  0
  9 25  1  0  0  0  0
 10 27  1  0  0  0  0
 11 27  2  0  0  0  0
 12 28  1  0  0  0  0
 13 14  2  0  0  0  0
 13 29  1  0  0  0  0
 14 30  1  0  0  0  0
 15 23  1  0  0  0  0
 15 28  2  0  0  0  0
 16 24  2  0  0  0  0
 16 26  1  0  0  0  0
 17 30  2  0  0  0  0
 17 31  1  0  0  0  0
 18 32  1  0  0  0  0
 19 32  1  0  0  0  0
 19 33  2  0  0  0  0
 19 34  1  0  0  0  0
 20 22  2  0  0  0  0
 20 39  1  0  0  0  0
 21 23  2  0  0  0  0
 21 40  1  0  0  0  0
 22 51  1  0  0  0  0
 23 41  1  0  0  0  0
 24 63  1  0  0  0  0
 25 26  2  0  0  0  0
 25 67  1  0  0  0  0
 26 64  1  0  0  0  0
 27 85  1  0  0  0  0
 28 86  1  0  0  0  0
 29 31  2  0  0  0  0
 29 85  1  0  0  0  0
 30 87  1  0  0  0  0
 31 88  1  0  0  0  0
 32 69  2  0  0  0  0
 33 70  1  0  0  0  0
 33 73  1  0  0  0  0
 34 74  1  0  0  0  0
 34 80  2  0  0  0  0
 35 52  1  0  0  0  0
 35 75  1  0  0  0  0
 35 81  2  0  0  0  0
 36 65  1  0  0  0  0
 36 71  1  0  0  0  0
 36 82  2  0  0  0  0
 37 66  1  0  0  0  0
 37 76  1  0  0  0  0
 37 83  2  0  0  0  0
 38 72  1  0  0  0  0
 38 77  1  0  0  0  0
 38 84  2  0  0  0  0
 39 42  1  0  0  0  0
 40 52  1  0  0  0  0
 41 71  1  0  0  0  0
 42 44  1  0  0  0  0
 43 45  1  0  0  0  0
 43 48  1  0  0  0  0
 44 51  1  0  0  0  0
 45 53  1  0  0  0  0
 46 47  1  0  0  0  0
 46 54  1  0  0  0  0
 47 55  1  0  0  0  0
 48 72  1  0  0  0  0
 49 53  1  0  0  0  0
 49 72  1  0  0  0  0
 50 54  1  0  0  0  0
 50 78  1  0  0  0  0
 51 75  1  0  0  0  0
 52 71  1  0  0  0  0
 53 70  1  0  0  0  0
 54 86  1  0  0  0  0
 55 56  1  0  0  0  0
 55 78  1  0  0  0  0
 57 66  1  0  0  0  0
 58 67  1  0  0  0  0
 59 68  1  0  0  0  0
 60 68  1  0  0  0  0
 61 68  1  0  0  0  0
 62 79  1  0  0  0  0
 63 77  1  0  0  0  0
 64 78  1  0  0  0  0
 65 68  1  0  0  0  0
 65 76  1  0  0  0  0
 66 79  1  0  0  0  0
 67 89  1  0  0  0  0
 67 90  1  0  0  0  0
 69 70  1  0  0  0  0
M  CHG  2  78   1  79   1
M  ISO  4  38 100  54 101  77 100  86 101
M  END
> <Batch ID>
0049

> <Smiles>
CNC(C)C(=O)NC(C(=O)N1Cc2cc([101O:1][101CH:1]3CCC(C)N(Cc4cc(C[100NH:0][100C:0](=O)N5CCCC(n6nc(-c7ccc(Oc8ccc(F)cc8F)cc7)c(C(N)=O)c6N)C5)ccc4C(C)(F)F)C3)ccc2CC1C(=O)NC1CCCc2ccccc21)C(C)(C)C

> <Shape>
0.206

> <Color>
0.061

> <Negative vol penalty>
0.000

$$$$

  -OEChem-04042322323D

 87 96  0     1  0  0  0  0  0999 V2000
  -19.2884  -25.9544   23.1192 C   0  0  0  0  0  0  0  0  0  0  0  0
  -19.9929  -25.7431   21.9383 C   0  0  0  0  0  0  0  0  0  0  0  0
  -28.2836  -17.0875   19.8035 C   0  0  0  0  0  0  0  0  0  0  0  0
  -26.9710  -18.5261   21.2333 C   0  0  0  0  0  0  0  0  0  0  0  0
  -19.3569  -27.1915   23.7586 C   0  0  0  0  0  0  0  0  0  0  0  0
  -20.7655  -26.7693   21.3955 C   0  0  0  0  0  0  0  0  0  0  0  0
  -25.3195  -25.1701   19.8632 C   0  0  0  0  0  0  0  0  0  0  0  0
  -27.2162  -16.1932   19.7234 C   0  0  0  0  0  0  0  0  0  0  0  0
  -25.9035  -17.6318   21.1533 C   0  0  0  0  0  0  0  0  0  0  0  0
  -25.3799  -24.4911   18.6470 C   0  0  0  0  0  0  0  0  0  0  0  0
  -25.8418  -13.7774   21.6468 C   0  0  0  0  0  0  0  0  0  0  0  0
  -26.1226  -12.4193   21.7960 C   0  0  0  0  0  0  0  0  0  0  0  0
  -26.1343  -26.5103   17.5641 C   0  0  0  0  0  0  0  0  0  0  0  0
  -31.8887  -22.3539   13.5376 C   0  0  0  0  0  0  0  0  0  0  0  0
  -25.2438  -11.9947   19.5859 C   0  0  0  0  0  0  0  0  0  0  0  0
  -30.2801  -21.3823   12.0193 C   0  0  0  0  0  0  0  0  0  0  0  0
  -28.1610  -18.2540   20.5585 C   0  0  0  0  0  0  0  0  0  0  0  0
  -30.5541  -18.9186   21.1408 C   0  0  0  0  0  0  0  0  0  0  0  0
  -20.1384  -28.2302   23.2286 C   0  0  0  0  0  0  0  0  0  0  0  0
  -25.6562  -26.5293   19.9370 C   0  0  0  0  0  0  0  0  0  0  0  0
  -20.8434  -28.0218   22.0277 C   0  0  0  0  0  0  0  0  0  0  0  0
  -26.0798  -27.2036   18.7829 C   0  0  0  0  0  0  0  0  0  0  0  0
  -30.9163  -23.2402   14.0007 C   0  0  0  0  0  0  0  0  0  0  0  0
  -29.6258  -23.1976   13.4732 C   0  0  0  0  0  0  0  0  0  0  0  0
  -26.0262  -16.4653   20.3983 C   0  0  0  0  0  0  0  0  0  0  0  0
  -25.7846  -25.1619   17.4967 C   0  0  0  0  0  0  0  0  0  0  0  0
  -25.2619  -14.2442   20.4671 C   0  0  0  0  0  0  0  0  0  0  0  0
  -25.8237  -11.5280   20.7656 C   0  0  0  0  0  0  0  0  0  0  0  0
  -24.9629  -13.3528   19.4367 C   0  0  0  0  0  0  0  0  0  0  0  0
  -31.5706  -21.4249   12.5469 C   0  0  0  0  0  0  0  0  0  0  0  0
  -29.3076  -22.2686   12.4824 C   0  0  0  0  0  0  0  0  0  0  0  0
  -29.2634  -19.1780   20.6420 C   0  0  0  0  0  0  0  0  0  0  0  0
  -31.2218  -20.1109   21.0021 C   0  0  0  0  0  0  0  0  0  0  0  0
  -27.7922  -23.8177   15.0550 C   0  0  0  0  0  0  0  0  0  0  0  0
  -31.1006  -17.7082   21.6810 C   0  0  0  0  0  0  0  0  0  0  0  0
  -24.0998  -29.1860   20.7265 C   0  0  0  0  0  0  0  0  0  0  0  0
  -27.0316  -30.5356   20.4016 C   0  0  0  0  0  0  0  0  0  0  0  0
  -30.2202  -30.9439   18.7633 C   0  0  0  0  0  0  0  0  0  0  0  0
  -30.4891  -24.7928   17.3423 C   0  0  0  0  0  0  0  0  0  0  0  0
  -20.1438  -29.5653   23.9302 C   0  0  0  0  0  0  0  0  0  0  0  0
  -25.6115  -27.2406   21.2616 C   0  0  0  0  0  0  0  0  0  0  0  0
  -26.4714  -28.6577   18.8126 C   0  0  0  0  0  0  0  0  0  0  0  0
  -21.2834  -30.4803   23.4896 C   0  0  0  0  0  0  0  0  0  0  0  0
  -27.0612  -25.7628   12.9844 C   0  0  0  0  0  0  0  0  0  0  0  0
  -30.4688  -24.8347   20.9024 C   0  0  0  0  0  0  0  0  0  0  0  0
  -21.3952  -30.4993   21.9684 C   0  0  0  0  0  0  0  0  0  0  0  0
  -26.0904  -25.3667   14.0955 C   0  0  0  0  0  0  0  0  0  0  0  0
  -30.2740  -23.3663   21.2844 C   0  0  0  0  0  0  0  0  0  0  0  0
  -28.5084  -25.4434   13.3423 C   0  0  0  0  0  0  0  0  0  0  0  0
  -29.6793  -25.2009   19.6475 C   0  0  0  0  0  0  0  0  0  0  0  0
  -29.7372  -22.8650   18.8638 C   0  0  0  0  0  0  0  0  0  0  0  0
  -21.7121  -29.1023   21.4211 C   0  0  1  0  0  0  0  0  0  0  0  0
  -26.8100  -24.9449   15.3719 C   0  0  1  0  0  0  0  0  0  1  0  0
  -25.4834  -28.7545   21.1228 C   0  0  1  0  0  0  0  0  0  0  0  0
  -30.5581  -22.4341   20.0912 C   0  0  2  0  0  0  0  0  0  0  0  0
  -32.1828  -32.3928   19.3513 C   0  0  0  0  0  0  0  0  0  0  0  0
  -25.7594  -32.5377   18.4825 C   0  0  0  0  0  0  0  0  0  0  0  0
  -28.0588  -33.1376   17.6943 C   0  0  0  0  0  0  0  0  0  0  0  0
  -27.4168  -33.5259   20.0733 C   0  0  0  0  0  0  0  0  0  0  0  0
  -32.0671  -28.6315   18.7900 C   0  0  0  0  0  0  0  0  0  0  0  0
  -31.2888  -24.2237   15.0628 C   0  0  0  0  0  0  0  0  0  0  0  0
  -27.8000  -31.1619   19.2630 C   0  0  1  0  0  0  0  0  0  0  0  0
  -31.5835  -30.9973   19.4287 C   0  0  2  0  0  0  0  0  0  0  0  0
  -27.2496  -32.5639   18.8770 C   0  0  0  0  0  0  0  0  0  0  0  0
  -29.1176  -20.4363   20.2183 N   0  0  0  0  0  0  0  0  0  0  0  0
  -30.3253  -20.9782   20.4505 N   0  0  0  0  0  0  0  0  0  0  0  0
  -28.6332  -24.1172   13.9599 N   0  0  0  0  0  0  0  0  0  0  0  0
  -26.4050  -29.3110   20.1303 N   0  0  0  0  0  0  0  0  0  0  0  0
  -29.9957  -24.2798   18.5532 N   0  0  0  0  0  0  0  0  0  0  0  0
  -32.4824  -20.4915   21.2994 N   0  0  0  0  0  0  0  0  0  0  0  0
  -31.7229  -16.8073   20.8062 N   0  0  0  0  0  0  0  0  0  0  0  0
  -23.1129  -28.7915   21.6095 N   0  0  0  0  0  0  0  0  0  0  0  0
  -29.2018  -31.1609   19.6672 N   0  0  0  0  0  0  0  0  0  0  0  0
  -30.7693  -23.8510   16.3598 N   0  0  0  0  0  0  0  0  0  0  0  0
  -32.5206  -30.0460   18.7669 N   0  3  0  0  0  0  0  0  0  0  0  0
  -27.7684  -22.7711   15.7003 O   0  0  0  0  0  0  0  0  0  0  0  0
  -31.0244  -17.4260   22.9009 O   0  0  0  0  0  0  0  0  0  0  0  0
  -23.9397  -29.8307   19.6967 O   0  0  0  0  0  0  0  0  0  0  0  0
  -26.9949  -31.1081   21.4936 O   0  0  0  0  0  0  0  0  0  0  0  0
  -30.0734  -30.7346   17.5611 O   0  0  0  0  0  0  0  0  0  0  0  0
  -30.6717  -26.0001   17.1527 O   0  0  0  0  0  0  0  0  0  0  0  0
  -24.9844  -15.5929   20.3202 O   0  0  0  0  0  0  0  0  0  0  0  0
  -25.8438  -24.5017   16.3082 O   0  0  0  0  0  0  0  0  0  1  0  0
  -26.0948  -10.2240   20.9084 F   0  0  0  0  0  0  0  0  0  0  0  0
  -24.4068  -13.7955   18.3006 F   0  0  0  0  0  0  0  0  0  0  0  0
  -32.7708  -20.3315   11.9757 Cl  0  0  0  0  0  0  0  0  0  0  0  0
  -27.7226  -22.1789   11.7995 Cl  0  0  0  0  0  0  0  0  0  0  0  0
  1  2  1  0  0  0  0
  1  5  2  0  0  0  0
  2  6  2  0  0  0  0
  3  8  2  0  0  0  0
  3 17  1  0  0  0  0
  4  9  1  0  0  0  0
  4 17  2  0  0  0  0
  5 19  1  0  0  0  0
  6 21  1  0  0  0  0
  7 10  2  0  0  0  0
  7 20  1  0  0  0  0
  8 25  1  0  0  0  0
  9 25  2  0  0  0  0
 10 26  1  0  0  0  0
 11 12  2  0  0  0  0
 11 27  1  0  0  0  0
 12 28  1  0  0  0  0
 13 22  1  0  0  0  0
 13 26  2  0  0  0  0
 14 23  1  0  0  0  0
 14 30  2  0  0  0  0
 15 28  2  0  0  0  0
 15 29  1  0  0  0  0
 16 30  1  0  0  0  0
 16 31  2  0  0  0  0
 17 32  1  0  0  0  0
 18 32  1  0  0  0  0
 18 33  2  0  0  0  0
 18 35  1  0  0  0  0
 19 21  2  0  0  0  0
 19 40  1  0  0  0  0
 20 22  2  0  0  0  0
 20 41  1  0  0  0  0
 21 52  1  0  0  0  0
 22 42  1  0  0  0  0
 23 24  2  0  0  0  0
 23 61  1  0  0  0  0
 24 31  1  0  0  0  0
 24 67  1  0  0  0  0
 25 82  1  0  0  0  0
 26 83  1  0  0  0  0
 27 29  2  0  0  0  0
 27 82  1  0  0  0  0
 28 84  1  0  0  0  0
 29 85  1  0  0  0  0
 30 86  1  0  0  0  0
 31 87  1  0  0  0  0
 32 65  2  0  0  0  0
 33 66  1  0  0  0  0
 33 70  1  0  0  0  0
 34 53  1  0  0  0  0
 34 67  1  0  0  0  0
 34 76  2  0  0  0  0
 35 71  1  0  0  0  0
 35 77  2  0  0  0  0
 36 54  1  0  0  0  0
 36 72  1  0  0  0  0
 36 78  2  0  0  0  0
 37 62  1  0  0  0  0
 37 68  1  0  0  0  0
 37 79  2  0  0  0  0
 38 63  1  0  0  0  0
 38 73  1  0  0  0  0
 38 80  2  0  0  0  0
 39 69  1  0  0  0  0
 39 74  1  0  0  0  0
 39 81  2  0  0  0  0
 40 43  1  0  0  0  0
 41 54  1  0  0  0  0
 42 68  1  0  0  0  0
 43 46  1  0  0  0  0
 44 47  1  0  0  0  0
 44 49  1  0  0  0  0
 45 48  1  0  0  0  0
 45 50  1  0  0  0  0
 46 52  1  0  0  0  0
 47 53  1  0  0  0  0
 48 55  1  0  0  0  0
 49 67  1  0  0  0  0
 50 69  1  0  0  0  0
 51 55  1  0  0  0  0
 51 69  1  0  0  0  0
 52 72  1  0  0  0  0
 53 83  1  0  0  0  0
 54 68  1  0  0  0  0
 55 66  1  0  0  0  0
 56 63  1  0  0  0  0
 57 64  1  0  0  0  0
 58 64  1  0  0  0  0
 59 64  1  0  0  0  0
 60 75  1  0  0  0  0
 61 74  1  0  0  0  0
 62 64  1  0  0  0  0
 62 73  1  0  0  0  0
 63 75  1  0  0  0  0
 65 66  1  0  0  0  0
M  CHG  1  75   1
M  ISO  4  39 100  53 101  74 100  83 101
M  END
> <Batch ID>
0049

> <Smiles>
CNC(C)C(=O)NC(C(=O)N1Cc2cc([101O:1][101CH:1]3CCCN(c4c(Cl)cc(Cl)cc4C[100NH:0][100C:0](=O)N4CCCC(n5nc(-c6ccc(Oc7ccc(F)cc7F)cc6)c(C(N)=O)c5N)C4)C3=O)ccc2CC1C(=O)NC1CCCc2ccccc21)C(C)(C)C

> <Shape>
0.224

> <Color>
0.072

> <Negative vol penalty>
0.000

$$$$

  -OEChem-04042322323D

 85 93  0     1  0  0  0  0  0999 V2000
  -24.9839  -32.3122   29.3466 C   0  0  0  0  0  0  0  0  0  0  0  0
  -25.6174  -31.0746   29.3980 C   0  0  0  0  0  0  0  0  0  0  0  0
  -23.0790   -9.8595   19.9528 C   0  0  0  0  0  0  0  0  0  0  0  0
  -23.8262   -9.8887   22.2502 C   0  0  0  0  0  0  0  0  0  0  0  0
  -24.8248  -32.9623   28.1236 C   0  0  0  0  0  0  0  0  0  0  0  0
  -26.0911  -30.4860   28.2260 C   0  0  0  0  0  0  0  0  0  0  0  0
  -31.1137  -27.0366   27.6085 C   0  0  0  0  0  0  0  0  0  0  0  0
  -22.3340   -8.7087   20.2097 C   0  0  0  0  0  0  0  0  0  0  0  0
  -23.0810   -8.7379   22.5071 C   0  0  0  0  0  0  0  0  0  0  0  0
  -31.3036  -25.6562   27.5612 C   0  0  0  0  0  0  0  0  0  0  0  0
  -22.9051   -5.3933   20.5357 C   0  0  0  0  0  0  0  0  0  0  0  0
  -22.9774   -4.3547   19.6074 C   0  0  0  0  0  0  0  0  0  0  0  0
  -31.2874  -25.7427   25.1505 C   0  0  0  0  0  0  0  0  0  0  0  0
  -31.9003  -18.3655   24.1611 C   0  0  0  0  0  0  0  0  0  0  0  0
  -32.0535  -16.5991   22.5200 C   0  0  0  0  0  0  0  0  0  0  0  0
  -20.5948   -4.5166   19.2408 C   0  0  0  0  0  0  0  0  0  0  0  0
  -23.8252  -10.4495   20.9730 C   0  0  0  0  0  0  0  0  0  0  0  0
  -24.1673  -12.9735   20.8306 C   0  0  0  0  0  0  0  0  0  0  0  0
  -25.3054  -32.3858   26.9373 C   0  0  0  0  0  0  0  0  0  0  0  0
  -30.9981  -27.7801   26.4252 C   0  0  0  0  0  0  0  0  0  0  0  0
  -25.9371  -31.1284   26.9857 C   0  0  0  0  0  0  0  0  0  0  0  0
  -31.0987  -27.1327   25.1855 C   0  0  0  0  0  0  0  0  0  0  0  0
  -30.5125  -18.3744   24.0220 C   0  0  0  0  0  0  0  0  0  0  0  0
  -30.6656  -16.6079   22.3809 C   0  0  0  0  0  0  0  0  0  0  0  0
  -22.3349   -8.1479   21.4868 C   0  0  0  0  0  0  0  0  0  0  0  0
  -31.3876  -25.0086   26.3321 C   0  0  0  0  0  0  0  0  0  0  0  0
  -21.6777   -5.9935   20.8166 C   0  0  0  0  0  0  0  0  0  0  0  0
  -21.8223   -3.9164   18.9599 C   0  0  0  0  0  0  0  0  0  0  0  0
  -20.5226   -5.5552   20.1692 C   0  0  0  0  0  0  0  0  0  0  0  0
  -32.6709  -17.4780   23.4100 C   0  0  0  0  0  0  0  0  0  0  0  0
  -29.8951  -17.4956   23.1320 C   0  0  0  0  0  0  0  0  0  0  0  0
  -24.5955  -11.6380   20.7081 C   0  0  0  0  0  0  0  0  0  0  0  0
  -25.2614  -13.7196   20.4662 C   0  0  0  0  0  0  0  0  0  0  0  0
  -22.8945  -13.4930   21.2374 C   0  0  0  0  0  0  0  0  0  0  0  0
  -28.7280  -29.5830   25.1215 C   0  0  0  0  0  0  0  0  0  0  0  0
  -31.0368  -30.2248   22.9352 C   0  0  0  0  0  0  0  0  0  0  0  0
  -30.6538  -21.5582   25.5661 C   0  0  0  0  0  0  0  0  0  0  0  0
  -33.9237  -29.2490   21.3989 C   0  0  0  0  0  0  0  0  0  0  0  0
  -30.7263  -14.7680   20.6613 C   0  0  0  0  0  0  0  0  0  0  0  0
  -25.0681  -33.1046   25.6328 C   0  0  0  0  0  0  0  0  0  0  0  0
  -30.8203  -29.2722   26.4932 C   0  0  0  0  0  0  0  0  0  0  0  0
  -31.0012  -27.8881   23.8862 C   0  0  0  0  0  0  0  0  0  0  0  0
  -25.9317  -32.5861   24.4858 C   0  0  0  0  0  0  0  0  0  0  0  0
  -29.6255  -12.3312   18.3102 C   0  0  0  0  0  0  0  0  0  0  0  0
  -25.9096  -31.0613   24.4479 C   0  0  0  0  0  0  0  0  0  0  0  0
  -28.1835  -12.0435   18.7345 C   0  0  0  0  0  0  0  0  0  0  0  0
  -30.5339  -12.5718   19.5146 C   0  0  0  0  0  0  0  0  0  0  0  0
  -28.6192  -13.3091   20.8782 C   0  0  0  0  0  0  0  0  0  0  0  0
  -26.4865  -30.4690   25.7394 C   0  0  1  0  0  0  0  0  0  0  0  0
  -30.2012  -29.8583   25.2280 C   0  0  1  0  0  0  0  0  0  0  0  0
  -27.6529  -13.1243   19.6967 C   0  0  2  0  0  0  0  0  0  0  0  0
  -35.5504  -29.9628   19.6264 C   0  0  0  0  0  0  0  0  0  0  0  0
  -29.0541  -29.3756   20.7770 C   0  0  0  0  0  0  0  0  0  0  0  0
  -30.9751  -29.1946   19.1816 C   0  0  0  0  0  0  0  0  0  0  0  0
  -30.4124  -31.3971   20.2087 C   0  0  0  0  0  0  0  0  0  0  0  0
  -29.8831  -21.1836   23.2171 C   0  0  0  0  0  0  0  0  0  0  0  0
  -36.1573  -29.3761   23.3363 C   0  0  0  0  0  0  0  0  0  0  0  0
  -29.7242  -19.3469   24.8509 C   0  0  0  0  0  0  0  0  0  0  0  0
  -31.0213  -22.9705   25.1625 C   0  0  0  0  0  0  0  0  0  1  0  0
  -31.4793  -29.6016   21.6334 C   0  0  1  0  0  0  0  0  0  0  0  0
  -35.2128  -29.9964   21.1088 C   0  0  2  0  0  0  0  0  0  0  0  0
  -30.4801  -29.8774   20.4745 C   0  0  0  0  0  0  0  0  0  0  0  0
  -25.8627  -11.5384   20.2978 N   0  0  0  0  0  0  0  0  0  0  0  0
  -26.2401  -12.8208   20.1592 N   0  0  0  0  0  0  0  0  0  0  0  0
  -30.8212  -29.3445   24.0050 N   0  0  0  0  0  0  0  0  0  0  0  0
  -29.9699  -13.6109   20.3789 N   0  0  0  0  0  0  0  0  0  0  0  0
  -25.4720  -15.0504   20.3815 N   0  0  0  0  0  0  0  0  0  0  0  0
  -21.8808  -12.5869   21.5778 N   0  0  0  0  0  0  0  0  0  0  0  0
  -30.0743  -15.7007   21.4671 N   0  0  0  0  0  0  0  0  0  0  0  0
  -27.9321  -30.5377   25.7253 N   0  0  0  0  0  0  0  0  0  0  0  0
  -32.8314  -30.0903   21.3856 N   0  0  0  0  0  0  0  0  0  0  0  0
  -30.1091  -20.7303   24.5839 N   0  0  0  0  0  0  0  0  0  0  0  0
  -36.3452  -29.3880   21.8627 N   0  3  0  0  0  0  0  0  0  0  0  0
  -22.6577  -14.7241   21.2816 O   0  0  0  0  0  0  0  0  0  0  0  0
  -28.3418  -28.5795   24.5336 O   0  0  0  0  0  0  0  0  0  0  0  0
  -30.8948  -31.4482   23.0025 O   0  0  0  0  0  0  0  0  0  0  0  0
  -30.8565  -21.2024   26.7311 O   0  0  0  0  0  0  0  0  0  0  0  0
  -33.8888  -28.0390   21.6119 O   0  0  0  0  0  0  0  0  0  0  0  0
  -31.8580  -14.9324   20.1983 O   0  0  0  0  0  0  0  0  0  0  0  0
  -21.6078   -7.0250   21.7379 O   0  0  0  0  0  0  0  0  0  0  0  0
  -31.5722  -23.6613   26.2831 O   0  0  0  0  0  0  0  0  0  1  0  0
  -21.8920   -2.9201   18.0674 F   0  0  0  0  0  0  0  0  0  0  0  0
  -19.3408   -6.1288   20.4341 F   0  0  0  0  0  0  0  0  0  0  0  0
  -34.3834  -17.4673   23.5816 Cl  0  0  0  0  0  0  0  0  0  0  0  0
  -28.1697  -17.5113   22.9636 Cl  0  0  0  0  0  0  0  0  0  0  0  0
  1  2  1  0  0  0  0
  1  5  2  0  0  0  0
  2  6  2  0  0  0  0
  3  8  2  0  0  0  0
  3 17  1  0  0  0  0
  4  9  1  0  0  0  0
  4 17  2  0  0  0  0
  5 19  1  0  0  0  0
  6 21  1  0  0  0  0
  7 10  2  0  0  0  0
  7 20  1  0  0  0  0
  8 25  1  0  0  0  0
  9 25  2  0  0  0  0
 10 26  1  0  0  0  0
 11 12  2  0  0  0  0
 11 27  1  0  0  0  0
 12 28  1  0  0  0  0
 13 22  1  0  0  0  0
 13 26  2  0  0  0  0
 14 23  1  0  0  0  0
 14 30  2  0  0  0  0
 15 24  2  0  0  0  0
 15 30  1  0  0  0  0
 16 28  2  0  0  0  0
 16 29  1  0  0  0  0
 17 32  1  0  0  0  0
 18 32  1  0  0  0  0
 18 33  2  0  0  0  0
 18 34  1  0  0  0  0
 19 21  2  0  0  0  0
 19 40  1  0  0  0  0
 20 22  2  0  0  0  0
 20 41  1  0  0  0  0
 21 49  1  0  0  0  0
 22 42  1  0  0  0  0
 23 31  2  0  0  0  0
 23 58  1  0  0  0  0
 24 31  1  0  0  0  0
 24 69  1  0  0  0  0
 25 80  1  0  0  0  0
 26 81  1  0  0  0  0
 27 29  2  0  0  0  0
 27 80  1  0  0  0  0
 28 82  1  0  0  0  0
 29 83  1  0  0  0  0
 30 84  1  0  0  0  0
 31 85  1  0  0  0  0
 32 63  2  0  0  0  0
 33 64  1  0  0  0  0
 33 67  1  0  0  0  0
 34 68  1  0  0  0  0
 34 74  2  0  0  0  0
 35 50  1  0  0  0  0
 35 70  1  0  0  0  0
 35 75  2  0  0  0  0
 36 60  1  0  0  0  0
 36 65  1  0  0  0  0
 36 76  2  0  0  0  0
 37 59  1  0  0  0  0
 37 72  1  0  0  0  0
 37 77  2  0  0  0  0
 38 61  1  0  0  0  0
 38 71  1  0  0  0  0
 38 78  2  0  0  0  0
 39 66  1  0  0  0  0
 39 69  1  0  0  0  0
 39 79  2  0  0  0  0
 40 43  1  0  0  0  0
 41 50  1  0  0  0  0
 42 65  1  0  0  0  0
 43 45  1  0  0  0  0
 44 46  1  0  0  0  0
 44 47  1  0  0  0  0
 45 49  1  0  0  0  0
 46 51  1  0  0  0  0
 47 66  1  0  0  0  0
 48 51  1  0  0  0  0
 48 66  1  0  0  0  0
 49 70  1  0  0  0  0
 50 65  1  0  0  0  0
 51 64  1  0  0  0  0
 52 61  1  0  0  0  0
 53 62  1  0  0  0  0
 54 62  1  0  0  0  0
 55 62  1  0  0  0  0
 56 72  1  0  0  0  0
 57 73  1  0  0  0  0
 58 72  1  0  0  0  0
 59 81  1  0  0  0  0
 60 62  1  0  0  0  0
 60 71  1  0  0  0  0
 61 73  1  0  0  0  0
 63 64  1  0  0  0  0
M  CHG  1  73   1
M  ISO  4  39 100  59 101  69 100  81 101
M  END
> <Batch ID>
0049

> <Smiles>
CNC(C)C(=O)NC(C(=O)N1Cc2cc([101O:1][101CH2:1]C(=O)N(C)Cc3cc(Cl)cc([100NH:0][100C:0](=O)N4CCCC(n5nc(-c6ccc(Oc7ccc(F)cc7F)cc6)c(C(N)=O)c5N)C4)c3Cl)ccc2CC1C(=O)NC1CCCc2ccccc21)C(C)(C)C

> <Shape>
0.208

> <Color>
0.195

> <Negative vol penalty>
0.000

$$$$

  -OEChem-04042322323D

 85 93  0     1  0  0  0  0  0999 V2000
  -31.7461  -28.2988   17.5830 C   0  0  0  0  0  0  0  0  0  0  0  0
  -31.1590  -27.3759   18.4426 C   0  0  0  0  0  0  0  0  0  0  0  0
  -22.9734  -10.0365   20.0076 C   0  0  0  0  0  0  0  0  0  0  0  0
  -23.7578  -10.0273   22.2927 C   0  0  0  0  0  0  0  0  0  0  0  0
  -31.3746  -29.6412   17.6441 C   0  0  0  0  0  0  0  0  0  0  0  0
  -30.2007  -27.7952   19.3647 C   0  0  0  0  0  0  0  0  0  0  0  0
  -26.1916  -24.7063   19.5405 C   0  0  0  0  0  0  0  0  0  0  0  0
  -30.9730  -19.6800   21.3498 C   0  0  0  0  0  0  0  0  0  0  0  0
  -22.1782   -8.9224   20.2760 C   0  0  0  0  0  0  0  0  0  0  0  0
  -22.9626   -8.9132   22.5612 C   0  0  0  0  0  0  0  0  0  0  0  0
  -26.3378  -23.5128   20.2461 C   0  0  0  0  0  0  0  0  0  0  0  0
  -19.7069   -8.2756   23.2050 C   0  0  0  0  0  0  0  0  0  0  0  0
  -31.1034  -18.9269   20.1831 C   0  0  0  0  0  0  0  0  0  0  0  0
  -18.9618   -8.2821   24.3841 C   0  0  0  0  0  0  0  0  0  0  0  0
  -25.1984  -24.4950   22.1319 C   0  0  0  0  0  0  0  0  0  0  0  0
  -20.1175   -6.2941   25.1254 C   0  0  0  0  0  0  0  0  0  0  0  0
  -23.7632  -10.5889   21.0159 C   0  0  0  0  0  0  0  0  0  0  0  0
  -24.2236  -13.0937   20.8689 C   0  0  0  0  0  0  0  0  0  0  0  0
  -30.4042  -30.0755   18.5608 C   0  0  0  0  0  0  0  0  0  0  0  0
  -25.5562  -25.8086   20.1303 C   0  0  0  0  0  0  0  0  0  0  0  0
  -29.8168  -29.1449   19.4391 C   0  0  0  0  0  0  0  0  0  0  0  0
  -25.0431  -25.7006   21.4307 C   0  0  0  0  0  0  0  0  0  0  0  0
  -30.6069  -19.0586   22.5438 C   0  0  0  0  0  0  0  0  0  0  0  0
  -30.3711  -17.6841   22.5709 C   0  0  0  0  0  0  0  0  0  0  0  0
  -30.5014  -16.9310   21.4041 C   0  0  0  0  0  0  0  0  0  0  0  0
  -22.1728   -8.3607   21.5528 C   0  0  0  0  0  0  0  0  0  0  0  0
  -25.8438  -23.4079   21.5430 C   0  0  0  0  0  0  0  0  0  0  0  0
  -20.6573   -7.2783   22.9860 C   0  0  0  0  0  0  0  0  0  0  0  0
  -19.1671   -7.2914   25.3443 C   0  0  0  0  0  0  0  0  0  0  0  0
  -30.8676  -17.5524   20.2102 C   0  0  0  0  0  0  0  0  0  0  0  0
  -20.8626   -6.2876   23.9462 C   0  0  0  0  0  0  0  0  0  0  0  0
  -24.5853  -11.7394   20.7391 C   0  0  0  0  0  0  0  0  0  0  0  0
  -25.3462  -13.7870   20.4873 C   0  0  0  0  0  0  0  0  0  0  0  0
  -22.9838  -13.6732   21.2964 C   0  0  0  0  0  0  0  0  0  0  0  0
  -26.4422  -28.7639   20.8951 C   0  0  0  0  0  0  0  0  0  0  0  0
  -23.2997  -29.0992   21.6261 C   0  0  0  0  0  0  0  0  0  0  0  0
  -28.3543  -21.1937   23.6372 C   0  0  0  0  0  0  0  0  0  0  0  0
  -20.3577  -27.6159   22.5157 C   0  0  0  0  0  0  0  0  0  0  0  0
  -30.8576  -14.5721   20.5947 C   0  0  0  0  0  0  0  0  0  0  0  0
  -30.0695  -31.5448   18.6220 C   0  0  0  0  0  0  0  0  0  0  0  0
  -25.3828  -27.0803   19.3462 C   0  0  0  0  0  0  0  0  0  0  0  0
  -24.3350  -26.8481   22.1017 C   0  0  0  0  0  0  0  0  0  0  0  0
  -28.7742  -31.8437   19.3724 C   0  0  0  0  0  0  0  0  0  0  0  0
  -29.6035  -12.1936   18.2607 C   0  0  0  0  0  0  0  0  0  0  0  0
  -28.7274  -31.0696   20.6860 C   0  0  0  0  0  0  0  0  0  0  0  0
  -28.1564  -11.9748   18.7081 C   0  0  0  0  0  0  0  0  0  0  0  0
  -30.5416  -12.3889   19.4505 C   0  0  0  0  0  0  0  0  0  0  0  0
  -28.6866  -13.2156   20.8450 C   0  0  0  0  0  0  0  0  0  0  0  0
  -28.7555  -29.5569   20.4361 C   0  0  1  0  0  0  0  0  0  0  0  0
  -25.1745  -28.3048   20.2320 C   0  0  1  0  0  0  0  0  0  0  0  0
  -27.6938  -13.0787   19.6792 C   0  0  2  0  0  0  0  0  0  0  0  0
  -29.9800  -17.0219   23.8549 C   0  0  0  0  0  0  0  0  0  0  0  0
  -17.9721  -28.1531   23.0790 C   0  0  0  0  0  0  0  0  0  0  0  0
  -24.1737  -30.0817   24.3794 C   0  0  0  0  0  0  0  0  0  0  0  0
  -21.8350  -29.6925   25.1838 C   0  0  0  0  0  0  0  0  0  0  0  0
  -22.2694  -31.3534   23.3740 C   0  0  0  0  0  0  0  0  0  0  0  0
  -19.3393  -26.0163   20.2434 C   0  0  0  0  0  0  0  0  0  0  0  0
  -30.4746  -19.8928   23.7851 C   0  0  0  0  0  0  0  0  0  0  0  0
  -26.9326  -21.1861   24.1769 C   0  0  0  0  0  0  0  0  0  0  0  0
  -26.0926  -22.3410   23.6539 C   0  0  0  0  0  0  0  0  0  1  0  0
  -22.4610  -28.8848   22.8629 C   0  0  1  0  0  0  0  0  0  0  0  0
  -18.9474  -27.7720   21.9762 C   0  0  2  0  0  0  0  0  0  0  0  0
  -22.6998  -29.9820   23.9384 C   0  0  0  0  0  0  0  0  0  0  0  0
  -25.8395  -11.5797   20.3084 N   0  0  0  0  0  0  0  0  0  0  0  0
  -26.2757  -12.8427   20.1643 N   0  0  0  0  0  0  0  0  0  0  0  0
  -24.1958  -28.0726   21.2962 N   0  0  0  0  0  0  0  0  0  0  0  0
  -30.0420  -13.4529   20.3242 N   0  0  0  0  0  0  0  0  0  0  0  0
  -25.6189  -15.1063   20.3997 N   0  0  0  0  0  0  0  0  0  0  0  0
  -21.9335  -12.8164   21.6528 N   0  0  0  0  0  0  0  0  0  0  0  0
  -30.2640  -15.5341   21.4113 N   0  0  0  0  0  0  0  0  0  0  0  0
  -27.4531  -29.0905   20.0113 N   0  0  0  0  0  0  0  0  0  0  0  0
  -29.0919  -20.1285   24.1335 N   0  0  0  0  0  0  0  0  0  0  0  0
  -21.0788  -28.7861   22.4066 N   0  0  0  0  0  0  0  0  0  0  0  0
  -18.4846  -26.4967   21.3595 N   0  3  0  0  0  0  0  0  0  0  0  0
  -22.8071  -14.9142   21.3449 O   0  0  0  0  0  0  0  0  0  0  0  0
  -26.4987  -28.8191   22.1180 O   0  0  0  0  0  0  0  0  0  0  0  0
  -23.1597  -30.1361   20.9727 O   0  0  0  0  0  0  0  0  0  0  0  0
  -28.7752  -22.0462   22.8601 O   0  0  0  0  0  0  0  0  0  0  0  0
  -20.7766  -26.5623   22.9900 O   0  0  0  0  0  0  0  0  0  0  0  0
  -31.9882  -14.6826   20.1137 O   0  0  0  0  0  0  0  0  0  0  0  0
  -21.3968   -7.2737   21.8152 O   0  0  0  0  0  0  0  0  0  0  0  0
  -25.9858  -22.2443   22.2342 O   0  0  0  0  0  0  0  0  0  1  0  0
  -18.4526   -7.2986   26.4773 F   0  0  0  0  0  0  0  0  0  0  0  0
  -30.9940  -16.8399   19.0814 F   0  0  0  0  0  0  0  0  0  0  0  0
  -21.7751   -5.3277   23.7419 F   0  0  0  0  0  0  0  0  0  0  0  0
  1  2  1  0  0  0  0
  1  5  2  0  0  0  0
  2  6  2  0  0  0  0
  3  9  2  0  0  0  0
  3 17  1  0  0  0  0
  4 10  1  0  0  0  0
  4 17  2  0  0  0  0
  5 19  1  0  0  0  0
  6 21  1  0  0  0  0
  7 11  2  0  0  0  0
  7 20  1  0  0  0  0
  8 13  2  0  0  0  0
  8 23  1  0  0  0  0
  9 26  1  0  0  0  0
 10 26  2  0  0  0  0
 11 27  1  0  0  0  0
 12 14  2  0  0  0  0
 12 28  1  0  0  0  0
 13 30  1  0  0  0  0
 14 29  1  0  0  0  0
 15 22  1  0  0  0  0
 15 27  2  0  0  0  0
 16 29  2  0  0  0  0
 16 31  1  0  0  0  0
 17 32  1  0  0  0  0
 18 32  1  0  0  0  0
 18 33  2  0  0  0  0
 18 34  1  0  0  0  0
 19 21  2  0  0  0  0
 19 40  1  0  0  0  0
 20 22  2  0  0  0  0
 20 41  1  0  0  0  0
 21 49  1  0  0  0  0
 22 42  1  0  0  0  0
 23 24  2  0  0  0  0
 23 58  1  0  0  0  0
 24 25  1  0  0  0  0
 24 52  1  0  0  0  0
 25 30  2  0  0  0  0
 25 70  1  0  0  0  0
 26 81  1  0  0  0  0
 27 82  1  0  0  0  0
 28 31  2  0  0  0  0
 28 81  1  0  0  0  0
 29 83  1  0  0  0  0
 30 84  1  0  0  0  0
 31 85  1  0  0  0  0
 32 64  2  0  0  0  0
 33 65  1  0  0  0  0
 33 68  1  0  0  0  0
 34 69  1  0  0  0  0
 34 75  2  0  0  0  0
 35 50  1  0  0  0  0
 35 71  1  0  0  0  0
 35 76  2  0  0  0  0
 36 61  1  0  0  0  0
 36 66  1  0  0  0  0
 36 77  2  0  0  0  0
 37 59  1  0  0  0  0
 37 72  1  0  0  0  0
 37 78  2  0  0  0  0
 38 62  1  0  0  0  0
 38 73  1  0  0  0  0
 38 79  2  0  0  0  0
 39 67  1  0  0  0  0
 39 70  1  0  0  0  0
 39 80  2  0  0  0  0
 40 43  1  0  0  0  0
 41 50  1  0  0  0  0
 42 66  1  0  0  0  0
 43 45  1  0  0  0  0
 44 46  1  0  0  0  0
 44 47  1  0  0  0  0
 45 49  1  0  0  0  0
 46 51  1  0  0  0  0
 47 67  1  0  0  0  0
 48 51  1  0  0  0  0
 48 67  1  0  0  0  0
 49 71  1  0  0  0  0
 50 66  1  0  0  0  0
 51 65  1  0  0  0  0
 53 62  1  0  0  0  0
 54 63  1  0  0  0  0
 55 63  1  0  0  0  0
 56 63  1  0  0  0  0
 57 74  1  0  0  0  0
 58 72  1  0  0  0  0
 59 60  1  0  0  0  0
 60 82  1  0  0  0  0
 61 63  1  0  0  0  0
 61 73  1  0  0  0  0
 62 74  1  0  0  0  0
 64 65  1  0  0  0  0
M  CHG  1  74   1
M  ISO  4  39 100  60 101  70 100  82 101
M  END
> <Batch ID>
0049

> <Smiles>
CNC(C)C(=O)NC(C(=O)N1Cc2cc([101O:1][101CH2:1]CC(=O)NCc3ccc(F)c([100NH:0][100C:0](=O)N4CCCC(n5nc(-c6ccc(Oc7ccc(F)cc7F)cc6)c(C(N)=O)c5N)C4)c3C)ccc2CC1C(=O)NC1CCCc2ccccc21)C(C)(C)C

> <Shape>
0.319

> <Color>
0.201

> <Negative vol penalty>
0.000

$$$$

  -OEChem-04042322323D

 87 96  0     1  0  0  0  0  0999 V2000
  -29.6773  -23.5638   16.2134 C   0  0  0  0  0  0  0  0  0  0  0  0
  -29.7991  -22.2169   15.8871 C   0  0  0  0  0  0  0  0  0  0  0  0
  -25.9973  -29.0787   21.3857 C   0  0  0  0  0  0  0  0  0  0  0  0
  -23.7693  -29.2767   20.4725 C   0  0  0  0  0  0  0  0  0  0  0  0
  -29.8732  -23.9816   17.5290 C   0  0  0  0  0  0  0  0  0  0  0  0
  -30.1180  -21.2871   16.8762 C   0  0  0  0  0  0  0  0  0  0  0  0
  -25.7368  -15.7531   18.3150 C   0  0  0  0  0  0  0  0  0  0  0  0
  -23.1914  -17.2913   23.5775 C   0  0  0  0  0  0  0  0  0  0  0  0
  -22.5104  -16.3923   24.3984 C   0  0  0  0  0  0  0  0  0  0  0  0
  -25.9113  -30.3811   21.8778 C   0  0  0  0  0  0  0  0  0  0  0  0
  -23.6833  -30.5790   20.9646 C   0  0  0  0  0  0  0  0  0  0  0  0
  -25.0548  -14.5510   18.5048 C   0  0  0  0  0  0  0  0  0  0  0  0
  -24.4885  -31.9620   24.5063 C   0  0  0  0  0  0  0  0  0  0  0  0
  -24.9185  -32.1908   25.8133 C   0  0  0  0  0  0  0  0  0  0  0  0
  -26.5877  -13.9486   20.2756 C   0  0  0  0  0  0  0  0  0  0  0  0
  -22.5595  -15.9981   21.6370 C   0  0  0  0  0  0  0  0  0  0  0  0
  -26.5685  -33.7553   24.9966 C   0  0  0  0  0  0  0  0  0  0  0  0
  -24.9263  -28.5265   20.6831 C   0  0  0  0  0  0  0  0  0  0  0  0
  -25.9552  -26.6808   19.2539 C   0  0  0  0  0  0  0  0  0  0  0  0
  -30.1852  -23.0553   18.5366 C   0  0  0  0  0  0  0  0  0  0  0  0
  -26.8388  -16.0648   19.1161 C   0  0  0  0  0  0  0  0  0  0  0  0
  -30.3196  -21.6932   18.2063 C   0  0  0  0  0  0  0  0  0  0  0  0
  -27.2672  -15.1568   20.0984 C   0  0  0  0  0  0  0  0  0  0  0  0
  -23.2159  -17.0942   22.1968 C   0  0  0  0  0  0  0  0  0  0  0  0
  -21.8541  -15.2962   23.8386 C   0  0  0  0  0  0  0  0  0  0  0  0
  -21.8786  -15.0991   22.4579 C   0  0  0  0  0  0  0  0  0  0  0  0
  -24.7544  -31.1312   21.6672 C   0  0  0  0  0  0  0  0  0  0  0  0
  -25.4794  -13.6509   19.4825 C   0  0  0  0  0  0  0  0  0  0  0  0
  -25.0986  -32.6297   23.4444 C   0  0  0  0  0  0  0  0  0  0  0  0
  -25.9584  -33.0875   26.0585 C   0  0  0  0  0  0  0  0  0  0  0  0
  -26.1385  -33.5264   23.6895 C   0  0  0  0  0  0  0  0  0  0  0  0
  -25.0147  -27.1815   20.1741 C   0  0  0  0  0  0  0  0  0  0  0  0
  -25.6139  -25.3595   19.0987 C   0  0  0  0  0  0  0  0  0  0  0  0
  -21.1804  -11.5344   21.4452 C   0  0  0  0  0  0  0  0  0  0  0  0
  -20.5041  -10.7179   22.2671 C   0  0  0  0  0  0  0  0  0  0  0  0
  -27.0403  -27.3503   18.5981 C   0  0  0  0  0  0  0  0  0  0  0  0
  -29.5330  -18.5363   19.9580 C   0  0  0  0  0  0  0  0  0  0  0  0
  -28.4984  -17.4062   22.6156 C   0  0  0  0  0  0  0  0  0  0  0  0
  -27.5700  -16.9088   25.8603 C   0  0  0  0  0  0  0  0  0  0  0  0
  -24.2388  -20.5179   21.2471 C   0  0  0  0  0  0  0  0  0  0  0  0
  -30.4344  -23.5607   19.9355 C   0  0  0  0  0  0  0  0  0  0  0  0
  -27.6408  -17.3203   18.9056 C   0  0  0  0  0  0  0  0  0  0  0  0
  -28.4786  -15.5187   20.9135 C   0  0  0  0  0  0  0  0  0  0  0  0
  -21.2364  -11.3356   19.9548 C   0  0  0  0  0  0  0  0  0  0  0  0
  -30.4011  -22.4623   20.9950 C   0  0  0  0  0  0  0  0  0  0  0  0
  -22.6809  -11.3635   19.4700 C   0  0  0  0  0  0  0  0  0  0  0  0
  -21.5140  -22.8152   20.6182 C   0  0  0  0  0  0  0  0  0  0  0  0
  -31.2183  -21.2571   20.5404 C   0  0  0  0  0  0  0  0  0  0  0  0
  -22.2693  -24.1220   20.3693 C   0  0  0  0  0  0  0  0  0  0  0  0
  -22.1854  -21.9881   21.7106 C   0  0  0  0  0  0  0  0  0  0  0  0
  -24.3799  -22.9921   21.2108 C   0  0  0  0  0  0  0  0  0  0  0  0
  -23.3388  -12.6359   21.5468 C   0  0  0  0  0  0  0  0  0  0  0  0
  -30.6400  -20.6512   19.2560 C   0  0  1  0  0  0  0  0  0  0  0  0
  -28.1942  -17.9096   20.2155 C   0  0  1  0  0  0  0  0  0  0  0  0
  -23.7637  -23.8632   20.1011 C   0  0  2  0  0  0  0  0  0  0  0  0
  -23.4304  -12.5750   20.0242 C   0  0  1  0  0  0  0  0  0  1  0  0
  -21.1326  -14.3466   24.7376 C   0  0  0  0  0  0  0  0  0  0  0  0
  -28.4648  -17.0093   28.2027 C   0  0  0  0  0  0  0  0  0  0  0  0
  -29.9934  -14.7881   22.1528 C   0  0  0  0  0  0  0  0  0  0  0  0
  -30.0424  -14.4598   24.6343 C   0  0  0  0  0  0  0  0  0  0  0  0
  -31.1881  -16.4276   23.6155 C   0  0  0  0  0  0  0  0  0  0  0  0
  -25.6033  -18.9758   26.6468 C   0  0  0  0  0  0  0  0  0  0  0  0
  -23.9444  -18.0552   21.3195 C   0  0  0  0  0  0  0  0  0  0  0  0
  -21.1802  -13.9272   21.8333 C   0  0  0  0  0  0  0  0  0  0  0  0
  -28.6618  -16.3702   23.6988 C   0  0  1  0  0  0  0  0  0  0  0  0
  -27.7418  -17.7675   27.1003 C   0  0  2  0  0  0  0  0  0  0  0  0
  -29.9467  -15.5149   23.5117 C   0  0  0  0  0  0  0  0  0  0  0  0
  -24.1414  -26.2538   20.5751 N   0  0  0  0  0  0  0  0  0  0  0  0
  -24.5318  -25.1570   19.9037 N   0  0  0  0  0  0  0  0  0  0  0  0
  -28.4195  -16.9375   21.2986 N   0  0  0  0  0  0  0  0  0  0  0  0
  -23.6007  -21.7618   21.3855 N   0  0  0  0  0  0  0  0  0  0  0  0
  -26.1369  -24.3627   18.3535 N   0  0  0  0  0  0  0  0  0  0  0  0
  -26.7969  -27.9651   17.3623 N   0  0  0  0  0  0  0  0  0  0  0  0
  -29.4680  -19.8565   19.5551 N   0  0  0  0  0  0  0  0  0  0  0  0
  -28.6032  -17.0913   24.9656 N   0  0  0  0  0  0  0  0  0  0  0  0
  -23.4319  -19.4024   21.4350 N   0  0  0  0  0  0  0  0  0  0  0  0
  -21.9112  -12.6290   22.0364 N   0  3  1  0  0  0  0  0  0  0  0  0
  -26.4132  -18.1986   27.6199 N   0  3  0  0  0  0  0  0  0  0  0  0
  -28.1955  -27.3878   19.0856 O   0  0  0  0  0  0  0  0  0  0  0  0
  -30.5511  -17.8725   20.1145 O   0  0  0  0  0  0  0  0  0  0  0  0
  -28.4475  -18.5999   22.9254 O   0  0  0  0  0  0  0  0  0  0  0  0
  -26.6167  -16.1492   25.7029 O   0  0  0  0  0  0  0  0  0  0  0  0
  -25.4384  -20.4092   20.9709 O   0  0  0  0  0  0  0  0  0  0  0  0
  -24.6700  -32.4020   22.1474 O   0  0  0  0  0  0  0  0  0  0  0  0
  -24.8064  -12.4812   19.6655 O   0  0  0  0  0  0  0  0  0  1  0  0
  -26.3702  -33.3083   27.3138 F   0  0  0  0  0  0  0  0  0  0  0  0
  -26.7277  -34.1717   22.6735 F   0  0  0  0  0  0  0  0  0  0  0  0
  1  2  1  0  0  0  0
  1  5  2  0  0  0  0
  2  6  2  0  0  0  0
  3 10  2  0  0  0  0
  3 18  1  0  0  0  0
  4 11  1  0  0  0  0
  4 18  2  0  0  0  0
  5 20  1  0  0  0  0
  6 22  1  0  0  0  0
  7 12  2  0  0  0  0
  7 21  1  0  0  0  0
  8  9  2  0  0  0  0
  8 24  1  0  0  0  0
  9 25  1  0  0  0  0
 10 27  1  0  0  0  0
 11 27  2  0  0  0  0
 12 28  1  0  0  0  0
 13 14  2  0  0  0  0
 13 29  1  0  0  0  0
 14 30  1  0  0  0  0
 15 23  1  0  0  0  0
 15 28  2  0  0  0  0
 16 24  2  0  0  0  0
 16 26  1  0  0  0  0
 17 30  2  0  0  0  0
 17 31  1  0  0  0  0
 18 32  1  0  0  0  0
 19 32  1  0  0  0  0
 19 33  2  0  0  0  0
 19 36  1  0  0  0  0
 20 22  2  0  0  0  0
 20 41  1  0  0  0  0
 21 23  2  0  0  0  0
 21 42  1  0  0  0  0
 22 53  1  0  0  0  0
 23 43  1  0  0  0  0
 24 63  1  0  0  0  0
 25 26  2  0  0  0  0
 25 57  1  0  0  0  0
 26 64  1  0  0  0  0
 27 84  1  0  0  0  0
 28 85  1  0  0  0  0
 29 31  2  0  0  0  0
 29 84  1  0  0  0  0
 30 86  1  0  0  0  0
 31 87  1  0  0  0  0
 32 68  2  0  0  0  0
 33 69  1  0  0  0  0
 33 72  1  0  0  0  0
 34 35  2  0  0  0  0
 34 44  1  0  0  0  0
 34 77  1  0  0  0  0
 36 73  1  0  0  0  0
 36 79  2  0  0  0  0
 37 54  1  0  0  0  0
 37 74  1  0  0  0  0
 37 80  2  0  0  0  0
 38 65  1  0  0  0  0
 38 70  1  0  0  0  0
 38 81  2  0  0  0  0
 39 66  1  0  0  0  0
 39 75  1  0  0  0  0
 39 82  2  0  0  0  0
 40 71  1  0  0  0  0
 40 76  1  0  0  0  0
 40 83  2  0  0  0  0
 41 45  1  0  0  0  0
 42 54  1  0  0  0  0
 43 70  1  0  0  0  0
 44 46  1  0  0  0  0
 45 48  1  0  0  0  0
 46 56  1  0  0  0  0
 47 49  1  0  0  0  0
 47 50  1  0  0  0  0
 48 53  1  0  0  0  0
 49 55  1  0  0  0  0
 50 71  1  0  0  0  0
 51 55  1  0  0  0  0
 51 71  1  0  0  0  0
 52 56  1  0  0  0  0
 52 77  1  0  0  0  0
 53 74  1  0  0  0  0
 54 70  1  0  0  0  0
 55 69  1  0  0  0  0
 56 85  1  0  0  0  0
 58 66  1  0  0  0  0
 59 67  1  0  0  0  0
 60 67  1  0  0  0  0
 61 67  1  0  0  0  0
 62 78  1  0  0  0  0
 63 76  1  0  0  0  0
 64 77  1  0  0  0  0
 65 67  1  0  0  0  0
 65 75  1  0  0  0  0
 66 78  1  0  0  0  0
 68 69  1  0  0  0  0
M  CHG  2  77   1  78   1
M  ISO  4  40 100  56 101  76 100  85 101
M  END
> <Batch ID>
0049

> <Smiles>
C=C1CC[101CH:1]([101O:1]c2ccc3c(c2)CN(C(=O)C(NC(=O)C(C)NC)C(C)(C)C)C(C(=O)NC2CCCc4ccccc42)C3)CN1Cc1cc(C[100NH:0][100C:0](=O)N2CCCC(n3nc(-c4ccc(Oc5ccc(F)cc5F)cc4)c(C(N)=O)c3N)C2)ccc1C

> <Shape>
0.223

> <Color>
0.057

> <Negative vol penalty>
0.000

$$$$

  -OEChem-04042322323D

 87 96  0     1  0  0  0  0  0999 V2000
  -26.7661  -37.5882   17.4333 C   0  0  0  0  0  0  0  0  0  0  0  0
  -27.9585  -36.8802   17.3225 C   0  0  0  0  0  0  0  0  0  0  0  0
  -23.7678   -9.9287   21.7779 C   0  0  0  0  0  0  0  0  0  0  0  0
  -21.7635  -10.5802   20.5968 C   0  0  0  0  0  0  0  0  0  0  0  0
  -25.9859  -37.4619   18.5820 C   0  0  0  0  0  0  0  0  0  0  0  0
  -28.3720  -36.0463   18.3608 C   0  0  0  0  0  0  0  0  0  0  0  0
  -30.1502  -28.4401   18.2608 C   0  0  0  0  0  0  0  0  0  0  0  0
  -23.3128   -8.6110   21.8233 C   0  0  0  0  0  0  0  0  0  0  0  0
  -21.3085   -9.2624   20.6420 C   0  0  0  0  0  0  0  0  0  0  0  0
  -30.3375  -27.0648   18.4007 C   0  0  0  0  0  0  0  0  0  0  0  0
  -21.1144   -6.7965   23.6396 C   0  0  0  0  0  0  0  0  0  0  0  0
  -21.2313   -6.1126   24.8496 C   0  0  0  0  0  0  0  0  0  0  0  0
  -29.6669  -27.1985   20.7202 C   0  0  0  0  0  0  0  0  0  0  0  0
  -25.5548  -20.2326   19.1569 C   0  0  0  0  0  0  0  0  0  0  0  0
  -24.3173  -21.9181   20.3672 C   0  0  0  0  0  0  0  0  0  0  0  0
  -22.6300   -4.4585   23.7797 C   0  0  0  0  0  0  0  0  0  0  0  0
  -22.9931  -10.9134   21.1647 C   0  0  0  0  0  0  0  0  0  0  0  0
  -24.6453  -12.7463   20.5179 C   0  0  0  0  0  0  0  0  0  0  0  0
  -26.3853  -36.6186   19.6308 C   0  0  0  0  0  0  0  0  0  0  0  0
  -29.7052  -29.1983   19.3474 C   0  0  0  0  0  0  0  0  0  0  0  0
  -27.5971  -35.9097   19.5251 C   0  0  0  0  0  0  0  0  0  0  0  0
  -29.4656  -28.5744   20.5828 C   0  0  0  0  0  0  0  0  0  0  0  0
  -24.3376  -20.8029   19.5296 C   0  0  0  0  0  0  0  0  0  0  0  0
  -26.7314  -21.8927   20.4595 C   0  0  0  0  0  0  0  0  0  0  0  0
  -22.0832   -8.2778   21.2553 C   0  0  0  0  0  0  0  0  0  0  0  0
  -30.0967  -26.4456   19.6274 C   0  0  0  0  0  0  0  0  0  0  0  0
  -21.7553   -6.3114   22.4995 C   0  0  0  0  0  0  0  0  0  0  0  0
  -21.9891   -4.9436   24.9197 C   0  0  0  0  0  0  0  0  0  0  0  0
  -22.5131   -5.1425   22.5696 C   0  0  0  0  0  0  0  0  0  0  0  0
  -26.7517  -20.7775   19.6219 C   0  0  0  0  0  0  0  0  0  0  0  0
  -25.5143  -22.4630   20.8322 C   0  0  0  0  0  0  0  0  0  0  0  0
  -23.4623  -12.2749   21.1181 C   0  0  0  0  0  0  0  0  0  0  0  0
  -24.6304  -14.1005   20.7469 C   0  0  0  0  0  0  0  0  0  0  0  0
  -28.5728  -22.0454   22.1296 C   0  0  0  0  0  0  0  0  0  0  0  0
  -28.4290  -20.8475   22.7296 C   0  0  0  0  0  0  0  0  0  0  0  0
  -25.6662  -12.0247   19.8160 C   0  0  0  0  0  0  0  0  0  0  0  0
  -28.7299  -32.5780   20.6520 C   0  0  0  0  0  0  0  0  0  0  0  0
  -26.7440  -30.5601   21.8327 C   0  0  0  0  0  0  0  0  0  0  0  0
  -24.5182  -28.0860   22.5823 C   0  0  0  0  0  0  0  0  0  0  0  0
  -21.9362  -18.9864   20.8695 C   0  0  0  0  0  0  0  0  0  0  0  0
  -25.5323  -36.5509   20.8728 C   0  0  0  0  0  0  0  0  0  0  0  0
  -29.5488  -30.6921   19.2593 C   0  0  0  0  0  0  0  0  0  0  0  0
  -29.0212  -29.4354   21.7335 C   0  0  0  0  0  0  0  0  0  0  0  0
  -29.5105  -23.0461   22.7769 C   0  0  0  0  0  0  0  0  0  0  0  0
  -25.8547  -35.3579   21.7688 C   0  0  0  0  0  0  0  0  0  0  0  0
  -30.3550  -23.7951   21.7566 C   0  0  0  0  0  0  0  0  0  0  0  0
  -21.6686  -16.9006   23.7425 C   0  0  0  0  0  0  0  0  0  0  0  0
  -27.3624  -35.2247   21.9585 C   0  0  0  0  0  0  0  0  0  0  0  0
  -22.2029  -15.5493   23.2646 C   0  0  0  0  0  0  0  0  0  0  0  0
  -20.8842  -17.6173   22.6457 C   0  0  0  0  0  0  0  0  0  0  0  0
  -22.1422  -16.4264   20.8927 C   0  0  0  0  0  0  0  0  0  0  0  0
  -28.6220  -23.3640   19.9909 C   0  0  0  0  0  0  0  0  0  0  0  0
  -28.0671  -34.9760   20.6194 C   0  0  1  0  0  0  0  0  0  0  0  0
  -28.3774  -31.2270   20.1025 C   0  0  1  0  0  0  0  0  0  0  0  0
  -22.9878  -15.6911   21.9466 C   0  0  2  0  0  0  0  0  0  0  0  0
  -29.4569  -24.4262   20.7035 C   0  0  2  0  0  0  0  0  0  1  0  0
  -22.3906  -27.6667   23.8452 C   0  0  0  0  0  0  0  0  0  0  0  0
  -28.2984  -30.5982   24.4569 C   0  0  0  0  0  0  0  0  0  0  0  0
  -26.4370  -29.2857   25.4964 C   0  0  0  0  0  0  0  0  0  0  0  0
  -25.9976  -31.5688   24.5927 C   0  0  0  0  0  0  0  0  0  0  0  0
  -23.0813  -27.2799   20.1237 C   0  0  0  0  0  0  0  0  0  0  0  0
  -23.0577  -20.2210   19.0318 C   0  0  0  0  0  0  0  0  0  0  0  0
  -26.3956  -29.6560   22.9880 C   0  0  1  0  0  0  0  0  0  0  0  0
  -23.0030  -28.0358   22.5030 C   0  0  2  0  0  0  0  0  0  0  0  0
  -26.7957  -30.2674   24.3605 C   0  0  0  0  0  0  0  0  0  0  0  0
  -22.7481  -13.2503   21.6859 N   0  0  0  0  0  0  0  0  0  0  0  0
  -23.4843  -14.3482   21.4436 N   0  0  0  0  0  0  0  0  0  0  0  0
  -27.9537  -22.4492   20.9343 N   0  0  0  0  0  0  0  0  0  0  0  0
  -28.0191  -30.4098   21.2742 N   0  0  0  0  0  0  0  0  0  0  0  0
  -21.6851  -17.7203   21.4235 N   0  0  0  0  0  0  0  0  0  0  0  0
  -25.4861  -15.0916   20.4184 N   0  0  0  0  0  0  0  0  0  0  0  0
  -25.5360  -11.8609   18.4302 N   0  0  0  0  0  0  0  0  0  0  0  0
  -27.9062  -33.5966   20.2122 N   0  0  0  0  0  0  0  0  0  0  0  0
  -24.9734  -29.3579   22.8585 N   0  0  0  0  0  0  0  0  0  0  0  0
  -22.7089  -18.9951   19.7146 N   0  0  0  0  0  0  0  0  0  0  0  0
  -22.5702  -27.0267   21.4954 N   0  3  0  0  0  0  0  0  0  0  0  0
  -26.6560  -11.5253   20.4029 O   0  0  0  0  0  0  0  0  0  0  0  0
  -29.6784  -32.6893   21.4199 O   0  0  0  0  0  0  0  0  0  0  0  0
  -25.9122  -31.3819   21.4378 O   0  0  0  0  0  0  0  0  0  0  0  0
  -25.2269  -27.0951   22.4194 O   0  0  0  0  0  0  0  0  0  0  0  0
  -21.5084  -20.0320   21.3701 O   0  0  0  0  0  0  0  0  0  0  0  0
  -21.6390   -6.9920   21.2991 O   0  0  0  0  0  0  0  0  0  0  0  0
  -30.2772  -25.1018   19.7557 O   0  0  0  0  0  0  0  0  0  1  0  0
  -22.1025   -4.2878   26.0821 F   0  0  0  0  0  0  0  0  0  0  0  0
  -23.1321   -4.6722   21.4780 F   0  0  0  0  0  0  0  0  0  0  0  0
  -28.2339  -20.0348   19.1347 Cl  0  0  0  0  0  0  0  0  0  0  0  0
  -25.4388  -23.8445   21.8684 Cl  0  0  0  0  0  0  0  0  0  0  0  0
  1  2  1  0  0  0  0
  1  5  2  0  0  0  0
  2  6  2  0  0  0  0
  3  8  2  0  0  0  0
  3 17  1  0  0  0  0
  4  9  1  0  0  0  0
  4 17  2  0  0  0  0
  5 19  1  0  0  0  0
  6 21  1  0  0  0  0
  7 10  2  0  0  0  0
  7 20  1  0  0  0  0
  8 25  1  0  0  0  0
  9 25  2  0  0  0  0
 10 26  1  0  0  0  0
 11 12  2  0  0  0  0
 11 27  1  0  0  0  0
 12 28  1  0  0  0  0
 13 22  1  0  0  0  0
 13 26  2  0  0  0  0
 14 23  1  0  0  0  0
 14 30  2  0  0  0  0
 15 23  2  0  0  0  0
 15 31  1  0  0  0  0
 16 28  2  0  0  0  0
 16 29  1  0  0  0  0
 17 32  1  0  0  0  0
 18 32  1  0  0  0  0
 18 33  2  0  0  0  0
 18 36  1  0  0  0  0
 19 21  2  0  0  0  0
 19 41  1  0  0  0  0
 20 22  2  0  0  0  0
 20 42  1  0  0  0  0
 21 53  1  0  0  0  0
 22 43  1  0  0  0  0
 23 62  1  0  0  0  0
 24 30  1  0  0  0  0
 24 31  2  0  0  0  0
 24 68  1  0  0  0  0
 25 82  1  0  0  0  0
 26 83  1  0  0  0  0
 27 29  2  0  0  0  0
 27 82  1  0  0  0  0
 28 84  1  0  0  0  0
 29 85  1  0  0  0  0
 30 86  1  0  0  0  0
 31 87  1  0  0  0  0
 32 66  2  0  0  0  0
 33 67  1  0  0  0  0
 33 71  1  0  0  0  0
 34 35  2  0  0  0  0
 34 44  1  0  0  0  0
 34 68  1  0  0  0  0
 36 72  1  0  0  0  0
 36 77  2  0  0  0  0
 37 54  1  0  0  0  0
 37 73  1  0  0  0  0
 37 78  2  0  0  0  0
 38 63  1  0  0  0  0
 38 69  1  0  0  0  0
 38 79  2  0  0  0  0
 39 64  1  0  0  0  0
 39 74  1  0  0  0  0
 39 80  2  0  0  0  0
 40 70  1  0  0  0  0
 40 75  1  0  0  0  0
 40 81  2  0  0  0  0
 41 45  1  0  0  0  0
 42 54  1  0  0  0  0
 43 69  1  0  0  0  0
 44 46  1  0  0  0  0
 45 48  1  0  0  0  0
 46 56  1  0  0  0  0
 47 49  1  0  0  0  0
 47 50  1  0  0  0  0
 48 53  1  0  0  0  0
 49 55  1  0  0  0  0
 50 70  1  0  0  0  0
 51 55  1  0  0  0  0
 51 70  1  0  0  0  0
 52 56  1  0  0  0  0
 52 68  1  0  0  0  0
 53 73  1  0  0  0  0
 54 69  1  0  0  0  0
 55 67  1  0  0  0  0
 56 83  1  0  0  0  0
 57 64  1  0  0  0  0
 58 65  1  0  0  0  0
 59 65  1  0  0  0  0
 60 65  1  0  0  0  0
 61 76  1  0  0  0  0
 62 75  1  0  0  0  0
 63 65  1  0  0  0  0
 63 74  1  0  0  0  0
 64 76  1  0  0  0  0
 66 67  1  0  0  0  0
M  CHG  1  76   1
M  ISO  4  40 100  56 101  75 100  83 101
M  END
> <Batch ID>
0049

> <Smiles>
C=C1CC[101CH:1]([101O:1]c2ccc3c(c2)CN(C(=O)C(NC(=O)C(C)NC)C(C)(C)C)C(C(=O)NC2CCCc4ccccc42)C3)CN1c1c(Cl)cc(C[100NH:0][100C:0](=O)N2CCCC(n3nc(-c4ccc(Oc5ccc(F)cc5F)cc4)c(C(N)=O)c3N)C2)cc1Cl

> <Shape>
0.242

> <Color>
0.119

> <Negative vol penalty>
0.000

$$$$

  -OEChem-04042322323D

 85 93  0     1  0  0  0  0  0999 V2000
  -37.0225  -31.3889   13.4589 C   0  0  0  0  0  0  0  0  0  0  0  0
  -37.0668  -31.3924   14.8494 C   0  0  0  0  0  0  0  0  0  0  0  0
  -23.0442   -9.7841   20.0318 C   0  0  0  0  0  0  0  0  0  0  0  0
  -23.7328   -9.9650   22.3405 C   0  0  0  0  0  0  0  0  0  0  0  0
  -35.8320  -31.0820   12.8013 C   0  0  0  0  0  0  0  0  0  0  0  0
  -35.9202  -31.0901   15.5831 C   0  0  0  0  0  0  0  0  0  0  0  0
  -35.8387  -25.5938   20.2389 C   0  0  0  0  0  0  0  0  0  0  0  0
  -32.4803  -17.7028   23.2349 C   0  0  0  0  0  0  0  0  0  0  0  0
  -31.8916  -16.7626   22.3893 C   0  0  0  0  0  0  0  0  0  0  0  0
  -22.3031   -8.6440   20.3421 C   0  0  0  0  0  0  0  0  0  0  0  0
  -22.9915   -8.8249   22.6509 C   0  0  0  0  0  0  0  0  0  0  0  0
  -35.8084  -24.6914   21.3023 C   0  0  0  0  0  0  0  0  0  0  0  0
  -23.3284   -5.4747   22.3450 C   0  0  0  0  0  0  0  0  0  0  0  0
  -23.9302   -4.5107   23.1537 C   0  0  0  0  0  0  0  0  0  0  0  0
  -33.4733  -25.1958   21.6776 C   0  0  0  0  0  0  0  0  0  0  0  0
  -22.1754   -4.7886   24.7909 C   0  0  0  0  0  0  0  0  0  0  0  0
  -23.7592  -10.4446   21.0310 C   0  0  0  0  0  0  0  0  0  0  0  0
  -30.3008  -18.6172   23.7358 C   0  0  0  0  0  0  0  0  0  0  0  0
  -24.0826  -12.9581   20.7385 C   0  0  0  0  0  0  0  0  0  0  0  0
  -34.6727  -30.7663   13.5273 C   0  0  0  0  0  0  0  0  0  0  0  0
  -34.6811  -26.2901   19.8806 C   0  0  0  0  0  0  0  0  0  0  0  0
  -34.7127  -30.7800   14.9346 C   0  0  0  0  0  0  0  0  0  0  0  0
  -33.4944  -26.0918   20.6054 C   0  0  0  0  0  0  0  0  0  0  0  0
  -31.6849  -18.6301   23.9081 C   0  0  0  0  0  0  0  0  0  0  0  0
  -30.5075  -16.7497   22.2169 C   0  0  0  0  0  0  0  0  0  0  0  0
  -22.2766   -8.1644   21.6516 C   0  0  0  0  0  0  0  0  0  0  0  0
  -34.6286  -24.4931   22.0200 C   0  0  0  0  0  0  0  0  0  0  0  0
  -22.1500   -6.0957   22.7593 C   0  0  0  0  0  0  0  0  0  0  0  0
  -23.3538   -4.1676   24.3766 C   0  0  0  0  0  0  0  0  0  0  0  0
  -21.5736   -5.7526   23.9822 C   0  0  0  0  0  0  0  0  0  0  0  0
  -29.7121  -17.6769   22.8902 C   0  0  0  0  0  0  0  0  0  0  0  0
  -24.5255  -11.6221   20.7109 C   0  0  0  0  0  0  0  0  0  0  0  0
  -25.1789  -13.6912   20.3550 C   0  0  0  0  0  0  0  0  0  0  0  0
  -29.4902  -19.5992   24.4522 C   0  0  0  0  0  0  0  0  0  0  0  0
  -22.7953  -13.4889   21.0803 C   0  0  0  0  0  0  0  0  0  0  0  0
  -33.0764  -28.7723   17.5698 C   0  0  0  0  0  0  0  0  0  0  0  0
  -31.0360  -26.5264   18.0210 C   0  0  0  0  0  0  0  0  0  0  0  0
  -33.6006  -21.5897   23.9348 C   0  0  0  0  0  0  0  0  0  0  0  0
  -29.2412  -23.6558   18.4400 C   0  0  0  0  0  0  0  0  0  0  0  0
  -30.6278  -14.8062   20.6185 C   0  0  0  0  0  0  0  0  0  0  0  0
  -33.3970  -30.4874   12.7726 C   0  0  0  0  0  0  0  0  0  0  0  0
  -34.6833  -27.3175   18.7814 C   0  0  0  0  0  0  0  0  0  0  0  0
  -32.2824  -26.8884   20.2064 C   0  0  0  0  0  0  0  0  0  0  0  0
  -32.3227  -29.8120   13.6211 C   0  0  0  0  0  0  0  0  0  0  0  0
  -29.6082  -12.2157   18.3989 C   0  0  0  0  0  0  0  0  0  0  0  0
  -32.1882  -30.5130   14.9692 C   0  0  0  0  0  0  0  0  0  0  0  0
  -28.1585  -11.9402   18.8048 C   0  0  0  0  0  0  0  0  0  0  0  0
  -30.4837  -12.5406   19.6079 C   0  0  0  0  0  0  0  0  0  0  0  0
  -28.5287  -13.3421   20.8748 C   0  0  0  0  0  0  0  0  0  0  0  0
  -33.4963  -30.4332   15.7654 C   0  0  1  0  0  0  0  0  0  0  0  0
  -33.3616  -27.3615   17.9937 C   0  0  1  0  0  0  0  0  0  0  0  0
  -27.5943  -13.0737   19.6837 C   0  0  2  0  0  0  0  0  0  0  0  0
  -27.0650  -22.5823   17.8003 C   0  0  0  0  0  0  0  0  0  0  0  0
  -29.5784  -28.2857   20.0418 C   0  0  0  0  0  0  0  0  0  0  0  0
  -27.7263  -26.6013   20.0658 C   0  0  0  0  0  0  0  0  0  0  0  0
  -28.2878  -27.8050   17.9543 C   0  0  0  0  0  0  0  0  0  0  0  0
  -30.6134  -21.4289   17.0555 C   0  0  0  0  0  0  0  0  0  0  0  0
  -32.3506  -19.6268   24.8123 C   0  0  0  0  0  0  0  0  0  0  0  0
  -33.3649  -22.9521   23.3184 C   0  0  0  0  0  0  0  0  0  1  0  0
  -29.8612  -26.0271   18.8234 C   0  0  1  0  0  0  0  0  0  0  0  0
  -28.5331  -22.7558   17.4435 C   0  0  2  0  0  0  0  0  0  0  0  0
  -28.8901  -27.1721   19.2276 C   0  0  0  0  0  0  0  0  0  0  0  0
  -25.8034  -11.5101   20.3391 N   0  0  0  0  0  0  0  0  0  0  0  0
  -28.7321  -20.4648   23.8551 N   0  0  0  0  0  0  0  0  0  0  0  0
  -26.1730  -12.7851   20.1294 N   0  0  0  0  0  0  0  0  0  0  0  0
  -32.1681  -26.9286   18.7401 N   0  0  0  0  0  0  0  0  0  0  0  0
  -29.8889  -13.6260   20.3909 N   0  0  0  0  0  0  0  0  0  0  0  0
  -25.3799  -15.0162   20.1920 N   0  0  0  0  0  0  0  0  0  0  0  0
  -21.7814  -12.5955   21.4519 N   0  0  0  0  0  0  0  0  0  0  0  0
  -29.9474  -15.7809   21.3477 N   0  0  0  0  0  0  0  0  0  0  0  0
  -33.6464  -29.1227   16.3608 N   0  0  0  0  0  0  0  0  0  0  0  0
  -32.4082  -20.9421   24.2177 N   0  0  0  0  0  0  0  0  0  0  0  0
  -29.2428  -24.9718   18.0283 N   0  0  0  0  0  0  0  0  0  0  0  0
  -29.1723  -21.4098   17.4159 N   0  3  0  0  0  0  0  0  0  0  0  0
  -22.5467  -14.7178   21.0411 O   0  0  0  0  0  0  0  0  0  0  0  0
  -32.3884  -29.4908   18.2855 O   0  0  0  0  0  0  0  0  0  0  0  0
  -30.9529  -26.5652   16.7902 O   0  0  0  0  0  0  0  0  0  0  0  0
  -34.7242  -21.1420   24.1471 O   0  0  0  0  0  0  0  0  0  0  0  0
  -29.7396  -23.2343   19.4813 O   0  0  0  0  0  0  0  0  0  0  0  0
  -31.7693  -14.9531   20.1742 O   0  0  0  0  0  0  0  0  0  0  0  0
  -21.5533   -7.0520   21.9549 O   0  0  0  0  0  0  0  0  0  0  0  0
  -34.6048  -23.6072   23.0541 O   0  0  0  0  0  0  0  0  0  1  0  0
  -23.9310   -3.2407   25.1524 F   0  0  0  0  0  0  0  0  0  0  0  0
  -20.4410   -6.3449   24.3850 F   0  0  0  0  0  0  0  0  0  0  0  0
  -27.9903  -17.6593   22.6728 Cl  0  0  0  0  0  0  0  0  0  0  0  0
  1  2  1  0  0  0  0
  1  5  2  0  0  0  0
  2  6  2  0  0  0  0
  3 10  2  0  0  0  0
  3 17  1  0  0  0  0
  4 11  1  0  0  0  0
  4 17  2  0  0  0  0
  5 20  1  0  0  0  0
  6 22  1  0  0  0  0
  7 12  2  0  0  0  0
  7 21  1  0  0  0  0
  8  9  2  0  0  0  0
  8 24  1  0  0  0  0
  9 25  1  0  0  0  0
 10 26  1  0  0  0  0
 11 26  2  0  0  0  0
 12 27  1  0  0  0  0
 13 14  2  0  0  0  0
 13 28  1  0  0  0  0
 14 29  1  0  0  0  0
 15 23  1  0  0  0  0
 15 27  2  0  0  0  0
 16 29  2  0  0  0  0
 16 30  1  0  0  0  0
 17 32  1  0  0  0  0
 18 24  2  0  0  0  0
 18 31  1  0  0  0  0
 18 34  1  0  0  0  0
 19 32  1  0  0  0  0
 19 33  2  0  0  0  0
 19 35  1  0  0  0  0
 20 22  2  0  0  0  0
 20 41  1  0  0  0  0
 21 23  2  0  0  0  0
 21 42  1  0  0  0  0
 22 50  1  0  0  0  0
 23 43  1  0  0  0  0
 24 58  1  0  0  0  0
 25 31  2  0  0  0  0
 25 70  1  0  0  0  0
 26 81  1  0  0  0  0
 27 82  1  0  0  0  0
 28 30  2  0  0  0  0
 28 81  1  0  0  0  0
 29 83  1  0  0  0  0
 30 84  1  0  0  0  0
 31 85  1  0  0  0  0
 32 63  2  0  0  0  0
 33 65  1  0  0  0  0
 33 68  1  0  0  0  0
 34 64  2  0  0  0  0
 35 69  1  0  0  0  0
 35 75  2  0  0  0  0
 36 51  1  0  0  0  0
 36 71  1  0  0  0  0
 36 76  2  0  0  0  0
 37 60  1  0  0  0  0
 37 66  1  0  0  0  0
 37 77  2  0  0  0  0
 38 59  1  0  0  0  0
 38 72  1  0  0  0  0
 38 78  2  0  0  0  0
 39 61  1  0  0  0  0
 39 73  1  0  0  0  0
 39 79  2  0  0  0  0
 40 67  1  0  0  0  0
 40 70  1  0  0  0  0
 40 80  2  0  0  0  0
 41 44  1  0  0  0  0
 42 51  1  0  0  0  0
 43 66  1  0  0  0  0
 44 46  1  0  0  0  0
 45 47  1  0  0  0  0
 45 48  1  0  0  0  0
 46 50  1  0  0  0  0
 47 52  1  0  0  0  0
 48 67  1  0  0  0  0
 49 52  1  0  0  0  0
 49 67  1  0  0  0  0
 50 71  1  0  0  0  0
 51 66  1  0  0  0  0
 52 65  1  0  0  0  0
 53 61  1  0  0  0  0
 54 62  1  0  0  0  0
 55 62  1  0  0  0  0
 56 62  1  0  0  0  0
 57 74  1  0  0  0  0
 58 72  1  0  0  0  0
 59 82  1  0  0  0  0
 60 62  1  0  0  0  0
 60 73  1  0  0  0  0
 61 74  1  0  0  0  0
 63 65  1  0  0  0  0
M  CHG  1  74   1
M  ISO  4  40 100  59 101  70 100  82 101
M  END
> <Batch ID>
0049

> <Smiles>
CNC(C)C(=O)NC(C(=O)N1Cc2cc([101O:1][101CH2:1]C(=O)NCc3ccc([100NH:0][100C:0](=O)N4CCCC(n5nc(-c6ccc(Oc7ccc(F)cc7F)cc6)c(C(N)=O)c5N)C4)c(Cl)c3C=N)ccc2CC1C(=O)NC1CCCc2ccccc21)C(C)(C)C

> <Shape>
0.237

> <Color>
0.194

> <Negative vol penalty>
0.000

$$$$

  -OEChem-04042322323D

 89 98  0     1  0  0  0  0  0999 V2000
  -18.4188  -24.8929   22.6838 C   0  0  0  0  0  0  0  0  0  0  0  0
  -19.6881  -24.9843   22.1218 C   0  0  0  0  0  0  0  0  0  0  0  0
  -24.5517   -9.1849   21.5348 C   0  0  0  0  0  0  0  0  0  0  0  0
  -24.0667  -10.8285   23.2379 C   0  0  0  0  0  0  0  0  0  0  0  0
  -17.6906  -26.0516   22.9502 C   0  0  0  0  0  0  0  0  0  0  0  0
  -20.2296  -26.2345   21.8249 C   0  0  0  0  0  0  0  0  0  0  0  0
  -25.0623  -26.6535   23.2790 C   0  0  0  0  0  0  0  0  0  0  0  0
  -24.1137   -8.1719   22.3876 C   0  0  0  0  0  0  0  0  0  0  0  0
  -23.6287   -9.8154   24.0908 C   0  0  0  0  0  0  0  0  0  0  0  0
  -26.0252  -26.0523   22.4696 C   0  0  0  0  0  0  0  0  0  0  0  0
  -21.1609   -6.8886   23.4206 C   0  0  0  0  0  0  0  0  0  0  0  0
  -20.3206   -5.9110   22.8880 C   0  0  0  0  0  0  0  0  0  0  0  0
  -26.5231  -28.1954   21.4804 C   0  0  0  0  0  0  0  0  0  0  0  0
  -29.0187  -19.7075   20.1674 C   0  0  0  0  0  0  0  0  0  0  0  0
  -21.9414   -4.2104   23.4518 C   0  0  0  0  0  0  0  0  0  0  0  0
  -24.5283  -10.5133   21.9599 C   0  0  0  0  0  0  0  0  0  0  0  0
  -24.2073  -12.2887   20.1565 C   0  0  0  0  0  0  0  0  0  0  0  0
  -18.2273  -27.3171   22.6654 C   0  0  0  0  0  0  0  0  0  0  0  0
  -24.8146  -28.0307   23.1873 C   0  0  0  0  0  0  0  0  0  0  0  0
  -19.5074  -27.4112   22.0866 C   0  0  0  0  0  0  0  0  0  0  0  0
  -25.5583  -28.8121   22.2916 C   0  0  0  0  0  0  0  0  0  0  0  0
  -28.8731  -21.0902   20.2793 C   0  0  0  0  0  0  0  0  0  0  0  0
  -27.6315  -21.6818   20.0470 C   0  0  0  0  0  0  0  0  0  0  0  0
  -26.5354  -20.8907   19.7027 C   0  0  0  0  0  0  0  0  0  0  0  0
  -27.9227  -18.9163   19.8231 C   0  0  0  0  0  0  0  0  0  0  0  0
  -23.6522   -8.4870   23.6656 C   0  0  0  0  0  0  0  0  0  0  0  0
  -26.7537  -26.8228   21.5680 C   0  0  0  0  0  0  0  0  0  0  0  0
  -22.3916   -6.5271   23.9688 C   0  0  0  0  0  0  0  0  0  0  0  0
  -20.7108   -4.5719   22.9036 C   0  0  0  0  0  0  0  0  0  0  0  0
  -22.7818   -5.1881   23.9845 C   0  0  0  0  0  0  0  0  0  0  0  0
  -26.6810  -19.5079   19.5908 C   0  0  0  0  0  0  0  0  0  0  0  0
  -24.9812  -11.5602   21.0796 C   0  0  0  0  0  0  0  0  0  0  0  0
  -25.0968  -13.1574   19.5727 C   0  0  0  0  0  0  0  0  0  0  0  0
  -28.6831  -23.9827   18.2163 C   0  0  0  0  0  0  0  0  0  0  0  0
  -28.9535  -23.1191   17.2227 C   0  0  0  0  0  0  0  0  0  0  0  0
  -22.8094  -12.1892   19.8538 C   0  0  0  0  0  0  0  0  0  0  0  0
  -22.2996  -29.8102   22.4049 C   0  0  0  0  0  0  0  0  0  0  0  0
  -24.2327  -32.2500   23.3174 C   0  0  0  0  0  0  0  0  0  0  0  0
  -27.4070  -33.4046   23.8047 C   0  0  0  0  0  0  0  0  0  0  0  0
  -29.2902  -16.8032   19.9271 C   0  0  0  0  0  0  0  0  0  0  0  0
  -17.3833  -28.5393   22.9273 C   0  0  0  0  0  0  0  0  0  0  0  0
  -23.7912  -28.6685   24.0864 C   0  0  0  0  0  0  0  0  0  0  0  0
  -25.3447  -30.2980   22.1691 C   0  0  0  0  0  0  0  0  0  0  0  0
  -18.1807  -29.8410   22.9295 C   0  0  0  0  0  0  0  0  0  0  0  0
  -30.1494  -13.3500   19.8080 C   0  0  0  0  0  0  0  0  0  0  0  0
  -19.1189  -29.8944   21.7280 C   0  0  0  0  0  0  0  0  0  0  0  0
  -28.8178  -12.6364   20.0522 C   0  0  0  0  0  0  0  0  0  0  0  0
  -28.8727  -26.4168   18.6807 C   0  0  0  0  0  0  0  0  0  0  0  0
  -30.2667  -14.6301   20.6334 C   0  0  0  0  0  0  0  0  0  0  0  0
  -27.8154  -14.8551   20.7303 C   0  0  0  0  0  0  0  0  0  0  0  0
  -26.6555  -25.1881   18.8453 C   0  0  0  0  0  0  0  0  0  0  0  0
  -20.1389  -28.7503   21.7733 C   0  0  1  0  0  0  0  0  0  0  0  0
  -29.6146  -25.0716   18.7206 C   0  0  2  0  0  0  0  0  0  0  0  0
  -23.2619  -29.9926   23.5443 C   0  0  1  0  0  0  0  0  0  0  0  0
  -27.6238  -13.5942   19.8717 C   0  0  2  0  0  0  0  0  0  0  0  0
  -27.5101  -26.3417   19.3683 C   0  0  1  0  0  0  0  0  0  1  0  0
  -30.0630  -21.9148   20.6486 C   0  0  0  0  0  0  0  0  0  0  0  0
  -25.2114  -21.5456   19.4555 C   0  0  0  0  0  0  0  0  0  0  0  0
  -30.9521  -25.2011   17.9835 C   0  0  0  0  0  0  0  0  0  0  0  0
  -28.6706  -35.4514   24.5198 C   0  0  0  0  0  0  0  0  0  0  0  0
  -23.6851  -33.5331   20.6037 C   0  0  0  0  0  0  0  0  0  0  0  0
  -25.6579  -35.0256   20.9894 C   0  0  0  0  0  0  0  0  0  0  0  0
  -23.6978  -35.1293   22.5289 C   0  0  0  0  0  0  0  0  0  0  0  0
  -28.6220  -31.9928   26.1047 C   0  0  0  0  0  0  0  0  0  0  0  0
  -27.4802  -23.1697   20.1660 C   0  0  0  0  0  0  0  0  0  0  0  0
  -25.2432  -33.1305   22.6227 C   0  0  1  0  0  0  0  0  0  0  0  0
  -28.0432  -34.1412   24.9697 C   0  0  2  0  0  0  0  0  0  0  0  0
  -24.5739  -34.1763   21.6869 C   0  0  0  0  0  0  0  0  0  0  0  0
  -26.2636  -11.9334   21.0854 N   0  0  0  0  0  0  0  0  0  0  0  0
  -26.3025  -12.9059   20.1586 N   0  0  0  0  0  0  0  0  0  0  0  0
  -24.3286  -30.8741   23.0653 N   0  0  0  0  0  0  0  0  0  0  0  0
  -29.1029  -15.4902   20.4083 N   0  0  0  0  0  0  0  0  0  0  0  0
  -24.9574  -14.1040   18.6205 N   0  0  0  0  0  0  0  0  0  0  0  0
  -22.0414  -11.2434   20.5466 N   0  0  0  0  0  0  0  0  0  0  0  0
  -28.1093  -17.5155   19.7204 N   0  0  0  0  0  0  0  0  0  0  0  0
  -21.1910  -29.0484   22.7213 N   0  0  0  0  0  0  0  0  0  0  0  0
  -26.0693  -33.7125   23.6750 N   0  0  0  0  0  0  0  0  0  0  0  0
  -27.3801  -23.8601   18.8340 N   0  3  2  0  0  0  0  0  0  0  0  0
  -29.1042  -33.3025   25.5956 N   0  3  0  0  0  0  0  0  0  0  0  0
  -22.2610  -12.9061   18.9826 O   0  0  0  0  0  0  0  0  0  0  0  0
  -22.5440  -30.3238   21.3195 O   0  0  0  0  0  0  0  0  0  0  0  0
  -23.3939  -32.7633   24.0620 O   0  0  0  0  0  0  0  0  0  0  0  0
  -28.0350  -32.6359   23.0799 O   0  0  0  0  0  0  0  0  0  0  0  0
  -30.4140  -17.2527   19.6882 O   0  0  0  0  0  0  0  0  0  0  0  0
  -23.2244   -7.4987   24.4980 O   0  0  0  0  0  0  0  0  0  0  0  0
  -27.6937  -26.2384   20.7763 O   0  0  0  0  0  0  0  0  0  1  0  0
  -19.9030   -3.6331   22.3934 F   0  0  0  0  0  0  0  0  0  0  0  0
  -23.9624   -4.8346   24.5109 F   0  0  0  0  0  0  0  0  0  0  0  0
  -25.3169  -18.5256   19.1639 Cl  0  0  0  0  0  0  0  0  0  0  0  0
  1  2  1  0  0  0  0
  1  5  2  0  0  0  0
  2  6  2  0  0  0  0
  3  8  2  0  0  0  0
  3 16  1  0  0  0  0
  4  9  1  0  0  0  0
  4 16  2  0  0  0  0
  5 18  1  0  0  0  0
  6 20  1  0  0  0  0
  7 10  2  0  0  0  0
  7 19  1  0  0  0  0
  8 26  1  0  0  0  0
  9 26  2  0  0  0  0
 10 27  1  0  0  0  0
 11 12  2  0  0  0  0
 11 28  1  0  0  0  0
 12 29  1  0  0  0  0
 13 21  1  0  0  0  0
 13 27  2  0  0  0  0
 14 22  2  0  0  0  0
 14 25  1  0  0  0  0
 15 29  2  0  0  0  0
 15 30  1  0  0  0  0
 16 32  1  0  0  0  0
 17 32  1  0  0  0  0
 17 33  2  0  0  0  0
 17 36  1  0  0  0  0
 18 20  2  0  0  0  0
 18 41  1  0  0  0  0
 19 21  2  0  0  0  0
 19 42  1  0  0  0  0
 20 52  1  0  0  0  0
 21 43  1  0  0  0  0
 22 23  1  0  0  0  0
 22 57  1  0  0  0  0
 23 24  2  0  0  0  0
 23 65  1  0  0  0  0
 24 31  1  0  0  0  0
 24 58  1  0  0  0  0
 25 31  2  0  0  0  0
 25 75  1  0  0  0  0
 26 85  1  0  0  0  0
 27 86  1  0  0  0  0
 28 30  2  0  0  0  0
 28 85  1  0  0  0  0
 29 87  1  0  0  0  0
 30 88  1  0  0  0  0
 31 89  1  0  0  0  0
 32 69  2  0  0  0  0
 33 70  1  0  0  0  0
 33 73  1  0  0  0  0
 34 35  2  0  0  0  0
 34 53  1  0  0  0  0
 34 78  1  0  0  0  0
 36 74  1  0  0  0  0
 36 80  2  0  0  0  0
 37 54  1  0  0  0  0
 37 76  1  0  0  0  0
 37 81  2  0  0  0  0
 38 66  1  0  0  0  0
 38 71  1  0  0  0  0
 38 82  2  0  0  0  0
 39 67  1  0  0  0  0
 39 77  1  0  0  0  0
 39 83  2  0  0  0  0
 40 72  1  0  0  0  0
 40 75  1  0  0  0  0
 40 84  2  0  0  0  0
 41 44  1  0  0  0  0
 42 54  1  0  0  0  0
 43 71  1  0  0  0  0
 44 46  1  0  0  0  0
 45 47  1  0  0  0  0
 45 49  1  0  0  0  0
 46 52  1  0  0  0  0
 47 55  1  0  0  0  0
 48 53  1  0  0  0  0
 48 56  1  0  0  0  0
 49 72  1  0  0  0  0
 50 55  1  0  0  0  0
 50 72  1  0  0  0  0
 51 56  1  0  0  0  0
 51 78  1  0  0  0  0
 52 76  1  0  0  0  0
 53 59  1  0  0  0  0
 54 71  1  0  0  0  0
 55 70  1  0  0  0  0
 56 86  1  0  0  0  0
 60 67  1  0  0  0  0
 61 68  1  0  0  0  0
 62 68  1  0  0  0  0
 63 68  1  0  0  0  0
 64 79  1  0  0  0  0
 65 78  1  0  0  0  0
 66 68  1  0  0  0  0
 66 77  1  0  0  0  0
 67 79  1  0  0  0  0
 69 70  1  0  0  0  0
M  CHG  2  78   1  79   1
M  ISO  4  40 100  56 101  75 100  86 101
M  END
> <Batch ID>
0049

> <Smiles>
C=C1C(C)C[101CH:1]([101O:1]c2ccc3c(c2)CN(C(=O)C(NC(=O)C(C)NC)C(C)(C)C)C(C(=O)NC2CCCc4ccccc42)C3)CN1Cc1c(C)cc([100NH:0][100C:0](=O)N2CCCC(n3nc(-c4ccc(Oc5ccc(F)cc5F)cc4)c(C(N)=O)c3N)C2)c(Cl)c1C

> <Shape>
0.356

> <Color>
0.116

> <Negative vol penalty>
0.000

$$$$

  -OEChem-04042322323D

 89 98  0     1  0  0  0  0  0999 V2000
  -31.0736  -25.1731   18.0061 C   0  0  0  0  0  0  0  0  0  0  0  0
  -29.6999  -25.0059   18.1495 C   0  0  0  0  0  0  0  0  0  0  0  0
  -26.1584  -14.1277   19.0901 C   0  0  0  0  0  0  0  0  0  0  0  0
  -24.3982  -14.3915   20.7237 C   0  0  0  0  0  0  0  0  0  0  0  0
  -31.7934  -25.8771   18.9705 C   0  0  0  0  0  0  0  0  0  0  0  0
  -29.0455  -25.5417   19.2581 C   0  0  0  0  0  0  0  0  0  0  0  0
  -23.3797  -27.8609   19.4231 C   0  0  0  0  0  0  0  0  0  0  0  0
  -23.2407  -24.4742   24.1971 C   0  0  0  0  0  0  0  0  0  0  0  0
  -24.2659  -23.6772   23.6881 C   0  0  0  0  0  0  0  0  0  0  0  0
  -26.3002  -12.7900   19.4588 C   0  0  0  0  0  0  0  0  0  0  0  0
  -24.5399  -13.0538   21.0925 C   0  0  0  0  0  0  0  0  0  0  0  0
  -22.1577  -27.3237   19.8254 C   0  0  0  0  0  0  0  0  0  0  0  0
  -23.5989  -10.0320   19.9075 C   0  0  0  0  0  0  0  0  0  0  0  0
  -22.4359   -9.2788   20.0675 C   0  0  0  0  0  0  0  0  0  0  0  0
  -22.4375  -28.3310   21.9994 C   0  0  0  0  0  0  0  0  0  0  0  0
  -23.0460  -21.6947   24.3352 C   0  0  0  0  0  0  0  0  0  0  0  0
  -23.0248   -8.8592   22.3727 C   0  0  0  0  0  0  0  0  0  0  0  0
  -25.2075  -14.9285   19.7226 C   0  0  0  0  0  0  0  0  0  0  0  0
  -24.2145  -16.8332   18.3464 C   0  0  0  0  0  0  0  0  0  0  0  0
  -31.1459  -26.4301   20.0866 C   0  0  0  0  0  0  0  0  0  0  0  0
  -24.1463  -28.6293   20.3110 C   0  0  0  0  0  0  0  0  0  0  0  0
  -29.7575  -26.2526   20.2391 C   0  0  0  0  0  0  0  0  0  0  0  0
  -23.6678  -28.8789   21.6051 C   0  0  0  0  0  0  0  0  0  0  0  0
  -22.1181  -23.8816   24.7753 C   0  0  0  0  0  0  0  0  0  0  0  0
  -22.0207  -22.4918   24.8443 C   0  0  0  0  0  0  0  0  0  0  0  0
  -24.1686  -22.2874   23.7571 C   0  0  0  0  0  0  0  0  0  0  0  0
  -25.4909  -12.2530   20.4600 C   0  0  0  0  0  0  0  0  0  0  0  0
  -21.6878  -27.5563   21.1147 C   0  0  0  0  0  0  0  0  0  0  0  0
  -24.4749  -10.1988   20.9801 C   0  0  0  0  0  0  0  0  0  0  0  0
  -22.1488   -8.6924   21.3001 C   0  0  0  0  0  0  0  0  0  0  0  0
  -24.1878   -9.6124   22.2127 C   0  0  0  0  0  0  0  0  0  0  0  0
  -25.0610  -16.3106   19.3425 C   0  0  0  0  0  0  0  0  0  0  0  0
  -24.4441  -18.1870   18.3764 C   0  0  0  0  0  0  0  0  0  0  0  0
  -18.7853  -25.6287   25.0194 C   0  0  0  0  0  0  0  0  0  0  0  0
  -17.7429  -25.0186   25.6032 C   0  0  0  0  0  0  0  0  0  0  0  0
  -23.3023  -16.1555   17.4722 C   0  0  0  0  0  0  0  0  0  0  0  0
  -27.0358  -28.3454   21.6048 C   0  0  0  0  0  0  0  0  0  0  0  0
  -26.3891  -31.3122   22.7461 C   0  0  0  0  0  0  0  0  0  0  0  0
  -24.0442  -33.6344   23.6154 C   0  0  0  0  0  0  0  0  0  0  0  0
  -26.3893  -21.9045   22.6310 C   0  0  0  0  0  0  0  0  0  0  0  0
  -31.9736  -27.1425   21.1268 C   0  0  0  0  0  0  0  0  0  0  0  0
  -25.4498  -29.2239   19.8530 C   0  0  0  0  0  0  0  0  0  0  0  0
  -24.4430  -29.7141   22.5899 C   0  0  0  0  0  0  0  0  0  0  0  0
  -18.9083  -27.1248   24.9179 C   0  0  0  0  0  0  0  0  0  0  0  0
  -31.1463  -28.0003   22.0807 C   0  0  0  0  0  0  0  0  0  0  0  0
  -19.2039  -27.5363   23.4807 C   0  0  0  0  0  0  0  0  0  0  0  0
  -27.8506  -21.3853   19.4260 C   0  0  0  0  0  0  0  0  0  0  0  0
  -29.9305  -27.2249   22.5780 C   0  0  0  0  0  0  0  0  0  0  0  0
  -27.2194  -20.0757   18.9476 C   0  0  0  0  0  0  0  0  0  0  0  0
  -28.1196  -21.3691   20.9297 C   0  0  0  0  0  0  0  0  0  0  0  0
  -26.3306  -19.7132   21.2854 C   0  0  0  0  0  0  0  0  0  0  0  0
  -20.0846  -25.2189   23.0129 C   0  0  0  0  0  0  0  0  0  0  0  0
  -29.0079  -26.8403   21.4150 C   0  0  1  0  0  0  0  0  0  0  0  0
  -26.3898  -29.5627   21.0058 C   0  0  1  0  0  0  0  0  0  0  0  0
  -25.9813  -19.7068   19.7882 C   0  0  2  0  0  0  0  0  0  0  0  0
  -20.3524  -26.7170   22.8924 C   0  0  1  0  0  0  0  0  0  1  0  0
  -23.8193  -35.9514   24.5526 C   0  0  0  0  0  0  0  0  0  0  0  0
  -27.0394  -30.2465   25.5303 C   0  0  0  0  0  0  0  0  0  0  0  0
  -25.9051  -32.2614   26.4904 C   0  0  0  0  0  0  0  0  0  0  0  0
  -27.9274  -32.5358   25.0558 C   0  0  0  0  0  0  0  0  0  0  0  0
  -22.6825  -34.6137   21.1770 C   0  0  0  0  0  0  0  0  0  0  0  0
  -21.0286  -24.7596   25.3166 C   0  0  0  0  0  0  0  0  0  0  0  0
  -25.7358  -31.8593   23.9923 C   0  0  1  0  0  0  0  0  0  0  0  0
  -23.9201  -35.1117   23.2887 C   0  0  2  0  0  0  0  0  0  0  0  0
  -20.8274  -21.8352   25.4569 C   0  0  0  0  0  0  0  0  0  0  0  0
  -26.6380  -31.7084   25.2495 C   0  0  0  0  0  0  0  0  0  0  0  0
  -25.7751  -17.2554   19.9601 N   0  0  0  0  0  0  0  0  0  0  0  0
  -25.3780  -18.3853   19.3504 N   0  0  0  0  0  0  0  0  0  0  0  0
  -25.7147  -30.2684   22.0969 N   0  0  0  0  0  0  0  0  0  0  0  0
  -26.9012  -21.0161   21.6617 N   0  0  0  0  0  0  0  0  0  0  0  0
  -23.9363  -19.2153   17.6642 N   0  0  0  0  0  0  0  0  0  0  0  0
  -23.1893  -14.7622   17.5744 N   0  0  0  0  0  0  0  0  0  0  0  0
  -25.2090  -21.4773   23.2384 N   0  0  0  0  0  0  0  0  0  0  0  0
  -28.2212  -27.9803   20.9957 N   0  0  0  0  0  0  0  0  0  0  0  0
  -25.3624  -33.2361   23.6865 N   0  0  0  0  0  0  0  0  0  0  0  0
  -19.8104  -24.7978   24.4360 N   0  3  1  0  0  0  0  0  0  0  0  0
  -22.7051  -35.3590   22.4619 N   0  3  0  0  0  0  0  0  0  0  0  0
  -22.6200  -16.7655   16.6144 O   0  0  0  0  0  0  0  0  0  0  0  0
  -26.4993  -27.7803   22.5505 O   0  0  0  0  0  0  0  0  0  0  0  0
  -27.4548  -31.7980   22.3590 O   0  0  0  0  0  0  0  0  0  0  0  0
  -23.0694  -32.9074   23.7936 O   0  0  0  0  0  0  0  0  0  0  0  0
  -26.9415  -22.9785   22.8829 O   0  0  0  0  0  0  0  0  0  0  0  0
  -25.6288  -10.9476   20.8199 O   0  0  0  0  0  0  0  0  0  0  0  0
  -20.4956  -27.0327   21.5102 O   0  0  0  0  0  0  0  0  0  1  0  0
  -21.0312   -7.9703   21.4540 F   0  0  0  0  0  0  0  0  0  0  0  0
  -25.0250   -9.7701   23.2472 F   0  0  0  0  0  0  0  0  0  0  0  0
  -20.8883  -20.4714   25.4434 F   0  0  0  0  0  0  0  0  0  0  0  0
  -20.6323  -22.1717   26.7654 F   0  0  0  0  0  0  0  0  0  0  0  0
  -19.6667  -22.1579   24.8170 F   0  0  0  0  0  0  0  0  0  0  0  0
  1  2  1  0  0  0  0
  1  5  2  0  0  0  0
  2  6  2  0  0  0  0
  3 10  2  0  0  0  0
  3 18  1  0  0  0  0
  4 11  1  0  0  0  0
  4 18  2  0  0  0  0
  5 20  1  0  0  0  0
  6 22  1  0  0  0  0
  7 12  2  0  0  0  0
  7 21  1  0  0  0  0
  8  9  2  0  0  0  0
  8 24  1  0  0  0  0
  9 26  1  0  0  0  0
 10 27  1  0  0  0  0
 11 27  2  0  0  0  0
 12 28  1  0  0  0  0
 13 14  2  0  0  0  0
 13 29  1  0  0  0  0
 14 30  1  0  0  0  0
 15 23  1  0  0  0  0
 15 28  2  0  0  0  0
 16 25  1  0  0  0  0
 16 26  2  0  0  0  0
 17 30  2  0  0  0  0
 17 31  1  0  0  0  0
 18 32  1  0  0  0  0
 19 32  1  0  0  0  0
 19 33  2  0  0  0  0
 19 36  1  0  0  0  0
 20 22  2  0  0  0  0
 20 41  1  0  0  0  0
 21 23  2  0  0  0  0
 21 42  1  0  0  0  0
 22 53  1  0  0  0  0
 23 43  1  0  0  0  0
 24 25  2  0  0  0  0
 24 62  1  0  0  0  0
 25 65  1  0  0  0  0
 26 73  1  0  0  0  0
 27 83  1  0  0  0  0
 28 84  1  0  0  0  0
 29 31  2  0  0  0  0
 29 83  1  0  0  0  0
 30 85  1  0  0  0  0
 31 86  1  0  0  0  0
 32 67  2  0  0  0  0
 33 68  1  0  0  0  0
 33 71  1  0  0  0  0
 34 35  2  0  0  0  0
 34 44  1  0  0  0  0
 34 76  1  0  0  0  0
 36 72  1  0  0  0  0
 36 78  2  0  0  0  0
 37 54  1  0  0  0  0
 37 74  1  0  0  0  0
 37 79  2  0  0  0  0
 38 63  1  0  0  0  0
 38 69  1  0  0  0  0
 38 80  2  0  0  0  0
 39 64  1  0  0  0  0
 39 75  1  0  0  0  0
 39 81  2  0  0  0  0
 40 70  1  0  0  0  0
 40 73  1  0  0  0  0
 40 82  2  0  0  0  0
 41 45  1  0  0  0  0
 42 54  1  0  0  0  0
 43 69  1  0  0  0  0
 44 46  1  0  0  0  0
 45 48  1  0  0  0  0
 46 56  1  0  0  0  0
 47 49  1  0  0  0  0
 47 50  1  0  0  0  0
 48 53  1  0  0  0  0
 49 55  1  0  0  0  0
 50 70  1  0  0  0  0
 51 55  1  0  0  0  0
 51 70  1  0  0  0  0
 52 56  1  0  0  0  0
 52 76  1  0  0  0  0
 53 74  1  0  0  0  0
 54 69  1  0  0  0  0
 55 68  1  0  0  0  0
 56 84  1  0  0  0  0
 57 64  1  0  0  0  0
 58 66  1  0  0  0  0
 59 66  1  0  0  0  0
 60 66  1  0  0  0  0
 61 77  1  0  0  0  0
 62 76  1  0  0  0  0
 63 66  1  0  0  0  0
 63 75  1  0  0  0  0
 64 77  1  0  0  0  0
 65 87  1  0  0  0  0
 65 88  1  0  0  0  0
 65 89  1  0  0  0  0
 67 68  1  0  0  0  0
M  CHG  2  76   1  77   1
M  ISO  4  40 100  56 101  73 100  84 101
M  END
> <Batch ID>
0049

> <Smiles>
C=C1CC[101CH:1]([101O:1]c2ccc3c(c2)CN(C(=O)C(NC(=O)C(C)NC)C(C)(C)C)C(C(=O)NC2CCCc4ccccc42)C3)CN1Cc1ccc([100NH:0][100C:0](=O)N2CCCC(n3nc(-c4ccc(Oc5ccc(F)cc5F)cc4)c(C(N)=O)c3N)C2)cc1C(F)(F)F

> <Shape>
0.280

> <Color>
0.077

> <Negative vol penalty>
0.000

$$$$

  -OEChem-04042322323D

 86 95  0     1  0  0  0  0  0999 V2000
  -27.0386  -27.2381   18.4027 C   0  0  0  0  0  0  0  0  0  0  0  0
  -26.8434  -25.9917   17.8163 C   0  0  0  0  0  0  0  0  0  0  0  0
  -23.7882  -25.1751   21.6895 C   0  0  0  0  0  0  0  0  0  0  0  0
  -21.6372  -25.4031   22.7656 C   0  0  0  0  0  0  0  0  0  0  0  0
  -28.0131  -27.3992   19.3868 C   0  0  0  0  0  0  0  0  0  0  0  0
  -27.6234  -24.9060   18.2127 C   0  0  0  0  0  0  0  0  0  0  0  0
  -27.2792  -17.8025   19.0722 C   0  0  0  0  0  0  0  0  0  0  0  0
  -25.2633  -14.4567   19.8202 C   0  0  0  0  0  0  0  0  0  0  0  0
  -24.4242  -15.4800   20.2612 C   0  0  0  0  0  0  0  0  0  0  0  0
  -24.1047  -26.4865   22.0440 C   0  0  0  0  0  0  0  0  0  0  0  0
  -21.9536  -26.7145   23.1202 C   0  0  0  0  0  0  0  0  0  0  0  0
  -27.9543  -16.6392   18.7051 C   0  0  0  0  0  0  0  0  0  0  0  0
  -23.3872  -29.6036   20.9518 C   0  0  0  0  0  0  0  0  0  0  0  0
  -23.9660  -30.4160   19.9769 C   0  0  0  0  0  0  0  0  0  0  0  0
  -29.5539  -17.0176   20.4707 C   0  0  0  0  0  0  0  0  0  0  0  0
  -24.1731  -14.3582   22.3862 C   0  0  0  0  0  0  0  0  0  0  0  0
  -25.9138  -30.7075   21.3762 C   0  0  0  0  0  0  0  0  0  0  0  0
  -22.5545  -24.6334   22.0502 C   0  0  0  0  0  0  0  0  0  0  0  0
  -22.1492  -22.7452   20.3835 C   0  0  0  0  0  0  0  0  0  0  0  0
  -28.7988  -26.3127   19.8024 C   0  0  0  0  0  0  0  0  0  0  0  0
  -27.7434  -18.5892   20.1361 C   0  0  0  0  0  0  0  0  0  0  0  0
  -28.6102  -25.0531   19.2023 C   0  0  0  0  0  0  0  0  0  0  0  0
  -28.8814  -18.1891   20.8509 C   0  0  0  0  0  0  0  0  0  0  0  0
  -25.5571  -13.3841   20.6621 C   0  0  0  0  0  0  0  0  0  0  0  0
  -23.8792  -15.4307   21.5442 C   0  0  0  0  0  0  0  0  0  0  0  0
  -23.1874  -27.2562   22.7593 C   0  0  0  0  0  0  0  0  0  0  0  0
  -29.0935  -16.2481   19.4026 C   0  0  0  0  0  0  0  0  0  0  0  0
  -24.0716  -29.3432   22.1390 C   0  0  0  0  0  0  0  0  0  0  0  0
  -25.2293  -30.9680   20.1890 C   0  0  0  0  0  0  0  0  0  0  0  0
  -25.3349  -29.8951   22.3512 C   0  0  0  0  0  0  0  0  0  0  0  0
  -25.0121  -13.3348   21.9451 C   0  0  0  0  0  0  0  0  0  0  0  0
  -22.2268  -23.2790   21.6838 C   0  0  0  0  0  0  0  0  0  0  0  0
  -21.8065  -21.4286   20.5727 C   0  0  0  0  0  0  0  0  0  0  0  0
  -28.6647  -11.2912   20.2345 C   0  0  0  0  0  0  0  0  0  0  0  0
  -28.8977  -10.2518   21.0501 C   0  0  0  0  0  0  0  0  0  0  0  0
  -22.3674  -23.3824   19.1178 C   0  0  0  0  0  0  0  0  0  0  0  0
  -28.8052  -21.5714   20.4242 C   0  0  0  0  0  0  0  0  0  0  0  0
  -28.7874  -20.8583   23.5886 C   0  0  0  0  0  0  0  0  0  0  0  0
  -29.6917  -18.0455   25.6592 C   0  0  0  0  0  0  0  0  0  0  0  0
  -22.4023  -16.5745   23.2345 C   0  0  0  0  0  0  0  0  0  0  0  0
  -29.8721  -26.5463   20.8359 C   0  0  0  0  0  0  0  0  0  0  0  0
  -26.9885  -19.8270   20.5367 C   0  0  0  0  0  0  0  0  0  0  0  0
  -29.4090  -18.9878   22.0138 C   0  0  0  0  0  0  0  0  0  0  0  0
  -29.2439  -11.3931   18.8497 C   0  0  0  0  0  0  0  0  0  0  0  0
  -30.4012  -25.2605   21.4660 C   0  0  0  0  0  0  0  0  0  0  0  0
  -29.9274  -12.7417   18.6586 C   0  0  0  0  0  0  0  0  0  0  0  0
  -20.2598  -18.9924   24.7313 C   0  0  0  0  0  0  0  0  0  0  0  0
  -30.6938  -24.2198   20.3898 C   0  0  0  0  0  0  0  0  0  0  0  0
  -20.5741  -20.2792   23.9649 C   0  0  0  0  0  0  0  0  0  0  0  0
  -21.5093  -18.1400   24.9453 C   0  0  0  0  0  0  0  0  0  0  0  0
  -22.5856  -19.1253   22.9603 C   0  0  0  0  0  0  0  0  0  0  0  0
  -28.5436  -13.6940   20.5409 C   0  0  0  0  0  0  0  0  0  0  0  0
  -29.4195  -23.8456   19.6232 C   0  0  1  0  0  0  0  0  0  0  0  0
  -27.8455  -20.8261   21.3080 C   0  0  1  0  0  0  0  0  0  0  0  0
  -21.3466  -19.9859   22.6639 C   0  0  2  0  0  0  0  0  0  0  0  0
  -29.0244  -13.8913   19.1056 C   0  0  1  0  0  0  0  0  0  1  0  0
  -28.8350  -17.3325   27.9076 C   0  0  0  0  0  0  0  0  0  0  0  0
  -31.1534  -22.4509   24.6729 C   0  0  0  0  0  0  0  0  0  0  0  0
  -31.4585  -20.6787   26.4148 C   0  0  0  0  0  0  0  0  0  0  0  0
  -29.3453  -22.0023   26.3415 C   0  0  0  0  0  0  0  0  0  0  0  0
  -28.9919  -15.3468   24.6659 C   0  0  0  0  0  0  0  0  0  0  0  0
  -26.4640  -12.3042   20.1498 C   0  0  0  0  0  0  0  0  0  0  0  0
  -29.7828  -20.2659   24.5566 C   0  0  1  0  0  0  0  0  0  0  0  0
  -28.7434  -17.1233   26.4041 C   0  0  2  0  0  0  0  0  0  0  0  0
  -30.4353  -21.3428   25.4688 C   0  0  0  0  0  0  0  0  0  0  0  0
  -21.9551  -22.3754   22.6292 N   0  0  0  0  0  0  0  0  0  0  0  0
  -21.7034  -21.2605   21.9223 N   0  0  0  0  0  0  0  0  0  0  0  0
  -28.6397  -20.1935   22.3630 N   0  0  0  0  0  0  0  0  0  0  0  0
  -22.1867  -17.8993   23.6693 N   0  0  0  0  0  0  0  0  0  0  0  0
  -21.5862  -20.4100   19.7147 N   0  0  0  0  0  0  0  0  0  0  0  0
  -21.2760  -23.9823   18.4748 N   0  0  0  0  0  0  0  0  0  0  0  0
  -23.0260  -16.4698   21.9917 N   0  0  0  0  0  0  0  0  0  0  0  0
  -28.6070  -22.9388   20.4055 N   0  0  0  0  0  0  0  0  0  0  0  0
  -29.0726  -19.2186   25.2826 N   0  0  0  0  0  0  0  0  0  0  0  0
  -27.8473  -12.3693   20.7358 N   0  3  1  0  0  0  0  0  0  0  0  0
  -29.0662  -15.6989   26.1072 N   0  3  0  0  0  0  0  0  0  0  0  0
  -23.4934  -23.4044   18.5654 O   0  0  0  0  0  0  0  0  0  0  0  0
  -29.6631  -20.9519   19.8062 O   0  0  0  0  0  0  0  0  0  0  0  0
  -28.1585  -21.8694   23.9109 O   0  0  0  0  0  0  0  0  0  0  0  0
  -30.8653  -17.7558   25.4371 O   0  0  0  0  0  0  0  0  0  0  0  0
  -22.0344  -15.6044   23.9021 O   0  0  0  0  0  0  0  0  0  0  0  0
  -23.4959  -28.5358   23.1056 O   0  0  0  0  0  0  0  0  0  0  0  0
  -29.7548  -15.1135   19.0459 O   0  0  0  0  0  0  0  0  0  1  0  0
  -25.7858  -31.7468   19.2521 F   0  0  0  0  0  0  0  0  0  0  0  0
  -25.9978  -29.6476   23.4892 F   0  0  0  0  0  0  0  0  0  0  0  0
  -25.3529  -12.0233   23.0143 Cl  0  0  0  0  0  0  0  0  0  0  0  0
  1  2  1  0  0  0  0
  1  5  2  0  0  0  0
  2  6  2  0  0  0  0
  3 10  2  0  0  0  0
  3 18  1  0  0  0  0
  4 11  1  0  0  0  0
  4 18  2  0  0  0  0
  5 20  1  0  0  0  0
  6 22  1  0  0  0  0
  7 12  2  0  0  0  0
  7 21  1  0  0  0  0
  8  9  2  0  0  0  0
  8 24  1  0  0  0  0
  9 25  1  0  0  0  0
 10 26  1  0  0  0  0
 11 26  2  0  0  0  0
 12 27  1  0  0  0  0
 13 14  2  0  0  0  0
 13 28  1  0  0  0  0
 14 29  1  0  0  0  0
 15 23  1  0  0  0  0
 15 27  2  0  0  0  0
 16 25  2  0  0  0  0
 16 31  1  0  0  0  0
 17 29  2  0  0  0  0
 17 30  1  0  0  0  0
 18 32  1  0  0  0  0
 19 32  1  0  0  0  0
 19 33  2  0  0  0  0
 19 36  1  0  0  0  0
 20 22  2  0  0  0  0
 20 41  1  0  0  0  0
 21 23  2  0  0  0  0
 21 42  1  0  0  0  0
 22 53  1  0  0  0  0
 23 43  1  0  0  0  0
 24 31  2  0  0  0  0
 24 62  1  0  0  0  0
 25 72  1  0  0  0  0
 26 82  1  0  0  0  0
 27 83  1  0  0  0  0
 28 30  2  0  0  0  0
 28 82  1  0  0  0  0
 29 84  1  0  0  0  0
 30 85  1  0  0  0  0
 31 86  1  0  0  0  0
 32 66  2  0  0  0  0
 33 67  1  0  0  0  0
 33 70  1  0  0  0  0
 34 35  2  0  0  0  0
 34 44  1  0  0  0  0
 34 75  1  0  0  0  0
 36 71  1  0  0  0  0
 36 77  2  0  0  0  0
 37 54  1  0  0  0  0
 37 73  1  0  0  0  0
 37 78  2  0  0  0  0
 38 63  1  0  0  0  0
 38 68  1  0  0  0  0
 38 79  2  0  0  0  0
 39 64  1  0  0  0  0
 39 74  1  0  0  0  0
 39 80  2  0  0  0  0
 40 69  1  0  0  0  0
 40 72  1  0  0  0  0
 40 81  2  0  0  0  0
 41 45  1  0  0  0  0
 42 54  1  0  0  0  0
 43 68  1  0  0  0  0
 44 46  1  0  0  0  0
 45 48  1  0  0  0  0
 46 56  1  0  0  0  0
 47 49  1  0  0  0  0
 47 50  1  0  0  0  0
 48 53  1  0  0  0  0
 49 55  1  0  0  0  0
 50 69  1  0  0  0  0
 51 55  1  0  0  0  0
 51 69  1  0  0  0  0
 52 56  1  0  0  0  0
 52 75  1  0  0  0  0
 53 73  1  0  0  0  0
 54 68  1  0  0  0  0
 55 67  1  0  0  0  0
 56 83  1  0  0  0  0
 57 64  1  0  0  0  0
 58 65  1  0  0  0  0
 59 65  1  0  0  0  0
 60 65  1  0  0  0  0
 61 76  1  0  0  0  0
 62 75  1  0  0  0  0
 63 65  1  0  0  0  0
 63 74  1  0  0  0  0
 64 76  1  0  0  0  0
 66 67  1  0  0  0  0
M  CHG  2  75   1  76   1
M  ISO  4  40 100  56 101  72 100  83 101
M  END
> <Batch ID>
0049

> <Smiles>
C=C1CC[101CH:1]([101O:1]c2ccc3c(c2)CN(C(=O)C(NC(=O)C(C)NC)C(C)(C)C)C(C(=O)NC2CCCc4ccccc42)C3)CN1Cc1ccc([100NH:0][100C:0](=O)N2CCCC(n3nc(-c4ccc(Oc5ccc(F)cc5F)cc4)c(C(N)=O)c3N)C2)cc1Cl

> <Shape>
0.203

> <Color>
0.065

> <Negative vol penalty>
0.000

$$$$

  -OEChem-04042322323D

 87 95  0     1  0  0  0  0  0999 V2000
  -16.5524  -29.5699   23.8363 C   0  0  0  0  0  0  0  0  0  0  0  0
  -17.2228  -28.3690   23.6266 C   0  0  0  0  0  0  0  0  0  0  0  0
  -29.7891  -23.6189   19.8742 C   0  0  0  0  0  0  0  0  0  0  0  0
  -29.2951  -22.4864   17.7980 C   0  0  0  0  0  0  0  0  0  0  0  0
  -17.1142  -30.7670   23.3944 C   0  0  0  0  0  0  0  0  0  0  0  0
  -18.4551  -28.3645   22.9740 C   0  0  0  0  0  0  0  0  0  0  0  0
  -21.8604  -25.4045   25.2733 C   0  0  0  0  0  0  0  0  0  0  0  0
  -24.9609  -13.6189   22.0457 C   0  0  0  0  0  0  0  0  0  0  0  0
  -30.3866  -24.6602   19.1640 C   0  0  0  0  0  0  0  0  0  0  0  0
  -29.8926  -23.5278   17.0878 C   0  0  0  0  0  0  0  0  0  0  0  0
  -21.7533  -24.0302   25.0651 C   0  0  0  0  0  0  0  0  0  0  0  0
  -29.0766  -26.6535   16.0956 C   0  0  0  0  0  0  0  0  0  0  0  0
  -28.4052  -27.1398   14.9739 C   0  0  0  0  0  0  0  0  0  0  0  0
  -23.9920  -13.0767   22.8899 C   0  0  0  0  0  0  0  0  0  0  0  0
  -23.5141  -24.1481   23.4205 C   0  0  0  0  0  0  0  0  0  0  0  0
  -30.2925  -26.5466   13.5871 C   0  0  0  0  0  0  0  0  0  0  0  0
  -29.2434  -22.5320   19.1911 C   0  0  0  0  0  0  0  0  0  0  0  0
  -27.5219  -21.5422   20.7925 C   0  0  0  0  0  0  0  0  0  0  0  0
  -18.3585  -30.7782   22.7446 C   0  0  0  0  0  0  0  0  0  0  0  0
  -22.7893  -26.1641   24.5476 C   0  0  0  0  0  0  0  0  0  0  0  0
  -19.0334  -29.5628   22.5218 C   0  0  0  0  0  0  0  0  0  0  0  0
  -23.6329  -25.5316   23.6232 C   0  0  0  0  0  0  0  0  0  0  0  0
  -22.4443  -14.8091   22.2261 C   0  0  0  0  0  0  0  0  0  0  0  0
  -24.6717  -14.7563   21.2918 C   0  0  0  0  0  0  0  0  0  0  0  0
  -30.4383  -24.6147   17.7709 C   0  0  0  0  0  0  0  0  0  0  0  0
  -22.5782  -23.4022   24.1365 C   0  0  0  0  0  0  0  0  0  0  0  0
  -30.3561  -26.1138   15.9631 C   0  0  0  0  0  0  0  0  0  0  0  0
  -29.0131  -27.0864   13.7196 C   0  0  0  0  0  0  0  0  0  0  0  0
  -30.9640  -26.0604   14.7088 C   0  0  0  0  0  0  0  0  0  0  0  0
  -22.7336  -13.6718   22.9801 C   0  0  0  0  0  0  0  0  0  0  0  0
  -23.4133  -15.3514   21.3820 C   0  0  0  0  0  0  0  0  0  0  0  0
  -28.6266  -21.4557   19.9242 C   0  0  0  0  0  0  0  0  0  0  0  0
  -27.3288  -20.2551   21.2315 C   0  0  0  0  0  0  0  0  0  0  0  0
  -20.8199  -19.0506   23.6432 C   0  0  0  0  0  0  0  0  0  0  0  0
  -21.0540  -20.2983   23.2128 C   0  0  0  0  0  0  0  0  0  0  0  0
  -26.7402  -22.6837   21.1686 C   0  0  0  0  0  0  0  0  0  0  0  0
  -20.7168  -17.9318   22.6623 C   0  0  0  0  0  0  0  0  0  0  0  0
  -22.5929  -28.5719   22.4818 C   0  0  0  0  0  0  0  0  0  0  0  0
  -25.8272  -28.5330   22.7263 C   0  0  0  0  0  0  0  0  0  0  0  0
  -28.6565  -26.7699   23.4567 C   0  0  0  0  0  0  0  0  0  0  0  0
  -26.9742  -14.7822   20.2700 C   0  0  0  0  0  0  0  0  0  0  0  0
  -18.9036  -32.0918   22.2429 C   0  0  0  0  0  0  0  0  0  0  0  0
  -22.9110  -27.6413   24.8032 C   0  0  0  0  0  0  0  0  0  0  0  0
  -24.6605  -26.2986   22.8332 C   0  0  0  0  0  0  0  0  0  0  0  0
  -20.3886  -32.0412   21.8928 C   0  0  0  0  0  0  0  0  0  0  0  0
  -30.2323  -16.1377   20.7437 C   0  0  0  0  0  0  0  0  0  0  0  0
  -20.6987  -30.8016   21.0596 C   0  0  0  0  0  0  0  0  0  0  0  0
  -30.0142  -17.6492   20.6442 C   0  0  0  0  0  0  0  0  0  0  0  0
  -29.3368  -15.3703   19.7727 C   0  0  0  0  0  0  0  0  0  0  0  0
  -27.6881  -17.2008   19.7636 C   0  0  0  0  0  0  0  0  0  0  0  0
  -20.3837  -29.5196   21.8398 C   0  0  1  0  0  0  0  0  0  0  0  0
  -23.5377  -28.3998   23.6374 C   0  0  1  0  0  0  0  0  0  0  0  0
  -28.5215  -18.0125   20.7687 C   0  0  2  0  0  0  0  0  0  0  0  0
  -31.1548  -26.9955   23.5281 C   0  0  0  0  0  0  0  0  0  0  0  0
  -25.9298  -28.3328   19.6834 C   0  0  0  0  0  0  0  0  0  0  0  0
  -28.3200  -27.6144   19.8808 C   0  0  0  0  0  0  0  0  0  0  0  0
  -27.6274  -29.8717   20.6854 C   0  0  0  0  0  0  0  0  0  0  0  0
  -21.5671  -16.5206   24.4960 C   0  0  0  0  0  0  0  0  0  0  0  0
  -28.7403  -26.2090   26.3614 C   0  0  0  0  0  0  0  0  0  0  0  0
  -21.0876  -15.4443   22.3264 C   0  0  0  0  0  0  0  0  0  0  0  0
  -21.1918  -21.4698   24.1308 C   0  0  0  0  0  0  0  0  0  1  0  0
  -26.9457  -27.8237   22.0017 C   0  0  1  0  0  0  0  0  0  0  0  0
  -29.8600  -27.1082   24.3178 C   0  0  2  0  0  0  0  0  0  0  0  0
  -27.1851  -28.3962   20.5761 C   0  0  0  0  0  0  0  0  0  0  0  0
  -29.1020  -20.2121   19.8168 N   0  0  0  0  0  0  0  0  0  0  0  0
  -28.2922  -19.5053   20.6234 N   0  0  0  0  0  0  0  0  0  0  0  0
  -24.7367  -27.7418   23.1142 N   0  0  0  0  0  0  0  0  0  0  0  0
  -27.9372  -15.7629   19.9513 N   0  0  0  0  0  0  0  0  0  0  0  0
  -26.4306  -19.7030   22.0746 N   0  0  0  0  0  0  0  0  0  0  0  0
  -25.6156  -23.0068   20.3972 N   0  0  0  0  0  0  0  0  0  0  0  0
  -25.6831  -15.2783   20.4479 N   0  0  0  0  0  0  0  0  0  0  0  0
  -21.4287  -29.2439   22.8022 N   0  0  0  0  0  0  0  0  0  0  0  0
  -28.1099  -27.8957   22.8779 N   0  0  0  0  0  0  0  0  0  0  0  0
  -21.1157  -16.6723   23.1187 N   0  0  0  0  0  0  0  0  0  0  0  0
  -29.9388  -26.1838   25.4841 N   0  3  0  0  0  0  0  0  0  0  0  0
  -27.0399  -23.4058   22.1496 O   0  0  0  0  0  0  0  0  0  0  0  0
  -20.3211  -18.1571   21.5176 O   0  0  0  0  0  0  0  0  0  0  0  0
  -22.8981  -28.1291   21.3807 O   0  0  0  0  0  0  0  0  0  0  0  0
  -25.9210  -29.7431   22.9465 O   0  0  0  0  0  0  0  0  0  0  0  0
  -28.2448  -25.6213   23.3091 O   0  0  0  0  0  0  0  0  0  0  0  0
  -27.2777  -13.5940   20.4040 O   0  0  0  0  0  0  0  0  0  0  0  0
  -31.0211  -25.6307   17.0776 O   0  0  0  0  0  0  0  0  0  0  0  0
  -22.4752  -22.0609   23.9308 O   0  0  0  0  0  0  0  0  0  1  0  0
  -28.3676  -27.5520   12.6423 F   0  0  0  0  0  0  0  0  0  0  0  0
  -32.1925  -25.5419   14.5751 F   0  0  0  0  0  0  0  0  0  0  0  0
  -21.5654  -12.9679   24.0395 Cl  0  0  0  0  0  0  0  0  0  0  0  0
  -23.0537  -16.7643   20.4416 Cl  0  0  0  0  0  0  0  0  0  0  0  0
  1  2  1  0  0  0  0
  1  5  2  0  0  0  0
  2  6  2  0  0  0  0
  3  9  2  0  0  0  0
  3 17  1  0  0  0  0
  4 10  1  0  0  0  0
  4 17  2  0  0  0  0
  5 19  1  0  0  0  0
  6 21  1  0  0  0  0
  7 11  2  0  0  0  0
  7 20  1  0  0  0  0
  8 14  1  0  0  0  0
  8 24  2  0  0  0  0
  9 25  1  0  0  0  0
 10 25  2  0  0  0  0
 11 26  1  0  0  0  0
 12 13  2  0  0  0  0
 12 27  1  0  0  0  0
 13 28  1  0  0  0  0
 14 30  2  0  0  0  0
 15 22  1  0  0  0  0
 15 26  2  0  0  0  0
 16 28  2  0  0  0  0
 16 29  1  0  0  0  0
 17 32  1  0  0  0  0
 18 32  1  0  0  0  0
 18 33  2  0  0  0  0
 18 36  1  0  0  0  0
 19 21  2  0  0  0  0
 19 42  1  0  0  0  0
 20 22  2  0  0  0  0
 20 43  1  0  0  0  0
 21 51  1  0  0  0  0
 22 44  1  0  0  0  0
 23 30  1  0  0  0  0
 23 31  2  0  0  0  0
 23 60  1  0  0  0  0
 24 31  1  0  0  0  0
 24 71  1  0  0  0  0
 25 82  1  0  0  0  0
 26 83  1  0  0  0  0
 27 29  2  0  0  0  0
 27 82  1  0  0  0  0
 28 84  1  0  0  0  0
 29 85  1  0  0  0  0
 30 86  1  0  0  0  0
 31 87  1  0  0  0  0
 32 65  2  0  0  0  0
 33 66  1  0  0  0  0
 33 69  1  0  0  0  0
 34 35  2  0  0  0  0
 34 37  1  0  0  0  0
 35 61  1  0  0  0  0
 36 70  1  0  0  0  0
 36 76  2  0  0  0  0
 37 74  1  0  0  0  0
 37 77  2  0  0  0  0
 38 52  1  0  0  0  0
 38 72  1  0  0  0  0
 38 78  2  0  0  0  0
 39 62  1  0  0  0  0
 39 67  1  0  0  0  0
 39 79  2  0  0  0  0
 40 63  1  0  0  0  0
 40 73  1  0  0  0  0
 40 80  2  0  0  0  0
 41 68  1  0  0  0  0
 41 71  1  0  0  0  0
 41 81  2  0  0  0  0
 42 45  1  0  0  0  0
 43 52  1  0  0  0  0
 44 67  1  0  0  0  0
 45 47  1  0  0  0  0
 46 48  1  0  0  0  0
 46 49  1  0  0  0  0
 47 51  1  0  0  0  0
 48 53  1  0  0  0  0
 49 68  1  0  0  0  0
 50 53  1  0  0  0  0
 50 68  1  0  0  0  0
 51 72  1  0  0  0  0
 52 67  1  0  0  0  0
 53 66  1  0  0  0  0
 54 63  1  0  0  0  0
 55 64  1  0  0  0  0
 56 64  1  0  0  0  0
 57 64  1  0  0  0  0
 58 74  1  0  0  0  0
 59 75  1  0  0  0  0
 60 74  1  0  0  0  0
 61 83  1  0  0  0  0
 62 64  1  0  0  0  0
 62 73  1  0  0  0  0
 63 75  1  0  0  0  0
 65 66  1  0  0  0  0
M  CHG  1  75   1
M  ISO  4  41 100  61 101  71 100  83 101
M  END
> <Batch ID>
0049

> <Smiles>
CNC(C)C(=O)NC(C(=O)N1Cc2cc([101O:1][101CH2:1]C=CC(=O)N(C)Cc3c(Cl)ccc([100NH:0][100C:0](=O)N4CCCC(n5nc(-c6ccc(Oc7ccc(F)cc7F)cc6)c(C(N)=O)c5N)C4)c3Cl)ccc2CC1C(=O)NC1CCCc2ccccc21)C(C)(C)C

> <Shape>
0.206

> <Color>
0.069

> <Negative vol penalty>
0.000

$$$$

  -OEChem-04042322323D

 89 98  0     1  0  0  0  0  0999 V2000
  -27.5647  -34.7016   23.6012 C   0  0  0  0  0  0  0  0  0  0  0  0
  -27.8279  -33.3650   23.3189 C   0  0  0  0  0  0  0  0  0  0  0  0
  -22.5910  -12.6705   22.7224 C   0  0  0  0  0  0  0  0  0  0  0  0
  -23.0657  -14.9820   22.2040 C   0  0  0  0  0  0  0  0  0  0  0  0
  -26.3061  -35.0798   24.0670 C   0  0  0  0  0  0  0  0  0  0  0  0
  -26.8330  -32.4056   23.5034 C   0  0  0  0  0  0  0  0  0  0  0  0
  -26.5260  -29.1559   19.6316 C   0  0  0  0  0  0  0  0  0  0  0  0
  -29.0569  -20.1326   17.9969 C   0  0  0  0  0  0  0  0  0  0  0  0
  -28.8239  -18.7912   18.2999 C   0  0  0  0  0  0  0  0  0  0  0  0
  -21.5598  -13.0727   23.5712 C   0  0  0  0  0  0  0  0  0  0  0  0
  -22.0345  -15.3842   23.0528 C   0  0  0  0  0  0  0  0  0  0  0  0
  -27.4821  -28.1429   19.5733 C   0  0  0  0  0  0  0  0  0  0  0  0
  -18.3622  -14.1320   23.2781 C   0  0  0  0  0  0  0  0  0  0  0  0
  -17.1482  -13.4507   23.1913 C   0  0  0  0  0  0  0  0  0  0  0  0
  -25.8906  -26.5949   20.5168 C   0  0  0  0  0  0  0  0  0  0  0  0
  -30.9650  -18.6707   19.4127 C   0  0  0  0  0  0  0  0  0  0  0  0
  -17.3507  -12.7949   25.5078 C   0  0  0  0  0  0  0  0  0  0  0  0
  -23.3440  -13.6252   22.0388 C   0  0  0  0  0  0  0  0  0  0  0  0
  -24.3028  -12.3906   20.0228 C   0  0  0  0  0  0  0  0  0  0  0  0
  -25.2923  -34.1258   24.2481 C   0  0  0  0  0  0  0  0  0  0  0  0
  -25.2463  -28.8983   20.1439 C   0  0  0  0  0  0  0  0  0  0  0  0
  -25.5601  -32.7711   23.9734 C   0  0  0  0  0  0  0  0  0  0  0  0
  -24.9193  -27.6058   20.5782 C   0  0  0  0  0  0  0  0  0  0  0  0
  -30.2440  -20.7431   18.4017 C   0  0  0  0  0  0  0  0  0  0  0  0
  -31.1980  -20.0121   19.1096 C   0  0  0  0  0  0  0  0  0  0  0  0
  -29.7779  -18.0602   19.0079 C   0  0  0  0  0  0  0  0  0  0  0  0
  -21.2816  -14.4295   23.7364 C   0  0  0  0  0  0  0  0  0  0  0  0
  -27.1654  -26.8628   20.0186 C   0  0  0  0  0  0  0  0  0  0  0  0
  -19.0705  -14.1447   24.4797 C   0  0  0  0  0  0  0  0  0  0  0  0
  -16.6424  -12.7822   24.3061 C   0  0  0  0  0  0  0  0  0  0  0  0
  -18.5647  -13.4762   25.5945 C   0  0  0  0  0  0  0  0  0  0  0  0
  -24.4097  -13.2104   21.1622 C   0  0  0  0  0  0  0  0  0  0  0  0
  -25.5872  -12.2972   19.5453 C   0  0  0  0  0  0  0  0  0  0  0  0
  -30.5652  -24.4704   18.8705 C   0  0  0  0  0  0  0  0  0  0  0  0
  -31.7331  -25.0089   19.2525 C   0  0  0  0  0  0  0  0  0  0  0  0
  -23.1459  -11.7692   19.4474 C   0  0  0  0  0  0  0  0  0  0  0  0
  -23.5565  -29.9829   22.6080 C   0  0  0  0  0  0  0  0  0  0  0  0
  -21.2051  -28.1795   21.2884 C   0  0  0  0  0  0  0  0  0  0  0  0
  -20.9279  -24.9236   19.7589 C   0  0  0  0  0  0  0  0  0  0  0  0
  -30.3831  -15.8307   20.0125 C   0  0  0  0  0  0  0  0  0  0  0  0
  -23.9622  -34.5757   24.7988 C   0  0  0  0  0  0  0  0  0  0  0  0
  -24.2179  -29.9955   20.1752 C   0  0  0  0  0  0  0  0  0  0  0  0
  -23.5533  -27.2725   21.1180 C   0  0  0  0  0  0  0  0  0  0  0  0
  -29.5162  -25.2401   18.1103 C   0  0  0  0  0  0  0  0  0  0  0  0
  -22.8470  -33.5505   24.6108 C   0  0  0  0  0  0  0  0  0  0  0  0
  -30.1451  -12.4210   21.0097 C   0  0  0  0  0  0  0  0  0  0  0  0
  -23.3266  -32.1598   25.0143 C   0  0  0  0  0  0  0  0  0  0  0  0
  -28.6377  -12.1601   21.0524 C   0  0  0  0  0  0  0  0  0  0  0  0
  -27.8420  -23.6348   19.1201 C   0  0  0  0  0  0  0  0  0  0  0  0
  -30.4903  -13.8314   21.4844 C   0  0  0  0  0  0  0  0  0  0  0  0
  -28.2558  -14.6499   20.8467 C   0  0  0  0  0  0  0  0  0  0  0  0
  -28.9637  -22.9919   19.9345 C   0  0  0  0  0  0  0  0  0  0  0  0
  -24.4991  -31.7045   24.1371 C   0  0  1  0  0  0  0  0  0  0  0  0
  -23.1092  -29.7463   21.1932 C   0  0  1  0  0  0  0  0  0  0  0  0
  -27.8537  -13.2641   20.3161 C   0  0  2  0  0  0  0  0  0  0  0  0
  -28.1449  -25.0915   18.7698 C   0  0  1  0  0  0  0  0  0  1  0  0
  -19.3016  -24.0535   18.0573 C   0  0  0  0  0  0  0  0  0  0  0  0
  -19.6344  -27.2025   23.7149 C   0  0  0  0  0  0  0  0  0  0  0  0
  -19.0657  -25.1328   22.4262 C   0  0  0  0  0  0  0  0  0  0  0  0
  -18.3020  -27.3609   21.6045 C   0  0  0  0  0  0  0  0  0  0  0  0
  -23.1042  -24.0900   17.9346 C   0  0  0  0  0  0  0  0  0  0  0  0
  -30.4724  -22.1868   18.0633 C   0  0  0  0  0  0  0  0  0  0  0  0
  -20.7486  -26.7476   21.4307 C   0  0  1  0  0  0  0  0  0  0  0  0
  -20.6908  -24.6273   18.2890 C   0  0  2  0  0  0  0  0  0  0  0  0
  -32.4752  -20.6453   19.5550 C   0  0  0  0  0  0  0  0  0  0  0  0
  -19.4648  -26.6184   22.2983 C   0  0  0  0  0  0  0  0  0  0  0  0
  -25.6630  -13.6093   21.3947 N   0  0  0  0  0  0  0  0  0  0  0  0
  -26.3555  -13.0376   20.3948 N   0  0  0  0  0  0  0  0  0  0  0  0
  -22.5841  -28.3807   21.1341 N   0  0  0  0  0  0  0  0  0  0  0  0
  -29.7129  -14.8244   20.7397 N   0  0  0  0  0  0  0  0  0  0  0  0
  -26.1231  -11.6547   18.4858 N   0  0  0  0  0  0  0  0  0  0  0  0
  -21.9036  -11.9688   20.0648 N   0  0  0  0  0  0  0  0  0  0  0  0
  -29.5408  -16.6980   19.3177 N   0  0  0  0  0  0  0  0  0  0  0  0
  -24.0214  -31.2625   22.8445 N   0  0  0  0  0  0  0  0  0  0  0  0
  -20.6086  -26.2272   20.0750 N   0  0  0  0  0  0  0  0  0  0  0  0
  -30.3029  -23.1026   19.2440 N   0  3  1  0  0  0  0  0  0  0  0  0
  -21.6943  -23.6448   17.7902 N   0  3  0  0  0  0  0  0  0  0  0  0
  -23.2143  -11.0446   18.4258 O   0  0  0  0  0  0  0  0  0  0  0  0
  -23.4836  -29.0725   23.4250 O   0  0  0  0  0  0  0  0  0  0  0  0
  -20.3683  -29.0857   21.3061 O   0  0  0  0  0  0  0  0  0  0  0  0
  -21.3504  -24.0818   20.5484 O   0  0  0  0  0  0  0  0  0  0  0  0
  -31.6146  -15.9003   19.9847 O   0  0  0  0  0  0  0  0  0  0  0  0
  -20.2753  -14.8223   24.5645 O   0  0  0  0  0  0  0  0  0  0  0  0
  -28.0969  -25.8723   19.9635 O   0  0  0  0  0  0  0  0  0  1  0  0
  -15.4758  -12.1292   24.2231 F   0  0  0  0  0  0  0  0  0  0  0  0
  -19.2401  -13.4859   26.7519 F   0  0  0  0  0  0  0  0  0  0  0  0
  -33.2972  -19.7945   20.2362 F   0  0  0  0  0  0  0  0  0  0  0  0
  -33.2321  -21.1270   18.5262 F   0  0  0  0  0  0  0  0  0  0  0  0
  -32.2705  -21.7053   20.3889 F   0  0  0  0  0  0  0  0  0  0  0  0
  1  2  1  0  0  0  0
  1  5  2  0  0  0  0
  2  6  2  0  0  0  0
  3 10  2  0  0  0  0
  3 18  1  0  0  0  0
  4 11  1  0  0  0  0
  4 18  2  0  0  0  0
  5 20  1  0  0  0  0
  6 22  1  0  0  0  0
  7 12  2  0  0  0  0
  7 21  1  0  0  0  0
  8  9  2  0  0  0  0
  8 24  1  0  0  0  0
  9 26  1  0  0  0  0
 10 27  1  0  0  0  0
 11 27  2  0  0  0  0
 12 28  1  0  0  0  0
 13 14  2  0  0  0  0
 13 29  1  0  0  0  0
 14 30  1  0  0  0  0
 15 23  1  0  0  0  0
 15 28  2  0  0  0  0
 16 25  1  0  0  0  0
 16 26  2  0  0  0  0
 17 30  2  0  0  0  0
 17 31  1  0  0  0  0
 18 32  1  0  0  0  0
 19 32  1  0  0  0  0
 19 33  2  0  0  0  0
 19 36  1  0  0  0  0
 20 22  2  0  0  0  0
 20 41  1  0  0  0  0
 21 23  2  0  0  0  0
 21 42  1  0  0  0  0
 22 53  1  0  0  0  0
 23 43  1  0  0  0  0
 24 25  2  0  0  0  0
 24 62  1  0  0  0  0
 25 65  1  0  0  0  0
 26 73  1  0  0  0  0
 27 83  1  0  0  0  0
 28 84  1  0  0  0  0
 29 31  2  0  0  0  0
 29 83  1  0  0  0  0
 30 85  1  0  0  0  0
 31 86  1  0  0  0  0
 32 67  2  0  0  0  0
 33 68  1  0  0  0  0
 33 71  1  0  0  0  0
 34 35  2  0  0  0  0
 34 44  1  0  0  0  0
 34 76  1  0  0  0  0
 36 72  1  0  0  0  0
 36 78  2  0  0  0  0
 37 54  1  0  0  0  0
 37 74  1  0  0  0  0
 37 79  2  0  0  0  0
 38 63  1  0  0  0  0
 38 69  1  0  0  0  0
 38 80  2  0  0  0  0
 39 64  1  0  0  0  0
 39 75  1  0  0  0  0
 39 81  2  0  0  0  0
 40 70  1  0  0  0  0
 40 73  1  0  0  0  0
 40 82  2  0  0  0  0
 41 45  1  0  0  0  0
 42 54  1  0  0  0  0
 43 69  1  0  0  0  0
 44 56  1  0  0  0  0
 45 47  1  0  0  0  0
 46 48  1  0  0  0  0
 46 50  1  0  0  0  0
 47 53  1  0  0  0  0
 48 55  1  0  0  0  0
 49 52  1  0  0  0  0
 49 56  1  0  0  0  0
 50 70  1  0  0  0  0
 51 55  1  0  0  0  0
 51 70  1  0  0  0  0
 52 76  1  0  0  0  0
 53 74  1  0  0  0  0
 54 69  1  0  0  0  0
 55 68  1  0  0  0  0
 56 84  1  0  0  0  0
 57 64  1  0  0  0  0
 58 66  1  0  0  0  0
 59 66  1  0  0  0  0
 60 66  1  0  0  0  0
 61 77  1  0  0  0  0
 62 76  1  0  0  0  0
 63 66  1  0  0  0  0
 63 75  1  0  0  0  0
 64 77  1  0  0  0  0
 65 87  1  0  0  0  0
 65 88  1  0  0  0  0
 65 89  1  0  0  0  0
 67 68  1  0  0  0  0
M  CHG  2  76   1  77   1
M  ISO  4  40 100  56 101  73 100  84 101
M  END
> <Batch ID>
0049

> <Smiles>
C=C1C[101CH:1]([101O:1]c2ccc3c(c2)CN(C(=O)C(NC(=O)C(C)NC)C(C)(C)C)C(C(=O)NC2CCCc4ccccc42)C3)CCN1Cc1ccc([100NH:0][100C:0](=O)N2CCCC(n3nc(-c4ccc(Oc5ccc(F)cc5F)cc4)c(C(N)=O)c3N)C2)cc1C(F)(F)F

> <Shape>
0.295

> <Color>
0.067

> <Negative vol penalty>
0.000

$$$$

  -OEChem-04042322323D

 88 97  0     1  0  0  0  0  0999 V2000
  -29.1322  -34.8695   23.2200 C   0  0  0  0  0  0  0  0  0  0  0  0
  -29.6289  -33.6514   22.7675 C   0  0  0  0  0  0  0  0  0  0  0  0
  -30.6324  -18.2163   14.4378 C   0  0  0  0  0  0  0  0  0  0  0  0
  -22.4671  -18.2417   24.2702 C   0  0  0  0  0  0  0  0  0  0  0  0
  -22.3036  -19.5579   22.2508 C   0  0  0  0  0  0  0  0  0  0  0  0
  -27.8636  -34.9335   23.7948 C   0  0  0  0  0  0  0  0  0  0  0  0
  -28.8576  -32.4962   22.8905 C   0  0  0  0  0  0  0  0  0  0  0  0
  -28.6591  -27.7705   19.0001 C   0  0  0  0  0  0  0  0  0  0  0  0
  -30.9565  -17.1561   15.2842 C   0  0  0  0  0  0  0  0  0  0  0  0
  -29.8436  -19.2670   14.9066 C   0  0  0  0  0  0  0  0  0  0  0  0
  -21.5120  -19.0563   24.8785 C   0  0  0  0  0  0  0  0  0  0  0  0
  -21.3484  -20.3724   22.8590 C   0  0  0  0  0  0  0  0  0  0  0  0
  -29.2843  -26.5244   19.0054 C   0  0  0  0  0  0  0  0  0  0  0  0
  -18.1490  -19.4055   24.8423 C   0  0  0  0  0  0  0  0  0  0  0  0
  -17.1293  -18.7826   25.5619 C   0  0  0  0  0  0  0  0  0  0  0  0
  -27.3179  -25.5488   20.0057 C   0  0  0  0  0  0  0  0  0  0  0  0
  -17.8296  -19.9452   27.5607 C   0  0  0  0  0  0  0  0  0  0  0  0
  -22.8629  -18.4926   22.9564 C   0  0  0  0  0  0  0  0  0  0  0  0
  -23.6183  -16.4802   21.5826 C   0  0  0  0  0  0  0  0  0  0  0  0
  -27.0725  -33.7802   23.9162 C   0  0  0  0  0  0  0  0  0  0  0  0
  -27.3605  -27.9175   19.5085 C   0  0  0  0  0  0  0  0  0  0  0  0
  -27.5778  -32.5445   23.4687 C   0  0  0  0  0  0  0  0  0  0  0  0
  -26.6775  -26.7974   20.0034 C   0  0  0  0  0  0  0  0  0  0  0  0
  -30.4918  -17.1464   16.5994 C   0  0  0  0  0  0  0  0  0  0  0  0
  -29.3788  -19.2573   16.2217 C   0  0  0  0  0  0  0  0  0  0  0  0
  -29.7029  -18.1970   17.0681 C   0  0  0  0  0  0  0  0  0  0  0  0
  -20.9526  -20.1216   24.1729 C   0  0  0  0  0  0  0  0  0  0  0  0
  -28.6148  -25.4138   19.5108 C   0  0  0  0  0  0  0  0  0  0  0  0
  -19.0091  -20.2982   25.4819 C   0  0  0  0  0  0  0  0  0  0  0  0
  -16.9696  -19.0525   26.9211 C   0  0  0  0  0  0  0  0  0  0  0  0
  -18.8494  -20.5681   26.8411 C   0  0  0  0  0  0  0  0  0  0  0  0
  -23.8499  -17.6519   22.3278 C   0  0  0  0  0  0  0  0  0  0  0  0
  -24.8704  -16.0596   21.2061 C   0  0  0  0  0  0  0  0  0  0  0  0
  -28.4719  -22.8152   16.9137 C   0  0  0  0  0  0  0  0  0  0  0  0
  -29.4313  -24.0904   13.6065 C   0  0  0  0  0  0  0  0  0  0  0  0
  -28.5308  -23.5971   15.8251 C   0  0  0  0  0  0  0  0  0  0  0  0
  -29.3730  -23.3104   14.6917 C   0  0  0  0  0  0  0  0  0  0  0  0
  -22.3818  -15.8302   21.2596 C   0  0  0  0  0  0  0  0  0  0  0  0
  -26.0584  -29.5678   21.8928 C   0  0  0  0  0  0  0  0  0  0  0  0
  -23.2856  -28.4475   20.6364 C   0  0  0  0  0  0  0  0  0  0  0  0
  -21.7025  -26.0663   18.7735 C   0  0  0  0  0  0  0  0  0  0  0  0
  -29.9945  -18.1636   19.5701 C   0  0  0  0  0  0  0  0  0  0  0  0
  -25.7264  -33.8905   24.5875 C   0  0  0  0  0  0  0  0  0  0  0  0
  -26.6900  -29.2634   19.4712 C   0  0  0  0  0  0  0  0  0  0  0  0
  -25.2745  -26.8981   20.5420 C   0  0  0  0  0  0  0  0  0  0  0  0
  -27.5891  -23.1199   18.0964 C   0  0  0  0  0  0  0  0  0  0  0  0
  -24.8218  -32.6861   24.3399 C   0  0  0  0  0  0  0  0  0  0  0  0
  -29.4641  -16.8835   22.8499 C   0  0  0  0  0  0  0  0  0  0  0  0
  -25.5933  -31.3870   24.5492 C   0  0  0  0  0  0  0  0  0  0  0  0
  -27.9399  -16.8358   22.9784 C   0  0  0  0  0  0  0  0  0  0  0  0
  -29.2488  -21.7923   19.4685 C   0  0  0  0  0  0  0  0  0  0  0  0
  -29.9284  -18.1016   22.0534 C   0  0  0  0  0  0  0  0  0  0  0  0
  -27.7730  -18.2123   20.8655 C   0  0  0  0  0  0  0  0  0  0  0  0
  -30.1307  -21.6334   18.2308 C   0  0  0  0  0  0  0  0  0  0  0  0
  -26.7613  -31.2738   23.5620 C   0  0  1  0  0  0  0  0  0  0  0  0
  -25.5588  -29.3958   20.4863 C   0  0  1  0  0  0  0  0  0  0  0  0
  -27.2541  -16.9680   21.6044 C   0  0  2  0  0  0  0  0  0  0  0  0
  -28.3817  -23.0494   19.4019 C   0  0  1  0  0  0  0  0  0  1  0  0
  -30.8557  -15.9966   17.4821 C   0  0  0  0  0  0  0  0  0  0  0  0
  -19.4269  -25.3968   17.9543 C   0  0  0  0  0  0  0  0  0  0  0  0
  -22.5977  -27.3936   23.4160 C   0  0  0  0  0  0  0  0  0  0  0  0
  -20.8421  -25.9546   22.3597 C   0  0  0  0  0  0  0  0  0  0  0  0
  -20.6827  -28.4385   22.1931 C   0  0  0  0  0  0  0  0  0  0  0  0
  -22.5154  -26.3363   15.9406 C   0  0  0  0  0  0  0  0  0  0  0  0
  -28.5329  -20.4019   16.6960 C   0  0  0  0  0  0  0  0  0  0  0  0
  -22.4379  -27.2159   20.8452 C   0  0  1  0  0  0  0  0  0  0  0  0
  -20.6949  -26.1766   17.6434 C   0  0  2  0  0  0  0  0  0  0  0  0
  -21.6673  -27.2488   22.1952 C   0  0  0  0  0  0  0  0  0  0  0  0
  -25.1472  -17.9560   22.4204 N   0  0  0  0  0  0  0  0  0  0  0  0
  -25.7420  -16.9693   21.7286 N   0  0  0  0  0  0  0  0  0  0  0  0
  -24.6639  -28.2367   20.4897 N   0  0  0  0  0  0  0  0  0  0  0  0
  -29.2397  -18.1590   20.7622 N   0  0  0  0  0  0  0  0  0  0  0  0
  -25.2999  -15.0040   20.4825 N   0  0  0  0  0  0  0  0  0  0  0  0
  -21.1876  -16.3962   21.7261 N   0  0  0  0  0  0  0  0  0  0  0  0
  -29.2304  -18.1871   18.4039 N   0  0  0  0  0  0  0  0  0  0  0  0
  -26.2813  -30.8828   22.2539 N   0  0  0  0  0  0  0  0  0  0  0  0
  -21.5802  -27.1067   19.6701 N   0  0  0  0  0  0  0  0  0  0  0  0
  -29.3255  -21.6537   16.9526 N   0  3  1  0  0  0  0  0  0  0  0  0
  -21.2755  -25.6447   16.3781 N   0  3  0  0  0  0  0  0  0  0  0  0
  -22.3385  -14.7695   20.5913 O   0  0  0  0  0  0  0  0  0  0  0  0
  -26.2277  -28.5805   22.5988 O   0  0  0  0  0  0  0  0  0  0  0  0
  -22.7439  -29.5550   20.5975 O   0  0  0  0  0  0  0  0  0  0  0  0
  -22.5141  -25.1470   18.8549 O   0  0  0  0  0  0  0  0  0  0  0  0
  -31.2274  -18.1205   19.5825 O   0  0  0  0  0  0  0  0  0  0  0  0
  -20.0205  -20.9165   24.7660 O   0  0  0  0  0  0  0  0  0  0  0  0
  -29.2229  -24.1965   19.5177 O   0  0  0  0  0  0  0  0  0  1  0  0
  -15.9894  -18.4554   27.6116 F   0  0  0  0  0  0  0  0  0  0  0  0
  -19.6718  -21.4257   27.4607 F   0  0  0  0  0  0  0  0  0  0  0  0
  1  2  1  0  0  0  0
  1  6  2  0  0  0  0
  2  7  2  0  0  0  0
  3  9  1  0  0  0  0
  3 10  2  0  0  0  0
  4 11  2  0  0  0  0
  4 18  1  0  0  0  0
  5 12  1  0  0  0  0
  5 18  2  0  0  0  0
  6 20  1  0  0  0  0
  7 22  1  0  0  0  0
  8 13  2  0  0  0  0
  8 21  1  0  0  0  0
  9 24  2  0  0  0  0
 10 25  1  0  0  0  0
 11 27  1  0  0  0  0
 12 27  2  0  0  0  0
 13 28  1  0  0  0  0
 14 15  2  0  0  0  0
 14 29  1  0  0  0  0
 15 30  1  0  0  0  0
 16 23  1  0  0  0  0
 16 28  2  0  0  0  0
 17 30  2  0  0  0  0
 17 31  1  0  0  0  0
 18 32  1  0  0  0  0
 19 32  1  0  0  0  0
 19 33  2  0  0  0  0
 19 38  1  0  0  0  0
 20 22  2  0  0  0  0
 20 43  1  0  0  0  0
 21 23  2  0  0  0  0
 21 44  1  0  0  0  0
 22 55  1  0  0  0  0
 23 45  1  0  0  0  0
 24 26  1  0  0  0  0
 24 59  1  0  0  0  0
 25 26  2  0  0  0  0
 25 65  1  0  0  0  0
 26 75  1  0  0  0  0
 27 85  1  0  0  0  0
 28 86  1  0  0  0  0
 29 31  2  0  0  0  0
 29 85  1  0  0  0  0
 30 87  1  0  0  0  0
 31 88  1  0  0  0  0
 32 69  2  0  0  0  0
 33 70  1  0  0  0  0
 33 73  1  0  0  0  0
 34 36  2  0  0  0  0
 34 46  1  0  0  0  0
 34 78  1  0  0  0  0
 35 37  2  0  0  0  0
 36 37  1  0  0  0  0
 38 74  1  0  0  0  0
 38 80  2  0  0  0  0
 39 56  1  0  0  0  0
 39 76  1  0  0  0  0
 39 81  2  0  0  0  0
 40 66  1  0  0  0  0
 40 71  1  0  0  0  0
 40 82  2  0  0  0  0
 41 67  1  0  0  0  0
 41 77  1  0  0  0  0
 41 83  2  0  0  0  0
 42 72  1  0  0  0  0
 42 75  1  0  0  0  0
 42 84  2  0  0  0  0
 43 47  1  0  0  0  0
 44 56  1  0  0  0  0
 45 71  1  0  0  0  0
 46 58  1  0  0  0  0
 47 49  1  0  0  0  0
 48 50  1  0  0  0  0
 48 52  1  0  0  0  0
 49 55  1  0  0  0  0
 50 57  1  0  0  0  0
 51 54  1  0  0  0  0
 51 58  1  0  0  0  0
 52 72  1  0  0  0  0
 53 57  1  0  0  0  0
 53 72  1  0  0  0  0
 54 78  1  0  0  0  0
 55 76  1  0  0  0  0
 56 71  1  0  0  0  0
 57 70  1  0  0  0  0
 58 86  1  0  0  0  0
 60 67  1  0  0  0  0
 61 68  1  0  0  0  0
 62 68  1  0  0  0  0
 63 68  1  0  0  0  0
 64 79  1  0  0  0  0
 65 78  1  0  0  0  0
 66 68  1  0  0  0  0
 66 77  1  0  0  0  0
 67 79  1  0  0  0  0
 69 70  1  0  0  0  0
M  CHG  2  78   1  79   1
M  ISO  4  42 100  58 101  75 100  86 101
M  END
> <Batch ID>
0049

> <Smiles>
C=CC=C1C[101CH:1]([101O:1]c2ccc3c(c2)CN(C(=O)C(NC(=O)C(C)NC)C(C)(C)C)C(C(=O)NC2CCCc4ccccc42)C3)CCN1Cc1cccc(C)c1[100NH:0][100C:0](=O)N1CCCC(n2nc(-c3ccc(Oc4ccc(F)cc4F)cc3)c(C(N)=O)c2N)C1

> <Shape>
0.193

> <Color>
0.081

> <Negative vol penalty>
0.000

$$$$

  -OEChem-04042322323D

 92101  0     1  0  0  0  0  0999 V2000
  -31.8629  -27.4056   26.4730 C   0  0  0  0  0  0  0  0  0  0  0  0
  -31.9757  -27.8445   25.1587 C   0  0  0  0  0  0  0  0  0  0  0  0
  -25.3081  -20.0100   16.9998 C   0  0  0  0  0  0  0  0  0  0  0  0
  -26.7105  -12.6779   21.6597 C   0  0  0  0  0  0  0  0  0  0  0  0
  -25.6699  -14.3281   20.2346 C   0  0  0  0  0  0  0  0  0  0  0  0
  -30.7879  -26.6013   26.8453 C   0  0  0  0  0  0  0  0  0  0  0  0
  -31.0074  -27.4892   24.2190 C   0  0  0  0  0  0  0  0  0  0  0  0
  -25.6191  -27.0751   17.8789 C   0  0  0  0  0  0  0  0  0  0  0  0
  -24.1276  -20.3895   17.6386 C   0  0  0  0  0  0  0  0  0  0  0  0
  -26.4766  -20.7452   17.1996 C   0  0  0  0  0  0  0  0  0  0  0  0
  -25.4808  -12.0388   21.8177 C   0  0  0  0  0  0  0  0  0  0  0  0
  -24.4401  -13.6889   20.3925 C   0  0  0  0  0  0  0  0  0  0  0  0
  -24.3270  -26.5760   17.7211 C   0  0  0  0  0  0  0  0  0  0  0  0
  -23.5244   -9.9281   20.0428 C   0  0  0  0  0  0  0  0  0  0  0  0
  -23.4972   -8.5380   19.9310 C   0  0  0  0  0  0  0  0  0  0  0  0
  -23.7385  -27.4271   19.9001 C   0  0  0  0  0  0  0  0  0  0  0  0
  -22.6587   -8.3726   22.1908 C   0  0  0  0  0  0  0  0  0  0  0  0
  -26.8050  -13.8226   20.8682 C   0  0  0  0  0  0  0  0  0  0  0  0
  -29.2539  -13.9378   20.1630 C   0  0  0  0  0  0  0  0  0  0  0  0
  -29.8130  -26.2261   25.9063 C   0  0  0  0  0  0  0  0  0  0  0  0
  -25.9844  -27.7456   19.0551 C   0  0  0  0  0  0  0  0  0  0  0  0
  -29.9022  -26.6978   24.5808 C   0  0  0  0  0  0  0  0  0  0  0  0
  -25.0352  -27.9361   20.0694 C   0  0  0  0  0  0  0  0  0  0  0  0
  -24.1155  -21.5041   18.4771 C   0  0  0  0  0  0  0  0  0  0  0  0
  -26.4645  -21.8598   18.0382 C   0  0  0  0  0  0  0  0  0  0  0  0
  -25.2840  -22.2393   18.6769 C   0  0  0  0  0  0  0  0  0  0  0  0
  -24.3456  -12.5442   21.1840 C   0  0  0  0  0  0  0  0  0  0  0  0
  -23.3872  -26.7494   18.7329 C   0  0  0  0  0  0  0  0  0  0  0  0
  -23.1188  -10.5405   21.2286 C   0  0  0  0  0  0  0  0  0  0  0  0
  -23.0643   -7.7603   21.0050 C   0  0  0  0  0  0  0  0  0  0  0  0
  -22.6859   -9.7628   22.3026 C   0  0  0  0  0  0  0  0  0  0  0  0
  -28.0749  -14.4836   20.7051 C   0  0  0  0  0  0  0  0  0  0  0  0
  -30.1681  -14.9607   20.2298 C   0  0  0  0  0  0  0  0  0  0  0  0
  -20.5089  -22.4453   18.7422 C   0  0  0  0  0  0  0  0  0  0  0  0
  -19.2740  -19.7514   16.5736 C   0  0  0  0  0  0  0  0  0  0  0  0
  -19.6879  -21.5415   18.1865 C   0  0  0  0  0  0  0  0  0  0  0  0
  -20.0931  -20.6524   17.1274 C   0  0  0  0  0  0  0  0  0  0  0  0
  -27.8655  -23.8183   17.2836 C   0  0  0  0  0  0  0  0  0  0  0  0
  -29.5007  -12.6237   19.6453 C   0  0  0  0  0  0  0  0  0  0  0  0
  -28.1123  -27.2339   21.3603 C   0  0  0  0  0  0  0  0  0  0  0  0
  -27.1271  -30.1507   22.3819 C   0  0  0  0  0  0  0  0  0  0  0  0
  -23.9925  -31.9084   22.7019 C   0  0  0  0  0  0  0  0  0  0  0  0
  -29.6144  -20.9208   20.3768 C   0  0  0  0  0  0  0  0  0  0  0  0
  -28.6662  -25.3604   26.3653 C   0  0  0  0  0  0  0  0  0  0  0  0
  -27.3747  -28.3014   19.1988 C   0  0  0  0  0  0  0  0  0  0  0  0
  -25.3712  -28.6665   21.3430 C   0  0  0  0  0  0  0  0  0  0  0  0
  -20.0810  -23.3716   19.8479 C   0  0  0  0  0  0  0  0  0  0  0  0
  -27.9399  -24.6754   25.2122 C   0  0  0  0  0  0  0  0  0  0  0  0
  -20.4341  -24.8124   19.4991 C   0  0  0  0  0  0  0  0  0  0  0  0
  -31.2422  -18.8620   22.7827 C   0  0  0  0  0  0  0  0  0  0  0  0
  -27.6016  -25.6931   24.1332 C   0  0  0  0  0  0  0  0  0  0  0  0
  -30.7214  -17.4571   22.4741 C   0  0  0  0  0  0  0  0  0  0  0  0
  -30.1625  -19.9220   22.5765 C   0  0  0  0  0  0  0  0  0  0  0  0
  -28.9954  -18.4932   20.9424 C   0  0  0  0  0  0  0  0  0  0  0  0
  -22.1781  -23.9781   17.8783 C   0  0  0  0  0  0  0  0  0  0  0  0
  -28.8774  -26.2987   23.5344 C   0  0  1  0  0  0  0  0  0  0  0  0
  -27.7844  -28.5179   20.6523 C   0  0  1  0  0  0  0  0  0  0  0  0
  -30.0644  -17.3959   21.0821 C   0  0  2  0  0  0  0  0  0  0  0  0
  -21.8850  -24.9325   19.0330 C   0  0  1  0  0  0  0  0  0  1  0  0
  -25.2710  -23.4345   19.5760 C   0  0  0  0  0  0  0  0  0  0  0  0
  -23.4905  -34.3670   22.6751 C   0  0  0  0  0  0  0  0  0  0  0  0
  -27.3457  -29.9338   25.4175 C   0  0  0  0  0  0  0  0  0  0  0  0
  -25.4401  -31.5474   25.6002 C   0  0  0  0  0  0  0  0  0  0  0  0
  -27.5731  -32.2564   24.5185 C   0  0  0  0  0  0  0  0  0  0  0  0
  -22.0330  -31.6023   20.5051 C   0  0  0  0  0  0  0  0  0  0  0  0
  -22.8327  -21.8907   19.1524 C   0  0  0  0  0  0  0  0  0  0  0  0
  -29.0112  -21.7747   18.1260 C   0  0  0  0  0  0  0  0  0  0  0  0
  -27.7295  -22.6297   18.2354 C   0  0  2  0  0  0  0  0  0  0  0  0
  -26.0430  -30.6497   23.3064 C   0  0  1  0  0  0  0  0  0  0  0  0
  -23.5187  -33.0815   21.8630 C   0  0  2  0  0  0  0  0  0  0  0  0
  -26.5975  -31.0726   24.6961 C   0  0  0  0  0  0  0  0  0  0  0  0
  -28.2237  -15.7545   21.0882 N   0  0  0  0  0  0  0  0  0  0  0  0
  -29.5069  -16.0158   20.7865 N   0  0  0  0  0  0  0  0  0  0  0  0
  -26.7454  -29.1859   21.4388 N   0  0  0  0  0  0  0  0  0  0  0  0
  -29.5808  -19.8106   21.2366 N   0  0  0  0  0  0  0  0  0  0  0  0
  -31.4650  -15.0516   19.8661 N   0  0  0  0  0  0  0  0  0  0  0  0
  -28.4509  -11.6952   19.6514 N   0  0  0  0  0  0  0  0  0  0  0  0
  -28.5163  -27.4015   22.6711 N   0  0  0  0  0  0  0  0  0  0  0  0
  -25.3532  -31.7161   22.5886 N   0  0  0  0  0  0  0  0  0  0  0  0
  -29.0471  -20.7281   19.1231 N   0  0  0  0  0  0  0  0  0  0  0  0
  -21.8505  -22.5452   18.2209 N   0  3  1  0  0  0  0  0  0  0  0  0
  -22.1463  -32.8247   21.3417 N   0  3  0  0  0  0  0  0  0  0  0  0
  -27.0345  -24.1169   16.4314 O   0  0  0  0  0  0  0  0  0  0  0  0
  -30.6236  -12.2780   19.2058 O   0  0  0  0  0  0  0  0  0  0  0  0
  -28.0052  -26.1697   20.7621 O   0  0  0  0  0  0  0  0  0  0  0  0
  -28.2688  -30.6056   22.4876 O   0  0  0  0  0  0  0  0  0  0  0  0
  -23.2323  -31.2327   23.3918 O   0  0  0  0  0  0  0  0  0  0  0  0
  -30.1178  -22.0020   20.7004 O   0  0  0  0  0  0  0  0  0  0  0  0
  -23.1456  -11.9207   21.3377 O   0  0  0  0  0  0  0  0  0  0  0  0
  -22.1255  -26.2626   18.5817 O   0  0  0  0  0  0  0  0  0  1  0  0
  -23.0368   -6.4254   20.8969 F   0  0  0  0  0  0  0  0  0  0  0  0
  -22.2939  -10.3455   23.4439 F   0  0  0  0  0  0  0  0  0  0  0  0
  1  2  1  0  0  0  0
  1  6  2  0  0  0  0
  2  7  2  0  0  0  0
  3  9  2  0  0  0  0
  3 10  1  0  0  0  0
  4 11  2  0  0  0  0
  4 18  1  0  0  0  0
  5 12  1  0  0  0  0
  5 18  2  0  0  0  0
  6 20  1  0  0  0  0
  7 22  1  0  0  0  0
  8 13  2  0  0  0  0
  8 21  1  0  0  0  0
  9 24  1  0  0  0  0
 10 25  2  0  0  0  0
 11 27  1  0  0  0  0
 12 27  2  0  0  0  0
 13 28  1  0  0  0  0
 14 15  2  0  0  0  0
 14 29  1  0  0  0  0
 15 30  1  0  0  0  0
 16 23  1  0  0  0  0
 16 28  2  0  0  0  0
 17 30  2  0  0  0  0
 17 31  1  0  0  0  0
 18 32  1  0  0  0  0
 19 32  1  0  0  0  0
 19 33  2  0  0  0  0
 19 39  1  0  0  0  0
 20 22  2  0  0  0  0
 20 44  1  0  0  0  0
 21 23  2  0  0  0  0
 21 45  1  0  0  0  0
 22 56  1  0  0  0  0
 23 46  1  0  0  0  0
 24 26  2  0  0  0  0
 24 66  1  0  0  0  0
 25 26  1  0  0  0  0
 25 68  1  0  0  0  0
 26 60  1  0  0  0  0
 27 89  1  0  0  0  0
 28 90  1  0  0  0  0
 29 31  2  0  0  0  0
 29 89  1  0  0  0  0
 30 91  1  0  0  0  0
 31 92  1  0  0  0  0
 32 72  2  0  0  0  0
 33 73  1  0  0  0  0
 33 76  1  0  0  0  0
 34 36  2  0  0  0  0
 34 47  1  0  0  0  0
 34 81  1  0  0  0  0
 35 37  2  0  0  0  0
 36 37  1  0  0  0  0
 38 68  1  0  0  0  0
 38 83  2  0  0  0  0
 39 77  1  0  0  0  0
 39 84  2  0  0  0  0
 40 57  1  0  0  0  0
 40 78  1  0  0  0  0
 40 85  2  0  0  0  0
 41 69  1  0  0  0  0
 41 74  1  0  0  0  0
 41 86  2  0  0  0  0
 42 70  1  0  0  0  0
 42 79  1  0  0  0  0
 42 87  2  0  0  0  0
 43 75  1  0  0  0  0
 43 80  1  0  0  0  0
 43 88  2  0  0  0  0
 44 48  1  0  0  0  0
 45 57  1  0  0  0  0
 46 74  1  0  0  0  0
 47 49  1  0  0  0  0
 48 51  1  0  0  0  0
 49 59  1  0  0  0  0
 50 52  1  0  0  0  0
 50 53  1  0  0  0  0
 51 56  1  0  0  0  0
 52 58  1  0  0  0  0
 53 75  1  0  0  0  0
 54 58  1  0  0  0  0
 54 75  1  0  0  0  0
 55 59  1  0  0  0  0
 55 81  1  0  0  0  0
 56 78  1  0  0  0  0
 57 74  1  0  0  0  0
 58 73  1  0  0  0  0
 59 90  1  0  0  0  0
 61 70  1  0  0  0  0
 62 71  1  0  0  0  0
 63 71  1  0  0  0  0
 64 71  1  0  0  0  0
 65 82  1  0  0  0  0
 66 81  1  0  0  0  0
 67 68  1  0  0  0  0
 67 80  1  0  0  0  0
 69 71  1  0  0  0  0
 69 79  1  0  0  0  0
 70 82  1  0  0  0  0
 72 73  1  0  0  0  0
M  CHG  2  81   1  82   1
M  ISO  4  43 100  59 101  80 100  90 101
M  END
> <Batch ID>
0049

> <Smiles>
C=CC=C1CC[101CH:1]([101O:1]c2ccc3c(c2)CN(C(=O)C(NC(=O)C(C)NC)C(C)(C)C)C(C(=O)NC2CCCc4ccccc42)C3)CN1Cc1cccc(C(C=O)C[100NH:0][100C:0](=O)N2CCCC(n3nc(-c4ccc(Oc5ccc(F)cc5F)cc4)c(C(N)=O)c3N)C2)c1C

> <Shape>
0.260

> <Color>
0.088

> <Negative vol penalty>
0.000

$$$$

  -OEChem-04042322323D

 85 93  0     1  0  0  0  0  0999 V2000
  -23.9182  -32.5710   29.8911 C   0  0  0  0  0  0  0  0  0  0  0  0
  -23.8259  -31.3032   29.3257 C   0  0  0  0  0  0  0  0  0  0  0  0
  -24.5416   -8.7275   21.4159 C   0  0  0  0  0  0  0  0  0  0  0  0
  -23.4955  -10.6375   22.4622 C   0  0  0  0  0  0  0  0  0  0  0  0
  -24.0520  -33.6906   29.0711 C   0  0  0  0  0  0  0  0  0  0  0  0
  -23.8662  -31.1545   27.9398 C   0  0  0  0  0  0  0  0  0  0  0  0
  -26.8867  -27.3610   26.4801 C   0  0  0  0  0  0  0  0  0  0  0  0
  -29.5978  -18.9329   23.6448 C   0  0  0  0  0  0  0  0  0  0  0  0
  -29.5874  -17.8898   22.7189 C   0  0  0  0  0  0  0  0  0  0  0  0
  -24.0072   -7.8958   22.3999 C   0  0  0  0  0  0  0  0  0  0  0  0
  -22.9611   -9.8058   23.4462 C   0  0  0  0  0  0  0  0  0  0  0  0
  -26.3842  -26.0658   26.5972 C   0  0  0  0  0  0  0  0  0  0  0  0
  -21.0295   -6.4518   23.0933 C   0  0  0  0  0  0  0  0  0  0  0  0
  -20.4448   -5.2540   22.6822 C   0  0  0  0  0  0  0  0  0  0  0  0
  -25.8601  -26.0627   24.2426 C   0  0  0  0  0  0  0  0  0  0  0  0
  -22.0336   -4.0195   24.0197 C   0  0  0  0  0  0  0  0  0  0  0  0
  -24.2858  -10.0984   21.4471 C   0  0  0  0  0  0  0  0  0  0  0  0
  -24.2484  -11.3090   19.2019 C   0  0  0  0  0  0  0  0  0  0  0  0
  -24.1037  -33.5547   27.6749 C   0  0  0  0  0  0  0  0  0  0  0  0
  -26.8697  -28.0220   25.2435 C   0  0  0  0  0  0  0  0  0  0  0  0
  -23.9995  -32.2735   27.1003 C   0  0  0  0  0  0  0  0  0  0  0  0
  -26.3653  -27.3653   24.1119 C   0  0  0  0  0  0  0  0  0  0  0  0
  -28.3951  -19.4552   24.1207 C   0  0  0  0  0  0  0  0  0  0  0  0
  -27.1820  -18.9344   23.6706 C   0  0  0  0  0  0  0  0  0  0  0  0
  -28.3742  -17.3690   22.2687 C   0  0  0  0  0  0  0  0  0  0  0  0
  -23.2169   -8.4349   23.4151 C   0  0  0  0  0  0  0  0  0  0  0  0
  -25.8682  -25.4175   25.4790 C   0  0  0  0  0  0  0  0  0  0  0  0
  -22.1163   -6.4335   23.9675 C   0  0  0  0  0  0  0  0  0  0  0  0
  -20.9469   -4.0379   23.1454 C   0  0  0  0  0  0  0  0  0  0  0  0
  -22.6183   -5.2174   24.4307 C   0  0  0  0  0  0  0  0  0  0  0  0
  -27.1715  -17.8913   22.7446 C   0  0  0  0  0  0  0  0  0  0  0  0
  -24.8379  -10.9582   20.4312 C   0  0  0  0  0  0  0  0  0  0  0  0
  -25.1659  -12.1391   18.6056 C   0  0  0  0  0  0  0  0  0  0  0  0
  -22.9845  -10.9193   18.6485 C   0  0  0  0  0  0  0  0  0  0  0  0
  -25.4934  -30.6619   24.1298 C   0  0  0  0  0  0  0  0  0  0  0  0
  -27.2613  -30.0030   21.4911 C   0  0  0  0  0  0  0  0  0  0  0  0
  -25.6103  -21.8698   24.8762 C   0  0  0  0  0  0  0  0  0  0  0  0
  -28.9041  -27.6762   19.6112 C   0  0  0  0  0  0  0  0  0  0  0  0
  -29.4722  -15.6791   20.7571 C   0  0  0  0  0  0  0  0  0  0  0  0
  -24.2016  -34.7985   26.8275 C   0  0  0  0  0  0  0  0  0  0  0  0
  -27.4400  -29.4090   25.1282 C   0  0  0  0  0  0  0  0  0  0  0  0
  -26.3428  -28.0235   22.7573 C   0  0  0  0  0  0  0  0  0  0  0  0
  -24.6130  -34.5212   25.3839 C   0  0  0  0  0  0  0  0  0  0  0  0
  -29.8717  -13.0108   18.4339 C   0  0  0  0  0  0  0  0  0  0  0  0
  -23.8072  -33.3586   24.8131 C   0  0  0  0  0  0  0  0  0  0  0  0
  -28.5700  -12.2170   18.5662 C   0  0  0  0  0  0  0  0  0  0  0  0
  -30.3373  -13.5648   19.7793 C   0  0  0  0  0  0  0  0  0  0  0  0
  -28.0300  -13.5525   20.6427 C   0  0  0  0  0  0  0  0  0  0  0  0
  -24.0642  -32.0691   25.6023 C   0  0  1  0  0  0  0  0  0  0  0  0
  -26.9014  -30.1786   23.9261 C   0  0  1  0  0  0  0  0  0  0  0  0
  -27.4870  -13.0293   19.3029 C   0  0  2  0  0  0  0  0  0  0  0  0
  -28.4320  -20.5721   25.1116 C   0  0  0  0  0  0  0  0  0  0  0  0
  -30.2205  -27.4311   17.4888 C   0  0  0  0  0  0  0  0  0  0  0  0
  -24.6791  -30.1654   19.8738 C   0  0  0  0  0  0  0  0  0  0  0  0
  -25.8628  -29.0037   17.9982 C   0  0  0  0  0  0  0  0  0  0  0  0
  -26.6613  -31.2324   18.7843 C   0  0  0  0  0  0  0  0  0  0  0  0
  -25.7256  -21.2459   22.4576 C   0  0  0  0  0  0  0  0  0  0  0  0
  -31.3076  -26.7546   21.0716 C   0  0  0  0  0  0  0  0  0  0  0  0
  -25.8772  -19.4829   24.1714 C   0  0  0  0  0  0  0  0  0  0  0  0
  -25.4761  -23.3140   24.4412 C   0  0  0  0  0  0  0  0  0  1  0  0
  -27.0451  -29.1965   20.2334 C   0  0  1  0  0  0  0  0  0  0  0  0
  -30.2882  -27.6799   18.9876 C   0  0  2  0  0  0  0  0  0  0  0  0
  -26.0606  -29.8876   19.2482 C   0  0  0  0  0  0  0  0  0  0  0  0
  -26.0372  -11.5195   20.6067 N   0  0  0  0  0  0  0  0  0  0  0  0
  -26.2087  -12.2313   19.4798 N   0  0  0  0  0  0  0  0  0  0  0  0
  -26.9060  -29.3824   22.6971 N   0  0  0  0  0  0  0  0  0  0  0  0
  -29.2610  -14.3262   20.4170 N   0  0  0  0  0  0  0  0  0  0  0  0
  -25.1743  -12.7919   17.4240 N   0  0  0  0  0  0  0  0  0  0  0  0
  -22.1648  -10.0610   19.3940 N   0  0  0  0  0  0  0  0  0  0  0  0
  -28.3670  -16.3094   21.3280 N   0  0  0  0  0  0  0  0  0  0  0  0
  -25.3357  -31.4904   25.2245 N   0  0  0  0  0  0  0  0  0  0  0  0
  -28.3700  -28.9458   19.6765 N   0  0  0  0  0  0  0  0  0  0  0  0
  -25.7327  -20.9058   23.8750 N   0  0  0  0  0  0  0  0  0  0  0  0
  -31.1360  -26.6195   19.6022 N   0  3  0  0  0  0  0  0  0  0  0  0
  -22.6007  -11.3072   17.5190 O   0  0  0  0  0  0  0  0  0  0  0  0
  -24.6153  -30.3105   23.3506 O   0  0  0  0  0  0  0  0  0  0  0  0
  -27.7348  -31.1389   21.4072 O   0  0  0  0  0  0  0  0  0  0  0  0
  -25.6129  -21.6120   26.0838 O   0  0  0  0  0  0  0  0  0  0  0  0
  -28.3506  -26.6494   19.9981 O   0  0  0  0  0  0  0  0  0  0  0  0
  -30.5450  -16.2451   20.5318 O   0  0  0  0  0  0  0  0  0  0  0  0
  -22.6951   -7.6236   24.3753 O   0  0  0  0  0  0  0  0  0  0  0  0
  -25.3764  -24.1536   25.5907 O   0  0  0  0  0  0  0  0  0  1  0  0
  -20.3843   -2.8877   22.7518 F   0  0  0  0  0  0  0  0  0  0  0  0
  -23.6615   -5.1935   25.2716 F   0  0  0  0  0  0  0  0  0  0  0  0
  -26.0040  -17.3912   22.3122 F   0  0  0  0  0  0  0  0  0  0  0  0
  1  2  1  0  0  0  0
  1  5  2  0  0  0  0
  2  6  2  0  0  0  0
  3 10  2  0  0  0  0
  3 17  1  0  0  0  0
  4 11  1  0  0  0  0
  4 17  2  0  0  0  0
  5 19  1  0  0  0  0
  6 21  1  0  0  0  0
  7 12  2  0  0  0  0
  7 20  1  0  0  0  0
  8  9  1  0  0  0  0
  8 23  2  0  0  0  0
  9 25  2  0  0  0  0
 10 26  1  0  0  0  0
 11 26  2  0  0  0  0
 12 27  1  0  0  0  0
 13 14  2  0  0  0  0
 13 28  1  0  0  0  0
 14 29  1  0  0  0  0
 15 22  1  0  0  0  0
 15 27  2  0  0  0  0
 16 29  2  0  0  0  0
 16 30  1  0  0  0  0
 17 32  1  0  0  0  0
 18 32  1  0  0  0  0
 18 33  2  0  0  0  0
 18 34  1  0  0  0  0
 19 21  2  0  0  0  0
 19 40  1  0  0  0  0
 20 22  2  0  0  0  0
 20 41  1  0  0  0  0
 21 49  1  0  0  0  0
 22 42  1  0  0  0  0
 23 24  1  0  0  0  0
 23 52  1  0  0  0  0
 24 31  2  0  0  0  0
 24 59  1  0  0  0  0
 25 31  1  0  0  0  0
 25 70  1  0  0  0  0
 26 81  1  0  0  0  0
 27 82  1  0  0  0  0
 28 30  2  0  0  0  0
 28 81  1  0  0  0  0
 29 83  1  0  0  0  0
 30 84  1  0  0  0  0
 31 85  1  0  0  0  0
 32 64  2  0  0  0  0
 33 65  1  0  0  0  0
 33 68  1  0  0  0  0
 34 69  1  0  0  0  0
 34 75  2  0  0  0  0
 35 50  1  0  0  0  0
 35 71  1  0  0  0  0
 35 76  2  0  0  0  0
 36 61  1  0  0  0  0
 36 66  1  0  0  0  0
 36 77  2  0  0  0  0
 37 60  1  0  0  0  0
 37 73  1  0  0  0  0
 37 78  2  0  0  0  0
 38 62  1  0  0  0  0
 38 72  1  0  0  0  0
 38 79  2  0  0  0  0
 39 67  1  0  0  0  0
 39 70  1  0  0  0  0
 39 80  2  0  0  0  0
 40 43  1  0  0  0  0
 41 50  1  0  0  0  0
 42 66  1  0  0  0  0
 43 45  1  0  0  0  0
 44 46  1  0  0  0  0
 44 47  1  0  0  0  0
 45 49  1  0  0  0  0
 46 51  1  0  0  0  0
 47 67  1  0  0  0  0
 48 51  1  0  0  0  0
 48 67  1  0  0  0  0
 49 71  1  0  0  0  0
 50 66  1  0  0  0  0
 51 65  1  0  0  0  0
 53 62  1  0  0  0  0
 54 63  1  0  0  0  0
 55 63  1  0  0  0  0
 56 63  1  0  0  0  0
 57 73  1  0  0  0  0
 58 74  1  0  0  0  0
 59 73  1  0  0  0  0
 60 82  1  0  0  0  0
 61 63  1  0  0  0  0
 61 72  1  0  0  0  0
 62 74  1  0  0  0  0
 64 65  1  0  0  0  0
M  CHG  1  74   1
M  ISO  4  39 100  60 101  70 100  82 101
M  END
> <Batch ID>
0049

> <Smiles>
CNC(C)C(=O)NC(C(=O)N1Cc2cc([101O:1][101CH2:1]C(=O)N(C)Cc3c(C)ccc([100NH:0][100C:0](=O)N4CCCC(n5nc(-c6ccc(Oc7ccc(F)cc7F)cc6)c(C(N)=O)c5N)C4)c3F)ccc2CC1C(=O)NC1CCCc2ccccc21)C(C)(C)C

> <Shape>
0.233

> <Color>
0.081

> <Negative vol penalty>
0.000

$$$$

  -OEChem-04042322323D

 86 94  0     1  0  0  0  0  0999 V2000
  -27.3894  -36.8119   24.3743 C   0  0  0  0  0  0  0  0  0  0  0  0
  -27.9553  -35.7134   23.7351 C   0  0  0  0  0  0  0  0  0  0  0  0
  -26.3166  -12.8910   21.5036 C   0  0  0  0  0  0  0  0  0  0  0  0
  -26.0346  -13.5149   19.1866 C   0  0  0  0  0  0  0  0  0  0  0  0
  -29.2086  -23.4191   16.5878 C   0  0  0  0  0  0  0  0  0  0  0  0
  -26.2514  -36.6480   25.1630 C   0  0  0  0  0  0  0  0  0  0  0  0
  -27.3842  -34.4502   23.8853 C   0  0  0  0  0  0  0  0  0  0  0  0
  -27.1180  -30.0067   19.6794 C   0  0  0  0  0  0  0  0  0  0  0  0
  -25.0897  -12.2281   21.4745 C   0  0  0  0  0  0  0  0  0  0  0  0
  -24.8077  -12.8519   19.1575 C   0  0  0  0  0  0  0  0  0  0  0  0
  -27.8970  -28.8706   19.4646 C   0  0  0  0  0  0  0  0  0  0  0  0
  -23.8803   -9.2741   20.3591 C   0  0  0  0  0  0  0  0  0  0  0  0
  -29.4782  -22.8862   15.3273 C   0  0  0  0  0  0  0  0  0  0  0  0
  -23.8153   -8.0051   20.9343 C   0  0  0  0  0  0  0  0  0  0  0  0
  -26.2995  -27.5492   20.6979 C   0  0  0  0  0  0  0  0  0  0  0  0
  -22.1355   -8.7927   22.4819 C   0  0  0  0  0  0  0  0  0  0  0  0
  -26.7891  -13.5344   20.3597 C   0  0  0  0  0  0  0  0  0  0  0  0
  -29.1267  -22.5782   17.6977 C   0  0  0  0  0  0  0  0  0  0  0  0
  -29.3216  -13.6805   20.0899 C   0  0  0  0  0  0  0  0  0  0  0  0
  -25.6605  -35.3838   25.3152 C   0  0  0  0  0  0  0  0  0  0  0  0
  -25.9274  -29.9245   20.4156 C   0  0  0  0  0  0  0  0  0  0  0  0
  -26.2381  -34.2691   24.6780 C   0  0  0  0  0  0  0  0  0  0  0  0
  -25.5058  -28.6853   20.9185 C   0  0  0  0  0  0  0  0  0  0  0  0
  -29.5841  -20.6713   16.2866 C   0  0  0  0  0  0  0  0  0  0  0  0
  -29.3145  -21.2043   17.5471 C   0  0  0  0  0  0  0  0  0  0  0  0
  -24.3353  -12.2086   20.3014 C   0  0  0  0  0  0  0  0  0  0  0  0
  -27.4893  -27.6422   19.9763 C   0  0  0  0  0  0  0  0  0  0  0  0
  -23.0730  -10.3025   20.8453 C   0  0  0  0  0  0  0  0  0  0  0  0
  -22.9429   -7.7644   21.9957 C   0  0  0  0  0  0  0  0  0  0  0  0
  -29.6660  -21.5122   15.1767 C   0  0  0  0  0  0  0  0  0  0  0  0
  -22.2006  -10.0618   21.9067 C   0  0  0  0  0  0  0  0  0  0  0  0
  -28.0561  -14.2198   20.3893 C   0  0  0  0  0  0  0  0  0  0  0  0
  -30.1917  -14.7287   20.2653 C   0  0  0  0  0  0  0  0  0  0  0  0
  -28.8405  -23.1699   19.0200 C   0  0  0  0  0  0  0  0  0  0  0  0
  -29.6786  -12.3511   19.6890 C   0  0  0  0  0  0  0  0  0  0  0  0
  -24.8740  -31.2051   23.1275 C   0  0  0  0  0  0  0  0  0  0  0  0
  -22.0959  -29.7644   22.2736 C   0  0  0  0  0  0  0  0  0  0  0  0
  -20.5359  -27.2968   20.5061 C   0  0  0  0  0  0  0  0  0  0  0  0
  -29.5419  -20.6625   19.9968 C   0  0  0  0  0  0  0  0  0  0  0  0
  -24.4586  -35.2480   26.2161 C   0  0  0  0  0  0  0  0  0  0  0  0
  -25.0847  -31.1542   20.6157 C   0  0  0  0  0  0  0  0  0  0  0  0
  -24.2255  -28.5399   21.6982 C   0  0  0  0  0  0  0  0  0  0  0  0
  -23.6961  -33.9399   26.0214 C   0  0  0  0  0  0  0  0  0  0  0  0
  -30.7250  -18.7734   22.7733 C   0  0  0  0  0  0  0  0  0  0  0  0
  -24.6624  -32.7604   25.9767 C   0  0  0  0  0  0  0  0  0  0  0  0
  -30.2953  -17.3413   22.4468 C   0  0  0  0  0  0  0  0  0  0  0  0
  -29.6831  -19.7951   22.3211 C   0  0  0  0  0  0  0  0  0  0  0  0
  -28.8498  -18.2566   20.5868 C   0  0  0  0  0  0  0  0  0  0  0  0
  -25.6332  -32.8870   24.7965 C   0  0  1  0  0  0  0  0  0  0  0  0
  -24.1523  -31.0504   21.8187 C   0  0  1  0  0  0  0  0  0  0  0  0
  -29.8969  -17.1964   20.9650 C   0  0  2  0  0  0  0  0  0  0  0  0
  -29.7879  -19.2029   16.0962 C   0  0  0  0  0  0  0  0  0  0  0  0
  -18.2611  -26.3475   20.0357 C   0  0  0  0  0  0  0  0  0  0  0  0
  -22.0809  -28.4437   25.0242 C   0  0  0  0  0  0  0  0  0  0  0  0
  -20.3733  -26.8284   24.1623 C   0  0  0  0  0  0  0  0  0  0  0  0
  -19.8496  -29.2658   24.2495 C   0  0  0  0  0  0  0  0  0  0  0  0
  -29.5180  -23.6372   21.8711 C   0  0  0  0  0  0  0  0  0  0  0  0
  -30.6985  -25.6844   21.0055 C   0  0  0  0  0  0  0  0  0  0  0  0
  -20.7694  -27.8661   17.6112 C   0  0  0  0  0  0  0  0  0  0  0  0
  -28.2020  -25.5169   20.7707 C   0  0  0  0  0  0  0  0  0  1  0  0
  -21.4766  -28.4088   22.5143 C   0  0  1  0  0  0  0  0  0  0  0  0
  -19.3322  -27.3269   19.5816 C   0  0  2  0  0  0  0  0  0  0  0  0
  -20.9703  -28.2394   23.9746 C   0  0  0  0  0  0  0  0  0  0  0  0
  -29.5184  -24.7335   20.8067 C   0  0  0  0  0  0  0  0  0  0  0  0
  -28.1129  -15.5102   20.7294 N   0  0  0  0  0  0  0  0  0  0  0  0
  -29.4245  -15.7906   20.6447 N   0  0  0  0  0  0  0  0  0  0  0  0
  -23.4394  -29.7725   21.8726 N   0  0  0  0  0  0  0  0  0  0  0  0
  -29.3581  -19.5998   20.9065 N   0  0  0  0  0  0  0  0  0  0  0  0
  -31.5306  -14.8363   20.1306 N   0  0  0  0  0  0  0  0  0  0  0  0
  -27.7440  -22.7691   19.6634 N   0  0  0  0  0  0  0  0  0  0  0  0
  -28.6604  -11.3970   19.5567 N   0  0  0  0  0  0  0  0  0  0  0  0
  -29.2305  -20.3495   18.6740 N   0  0  0  0  0  0  0  0  0  0  0  0
  -24.9785  -32.5129   23.5612 N   0  0  0  0  0  0  0  0  0  0  0  0
  -20.4403  -28.2476   21.5001 N   0  0  0  0  0  0  0  0  0  0  0  0
  -29.6934  -24.0765   19.5003 N   0  3  0  0  0  0  0  0  0  0  0  0
  -19.7370  -26.9699   18.1925 N   0  3  0  0  0  0  0  0  0  0  0  0
  -30.8672  -12.0147   19.4708 O   0  0  0  0  0  0  0  0  0  0  0  0
  -25.3029  -30.2113   23.7021 O   0  0  0  0  0  0  0  0  0  0  0  0
  -21.4108  -30.7784   22.4286 O   0  0  0  0  0  0  0  0  0  0  0  0
  -21.4660  -26.5062   20.3632 O   0  0  0  0  0  0  0  0  0  0  0  0
  -29.9717  -21.7605   20.3597 O   0  0  0  0  0  0  0  0  0  0  0  0
  -23.1381  -11.5616   20.2725 O   0  0  0  0  0  0  0  0  0  0  0  0
  -28.2481  -26.5318   19.7686 O   0  0  0  0  0  0  0  0  0  1  0  0
  -22.8795   -6.5453   22.5471 F   0  0  0  0  0  0  0  0  0  0  0  0
  -29.9221  -21.0102   13.9604 F   0  0  0  0  0  0  0  0  0  0  0  0
  -21.4216  -11.0454   22.3773 F   0  0  0  0  0  0  0  0  0  0  0  0
  1  2  1  0  0  0  0
  1  6  2  0  0  0  0
  2  7  2  0  0  0  0
  3  9  2  0  0  0  0
  3 17  1  0  0  0  0
  4 10  1  0  0  0  0
  4 17  2  0  0  0  0
  5 13  2  0  0  0  0
  5 18  1  0  0  0  0
  6 20  1  0  0  0  0
  7 22  1  0  0  0  0
  8 11  2  0  0  0  0
  8 21  1  0  0  0  0
  9 26  1  0  0  0  0
 10 26  2  0  0  0  0
 11 27  1  0  0  0  0
 12 14  2  0  0  0  0
 12 28  1  0  0  0  0
 13 30  1  0  0  0  0
 14 29  1  0  0  0  0
 15 23  1  0  0  0  0
 15 27  2  0  0  0  0
 16 29  2  0  0  0  0
 16 31  1  0  0  0  0
 17 32  1  0  0  0  0
 18 25  2  0  0  0  0
 18 34  1  0  0  0  0
 19 32  1  0  0  0  0
 19 33  2  0  0  0  0
 19 35  1  0  0  0  0
 20 22  2  0  0  0  0
 20 40  1  0  0  0  0
 21 23  2  0  0  0  0
 21 41  1  0  0  0  0
 22 49  1  0  0  0  0
 23 42  1  0  0  0  0
 24 25  1  0  0  0  0
 24 30  2  0  0  0  0
 24 52  1  0  0  0  0
 25 72  1  0  0  0  0
 26 82  1  0  0  0  0
 27 83  1  0  0  0  0
 28 31  2  0  0  0  0
 28 82  1  0  0  0  0
 29 84  1  0  0  0  0
 30 85  1  0  0  0  0
 31 86  1  0  0  0  0
 32 65  2  0  0  0  0
 33 66  1  0  0  0  0
 33 69  1  0  0  0  0
 34 70  1  0  0  0  0
 34 75  2  0  0  0  0
 35 71  1  0  0  0  0
 35 77  2  0  0  0  0
 36 50  1  0  0  0  0
 36 73  1  0  0  0  0
 36 78  2  0  0  0  0
 37 61  1  0  0  0  0
 37 67  1  0  0  0  0
 37 79  2  0  0  0  0
 38 62  1  0  0  0  0
 38 74  1  0  0  0  0
 38 80  2  0  0  0  0
 39 68  1  0  0  0  0
 39 72  1  0  0  0  0
 39 81  2  0  0  0  0
 40 43  1  0  0  0  0
 41 50  1  0  0  0  0
 42 67  1  0  0  0  0
 43 45  1  0  0  0  0
 44 46  1  0  0  0  0
 44 47  1  0  0  0  0
 45 49  1  0  0  0  0
 46 51  1  0  0  0  0
 47 68  1  0  0  0  0
 48 51  1  0  0  0  0
 48 68  1  0  0  0  0
 49 73  1  0  0  0  0
 50 67  1  0  0  0  0
 51 66  1  0  0  0  0
 53 62  1  0  0  0  0
 54 63  1  0  0  0  0
 55 63  1  0  0  0  0
 56 63  1  0  0  0  0
 57 64  1  0  0  0  0
 58 64  1  0  0  0  0
 59 76  1  0  0  0  0
 60 64  1  0  0  0  0
 60 83  1  0  0  0  0
 61 63  1  0  0  0  0
 61 74  1  0  0  0  0
 62 76  1  0  0  0  0
 64 75  1  0  0  0  0
 65 66  1  0  0  0  0
M  CHG  2  75   1  76   1
M  ISO  4  39 100  60 101  72 100  83 101
M  END
> <Batch ID>
0049

> <Smiles>
CNC(C)C(=O)NC(C(=O)N1Cc2cc([101O:1][101CH2:1]C(C)(C)NC(=N)c3ccc(F)c(C)c3[100NH:0][100C:0](=O)N3CCCC(n4nc(-c5ccc(Oc6ccc(F)cc6F)cc5)c(C(N)=O)c4N)C3)ccc2CC1C(=O)NC1CCCc2ccccc21)C(C)(C)C

> <Shape>
0.375

> <Color>
0.096

> <Negative vol penalty>
0.000

$$$$

  -OEChem-04042322323D

 86 94  0     1  0  0  0  0  0999 V2000
  -26.9339  -34.3905   23.7544 C   0  0  0  0  0  0  0  0  0  0  0  0
  -27.5601  -33.1608   23.5787 C   0  0  0  0  0  0  0  0  0  0  0  0
  -22.0656  -10.3332   22.4468 C   0  0  0  0  0  0  0  0  0  0  0  0
  -23.2261  -10.0658   20.3447 C   0  0  0  0  0  0  0  0  0  0  0  0
  -25.5448  -34.4561   23.8549 C   0  0  0  0  0  0  0  0  0  0  0  0
  -26.7977  -31.9956   23.5045 C   0  0  0  0  0  0  0  0  0  0  0  0
  -27.9634  -27.0440   20.0944 C   0  0  0  0  0  0  0  0  0  0  0  0
  -25.3350  -19.9072   16.9330 C   0  0  0  0  0  0  0  0  0  0  0  0
  -21.6600   -8.9997   22.3925 C   0  0  0  0  0  0  0  0  0  0  0  0
  -22.8205   -8.7322   20.2904 C   0  0  0  0  0  0  0  0  0  0  0  0
  -28.5533  -25.8167   20.3936 C   0  0  0  0  0  0  0  0  0  0  0  0
  -20.6207   -5.5672   22.9866 C   0  0  0  0  0  0  0  0  0  0  0  0
  -20.7339   -4.8071   24.1507 C   0  0  0  0  0  0  0  0  0  0  0  0
  -26.3011  -20.5726   16.1785 C   0  0  0  0  0  0  0  0  0  0  0  0
  -26.3666  -24.8523   20.7212 C   0  0  0  0  0  0  0  0  0  0  0  0
  -23.1179   -5.1984   24.1745 C   0  0  0  0  0  0  0  0  0  0  0  0
  -22.8486  -10.8662   21.4228 C   0  0  0  0  0  0  0  0  0  0  0  0
  -24.4431  -12.7521   22.0621 C   0  0  0  0  0  0  0  0  0  0  0  0
  -24.7643  -33.2922   23.7722 C   0  0  0  0  0  0  0  0  0  0  0  0
  -26.5687  -27.1877   20.1170 C   0  0  0  0  0  0  0  0  0  0  0  0
  -25.3969  -32.0455   23.6053 C   0  0  0  0  0  0  0  0  0  0  0  0
  -25.7613  -26.0818   20.4194 C   0  0  0  0  0  0  0  0  0  0  0  0
  -27.0770  -18.7589   18.1512 C   0  0  0  0  0  0  0  0  0  0  0  0
  -28.0432  -19.4243   17.3966 C   0  0  0  0  0  0  0  0  0  0  0  0
  -25.7229  -19.0004   17.9194 C   0  0  0  0  0  0  0  0  0  0  0  0
  -22.0375   -8.1992   21.3144 C   0  0  0  0  0  0  0  0  0  0  0  0
  -27.7550  -24.7214   20.7099 C   0  0  0  0  0  0  0  0  0  0  0  0
  -21.7562   -6.1429   22.4164 C   0  0  0  0  0  0  0  0  0  0  0  0
  -21.9824   -4.6227   24.7446 C   0  0  0  0  0  0  0  0  0  0  0  0
  -23.0047   -5.9585   23.0104 C   0  0  0  0  0  0  0  0  0  0  0  0
  -27.6553  -20.3311   16.4102 C   0  0  0  0  0  0  0  0  0  0  0  0
  -23.2674  -12.2438   21.4780 C   0  0  0  0  0  0  0  0  0  0  0  0
  -24.3735  -14.1074   21.8503 C   0  0  0  0  0  0  0  0  0  0  0  0
  -29.6921  -21.7496   20.2055 C   0  0  0  0  0  0  0  0  0  0  0  0
  -29.8552  -21.1539   19.0183 C   0  0  0  0  0  0  0  0  0  0  0  0
  -30.5207  -19.0397   19.9048 C   0  0  0  0  0  0  0  0  0  0  0  0
  -25.5033  -12.0610   22.7359 C   0  0  0  0  0  0  0  0  0  0  0  0
  -24.5215  -28.9427   21.8000 C   0  0  0  0  0  0  0  0  0  0  0  0
  -22.3523  -27.6795   19.7455 C   0  0  0  0  0  0  0  0  0  0  0  0
  -21.5133  -25.1524   17.6109 C   0  0  0  0  0  0  0  0  0  0  0  0
  -23.3424  -18.4758   18.5554 C   0  0  0  0  0  0  0  0  0  0  0  0
  -23.2692  -33.4078   23.9336 C   0  0  0  0  0  0  0  0  0  0  0  0
  -25.9468  -28.5114   19.7658 C   0  0  0  0  0  0  0  0  0  0  0  0
  -24.2584  -26.1785   20.4376 C   0  0  0  0  0  0  0  0  0  0  0  0
  -22.5088  -32.1682   23.4696 C   0  0  0  0  0  0  0  0  0  0  0  0
  -20.5551  -16.9916   20.2001 C   0  0  0  0  0  0  0  0  0  0  0  0
  -23.1663  -30.9038   24.0136 C   0  0  0  0  0  0  0  0  0  0  0  0
  -21.1090  -15.6659   20.7272 C   0  0  0  0  0  0  0  0  0  0  0  0
  -21.1447  -17.3508   18.8373 C   0  0  0  0  0  0  0  0  0  0  0  0
  -23.1658  -16.0209   19.3022 C   0  0  0  0  0  0  0  0  0  0  0  0
  -24.6026  -30.7622   23.4953 C   0  0  1  0  0  0  0  0  0  0  0  0
  -24.5356  -28.6749   20.3216 C   0  0  1  0  0  0  0  0  0  0  0  0
  -22.6500  -15.6491   20.7020 C   0  0  2  0  0  0  0  0  0  0  0  0
  -27.4935  -17.7863   19.2103 C   0  0  0  0  0  0  0  0  0  0  0  0
  -19.6595  -24.3776   16.1073 C   0  0  0  0  0  0  0  0  0  0  0  0
  -20.7561  -26.7751   22.1835 C   0  0  0  0  0  0  0  0  0  0  0  0
  -19.4749  -25.2317   20.6853 C   0  0  0  0  0  0  0  0  0  0  0  0
  -19.3733  -27.6964   20.3144 C   0  0  0  0  0  0  0  0  0  0  0  0
  -23.2480  -25.2745   15.2161 C   0  0  0  0  0  0  0  0  0  0  0  0
  -29.4970  -19.1541   17.6568 C   0  0  0  0  0  0  0  0  0  0  0  0
  -29.5766  -23.2291   20.3768 C   0  0  0  0  0  0  0  0  0  1  0  0
  -21.4889  -26.4412   19.7304 C   0  0  1  0  0  0  0  0  0  0  0  0
  -20.9544  -25.1697   16.1995 C   0  0  2  0  0  0  0  0  0  0  0  0
  -20.3016  -26.5344   20.7301 C   0  0  0  0  0  0  0  0  0  0  0  0
  -22.5066  -13.1984   20.9359 N   0  0  0  0  0  0  0  0  0  0  0  0
  -23.2057  -14.3202   21.1787 N   0  0  0  0  0  0  0  0  0  0  0  0
  -23.6980  -27.4956   20.0933 N   0  0  0  0  0  0  0  0  0  0  0  0
  -22.6079  -17.3187   18.8906 N   0  0  0  0  0  0  0  0  0  0  0  0
  -25.1978  -15.1259   22.1750 N   0  0  0  0  0  0  0  0  0  0  0  0
  -25.4164  -10.6682   22.8659 N   0  0  0  0  0  0  0  0  0  0  0  0
  -24.7247  -18.3359   18.6744 N   0  0  0  0  0  0  0  0  0  0  0  0
  -24.6022  -30.2821   22.1300 N   0  0  0  0  0  0  0  0  0  0  0  0
  -21.0870  -26.2406   18.3424 N   0  0  0  0  0  0  0  0  0  0  0  0
  -29.9638  -19.8044   18.8799 N   0  0  0  0  0  0  0  0  0  0  0  0
  -21.9358  -24.5786   15.2465 N   0  3  0  0  0  0  0  0  0  0  0  0
  -30.6868  -17.8248   19.9325 O   0  0  0  0  0  0  0  0  0  0  0  0
  -26.4904  -12.6626   23.2230 O   0  0  0  0  0  0  0  0  0  0  0  0
  -24.4417  -28.0037   22.5834 O   0  0  0  0  0  0  0  0  0  0  0  0
  -21.8528  -28.7686   19.4522 O   0  0  0  0  0  0  0  0  0  0  0  0
  -22.2510  -24.2605   18.0242 O   0  0  0  0  0  0  0  0  0  0  0  0
  -22.7848  -19.5227   18.2159 O   0  0  0  0  0  0  0  0  0  0  0  0
  -21.6421   -6.8979   21.2612 O   0  0  0  0  0  0  0  0  0  0  0  0
  -28.3283  -23.5225   21.0029 O   0  0  0  0  0  0  0  0  0  1  0  0
  -22.0907   -3.8940   25.8633 F   0  0  0  0  0  0  0  0  0  0  0  0
  -24.0989   -6.5101   22.4679 F   0  0  0  0  0  0  0  0  0  0  0  0
  -28.8186  -21.1739   15.4524 Cl  0  0  0  0  0  0  0  0  0  0  0  0
  1  2  1  0  0  0  0
  1  5  2  0  0  0  0
  2  6  2  0  0  0  0
  3  9  2  0  0  0  0
  3 17  1  0  0  0  0
  4 10  1  0  0  0  0
  4 17  2  0  0  0  0
  5 19  1  0  0  0  0
  6 21  1  0  0  0  0
  7 11  2  0  0  0  0
  7 20  1  0  0  0  0
  8 14  1  0  0  0  0
  8 25  2  0  0  0  0
  9 26  1  0  0  0  0
 10 26  2  0  0  0  0
 11 27  1  0  0  0  0
 12 13  2  0  0  0  0
 12 28  1  0  0  0  0
 13 29  1  0  0  0  0
 14 31  2  0  0  0  0
 15 22  1  0  0  0  0
 15 27  2  0  0  0  0
 16 29  2  0  0  0  0
 16 30  1  0  0  0  0
 17 32  1  0  0  0  0
 18 32  1  0  0  0  0
 18 33  2  0  0  0  0
 18 37  1  0  0  0  0
 19 21  2  0  0  0  0
 19 42  1  0  0  0  0
 20 22  2  0  0  0  0
 20 43  1  0  0  0  0
 21 51  1  0  0  0  0
 22 44  1  0  0  0  0
 23 24  2  0  0  0  0
 23 25  1  0  0  0  0
 23 54  1  0  0  0  0
 24 31  1  0  0  0  0
 24 60  1  0  0  0  0
 25 71  1  0  0  0  0
 26 82  1  0  0  0  0
 27 83  1  0  0  0  0
 28 30  2  0  0  0  0
 28 82  1  0  0  0  0
 29 84  1  0  0  0  0
 30 85  1  0  0  0  0
 31 86  1  0  0  0  0
 32 65  2  0  0  0  0
 33 66  1  0  0  0  0
 33 69  1  0  0  0  0
 34 35  2  0  0  0  0
 34 61  1  0  0  0  0
 35 74  1  0  0  0  0
 36 74  1  0  0  0  0
 36 76  2  0  0  0  0
 37 70  1  0  0  0  0
 37 77  2  0  0  0  0
 38 52  1  0  0  0  0
 38 72  1  0  0  0  0
 38 78  2  0  0  0  0
 39 62  1  0  0  0  0
 39 67  1  0  0  0  0
 39 79  2  0  0  0  0
 40 63  1  0  0  0  0
 40 73  1  0  0  0  0
 40 80  2  0  0  0  0
 41 68  1  0  0  0  0
 41 71  1  0  0  0  0
 41 81  2  0  0  0  0
 42 45  1  0  0  0  0
 43 52  1  0  0  0  0
 44 67  1  0  0  0  0
 45 47  1  0  0  0  0
 46 48  1  0  0  0  0
 46 49  1  0  0  0  0
 47 51  1  0  0  0  0
 48 53  1  0  0  0  0
 49 68  1  0  0  0  0
 50 53  1  0  0  0  0
 50 68  1  0  0  0  0
 51 72  1  0  0  0  0
 52 67  1  0  0  0  0
 53 66  1  0  0  0  0
 55 63  1  0  0  0  0
 56 64  1  0  0  0  0
 57 64  1  0  0  0  0
 58 64  1  0  0  0  0
 59 75  1  0  0  0  0
 60 74  1  0  0  0  0
 61 83  1  0  0  0  0
 62 64  1  0  0  0  0
 62 73  1  0  0  0  0
 63 75  1  0  0  0  0
 65 66  1  0  0  0  0
M  CHG  1  75   1
M  ISO  4  41 100  61 101  71 100  83 101
M  END
> <Batch ID>
0049

> <Smiles>
CNC(C)C(=O)NC(C(=O)N1Cc2cc([101O:1][101CH2:1]C=CN(C=O)Cc3c(Cl)ccc([100NH:0][100C:0](=O)N4CCCC(n5nc(-c6ccc(Oc7ccc(F)cc7F)cc6)c(C(N)=O)c5N)C4)c3C)ccc2CC1C(=O)NC1CCCc2ccccc21)C(C)(C)C

> <Shape>
0.246

> <Color>
0.075

> <Negative vol penalty>
0.000

$$$$

  -OEChem-04042322323D

 85 93  0     1  0  0  0  0  0999 V2000
  -32.5378  -29.9365   12.5484 C   0  0  0  0  0  0  0  0  0  0  0  0
  -32.3498  -29.4226   13.8274 C   0  0  0  0  0  0  0  0  0  0  0  0
  -23.0694   -9.8682   20.0202 C   0  0  0  0  0  0  0  0  0  0  0  0
  -23.8139   -9.9653   22.3166 C   0  0  0  0  0  0  0  0  0  0  0  0
  -31.5285  -30.6842   11.9434 C   0  0  0  0  0  0  0  0  0  0  0  0
  -31.1526  -29.6572   14.5028 C   0  0  0  0  0  0  0  0  0  0  0  0
  -29.3438  -25.4964   16.7525 C   0  0  0  0  0  0  0  0  0  0  0  0
  -22.3127   -8.7337   20.3135 C   0  0  0  0  0  0  0  0  0  0  0  0
  -23.0571   -8.8309   22.6099 C   0  0  0  0  0  0  0  0  0  0  0  0
  -29.9380  -25.1127   17.9539 C   0  0  0  0  0  0  0  0  0  0  0  0
  -19.8174   -8.0898   23.2227 C   0  0  0  0  0  0  0  0  0  0  0  0
  -19.0523   -8.1067   24.3888 C   0  0  0  0  0  0  0  0  0  0  0  0
  -28.1121  -26.1157   19.1702 C   0  0  0  0  0  0  0  0  0  0  0  0
  -29.9239  -17.5225   22.9417 C   0  0  0  0  0  0  0  0  0  0  0  0
  -31.8983  -18.4494   23.9808 C   0  0  0  0  0  0  0  0  0  0  0  0
  -32.1037  -16.6291   22.4056 C   0  0  0  0  0  0  0  0  0  0  0  0
  -20.2698   -6.1906   25.2155 C   0  0  0  0  0  0  0  0  0  0  0  0
  -23.8200  -10.4840   21.0218 C   0  0  0  0  0  0  0  0  0  0  0  0
  -24.1872  -12.9984   20.7973 C   0  0  0  0  0  0  0  0  0  0  0  0
  -30.3145  -30.9199   12.6079 C   0  0  0  0  0  0  0  0  0  0  0  0
  -28.1327  -26.2034   16.7512 C   0  0  0  0  0  0  0  0  0  0  0  0
  -30.1266  -30.4099   13.9067 C   0  0  0  0  0  0  0  0  0  0  0  0
  -27.5033  -26.5050   17.9674 C   0  0  0  0  0  0  0  0  0  0  0  0
  -30.5135  -18.4382   23.8131 C   0  0  0  0  0  0  0  0  0  0  0  0
  -30.7190  -16.6179   22.2379 C   0  0  0  0  0  0  0  0  0  0  0  0
  -22.3065   -8.2151   21.6084 C   0  0  0  0  0  0  0  0  0  0  0  0
  -29.3237  -25.4249   19.1631 C   0  0  0  0  0  0  0  0  0  0  0  0
  -20.8088   -7.1232   23.0529 C   0  0  0  0  0  0  0  0  0  0  0  0
  -19.2785   -7.1572   25.3852 C   0  0  0  0  0  0  0  0  0  0  0  0
  -21.0350   -6.1737   24.0494 C   0  0  0  0  0  0  0  0  0  0  0  0
  -32.6934  -17.5448   23.2770 C   0  0  0  0  0  0  0  0  0  0  0  0
  -24.6024  -11.6555   20.7193 C   0  0  0  0  0  0  0  0  0  0  0  0
  -25.2890  -13.7215   20.4104 C   0  0  0  0  0  0  0  0  0  0  0  0
  -29.1676  -22.5995   22.6337 C   0  0  0  0  0  0  0  0  0  0  0  0
  -29.6910  -23.7985   22.3437 C   0  0  0  0  0  0  0  0  0  0  0  0
  -22.9190  -13.5435   21.1849 C   0  0  0  0  0  0  0  0  0  0  0  0
  -29.8802  -21.6701   23.5532 C   0  0  0  0  0  0  0  0  0  0  0  0
  -27.2124  -29.0744   15.7444 C   0  0  0  0  0  0  0  0  0  0  0  0
  -24.2683  -27.9895   16.5677 C   0  0  0  0  0  0  0  0  0  0  0  0
  -22.3910  -25.8504   18.4509 C   0  0  0  0  0  0  0  0  0  0  0  0
  -30.7637  -14.7220   20.5796 C   0  0  0  0  0  0  0  0  0  0  0  0
  -29.2710  -31.7739   11.9323 C   0  0  0  0  0  0  0  0  0  0  0  0
  -27.4912  -26.5866   15.4459 C   0  0  0  0  0  0  0  0  0  0  0  0
  -26.1923  -27.2445   18.0198 C   0  0  0  0  0  0  0  0  0  0  0  0
  -27.8872  -31.6605   12.5666 C   0  0  0  0  0  0  0  0  0  0  0  0
  -29.6419  -12.2205   18.3078 C   0  0  0  0  0  0  0  0  0  0  0  0
  -27.9861  -31.7635   14.0853 C   0  0  0  0  0  0  0  0  0  0  0  0
  -28.1966  -11.9610   18.7391 C   0  0  0  0  0  0  0  0  0  0  0  0
  -30.5511  -12.4915   19.5052 C   0  0  0  0  0  0  0  0  0  0  0  0
  -28.6420  -13.2918   20.8409 C   0  0  0  0  0  0  0  0  0  0  0  0
  -28.8323  -30.6219   14.6617 C   0  0  1  0  0  0  0  0  0  0  0  0
  -26.5168  -27.7529   15.5787 C   0  0  1  0  0  0  0  0  0  0  0  0
  -27.6755  -13.0779   19.6646 C   0  0  2  0  0  0  0  0  0  0  0  0
  -20.0098  -25.2238   18.9352 C   0  0  0  0  0  0  0  0  0  0  0  0
  -23.9564  -30.5015   18.2714 C   0  0  0  0  0  0  0  0  0  0  0  0
  -22.0410  -29.3884   19.4376 C   0  0  0  0  0  0  0  0  0  0  0  0
  -21.9103  -29.8497   16.9896 C   0  0  0  0  0  0  0  0  0  0  0  0
  -22.8032  -23.0806   17.4932 C   0  0  0  0  0  0  0  0  0  0  0  0
  -29.6577  -19.4113   24.5712 C   0  0  0  0  0  0  0  0  0  0  0  0
  -29.0296  -24.7833   21.4342 C   0  0  0  0  0  0  0  0  0  1  0  0
  -23.4335  -28.0128   17.8252 C   0  0  1  0  0  0  0  0  0  0  0  0
  -21.2372  -24.9341   18.0853 C   0  0  2  0  0  0  0  0  0  0  0  0
  -22.8610  -29.4258   18.1304 C   0  0  0  0  0  0  0  0  0  0  0  0
  -25.8690  -11.5301   20.3145 N   0  0  0  0  0  0  0  0  0  0  0  0
  -26.2592  -12.8035   20.1346 N   0  0  0  0  0  0  0  0  0  0  0  0
  -25.6078  -27.6032   16.7170 N   0  0  0  0  0  0  0  0  0  0  0  0
  -29.9963  -13.5638   20.3341 N   0  0  0  0  0  0  0  0  0  0  0  0
  -25.5128  -15.0466   20.2825 N   0  0  0  0  0  0  0  0  0  0  0  0
  -21.8960  -12.6590   21.5532 N   0  0  0  0  0  0  0  0  0  0  0  0
  -30.1199  -15.6870   21.3534 N   0  0  0  0  0  0  0  0  0  0  0  0
  -29.1840  -20.4862   23.7282 N   0  0  0  0  0  0  0  0  0  0  0  0
  -28.0645  -29.3958   14.7052 N   0  0  0  0  0  0  0  0  0  0  0  0
  -22.4172  -26.9793   17.6597 N   0  0  0  0  0  0  0  0  0  0  0  0
  -21.6233  -23.5090   18.2876 N   0  3  0  0  0  0  0  0  0  0  0  0
  -22.6943  -14.7776   21.1884 O   0  0  0  0  0  0  0  0  0  0  0  0
  -30.9545  -21.9528   24.0734 O   0  0  0  0  0  0  0  0  0  0  0  0
  -26.9912  -29.7529   16.7406 O   0  0  0  0  0  0  0  0  0  0  0  0
  -23.7492  -28.2957   15.4914 O   0  0  0  0  0  0  0  0  0  0  0  0
  -23.1872  -25.5923   19.3510 O   0  0  0  0  0  0  0  0  0  0  0  0
  -31.8975  -14.8601   20.1133 O   0  0  0  0  0  0  0  0  0  0  0  0
  -21.5681   -7.1082   21.8950 O   0  0  0  0  0  0  0  0  0  0  0  0
  -29.9018  -25.0522   20.3373 O   0  0  0  0  0  0  0  0  0  1  0  0
  -18.5447   -7.1745   26.5057 F   0  0  0  0  0  0  0  0  0  0  0  0
  -21.9867   -5.2435   23.8925 F   0  0  0  0  0  0  0  0  0  0  0  0
  -34.4018  -17.5572   23.4852 Cl  0  0  0  0  0  0  0  0  0  0  0  0
  1  2  1  0  0  0  0
  1  5  2  0  0  0  0
  2  6  2  0  0  0  0
  3  8  2  0  0  0  0
  3 18  1  0  0  0  0
  4  9  1  0  0  0  0
  4 18  2  0  0  0  0
  5 20  1  0  0  0  0
  6 22  1  0  0  0  0
  7 10  2  0  0  0  0
  7 21  1  0  0  0  0
  8 26  1  0  0  0  0
  9 26  2  0  0  0  0
 10 27  1  0  0  0  0
 11 12  2  0  0  0  0
 11 28  1  0  0  0  0
 12 29  1  0  0  0  0
 13 23  1  0  0  0  0
 13 27  2  0  0  0  0
 14 24  2  0  0  0  0
 14 25  1  0  0  0  0
 15 24  1  0  0  0  0
 15 31  2  0  0  0  0
 16 25  2  0  0  0  0
 16 31  1  0  0  0  0
 17 29  2  0  0  0  0
 17 30  1  0  0  0  0
 18 32  1  0  0  0  0
 19 32  1  0  0  0  0
 19 33  2  0  0  0  0
 19 36  1  0  0  0  0
 20 22  2  0  0  0  0
 20 42  1  0  0  0  0
 21 23  2  0  0  0  0
 21 43  1  0  0  0  0
 22 51  1  0  0  0  0
 23 44  1  0  0  0  0
 24 59  1  0  0  0  0
 25 70  1  0  0  0  0
 26 81  1  0  0  0  0
 27 82  1  0  0  0  0
 28 30  2  0  0  0  0
 28 81  1  0  0  0  0
 29 83  1  0  0  0  0
 30 84  1  0  0  0  0
 31 85  1  0  0  0  0
 32 64  2  0  0  0  0
 33 65  1  0  0  0  0
 33 68  1  0  0  0  0
 34 35  2  0  0  0  0
 34 37  1  0  0  0  0
 35 60  1  0  0  0  0
 36 69  1  0  0  0  0
 36 75  2  0  0  0  0
 37 71  1  0  0  0  0
 37 76  2  0  0  0  0
 38 52  1  0  0  0  0
 38 72  1  0  0  0  0
 38 77  2  0  0  0  0
 39 61  1  0  0  0  0
 39 66  1  0  0  0  0
 39 78  2  0  0  0  0
 40 62  1  0  0  0  0
 40 73  1  0  0  0  0
 40 79  2  0  0  0  0
 41 67  1  0  0  0  0
 41 70  1  0  0  0  0
 41 80  2  0  0  0  0
 42 45  1  0  0  0  0
 43 52  1  0  0  0  0
 44 66  1  0  0  0  0
 45 47  1  0  0  0  0
 46 48  1  0  0  0  0
 46 49  1  0  0  0  0
 47 51  1  0  0  0  0
 48 53  1  0  0  0  0
 49 67  1  0  0  0  0
 50 53  1  0  0  0  0
 50 67  1  0  0  0  0
 51 72  1  0  0  0  0
 52 66  1  0  0  0  0
 53 65  1  0  0  0  0
 54 62  1  0  0  0  0
 55 63  1  0  0  0  0
 56 63  1  0  0  0  0
 57 63  1  0  0  0  0
 58 74  1  0  0  0  0
 59 71  1  0  0  0  0
 60 82  1  0  0  0  0
 61 63  1  0  0  0  0
 61 73  1  0  0  0  0
 62 74  1  0  0  0  0
 64 65  1  0  0  0  0
M  CHG  1  74   1
M  ISO  4  41 100  60 101  70 100  82 101
M  END
> <Batch ID>
0049

> <Smiles>
CNC(C)C(=O)NC(C(=O)N1Cc2cc([101O:1][101CH2:1]C=CC(=O)NCc3cc(Cl)cc([100NH:0][100C:0](=O)N4CCCC(n5nc(-c6ccc(Oc7ccc(F)cc7F)cc6)c(C(N)=O)c5N)C4)c3)ccc2CC1C(=O)NC1CCCc2ccccc21)C(C)(C)C

> <Shape>
0.212

> <Color>
0.194

> <Negative vol penalty>
0.000

$$$$

  -OEChem-04042322323D

 86 94  0     1  0  0  0  0  0999 V2000
  -26.1666  -18.0736   17.0239 C   0  0  0  0  0  0  0  0  0  0  0  0
  -25.3996  -19.2336   16.9845 C   0  0  0  0  0  0  0  0  0  0  0  0
  -24.1997  -15.0182   18.9603 C   0  0  0  0  0  0  0  0  0  0  0  0
  -23.2927  -14.4614   21.1293 C   0  0  0  0  0  0  0  0  0  0  0  0
  -22.5786  -27.4932   25.3920 C   0  0  0  0  0  0  0  0  0  0  0  0
  -27.2179  -17.9650   17.9332 C   0  0  0  0  0  0  0  0  0  0  0  0
  -25.6829  -20.2853   17.8552 C   0  0  0  0  0  0  0  0  0  0  0  0
  -25.1266  -26.2736   16.6988 C   0  0  0  0  0  0  0  0  0  0  0  0
  -25.1831  -14.0421   19.1209 C   0  0  0  0  0  0  0  0  0  0  0  0
  -24.2760  -13.4852   21.2899 C   0  0  0  0  0  0  0  0  0  0  0  0
  -24.1302  -27.1994   17.0049 C   0  0  0  0  0  0  0  0  0  0  0  0
  -28.1196  -13.7118   20.7616 C   0  0  0  0  0  0  0  0  0  0  0  0
  -22.8859  -26.3284   26.0951 C   0  0  0  0  0  0  0  0  0  0  0  0
  -29.4298  -14.0511   20.4243 C   0  0  0  0  0  0  0  0  0  0  0  0
  -25.3693  -27.8774   18.9605 C   0  0  0  0  0  0  0  0  0  0  0  0
  -29.4639  -12.2832   18.7779 C   0  0  0  0  0  0  0  0  0  0  0  0
  -23.2545  -15.2279   19.9645 C   0  0  0  0  0  0  0  0  0  0  0  0
  -21.6442  -27.4571   24.3569 C   0  0  0  0  0  0  0  0  0  0  0  0
  -20.9642  -16.0731   19.2246 C   0  0  0  0  0  0  0  0  0  0  0  0
  -27.5203  -19.0197   18.8089 C   0  0  0  0  0  0  0  0  0  0  0  0
  -26.2485  -26.1349   17.5286 C   0  0  0  0  0  0  0  0  0  0  0  0
  -26.7384  -20.1902   18.7780 C   0  0  0  0  0  0  0  0  0  0  0  0
  -26.3798  -26.9509   18.6613 C   0  0  0  0  0  0  0  0  0  0  0  0
  -21.0173  -26.2561   24.0249 C   0  0  0  0  0  0  0  0  0  0  0  0
  -21.3247  -25.0912   24.7280 C   0  0  0  0  0  0  0  0  0  0  0  0
  -25.2212  -13.2756   20.2857 C   0  0  0  0  0  0  0  0  0  0  0  0
  -24.2500  -27.9995   18.1374 C   0  0  0  0  0  0  0  0  0  0  0  0
  -27.4816  -12.6581   20.1072 C   0  0  0  0  0  0  0  0  0  0  0  0
  -30.1019  -13.3369   19.4324 C   0  0  0  0  0  0  0  0  0  0  0  0
  -22.2590  -25.1274   25.7631 C   0  0  0  0  0  0  0  0  0  0  0  0
  -28.1537  -11.9438   19.1153 C   0  0  0  0  0  0  0  0  0  0  0  0
  -22.2388  -16.2364   19.7994 C   0  0  0  0  0  0  0  0  0  0  0  0
  -20.3893  -17.3179   19.3048 C   0  0  0  0  0  0  0  0  0  0  0  0
  -21.3352  -28.7028   23.6268 C   0  0  0  0  0  0  0  0  0  0  0  0
  -20.3542  -14.9009   18.6682 C   0  0  0  0  0  0  0  0  0  0  0  0
  -27.4651  -23.7780   19.2805 C   0  0  0  0  0  0  0  0  0  0  0  0
  -29.8970  -25.8801   19.7152 C   0  0  0  0  0  0  0  0  0  0  0  0
  -30.9492  -29.1264   19.7500 C   0  0  0  0  0  0  0  0  0  0  0  0
  -21.2863  -21.8341   23.0000 C   0  0  0  0  0  0  0  0  0  0  0  0
  -28.6366  -18.8375   19.8066 C   0  0  0  0  0  0  0  0  0  0  0  0
  -27.3275  -25.1502   17.1700 C   0  0  0  0  0  0  0  0  0  0  0  0
  -27.5744  -26.8551   19.5735 C   0  0  0  0  0  0  0  0  0  0  0  0
  -29.1079  -20.1447   20.4387 C   0  0  0  0  0  0  0  0  0  0  0  0
  -21.5222  -21.9673   19.3912 C   0  0  0  0  0  0  0  0  0  0  0  0
  -27.9141  -20.9834   20.8838 C   0  0  0  0  0  0  0  0  0  0  0  0
  -21.6117  -20.4818   19.0372 C   0  0  0  0  0  0  0  0  0  0  0  0
  -22.2847  -22.2763   20.6762 C   0  0  0  0  0  0  0  0  0  0  0  0
  -21.9544  -19.9774   21.5005 C   0  0  0  0  0  0  0  0  0  0  0  0
  -27.0303  -21.3625   19.6894 C   0  0  1  0  0  0  0  0  0  0  0  0
  -28.1780  -24.7337   18.3661 C   0  0  1  0  0  0  0  0  0  0  0  0
  -21.1845  -19.5965   20.2229 C   0  0  2  0  0  0  0  0  0  0  0  0
  -20.0140  -26.2171   22.9158 C   0  0  0  0  0  0  0  0  0  0  0  0
  -32.9826  -30.5337   20.1769 C   0  0  0  0  0  0  0  0  0  0  0  0
  -29.5432  -25.4760   22.7188 C   0  0  0  0  0  0  0  0  0  0  0  0
  -30.8929  -27.5524   23.0866 C   0  0  0  0  0  0  0  0  0  0  0  0
  -31.9218  -25.5825   21.9535 C   0  0  0  0  0  0  0  0  0  0  0  0
  -30.9338  -30.1923   16.9891 C   0  0  0  0  0  0  0  0  0  0  0  0
  -20.6659  -23.7939   24.3898 C   0  0  0  0  0  0  0  0  0  0  0  0
  -21.6183  -29.5960   20.0271 C   0  0  0  0  0  0  0  0  0  0  0  0
  -21.3002  -29.9180   21.4777 C   0  0  0  0  0  0  0  0  0  0  0  0
  -23.0753  -29.2026   19.8193 C   0  0  0  0  0  0  0  0  0  1  0  0
  -30.2048  -26.9666   20.7171 C   0  0  1  0  0  0  0  0  0  0  0  0
  -32.1600  -29.7996   19.1294 C   0  0  2  0  0  0  0  0  0  0  0  0
  -30.6171  -26.3951   22.1031 C   0  0  0  0  0  0  0  0  0  0  0  0
  -22.4612  -17.4865   20.2139 N   0  0  0  0  0  0  0  0  0  0  0  0
  -21.3186  -18.1201   19.8992 N   0  0  0  0  0  0  0  0  0  0  0  0
  -28.5996  -25.8729   19.1839 N   0  0  0  0  0  0  0  0  0  0  0  0
  -21.8176  -21.4126   21.7698 N   0  0  0  0  0  0  0  0  0  0  0  0
  -19.1848  -17.7938   18.9240 N   0  0  0  0  0  0  0  0  0  0  0  0
  -20.8419  -29.7302   24.3183 N   0  0  0  0  0  0  0  0  0  0  0  0
  -21.0847  -13.7048   18.6657 N   0  0  0  0  0  0  0  0  0  0  0  0
  -27.6285  -22.4482   18.9424 N   0  0  0  0  0  0  0  0  0  0  0  0
  -31.2142  -27.8188   20.0980 N   0  0  0  0  0  0  0  0  0  0  0  0
  -21.1970  -23.2092   23.1786 N   0  0  0  0  0  0  0  0  0  0  0  0
  -21.5621  -28.7417   22.3073 N   0  3  0  0  0  0  0  0  0  0  0  0
  -31.7323  -30.7825   18.0941 N   0  3  0  0  0  0  0  0  0  0  0  0
  -19.2021  -14.9177   18.1725 O   0  0  0  0  0  0  0  0  0  0  0  0
  -26.8161  -24.2147   20.2238 O   0  0  0  0  0  0  0  0  0  0  0  0
  -30.7776  -25.0721   19.4097 O   0  0  0  0  0  0  0  0  0  0  0  0
  -29.8767  -29.7041   19.9135 O   0  0  0  0  0  0  0  0  0  0  0  0
  -20.9137  -21.0431   23.8733 O   0  0  0  0  0  0  0  0  0  0  0  0
  -26.1805  -12.3228   20.4427 O   0  0  0  0  0  0  0  0  0  0  0  0
  -23.2785  -28.9035   18.4389 O   0  0  0  0  0  0  0  0  0  1  0  0
  -31.3596  -13.6639   19.1075 F   0  0  0  0  0  0  0  0  0  0  0  0
  -22.5611  -24.0139   26.4456 F   0  0  0  0  0  0  0  0  0  0  0  0
  -27.5455  -10.9313   18.4823 F   0  0  0  0  0  0  0  0  0  0  0  0
  1  2  1  0  0  0  0
  1  6  2  0  0  0  0
  2  7  2  0  0  0  0
  3  9  2  0  0  0  0
  3 17  1  0  0  0  0
  4 10  1  0  0  0  0
  4 17  2  0  0  0  0
  5 13  2  0  0  0  0
  5 18  1  0  0  0  0
  6 20  1  0  0  0  0
  7 22  1  0  0  0  0
  8 11  2  0  0  0  0
  8 21  1  0  0  0  0
  9 26  1  0  0  0  0
 10 26  2  0  0  0  0
 11 27  1  0  0  0  0
 12 14  2  0  0  0  0
 12 28  1  0  0  0  0
 13 30  1  0  0  0  0
 14 29  1  0  0  0  0
 15 23  1  0  0  0  0
 15 27  2  0  0  0  0
 16 29  2  0  0  0  0
 16 31  1  0  0  0  0
 17 32  1  0  0  0  0
 18 24  2  0  0  0  0
 18 34  1  0  0  0  0
 19 32  1  0  0  0  0
 19 33  2  0  0  0  0
 19 35  1  0  0  0  0
 20 22  2  0  0  0  0
 20 40  1  0  0  0  0
 21 23  2  0  0  0  0
 21 41  1  0  0  0  0
 22 49  1  0  0  0  0
 23 42  1  0  0  0  0
 24 25  1  0  0  0  0
 24 52  1  0  0  0  0
 25 30  2  0  0  0  0
 25 58  1  0  0  0  0
 26 82  1  0  0  0  0
 27 83  1  0  0  0  0
 28 31  2  0  0  0  0
 28 82  1  0  0  0  0
 29 84  1  0  0  0  0
 30 85  1  0  0  0  0
 31 86  1  0  0  0  0
 32 65  2  0  0  0  0
 33 66  1  0  0  0  0
 33 69  1  0  0  0  0
 34 70  1  0  0  0  0
 34 75  2  0  0  0  0
 35 71  1  0  0  0  0
 35 77  2  0  0  0  0
 36 50  1  0  0  0  0
 36 72  1  0  0  0  0
 36 78  2  0  0  0  0
 37 62  1  0  0  0  0
 37 67  1  0  0  0  0
 37 79  2  0  0  0  0
 38 63  1  0  0  0  0
 38 73  1  0  0  0  0
 38 80  2  0  0  0  0
 39 68  1  0  0  0  0
 39 74  1  0  0  0  0
 39 81  2  0  0  0  0
 40 43  1  0  0  0  0
 41 50  1  0  0  0  0
 42 67  1  0  0  0  0
 43 45  1  0  0  0  0
 44 46  1  0  0  0  0
 44 47  1  0  0  0  0
 45 49  1  0  0  0  0
 46 51  1  0  0  0  0
 47 68  1  0  0  0  0
 48 51  1  0  0  0  0
 48 68  1  0  0  0  0
 49 72  1  0  0  0  0
 50 67  1  0  0  0  0
 51 66  1  0  0  0  0
 53 63  1  0  0  0  0
 54 64  1  0  0  0  0
 55 64  1  0  0  0  0
 56 64  1  0  0  0  0
 57 76  1  0  0  0  0
 58 74  1  0  0  0  0
 59 60  1  0  0  0  0
 59 61  1  0  0  0  0
 60 75  1  0  0  0  0
 61 83  1  0  0  0  0
 62 64  1  0  0  0  0
 62 73  1  0  0  0  0
 63 76  1  0  0  0  0
 65 66  1  0  0  0  0
M  CHG  2  75   1  76   1
M  ISO  4  39 100  61 101  74 100  83 101
M  END
> <Batch ID>
0049

> <Smiles>
CNC(C)C(=O)NC(C(=O)N1Cc2cc([101O:1][101CH2:1]CCNC(=N)c3ccc(F)c(C[100NH:0][100C:0](=O)N4CCCC(n5nc(-c6ccc(Oc7ccc(F)cc7F)cc6)c(C(N)=O)c5N)C4)c3C)ccc2CC1C(=O)NC1CCCc2ccccc21)C(C)(C)C

> <Shape>
0.200

> <Color>
0.058

> <Negative vol penalty>
0.000

$$$$

  -OEChem-04042322323D

 93102  0     1  0  0  0  0  0999 V2000
  -17.3539  -26.3847   22.4544 C   0  0  0  0  0  0  0  0  0  0  0  0
  -18.6133  -25.7985   22.3798 C   0  0  0  0  0  0  0  0  0  0  0  0
  -25.5158  -14.3401   23.5906 C   0  0  0  0  0  0  0  0  0  0  0  0
  -26.6626  -15.5396   21.8346 C   0  0  0  0  0  0  0  0  0  0  0  0
  -17.1896  -27.7266   22.1135 C   0  0  0  0  0  0  0  0  0  0  0  0
  -19.7091  -26.5536   21.9631 C   0  0  0  0  0  0  0  0  0  0  0  0
  -25.4857  -26.0581   23.9356 C   0  0  0  0  0  0  0  0  0  0  0  0
  -22.9644  -25.0021   19.7860 C   0  0  0  0  0  0  0  0  0  0  0  0
  -28.1410  -23.0854   16.2974 C   0  0  0  0  0  0  0  0  0  0  0  0
  -22.9764  -24.2229   20.9428 C   0  0  0  0  0  0  0  0  0  0  0  0
  -25.4770  -13.2007   22.7869 C   0  0  0  0  0  0  0  0  0  0  0  0
  -26.6238  -14.4002   21.0310 C   0  0  0  0  0  0  0  0  0  0  0  0
  -26.6044  -25.4132   23.4098 C   0  0  0  0  0  0  0  0  0  0  0  0
  -23.6480  -12.0464   20.1894 C   0  0  0  0  0  0  0  0  0  0  0  0
  -22.4464  -11.3411   20.1240 C   0  0  0  0  0  0  0  0  0  0  0  0
  -29.1577  -23.1359   15.3439 C   0  0  0  0  0  0  0  0  0  0  0  0
  -25.1729  -23.3990   20.3651 C   0  0  0  0  0  0  0  0  0  0  0  0
  -30.6963  -23.9346   17.0267 C   0  0  0  0  0  0  0  0  0  0  0  0
  -27.3181  -27.4858   22.4026 C   0  0  0  0  0  0  0  0  0  0  0  0
  -23.5518   -9.3772   20.9949 C   0  0  0  0  0  0  0  0  0  0  0  0
  -26.1086  -15.5096   23.1144 C   0  0  0  0  0  0  0  0  0  0  0  0
  -25.1609  -24.1783   19.2082 C   0  0  0  0  0  0  0  0  0  0  0  0
  -29.6795  -23.8841   17.9803 C   0  0  0  0  0  0  0  0  0  0  0  0
  -27.1591  -17.0524   24.8533 C   0  0  0  0  0  0  0  0  0  0  0  0
  -18.2856  -28.5011   21.7016 C   0  0  0  0  0  0  0  0  0  0  0  0
  -25.2688  -27.4214   23.6894 C   0  0  0  0  0  0  0  0  0  0  0  0
  -19.5590  -27.9067   21.6150 C   0  0  0  0  0  0  0  0  0  0  0  0
  -26.1972  -28.1461   22.9286 C   0  0  0  0  0  0  0  0  0  0  0  0
  -24.0566  -24.9798   18.9186 C   0  0  0  0  0  0  0  0  0  0  0  0
  -28.4019  -23.4595   17.6156 C   0  0  0  0  0  0  0  0  0  0  0  0
  -24.0806  -23.4214   21.2323 C   0  0  0  0  0  0  0  0  0  0  0  0
  -26.0310  -13.2307   21.5071 C   0  0  0  0  0  0  0  0  0  0  0  0
  -27.5193  -26.1264   22.6407 C   0  0  0  0  0  0  0  0  0  0  0  0
  -24.8015  -11.4172   20.6576 C   0  0  0  0  0  0  0  0  0  0  0  0
  -22.3983  -10.0065   20.5267 C   0  0  0  0  0  0  0  0  0  0  0  0
  -24.7534  -10.0826   21.0604 C   0  0  0  0  0  0  0  0  0  0  0  0
  -30.4354  -23.5605   15.7085 C   0  0  0  0  0  0  0  0  0  0  0  0
  -26.1485  -16.6870   23.9439 C   0  0  0  0  0  0  0  0  0  0  0  0
  -26.7286  -18.2436   25.3846 C   0  0  0  0  0  0  0  0  0  0  0  0
  -26.3274  -24.1365   18.3102 C   0  0  0  0  0  0  0  0  0  0  0  0
  -29.9852  -24.2894   19.3765 C   0  0  0  0  0  0  0  0  0  0  0  0
  -28.3781  -16.3757   25.1877 C   0  0  0  0  0  0  0  0  0  0  0  0
  -22.9994  -29.1045   22.2329 C   0  0  0  0  0  0  0  0  0  0  0  0
  -24.6844  -31.6306   23.3740 C   0  0  0  0  0  0  0  0  0  0  0  0
  -27.6708  -32.8613   24.4756 C   0  0  0  0  0  0  0  0  0  0  0  0
  -23.0889  -22.5335   23.3711 C   0  0  0  0  0  0  0  0  0  0  0  0
  -18.0504  -29.9351   21.2979 C   0  0  0  0  0  0  0  0  0  0  0  0
  -24.0711  -28.1085   24.2861 C   0  0  0  0  0  0  0  0  0  0  0  0
  -26.0209  -29.6161   22.6520 C   0  0  0  0  0  0  0  0  0  0  0  0
  -19.3295  -30.7651   21.2252 C   0  0  0  0  0  0  0  0  0  0  0  0
  -22.7211  -20.6684   26.3817 C   0  0  0  0  0  0  0  0  0  0  0  0
  -20.4168  -30.0052   20.4720 C   0  0  0  0  0  0  0  0  0  0  0  0
  -23.6549  -19.4722   26.1835 C   0  0  0  0  0  0  0  0  0  0  0  0
  -22.0313  -21.0713   25.0795 C   0  0  0  0  0  0  0  0  0  0  0  0
  -23.8681  -20.1114   23.7477 C   0  0  0  0  0  0  0  0  0  0  0  0
  -20.7764  -28.6995   21.1913 C   0  0  1  0  0  0  0  0  0  0  0  0
  -23.6811  -29.3824   23.5428 C   0  0  1  0  0  0  0  0  0  0  0  0
  -24.6352  -19.7096   25.0181 C   0  0  2  0  0  0  0  0  0  0  0  0
  -24.0177  -25.8240   17.6866 C   0  0  0  0  0  0  0  0  0  0  0  0
  -28.7467  -34.9719   25.3034 C   0  0  0  0  0  0  0  0  0  0  0  0
  -30.4939  -22.2875   22.4313 C   0  0  0  0  0  0  0  0  0  0  0  0
  -24.7652  -32.7060   20.5198 C   0  0  0  0  0  0  0  0  0  0  0  0
  -26.6047  -34.2498   21.2277 C   0  0  0  0  0  0  0  0  0  0  0  0
  -24.3487  -34.4375   22.2755 C   0  0  0  0  0  0  0  0  0  0  0  0
  -28.3330  -31.6369   27.0874 C   0  0  0  0  0  0  0  0  0  0  0  0
  -28.7581  -24.1091   22.4129 C   0  0  0  0  0  0  0  0  0  1  0  0
  -25.8278  -32.4724   22.8612 C   0  0  1  0  0  0  0  0  0  0  0  0
  -28.0305  -33.6892   25.6962 C   0  0  2  0  0  0  0  0  0  0  0  0
  -30.0217  -23.5648   21.7492 C   0  0  2  0  0  0  0  0  0  0  0  0
  -25.3892  -33.4383   21.7244 C   0  0  0  0  0  0  0  0  0  0  0  0
  -25.1510  -17.5741   23.8978 N   0  0  0  0  0  0  0  0  0  0  0  0
  -27.3667  -23.4013   18.5578 N   0  0  0  0  0  0  0  0  0  0  0  0
  -25.5327  -18.5087   24.7849 N   0  0  0  0  0  0  0  0  0  0  0  0
  -24.8307  -30.2415   23.2520 N   0  0  0  0  0  0  0  0  0  0  0  0
  -23.0223  -21.2835   24.0223 N   0  0  0  0  0  0  0  0  0  0  0  0
  -27.2601  -19.0795   26.3018 N   0  0  0  0  0  0  0  0  0  0  0  0
  -28.6659  -15.1624   24.5478 N   0  0  0  0  0  0  0  0  0  0  0  0
  -24.0915  -22.6284   22.4066 N   0  0  0  0  0  0  0  0  0  0  0  0
  -29.7917  -23.3164   20.3441 N   0  0  0  0  0  0  0  0  0  0  0  0
  -21.6278  -28.9679   22.3304 N   0  0  0  0  0  0  0  0  0  0  0  0
  -26.3974  -33.1405   24.0264 N   0  0  0  0  0  0  0  0  0  0  0  0
  -28.9211  -32.9128   26.6045 N   0  3  0  0  0  0  0  0  0  0  0  0
  -30.3624  -25.4368   19.5993 O   0  0  0  0  0  0  0  0  0  0  0  0
  -29.1802  -16.8251   26.0410 O   0  0  0  0  0  0  0  0  0  0  0  0
  -23.6682  -29.0217   21.2094 O   0  0  0  0  0  0  0  0  0  0  0  0
  -23.7009  -32.1848   23.8713 O   0  0  0  0  0  0  0  0  0  0  0  0
  -28.4436  -32.0510   23.9691 O   0  0  0  0  0  0  0  0  0  0  0  0
  -22.3314  -23.4609   23.6678 O   0  0  0  0  0  0  0  0  0  0  0  0
  -25.9935  -12.1190   20.7227 O   0  0  0  0  0  0  0  0  0  0  0  0
  -28.6117  -25.4993   22.1257 O   0  0  0  0  0  0  0  0  0  1  0  0
  -21.2440   -9.3297   20.4653 F   0  0  0  0  0  0  0  0  0  0  0  0
  -25.8580   -9.4731   21.5121 F   0  0  0  0  0  0  0  0  0  0  0  0
  -31.6897  -23.6231   14.5314 Cl  0  0  0  0  0  0  0  0  0  0  0  0
  1  2  1  0  0  0  0
  1  5  2  0  0  0  0
  2  6  2  0  0  0  0
  3 11  2  0  0  0  0
  3 21  1  0  0  0  0
  4 12  1  0  0  0  0
  4 21  2  0  0  0  0
  5 25  1  0  0  0  0
  6 27  1  0  0  0  0
  7 13  2  0  0  0  0
  7 26  1  0  0  0  0
  8 10  2  0  0  0  0
  8 29  1  0  0  0  0
  9 16  2  0  0  0  0
  9 30  1  0  0  0  0
 10 31  1  0  0  0  0
 11 32  1  0  0  0  0
 12 32  2  0  0  0  0
 13 33  1  0  0  0  0
 14 15  2  0  0  0  0
 14 34  1  0  0  0  0
 15 35  1  0  0  0  0
 16 37  1  0  0  0  0
 17 22  1  0  0  0  0
 17 31  2  0  0  0  0
 18 23  1  0  0  0  0
 18 37  2  0  0  0  0
 19 28  1  0  0  0  0
 19 33  2  0  0  0  0
 20 35  2  0  0  0  0
 20 36  1  0  0  0  0
 21 38  1  0  0  0  0
 22 29  2  0  0  0  0
 22 40  1  0  0  0  0
 23 30  2  0  0  0  0
 23 41  1  0  0  0  0
 24 38  1  0  0  0  0
 24 39  2  0  0  0  0
 24 42  1  0  0  0  0
 25 27  2  0  0  0  0
 25 47  1  0  0  0  0
 26 28  2  0  0  0  0
 26 48  1  0  0  0  0
 27 56  1  0  0  0  0
 28 49  1  0  0  0  0
 29 59  1  0  0  0  0
 30 72  1  0  0  0  0
 31 78  1  0  0  0  0
 32 89  1  0  0  0  0
 33 90  1  0  0  0  0
 34 36  2  0  0  0  0
 34 89  1  0  0  0  0
 35 91  1  0  0  0  0
 36 92  1  0  0  0  0
 37 93  1  0  0  0  0
 38 71  2  0  0  0  0
 39 73  1  0  0  0  0
 39 76  1  0  0  0  0
 40 72  2  0  0  0  0
 41 79  1  0  0  0  0
 41 83  2  0  0  0  0
 42 77  1  0  0  0  0
 42 84  2  0  0  0  0
 43 57  1  0  0  0  0
 43 80  1  0  0  0  0
 43 85  2  0  0  0  0
 44 67  1  0  0  0  0
 44 74  1  0  0  0  0
 44 86  2  0  0  0  0
 45 68  1  0  0  0  0
 45 81  1  0  0  0  0
 45 87  2  0  0  0  0
 46 75  1  0  0  0  0
 46 78  1  0  0  0  0
 46 88  2  0  0  0  0
 47 50  1  0  0  0  0
 48 57  1  0  0  0  0
 49 74  1  0  0  0  0
 50 52  1  0  0  0  0
 51 53  1  0  0  0  0
 51 54  1  0  0  0  0
 52 56  1  0  0  0  0
 53 58  1  0  0  0  0
 54 75  1  0  0  0  0
 55 58  1  0  0  0  0
 55 75  1  0  0  0  0
 56 80  1  0  0  0  0
 57 74  1  0  0  0  0
 58 73  1  0  0  0  0
 60 68  1  0  0  0  0
 61 69  1  0  0  0  0
 62 70  1  0  0  0  0
 63 70  1  0  0  0  0
 64 70  1  0  0  0  0
 65 82  1  0  0  0  0
 66 69  1  0  0  0  0
 66 90  1  0  0  0  0
 67 70  1  0  0  0  0
 67 81  1  0  0  0  0
 68 82  1  0  0  0  0
 69 79  1  0  0  0  0
 71 73  1  0  0  0  0
M  CHG  1  82   1
M  ISO  4  46 100  66 101  78 100  90 101
M  END
> <Batch ID>
0049

> <Smiles>
CNC(C)C(=O)NC(C(=O)N1Cc2cc([101O:1][101CH2:1]C(C)NC(=O)c3cc(Cl)ccc3N=Cc3cc([100NH:0][100C:0](=O)N4CCCC(n5nc(-c6ccc(Oc7ccc(F)cc7F)cc6)c(C(N)=O)c5N)C4)ccc3C)ccc2CC1C(=O)NC1CCCc2ccccc21)C(C)(C)C

> <Shape>
0.208

> <Color>
0.076

> <Negative vol penalty>
0.000

$$$$

  -OEChem-04042322323D

 84 92  0     1  0  0  0  0  0999 V2000
  -28.7847  -13.6154   18.6144 C   0  0  0  0  0  0  0  0  0  0  0  0
  -28.1390  -14.8218   18.3634 C   0  0  0  0  0  0  0  0  0  0  0  0
  -30.2981  -23.9694   20.1096 C   0  0  0  0  0  0  0  0  0  0  0  0
  -28.6849  -23.5821   18.3532 C   0  0  0  0  0  0  0  0  0  0  0  0
  -28.1456  -12.6261   19.3606 C   0  0  0  0  0  0  0  0  0  0  0  0
  -26.8533  -15.0392   18.8575 C   0  0  0  0  0  0  0  0  0  0  0  0
  -24.5140  -20.3458   20.8257 C   0  0  0  0  0  0  0  0  0  0  0  0
  -19.6858  -28.4731   23.4485 C   0  0  0  0  0  0  0  0  0  0  0  0
  -30.6901  -22.6324   20.0444 C   0  0  0  0  0  0  0  0  0  0  0  0
  -29.0770  -22.2451   18.2880 C   0  0  0  0  0  0  0  0  0  0  0  0
  -23.6943  -21.2936   20.2145 C   0  0  0  0  0  0  0  0  0  0  0  0
  -31.8648  -19.2342   20.5884 C   0  0  0  0  0  0  0  0  0  0  0  0
  -32.0296  -18.5457   21.7902 C   0  0  0  0  0  0  0  0  0  0  0  0
  -18.7813  -27.5080   23.8912 C   0  0  0  0  0  0  0  0  0  0  0  0
  -21.7621  -20.2722   21.2357 C   0  0  0  0  0  0  0  0  0  0  0  0
  -19.5585  -27.5668   21.2126 C   0  0  0  0  0  0  0  0  0  0  0  0
  -29.7134  -18.9548   22.3422 C   0  0  0  0  0  0  0  0  0  0  0  0
  -29.2955  -24.4443   19.2640 C   0  0  0  0  0  0  0  0  0  0  0  0
  -29.4239  -26.9047   18.6024 C   0  0  0  0  0  0  0  0  0  0  0  0
  -26.8553  -12.8351   19.8723 C   0  0  0  0  0  0  0  0  0  0  0  0
  -23.9619  -19.3458   21.6390 C   0  0  0  0  0  0  0  0  0  0  0  0
  -26.1958  -14.0512   19.6101 C   0  0  0  0  0  0  0  0  0  0  0  0
  -22.5773  -19.3144   21.8581 C   0  0  0  0  0  0  0  0  0  0  0  0
  -20.0744  -28.5026   22.1092 C   0  0  0  0  0  0  0  0  0  0  0  0
  -18.6540  -26.6017   21.6553 C   0  0  0  0  0  0  0  0  0  0  0  0
  -30.0796  -21.7702   19.1336 C   0  0  0  0  0  0  0  0  0  0  0  0
  -22.3178  -21.2551   20.4172 C   0  0  0  0  0  0  0  0  0  0  0  0
  -30.6243  -19.7830   20.2635 C   0  0  0  0  0  0  0  0  0  0  0  0
  -30.9539  -18.4060   22.6672 C   0  0  0  0  0  0  0  0  0  0  0  0
  -29.5486  -19.6433   21.1404 C   0  0  0  0  0  0  0  0  0  0  0  0
  -18.2654  -26.5723   22.9946 C   0  0  0  0  0  0  0  0  0  0  0  0
  -28.8897  -25.8252   19.3313 C   0  0  0  0  0  0  0  0  0  0  0  0
  -28.7019  -27.9944   19.0241 C   0  0  0  0  0  0  0  0  0  0  0  0
  -30.4783  -26.9209   17.6310 C   0  0  0  0  0  0  0  0  0  0  0  0
  -23.8574  -16.1707   21.5316 C   0  0  0  0  0  0  0  0  0  0  0  0
  -22.4868  -16.5057   24.4526 C   0  0  0  0  0  0  0  0  0  0  0  0
  -19.9066  -23.9520   20.1698 C   0  0  0  0  0  0  0  0  0  0  0  0
  -20.7446  -18.4769   26.6265 C   0  0  0  0  0  0  0  0  0  0  0  0
  -23.2557  -28.4825   21.2503 C   0  0  0  0  0  0  0  0  0  0  0  0
  -26.1863  -11.7180   20.6333 C   0  0  0  0  0  0  0  0  0  0  0  0
  -24.8625  -18.3469   22.3126 C   0  0  0  0  0  0  0  0  0  0  0  0
  -21.9371  -18.2736   22.7386 C   0  0  0  0  0  0  0  0  0  0  0  0
  -24.9713  -12.1716   21.4383 C   0  0  0  0  0  0  0  0  0  0  0  0
  -26.3002  -29.6560   22.8160 C   0  0  0  0  0  0  0  0  0  0  0  0
  -24.0716  -13.0644   20.5896 C   0  0  0  0  0  0  0  0  0  0  0  0
  -27.3637  -28.8989   22.0185 C   0  0  0  0  0  0  0  0  0  0  0  0
  -25.0636  -28.7925   23.0470 C   0  0  0  0  0  0  0  0  0  0  0  0
  -25.5131  -27.4896   21.0040 C   0  0  0  0  0  0  0  0  0  0  0  0
  -24.8107  -14.3340   20.1501 C   0  0  1  0  0  0  0  0  0  0  0  0
  -24.1404  -17.0624   22.7074 C   0  0  1  0  0  0  0  0  0  0  0  0
  -26.7797  -28.3166   20.7177 C   0  0  2  0  0  0  0  0  0  0  0  0
  -19.7372  -18.4623   28.9248 C   0  0  0  0  0  0  0  0  0  0  0  0
  -20.1780  -14.7948   23.4270 C   0  0  0  0  0  0  0  0  0  0  0  0
  -18.8143  -15.5952   25.3682 C   0  0  0  0  0  0  0  0  0  0  0  0
  -20.8974  -14.2819   25.7666 C   0  0  0  0  0  0  0  0  0  0  0  0
  -22.4677  -20.7102   27.5222 C   0  0  0  0  0  0  0  0  0  0  0  0
  -21.0419  -29.5347   21.6362 C   0  0  0  0  0  0  0  0  0  0  0  0
  -18.1214  -25.6131   20.6586 C   0  0  0  0  0  0  0  0  0  0  0  0
  -20.3142  -22.5332   20.5052 C   0  0  0  0  0  0  0  0  0  1  0  0
  -21.0739  -16.6708   24.9579 C   0  0  1  0  0  0  0  0  0  0  0  0
  -20.9657  -18.7981   28.0936 C   0  0  2  0  0  0  0  0  0  0  0  0
  -20.2525  -15.3542   24.8617 C   0  0  0  0  0  0  0  0  0  0  0  0
  -27.9046  -26.1956   20.1538 N   0  0  0  0  0  0  0  0  0  0  0  0
  -27.8141  -27.5199   19.9443 N   0  0  0  0  0  0  0  0  0  0  0  0
  -22.8591  -17.3150   23.3698 N   0  0  0  0  0  0  0  0  0  0  0  0
  -24.5465  -28.2850   21.7683 N   0  0  0  0  0  0  0  0  0  0  0  0
  -28.7464  -29.3026   18.6938 N   0  0  0  0  0  0  0  0  0  0  0  0
  -31.1139  -25.7125   17.3147 N   0  0  0  0  0  0  0  0  0  0  0  0
  -24.8761  -15.2838   21.2401 N   0  0  0  0  0  0  0  0  0  0  0  0
  -18.7307  -24.3120   20.8092 N   0  0  0  0  0  0  0  0  0  0  0  0
  -21.1841  -17.2089   26.3095 N   0  0  0  0  0  0  0  0  0  0  0  0
  -22.3993  -29.2411   22.0389 N   0  0  0  0  0  0  0  0  0  0  0  0
  -21.2684  -20.2470   28.2667 N   0  3  0  0  0  0  0  0  0  0  0  0
  -30.8569  -27.9784   17.0725 O   0  0  0  0  0  0  0  0  0  0  0  0
  -22.7929  -16.2783   20.9341 O   0  0  0  0  0  0  0  0  0  0  0  0
  -23.2349  -15.6938   25.0029 O   0  0  0  0  0  0  0  0  0  0  0  0
  -20.5595  -24.6706   19.4179 O   0  0  0  0  0  0  0  0  0  0  0  0
  -20.2300  -19.2699   25.8411 O   0  0  0  0  0  0  0  0  0  0  0  0
  -22.8944  -28.0213   20.1622 O   0  0  0  0  0  0  0  0  0  0  0  0
  -30.4620  -20.4655   19.0695 O   0  0  0  0  0  0  0  0  0  0  0  0
  -21.5154  -22.1787   19.8213 O   0  0  0  0  0  0  0  0  0  1  0  0
  -31.1120  -17.7436   23.8206 F   0  0  0  0  0  0  0  0  0  0  0  0
  -28.3541  -20.1674   20.8331 F   0  0  0  0  0  0  0  0  0  0  0  0
  -17.1483  -25.3929   23.5779 Cl  0  0  0  0  0  0  0  0  0  0  0  0
  1  2  1  0  0  0  0
  1  5  2  0  0  0  0
  2  6  2  0  0  0  0
  3  9  2  0  0  0  0
  3 18  1  0  0  0  0
  4 10  1  0  0  0  0
  4 18  2  0  0  0  0
  5 20  1  0  0  0  0
  6 22  1  0  0  0  0
  7 11  2  0  0  0  0
  7 21  1  0  0  0  0
  8 14  2  0  0  0  0
  8 24  1  0  0  0  0
  9 26  1  0  0  0  0
 10 26  2  0  0  0  0
 11 27  1  0  0  0  0
 12 13  2  0  0  0  0
 12 28  1  0  0  0  0
 13 29  1  0  0  0  0
 14 31  1  0  0  0  0
 15 23  1  0  0  0  0
 15 27  2  0  0  0  0
 16 24  2  0  0  0  0
 16 25  1  0  0  0  0
 17 29  2  0  0  0  0
 17 30  1  0  0  0  0
 18 32  1  0  0  0  0
 19 32  1  0  0  0  0
 19 33  2  0  0  0  0
 19 34  1  0  0  0  0
 20 22  2  0  0  0  0
 20 40  1  0  0  0  0
 21 23  2  0  0  0  0
 21 41  1  0  0  0  0
 22 49  1  0  0  0  0
 23 42  1  0  0  0  0
 24 57  1  0  0  0  0
 25 31  2  0  0  0  0
 25 58  1  0  0  0  0
 26 80  1  0  0  0  0
 27 81  1  0  0  0  0
 28 30  2  0  0  0  0
 28 80  1  0  0  0  0
 29 82  1  0  0  0  0
 30 83  1  0  0  0  0
 31 84  1  0  0  0  0
 32 63  2  0  0  0  0
 33 64  1  0  0  0  0
 33 67  1  0  0  0  0
 34 68  1  0  0  0  0
 34 74  2  0  0  0  0
 35 50  1  0  0  0  0
 35 69  1  0  0  0  0
 35 75  2  0  0  0  0
 36 60  1  0  0  0  0
 36 65  1  0  0  0  0
 36 76  2  0  0  0  0
 37 59  1  0  0  0  0
 37 70  1  0  0  0  0
 37 77  2  0  0  0  0
 38 61  1  0  0  0  0
 38 71  1  0  0  0  0
 38 78  2  0  0  0  0
 39 66  1  0  0  0  0
 39 72  1  0  0  0  0
 39 79  2  0  0  0  0
 40 43  1  0  0  0  0
 41 50  1  0  0  0  0
 42 65  1  0  0  0  0
 43 45  1  0  0  0  0
 44 46  1  0  0  0  0
 44 47  1  0  0  0  0
 45 49  1  0  0  0  0
 46 51  1  0  0  0  0
 47 66  1  0  0  0  0
 48 51  1  0  0  0  0
 48 66  1  0  0  0  0
 49 69  1  0  0  0  0
 50 65  1  0  0  0  0
 51 64  1  0  0  0  0
 52 61  1  0  0  0  0
 53 62  1  0  0  0  0
 54 62  1  0  0  0  0
 55 62  1  0  0  0  0
 56 73  1  0  0  0  0
 57 72  1  0  0  0  0
 58 70  1  0  0  0  0
 59 81  1  0  0  0  0
 60 62  1  0  0  0  0
 60 71  1  0  0  0  0
 61 73  1  0  0  0  0
 63 64  1  0  0  0  0
M  CHG  1  73   1
M  ISO  4  39 100  59 101  72 100  81 101
M  END
> <Batch ID>
0049

> <Smiles>
CNC(C)C(=O)NC(C(=O)N1Cc2cc([101O:1][101CH2:1]C(=O)NCc3cc(C[100NH:0][100C:0](=O)N4CCCC(n5nc(-c6ccc(Oc7ccc(F)cc7F)cc6)c(C(N)=O)c5N)C4)ccc3Cl)ccc2CC1C(=O)NC1CCCc2ccccc21)C(C)(C)C

> <Shape>
0.208

> <Color>
0.061

> <Negative vol penalty>
0.000

$$$$

  -OEChem-04042322323D

 84 92  0     1  0  0  0  0  0999 V2000
  -24.8996  -19.3743   26.5935 C   0  0  0  0  0  0  0  0  0  0  0  0
  -25.8499  -20.1661   25.9568 C   0  0  0  0  0  0  0  0  0  0  0  0
  -31.1980  -24.6354   14.4958 C   0  0  0  0  0  0  0  0  0  0  0  0
  -25.4243  -15.9379   21.6687 C   0  0  0  0  0  0  0  0  0  0  0  0
  -24.9744  -16.1180   19.3018 C   0  0  0  0  0  0  0  0  0  0  0  0
  -23.5595  -19.4579   26.2178 C   0  0  0  0  0  0  0  0  0  0  0  0
  -25.4608  -21.0411   24.9432 C   0  0  0  0  0  0  0  0  0  0  0  0
  -27.8568  -26.5396   23.7056 C   0  0  0  0  0  0  0  0  0  0  0  0
  -31.9701  -25.3595   15.4042 C   0  0  0  0  0  0  0  0  0  0  0  0
  -30.2682  -23.7038   14.9577 C   0  0  0  0  0  0  0  0  0  0  0  0
  -24.2217  -15.2537   21.8453 C   0  0  0  0  0  0  0  0  0  0  0  0
  -23.7718  -15.4338   19.4784 C   0  0  0  0  0  0  0  0  0  0  0  0
  -28.7957  -26.9638   22.7662 C   0  0  0  0  0  0  0  0  0  0  0  0
  -21.4421  -13.1432   22.8625 C   0  0  0  0  0  0  0  0  0  0  0  0
  -21.4567  -12.0028   23.6654 C   0  0  0  0  0  0  0  0  0  0  0  0
  -27.0084  -27.6100   21.2806 C   0  0  0  0  0  0  0  0  0  0  0  0
  -30.8829  -24.2202   17.2364 C   0  0  0  0  0  0  0  0  0  0  0  0
  -23.0612  -10.9767   22.1788 C   0  0  0  0  0  0  0  0  0  0  0  0
  -25.8007  -16.3702   20.3970 C   0  0  0  0  0  0  0  0  0  0  0  0
  -28.3043  -16.5208   19.9316 C   0  0  0  0  0  0  0  0  0  0  0  0
  -23.1523  -20.3414   25.2057 C   0  0  0  0  0  0  0  0  0  0  0  0
  -26.4845  -26.6375   23.4345 C   0  0  0  0  0  0  0  0  0  0  0  0
  -24.1142  -21.1356   24.5527 C   0  0  0  0  0  0  0  0  0  0  0  0
  -26.0541  -27.1887   22.2192 C   0  0  0  0  0  0  0  0  0  0  0  0
  -31.8126  -25.1518   16.7745 C   0  0  0  0  0  0  0  0  0  0  0  0
  -30.1107  -23.4962   16.3280 C   0  0  0  0  0  0  0  0  0  0  0  0
  -23.3955  -15.0016   20.7501 C   0  0  0  0  0  0  0  0  0  0  0  0
  -28.3716  -27.4964   21.5523 C   0  0  0  0  0  0  0  0  0  0  0  0
  -22.2370  -13.2005   21.7177 C   0  0  0  0  0  0  0  0  0  0  0  0
  -22.2663  -10.9195   23.3236 C   0  0  0  0  0  0  0  0  0  0  0  0
  -23.0466  -12.1172   21.3759 C   0  0  0  0  0  0  0  0  0  0  0  0
  -27.0425  -17.0775   20.2140 C   0  0  0  0  0  0  0  0  0  0  0  0
  -29.1470  -17.6025   19.8529 C   0  0  0  0  0  0  0  0  0  0  0  0
  -28.6810  -15.1486   19.7561 C   0  0  0  0  0  0  0  0  0  0  0  0
  -24.0994  -24.5552   23.1530 C   0  0  0  0  0  0  0  0  0  0  0  0
  -22.2966  -27.2428   22.9311 C   0  0  0  0  0  0  0  0  0  0  0  0
  -31.1450  -27.2593   19.2286 C   0  0  0  0  0  0  0  0  0  0  0  0
  -22.1309  -30.5656   22.1710 C   0  0  0  0  0  0  0  0  0  0  0  0
  -27.7344  -23.4544   18.7137 C   0  0  0  0  0  0  0  0  0  0  0  0
  -21.6994  -20.3624   24.8016 C   0  0  0  0  0  0  0  0  0  0  0  0
  -25.4842  -26.2002   24.4692 C   0  0  0  0  0  0  0  0  0  0  0  0
  -24.5921  -27.3343   21.8880 C   0  0  0  0  0  0  0  0  0  0  0  0
  -21.3146  -21.5871   23.9757 C   0  0  0  0  0  0  0  0  0  0  0  0
  -29.7156  -22.0495   21.5070 C   0  0  0  0  0  0  0  0  0  0  0  0
  -22.3412  -21.8325   22.8745 C   0  0  0  0  0  0  0  0  0  0  0  0
  -29.2991  -20.5796   21.5045 C   0  0  0  0  0  0  0  0  0  0  0  0
  -28.6117  -22.9527   20.9654 C   0  0  0  0  0  0  0  0  0  0  0  0
  -27.7048  -21.0917   19.6133 C   0  0  0  0  0  0  0  0  0  0  0  0
  -23.7276  -22.1150   23.4657 C   0  0  1  0  0  0  0  0  0  0  0  0
  -24.1171  -25.8716   23.8773 C   0  0  1  0  0  0  0  0  0  0  0  0
  -28.8120  -20.1498   20.1098 C   0  0  2  0  0  0  0  0  0  0  0  0
  -20.5133  -32.4804   22.0498 C   0  0  0  0  0  0  0  0  0  0  0  0
  -21.1617  -26.1164   20.3324 C   0  0  0  0  0  0  0  0  0  0  0  0
  -20.3168  -28.4096   19.7888 C   0  0  0  0  0  0  0  0  0  0  0  0
  -19.4769  -27.2205   21.8145 C   0  0  0  0  0  0  0  0  0  0  0  0
  -27.0058  -23.6931   16.3702 C   0  0  0  0  0  0  0  0  0  0  0  0
  -23.6301  -32.1122   24.2006 C   0  0  0  0  0  0  0  0  0  0  0  0
  -32.6431  -25.9326   17.7516 C   0  0  0  0  0  0  0  0  0  0  0  0
  -29.1169  -22.4995   16.8218 C   0  0  0  0  0  0  0  0  0  0  0  0
  -30.5424  -27.2344   20.6170 C   0  0  0  0  0  0  0  0  0  1  0  0
  -21.8356  -28.1305   21.8004 C   0  0  1  0  0  0  0  0  0  0  0  0
  -21.5212  -31.7400   22.9151 C   0  0  2  0  0  0  0  0  0  0  0  0
  -20.7254  -27.4649   20.9392 C   0  0  0  0  0  0  0  0  0  0  0  0
  -27.0760  -18.4094   20.3085 N   0  0  0  0  0  0  0  0  0  0  0  0
  -28.3692  -18.6987   20.0843 N   0  0  0  0  0  0  0  0  0  0  0  0
  -23.6527  -26.8866   22.9295 N   0  0  0  0  0  0  0  0  0  0  0  0
  -28.1375  -22.4964   19.6584 N   0  0  0  0  0  0  0  0  0  0  0  0
  -30.4702  -17.7135   19.6091 N   0  0  0  0  0  0  0  0  0  0  0  0
  -27.6901  -14.1639   19.8702 N   0  0  0  0  0  0  0  0  0  0  0  0
  -23.7994  -23.4736   23.9590 N   0  0  0  0  0  0  0  0  0  0  0  0
  -31.9469  -26.1525   18.9982 N   0  0  0  0  0  0  0  0  0  0  0  0
  -21.4410  -29.3959   22.4098 N   0  0  0  0  0  0  0  0  0  0  0  0
  -27.9151  -23.1331   17.3599 N   0  0  0  0  0  0  0  0  0  0  0  0
  -22.5836  -32.7009   23.3258 N   0  3  0  0  0  0  0  0  0  0  0  0
  -29.8643  -14.8045   19.5216 O   0  0  0  0  0  0  0  0  0  0  0  0
  -24.3387  -24.5233   21.9516 O   0  0  0  0  0  0  0  0  0  0  0  0
  -21.4850  -26.8845   23.7881 O   0  0  0  0  0  0  0  0  0  0  0  0
  -30.9311  -28.1652   18.4276 O   0  0  0  0  0  0  0  0  0  0  0  0
  -23.1180  -30.6758   21.4471 O   0  0  0  0  0  0  0  0  0  0  0  0
  -27.2500  -24.5393   19.0607 O   0  0  0  0  0  0  0  0  0  0  0  0
  -22.2220  -14.3337   20.9220 O   0  0  0  0  0  0  0  0  0  0  0  0
  -29.2859  -27.9106   20.6334 O   0  0  0  0  0  0  0  0  0  1  0  0
  -22.2813   -9.8250   24.0956 F   0  0  0  0  0  0  0  0  0  0  0  0
  -23.8133  -12.1668   20.2779 F   0  0  0  0  0  0  0  0  0  0  0  0
  1  2  1  0  0  0  0
  1  6  2  0  0  0  0
  2  7  2  0  0  0  0
  3  9  2  0  0  0  0
  3 10  1  0  0  0  0
  4 11  2  0  0  0  0
  4 19  1  0  0  0  0
  5 12  1  0  0  0  0
  5 19  2  0  0  0  0
  6 21  1  0  0  0  0
  7 23  1  0  0  0  0
  8 13  2  0  0  0  0
  8 22  1  0  0  0  0
  9 25  1  0  0  0  0
 10 26  2  0  0  0  0
 11 27  1  0  0  0  0
 12 27  2  0  0  0  0
 13 28  1  0  0  0  0
 14 15  2  0  0  0  0
 14 29  1  0  0  0  0
 15 30  1  0  0  0  0
 16 24  1  0  0  0  0
 16 28  2  0  0  0  0
 17 25  2  0  0  0  0
 17 26  1  0  0  0  0
 18 30  2  0  0  0  0
 18 31  1  0  0  0  0
 19 32  1  0  0  0  0
 20 32  1  0  0  0  0
 20 33  2  0  0  0  0
 20 34  1  0  0  0  0
 21 23  2  0  0  0  0
 21 40  1  0  0  0  0
 22 24  2  0  0  0  0
 22 41  1  0  0  0  0
 23 49  1  0  0  0  0
 24 42  1  0  0  0  0
 25 58  1  0  0  0  0
 26 59  1  0  0  0  0
 27 81  1  0  0  0  0
 28 82  1  0  0  0  0
 29 31  2  0  0  0  0
 29 81  1  0  0  0  0
 30 83  1  0  0  0  0
 31 84  1  0  0  0  0
 32 64  2  0  0  0  0
 33 65  1  0  0  0  0
 33 68  1  0  0  0  0
 34 69  1  0  0  0  0
 34 75  2  0  0  0  0
 35 50  1  0  0  0  0
 35 70  1  0  0  0  0
 35 76  2  0  0  0  0
 36 61  1  0  0  0  0
 36 66  1  0  0  0  0
 36 77  2  0  0  0  0
 37 60  1  0  0  0  0
 37 71  1  0  0  0  0
 37 78  2  0  0  0  0
 38 62  1  0  0  0  0
 38 72  1  0  0  0  0
 38 79  2  0  0  0  0
 39 67  1  0  0  0  0
 39 73  1  0  0  0  0
 39 80  2  0  0  0  0
 40 43  1  0  0  0  0
 41 50  1  0  0  0  0
 42 66  1  0  0  0  0
 43 45  1  0  0  0  0
 44 46  1  0  0  0  0
 44 47  1  0  0  0  0
 45 49  1  0  0  0  0
 46 51  1  0  0  0  0
 47 67  1  0  0  0  0
 48 51  1  0  0  0  0
 48 67  1  0  0  0  0
 49 70  1  0  0  0  0
 50 66  1  0  0  0  0
 51 65  1  0  0  0  0
 52 62  1  0  0  0  0
 53 63  1  0  0  0  0
 54 63  1  0  0  0  0
 55 63  1  0  0  0  0
 56 73  1  0  0  0  0
 57 74  1  0  0  0  0
 58 71  1  0  0  0  0
 59 73  1  0  0  0  0
 60 82  1  0  0  0  0
 61 63  1  0  0  0  0
 61 72  1  0  0  0  0
 62 74  1  0  0  0  0
 64 65  1  0  0  0  0
M  CHG  1  74   1
M  ISO  4  39 100  60 101  73 100  82 101
M  END
> <Batch ID>
0049

> <Smiles>
CNC(C)C(=O)NC(C(=O)N1Cc2cc([101O:1][101CH2:1]C(=O)NCc3cccc(C[100N:0](C)[100C:0](=O)N4CCCC(n5nc(-c6ccc(Oc7ccc(F)cc7F)cc6)c(C(N)=O)c5N)C4)c3)ccc2CC1C(=O)NC1CCCc2ccccc21)C(C)(C)C

> <Shape>
0.215

> <Color>
0.054

> <Negative vol penalty>
0.000

$$$$

  -OEChem-04042322323D

 85 93  0     1  0  0  0  0  0999 V2000
  -16.3488  -28.9831   23.3992 C   0  0  0  0  0  0  0  0  0  0  0  0
  -17.1980  -28.6352   22.3537 C   0  0  0  0  0  0  0  0  0  0  0  0
  -27.6002  -13.4436   21.7564 C   0  0  0  0  0  0  0  0  0  0  0  0
  -27.1868  -13.9833   19.4381 C   0  0  0  0  0  0  0  0  0  0  0  0
  -16.7892  -29.8573   24.3921 C   0  0  0  0  0  0  0  0  0  0  0  0
  -18.4879  -29.1622   22.2998 C   0  0  0  0  0  0  0  0  0  0  0  0
  -23.5251  -26.3626   20.2273 C   0  0  0  0  0  0  0  0  0  0  0  0
  -32.5000  -24.0906   16.2400 C   0  0  0  0  0  0  0  0  0  0  0  0
  -26.7228  -12.3635   21.6615 C   0  0  0  0  0  0  0  0  0  0  0  0
  -26.3095  -12.9031   19.3430 C   0  0  0  0  0  0  0  0  0  0  0  0
  -24.1938  -26.4186   19.0053 C   0  0  0  0  0  0  0  0  0  0  0  0
  -26.7796   -9.2073   20.4497 C   0  0  0  0  0  0  0  0  0  0  0  0
  -27.1844   -7.9927   21.0033 C   0  0  0  0  0  0  0  0  0  0  0  0
  -32.9532  -22.7872   16.4436 C   0  0  0  0  0  0  0  0  0  0  0  0
  -25.7035  -28.0662   19.9138 C   0  0  0  0  0  0  0  0  0  0  0  0
  -30.9290  -23.8281   18.0566 C   0  0  0  0  0  0  0  0  0  0  0  0
  -25.2749   -8.0307   22.4830 C   0  0  0  0  0  0  0  0  0  0  0  0
  -27.8322  -14.2536   20.6448 C   0  0  0  0  0  0  0  0  0  0  0  0
  -30.1236  -15.3646   20.4939 C   0  0  0  0  0  0  0  0  0  0  0  0
  -18.0884  -30.3877   24.3555 C   0  0  0  0  0  0  0  0  0  0  0  0
  -23.9345  -27.1674   21.3003 C   0  0  0  0  0  0  0  0  0  0  0  0
  -18.9457  -30.0454   23.2923 C   0  0  0  0  0  0  0  0  0  0  0  0
  -25.0399  -28.0167   21.1492 C   0  0  0  0  0  0  0  0  0  0  0  0
  -31.4879  -24.6111   17.0465 C   0  0  0  0  0  0  0  0  0  0  0  0
  -31.3821  -22.5247   18.2601 C   0  0  0  0  0  0  0  0  0  0  0  0
  -26.0775  -12.0932   20.4548 C   0  0  0  0  0  0  0  0  0  0  0  0
  -25.2814  -27.2726   18.8475 C   0  0  0  0  0  0  0  0  0  0  0  0
  -25.6225   -9.8336   20.9128 C   0  0  0  0  0  0  0  0  0  0  0  0
  -26.4321   -7.4044   22.0199 C   0  0  0  0  0  0  0  0  0  0  0  0
  -24.8701   -9.2453   21.9294 C   0  0  0  0  0  0  0  0  0  0  0  0
  -32.3943  -22.0043   17.4536 C   0  0  0  0  0  0  0  0  0  0  0  0
  -28.7379  -15.3699   20.7424 C   0  0  0  0  0  0  0  0  0  0  0  0
  -30.5187  -16.6597   20.7241 C   0  0  0  0  0  0  0  0  0  0  0  0
  -30.9772  -14.2854   20.0910 C   0  0  0  0  0  0  0  0  0  0  0  0
  -22.5868  -29.4851   23.0077 C   0  0  0  0  0  0  0  0  0  0  0  0
  -25.3027  -29.2379   24.7642 C   0  0  0  0  0  0  0  0  0  0  0  0
  -28.4946  -26.0769   16.8683 C   0  0  0  0  0  0  0  0  0  0  0  0
  -28.5860  -28.3182   24.9085 C   0  0  0  0  0  0  0  0  0  0  0  0
  -29.7785  -22.1501   20.1666 C   0  0  0  0  0  0  0  0  0  0  0  0
  -18.5035  -31.3659   25.4258 C   0  0  0  0  0  0  0  0  0  0  0  0
  -23.2192  -27.0756   22.6202 C   0  0  0  0  0  0  0  0  0  0  0  0
  -25.5318  -28.8862   22.2763 C   0  0  0  0  0  0  0  0  0  0  0  0
  -20.0123  -31.5865   25.4973 C   0  0  0  0  0  0  0  0  0  0  0  0
  -28.0318  -20.5394   22.8183 C   0  0  0  0  0  0  0  0  0  0  0  0
  -20.5865  -31.8058   24.1012 C   0  0  0  0  0  0  0  0  0  0  0  0
  -28.1738  -19.0505   22.4942 C   0  0  0  0  0  0  0  0  0  0  0  0
  -27.8660  -21.3816   21.5546 C   0  0  0  0  0  0  0  0  0  0  0  0
  -29.0407  -19.6865   20.2070 C   0  0  0  0  0  0  0  0  0  0  0  0
  -20.3603  -30.5768   23.2124 C   0  0  1  0  0  0  0  0  0  0  0  0
  -23.4024  -28.3177   23.4868 C   0  0  1  0  0  0  0  0  0  0  0  0
  -29.2753  -18.8048   21.4444 C   0  0  2  0  0  0  0  0  0  0  0  0
  -30.5522  -28.2720   26.4672 C   0  0  0  0  0  0  0  0  0  0  0  0
  -25.6799  -32.2404   24.3735 C   0  0  0  0  0  0  0  0  0  0  0  0
  -28.0603  -31.9652   25.0988 C   0  0  0  0  0  0  0  0  0  0  0  0
  -26.2065  -31.4135   26.6742 C   0  0  0  0  0  0  0  0  0  0  0  0
  -29.7523  -26.0361   14.7032 C   0  0  0  0  0  0  0  0  0  0  0  0
  -28.7864  -25.3694   24.7545 C   0  0  0  0  0  0  0  0  0  0  0  0
  -31.0007  -26.0142   16.8273 C   0  0  0  0  0  0  0  0  0  0  0  0
  -27.2227  -26.1060   16.0271 C   0  0  0  0  0  0  0  0  0  0  0  0
  -25.9512  -26.1413   16.8657 C   0  0  0  0  0  0  0  0  0  1  0  0
  -26.6681  -29.8801   24.7177 C   0  0  1  0  0  0  0  0  0  0  0  0
  -29.3590  -27.4995   25.9267 C   0  0  2  0  0  0  0  0  0  0  0  0
  -26.6435  -31.3600   25.1940 C   0  0  0  0  0  0  0  0  0  0  0  0
  -28.2833  -16.5730   21.1030 N   0  0  0  0  0  0  0  0  0  0  0  0
  -29.3897  -17.3357   21.0828 N   0  0  0  0  0  0  0  0  0  0  0  0
  -24.7954  -28.7654   23.5455 N   0  0  0  0  0  0  0  0  0  0  0  0
  -28.9473  -21.0990   20.6082 N   0  0  0  0  0  0  0  0  0  0  0  0
  -31.7182  -17.2749   20.6527 N   0  0  0  0  0  0  0  0  0  0  0  0
  -30.4079  -13.0193   19.8985 N   0  0  0  0  0  0  0  0  0  0  0  0
  -30.7922  -21.7558   19.2939 N   0  0  0  0  0  0  0  0  0  0  0  0
  -21.3117  -29.5358   23.5377 N   0  0  0  0  0  0  0  0  0  0  0  0
  -27.5518  -29.0171   25.4941 N   0  0  0  0  0  0  0  0  0  0  0  0
  -29.7011  -26.0437   16.1601 N   0  0  0  0  0  0  0  0  0  0  0  0
  -29.8568  -26.2387   25.3073 N   0  3  0  0  0  0  0  0  0  0  0  0
  -32.2112  -14.4357   19.9230 O   0  0  0  0  0  0  0  0  0  0  0  0
  -23.0785  -30.2818   22.2170 O   0  0  0  0  0  0  0  0  0  0  0  0
  -24.7113  -29.1519   25.8432 O   0  0  0  0  0  0  0  0  0  0  0  0
  -28.4320  -26.0838   18.1005 O   0  0  0  0  0  0  0  0  0  0  0  0
  -28.8735  -28.3387   23.7137 O   0  0  0  0  0  0  0  0  0  0  0  0
  -29.6208  -23.3098   20.5566 O   0  0  0  0  0  0  0  0  0  0  0  0
  -25.2214  -11.0391   20.3616 O   0  0  0  0  0  0  0  0  0  0  0  0
  -25.9355  -27.3297   17.6555 O   0  0  0  0  0  0  0  0  0  1  0  0
  -26.8201   -6.2372   22.5504 F   0  0  0  0  0  0  0  0  0  0  0  0
  -23.7569   -9.8417   22.3776 F   0  0  0  0  0  0  0  0  0  0  0  0
  -32.9852  -20.3954   17.6707 Cl  0  0  0  0  0  0  0  0  0  0  0  0
  1  2  1  0  0  0  0
  1  5  2  0  0  0  0
  2  6  2  0  0  0  0
  3  9  2  0  0  0  0
  3 18  1  0  0  0  0
  4 10  1  0  0  0  0
  4 18  2  0  0  0  0
  5 20  1  0  0  0  0
  6 22  1  0  0  0  0
  7 11  2  0  0  0  0
  7 21  1  0  0  0  0
  8 14  2  0  0  0  0
  8 24  1  0  0  0  0
  9 26  1  0  0  0  0
 10 26  2  0  0  0  0
 11 27  1  0  0  0  0
 12 13  2  0  0  0  0
 12 28  1  0  0  0  0
 13 29  1  0  0  0  0
 14 31  1  0  0  0  0
 15 23  1  0  0  0  0
 15 27  2  0  0  0  0
 16 24  2  0  0  0  0
 16 25  1  0  0  0  0
 17 29  2  0  0  0  0
 17 30  1  0  0  0  0
 18 32  1  0  0  0  0
 19 32  1  0  0  0  0
 19 33  2  0  0  0  0
 19 34  1  0  0  0  0
 20 22  2  0  0  0  0
 20 40  1  0  0  0  0
 21 23  2  0  0  0  0
 21 41  1  0  0  0  0
 22 49  1  0  0  0  0
 23 42  1  0  0  0  0
 24 58  1  0  0  0  0
 25 31  2  0  0  0  0
 25 70  1  0  0  0  0
 26 81  1  0  0  0  0
 27 82  1  0  0  0  0
 28 30  2  0  0  0  0
 28 81  1  0  0  0  0
 29 83  1  0  0  0  0
 30 84  1  0  0  0  0
 31 85  1  0  0  0  0
 32 64  2  0  0  0  0
 33 65  1  0  0  0  0
 33 68  1  0  0  0  0
 34 69  1  0  0  0  0
 34 75  2  0  0  0  0
 35 50  1  0  0  0  0
 35 71  1  0  0  0  0
 35 76  2  0  0  0  0
 36 61  1  0  0  0  0
 36 66  1  0  0  0  0
 36 77  2  0  0  0  0
 37 59  1  0  0  0  0
 37 73  1  0  0  0  0
 37 78  2  0  0  0  0
 38 62  1  0  0  0  0
 38 72  1  0  0  0  0
 38 79  2  0  0  0  0
 39 67  1  0  0  0  0
 39 70  1  0  0  0  0
 39 80  2  0  0  0  0
 40 43  1  0  0  0  0
 41 50  1  0  0  0  0
 42 66  1  0  0  0  0
 43 45  1  0  0  0  0
 44 46  1  0  0  0  0
 44 47  1  0  0  0  0
 45 49  1  0  0  0  0
 46 51  1  0  0  0  0
 47 67  1  0  0  0  0
 48 51  1  0  0  0  0
 48 67  1  0  0  0  0
 49 71  1  0  0  0  0
 50 66  1  0  0  0  0
 51 65  1  0  0  0  0
 52 62  1  0  0  0  0
 53 63  1  0  0  0  0
 54 63  1  0  0  0  0
 55 63  1  0  0  0  0
 56 73  1  0  0  0  0
 57 74  1  0  0  0  0
 58 73  1  0  0  0  0
 59 60  1  0  0  0  0
 60 82  1  0  0  0  0
 61 63  1  0  0  0  0
 61 72  1  0  0  0  0
 62 74  1  0  0  0  0
 64 65  1  0  0  0  0
M  CHG  1  74   1
M  ISO  4  39 100  60 101  70 100  82 101
M  END
> <Batch ID>
0049

> <Smiles>
CNC(C)C(=O)NC(C(=O)N1Cc2cc([101O:1][101CH2:1]CC(=O)N(C)Cc3ccc(Cl)c([100NH:0][100C:0](=O)N4CCCC(n5nc(-c6ccc(Oc7ccc(F)cc7F)cc6)c(C(N)=O)c5N)C4)c3)ccc2CC1C(=O)NC1CCCc2ccccc21)C(C)(C)C

> <Shape>
0.284

> <Color>
0.068

> <Negative vol penalty>
0.000

$$$$

  -OEChem-04042322323D

 94103  0     1  0  0  0  0  0999 V2000
  -30.7782  -23.3808   24.1627 C   0  0  0  0  0  0  0  0  0  0  0  0
  -29.6148  -23.6696   23.4567 C   0  0  0  0  0  0  0  0  0  0  0  0
  -26.1032  -13.2040   22.0902 C   0  0  0  0  0  0  0  0  0  0  0  0
  -26.5547  -13.7209   19.7737 C   0  0  0  0  0  0  0  0  0  0  0  0
  -31.1461  -24.1709   25.2510 C   0  0  0  0  0  0  0  0  0  0  0  0
  -28.8179  -24.7480   23.8394 C   0  0  0  0  0  0  0  0  0  0  0  0
  -27.3006  -27.5384   19.8952 C   0  0  0  0  0  0  0  0  0  0  0  0
  -23.6946  -18.9667   17.0216 C   0  0  0  0  0  0  0  0  0  0  0  0
  -24.8525  -18.8954   17.7961 C   0  0  0  0  0  0  0  0  0  0  0  0
  -24.9415  -12.5301   21.7134 C   0  0  0  0  0  0  0  0  0  0  0  0
  -25.3930  -13.0469   19.3969 C   0  0  0  0  0  0  0  0  0  0  0  0
  -26.2465  -27.0401   19.1306 C   0  0  0  0  0  0  0  0  0  0  0  0
  -22.0472  -10.3643   21.3296 C   0  0  0  0  0  0  0  0  0  0  0  0
  -21.7981   -9.1235   21.9161 C   0  0  0  0  0  0  0  0  0  0  0  0
  -24.7221  -28.5110   20.2846 C   0  0  0  0  0  0  0  0  0  0  0  0
  -22.8639  -20.7474   18.4274 C   0  0  0  0  0  0  0  0  0  0  0  0
  -23.8684   -8.2764   21.0031 C   0  0  0  0  0  0  0  0  0  0  0  0
  -26.9098  -13.7995   21.1203 C   0  0  0  0  0  0  0  0  0  0  0  0
  -29.2194  -13.9626   22.1911 C   0  0  0  0  0  0  0  0  0  0  0  0
  -30.3584  -25.2654   25.6413 C   0  0  0  0  0  0  0  0  0  0  0  0
  -27.0711  -28.5205   20.8694 C   0  0  0  0  0  0  0  0  0  0  0  0
  -29.1748  -25.5526   24.9348 C   0  0  0  0  0  0  0  0  0  0  0  0
  -25.7753  -29.0219   21.0584 C   0  0  0  0  0  0  0  0  0  0  0  0
  -22.7003  -19.8927   17.3372 C   0  0  0  0  0  0  0  0  0  0  0  0
  -24.0218  -20.6760   19.2020 C   0  0  0  0  0  0  0  0  0  0  0  0
  -25.0161  -19.7500   18.8863 C   0  0  0  0  0  0  0  0  0  0  0  0
  -24.5864  -12.4515   20.3668 C   0  0  0  0  0  0  0  0  0  0  0  0
  -24.9566  -27.5243   19.3273 C   0  0  0  0  0  0  0  0  0  0  0  0
  -23.2069  -10.5611   20.5798 C   0  0  0  0  0  0  0  0  0  0  0  0
  -22.7087   -8.0796   21.7529 C   0  0  0  0  0  0  0  0  0  0  0  0
  -24.1174   -9.5172   20.4166 C   0  0  0  0  0  0  0  0  0  0  0  0
  -28.1096  -14.4962   21.5089 C   0  0  0  0  0  0  0  0  0  0  0  0
  -30.0852  -15.0212   22.3191 C   0  0  0  0  0  0  0  0  0  0  0  0
  -22.5395  -24.0063   14.7416 C   0  0  0  0  0  0  0  0  0  0  0  0
  -29.4474  -12.6293   22.6665 C   0  0  0  0  0  0  0  0  0  0  0  0
  -21.7835  -21.6155   14.6724 C   0  0  0  0  0  0  0  0  0  0  0  0
  -27.4208  -28.6749   24.0250 C   0  0  0  0  0  0  0  0  0  0  0  0
  -23.0485  -26.7866   16.3390 C   0  0  0  0  0  0  0  0  0  0  0  0
  -26.6068  -31.7821   23.5721 C   0  0  0  0  0  0  0  0  0  0  0  0
  -25.5385  -35.0229   23.6197 C   0  0  0  0  0  0  0  0  0  0  0  0
  -27.2808  -18.7954   19.4768 C   0  0  0  0  0  0  0  0  0  0  0  0
  -30.7719  -26.0619   26.8534 C   0  0  0  0  0  0  0  0  0  0  0  0
  -28.2232  -29.0668   21.6673 C   0  0  0  0  0  0  0  0  0  0  0  0
  -25.4794  -30.0908   22.0775 C   0  0  0  0  0  0  0  0  0  0  0  0
  -30.0694  -27.4127   26.9632 C   0  0  0  0  0  0  0  0  0  0  0  0
  -20.4025  -24.1397   12.2182 C   0  0  0  0  0  0  0  0  0  0  0  0
  -20.8428  -25.5697   12.5181 C   0  0  0  0  0  0  0  0  0  0  0  0
  -29.4535  -19.8060   22.4975 C   0  0  0  0  0  0  0  0  0  0  0  0
  -28.5720  -27.2573   26.7170 C   0  0  0  0  0  0  0  0  0  0  0  0
  -21.3605  -23.0629   12.7248 C   0  0  0  0  0  0  0  0  0  0  0  0
  -29.6825  -18.3418   22.8507 C   0  0  0  0  0  0  0  0  0  0  0  0
  -20.9958  -25.8627   14.0064 C   0  0  0  0  0  0  0  0  0  0  0  0
  -28.2859  -19.9389   21.5236 C   0  0  0  0  0  0  0  0  0  0  0  0
  -29.5502  -18.1780   20.2855 C   0  0  0  0  0  0  0  0  0  0  0  0
  -28.2972  -26.7289   25.3040 C   0  0  1  0  0  0  0  0  0  0  0  0
  -21.4771  -23.0258   14.2536 C   0  0  2  0  0  0  0  0  0  0  0  0
  -27.7901  -29.6970   22.9874 C   0  0  1  0  0  0  0  0  0  0  0  0
  -29.9966  -17.5006   21.5974 C   0  0  2  0  0  0  0  0  0  0  0  0
  -24.1689  -21.6018   20.3658 C   0  0  0  0  0  0  0  0  0  0  0  0
  -24.5359  -36.7444   25.1457 C   0  0  0  0  0  0  0  0  0  0  0  0
  -23.8944  -30.4040   23.3407 C   0  0  0  0  0  0  0  0  0  0  0  0
  -22.8187  -32.5614   24.0163 C   0  0  0  0  0  0  0  0  0  0  0  0
  -24.3709  -31.3988   25.5852 C   0  0  0  0  0  0  0  0  0  0  0  0
  -27.8631  -36.8268   23.3021 C   0  0  0  0  0  0  0  0  0  0  0  0
  -21.4530  -19.9677   16.5050 C   0  0  0  0  0  0  0  0  0  0  0  0
  -23.2564  -26.3631   14.9006 C   0  0  0  0  0  0  0  0  0  0  0  0
  -24.2328  -26.5892   17.2639 C   0  0  0  0  0  0  0  0  0  1  0  0
  -25.3098  -32.5539   23.5416 C   0  0  1  0  0  0  0  0  0  0  0  0
  -25.8226  -36.1632   24.5806 C   0  0  2  0  0  0  0  0  0  0  0  0
  -24.1156  -31.7284   24.0983 C   0  0  0  0  0  0  0  0  0  0  0  0
  -28.2544  -15.7930   21.2236 N   0  0  0  0  0  0  0  0  0  0  0  0
  -29.4653  -16.0832   21.7291 N   0  0  0  0  0  0  0  0  0  0  0  0
  -22.2602  -25.3596   14.5474 N   0  0  0  0  0  0  0  0  0  0  0  0
  -26.6381  -30.5884   22.8372 N   0  0  0  0  0  0  0  0  0  0  0  0
  -28.3185  -18.9584   20.4284 N   0  0  0  0  0  0  0  0  0  0  0  0
  -31.3086  -15.1378   22.8777 N   0  0  0  0  0  0  0  0  0  0  0  0
  -30.0738  -11.7129   21.8109 N   0  0  0  0  0  0  0  0  0  0  0  0
  -26.2001  -19.6619   19.6611 N   0  0  0  0  0  0  0  0  0  0  0  0
  -28.4379  -27.7909   24.3310 N   0  0  0  0  0  0  0  0  0  0  0  0
  -21.2764  -21.2738   15.9116 N   0  0  0  0  0  0  0  0  0  0  0  0
  -25.5596  -33.8005   24.2572 N   0  0  0  0  0  0  0  0  0  0  0  0
  -26.5654  -37.2528   23.8863 N   0  3  0  0  0  0  0  0  0  0  0  0
  -23.5777  -23.5919   15.2638 O   0  0  0  0  0  0  0  0  0  0  0  0
  -29.0909  -12.2569   23.8100 O   0  0  0  0  0  0  0  0  0  0  0  0
  -22.4306  -20.8906   13.9258 O   0  0  0  0  0  0  0  0  0  0  0  0
  -26.2967  -28.6881   24.5129 O   0  0  0  0  0  0  0  0  0  0  0  0
  -21.9701  -27.2152   16.7490 O   0  0  0  0  0  0  0  0  0  0  0  0
  -27.5594  -32.2256   24.2182 O   0  0  0  0  0  0  0  0  0  0  0  0
  -25.3160  -35.1994   22.4239 O   0  0  0  0  0  0  0  0  0  0  0  0
  -27.3545  -17.9579   18.5752 O   0  0  0  0  0  0  0  0  0  0  0  0
  -23.4531  -11.7938   19.9988 O   0  0  0  0  0  0  0  0  0  0  0  0
  -23.9259  -27.0392   18.5829 O   0  0  0  0  0  0  0  0  0  1  0  0
  -22.4701   -6.8885   22.3175 F   0  0  0  0  0  0  0  0  0  0  0  0
  -25.2338   -9.7006   19.6983 F   0  0  0  0  0  0  0  0  0  0  0  0
  1  2  1  0  0  0  0
  1  5  2  0  0  0  0
  2  6  2  0  0  0  0
  3 10  2  0  0  0  0
  3 18  1  0  0  0  0
  4 11  1  0  0  0  0
  4 18  2  0  0  0  0
  5 20  1  0  0  0  0
  6 22  1  0  0  0  0
  7 12  2  0  0  0  0
  7 21  1  0  0  0  0
  8  9  2  0  0  0  0
  8 24  1  0  0  0  0
  9 26  1  0  0  0  0
 10 27  1  0  0  0  0
 11 27  2  0  0  0  0
 12 28  1  0  0  0  0
 13 14  2  0  0  0  0
 13 29  1  0  0  0  0
 14 30  1  0  0  0  0
 15 23  1  0  0  0  0
 15 28  2  0  0  0  0
 16 24  2  0  0  0  0
 16 25  1  0  0  0  0
 17 30  2  0  0  0  0
 17 31  1  0  0  0  0
 18 32  1  0  0  0  0
 19 32  1  0  0  0  0
 19 33  2  0  0  0  0
 19 35  1  0  0  0  0
 20 22  2  0  0  0  0
 20 42  1  0  0  0  0
 21 23  2  0  0  0  0
 21 43  1  0  0  0  0
 22 55  1  0  0  0  0
 23 44  1  0  0  0  0
 24 65  1  0  0  0  0
 25 26  2  0  0  0  0
 25 59  1  0  0  0  0
 26 78  1  0  0  0  0
 27 91  1  0  0  0  0
 28 92  1  0  0  0  0
 29 31  2  0  0  0  0
 29 91  1  0  0  0  0
 30 93  1  0  0  0  0
 31 94  1  0  0  0  0
 32 71  2  0  0  0  0
 33 72  1  0  0  0  0
 33 76  1  0  0  0  0
 34 56  1  0  0  0  0
 34 73  1  0  0  0  0
 34 83  2  0  0  0  0
 35 77  1  0  0  0  0
 35 84  2  0  0  0  0
 36 56  1  0  0  0  0
 36 80  1  0  0  0  0
 36 85  2  0  0  0  0
 37 57  1  0  0  0  0
 37 79  1  0  0  0  0
 37 86  2  0  0  0  0
 38 66  1  0  0  0  0
 38 67  1  0  0  0  0
 38 87  2  0  0  0  0
 39 68  1  0  0  0  0
 39 74  1  0  0  0  0
 39 88  2  0  0  0  0
 40 69  1  0  0  0  0
 40 81  1  0  0  0  0
 40 89  2  0  0  0  0
 41 75  1  0  0  0  0
 41 78  1  0  0  0  0
 41 90  2  0  0  0  0
 42 45  1  0  0  0  0
 43 57  1  0  0  0  0
 44 74  1  0  0  0  0
 45 49  1  0  0  0  0
 46 47  1  0  0  0  0
 46 50  1  0  0  0  0
 47 52  1  0  0  0  0
 48 51  1  0  0  0  0
 48 53  1  0  0  0  0
 49 55  1  0  0  0  0
 50 56  1  0  0  0  0
 51 58  1  0  0  0  0
 52 73  1  0  0  0  0
 53 75  1  0  0  0  0
 54 58  1  0  0  0  0
 54 75  1  0  0  0  0
 55 79  1  0  0  0  0
 57 74  1  0  0  0  0
 58 72  1  0  0  0  0
 60 69  1  0  0  0  0
 61 70  1  0  0  0  0
 62 70  1  0  0  0  0
 63 70  1  0  0  0  0
 64 82  1  0  0  0  0
 65 80  1  0  0  0  0
 66 73  1  0  0  0  0
 67 92  1  0  0  0  0
 68 70  1  0  0  0  0
 68 81  1  0  0  0  0
 69 82  1  0  0  0  0
 71 72  1  0  0  0  0
M  CHG  1  82   1
M  ISO  4  41 100  67 101  78 100  92 101
M  END
> <Batch ID>
0049

> <Smiles>
CNC(C)C(=O)NC(C(=O)N1Cc2cc([101O:1][101CH2:1]C(=O)CN3CCCCC(C(=O)NCc4ccc([100NH:0][100C:0](=O)N5CCCC(n6nc(-c7ccc(Oc8ccc(F)cc8F)cc7)c(C(N)=O)c6N)C5)c(C)c4)C3=O)ccc2CC1C(=O)NC1CCCc2ccccc21)C(C)(C)C

> <Shape>
0.250

> <Color>
0.104

> <Negative vol penalty>
0.000

$$$$
