
  -OEChem-04042322353D

 85 93  0     1  0  0  0  0  0999 V2000
  -29.3854  -23.6344   17.7267 C   0  0  0  0  0  0  0  0  0  0  0  0
  -28.2260  -23.7105   18.4919 C   0  0  0  0  0  0  0  0  0  0  0  0
  -28.3664  -14.6035   20.6878 C   0  0  0  0  0  0  0  0  0  0  0  0
  -26.1708  -15.6083   20.7714 C   0  0  0  0  0  0  0  0  0  0  0  0
  -30.4685  -24.4618   18.0203 C   0  0  0  0  0  0  0  0  0  0  0  0
  -28.1495  -24.6133   19.5518 C   0  0  0  0  0  0  0  0  0  0  0  0
  -23.7572  -27.1319   19.6455 C   0  0  0  0  0  0  0  0  0  0  0  0
  -27.7843  -13.3406   20.5785 C   0  0  0  0  0  0  0  0  0  0  0  0
  -25.5887  -14.3454   20.6620 C   0  0  0  0  0  0  0  0  0  0  0  0
  -22.6466  -26.4567   20.1499 C   0  0  0  0  0  0  0  0  0  0  0  0
  -24.9525  -11.7118   22.6845 C   0  0  0  0  0  0  0  0  0  0  0  0
  -23.8884  -11.4129   23.5352 C   0  0  0  0  0  0  0  0  0  0  0  0
  -23.6156  -22.8019   27.6003 C   0  0  0  0  0  0  0  0  0  0  0  0
  -22.9198  -27.5954   22.2589 C   0  0  0  0  0  0  0  0  0  0  0  0
  -25.9715  -22.2769   27.4934 C   0  0  0  0  0  0  0  0  0  0  0  0
  -22.4582  -11.0564   21.6209 C   0  0  0  0  0  0  0  0  0  0  0  0
  -27.5597  -15.7373   20.7843 C   0  0  0  0  0  0  0  0  0  0  0  0
  -23.4806  -22.4707   26.2522 C   0  0  0  0  0  0  0  0  0  0  0  0
  -28.5166  -17.9083   19.8469 C   0  0  0  0  0  0  0  0  0  0  0  0
  -30.4017  -25.3820   19.0783 C   0  0  0  0  0  0  0  0  0  0  0  0
  -24.4651  -28.0374   20.4488 C   0  0  0  0  0  0  0  0  0  0  0  0
  -29.2333  -25.4528   19.8607 C   0  0  0  0  0  0  0  0  0  0  0  0
  -24.0374  -28.2828   21.7615 C   0  0  0  0  0  0  0  0  0  0  0  0
  -24.5910  -22.0425   25.5246 C   0  0  0  0  0  0  0  0  0  0  0  0
  -25.8365  -21.9456   26.1452 C   0  0  0  0  0  0  0  0  0  0  0  0
  -26.3955  -13.2116   20.5655 C   0  0  0  0  0  0  0  0  0  0  0  0
  -22.2295  -26.6862   21.4578 C   0  0  0  0  0  0  0  0  0  0  0  0
  -24.7695  -11.6832   21.3019 C   0  0  0  0  0  0  0  0  0  0  0  0
  -22.6412  -11.0851   23.0035 C   0  0  0  0  0  0  0  0  0  0  0  0
  -24.8611  -22.7051   28.2210 C   0  0  0  0  0  0  0  0  0  0  0  0
  -23.5223  -11.3554   20.7702 C   0  0  0  0  0  0  0  0  0  0  0  0
  -28.1603  -17.0421   20.8978 C   0  0  0  0  0  0  0  0  0  0  0  0
  -29.0439  -19.0105   20.4742 C   0  0  0  0  0  0  0  0  0  0  0  0
  -22.1408  -22.5839   25.6203 C   0  0  0  0  0  0  0  0  0  0  0  0
  -28.3826  -17.7324   18.4302 C   0  0  0  0  0  0  0  0  0  0  0  0
  -27.4403  -28.2035   21.5553 C   0  0  0  0  0  0  0  0  0  0  0  0
  -26.4672  -31.1089   22.6203 C   0  0  0  0  0  0  0  0  0  0  0  0
  -23.8860  -33.1370   23.5535 C   0  0  0  0  0  0  0  0  0  0  0  0
  -28.2778  -21.3702   25.9101 C   0  0  0  0  0  0  0  0  0  0  0  0
  -31.6154  -26.2223   19.3873 C   0  0  0  0  0  0  0  0  0  0  0  0
  -25.6449  -28.7777   19.8811 C   0  0  0  0  0  0  0  0  0  0  0  0
  -24.7508  -29.2602   22.6583 C   0  0  0  0  0  0  0  0  0  0  0  0
  -31.3164  -27.4148   20.2921 C   0  0  0  0  0  0  0  0  0  0  0  0
  -31.3519  -20.3001   24.4672 C   0  0  0  0  0  0  0  0  0  0  0  0
  -30.4552  -26.9844   21.4753 C   0  0  0  0  0  0  0  0  0  0  0  0
  -30.9147  -19.4270   23.2888 C   0  0  0  0  0  0  0  0  0  0  0  0
  -30.4223  -20.1382   25.6686 C   0  0  0  0  0  0  0  0  0  0  0  0
  -28.5591  -19.4667   24.2034 C   0  0  0  0  0  0  0  0  0  0  0  0
  -29.1029  -26.4367   21.0031 C   0  0  1  0  0  0  0  0  0  0  0  0
  -26.5991  -29.2936   20.9539 C   0  0  1  0  0  0  0  0  0  0  0  0
  -29.4276  -19.6447   22.9474 C   0  0  2  0  0  0  0  0  0  0  0  0
  -24.4447  -21.6868   24.0777 C   0  0  0  0  0  0  0  0  0  0  0  0
  -23.4059  -35.4456   24.4120 C   0  0  0  0  0  0  0  0  0  0  0  0
  -27.4262  -30.2743   25.3940 C   0  0  0  0  0  0  0  0  0  0  0  0
  -26.0895  -32.1638   26.3484 C   0  0  0  0  0  0  0  0  0  0  0  0
  -27.9636  -32.6360   24.7713 C   0  0  0  0  0  0  0  0  0  0  0  0
  -22.2566  -33.8080   21.1758 C   0  0  0  0  0  0  0  0  0  0  0  0
  -20.3241  -24.4952   23.6061 C   0  0  0  0  0  0  0  0  0  0  0  0
  -20.2636  -24.1133   25.0790 C   0  0  0  0  0  0  0  0  0  0  0  0
  -21.1325  -25.7623   23.3549 C   0  0  0  0  0  0  0  0  0  1  0  0
  -25.8233  -31.6233   23.8851 C   0  0  1  0  0  0  0  0  0  0  0  0
  -23.5422  -34.5672   23.1782 C   0  0  2  0  0  0  0  0  0  0  0  0
  -26.8132  -31.6544   25.0837 C   0  0  0  0  0  0  0  0  0  0  0  0
  -28.4381  -17.5502   22.1015 N   0  0  0  0  0  0  0  0  0  0  0  0
  -28.9746  -18.7476   21.8107 N   0  0  0  0  0  0  0  0  0  0  0  0
  -25.9026  -29.9546   22.0594 N   0  0  0  0  0  0  0  0  0  0  0  0
  -29.0309  -20.3631   25.2705 N   0  0  0  0  0  0  0  0  0  0  0  0
  -29.5557  -20.1693   20.0074 N   0  0  0  0  0  0  0  0  0  0  0  0
  -27.8197  -16.5400   17.9553 N   0  0  0  0  0  0  0  0  0  0  0  0
  -26.9781  -21.5139   25.4255 N   0  0  0  0  0  0  0  0  0  0  0  0
  -21.5643  -23.8491   25.6291 N   0  0  0  0  0  0  0  0  0  0  0  0
  -28.2176  -27.5219   20.6384 N   0  0  0  0  0  0  0  0  0  0  0  0
  -25.2480  -32.9217   23.5513 N   0  0  0  0  0  0  0  0  0  0  0  0
  -22.2564  -34.6105   22.4260 N   0  3  0  0  0  0  0  0  0  0  0  0
  -21.6116  -21.5795   25.1517 O   0  0  0  0  0  0  0  0  0  0  0  0
  -28.7663  -18.5999   17.6093 O   0  0  0  0  0  0  0  0  0  0  0  0
  -27.3890  -27.9970   22.7622 O   0  0  0  0  0  0  0  0  0  0  0  0
  -27.4311  -31.7132   22.1434 O   0  0  0  0  0  0  0  0  0  0  0  0
  -23.0320  -32.2960   23.8254 O   0  0  0  0  0  0  0  0  0  0  0  0
  -28.7596  -22.0732   26.8022 O   0  0  0  0  0  0  0  0  0  0  0  0
  -25.8272  -11.9795   20.4586 O   0  0  0  0  0  0  0  0  0  0  0  0
  -21.1462  -26.0279   21.9529 O   0  0  0  0  0  0  0  0  0  1  0  0
  -21.6198  -10.7965   23.8206 F   0  0  0  0  0  0  0  0  0  0  0  0
  -24.9911  -23.0246   29.5154 F   0  0  0  0  0  0  0  0  0  0  0  0
  -23.3407  -11.3251   19.4428 F   0  0  0  0  0  0  0  0  0  0  0  0
  1  2  1  0  0  0  0
  1  5  2  0  0  0  0
  2  6  2  0  0  0  0
  3  8  2  0  0  0  0
  3 17  1  0  0  0  0
  4  9  1  0  0  0  0
  4 17  2  0  0  0  0
  5 20  1  0  0  0  0
  6 22  1  0  0  0  0
  7 10  2  0  0  0  0
  7 21  1  0  0  0  0
  8 26  1  0  0  0  0
  9 26  2  0  0  0  0
 10 27  1  0  0  0  0
 11 12  2  0  0  0  0
 11 28  1  0  0  0  0
 12 29  1  0  0  0  0
 13 18  1  0  0  0  0
 13 30  2  0  0  0  0
 14 23  1  0  0  0  0
 14 27  2  0  0  0  0
 15 25  2  0  0  0  0
 15 30  1  0  0  0  0
 16 29  2  0  0  0  0
 16 31  1  0  0  0  0
 17 32  1  0  0  0  0
 18 24  2  0  0  0  0
 18 34  1  0  0  0  0
 19 32  1  0  0  0  0
 19 33  2  0  0  0  0
 19 35  1  0  0  0  0
 20 22  2  0  0  0  0
 20 40  1  0  0  0  0
 21 23  2  0  0  0  0
 21 41  1  0  0  0  0
 22 49  1  0  0  0  0
 23 42  1  0  0  0  0
 24 25  1  0  0  0  0
 24 52  1  0  0  0  0
 25 70  1  0  0  0  0
 26 81  1  0  0  0  0
 27 82  1  0  0  0  0
 28 31  2  0  0  0  0
 28 81  1  0  0  0  0
 29 83  1  0  0  0  0
 30 84  1  0  0  0  0
 31 85  1  0  0  0  0
 32 64  2  0  0  0  0
 33 65  1  0  0  0  0
 33 68  1  0  0  0  0
 34 71  1  0  0  0  0
 34 75  2  0  0  0  0
 35 69  1  0  0  0  0
 35 76  2  0  0  0  0
 36 50  1  0  0  0  0
 36 72  1  0  0  0  0
 36 77  2  0  0  0  0
 37 61  1  0  0  0  0
 37 66  1  0  0  0  0
 37 78  2  0  0  0  0
 38 62  1  0  0  0  0
 38 73  1  0  0  0  0
 38 79  2  0  0  0  0
 39 67  1  0  0  0  0
 39 70  1  0  0  0  0
 39 80  2  0  0  0  0
 40 43  1  0  0  0  0
 41 50  1  0  0  0  0
 42 66  1  0  0  0  0
 43 45  1  0  0  0  0
 44 46  1  0  0  0  0
 44 47  1  0  0  0  0
 45 49  1  0  0  0  0
 46 51  1  0  0  0  0
 47 67  1  0  0  0  0
 48 51  1  0  0  0  0
 48 67  1  0  0  0  0
 49 72  1  0  0  0  0
 50 66  1  0  0  0  0
 51 65  1  0  0  0  0
 53 62  1  0  0  0  0
 54 63  1  0  0  0  0
 55 63  1  0  0  0  0
 56 63  1  0  0  0  0
 57 74  1  0  0  0  0
 58 59  1  0  0  0  0
 58 60  1  0  0  0  0
 59 71  1  0  0  0  0
 60 82  1  0  0  0  0
 61 63  1  0  0  0  0
 61 73  1  0  0  0  0
 62 74  1  0  0  0  0
 64 65  1  0  0  0  0
M  CHG  1  74   1
M  ISO  4  39 100  60 101  70 100  82 101
M  END
> <Batch ID>
0050

> <Smiles>
CNC(C)C(=O)NC(C(=O)N1Cc2cc([101O:1][101CH2:1]CCNC(=O)c3cc(F)cc([100NH:0][100C:0](=O)N4CCCC(n5nc(-c6ccc(Oc7ccc(F)cc7F)cc6)c(C(N)=O)c5N)C4)c3C)ccc2CC1C(=O)NC1CCCc2ccccc21)C(C)(C)C

> <Shape>
0.267

> <Color>
0.073

> <Negative vol penalty>
0.000

$$$$

  -OEChem-04042322353D

 90 99  0     1  0  0  0  0  0999 V2000
  -29.7030  -35.0495   23.9734 C   0  0  0  0  0  0  0  0  0  0  0  0
  -29.6305  -33.7005   23.6412 C   0  0  0  0  0  0  0  0  0  0  0  0
  -23.4994  -11.2529   20.6570 C   0  0  0  0  0  0  0  0  0  0  0  0
  -21.6551  -11.9744   19.2731 C   0  0  0  0  0  0  0  0  0  0  0  0
  -28.5815  -35.7017   24.4839 C   0  0  0  0  0  0  0  0  0  0  0  0
  -28.4367  -33.0026   23.8206 C   0  0  0  0  0  0  0  0  0  0  0  0
  -27.2858  -30.0707   19.8552 C   0  0  0  0  0  0  0  0  0  0  0  0
  -23.6556  -10.1201   19.8583 C   0  0  0  0  0  0  0  0  0  0  0  0
  -21.8114  -10.8416   18.4743 C   0  0  0  0  0  0  0  0  0  0  0  0
  -27.9677  -28.8601   19.7392 C   0  0  0  0  0  0  0  0  0  0  0  0
  -22.1678   -7.1075   19.4908 C   0  0  0  0  0  0  0  0  0  0  0  0
  -22.3504   -5.8828   20.1330 C   0  0  0  0  0  0  0  0  0  0  0  0
  -26.0662  -27.7065   20.6735 C   0  0  0  0  0  0  0  0  0  0  0  0
  -27.2080  -20.4172   19.7088 C   0  0  0  0  0  0  0  0  0  0  0  0
  -28.0135  -18.4996   20.9380 C   0  0  0  0  0  0  0  0  0  0  0  0
  -24.4902   -5.6289   19.0404 C   0  0  0  0  0  0  0  0  0  0  0  0
  -22.4991  -12.1800   20.3644 C   0  0  0  0  0  0  0  0  0  0  0  0
  -22.0509  -13.3857   22.5674 C   0  0  0  0  0  0  0  0  0  0  0  0
  -27.3706  -35.0139   24.6606 C   0  0  0  0  0  0  0  0  0  0  0  0
  -25.9910  -30.1097   20.3922 C   0  0  0  0  0  0  0  0  0  0  0  0
  -27.2983  -33.6459   24.3353 C   0  0  0  0  0  0  0  0  0  0  0  0
  -25.3691  -28.9185   20.7929 C   0  0  0  0  0  0  0  0  0  0  0  0
  -28.5218  -20.7761   19.4077 C   0  0  0  0  0  0  0  0  0  0  0  0
  -29.3274  -18.8584   20.6369 C   0  0  0  0  0  0  0  0  0  0  0  0
  -29.5815  -19.9967   19.8717 C   0  0  0  0  0  0  0  0  0  0  0  0
  -26.9538  -19.2790   20.4741 C   0  0  0  0  0  0  0  0  0  0  0  0
  -22.8117   -9.9145   18.7669 C   0  0  0  0  0  0  0  0  0  0  0  0
  -27.3590  -27.6782   20.1511 C   0  0  0  0  0  0  0  0  0  0  0  0
  -23.1464   -7.5929   18.6234 C   0  0  0  0  0  0  0  0  0  0  0  0
  -23.5116   -5.1436   19.9078 C   0  0  0  0  0  0  0  0  0  0  0  0
  -24.3076   -6.8536   18.3982 C   0  0  0  0  0  0  0  0  0  0  0  0
  -22.3368  -13.3501   21.1895 C   0  0  0  0  0  0  0  0  0  0  0  0
  -21.9980  -14.7238   22.8727 C   0  0  0  0  0  0  0  0  0  0  0  0
  -29.5226  -24.3085   18.5495 C   0  0  0  0  0  0  0  0  0  0  0  0
  -30.7989  -24.6010   18.2572 C   0  0  0  0  0  0  0  0  0  0  0  0
  -21.8511  -12.3057   23.4891 C   0  0  0  0  0  0  0  0  0  0  0  0
  -24.6568  -31.4756   22.9334 C   0  0  0  0  0  0  0  0  0  0  0  0
  -21.9167  -30.3425   21.6182 C   0  0  0  0  0  0  0  0  0  0  0  0
  -20.8343  -27.3091   19.9920 C   0  0  0  0  0  0  0  0  0  0  0  0
  -24.4534  -19.5759   20.3963 C   0  0  0  0  0  0  0  0  0  0  0  0
  -26.1985  -35.7497   25.2601 C   0  0  0  0  0  0  0  0  0  0  0  0
  -25.2588  -31.4202   20.4858 C   0  0  0  0  0  0  0  0  0  0  0  0
  -23.9728  -28.9039   21.3572 C   0  0  0  0  0  0  0  0  0  0  0  0
  -28.3596  -25.1368   18.0675 C   0  0  0  0  0  0  0  0  0  0  0  0
  -24.8654  -35.0310   25.0683 C   0  0  0  0  0  0  0  0  0  0  0  0
  -20.9825  -18.9743   20.9141 C   0  0  0  0  0  0  0  0  0  0  0  0
  -25.0020  -33.5516   25.4140 C   0  0  0  0  0  0  0  0  0  0  0  0
  -20.9106  -17.4680   21.1749 C   0  0  0  0  0  0  0  0  0  0  0  0
  -27.1150  -24.2690   20.0918 C   0  0  0  0  0  0  0  0  0  0  0  0
  -22.0394  -19.3186   19.8661 C   0  0  0  0  0  0  0  0  0  0  0  0
  -23.3069  -17.2736   20.3956 C   0  0  0  0  0  0  0  0  0  0  0  0
  -28.3838  -23.5534   20.5534 C   0  0  0  0  0  0  0  0  0  0  0  0
  -26.0142  -32.8608   24.4922 C   0  0  1  0  0  0  0  0  0  0  0  0
  -24.1409  -31.4071   21.5239 C   0  0  1  0  0  0  0  0  0  0  0  0
  -22.3014  -16.8839   21.4914 C   0  0  2  0  0  0  0  0  0  0  0  0
  -27.4236  -25.4889   19.2239 C   0  0  1  0  0  0  0  0  0  1  0  0
  -30.9903  -20.3814   19.5482 C   0  0  0  0  0  0  0  0  0  0  0  0
  -19.0163  -26.9210   18.3063 C   0  0  0  0  0  0  0  0  0  0  0  0
  -20.1993  -29.6817   24.0521 C   0  0  0  0  0  0  0  0  0  0  0  0
  -19.1249  -27.8599   22.7124 C   0  0  0  0  0  0  0  0  0  0  0  0
  -18.9078  -30.2356   21.9835 C   0  0  0  0  0  0  0  0  0  0  0  0
  -22.7123  -26.0453   18.0854 C   0  0  0  0  0  0  0  0  0  0  0  0
  -28.7682  -22.0053   18.5835 C   0  0  0  0  0  0  0  0  0  0  0  0
  -21.1303  -29.0583   21.7260 C   0  0  1  0  0  0  0  0  0  0  0  0
  -20.5068  -27.1342   18.5200 C   0  0  2  0  0  0  0  0  0  0  0  0
  -30.4440  -18.0068   21.1458 C   0  0  0  0  0  0  0  0  0  0  0  0
  -19.8688  -29.2094   22.6222 C   0  0  0  0  0  0  0  0  0  0  0  0
  -22.4570  -14.5688   20.6562 N   0  0  0  0  0  0  0  0  0  0  0  0
  -22.2455  -15.3827   21.7045 N   0  0  0  0  0  0  0  0  0  0  0  0
  -23.3004  -30.2113   21.4345 N   0  0  0  0  0  0  0  0  0  0  0  0
  -23.3314  -18.7358   20.2346 N   0  0  0  0  0  0  0  0  0  0  0  0
  -21.7644  -15.3893   24.0238 N   0  0  0  0  0  0  0  0  0  0  0  0
  -21.9406  -10.9921   23.0087 N   0  0  0  0  0  0  0  0  0  0  0  0
  -25.6193  -18.9135   20.7792 N   0  0  0  0  0  0  0  0  0  0  0  0
  -25.4212  -32.5958   23.1989 N   0  0  0  0  0  0  0  0  0  0  0  0
  -20.8449  -28.6384   20.3584 N   0  0  0  0  0  0  0  0  0  0  0  0
  -29.2723  -23.1670   19.3943 N   0  3  1  0  0  0  0  0  0  0  0  0
  -21.2343  -25.9585   17.9637 N   0  3  0  0  0  0  0  0  0  0  0  0
  -21.5843  -12.5000   24.6993 O   0  0  0  0  0  0  0  0  0  0  0  0
  -24.3806  -30.5794   23.7221 O   0  0  0  0  0  0  0  0  0  0  0  0
  -21.3240  -31.4221   21.6870 O   0  0  0  0  0  0  0  0  0  0  0  0
  -21.0547  -26.3612   20.7426 O   0  0  0  0  0  0  0  0  0  0  0  0
  -24.3786  -20.7968   20.2353 O   0  0  0  0  0  0  0  0  0  0  0  0
  -22.9640   -8.8093   17.9872 O   0  0  0  0  0  0  0  0  0  0  0  0
  -28.0226  -26.4953   20.0396 O   0  0  0  0  0  0  0  0  0  1  0  0
  -23.6875   -3.9682   20.5258 F   0  0  0  0  0  0  0  0  0  0  0  0
  -25.2518   -7.3153   17.5668 F   0  0  0  0  0  0  0  0  0  0  0  0
  -30.0219  -16.9335   21.8760 F   0  0  0  0  0  0  0  0  0  0  0  0
  -31.2233  -17.4820   20.1556 F   0  0  0  0  0  0  0  0  0  0  0  0
  -31.2962  -18.6936   21.9598 F   0  0  0  0  0  0  0  0  0  0  0  0
  1  2  1  0  0  0  0
  1  5  2  0  0  0  0
  2  6  2  0  0  0  0
  3  8  2  0  0  0  0
  3 17  1  0  0  0  0
  4  9  1  0  0  0  0
  4 17  2  0  0  0  0
  5 19  1  0  0  0  0
  6 21  1  0  0  0  0
  7 10  2  0  0  0  0
  7 20  1  0  0  0  0
  8 27  1  0  0  0  0
  9 27  2  0  0  0  0
 10 28  1  0  0  0  0
 11 12  2  0  0  0  0
 11 29  1  0  0  0  0
 12 30  1  0  0  0  0
 13 22  1  0  0  0  0
 13 28  2  0  0  0  0
 14 23  1  0  0  0  0
 14 26  2  0  0  0  0
 15 24  2  0  0  0  0
 15 26  1  0  0  0  0
 16 30  2  0  0  0  0
 16 31  1  0  0  0  0
 17 32  1  0  0  0  0
 18 32  1  0  0  0  0
 18 33  2  0  0  0  0
 18 36  1  0  0  0  0
 19 21  2  0  0  0  0
 19 41  1  0  0  0  0
 20 22  2  0  0  0  0
 20 42  1  0  0  0  0
 21 53  1  0  0  0  0
 22 43  1  0  0  0  0
 23 25  2  0  0  0  0
 23 63  1  0  0  0  0
 24 25  1  0  0  0  0
 24 66  1  0  0  0  0
 25 57  1  0  0  0  0
 26 74  1  0  0  0  0
 27 84  1  0  0  0  0
 28 85  1  0  0  0  0
 29 31  2  0  0  0  0
 29 84  1  0  0  0  0
 30 86  1  0  0  0  0
 31 87  1  0  0  0  0
 32 68  2  0  0  0  0
 33 69  1  0  0  0  0
 33 72  1  0  0  0  0
 34 35  2  0  0  0  0
 34 44  1  0  0  0  0
 34 77  1  0  0  0  0
 36 73  1  0  0  0  0
 36 79  2  0  0  0  0
 37 54  1  0  0  0  0
 37 75  1  0  0  0  0
 37 80  2  0  0  0  0
 38 64  1  0  0  0  0
 38 70  1  0  0  0  0
 38 81  2  0  0  0  0
 39 65  1  0  0  0  0
 39 76  1  0  0  0  0
 39 82  2  0  0  0  0
 40 71  1  0  0  0  0
 40 74  1  0  0  0  0
 40 83  2  0  0  0  0
 41 45  1  0  0  0  0
 42 54  1  0  0  0  0
 43 70  1  0  0  0  0
 44 56  1  0  0  0  0
 45 47  1  0  0  0  0
 46 48  1  0  0  0  0
 46 50  1  0  0  0  0
 47 53  1  0  0  0  0
 48 55  1  0  0  0  0
 49 52  1  0  0  0  0
 49 56  1  0  0  0  0
 50 71  1  0  0  0  0
 51 55  1  0  0  0  0
 51 71  1  0  0  0  0
 52 77  1  0  0  0  0
 53 75  1  0  0  0  0
 54 70  1  0  0  0  0
 55 69  1  0  0  0  0
 56 85  1  0  0  0  0
 58 65  1  0  0  0  0
 59 67  1  0  0  0  0
 60 67  1  0  0  0  0
 61 67  1  0  0  0  0
 62 78  1  0  0  0  0
 63 77  1  0  0  0  0
 64 67  1  0  0  0  0
 64 76  1  0  0  0  0
 65 78  1  0  0  0  0
 66 88  1  0  0  0  0
 66 89  1  0  0  0  0
 66 90  1  0  0  0  0
 68 69  1  0  0  0  0
M  CHG  2  77   1  78   1
M  ISO  4  40 100  56 101  74 100  85 101
M  END
> <Batch ID>
0050

> <Smiles>
C=C1C[101CH:1]([101O:1]c2ccc3c(c2)CN(C(=O)C(NC(=O)C(C)NC)C(C)(C)C)C(C(=O)NC2CCCc4ccccc42)C3)CCN1Cc1cc([100NH:0][100C:0](=O)N2CCCC(n3nc(-c4ccc(Oc5ccc(F)cc5F)cc4)c(C(N)=O)c3N)C2)cc(C(F)(F)F)c1C

> <Shape>
0.272

> <Color>
0.063

> <Negative vol penalty>
0.000

$$$$

  -OEChem-04042322353D

 88 97  0     1  0  0  0  0  0999 V2000
  -28.8741  -32.9397   26.4326 C   0  0  0  0  0  0  0  0  0  0  0  0
  -28.8265  -31.7643   25.6899 C   0  0  0  0  0  0  0  0  0  0  0  0
  -23.5952  -10.0818   22.6076 C   0  0  0  0  0  0  0  0  0  0  0  0
  -24.8536  -11.6265   23.9741 C   0  0  0  0  0  0  0  0  0  0  0  0
  -27.6904  -33.5634   26.8250 C   0  0  0  0  0  0  0  0  0  0  0  0
  -27.5952  -31.2112   25.3402 C   0  0  0  0  0  0  0  0  0  0  0  0
  -27.4402  -29.7166   20.5041 C   0  0  0  0  0  0  0  0  0  0  0  0
  -29.9051  -20.0242   17.6448 C   0  0  0  0  0  0  0  0  0  0  0  0
  -29.8445  -18.6519   17.8869 C   0  0  0  0  0  0  0  0  0  0  0  0
  -23.1812   -9.4044   23.7545 C   0  0  0  0  0  0  0  0  0  0  0  0
  -24.4396  -10.9491   25.1210 C   0  0  0  0  0  0  0  0  0  0  0  0
  -28.0633  -28.5095   20.1905 C   0  0  0  0  0  0  0  0  0  0  0  0
  -20.8807   -9.8178   26.1978 C   0  0  0  0  0  0  0  0  0  0  0  0
  -19.5340   -9.4671   26.2929 C   0  0  0  0  0  0  0  0  0  0  0  0
  -25.9197  -27.4034   20.2152 C   0  0  0  0  0  0  0  0  0  0  0  0
  -27.4942  -20.1071   17.5110 C   0  0  0  0  0  0  0  0  0  0  0  0
  -20.1515   -7.1361   26.4415 C   0  0  0  0  0  0  0  0  0  0  0  0
  -24.4314  -11.1928   22.7174 C   0  0  0  0  0  0  0  0  0  0  0  0
  -24.0428  -12.5262   20.5776 C   0  0  0  0  0  0  0  0  0  0  0  0
  -26.4440  -33.0229   26.4716 C   0  0  0  0  0  0  0  0  0  0  0  0
  -26.0510  -29.7741   20.6867 C   0  0  0  0  0  0  0  0  0  0  0  0
  -26.3938  -31.8275   25.7293 C   0  0  0  0  0  0  0  0  0  0  0  0
  -25.2810  -28.6130   20.5286 C   0  0  0  0  0  0  0  0  0  0  0  0
  -28.7299  -20.7519   17.4569 C   0  0  0  0  0  0  0  0  0  0  0  0
  -28.6088  -18.0071   17.9410 C   0  0  0  0  0  0  0  0  0  0  0  0
  -23.6034   -9.8380   25.0112 C   0  0  0  0  0  0  0  0  0  0  0  0
  -27.3034  -27.3521   20.0488 C   0  0  0  0  0  0  0  0  0  0  0  0
  -21.8628   -8.8276   26.2244 C   0  0  0  0  0  0  0  0  0  0  0  0
  -19.1694   -8.1263   26.4148 C   0  0  0  0  0  0  0  0  0  0  0  0
  -27.4336  -18.7347   17.7531 C   0  0  0  0  0  0  0  0  0  0  0  0
  -21.4982   -7.4868   26.3463 C   0  0  0  0  0  0  0  0  0  0  0  0
  -24.8598  -11.8926   21.5330 C   0  0  0  0  0  0  0  0  0  0  0  0
  -24.9243  -13.0377   19.6570 C   0  0  0  0  0  0  0  0  0  0  0  0
  -29.6480  -24.3216   18.0690 C   0  0  0  0  0  0  0  0  0  0  0  0
  -33.1871  -23.6718   18.8016 C   0  0  0  0  0  0  0  0  0  0  0  0
  -30.9687  -24.5111   18.2094 C   0  0  0  0  0  0  0  0  0  0  0  0
  -31.8703  -23.4822   18.6617 C   0  0  0  0  0  0  0  0  0  0  0  0
  -22.6146  -12.6421   20.5270 C   0  0  0  0  0  0  0  0  0  0  0  0
  -24.1364  -30.5235   23.1108 C   0  0  0  0  0  0  0  0  0  0  0  0
  -21.8144  -30.1921   20.8701 C   0  0  0  0  0  0  0  0  0  0  0  0
  -21.0698  -27.9238   18.1649 C   0  0  0  0  0  0  0  0  0  0  0  0
  -29.6226  -15.7458   18.3938 C   0  0  0  0  0  0  0  0  0  0  0  0
  -25.1915  -33.7072   26.9590 C   0  0  0  0  0  0  0  0  0  0  0  0
  -25.3909  -31.0892   20.9985 C   0  0  0  0  0  0  0  0  0  0  0  0
  -23.7841  -28.6254   20.6943 C   0  0  0  0  0  0  0  0  0  0  0  0
  -28.7096  -25.4014   17.5955 C   0  0  0  0  0  0  0  0  0  0  0  0
  -23.9287  -33.2591   26.2277 C   0  0  0  0  0  0  0  0  0  0  0  0
  -29.8910  -12.2597   19.0664 C   0  0  0  0  0  0  0  0  0  0  0  0
  -23.8864  -31.7383   26.1181 C   0  0  0  0  0  0  0  0  0  0  0  0
  -28.5388  -11.9056   19.6895 C   0  0  0  0  0  0  0  0  0  0  0  0
  -26.9081  -24.1669   18.8723 C   0  0  0  0  0  0  0  0  0  0  0  0
  -30.3673  -13.6465   19.4953 C   0  0  0  0  0  0  0  0  0  0  0  0
  -28.0490  -14.3761   19.8982 C   0  0  0  0  0  0  0  0  0  0  0  0
  -27.9594  -23.1857   19.3885 C   0  0  0  0  0  0  0  0  0  0  0  0
  -25.0775  -31.2102   25.3094 C   0  0  1  0  0  0  0  0  0  0  0  0
  -24.0295  -30.9305   21.6684 C   0  0  1  0  0  0  0  0  0  0  0  0
  -27.4973  -13.0149   19.4440 C   0  0  2  0  0  0  0  0  0  0  0  0
  -27.5088  -25.5310   18.5329 C   0  0  1  0  0  0  0  0  0  1  0  0
  -19.7741  -28.2813   16.0458 C   0  0  0  0  0  0  0  0  0  0  0  0
  -19.4563  -29.1005   22.4695 C   0  0  0  0  0  0  0  0  0  0  0  0
  -18.7030  -27.8989   20.4063 C   0  0  0  0  0  0  0  0  0  0  0  0
  -18.8211  -30.3906   20.4234 C   0  0  0  0  0  0  0  0  0  0  0  0
  -23.3351  -27.0171   16.4900 C   0  0  0  0  0  0  0  0  0  0  0  0
  -28.7948  -22.2278   17.1954 C   0  0  0  0  0  0  0  0  0  0  0  0
  -20.9632  -29.0485   20.3736 C   0  0  1  0  0  0  0  0  0  0  0  0
  -21.1555  -28.2223   16.6790 C   0  0  2  0  0  0  0  0  0  0  0  0
  -19.5120  -29.1053   20.9288 C   0  0  0  0  0  0  0  0  0  0  0  0
  -26.1605  -11.9911   21.2457 N   0  0  0  0  0  0  0  0  0  0  0  0
  -26.1674  -12.6926   20.0994 N   0  0  0  0  0  0  0  0  0  0  0  0
  -23.1859  -29.9343   21.0050 N   0  0  0  0  0  0  0  0  0  0  0  0
  -29.3310  -14.6464   19.2286 N   0  0  0  0  0  0  0  0  0  0  0  0
  -24.7497  -13.7446   18.5201 N   0  0  0  0  0  0  0  0  0  0  0  0
  -21.8600  -12.0582   21.5537 N   0  0  0  0  0  0  0  0  0  0  0  0
  -28.5503  -16.6128   18.1866 N   0  0  0  0  0  0  0  0  0  0  0  0
  -24.8542  -31.4079   23.8932 N   0  0  0  0  0  0  0  0  0  0  0  0
  -21.0475  -29.0790   18.9175 N   0  0  0  0  0  0  0  0  0  0  0  0
  -29.1137  -23.0308   18.4262 N   0  3  1  0  0  0  0  0  0  0  0  0
  -21.9466  -27.1680   15.9837 N   0  3  0  0  0  0  0  0  0  0  0  0
  -22.0242  -13.2314   19.5902 O   0  0  0  0  0  0  0  0  0  0  0  0
  -23.6055  -29.4849   23.4864 O   0  0  0  0  0  0  0  0  0  0  0  0
  -21.2830  -31.2765   21.1219 O   0  0  0  0  0  0  0  0  0  0  0  0
  -21.0233  -26.7804   18.6131 O   0  0  0  0  0  0  0  0  0  0  0  0
  -30.7334  -15.8918   17.8773 O   0  0  0  0  0  0  0  0  0  0  0  0
  -23.1994   -9.1774   26.1306 O   0  0  0  0  0  0  0  0  0  0  0  0
  -27.9092  -26.1724   19.7433 O   0  0  0  0  0  0  0  0  0  1  0  0
  -17.8762   -7.7898   26.5078 F   0  0  0  0  0  0  0  0  0  0  0  0
  -26.2405  -18.1250   17.8015 F   0  0  0  0  0  0  0  0  0  0  0  0
  -22.4373   -6.5312   26.3736 F   0  0  0  0  0  0  0  0  0  0  0  0
  1  2  1  0  0  0  0
  1  5  2  0  0  0  0
  2  6  2  0  0  0  0
  3 10  2  0  0  0  0
  3 18  1  0  0  0  0
  4 11  1  0  0  0  0
  4 18  2  0  0  0  0
  5 20  1  0  0  0  0
  6 22  1  0  0  0  0
  7 12  2  0  0  0  0
  7 21  1  0  0  0  0
  8  9  2  0  0  0  0
  8 24  1  0  0  0  0
  9 25  1  0  0  0  0
 10 26  1  0  0  0  0
 11 26  2  0  0  0  0
 12 27  1  0  0  0  0
 13 14  2  0  0  0  0
 13 28  1  0  0  0  0
 14 29  1  0  0  0  0
 15 23  1  0  0  0  0
 15 27  2  0  0  0  0
 16 24  2  0  0  0  0
 16 30  1  0  0  0  0
 17 29  2  0  0  0  0
 17 31  1  0  0  0  0
 18 32  1  0  0  0  0
 19 32  1  0  0  0  0
 19 33  2  0  0  0  0
 19 38  1  0  0  0  0
 20 22  2  0  0  0  0
 20 43  1  0  0  0  0
 21 23  2  0  0  0  0
 21 44  1  0  0  0  0
 22 55  1  0  0  0  0
 23 45  1  0  0  0  0
 24 64  1  0  0  0  0
 25 30  2  0  0  0  0
 25 74  1  0  0  0  0
 26 84  1  0  0  0  0
 27 85  1  0  0  0  0
 28 31  2  0  0  0  0
 28 84  1  0  0  0  0
 29 86  1  0  0  0  0
 30 87  1  0  0  0  0
 31 88  1  0  0  0  0
 32 68  2  0  0  0  0
 33 69  1  0  0  0  0
 33 72  1  0  0  0  0
 34 36  2  0  0  0  0
 34 46  1  0  0  0  0
 34 77  1  0  0  0  0
 35 37  2  0  0  0  0
 36 37  1  0  0  0  0
 38 73  1  0  0  0  0
 38 79  2  0  0  0  0
 39 56  1  0  0  0  0
 39 75  1  0  0  0  0
 39 80  2  0  0  0  0
 40 65  1  0  0  0  0
 40 70  1  0  0  0  0
 40 81  2  0  0  0  0
 41 66  1  0  0  0  0
 41 76  1  0  0  0  0
 41 82  2  0  0  0  0
 42 71  1  0  0  0  0
 42 74  1  0  0  0  0
 42 83  2  0  0  0  0
 43 47  1  0  0  0  0
 44 56  1  0  0  0  0
 45 70  1  0  0  0  0
 46 58  1  0  0  0  0
 47 49  1  0  0  0  0
 48 50  1  0  0  0  0
 48 52  1  0  0  0  0
 49 55  1  0  0  0  0
 50 57  1  0  0  0  0
 51 54  1  0  0  0  0
 51 58  1  0  0  0  0
 52 71  1  0  0  0  0
 53 57  1  0  0  0  0
 53 71  1  0  0  0  0
 54 77  1  0  0  0  0
 55 75  1  0  0  0  0
 56 70  1  0  0  0  0
 57 69  1  0  0  0  0
 58 85  1  0  0  0  0
 59 66  1  0  0  0  0
 60 67  1  0  0  0  0
 61 67  1  0  0  0  0
 62 67  1  0  0  0  0
 63 78  1  0  0  0  0
 64 77  1  0  0  0  0
 65 67  1  0  0  0  0
 65 76  1  0  0  0  0
 66 78  1  0  0  0  0
 68 69  1  0  0  0  0
M  CHG  2  77   1  78   1
M  ISO  4  42 100  58 101  74 100  85 101
M  END
> <Batch ID>
0050

> <Smiles>
C=CC=C1C[101CH:1]([101O:1]c2ccc3c(c2)CN(C(=O)C(NC(=O)C(C)NC)C(C)(C)C)C(C(=O)NC2CCCc4ccccc42)C3)CCN1Cc1ccc([100NH:0][100C:0](=O)N2CCCC(n3nc(-c4ccc(Oc5ccc(F)cc5F)cc4)c(C(N)=O)c3N)C2)c(F)c1

> <Shape>
0.272

> <Color>
0.102

> <Negative vol penalty>
0.000

$$$$

  -OEChem-04042322353D

 87 96  0     1  0  0  0  0  0999 V2000
  -17.1370  -29.1916   20.5095 C   0  0  0  0  0  0  0  0  0  0  0  0
  -18.2784  -28.8016   19.8162 C   0  0  0  0  0  0  0  0  0  0  0  0
  -26.0512  -11.1553   20.0557 C   0  0  0  0  0  0  0  0  0  0  0  0
  -25.8862  -13.4048   20.9214 C   0  0  0  0  0  0  0  0  0  0  0  0
  -17.2411  -30.0844   21.5753 C   0  0  0  0  0  0  0  0  0  0  0  0
  -19.5245  -29.3051   20.1878 C   0  0  0  0  0  0  0  0  0  0  0  0
  -24.8935  -26.3664   19.9796 C   0  0  0  0  0  0  0  0  0  0  0  0
  -24.7409  -10.9028   20.4618 C   0  0  0  0  0  0  0  0  0  0  0  0
  -24.5759  -13.1524   21.3275 C   0  0  0  0  0  0  0  0  0  0  0  0
  -25.9340  -26.3784   19.0518 C   0  0  0  0  0  0  0  0  0  0  0  0
  -23.1238  -10.1582   23.3350 C   0  0  0  0  0  0  0  0  0  0  0  0
  -22.8691   -8.9513   23.9863 C   0  0  0  0  0  0  0  0  0  0  0  0
  -27.0929  -28.0239   20.3817 C   0  0  0  0  0  0  0  0  0  0  0  0
  -21.3066   -8.3425   22.2470 C   0  0  0  0  0  0  0  0  0  0  0  0
  -26.6239  -12.4062   20.2855 C   0  0  0  0  0  0  0  0  0  0  0  0
  -29.1409  -11.9914   20.2808 C   0  0  0  0  0  0  0  0  0  0  0  0
  -18.4903  -30.5917   21.9662 C   0  0  0  0  0  0  0  0  0  0  0  0
  -24.9399  -27.1924   21.1118 C   0  0  0  0  0  0  0  0  0  0  0  0
  -19.6453  -30.2066   21.2590 C   0  0  0  0  0  0  0  0  0  0  0  0
  -26.0528  -28.0186   21.3238 C   0  0  0  0  0  0  0  0  0  0  0  0
  -24.0032  -11.9014   21.0977 C   0  0  0  0  0  0  0  0  0  0  0  0
  -27.0326  -27.2094   19.2512 C   0  0  0  0  0  0  0  0  0  0  0  0
  -22.4699  -10.4573   22.1397 C   0  0  0  0  0  0  0  0  0  0  0  0
  -21.9605   -8.0435   23.4423 C   0  0  0  0  0  0  0  0  0  0  0  0
  -21.5613   -9.5495   21.5957 C   0  0  0  0  0  0  0  0  0  0  0  0
  -27.9776  -12.6674   19.8668 C   0  0  0  0  0  0  0  0  0  0  0  0
  -30.1596  -12.6126   19.6004 C   0  0  0  0  0  0  0  0  0  0  0  0
  -30.3281  -25.3214   16.3838 C   0  0  0  0  0  0  0  0  0  0  0  0
  -28.6806  -21.5099   17.6644 C   0  0  0  0  0  0  0  0  0  0  0  0
  -29.3627  -19.9284   20.2288 C   0  0  0  0  0  0  0  0  0  0  0  0
  -29.3646  -22.3852   19.8835 C   0  0  0  0  0  0  0  0  0  0  0  0
  -29.4136  -26.2532   16.6696 C   0  0  0  0  0  0  0  0  0  0  0  0
  -28.8958  -20.1860   17.7200 C   0  0  0  0  0  0  0  0  0  0  0  0
  -29.2072  -21.1828   20.6774 C   0  0  0  0  0  0  0  0  0  0  0  0
  -29.1477  -22.5386   18.5681 C   0  0  0  0  0  0  0  0  0  0  0  0
  -29.6263  -19.5010   18.8286 C   0  0  0  0  0  0  0  0  0  0  0  0
  -30.2377  -23.9508   16.9554 C   0  0  0  0  0  0  0  0  0  0  0  0
  -29.2877  -10.8995   21.1984 C   0  0  0  0  0  0  0  0  0  0  0  0
  -23.1564  -29.5774   22.2230 C   0  0  0  0  0  0  0  0  0  0  0  0
  -25.1202  -29.3312   24.7930 C   0  0  0  0  0  0  0  0  0  0  0  0
  -28.1417  -28.3603   26.0479 C   0  0  0  0  0  0  0  0  0  0  0  0
  -30.5971  -18.1370   17.2618 C   0  0  0  0  0  0  0  0  0  0  0  0
  -18.5472  -31.5909   23.0945 C   0  0  0  0  0  0  0  0  0  0  0  0
  -23.8218  -27.1480   22.1170 C   0  0  0  0  0  0  0  0  0  0  0  0
  -26.1603  -28.9094   22.5334 C   0  0  0  0  0  0  0  0  0  0  0  0
  -19.9500  -31.7878   23.6635 C   0  0  0  0  0  0  0  0  0  0  0  0
  -31.0748  -14.9874   15.5590 C   0  0  0  0  0  0  0  0  0  0  0  0
  -20.9638  -31.9599   22.5369 C   0  0  0  0  0  0  0  0  0  0  0  0
  -30.4063  -13.9812   16.4951 C   0  0  0  0  0  0  0  0  0  0  0  0
  -30.3450  -16.3269   15.5645 C   0  0  0  0  0  0  0  0  0  0  0  0
  -28.6596  -24.9201   18.6281 C   0  0  0  0  0  0  0  0  0  0  0  0
  -29.5237  -15.9191   17.8691 C   0  0  0  0  0  0  0  0  0  0  0  0
  -21.0178  -30.7117   21.6478 C   0  0  1  0  0  0  0  0  0  0  0  0
  -28.2986  -26.0165   17.6325 C   0  0  1  0  0  0  0  0  0  1  0  0
  -23.7351  -28.4096   22.9705 C   0  0  1  0  0  0  0  0  0  0  0  0
  -30.2497  -14.5634   17.9111 C   0  0  1  0  0  0  0  0  0  0  0  0
  -28.4054  -19.2770   16.6251 C   0  0  0  0  0  0  0  0  0  0  0  0
  -28.9500  -21.4364   22.1406 C   0  0  0  0  0  0  0  0  0  0  0  0
  -29.4705  -28.3225   28.1763 C   0  0  0  0  0  0  0  0  0  0  0  0
  -25.6810  -32.3154   24.4930 C   0  0  0  0  0  0  0  0  0  0  0  0
  -27.6735  -32.0195   25.9799 C   0  0  0  0  0  0  0  0  0  0  0  0
  -25.3861  -31.5414   26.8527 C   0  0  0  0  0  0  0  0  0  0  0  0
  -28.3086  -25.4055   26.0275 C   0  0  0  0  0  0  0  0  0  0  0  0
  -26.4379  -29.9488   25.1946 C   0  0  1  0  0  0  0  0  0  0  0  0
  -28.5084  -27.5561   27.2821 C   0  0  2  0  0  0  0  0  0  0  0  0
  -26.2920  -31.4411   25.6062 C   0  0  0  0  0  0  0  0  0  0  0  0
  -28.2324  -13.6434   18.9913 N   0  0  0  0  0  0  0  0  0  0  0  0
  -30.3865  -18.4903   18.5817 N   0  0  0  0  0  0  0  0  0  0  0  0
  -29.5676  -13.5853   18.8497 N   0  0  0  0  0  0  0  0  0  0  0  0
  -29.3327  -23.7801   18.0041 N   0  0  0  0  0  0  0  0  0  0  0  0
  -25.0387  -28.8350   23.4842 N   0  0  0  0  0  0  0  0  0  0  0  0
  -30.1830  -16.8341   16.9279 N   0  0  0  0  0  0  0  0  0  0  0  0
  -31.4950  -12.4163   19.5772 N   0  0  0  0  0  0  0  0  0  0  0  0
  -29.4894  -11.1890   22.5548 N   0  0  0  0  0  0  0  0  0  0  0  0
  -21.7790  -29.6638   22.2935 N   0  0  0  0  0  0  0  0  0  0  0  0
  -26.9887  -29.0920   26.2391 N   0  0  0  0  0  0  0  0  0  0  0  0
  -29.1534  -26.2710   26.8902 N   0  3  0  0  0  0  0  0  0  0  0  0
  -30.9457  -23.0683   16.4699 O   0  0  0  0  0  0  0  0  0  0  0  0
  -29.2577   -9.7026   20.8240 O   0  0  0  0  0  0  0  0  0  0  0  0
  -23.9041  -30.3443   21.6276 O   0  0  0  0  0  0  0  0  0  0  0  0
  -24.1996  -29.2842   25.6127 O   0  0  0  0  0  0  0  0  0  0  0  0
  -28.8131  -28.3441   25.0186 O   0  0  0  0  0  0  0  0  0  0  0  0
  -31.1050  -18.8854   16.4231 O   0  0  0  0  0  0  0  0  0  0  0  0
  -22.7245  -11.6555   21.4939 O   0  0  0  0  0  0  0  0  0  0  0  0
  -28.0493  -27.2236   18.3468 O   0  0  0  0  0  0  0  0  0  1  0  0
  -21.7171   -6.8839   24.0670 F   0  0  0  0  0  0  0  0  0  0  0  0
  -20.9309   -9.8307   20.4471 F   0  0  0  0  0  0  0  0  0  0  0  0
  1  2  1  0  0  0  0
  1  5  2  0  0  0  0
  2  6  2  0  0  0  0
  3  8  2  0  0  0  0
  3 15  1  0  0  0  0
  4  9  1  0  0  0  0
  4 15  2  0  0  0  0
  5 17  1  0  0  0  0
  6 19  1  0  0  0  0
  7 10  2  0  0  0  0
  7 18  1  0  0  0  0
  8 21  1  0  0  0  0
  9 21  2  0  0  0  0
 10 22  1  0  0  0  0
 11 12  2  0  0  0  0
 11 23  1  0  0  0  0
 12 24  1  0  0  0  0
 13 20  1  0  0  0  0
 13 22  2  0  0  0  0
 14 24  2  0  0  0  0
 14 25  1  0  0  0  0
 15 26  1  0  0  0  0
 16 26  1  0  0  0  0
 16 27  2  0  0  0  0
 16 38  1  0  0  0  0
 17 19  2  0  0  0  0
 17 43  1  0  0  0  0
 18 20  2  0  0  0  0
 18 44  1  0  0  0  0
 19 53  1  0  0  0  0
 20 45  1  0  0  0  0
 21 84  1  0  0  0  0
 22 85  1  0  0  0  0
 23 25  2  0  0  0  0
 23 84  1  0  0  0  0
 24 86  1  0  0  0  0
 25 87  1  0  0  0  0
 26 67  2  0  0  0  0
 27 69  1  0  0  0  0
 27 73  1  0  0  0  0
 28 32  2  0  0  0  0
 28 37  1  0  0  0  0
 29 33  2  0  0  0  0
 29 35  1  0  0  0  0
 30 34  2  0  0  0  0
 30 36  1  0  0  0  0
 31 34  1  0  0  0  0
 31 35  2  0  0  0  0
 32 54  1  0  0  0  0
 33 36  1  0  0  0  0
 33 57  1  0  0  0  0
 34 58  1  0  0  0  0
 35 70  1  0  0  0  0
 36 68  2  0  0  0  0
 37 70  1  0  0  0  0
 37 78  2  0  0  0  0
 38 74  1  0  0  0  0
 38 79  2  0  0  0  0
 39 55  1  0  0  0  0
 39 75  1  0  0  0  0
 39 80  2  0  0  0  0
 40 64  1  0  0  0  0
 40 71  1  0  0  0  0
 40 81  2  0  0  0  0
 41 65  1  0  0  0  0
 41 76  1  0  0  0  0
 41 82  2  0  0  0  0
 42 68  1  0  0  0  0
 42 72  1  0  0  0  0
 42 83  2  0  0  0  0
 43 46  1  0  0  0  0
 44 55  1  0  0  0  0
 45 71  1  0  0  0  0
 46 48  1  0  0  0  0
 47 49  1  0  0  0  0
 47 50  1  0  0  0  0
 48 53  1  0  0  0  0
 49 56  1  0  0  0  0
 50 72  1  0  0  0  0
 51 54  1  0  0  0  0
 51 70  1  0  0  0  0
 52 56  1  0  0  0  0
 52 72  1  0  0  0  0
 53 75  1  0  0  0  0
 54 85  1  0  0  0  0
 55 71  1  0  0  0  0
 56 69  1  0  0  0  0
 59 65  1  0  0  0  0
 60 66  1  0  0  0  0
 61 66  1  0  0  0  0
 62 66  1  0  0  0  0
 63 77  1  0  0  0  0
 64 66  1  0  0  0  0
 64 76  1  0  0  0  0
 65 77  1  0  0  0  0
 67 69  1  0  0  0  0
M  CHG  1  77   1
M  ISO  4  42 100  54 101  68 100  85 101
M  END
> <Batch ID>
0050

> <Smiles>
CNC(C)C(=O)NC(C(=O)N1Cc2cc([101O:1][101C:1]3=CCC(=O)N(c4cc(C)cc(=[100N:0][100C:0](=O)N5CCCC(n6nc(-c7ccc(Oc8ccc(F)cc8F)cc7)c(C(N)=O)c6N)C5)c(C)c4)C3)ccc2CC1C(=O)NC1CCCc2ccccc21)C(C)(C)C

> <Shape>
0.285

> <Color>
0.070

> <Negative vol penalty>
0.000

$$$$

  -OEChem-04042322353D

 84 92  0     1  0  0  0  0  0999 V2000
  -29.5588  -31.3778   26.5094 C   0  0  0  0  0  0  0  0  0  0  0  0
  -29.2229  -30.3212   25.6691 C   0  0  0  0  0  0  0  0  0  0  0  0
  -23.3953   -9.6606   19.9547 C   0  0  0  0  0  0  0  0  0  0  0  0
  -24.3588   -9.3970   22.1545 C   0  0  0  0  0  0  0  0  0  0  0  0
  -28.5662  -32.2387   26.9759 C   0  0  0  0  0  0  0  0  0  0  0  0
  -27.8939  -30.1242   25.2956 C   0  0  0  0  0  0  0  0  0  0  0  0
  -27.3894  -29.1473   20.3523 C   0  0  0  0  0  0  0  0  0  0  0  0
  -26.6741  -20.8182   17.5972 C   0  0  0  0  0  0  0  0  0  0  0  0
  -23.0160   -8.3183   19.9599 C   0  0  0  0  0  0  0  0  0  0  0  0
  -23.9795   -8.0547   22.1598 C   0  0  0  0  0  0  0  0  0  0  0  0
  -27.6937  -27.8558   19.9243 C   0  0  0  0  0  0  0  0  0  0  0  0
  -26.7262  -19.5309   18.1317 C   0  0  0  0  0  0  0  0  0  0  0  0
  -21.1615   -6.2665   22.6903 C   0  0  0  0  0  0  0  0  0  0  0  0
  -20.5680   -5.7669   23.8495 C   0  0  0  0  0  0  0  0  0  0  0  0
  -25.3421  -27.3187   19.8929 C   0  0  0  0  0  0  0  0  0  0  0  0
  -26.4306  -18.6012   15.9214 C   0  0  0  0  0  0  0  0  0  0  0  0
  -22.3505   -4.1504   24.0655 C   0  0  0  0  0  0  0  0  0  0  0  0
  -24.0667  -10.1999   21.0519 C   0  0  0  0  0  0  0  0  0  0  0  0
  -23.7082  -12.6842   21.5076 C   0  0  0  0  0  0  0  0  0  0  0  0
  -27.2257  -32.0579   26.6002 C   0  0  0  0  0  0  0  0  0  0  0  0
  -26.0576  -29.5315   20.5648 C   0  0  0  0  0  0  0  0  0  0  0  0
  -26.8823  -30.9827   25.7586 C   0  0  0  0  0  0  0  0  0  0  0  0
  -25.0235  -28.6165   20.3213 C   0  0  0  0  0  0  0  0  0  0  0  0
  -26.5002  -20.9971   16.2248 C   0  0  0  0  0  0  0  0  0  0  0  0
  -26.3784  -19.8886   15.3869 C   0  0  0  0  0  0  0  0  0  0  0  0
  -23.3081   -7.5154   21.0625 C   0  0  0  0  0  0  0  0  0  0  0  0
  -26.6701  -26.9404   19.6973 C   0  0  0  0  0  0  0  0  0  0  0  0
  -26.6045  -18.4224   17.2939 C   0  0  0  0  0  0  0  0  0  0  0  0
  -22.3495   -5.7080   22.2187 C   0  0  0  0  0  0  0  0  0  0  0  0
  -21.1625   -4.7089   24.5372 C   0  0  0  0  0  0  0  0  0  0  0  0
  -22.9440   -4.6500   22.9063 C   0  0  0  0  0  0  0  0  0  0  0  0
  -24.4593  -11.5863   21.0468 C   0  0  0  0  0  0  0  0  0  0  0  0
  -24.5172  -13.7715   21.2844 C   0  0  0  0  0  0  0  0  0  0  0  0
  -22.3966  -12.7181   22.0856 C   0  0  0  0  0  0  0  0  0  0  0  0
  -24.3809  -30.5160   23.0793 C   0  0  0  0  0  0  0  0  0  0  0  0
  -22.0577  -30.9703   20.8615 C   0  0  0  0  0  0  0  0  0  0  0  0
  -26.6905  -24.0630   17.5209 C   0  0  0  0  0  0  0  0  0  0  0  0
  -20.7656  -30.1537   17.8103 C   0  0  0  0  0  0  0  0  0  0  0  0
  -27.9423  -16.5873   17.8869 C   0  0  0  0  0  0  0  0  0  0  0  0
  -26.1812  -32.9861   27.1678 C   0  0  0  0  0  0  0  0  0  0  0  0
  -25.7445  -30.9366   21.0010 C   0  0  0  0  0  0  0  0  0  0  0  0
  -23.5761  -28.9855   20.5149 C   0  0  0  0  0  0  0  0  0  0  0  0
  -24.8493  -32.9318   26.4240 C   0  0  0  0  0  0  0  0  0  0  0  0
  -29.3920  -14.0546   19.9945 C   0  0  0  0  0  0  0  0  0  0  0  0
  -24.4302  -31.4848   26.1844 C   0  0  0  0  0  0  0  0  0  0  0  0
  -28.1768  -13.2545   20.4626 C   0  0  0  0  0  0  0  0  0  0  0  0
  -29.2097  -14.5654   18.5687 C   0  0  0  0  0  0  0  0  0  0  0  0
  -26.7441  -14.5718   18.8393 C   0  0  0  0  0  0  0  0  0  0  0  0
  -25.4553  -30.7509   25.3112 C   0  0  1  0  0  0  0  0  0  0  0  0
  -24.3840  -31.0623   21.6796 C   0  0  1  0  0  0  0  0  0  0  0  0
  -26.8800  -14.0646   20.2853 C   0  0  1  0  0  0  0  0  0  0  0  0
  -26.1904  -20.0556   13.9149 C   0  0  0  0  0  0  0  0  0  0  0  0
  -18.8374  -30.6632   16.2872 C   0  0  0  0  0  0  0  0  0  0  0  0
  -20.2291  -29.2648   22.6100 C   0  0  0  0  0  0  0  0  0  0  0  0
  -18.6954  -29.0202   20.6463 C   0  0  0  0  0  0  0  0  0  0  0  0
  -19.1348  -31.2788   21.6096 C   0  0  0  0  0  0  0  0  0  0  0  0
  -24.4399  -23.4756   16.6032 C   0  0  0  0  0  0  0  0  0  0  0  0
  -22.5609  -31.1600   15.6835 C   0  0  0  0  0  0  0  0  0  0  0  0
  -26.4472  -22.3923   15.6730 C   0  0  0  0  0  0  0  0  0  0  0  0
  -25.9952  -25.0222   18.4640 C   0  0  0  0  0  0  0  0  0  1  0  0
  -20.9505  -30.1222   20.2840 C   0  0  1  0  0  0  0  0  0  0  0  0
  -20.2681  -31.0153   16.6637 C   0  0  2  0  0  0  0  0  0  0  0  0
  -19.7797  -29.9136   21.2856 C   0  0  0  0  0  0  0  0  0  0  0  0
  -25.6536  -11.9435   20.5671 N   0  0  0  0  0  0  0  0  0  0  0  0
  -25.6590  -13.2781   20.7251 N   0  0  0  0  0  0  0  0  0  0  0  0
  -23.3214  -30.3692   20.9484 N   0  0  0  0  0  0  0  0  0  0  0  0
  -27.9518  -15.2976   18.4279 N   0  0  0  0  0  0  0  0  0  0  0  0
  -24.3560  -15.0920   21.5140 N   0  0  0  0  0  0  0  0  0  0  0  0
  -21.7044  -11.5096   22.2432 N   0  0  0  0  0  0  0  0  0  0  0  0
  -25.2934  -31.1219   23.9218 N   0  0  0  0  0  0  0  0  0  0  0  0
  -20.5589  -30.7596   19.0315 N   0  0  0  0  0  0  0  0  0  0  0  0
  -25.8909  -23.3400   16.6352 N   0  0  0  0  0  0  0  0  0  0  0  0
  -21.1300  -30.8272   15.4626 N   0  3  0  0  0  0  0  0  0  0  0  0
  -21.8478  -13.7902   22.4365 O   0  0  0  0  0  0  0  0  0  0  0  0
  -23.6069  -29.6128   23.3736 O   0  0  0  0  0  0  0  0  0  0  0  0
  -21.8121  -32.1261   21.2157 O   0  0  0  0  0  0  0  0  0  0  0  0
  -27.9207  -23.9692   17.5710 O   0  0  0  0  0  0  0  0  0  0  0  0
  -21.2822  -29.0516   17.6398 O   0  0  0  0  0  0  0  0  0  0  0  0
  -28.9473  -17.1840   17.5025 O   0  0  0  0  0  0  0  0  0  0  0  0
  -22.9379   -6.2056   21.0681 O   0  0  0  0  0  0  0  0  0  0  0  0
  -26.6562  -17.1316   17.8297 O   0  0  0  0  0  0  0  0  0  0  0  0
  -26.9643  -25.6790   19.2800 O   0  0  0  0  0  0  0  0  0  1  0  0
  -20.5933   -4.2303   25.6512 F   0  0  0  0  0  0  0  0  0  0  0  0
  -24.0860   -4.1102   22.4587 F   0  0  0  0  0  0  0  0  0  0  0  0
  1  2  1  0  0  0  0
  1  5  2  0  0  0  0
  2  6  2  0  0  0  0
  3  9  2  0  0  0  0
  3 18  1  0  0  0  0
  4 10  1  0  0  0  0
  4 18  2  0  0  0  0
  5 20  1  0  0  0  0
  6 22  1  0  0  0  0
  7 11  2  0  0  0  0
  7 21  1  0  0  0  0
  8 12  2  0  0  0  0
  8 24  1  0  0  0  0
  9 26  1  0  0  0  0
 10 26  2  0  0  0  0
 11 27  1  0  0  0  0
 12 28  1  0  0  0  0
 13 14  2  0  0  0  0
 13 29  1  0  0  0  0
 14 30  1  0  0  0  0
 15 23  1  0  0  0  0
 15 27  2  0  0  0  0
 16 25  1  0  0  0  0
 16 28  2  0  0  0  0
 17 30  2  0  0  0  0
 17 31  1  0  0  0  0
 18 32  1  0  0  0  0
 19 32  1  0  0  0  0
 19 33  2  0  0  0  0
 19 34  1  0  0  0  0
 20 22  2  0  0  0  0
 20 40  1  0  0  0  0
 21 23  2  0  0  0  0
 21 41  1  0  0  0  0
 22 49  1  0  0  0  0
 23 42  1  0  0  0  0
 24 25  2  0  0  0  0
 24 59  1  0  0  0  0
 25 52  1  0  0  0  0
 26 80  1  0  0  0  0
 27 82  1  0  0  0  0
 28 81  1  0  0  0  0
 29 31  2  0  0  0  0
 29 80  1  0  0  0  0
 30 83  1  0  0  0  0
 31 84  1  0  0  0  0
 32 64  2  0  0  0  0
 33 65  1  0  0  0  0
 33 68  1  0  0  0  0
 34 69  1  0  0  0  0
 34 74  2  0  0  0  0
 35 50  1  0  0  0  0
 35 70  1  0  0  0  0
 35 75  2  0  0  0  0
 36 61  1  0  0  0  0
 36 66  1  0  0  0  0
 36 76  2  0  0  0  0
 37 60  1  0  0  0  0
 37 72  1  0  0  0  0
 37 77  2  0  0  0  0
 38 62  1  0  0  0  0
 38 71  1  0  0  0  0
 38 78  2  0  0  0  0
 39 67  1  0  0  0  0
 39 79  2  0  0  0  0
 39 81  1  0  0  0  0
 40 43  1  0  0  0  0
 41 50  1  0  0  0  0
 42 66  1  0  0  0  0
 43 45  1  0  0  0  0
 44 46  1  0  0  0  0
 44 47  1  0  0  0  0
 45 49  1  0  0  0  0
 46 51  1  0  0  0  0
 47 67  1  0  0  0  0
 48 51  1  0  0  0  0
 48 67  1  0  0  0  0
 49 70  1  0  0  0  0
 50 66  1  0  0  0  0
 51 65  1  0  0  0  0
 53 62  1  0  0  0  0
 54 63  1  0  0  0  0
 55 63  1  0  0  0  0
 56 63  1  0  0  0  0
 57 72  1  0  0  0  0
 58 73  1  0  0  0  0
 59 72  1  0  0  0  0
 60 82  1  0  0  0  0
 61 63  1  0  0  0  0
 61 71  1  0  0  0  0
 62 73  1  0  0  0  0
 64 65  1  0  0  0  0
M  CHG  1  73   1
M  ISO  4  39 100  60 101  81 100  82 101
M  END
> <Batch ID>
0050

> <Smiles>
CNC(C)C(=O)NC(C(=O)N1Cc2cc([101O:1][101CH2:1]C(=O)N(C)Cc3ccc([100O:0][100C:0](=O)N4CCCC(n5nc(-c6ccc(Oc7ccc(F)cc7F)cc6)c(C(N)=O)c5N)C4)cc3C)ccc2CC1C(=O)NC1CCCc2ccccc21)C(C)(C)C

> <Shape>
0.286

> <Color>
0.127

> <Negative vol penalty>
0.000

$$$$

  -OEChem-04042322353D

 85 93  0     1  0  0  0  0  0999 V2000
  -39.7821  -28.1314   23.0173 C   0  0  0  0  0  0  0  0  0  0  0  0
  -38.7971  -27.5748   22.2077 C   0  0  0  0  0  0  0  0  0  0  0  0
  -23.0830   -9.8243   20.4836 C   0  0  0  0  0  0  0  0  0  0  0  0
  -23.9577  -10.0902   22.7199 C   0  0  0  0  0  0  0  0  0  0  0  0
  -40.9043  -27.3803   23.3644 C   0  0  0  0  0  0  0  0  0  0  0  0
  -38.9344  -26.2669   21.7438 C   0  0  0  0  0  0  0  0  0  0  0  0
  -34.6545  -23.5943   22.1732 C   0  0  0  0  0  0  0  0  0  0  0  0
  -29.3231  -18.6677   20.2149 C   0  0  0  0  0  0  0  0  0  0  0  0
  -29.0175  -19.6135   19.2364 C   0  0  0  0  0  0  0  0  0  0  0  0
  -22.3566   -8.7089   20.9003 C   0  0  0  0  0  0  0  0  0  0  0  0
  -23.2312   -8.9748   23.1367 C   0  0  0  0  0  0  0  0  0  0  0  0
  -33.6637  -23.8211   21.2190 C   0  0  0  0  0  0  0  0  0  0  0  0
  -19.4880   -8.0897   22.5799 C   0  0  0  0  0  0  0  0  0  0  0  0
  -18.1585   -7.9918   22.1697 C   0  0  0  0  0  0  0  0  0  0  0  0
  -34.3517  -21.8319   20.0405 C   0  0  0  0  0  0  0  0  0  0  0  0
  -31.4868  -18.3158   19.1992 C   0  0  0  0  0  0  0  0  0  0  0  0
  -18.6571   -5.9096   21.0504 C   0  0  0  0  0  0  0  0  0  0  0  0
  -23.8837  -10.5149   21.3934 C   0  0  0  0  0  0  0  0  0  0  0  0
  -24.2106  -13.0092   20.9699 C   0  0  0  0  0  0  0  0  0  0  0  0
  -41.0507  -26.0593   22.9124 C   0  0  0  0  0  0  0  0  0  0  0  0
  -35.5099  -22.4886   22.0622 C   0  0  0  0  0  0  0  0  0  0  0  0
  -40.0602  -25.4979   22.0841 C   0  0  0  0  0  0  0  0  0  0  0  0
  -35.3509  -21.5918   20.9960 C   0  0  0  0  0  0  0  0  0  0  0  0
  -30.5578  -18.0188   20.1964 C   0  0  0  0  0  0  0  0  0  0  0  0
  -29.9465  -19.9104   18.2392 C   0  0  0  0  0  0  0  0  0  0  0  0
  -22.4306   -8.2841   22.2269 C   0  0  0  0  0  0  0  0  0  0  0  0
  -33.5140  -22.9415   20.1508 C   0  0  0  0  0  0  0  0  0  0  0  0
  -20.4022   -7.0976   22.2253 C   0  0  0  0  0  0  0  0  0  0  0  0
  -17.7430   -6.9017   21.4050 C   0  0  0  0  0  0  0  0  0  0  0  0
  -31.1811  -19.2616   18.2205 C   0  0  0  0  0  0  0  0  0  0  0  0
  -19.9867   -6.0075   21.4606 C   0  0  0  0  0  0  0  0  0  0  0  0
  -24.6348  -11.6669   20.9634 C   0  0  0  0  0  0  0  0  0  0  0  0
  -25.2805  -13.7098   20.4690 C   0  0  0  0  0  0  0  0  0  0  0  0
  -22.9612  -13.5724   21.3911 C   0  0  0  0  0  0  0  0  0  0  0  0
  -38.6456  -22.1050   21.7102 C   0  0  0  0  0  0  0  0  0  0  0  0
  -37.9106  -18.9682   22.0882 C   0  0  0  0  0  0  0  0  0  0  0  0
  -29.7818  -23.1968   18.2037 C   0  0  0  0  0  0  0  0  0  0  0  0
  -35.5707  -16.4938   21.8672 C   0  0  0  0  0  0  0  0  0  0  0  0
  -30.7634  -14.7303   20.2629 C   0  0  0  0  0  0  0  0  0  0  0  0
  -42.3039  -25.3027   23.2751 C   0  0  0  0  0  0  0  0  0  0  0  0
  -36.5563  -22.2433   23.1144 C   0  0  0  0  0  0  0  0  0  0  0  0
  -36.2303  -20.3788   20.8423 C   0  0  0  0  0  0  0  0  0  0  0  0
  -42.1931  -23.7970   23.0497 C   0  0  0  0  0  0  0  0  0  0  0  0
  -29.5147  -12.0926   18.2234 C   0  0  0  0  0  0  0  0  0  0  0  0
  -41.5816  -23.5054   21.6830 C   0  0  0  0  0  0  0  0  0  0  0  0
  -28.1019  -11.8535   18.7590 C   0  0  0  0  0  0  0  0  0  0  0  0
  -30.4905  -12.4463   19.3435 C   0  0  0  0  0  0  0  0  0  0  0  0
  -28.6588  -13.3350   20.7322 C   0  0  0  0  0  0  0  0  0  0  0  0
  -40.1611  -24.0741   21.5814 C   0  0  1  0  0  0  0  0  0  0  0  0
  -37.7052  -21.3687   22.6220 C   0  0  1  0  0  0  0  0  0  0  0  0
  -27.6270  -13.0300   19.6328 C   0  0  2  0  0  0  0  0  0  0  0  0
  -35.2764  -14.0249   22.2069 C   0  0  0  0  0  0  0  0  0  0  0  0
  -39.3967  -18.4343   19.4774 C   0  0  0  0  0  0  0  0  0  0  0  0
  -38.2805  -16.1954   19.3809 C   0  0  0  0  0  0  0  0  0  0  0  0
  -39.8071  -16.7454   21.2756 C   0  0  0  0  0  0  0  0  0  0  0  0
  -33.5052  -16.9084   23.9459 C   0  0  0  0  0  0  0  0  0  0  0  0
  -30.8845  -17.0074   21.2424 C   0  0  0  0  0  0  0  0  0  0  0  0
  -29.6143  -20.9281   17.1864 C   0  0  0  0  0  0  0  0  0  0  0  0
  -30.7189  -24.3933   18.2558 C   0  0  0  0  0  0  0  0  0  0  0  0
  -31.7234  -24.3119   19.3948 C   0  0  0  0  0  0  0  0  0  1  0  0
  -37.5310  -17.8398   21.1600 C   0  0  1  0  0  0  0  0  0  0  0  0
  -35.1636  -15.4026   22.8409 C   0  0  2  0  0  0  0  0  0  0  0  0
  -38.7384  -17.3275   20.3250 C   0  0  0  0  0  0  0  0  0  0  0  0
  -25.8772  -11.5210   20.4953 N   0  0  0  0  0  0  0  0  0  0  0  0
  -26.2429  -12.7807   20.2030 N   0  0  0  0  0  0  0  0  0  0  0  0
  -37.2429  -20.1856   21.8934 N   0  0  0  0  0  0  0  0  0  0  0  0
  -29.9820  -13.5702   20.1334 N   0  0  0  0  0  0  0  0  0  0  0  0
  -25.4826  -15.0238   20.2346 N   0  0  0  0  0  0  0  0  0  0  0  0
  -21.9706  -12.7100   21.8803 N   0  0  0  0  0  0  0  0  0  0  0  0
  -39.2243  -23.2220   22.2819 N   0  0  0  0  0  0  0  0  0  0  0  0
  -30.2978  -22.1815   17.4111 N   0  0  0  0  0  0  0  0  0  0  0  0
  -36.9047  -16.8190   21.9933 N   0  0  0  0  0  0  0  0  0  0  0  0
  -30.2044  -15.7503   21.0231 N   0  0  0  0  0  0  0  0  0  0  0  0
  -33.7545  -15.6024   23.2833 N   0  3  0  0  0  0  0  0  0  0  0  0
  -22.7240  -14.8021   21.3200 O   0  0  0  0  0  0  0  0  0  0  0  0
  -38.8334  -21.6895   20.5728 O   0  0  0  0  0  0  0  0  0  0  0  0
  -38.7629  -18.7745   22.9587 O   0  0  0  0  0  0  0  0  0  0  0  0
  -28.7075  -23.1561   18.7971 O   0  0  0  0  0  0  0  0  0  0  0  0
  -34.7849  -17.0038   21.0717 O   0  0  0  0  0  0  0  0  0  0  0  0
  -31.8744  -14.8502   19.7355 O   0  0  0  0  0  0  0  0  0  0  0  0
  -21.7217   -7.1959   22.6339 O   0  0  0  0  0  0  0  0  0  0  0  0
  -32.5482  -23.1609   19.2176 O   0  0  0  0  0  0  0  0  0  1  0  0
  -16.4658   -6.8070   21.0125 F   0  0  0  0  0  0  0  0  0  0  0  0
  -32.0797  -19.5397   17.2656 F   0  0  0  0  0  0  0  0  0  0  0  0
  -20.8601   -5.0507   21.1178 F   0  0  0  0  0  0  0  0  0  0  0  0
  1  2  1  0  0  0  0
  1  5  2  0  0  0  0
  2  6  2  0  0  0  0
  3 10  2  0  0  0  0
  3 18  1  0  0  0  0
  4 11  1  0  0  0  0
  4 18  2  0  0  0  0
  5 20  1  0  0  0  0
  6 22  1  0  0  0  0
  7 12  2  0  0  0  0
  7 21  1  0  0  0  0
  8  9  2  0  0  0  0
  8 24  1  0  0  0  0
  9 25  1  0  0  0  0
 10 26  1  0  0  0  0
 11 26  2  0  0  0  0
 12 27  1  0  0  0  0
 13 14  2  0  0  0  0
 13 28  1  0  0  0  0
 14 29  1  0  0  0  0
 15 23  1  0  0  0  0
 15 27  2  0  0  0  0
 16 24  2  0  0  0  0
 16 30  1  0  0  0  0
 17 29  2  0  0  0  0
 17 31  1  0  0  0  0
 18 32  1  0  0  0  0
 19 32  1  0  0  0  0
 19 33  2  0  0  0  0
 19 34  1  0  0  0  0
 20 22  2  0  0  0  0
 20 40  1  0  0  0  0
 21 23  2  0  0  0  0
 21 41  1  0  0  0  0
 22 49  1  0  0  0  0
 23 42  1  0  0  0  0
 24 57  1  0  0  0  0
 25 30  2  0  0  0  0
 25 58  1  0  0  0  0
 26 81  1  0  0  0  0
 27 82  1  0  0  0  0
 28 31  2  0  0  0  0
 28 81  1  0  0  0  0
 29 83  1  0  0  0  0
 30 84  1  0  0  0  0
 31 85  1  0  0  0  0
 32 64  2  0  0  0  0
 33 65  1  0  0  0  0
 33 68  1  0  0  0  0
 34 69  1  0  0  0  0
 34 75  2  0  0  0  0
 35 50  1  0  0  0  0
 35 70  1  0  0  0  0
 35 76  2  0  0  0  0
 36 61  1  0  0  0  0
 36 66  1  0  0  0  0
 36 77  2  0  0  0  0
 37 59  1  0  0  0  0
 37 71  1  0  0  0  0
 37 78  2  0  0  0  0
 38 62  1  0  0  0  0
 38 72  1  0  0  0  0
 38 79  2  0  0  0  0
 39 67  1  0  0  0  0
 39 73  1  0  0  0  0
 39 80  2  0  0  0  0
 40 43  1  0  0  0  0
 41 50  1  0  0  0  0
 42 66  1  0  0  0  0
 43 45  1  0  0  0  0
 44 46  1  0  0  0  0
 44 47  1  0  0  0  0
 45 49  1  0  0  0  0
 46 51  1  0  0  0  0
 47 67  1  0  0  0  0
 48 51  1  0  0  0  0
 48 67  1  0  0  0  0
 49 70  1  0  0  0  0
 50 66  1  0  0  0  0
 51 65  1  0  0  0  0
 52 62  1  0  0  0  0
 53 63  1  0  0  0  0
 54 63  1  0  0  0  0
 55 63  1  0  0  0  0
 56 74  1  0  0  0  0
 57 73  1  0  0  0  0
 58 71  1  0  0  0  0
 59 60  1  0  0  0  0
 60 82  1  0  0  0  0
 61 63  1  0  0  0  0
 61 72  1  0  0  0  0
 62 74  1  0  0  0  0
 64 65  1  0  0  0  0
M  CHG  1  74   1
M  ISO  4  39 100  60 101  73 100  82 101
M  END
> <Batch ID>
0050

> <Smiles>
CNC(C)C(=O)NC(C(=O)N1Cc2cc([101O:1][101CH2:1]CC(=O)NCc3ccc(C[100NH:0][100C:0](=O)N4CCCC(n5nc(-c6ccc(Oc7ccc(F)cc7F)cc6)c(C(N)=O)c5N)C4)cc3F)ccc2CC1C(=O)NC1CCCc2ccccc21)C(C)(C)C

> <Shape>
0.189

> <Color>
0.191

> <Negative vol penalty>
0.000

$$$$

  -OEChem-04042322353D

 86 95  0     1  0  0  0  0  0999 V2000
  -29.1501  -22.6858   20.3349 C   0  0  0  0  0  0  0  0  0  0  0  0
  -27.9168  -33.6966   25.7845 C   0  0  0  0  0  0  0  0  0  0  0  0
  -28.1100  -32.4861   25.1265 C   0  0  0  0  0  0  0  0  0  0  0  0
  -22.8730  -14.9361   23.0490 C   0  0  0  0  0  0  0  0  0  0  0  0
  -24.4993  -13.7993   24.4274 C   0  0  0  0  0  0  0  0  0  0  0  0
  -26.6439  -34.0516   26.2291 C   0  0  0  0  0  0  0  0  0  0  0  0
  -27.0305  -31.6295   24.9137 C   0  0  0  0  0  0  0  0  0  0  0  0
  -26.9425  -29.7456   20.2139 C   0  0  0  0  0  0  0  0  0  0  0  0
  -30.6755  -20.3629   17.8375 C   0  0  0  0  0  0  0  0  0  0  0  0
  -28.2918  -20.5631   17.4985 C   0  0  0  0  0  0  0  0  0  0  0  0
  -30.5123  -19.0245   18.1947 C   0  0  0  0  0  0  0  0  0  0  0  0
  -28.1285  -19.2246   17.8557 C   0  0  0  0  0  0  0  0  0  0  0  0
  -22.1937  -15.3525   24.1938 C   0  0  0  0  0  0  0  0  0  0  0  0
  -23.8200  -14.2158   25.5723 C   0  0  0  0  0  0  0  0  0  0  0  0
  -27.8193  -28.6994   19.9308 C   0  0  0  0  0  0  0  0  0  0  0  0
  -21.0582  -13.3088   27.2988 C   0  0  0  0  0  0  0  0  0  0  0  0
  -20.8429  -12.3657   28.3037 C   0  0  0  0  0  0  0  0  0  0  0  0
  -26.0143  -27.1218   20.1999 C   0  0  0  0  0  0  0  0  0  0  0  0
  -22.0959  -13.7311   29.8537 C   0  0  0  0  0  0  0  0  0  0  0  0
  -24.0258  -14.1594   23.1658 C   0  0  0  0  0  0  0  0  0  0  0  0
  -24.2233  -12.9312   20.9387 C   0  0  0  0  0  0  0  0  0  0  0  0
  -25.5465  -33.2032   26.0131 C   0  0  0  0  0  0  0  0  0  0  0  0
  -25.5951  -29.4865   20.5033 C   0  0  0  0  0  0  0  0  0  0  0  0
  -25.7420  -31.9729   25.3570 C   0  0  0  0  0  0  0  0  0  0  0  0
  -25.1218  -28.1668   20.4839 C   0  0  0  0  0  0  0  0  0  0  0  0
  -29.5652  -21.1322   17.4894 C   0  0  0  0  0  0  0  0  0  0  0  0
  -29.2388  -18.4553   18.2038 C   0  0  0  0  0  0  0  0  0  0  0  0
  -22.6672  -14.9924   25.4555 C   0  0  0  0  0  0  0  0  0  0  0  0
  -27.3560  -27.3870   19.9266 C   0  0  0  0  0  0  0  0  0  0  0  0
  -21.7924  -14.4631   27.5713 C   0  0  0  0  0  0  0  0  0  0  0  0
  -21.3617  -12.5768   29.5811 C   0  0  0  0  0  0  0  0  0  0  0  0
  -22.3112  -14.6742   28.8488 C   0  0  0  0  0  0  0  0  0  0  0  0
  -24.7277  -13.7285   21.9835 C   0  0  0  0  0  0  0  0  0  0  0  0
  -25.2739  -12.8084   20.0625 C   0  0  0  0  0  0  0  0  0  0  0  0
  -28.9438  -23.3786   19.2487 C   0  0  0  0  0  0  0  0  0  0  0  0
  -29.3554  -21.9978   21.4133 C   0  0  0  0  0  0  0  0  0  0  0  0
  -22.9214  -12.3532   20.7747 C   0  0  0  0  0  0  0  0  0  0  0  0
  -23.7104  -29.9579   23.0192 C   0  0  0  0  0  0  0  0  0  0  0  0
  -21.4036  -28.9002   20.9987 C   0  0  0  0  0  0  0  0  0  0  0  0
  -21.0653  -26.3040   18.5163 C   0  0  0  0  0  0  0  0  0  0  0  0
  -30.0683  -16.1928   18.9381 C   0  0  0  0  0  0  0  0  0  0  0  0
  -24.1981  -33.6085   26.5537 C   0  0  0  0  0  0  0  0  0  0  0  0
  -24.6561  -30.6285   20.7804 C   0  0  0  0  0  0  0  0  0  0  0  0
  -23.6800  -27.8371   20.7681 C   0  0  0  0  0  0  0  0  0  0  0  0
  -27.6519  -24.1087   18.9732 C   0  0  0  0  0  0  0  0  0  0  0  0
  -23.0389  -32.8144   25.9571 C   0  0  0  0  0  0  0  0  0  0  0  0
  -30.0611  -12.7754   19.9372 C   0  0  0  0  0  0  0  0  0  0  0  0
  -23.3606  -31.3233   25.9510 C   0  0  0  0  0  0  0  0  0  0  0  0
  -28.6448  -12.5578   20.4747 C   0  0  0  0  0  0  0  0  0  0  0  0
  -29.0244  -25.6433   17.4870 C   0  0  0  0  0  0  0  0  0  0  0  0
  -30.5900  -14.1671   20.2795 C   0  0  0  0  0  0  0  0  0  0  0  0
  -28.2986  -15.0606   20.4220 C   0  0  0  0  0  0  0  0  0  0  0  0
  -30.2890  -24.9070   17.9242 C   0  0  0  0  0  0  0  0  0  0  0  0
  -24.5915  -31.0280   25.0854 C   0  0  1  0  0  0  0  0  0  0  0  0
  -23.4184  -30.2070   21.5665 C   0  0  1  0  0  0  0  0  0  0  0  0
  -27.6983  -13.6961   20.0459 C   0  0  2  0  0  0  0  0  0  0  0  0
  -27.9027  -25.5475   18.5212 C   0  0  2  0  0  0  0  0  0  1  0  0
  -19.5923  -26.1668   16.4893 C   0  0  0  0  0  0  0  0  0  0  0  0
  -19.4855  -27.4162   22.8504 C   0  0  0  0  0  0  0  0  0  0  0  0
  -18.9196  -25.9034   20.9374 C   0  0  0  0  0  0  0  0  0  0  0  0
  -18.4300  -28.3445   20.7819 C   0  0  0  0  0  0  0  0  0  0  0  0
  -23.3742  -25.8256   16.7277 C   0  0  0  0  0  0  0  0  0  0  0  0
  -29.7409  -22.5718   17.1053 C   0  0  0  0  0  0  0  0  0  0  0  0
  -20.8264  -27.5501   20.6481 C   0  0  1  0  0  0  0  0  0  0  0  0
  -20.9834  -26.4902   17.0119 C   0  0  2  0  0  0  0  0  0  0  0  0
  -19.4423  -27.3064   21.3131 C   0  0  0  0  0  0  0  0  0  0  0  0
  -25.9999  -14.0868   21.7906 N   0  0  0  0  0  0  0  0  0  0  0  0
  -26.3037  -13.5120   20.6145 N   0  0  0  0  0  0  0  0  0  0  0  0
  -22.8023  -28.9875   21.0396 N   0  0  0  0  0  0  0  0  0  0  0  0
  -29.6433  -15.1944   19.8400 N   0  0  0  0  0  0  0  0  0  0  0  0
  -25.4081  -12.1683   18.8816 N   0  0  0  0  0  0  0  0  0  0  0  0
  -21.9603  -12.5786   21.7695 N   0  0  0  0  0  0  0  0  0  0  0  0
  -29.0727  -17.0956   18.5663 N   0  0  0  0  0  0  0  0  0  0  0  0
  -24.2392  -31.0491   23.6819 N   0  0  0  0  0  0  0  0  0  0  0  0
  -20.8100  -27.4791   19.1910 N   0  0  0  0  0  0  0  0  0  0  0  0
  -30.0119  -23.4671   18.2828 N   0  3  2  0  0  0  0  0  0  0  0  0
  -21.9620  -25.6000   16.3257 N   0  3  0  0  0  0  0  0  0  0  0  0
  -22.6245  -11.6440   19.7836 O   0  0  0  0  0  0  0  0  0  0  0  0
  -23.4721  -28.8577   23.5034 O   0  0  0  0  0  0  0  0  0  0  0  0
  -20.6415  -29.8444   21.2210 O   0  0  0  0  0  0  0  0  0  0  0  0
  -21.3259  -25.2233   19.0405 O   0  0  0  0  0  0  0  0  0  0  0  0
  -31.2229  -16.2270   18.5049 O   0  0  0  0  0  0  0  0  0  0  0  0
  -22.0047  -15.3988   26.5728 O   0  0  0  0  0  0  0  0  0  0  0  0
  -28.2099  -26.3638   19.6512 O   0  0  0  0  0  0  0  0  0  1  0  0
  -21.1535  -11.6718   30.5464 F   0  0  0  0  0  0  0  0  0  0  0  0
  -23.0164  -15.7818   29.1169 F   0  0  0  0  0  0  0  0  0  0  0  0
  1 35  2  0  0  0  0
  1 36  2  0  0  0  0
  2  3  1  0  0  0  0
  2  6  2  0  0  0  0
  3  7  2  0  0  0  0
  4 13  2  0  0  0  0
  4 20  1  0  0  0  0
  5 14  1  0  0  0  0
  5 20  2  0  0  0  0
  6 22  1  0  0  0  0
  7 24  1  0  0  0  0
  8 15  2  0  0  0  0
  8 23  1  0  0  0  0
  9 11  2  0  0  0  0
  9 26  1  0  0  0  0
 10 12  1  0  0  0  0
 10 26  2  0  0  0  0
 11 27  1  0  0  0  0
 12 27  2  0  0  0  0
 13 28  1  0  0  0  0
 14 28  2  0  0  0  0
 15 29  1  0  0  0  0
 16 17  2  0  0  0  0
 16 30  1  0  0  0  0
 17 31  1  0  0  0  0
 18 25  1  0  0  0  0
 18 29  2  0  0  0  0
 19 31  2  0  0  0  0
 19 32  1  0  0  0  0
 20 33  1  0  0  0  0
 21 33  1  0  0  0  0
 21 34  2  0  0  0  0
 21 37  1  0  0  0  0
 22 24  2  0  0  0  0
 22 42  1  0  0  0  0
 23 25  2  0  0  0  0
 23 43  1  0  0  0  0
 24 54  1  0  0  0  0
 25 44  1  0  0  0  0
 26 63  1  0  0  0  0
 27 73  1  0  0  0  0
 28 83  1  0  0  0  0
 29 84  1  0  0  0  0
 30 32  2  0  0  0  0
 30 83  1  0  0  0  0
 31 85  1  0  0  0  0
 32 86  1  0  0  0  0
 33 67  2  0  0  0  0
 34 68  1  0  0  0  0
 34 71  1  0  0  0  0
 35 45  1  0  0  0  0
 35 76  1  0  0  0  0
 37 72  1  0  0  0  0
 37 78  2  0  0  0  0
 38 55  1  0  0  0  0
 38 74  1  0  0  0  0
 38 79  2  0  0  0  0
 39 64  1  0  0  0  0
 39 69  1  0  0  0  0
 39 80  2  0  0  0  0
 40 65  1  0  0  0  0
 40 75  1  0  0  0  0
 40 81  2  0  0  0  0
 41 70  1  0  0  0  0
 41 73  1  0  0  0  0
 41 82  2  0  0  0  0
 42 46  1  0  0  0  0
 43 55  1  0  0  0  0
 44 69  1  0  0  0  0
 45 57  1  0  0  0  0
 46 48  1  0  0  0  0
 47 49  1  0  0  0  0
 47 51  1  0  0  0  0
 48 54  1  0  0  0  0
 49 56  1  0  0  0  0
 50 53  1  0  0  0  0
 50 57  1  0  0  0  0
 51 70  1  0  0  0  0
 52 56  1  0  0  0  0
 52 70  1  0  0  0  0
 53 76  1  0  0  0  0
 54 74  1  0  0  0  0
 55 69  1  0  0  0  0
 56 68  1  0  0  0  0
 57 84  1  0  0  0  0
 58 65  1  0  0  0  0
 59 66  1  0  0  0  0
 60 66  1  0  0  0  0
 61 66  1  0  0  0  0
 62 77  1  0  0  0  0
 63 76  1  0  0  0  0
 64 66  1  0  0  0  0
 64 75  1  0  0  0  0
 65 77  1  0  0  0  0
 67 68  1  0  0  0  0
M  CHG  2  76   1  77   1
M  ISO  4  41 100  57 101  73 100  84 101
M  END
> <Batch ID>
0050

> <Smiles>
C=C=C1C[101CH:1]([101O:1]c2ccc3c(c2)CN(C(=O)C(NC(=O)C(C)NC)C(C)(C)C)C(C(=O)NC2CCCc4ccccc42)C3)CCN1Cc1ccc([100NH:0][100C:0](=O)N2CCCC(n3nc(-c4ccc(Oc5ccc(F)cc5F)cc4)c(C(N)=O)c3N)C2)cc1

> <Shape>
0.288

> <Color>
0.083

> <Negative vol penalty>
0.000

$$$$

  -OEChem-04042322353D

 84 92  0     1  0  0  0  0  0999 V2000
  -31.4337  -31.6353   26.5156 C   0  0  0  0  0  0  0  0  0  0  0  0
  -31.1957  -30.6749   25.5377 C   0  0  0  0  0  0  0  0  0  0  0  0
  -24.5717   -9.2362   21.5787 C   0  0  0  0  0  0  0  0  0  0  0  0
  -23.0970  -11.0900   21.1033 C   0  0  0  0  0  0  0  0  0  0  0  0
  -25.5275  -19.7879   19.5976 C   0  0  0  0  0  0  0  0  0  0  0  0
  -30.3904  -32.0715   27.3312 C   0  0  0  0  0  0  0  0  0  0  0  0
  -29.9143  -30.1492   25.3756 C   0  0  0  0  0  0  0  0  0  0  0  0
  -27.2792  -28.4266   20.1226 C   0  0  0  0  0  0  0  0  0  0  0  0
  -25.9806  -18.4915   19.3534 C   0  0  0  0  0  0  0  0  0  0  0  0
  -23.6756   -8.7699   22.5405 C   0  0  0  0  0  0  0  0  0  0  0  0
  -22.2008  -10.6236   22.0651 C   0  0  0  0  0  0  0  0  0  0  0  0
  -27.1192  -27.1806   19.5178 C   0  0  0  0  0  0  0  0  0  0  0  0
  -20.7629   -7.0538   22.6072 C   0  0  0  0  0  0  0  0  0  0  0  0
  -20.4733   -5.6894   22.6159 C   0  0  0  0  0  0  0  0  0  0  0  0
  -24.9101  -27.0082   20.4714 C   0  0  0  0  0  0  0  0  0  0  0  0
  -28.1377  -19.0721   20.2737 C   0  0  0  0  0  0  0  0  0  0  0  0
  -21.3158   -5.5251   24.8743 C   0  0  0  0  0  0  0  0  0  0  0  0
  -24.2825  -10.3963   20.8601 C   0  0  0  0  0  0  0  0  0  0  0  0
  -26.3795  -20.7264   20.1799 C   0  0  0  0  0  0  0  0  0  0  0  0
  -25.2347  -10.5493   18.4984 C   0  0  0  0  0  0  0  0  0  0  0  0
  -29.0936  -31.5580   27.1726 C   0  0  0  0  0  0  0  0  0  0  0  0
  -26.2583  -28.9688   20.9165 C   0  0  0  0  0  0  0  0  0  0  0  0
  -28.8530  -30.5780   26.1908 C   0  0  0  0  0  0  0  0  0  0  0  0
  -25.0586  -28.2624   21.0830 C   0  0  0  0  0  0  0  0  0  0  0  0
  -27.6846  -20.3685   20.5179 C   0  0  0  0  0  0  0  0  0  0  0  0
  -27.2857  -18.1336   19.6914 C   0  0  0  0  0  0  0  0  0  0  0  0
  -22.4901   -9.4636   22.7837 C   0  0  0  0  0  0  0  0  0  0  0  0
  -25.9357  -26.4699   19.6946 C   0  0  0  0  0  0  0  0  0  0  0  0
  -21.3291   -7.6539   23.7320 C   0  0  0  0  0  0  0  0  0  0  0  0
  -20.7497   -4.9250   23.7495 C   0  0  0  0  0  0  0  0  0  0  0  0
  -21.6055   -6.8895   24.8656 C   0  0  0  0  0  0  0  0  0  0  0  0
  -25.2080  -10.8788   19.8669 C   0  0  0  0  0  0  0  0  0  0  0  0
  -26.2938  -11.2636   17.9938 C   0  0  0  0  0  0  0  0  0  0  0  0
  -25.8713  -22.0865   20.4254 C   0  0  0  0  0  0  0  0  0  0  0  0
  -25.4351  -22.9324   19.4791 C   0  0  0  0  0  0  0  0  0  0  0  0
  -24.3785   -9.6758   17.7503 C   0  0  0  0  0  0  0  0  0  0  0  0
  -26.0005  -29.8138   23.9699 C   0  0  0  0  0  0  0  0  0  0  0  0
  -23.1070  -30.9255   23.0137 C   0  0  0  0  0  0  0  0  0  0  0  0
  -20.5362  -30.7626   20.7751 C   0  0  0  0  0  0  0  0  0  0  0  0
  -29.0119  -16.2989   19.7150 C   0  0  0  0  0  0  0  0  0  0  0  0
  -28.0080  -32.0257   28.1093 C   0  0  0  0  0  0  0  0  0  0  0  0
  -26.4360  -30.3260   21.5401 C   0  0  0  0  0  0  0  0  0  0  0  0
  -23.9243  -28.8095   21.9090 C   0  0  0  0  0  0  0  0  0  0  0  0
  -26.5995  -31.6924   27.6241 C   0  0  0  0  0  0  0  0  0  0  0  0
  -30.5229  -13.1041   19.2826 C   0  0  0  0  0  0  0  0  0  0  0  0
  -26.5266  -30.2441   27.1511 C   0  0  0  0  0  0  0  0  0  0  0  0
  -29.3335  -12.1415   19.2528 C   0  0  0  0  0  0  0  0  0  0  0  0
  -30.3016  -14.2486   20.2699 C   0  0  0  0  0  0  0  0  0  0  0  0
  -27.8570  -14.0268   20.0606 C   0  0  0  0  0  0  0  0  0  0  0  0
  -27.4715  -30.0020   25.9678 C   0  0  1  0  0  0  0  0  0  0  0  0
  -25.5317  -30.5517   22.7478 C   0  0  1  0  0  0  0  0  0  0  0  0
  -28.0058  -12.8929   19.0331 C   0  0  2  0  0  0  0  0  0  0  0  0
  -18.2920  -31.7685   20.2761 C   0  0  0  0  0  0  0  0  0  0  0  0
  -21.8695  -29.2733   25.2607 C   0  0  0  0  0  0  0  0  0  0  0  0
  -19.6459  -29.5472   24.1432 C   0  0  0  0  0  0  0  0  0  0  0  0
  -20.8781  -31.5512   24.9730 C   0  0  0  0  0  0  0  0  0  0  0  0
  -21.4505  -31.7909   18.1549 C   0  0  0  0  0  0  0  0  0  0  0  0
  -24.9402  -24.3116   19.7761 C   0  0  0  0  0  0  0  0  0  1  0  0
  -21.7173  -30.3439   22.9162 C   0  0  1  0  0  0  0  0  0  0  0  0
  -19.7889  -31.8462   20.0189 C   0  0  2  0  0  0  0  0  0  0  0  0
  -28.6250  -21.3477   21.1436 C   0  0  0  0  0  0  0  0  0  0  0  0
  -21.0496  -30.1674   24.3092 C   0  0  0  0  0  0  0  0  0  0  0  0
  -26.1736  -11.7356   20.2098 N   0  0  0  0  0  0  0  0  0  0  0  0
  -26.8170  -11.9504   19.0496 N   0  0  0  0  0  0  0  0  0  0  0  0
  -24.1485  -30.1376   22.5035 N   0  0  0  0  0  0  0  0  0  0  0  0
  -29.0270  -14.9168   19.9983 N   0  0  0  0  0  0  0  0  0  0  0  0
  -26.8193  -11.3647   16.7545 N   0  0  0  0  0  0  0  0  0  0  0  0
  -23.3390   -9.0207   18.4244 N   0  0  0  0  0  0  0  0  0  0  0  0
  -27.7468  -16.8174   19.4407 N   0  0  0  0  0  0  0  0  0  0  0  0
  -26.8961  -30.5237   24.7467 N   0  0  0  0  0  0  0  0  0  0  0  0
  -20.9764  -31.2080   22.0036 N   0  0  0  0  0  0  0  0  0  0  0  0
  -20.0217  -31.7095   18.5533 N   0  3  0  0  0  0  0  0  0  0  0  0
  -24.5410   -9.4692   16.5238 O   0  0  0  0  0  0  0  0  0  0  0  0
  -25.5797  -28.6846   24.1924 O   0  0  0  0  0  0  0  0  0  0  0  0
  -23.2619  -32.0408   23.5174 O   0  0  0  0  0  0  0  0  0  0  0  0
  -20.7088  -29.6329   20.3230 O   0  0  0  0  0  0  0  0  0  0  0  0
  -30.0484  -16.9674   19.6889 O   0  0  0  0  0  0  0  0  0  0  0  0
  -21.6153   -9.0087   23.7220 O   0  0  0  0  0  0  0  0  0  0  0  0
  -25.7772  -25.2532   19.1060 O   0  0  0  0  0  0  0  0  0  1  0  0
  -20.4701   -3.6151   23.7583 F   0  0  0  0  0  0  0  0  0  0  0  0
  -22.1482   -7.4606   25.9496 F   0  0  0  0  0  0  0  0  0  0  0  0
  -29.8581  -20.8258   21.4068 F   0  0  0  0  0  0  0  0  0  0  0  0
  -28.8581  -22.4474   20.3702 F   0  0  0  0  0  0  0  0  0  0  0  0
  -28.1644  -21.8251   22.3349 F   0  0  0  0  0  0  0  0  0  0  0  0
  1  2  1  0  0  0  0
  1  6  2  0  0  0  0
  2  7  2  0  0  0  0
  3 10  2  0  0  0  0
  3 18  1  0  0  0  0
  4 11  1  0  0  0  0
  4 18  2  0  0  0  0
  5  9  2  0  0  0  0
  5 19  1  0  0  0  0
  6 21  1  0  0  0  0
  7 23  1  0  0  0  0
  8 12  2  0  0  0  0
  8 22  1  0  0  0  0
  9 26  1  0  0  0  0
 10 27  1  0  0  0  0
 11 27  2  0  0  0  0
 12 28  1  0  0  0  0
 13 14  2  0  0  0  0
 13 29  1  0  0  0  0
 14 30  1  0  0  0  0
 15 24  1  0  0  0  0
 15 28  2  0  0  0  0
 16 25  1  0  0  0  0
 16 26  2  0  0  0  0
 17 30  2  0  0  0  0
 17 31  1  0  0  0  0
 18 32  1  0  0  0  0
 19 25  2  0  0  0  0
 19 34  1  0  0  0  0
 20 32  1  0  0  0  0
 20 33  2  0  0  0  0
 20 36  1  0  0  0  0
 21 23  2  0  0  0  0
 21 41  1  0  0  0  0
 22 24  2  0  0  0  0
 22 42  1  0  0  0  0
 23 50  1  0  0  0  0
 24 43  1  0  0  0  0
 25 61  1  0  0  0  0
 26 69  1  0  0  0  0
 27 78  1  0  0  0  0
 28 79  1  0  0  0  0
 29 31  2  0  0  0  0
 29 78  1  0  0  0  0
 30 80  1  0  0  0  0
 31 81  1  0  0  0  0
 32 63  2  0  0  0  0
 33 64  1  0  0  0  0
 33 67  1  0  0  0  0
 34 35  2  0  0  0  0
 35 58  1  0  0  0  0
 36 68  1  0  0  0  0
 36 73  2  0  0  0  0
 37 51  1  0  0  0  0
 37 70  1  0  0  0  0
 37 74  2  0  0  0  0
 38 59  1  0  0  0  0
 38 65  1  0  0  0  0
 38 75  2  0  0  0  0
 39 60  1  0  0  0  0
 39 71  1  0  0  0  0
 39 76  2  0  0  0  0
 40 66  1  0  0  0  0
 40 69  1  0  0  0  0
 40 77  2  0  0  0  0
 41 44  1  0  0  0  0
 42 51  1  0  0  0  0
 43 65  1  0  0  0  0
 44 46  1  0  0  0  0
 45 47  1  0  0  0  0
 45 48  1  0  0  0  0
 46 50  1  0  0  0  0
 47 52  1  0  0  0  0
 48 66  1  0  0  0  0
 49 52  1  0  0  0  0
 49 66  1  0  0  0  0
 50 70  1  0  0  0  0
 51 65  1  0  0  0  0
 52 64  1  0  0  0  0
 53 60  1  0  0  0  0
 54 62  1  0  0  0  0
 55 62  1  0  0  0  0
 56 62  1  0  0  0  0
 57 72  1  0  0  0  0
 58 79  1  0  0  0  0
 59 62  1  0  0  0  0
 59 71  1  0  0  0  0
 60 72  1  0  0  0  0
 61 82  1  0  0  0  0
 61 83  1  0  0  0  0
 61 84  1  0  0  0  0
 63 64  1  0  0  0  0
M  CHG  1  72   1
M  ISO  4  40 100  58 101  69 100  79 101
M  END
> <Batch ID>
0050

> <Smiles>
CNC(C)C(=O)NC(C(=O)N1Cc2cc([101O:1][101CH2:1]C=Cc3ccc([100NH:0][100C:0](=O)N4CCCC(n5nc(-c6ccc(Oc7ccc(F)cc7F)cc6)c(C(N)=O)c5N)C4)cc3C(F)(F)F)ccc2CC1C(=O)NC1CCCc2ccccc21)C(C)(C)C

> <Shape>
0.271

> <Color>
0.088

> <Negative vol penalty>
0.000

$$$$

  -OEChem-04042322353D

 90 99  0     1  0  0  0  0  0999 V2000
  -28.2825  -30.7859   27.5779 C   0  0  0  0  0  0  0  0  0  0  0  0
  -28.0017  -29.8357   26.6014 C   0  0  0  0  0  0  0  0  0  0  0  0
  -22.8872   -9.3462   19.8349 C   0  0  0  0  0  0  0  0  0  0  0  0
  -24.5815   -8.6166   21.3951 C   0  0  0  0  0  0  0  0  0  0  0  0
  -27.3485  -31.7783   27.8723 C   0  0  0  0  0  0  0  0  0  0  0  0
  -26.7861  -29.8766   25.9194 C   0  0  0  0  0  0  0  0  0  0  0  0
  -27.3342  -29.2061   20.9299 C   0  0  0  0  0  0  0  0  0  0  0  0
  -21.8990   -8.7937   20.6497 C   0  0  0  0  0  0  0  0  0  0  0  0
  -23.5933   -8.0642   22.2099 C   0  0  0  0  0  0  0  0  0  0  0  0
  -27.5339  -27.9013   20.4809 C   0  0  0  0  0  0  0  0  0  0  0  0
  -21.6927   -5.2688   22.2744 C   0  0  0  0  0  0  0  0  0  0  0  0
  -21.9146   -3.9903   22.7861 C   0  0  0  0  0  0  0  0  0  0  0  0
  -25.2044  -27.7615   19.8699 C   0  0  0  0  0  0  0  0  0  0  0  0
  -27.1995  -18.2906   20.0293 C   0  0  0  0  0  0  0  0  0  0  0  0
  -25.2972  -17.4737   18.7838 C   0  0  0  0  0  0  0  0  0  0  0  0
  -21.7690   -4.8648   25.0336 C   0  0  0  0  0  0  0  0  0  0  0  0
  -24.2285   -9.2576   20.2076 C   0  0  0  0  0  0  0  0  0  0  0  0
  -25.5361   -9.4904   18.0296 C   0  0  0  0  0  0  0  0  0  0  0  0
  -26.1248  -31.8372   27.1868 C   0  0  0  0  0  0  0  0  0  0  0  0
  -26.0635  -29.7955   20.8622 C   0  0  0  0  0  0  0  0  0  0  0  0
  -25.8342  -30.8699   26.2059 C   0  0  0  0  0  0  0  0  0  0  0  0
  -24.9918  -29.0747   20.3163 C   0  0  0  0  0  0  0  0  0  0  0  0
  -26.5778  -19.5318   20.1649 C   0  0  0  0  0  0  0  0  0  0  0  0
  -24.6754  -18.7150   18.9195 C   0  0  0  0  0  0  0  0  0  0  0  0
  -25.3157  -19.7440   19.6101 C   0  0  0  0  0  0  0  0  0  0  0  0
  -26.5593  -17.2616   19.3387 C   0  0  0  0  0  0  0  0  0  0  0  0
  -22.2521   -8.1528   21.8372 C   0  0  0  0  0  0  0  0  0  0  0  0
  -26.4683  -27.1778   19.9535 C   0  0  0  0  0  0  0  0  0  0  0  0
  -21.5090   -6.3453   23.1422 C   0  0  0  0  0  0  0  0  0  0  0  0
  -21.9528   -3.7883   24.1657 C   0  0  0  0  0  0  0  0  0  0  0  0
  -21.5472   -6.1432   24.5219 C   0  0  0  0  0  0  0  0  0  0  0  0
  -25.2498   -9.8276   19.3661 C   0  0  0  0  0  0  0  0  0  0  0  0
  -26.5835  -10.3096   17.6857 C   0  0  0  0  0  0  0  0  0  0  0  0
  -27.4520  -22.9629   20.1537 C   0  0  0  0  0  0  0  0  0  0  0  0
  -24.9111   -8.5233   17.1754 C   0  0  0  0  0  0  0  0  0  0  0  0
  -24.0032  -30.9360   22.9971 C   0  0  0  0  0  0  0  0  0  0  0  0
  -22.3716  -31.8607   20.3505 C   0  0  0  0  0  0  0  0  0  0  0  0
  -21.7367  -31.3981   17.0293 C   0  0  0  0  0  0  0  0  0  0  0  0
  -28.4398  -15.6230   19.6923 C   0  0  0  0  0  0  0  0  0  0  0  0
  -25.1269  -32.9001   27.5729 C   0  0  0  0  0  0  0  0  0  0  0  0
  -25.8704  -31.2132   21.3260 C   0  0  0  0  0  0  0  0  0  0  0  0
  -23.6125  -29.6690   20.2028 C   0  0  0  0  0  0  0  0  0  0  0  0
  -24.0182  -33.0978   26.5423 C   0  0  0  0  0  0  0  0  0  0  0  0
  -29.3425  -22.1397   18.0715 C   0  0  0  0  0  0  0  0  0  0  0  0
  -30.3266  -12.6050   19.5975 C   0  0  0  0  0  0  0  0  0  0  0  0
  -23.4557  -31.7512   26.0984 C   0  0  0  0  0  0  0  0  0  0  0  0
  -29.3704  -23.5636   18.5915 C   0  0  0  0  0  0  0  0  0  0  0  0
  -29.2654  -11.5201   19.3997 C   0  0  0  0  0  0  0  0  0  0  0  0
  -28.9733  -21.1926   19.1968 C   0  0  0  0  0  0  0  0  0  0  0  0
  -29.8271  -13.7281   20.5046 C   0  0  0  0  0  0  0  0  0  0  0  0
  -27.4873  -13.2434   19.9053 C   0  0  0  0  0  0  0  0  0  0  0  0
  -24.5370  -30.8959   25.4270 C   0  0  1  0  0  0  0  0  0  0  0  0
  -27.9825  -23.9363   19.0986 C   0  0  2  0  0  0  0  0  0  0  0  0
  -24.4222  -31.5329   21.6835 C   0  0  1  0  0  0  0  0  0  0  0  0
  -27.9211  -12.1227   18.9464 C   0  0  2  0  0  0  0  0  0  0  0  0
  -24.6488  -21.0748   19.7561 C   0  0  0  0  0  0  0  0  0  0  0  0
  -20.3266  -32.2827   15.1514 C   0  0  0  0  0  0  0  0  0  0  0  0
  -19.9436  -30.4079   21.4925 C   0  0  0  0  0  0  0  0  0  0  0  0
  -18.9037  -30.5028   19.2170 C   0  0  0  0  0  0  0  0  0  0  0  0
  -19.4352  -32.6153   20.4326 C   0  0  0  0  0  0  0  0  0  0  0  0
  -24.1178  -32.1833   15.4568 C   0  0  0  0  0  0  0  0  0  0  0  0
  -27.2884  -20.6229   20.9123 C   0  0  0  0  0  0  0  0  0  0  0  0
  -27.9795  -25.3710   19.6255 C   0  0  0  0  0  0  0  0  0  1  0  0
  -23.3239  -18.9162   18.3161 C   0  0  0  0  0  0  0  0  0  0  0  0
  -21.3194  -31.2320   19.4692 C   0  0  1  0  0  0  0  0  0  0  0  0
  -21.6625  -32.3777   15.8720 C   0  0  2  0  0  0  0  0  0  0  0  0
  -19.9259  -31.1774   20.1566 C   0  0  0  0  0  0  0  0  0  0  0  0
  -26.0508  -10.7861   19.8390 N   0  0  0  0  0  0  0  0  0  0  0  0
  -26.8508  -11.0582   18.7940 N   0  0  0  0  0  0  0  0  0  0  0  0
  -27.8412  -21.6285   20.0141 N   0  0  0  0  0  0  0  0  0  0  0  0
  -23.4729  -31.0562   20.6757 N   0  0  0  0  0  0  0  0  0  0  0  0
  -28.5522  -14.2531   20.0110 N   0  0  0  0  0  0  0  0  0  0  0  0
  -27.2929  -10.4553   16.5464 N   0  0  0  0  0  0  0  0  0  0  0  0
  -23.8486   -7.7665   17.6882 N   0  0  0  0  0  0  0  0  0  0  0  0
  -27.1902  -16.0003   19.2016 N   0  0  0  0  0  0  0  0  0  0  0  0
  -24.7689  -31.3469   24.0716 N   0  0  0  0  0  0  0  0  0  0  0  0
  -21.3383  -31.9777   18.2154 N   0  0  0  0  0  0  0  0  0  0  0  0
  -22.7476  -32.1009   14.8887 N   0  3  0  0  0  0  0  0  0  0  0  0
  -26.6514  -23.3507   21.0093 O   0  0  0  0  0  0  0  0  0  0  0  0
  -25.2944   -8.3242   15.9977 O   0  0  0  0  0  0  0  0  0  0  0  0
  -23.0545  -30.1612   23.0335 O   0  0  0  0  0  0  0  0  0  0  0  0
  -22.2253  -33.0251   20.7303 O   0  0  0  0  0  0  0  0  0  0  0  0
  -22.1072  -30.2341   16.8941 O   0  0  0  0  0  0  0  0  0  0  0  0
  -29.3910  -16.3986   19.8178 O   0  0  0  0  0  0  0  0  0  0  0  0
  -21.2880   -7.6138   22.6326 O   0  0  0  0  0  0  0  0  0  0  0  0
  -26.6603  -25.9039   19.5152 O   0  0  0  0  0  0  0  0  0  1  0  0
  -22.1643   -2.5603   24.6570 F   0  0  0  0  0  0  0  0  0  0  0  0
  -21.3702   -7.1733   25.3606 F   0  0  0  0  0  0  0  0  0  0  0  0
  -22.9096  -17.7914   17.6775 F   0  0  0  0  0  0  0  0  0  0  0  0
  -23.3564  -19.9016   17.3821 F   0  0  0  0  0  0  0  0  0  0  0  0
  1  2  1  0  0  0  0
  1  5  2  0  0  0  0
  2  6  2  0  0  0  0
  3  8  2  0  0  0  0
  3 17  1  0  0  0  0
  4  9  1  0  0  0  0
  4 17  2  0  0  0  0
  5 19  1  0  0  0  0
  6 21  1  0  0  0  0
  7 10  2  0  0  0  0
  7 20  1  0  0  0  0
  8 27  1  0  0  0  0
  9 27  2  0  0  0  0
 10 28  1  0  0  0  0
 11 12  2  0  0  0  0
 11 29  1  0  0  0  0
 12 30  1  0  0  0  0
 13 22  1  0  0  0  0
 13 28  2  0  0  0  0
 14 23  1  0  0  0  0
 14 26  2  0  0  0  0
 15 24  2  0  0  0  0
 15 26  1  0  0  0  0
 16 30  2  0  0  0  0
 16 31  1  0  0  0  0
 17 32  1  0  0  0  0
 18 32  1  0  0  0  0
 18 33  2  0  0  0  0
 18 35  1  0  0  0  0
 19 21  2  0  0  0  0
 19 40  1  0  0  0  0
 20 22  2  0  0  0  0
 20 41  1  0  0  0  0
 21 52  1  0  0  0  0
 22 42  1  0  0  0  0
 23 25  2  0  0  0  0
 23 62  1  0  0  0  0
 24 25  1  0  0  0  0
 24 64  1  0  0  0  0
 25 56  1  0  0  0  0
 26 75  1  0  0  0  0
 27 85  1  0  0  0  0
 28 86  1  0  0  0  0
 29 31  2  0  0  0  0
 29 85  1  0  0  0  0
 30 87  1  0  0  0  0
 31 88  1  0  0  0  0
 32 68  2  0  0  0  0
 33 69  1  0  0  0  0
 33 73  1  0  0  0  0
 34 53  1  0  0  0  0
 34 70  1  0  0  0  0
 34 79  2  0  0  0  0
 35 74  1  0  0  0  0
 35 80  2  0  0  0  0
 36 54  1  0  0  0  0
 36 76  1  0  0  0  0
 36 81  2  0  0  0  0
 37 65  1  0  0  0  0
 37 71  1  0  0  0  0
 37 82  2  0  0  0  0
 38 66  1  0  0  0  0
 38 77  1  0  0  0  0
 38 83  2  0  0  0  0
 39 72  1  0  0  0  0
 39 75  1  0  0  0  0
 39 84  2  0  0  0  0
 40 43  1  0  0  0  0
 41 54  1  0  0  0  0
 42 71  1  0  0  0  0
 43 46  1  0  0  0  0
 44 47  1  0  0  0  0
 44 49  1  0  0  0  0
 45 48  1  0  0  0  0
 45 50  1  0  0  0  0
 46 52  1  0  0  0  0
 47 53  1  0  0  0  0
 48 55  1  0  0  0  0
 49 70  1  0  0  0  0
 50 72  1  0  0  0  0
 51 55  1  0  0  0  0
 51 72  1  0  0  0  0
 52 76  1  0  0  0  0
 53 63  1  0  0  0  0
 54 71  1  0  0  0  0
 55 69  1  0  0  0  0
 57 66  1  0  0  0  0
 58 67  1  0  0  0  0
 59 67  1  0  0  0  0
 60 67  1  0  0  0  0
 61 78  1  0  0  0  0
 62 70  1  0  0  0  0
 63 86  1  0  0  0  0
 64 89  1  0  0  0  0
 64 90  1  0  0  0  0
 65 67  1  0  0  0  0
 65 77  1  0  0  0  0
 66 78  1  0  0  0  0
 68 69  1  0  0  0  0
M  CHG  1  78   1
M  ISO  4  39 100  63 101  75 100  86 101
M  END
> <Batch ID>
0050

> <Smiles>
CNC(C)C(=O)NC(C(=O)N1Cc2cc([101O:1][101CH2:1]C3CCCN(Cc4cc([100NH:0][100C:0](=O)N5CCCC(n6nc(-c7ccc(Oc8ccc(F)cc8F)cc7)c(C(N)=O)c6N)C5)cc(C(F)F)c4C)C3=O)ccc2CC1C(=O)NC1CCCc2ccccc21)C(C)(C)C

> <Shape>
0.282

> <Color>
0.099

> <Negative vol penalty>
0.000

$$$$

  -OEChem-04042322353D

 86 94  0     1  0  0  0  0  0999 V2000
  -28.0243  -35.2707   23.1465 C   0  0  0  0  0  0  0  0  0  0  0  0
  -28.2191  -33.9072   22.9506 C   0  0  0  0  0  0  0  0  0  0  0  0
  -23.8150  -14.3637   22.1754 C   0  0  0  0  0  0  0  0  0  0  0  0
  -25.2404  -14.8825   20.2949 C   0  0  0  0  0  0  0  0  0  0  0  0
  -26.7989  -35.7378   23.6199 C   0  0  0  0  0  0  0  0  0  0  0  0
  -27.1888  -33.0098   23.2291 C   0  0  0  0  0  0  0  0  0  0  0  0
  -26.6178  -29.5214   19.6029 C   0  0  0  0  0  0  0  0  0  0  0  0
  -24.5777  -24.1024   18.2122 C   0  0  0  0  0  0  0  0  0  0  0  0
  -23.3821  -13.2066   21.5280 C   0  0  0  0  0  0  0  0  0  0  0  0
  -24.8075  -13.7253   19.6475 C   0  0  0  0  0  0  0  0  0  0  0  0
  -27.5256  -28.4634   19.5885 C   0  0  0  0  0  0  0  0  0  0  0  0
  -22.1732   -9.9283   20.5247 C   0  0  0  0  0  0  0  0  0  0  0  0
  -22.1061   -8.7530   21.2730 C   0  0  0  0  0  0  0  0  0  0  0  0
  -24.7905  -24.6877   16.9641 C   0  0  0  0  0  0  0  0  0  0  0  0
  -25.8970  -27.0590   20.6815 C   0  0  0  0  0  0  0  0  0  0  0  0
  -26.3675  -22.5373   17.7833 C   0  0  0  0  0  0  0  0  0  0  0  0
  -24.4754   -8.9033   21.7214 C   0  0  0  0  0  0  0  0  0  0  0  0
  -24.7442  -15.2017   21.5588 C   0  0  0  0  0  0  0  0  0  0  0  0
  -26.2917  -16.5249   23.0957 C   0  0  0  0  0  0  0  0  0  0  0  0
  -25.7498  -34.8465   23.8951 C   0  0  0  0  0  0  0  0  0  0  0  0
  -25.3444  -29.3590   20.1674 C   0  0  0  0  0  0  0  0  0  0  0  0
  -25.9486  -33.4653   23.7079 C   0  0  0  0  0  0  0  0  0  0  0  0
  -24.9739  -28.1157   20.6994 C   0  0  0  0  0  0  0  0  0  0  0  0
  -26.5803  -23.1225   16.5351 C   0  0  0  0  0  0  0  0  0  0  0  0
  -25.3663  -23.0272   18.6218 C   0  0  0  0  0  0  0  0  0  0  0  0
  -23.8783  -12.8873   20.2641 C   0  0  0  0  0  0  0  0  0  0  0  0
  -27.1664  -27.2328   20.1304 C   0  0  0  0  0  0  0  0  0  0  0  0
  -23.3914  -10.5910   20.3747 C   0  0  0  0  0  0  0  0  0  0  0  0
  -23.2572   -8.2406   21.8713 C   0  0  0  0  0  0  0  0  0  0  0  0
  -24.5425  -10.0786   20.9731 C   0  0  0  0  0  0  0  0  0  0  0  0
  -25.7917  -24.1978   16.1255 C   0  0  0  0  0  0  0  0  0  0  0  0
  -25.1914  -16.3975   22.2268 C   0  0  0  0  0  0  0  0  0  0  0  0
  -26.2905  -17.8495   23.4592 C   0  0  0  0  0  0  0  0  0  0  0  0
  -29.1608  -24.1512   17.5765 C   0  0  0  0  0  0  0  0  0  0  0  0
  -29.3471  -24.7363   18.7681 C   0  0  0  0  0  0  0  0  0  0  0  0
  -27.2308  -15.5346   23.5349 C   0  0  0  0  0  0  0  0  0  0  0  0
  -29.5227  -22.7168   17.3868 C   0  0  0  0  0  0  0  0  0  0  0  0
  -23.7817  -30.6865   22.5963 C   0  0  0  0  0  0  0  0  0  0  0  0
  -21.3128  -28.9084   21.4715 C   0  0  0  0  0  0  0  0  0  0  0  0
  -20.2772  -26.1838   19.6963 C   0  0  0  0  0  0  0  0  0  0  0  0
  -24.2004  -22.7985   20.8432 C   0  0  0  0  0  0  0  0  0  0  0  0
  -24.4588  -35.3942   24.4501 C   0  0  0  0  0  0  0  0  0  0  0  0
  -24.3671  -30.5023   20.1510 C   0  0  0  0  0  0  0  0  0  0  0  0
  -23.6119  -27.8838   21.2991 C   0  0  0  0  0  0  0  0  0  0  0  0
  -23.2938  -34.4114   24.3651 C   0  0  0  0  0  0  0  0  0  0  0  0
  -23.3287  -21.5633   24.0668 C   0  0  0  0  0  0  0  0  0  0  0  0
  -23.7236  -33.0307   24.8508 C   0  0  0  0  0  0  0  0  0  0  0  0
  -23.8131  -20.1118   24.0420 C   0  0  0  0  0  0  0  0  0  0  0  0
  -22.7718  -21.9986   22.7125 C   0  0  0  0  0  0  0  0  0  0  0  0
  -24.1538  -20.3251   21.5469 C   0  0  0  0  0  0  0  0  0  0  0  0
  -24.8469  -32.4627   23.9750 C   0  0  1  0  0  0  0  0  0  0  0  0
  -23.2807  -30.3749   21.2144 C   0  0  1  0  0  0  0  0  0  0  0  0
  -24.7831  -19.8614   22.8708 C   0  0  2  0  0  0  0  0  0  0  0  0
  -18.1994  -24.9707   18.9833 C   0  0  0  0  0  0  0  0  0  0  0  0
  -21.0163  -27.7672   24.2857 C   0  0  0  0  0  0  0  0  0  0  0  0
  -19.6190  -25.9290   23.3178 C   0  0  0  0  0  0  0  0  0  0  0  0
  -18.8564  -28.2976   23.1421 C   0  0  0  0  0  0  0  0  0  0  0  0
  -29.0420  -20.5947   16.2280 C   0  0  0  0  0  0  0  0  0  0  0  0
  -20.8824  -26.5936   16.8284 C   0  0  0  0  0  0  0  0  0  0  0  0
  -27.6678  -22.5662   15.6622 C   0  0  0  0  0  0  0  0  0  0  0  0
  -28.9918  -26.1613   19.0462 C   0  0  0  0  0  0  0  0  0  1  0  0
  -20.7978  -27.5123   21.7257 C   0  0  1  0  0  0  0  0  0  0  0  0
  -19.2270  -26.0282   18.6113 C   0  0  2  0  0  0  0  0  0  0  0  0
  -20.0988  -27.3811   23.1084 C   0  0  0  0  0  0  0  0  0  0  0  0
  -24.5386  -17.5491   22.0491 N   0  0  0  0  0  0  0  0  0  0  0  0
  -25.2307  -18.4128   22.8114 N   0  0  0  0  0  0  0  0  0  0  0  0
  -22.6939  -29.0343   21.2651 N   0  0  0  0  0  0  0  0  0  0  0  0
  -23.7468  -21.7351   21.6520 N   0  0  0  0  0  0  0  0  0  0  0  0
  -27.0926  -18.5755   24.2665 N   0  0  0  0  0  0  0  0  0  0  0  0
  -27.0868  -14.2222   23.0647 N   0  0  0  0  0  0  0  0  0  0  0  0
  -25.1506  -22.4334   19.8901 N   0  0  0  0  0  0  0  0  0  0  0  0
  -24.3101  -31.9562   22.7301 N   0  0  0  0  0  0  0  0  0  0  0  0
  -19.9441  -27.1791   20.5906 N   0  0  0  0  0  0  0  0  0  0  0  0
  -28.7679  -22.0091   16.4470 N   0  0  0  0  0  0  0  0  0  0  0  0
  -19.8660  -25.6306   17.3250 N   0  3  0  0  0  0  0  0  0  0  0  0
  -28.1601  -15.8020   24.3340 O   0  0  0  0  0  0  0  0  0  0  0  0
  -30.4262  -22.2200   18.0611 O   0  0  0  0  0  0  0  0  0  0  0  0
  -23.6939  -29.8382   23.4763 O   0  0  0  0  0  0  0  0  0  0  0  0
  -20.5180  -29.8515   21.4494 O   0  0  0  0  0  0  0  0  0  0  0  0
  -21.2899  -25.4893   19.7476 O   0  0  0  0  0  0  0  0  0  0  0  0
  -23.7973  -23.9534   21.0036 O   0  0  0  0  0  0  0  0  0  0  0  0
  -23.4562  -11.7581   19.6322 O   0  0  0  0  0  0  0  0  0  0  0  0
  -28.0508  -26.1987   20.1183 O   0  0  0  0  0  0  0  0  0  1  0  0
  -23.1924   -7.1128   22.5911 F   0  0  0  0  0  0  0  0  0  0  0  0
  -25.7154  -10.7115   20.8335 F   0  0  0  0  0  0  0  0  0  0  0  0
  -26.0258  -24.9482   14.5889 Cl  0  0  0  0  0  0  0  0  0  0  0  0
  1  2  1  0  0  0  0
  1  5  2  0  0  0  0
  2  6  2  0  0  0  0
  3  9  2  0  0  0  0
  3 18  1  0  0  0  0
  4 10  1  0  0  0  0
  4 18  2  0  0  0  0
  5 20  1  0  0  0  0
  6 22  1  0  0  0  0
  7 11  2  0  0  0  0
  7 21  1  0  0  0  0
  8 14  2  0  0  0  0
  8 25  1  0  0  0  0
  9 26  1  0  0  0  0
 10 26  2  0  0  0  0
 11 27  1  0  0  0  0
 12 13  2  0  0  0  0
 12 28  1  0  0  0  0
 13 29  1  0  0  0  0
 14 31  1  0  0  0  0
 15 23  1  0  0  0  0
 15 27  2  0  0  0  0
 16 24  1  0  0  0  0
 16 25  2  0  0  0  0
 17 29  2  0  0  0  0
 17 30  1  0  0  0  0
 18 32  1  0  0  0  0
 19 32  1  0  0  0  0
 19 33  2  0  0  0  0
 19 36  1  0  0  0  0
 20 22  2  0  0  0  0
 20 42  1  0  0  0  0
 21 23  2  0  0  0  0
 21 43  1  0  0  0  0
 22 51  1  0  0  0  0
 23 44  1  0  0  0  0
 24 31  2  0  0  0  0
 24 60  1  0  0  0  0
 25 71  1  0  0  0  0
 26 82  1  0  0  0  0
 27 83  1  0  0  0  0
 28 30  2  0  0  0  0
 28 82  1  0  0  0  0
 29 84  1  0  0  0  0
 30 85  1  0  0  0  0
 31 86  1  0  0  0  0
 32 65  2  0  0  0  0
 33 66  1  0  0  0  0
 33 69  1  0  0  0  0
 34 35  2  0  0  0  0
 34 37  1  0  0  0  0
 35 61  1  0  0  0  0
 36 70  1  0  0  0  0
 36 76  2  0  0  0  0
 37 74  1  0  0  0  0
 37 77  2  0  0  0  0
 38 52  1  0  0  0  0
 38 72  1  0  0  0  0
 38 78  2  0  0  0  0
 39 62  1  0  0  0  0
 39 67  1  0  0  0  0
 39 79  2  0  0  0  0
 40 63  1  0  0  0  0
 40 73  1  0  0  0  0
 40 80  2  0  0  0  0
 41 68  1  0  0  0  0
 41 71  1  0  0  0  0
 41 81  2  0  0  0  0
 42 45  1  0  0  0  0
 43 52  1  0  0  0  0
 44 67  1  0  0  0  0
 45 47  1  0  0  0  0
 46 48  1  0  0  0  0
 46 49  1  0  0  0  0
 47 51  1  0  0  0  0
 48 53  1  0  0  0  0
 49 68  1  0  0  0  0
 50 53  1  0  0  0  0
 50 68  1  0  0  0  0
 51 72  1  0  0  0  0
 52 67  1  0  0  0  0
 53 66  1  0  0  0  0
 54 63  1  0  0  0  0
 55 64  1  0  0  0  0
 56 64  1  0  0  0  0
 57 64  1  0  0  0  0
 58 74  1  0  0  0  0
 59 75  1  0  0  0  0
 60 74  1  0  0  0  0
 61 83  1  0  0  0  0
 62 64  1  0  0  0  0
 62 73  1  0  0  0  0
 63 75  1  0  0  0  0
 65 66  1  0  0  0  0
M  CHG  1  75   1
M  ISO  4  41 100  61 101  71 100  83 101
M  END
> <Batch ID>
0050

> <Smiles>
CNC(C)C(=O)NC(C(=O)N1Cc2cc([101O:1][101CH2:1]C=CC(=O)N(C)Cc3cc([100NH:0][100C:0](=O)N4CCCC(n5nc(-c6ccc(Oc7ccc(F)cc7F)cc6)c(C(N)=O)c5N)C4)ccc3Cl)ccc2CC1C(=O)NC1CCCc2ccccc21)C(C)(C)C

> <Shape>
0.248

> <Color>
0.062

> <Negative vol penalty>
0.000

$$$$

  -OEChem-04042322353D

 87 95  0     1  0  0  0  0  0999 V2000
  -28.5081  -37.6085   22.3413 C   0  0  0  0  0  0  0  0  0  0  0  0
  -28.9187  -36.3864   21.8184 C   0  0  0  0  0  0  0  0  0  0  0  0
  -23.6256  -11.3814   20.1264 C   0  0  0  0  0  0  0  0  0  0  0  0
  -22.7268  -13.4310   21.0368 C   0  0  0  0  0  0  0  0  0  0  0  0
  -27.5586  -37.6452   23.3616 C   0  0  0  0  0  0  0  0  0  0  0  0
  -28.3807  -35.2002   22.3163 C   0  0  0  0  0  0  0  0  0  0  0  0
  -27.2040  -30.0831   19.1641 C   0  0  0  0  0  0  0  0  0  0  0  0
  -30.2239  -21.3458   20.7805 C   0  0  0  0  0  0  0  0  0  0  0  0
  -29.9273  -19.9829   20.7761 C   0  0  0  0  0  0  0  0  0  0  0  0
  -22.4059  -10.7448   20.3556 C   0  0  0  0  0  0  0  0  0  0  0  0
  -21.5070  -12.7943   21.2659 C   0  0  0  0  0  0  0  0  0  0  0  0
  -27.9112  -28.8912   19.0126 C   0  0  0  0  0  0  0  0  0  0  0  0
  -19.3629  -10.5896   18.8895 C   0  0  0  0  0  0  0  0  0  0  0  0
  -18.8481   -9.7889   17.8700 C   0  0  0  0  0  0  0  0  0  0  0  0
  -26.5951  -27.8938   20.7711 C   0  0  0  0  0  0  0  0  0  0  0  0
  -31.1065  -19.7195   22.8684 C   0  0  0  0  0  0  0  0  0  0  0  0
  -18.8987   -7.8769   19.3460 C   0  0  0  0  0  0  0  0  0  0  0  0
  -23.7861  -12.7246   20.4671 C   0  0  0  0  0  0  0  0  0  0  0  0
  -25.4404  -14.0721   19.0689 C   0  0  0  0  0  0  0  0  0  0  0  0
  -27.0016  -36.4593   23.8657 C   0  0  0  0  0  0  0  0  0  0  0  0
  -26.1927  -30.1929   20.1293 C   0  0  0  0  0  0  0  0  0  0  0  0
  -27.4239  -35.2210   23.3453 C   0  0  0  0  0  0  0  0  0  0  0  0
  -25.8748  -29.0874   20.9311 C   0  0  0  0  0  0  0  0  0  0  0  0
  -30.9618  -21.8956   21.8288 C   0  0  0  0  0  0  0  0  0  0  0  0
  -31.4031  -21.0825   22.8727 C   0  0  0  0  0  0  0  0  0  0  0  0
  -30.3686  -19.1697   21.8200 C   0  0  0  0  0  0  0  0  0  0  0  0
  -21.3466  -11.4512   20.9252 C   0  0  0  0  0  0  0  0  0  0  0  0
  -27.6088  -27.7973   19.8181 C   0  0  0  0  0  0  0  0  0  0  0  0
  -19.6458  -10.0339   20.1373 C   0  0  0  0  0  0  0  0  0  0  0  0
  -18.6159   -8.4326   18.0983 C   0  0  0  0  0  0  0  0  0  0  0  0
  -19.4136   -8.6776   20.3656 C   0  0  0  0  0  0  0  0  0  0  0  0
  -25.0460  -13.3826   20.2312 C   0  0  0  0  0  0  0  0  0  0  0  0
  -26.7132  -14.5090   19.3441 C   0  0  0  0  0  0  0  0  0  0  0  0
  -24.7207  -14.2975   17.8496 C   0  0  0  0  0  0  0  0  0  0  0  0
  -25.7398  -31.9942   22.7088 C   0  0  0  0  0  0  0  0  0  0  0  0
  -22.8325  -30.5558   22.7245 C   0  0  0  0  0  0  0  0  0  0  0  0
  -29.7468  -25.0390   20.7409 C   0  0  0  0  0  0  0  0  0  0  0  0
  -20.9166  -27.8846   21.8073 C   0  0  0  0  0  0  0  0  0  0  0  0
  -30.4276  -16.8395   22.7755 C   0  0  0  0  0  0  0  0  0  0  0  0
  -26.0133  -36.5469   25.0015 C   0  0  0  0  0  0  0  0  0  0  0  0
  -25.4210  -31.4772   20.2620 C   0  0  0  0  0  0  0  0  0  0  0  0
  -24.7843  -29.1473   21.9683 C   0  0  0  0  0  0  0  0  0  0  0  0
  -25.2158  -35.2629   25.2154 C   0  0  0  0  0  0  0  0  0  0  0  0
  -29.8443  -13.3469   23.1478 C   0  0  0  0  0  0  0  0  0  0  0  0
  -26.1412  -34.0505   25.1974 C   0  0  0  0  0  0  0  0  0  0  0  0
  -28.5764  -13.1016   22.3266 C   0  0  0  0  0  0  0  0  0  0  0  0
  -29.8034  -14.6951   23.8650 C   0  0  0  0  0  0  0  0  0  0  0  0
  -28.2517  -15.6037   22.1810 C   0  0  0  0  0  0  0  0  0  0  0  0
  -26.8452  -33.9139   23.8420 C   0  0  1  0  0  0  0  0  0  0  0  0
  -24.7595  -31.6384   21.6272 C   0  0  1  0  0  0  0  0  0  0  0  0
  -28.2746  -14.2865   21.3883 C   0  0  2  0  0  0  0  0  0  0  0  0
  -18.5857  -26.9746   21.9967 C   0  0  0  0  0  0  0  0  0  0  0  0
  -23.3809  -29.7600   25.6187 C   0  0  0  0  0  0  0  0  0  0  0  0
  -21.5171  -28.0977   25.4416 C   0  0  0  0  0  0  0  0  0  0  0  0
  -21.0441  -30.5323   25.1740 C   0  0  0  0  0  0  0  0  0  0  0  0
  -29.1899  -24.0226   22.9566 C   0  0  0  0  0  0  0  0  0  0  0  0
  -20.5454  -27.9058   18.8712 C   0  0  0  0  0  0  0  0  0  0  0  0
  -31.2693  -23.3651   21.8111 C   0  0  0  0  0  0  0  0  0  0  0  0
  -28.4535  -25.8207   20.8357 C   0  0  0  0  0  0  0  0  0  1  0  0
  -22.2654  -29.2976   23.3365 C   0  0  1  0  0  0  0  0  0  0  0  0
  -19.5467  -27.8030   21.1584 C   0  0  2  0  0  0  0  0  0  0  0  0
  -32.1928  -21.6495   24.0065 C   0  0  0  0  0  0  0  0  0  0  0  0
  -22.0738  -29.4211   24.8745 C   0  0  0  0  0  0  0  0  0  0  0  0
  -25.9916  -13.3790   21.1745 N   0  0  0  0  0  0  0  0  0  0  0  0
  -26.9929  -14.0714   20.6053 N   0  0  0  0  0  0  0  0  0  0  0  0
  -24.0626  -30.4270   22.0642 N   0  0  0  0  0  0  0  0  0  0  0  0
  -29.5171  -15.7705   22.9129 N   0  0  0  0  0  0  0  0  0  0  0  0
  -27.6091  -15.2208   18.6280 N   0  0  0  0  0  0  0  0  0  0  0  0
  -23.4236  -13.7793   17.7337 N   0  0  0  0  0  0  0  0  0  0  0  0
  -30.0658  -17.7855   21.8170 N   0  0  0  0  0  0  0  0  0  0  0  0
  -25.9439  -33.3527   22.8586 N   0  0  0  0  0  0  0  0  0  0  0  0
  -21.0389  -29.0039   22.6032 N   0  0  0  0  0  0  0  0  0  0  0  0
  -30.0555  -24.1773   21.7940 N   0  0  0  0  0  0  0  0  0  0  0  0
  -19.6494  -27.1804   19.8083 N   0  3  0  0  0  0  0  0  0  0  0  0
  -25.2193  -14.9254   16.8849 O   0  0  0  0  0  0  0  0  0  0  0  0
  -26.2707  -31.1024   23.3604 O   0  0  0  0  0  0  0  0  0  0  0  0
  -22.2035  -31.6124   22.8223 O   0  0  0  0  0  0  0  0  0  0  0  0
  -30.4599  -25.1907   19.7442 O   0  0  0  0  0  0  0  0  0  0  0  0
  -21.7896  -27.0380   21.6292 O   0  0  0  0  0  0  0  0  0  0  0  0
  -31.4664  -16.8965   23.4386 O   0  0  0  0  0  0  0  0  0  0  0  0
  -20.1562  -10.8303   21.1487 O   0  0  0  0  0  0  0  0  0  0  0  0
  -28.2980  -26.6329   19.6727 O   0  0  0  0  0  0  0  0  0  1  0  0
  -18.1200   -7.6642   17.1196 F   0  0  0  0  0  0  0  0  0  0  0  0
  -19.6823   -8.1383   21.5626 F   0  0  0  0  0  0  0  0  0  0  0  0
  -32.5444  -20.7215   24.9441 F   0  0  0  0  0  0  0  0  0  0  0  0
  -33.3666  -22.2275   23.6174 F   0  0  0  0  0  0  0  0  0  0  0  0
  -31.5127  -22.6181   24.6847 F   0  0  0  0  0  0  0  0  0  0  0  0
  1  2  1  0  0  0  0
  1  5  2  0  0  0  0
  2  6  2  0  0  0  0
  3 10  2  0  0  0  0
  3 18  1  0  0  0  0
  4 11  1  0  0  0  0
  4 18  2  0  0  0  0
  5 20  1  0  0  0  0
  6 22  1  0  0  0  0
  7 12  2  0  0  0  0
  7 21  1  0  0  0  0
  8  9  2  0  0  0  0
  8 24  1  0  0  0  0
  9 26  1  0  0  0  0
 10 27  1  0  0  0  0
 11 27  2  0  0  0  0
 12 28  1  0  0  0  0
 13 14  2  0  0  0  0
 13 29  1  0  0  0  0
 14 30  1  0  0  0  0
 15 23  1  0  0  0  0
 15 28  2  0  0  0  0
 16 25  1  0  0  0  0
 16 26  2  0  0  0  0
 17 30  2  0  0  0  0
 17 31  1  0  0  0  0
 18 32  1  0  0  0  0
 19 32  1  0  0  0  0
 19 33  2  0  0  0  0
 19 34  1  0  0  0  0
 20 22  2  0  0  0  0
 20 40  1  0  0  0  0
 21 23  2  0  0  0  0
 21 41  1  0  0  0  0
 22 49  1  0  0  0  0
 23 42  1  0  0  0  0
 24 25  2  0  0  0  0
 24 58  1  0  0  0  0
 25 62  1  0  0  0  0
 26 70  1  0  0  0  0
 27 81  1  0  0  0  0
 28 82  1  0  0  0  0
 29 31  2  0  0  0  0
 29 81  1  0  0  0  0
 30 83  1  0  0  0  0
 31 84  1  0  0  0  0
 32 64  2  0  0  0  0
 33 65  1  0  0  0  0
 33 68  1  0  0  0  0
 34 69  1  0  0  0  0
 34 75  2  0  0  0  0
 35 50  1  0  0  0  0
 35 71  1  0  0  0  0
 35 76  2  0  0  0  0
 36 60  1  0  0  0  0
 36 66  1  0  0  0  0
 36 77  2  0  0  0  0
 37 59  1  0  0  0  0
 37 73  1  0  0  0  0
 37 78  2  0  0  0  0
 38 61  1  0  0  0  0
 38 72  1  0  0  0  0
 38 79  2  0  0  0  0
 39 67  1  0  0  0  0
 39 70  1  0  0  0  0
 39 80  2  0  0  0  0
 40 43  1  0  0  0  0
 41 50  1  0  0  0  0
 42 66  1  0  0  0  0
 43 45  1  0  0  0  0
 44 46  1  0  0  0  0
 44 47  1  0  0  0  0
 45 49  1  0  0  0  0
 46 51  1  0  0  0  0
 47 67  1  0  0  0  0
 48 51  1  0  0  0  0
 48 67  1  0  0  0  0
 49 71  1  0  0  0  0
 50 66  1  0  0  0  0
 51 65  1  0  0  0  0
 52 61  1  0  0  0  0
 53 63  1  0  0  0  0
 54 63  1  0  0  0  0
 55 63  1  0  0  0  0
 56 73  1  0  0  0  0
 57 74  1  0  0  0  0
 58 73  1  0  0  0  0
 59 82  1  0  0  0  0
 60 63  1  0  0  0  0
 60 72  1  0  0  0  0
 61 74  1  0  0  0  0
 62 85  1  0  0  0  0
 62 86  1  0  0  0  0
 62 87  1  0  0  0  0
 64 65  1  0  0  0  0
M  CHG  1  74   1
M  ISO  4  39 100  59 101  70 100  82 101
M  END
> <Batch ID>
0050

> <Smiles>
CNC(C)C(=O)NC(C(=O)N1Cc2cc([101O:1][101CH2:1]C(=O)N(C)Cc3ccc([100NH:0][100C:0](=O)N4CCCC(n5nc(-c6ccc(Oc7ccc(F)cc7F)cc6)c(C(N)=O)c5N)C4)cc3C(F)(F)F)ccc2CC1C(=O)NC1CCCc2ccccc21)C(C)(C)C

> <Shape>
0.265

> <Color>
0.073

> <Negative vol penalty>
0.000

$$$$

  -OEChem-04042322353D

 84 92  0     1  0  0  0  0  0999 V2000
  -21.8281  -17.1664   21.8986 C   0  0  0  0  0  0  0  0  0  0  0  0
  -23.1350  -17.6052   22.0853 C   0  0  0  0  0  0  0  0  0  0  0  0
  -26.6245  -12.2140   21.7456 C   0  0  0  0  0  0  0  0  0  0  0  0
  -25.8194  -13.7457   20.0596 C   0  0  0  0  0  0  0  0  0  0  0  0
  -20.9019  -17.9899   21.2599 C   0  0  0  0  0  0  0  0  0  0  0  0
  -23.5168  -18.8675   21.6324 C   0  0  0  0  0  0  0  0  0  0  0  0
  -27.9027  -24.2923   23.2610 C   0  0  0  0  0  0  0  0  0  0  0  0
  -31.1275  -23.0734   19.8896 C   0  0  0  0  0  0  0  0  0  0  0  0
  -30.8070  -22.0812   20.8161 C   0  0  0  0  0  0  0  0  0  0  0  0
  -25.3737  -11.5979   21.7833 C   0  0  0  0  0  0  0  0  0  0  0  0
  -24.5685  -13.1296   20.0972 C   0  0  0  0  0  0  0  0  0  0  0  0
  -28.8909  -25.0888   22.6841 C   0  0  0  0  0  0  0  0  0  0  0  0
  -23.6433   -9.3584   19.9331 C   0  0  0  0  0  0  0  0  0  0  0  0
  -23.6072   -7.9641   19.9329 C   0  0  0  0  0  0  0  0  0  0  0  0
  -27.1851  -26.4566   21.6651 C   0  0  0  0  0  0  0  0  0  0  0  0
  -29.2792  -22.3730   18.5002 C   0  0  0  0  0  0  0  0  0  0  0  0
  -22.4626   -7.9933   22.0603 C   0  0  0  0  0  0  0  0  0  0  0  0
  -26.8474  -13.2880   20.8838 C   0  0  0  0  0  0  0  0  0  0  0  0
  -29.2283  -13.5888   20.0189 C   0  0  0  0  0  0  0  0  0  0  0  0
  -21.2701  -19.2668   20.8075 C   0  0  0  0  0  0  0  0  0  0  0  0
  -26.5460  -24.5659   23.0349 C   0  0  0  0  0  0  0  0  0  0  0  0
  -22.5951  -19.7084   20.9858 C   0  0  0  0  0  0  0  0  0  0  0  0
  -26.1816  -25.6636   22.2423 C   0  0  0  0  0  0  0  0  0  0  0  0
  -30.3635  -23.2194   18.7317 C   0  0  0  0  0  0  0  0  0  0  0  0
  -28.9588  -21.3807   19.4267 C   0  0  0  0  0  0  0  0  0  0  0  0
  -29.7227  -21.2348   20.5847 C   0  0  0  0  0  0  0  0  0  0  0  0
  -24.3457  -12.0557   20.9591 C   0  0  0  0  0  0  0  0  0  0  0  0
  -28.5322  -26.1694   21.8837 C   0  0  0  0  0  0  0  0  0  0  0  0
  -23.0891  -10.0703   20.9970 C   0  0  0  0  0  0  0  0  0  0  0  0
  -23.0168   -7.2815   20.9965 C   0  0  0  0  0  0  0  0  0  0  0  0
  -22.4987   -9.3877   22.0606 C   0  0  0  0  0  0  0  0  0  0  0  0
  -28.1391  -13.9251   20.8448 C   0  0  0  0  0  0  0  0  0  0  0  0
  -30.2101  -14.4854   20.3634 C   0  0  0  0  0  0  0  0  0  0  0  0
  -29.3424  -12.5581   19.0288 C   0  0  0  0  0  0  0  0  0  0  0  0
  -24.1348  -22.9933   21.6873 C   0  0  0  0  0  0  0  0  0  0  0  0
  -22.3979  -25.5063   22.7781 C   0  0  0  0  0  0  0  0  0  0  0  0
  -31.1408  -26.4284   18.9308 C   0  0  0  0  0  0  0  0  0  0  0  0
  -22.3328  -28.7725   23.7652 C   0  0  0  0  0  0  0  0  0  0  0  0
  -30.0815  -19.9692   22.7331 C   0  0  0  0  0  0  0  0  0  0  0  0
  -20.2464  -20.1025   20.0805 C   0  0  0  0  0  0  0  0  0  0  0  0
  -25.4919  -23.7132   23.6862 C   0  0  0  0  0  0  0  0  0  0  0  0
  -24.7390  -26.0120   21.9852 C   0  0  0  0  0  0  0  0  0  0  0  0
  -20.6332  -21.5746   19.9644 C   0  0  0  0  0  0  0  0  0  0  0  0
  -31.7506  -17.1162   24.0566 C   0  0  0  0  0  0  0  0  0  0  0  0
  -22.0835  -21.7115   19.5121 C   0  0  0  0  0  0  0  0  0  0  0  0
  -31.1173  -15.9440   23.3036 C   0  0  0  0  0  0  0  0  0  0  0  0
  -30.7299  -18.2104   24.3644 C   0  0  0  0  0  0  0  0  0  0  0  0
  -29.3377  -17.5232   22.4516 C   0  0  0  0  0  0  0  0  0  0  0  0
  -23.0409  -21.0811   20.5306 C   0  0  1  0  0  0  0  0  0  0  0  0
  -24.1464  -23.7756   22.9700 C   0  0  1  0  0  0  0  0  0  0  0  0
  -30.3408  -16.4252   22.0622 C   0  0  2  0  0  0  0  0  0  0  0  0
  -27.7937  -20.4863   19.1514 C   0  0  0  0  0  0  0  0  0  0  0  0
  -20.7610  -30.5578   24.5649 C   0  0  0  0  0  0  0  0  0  0  0  0
  -21.3580  -25.8622   19.9317 C   0  0  0  0  0  0  0  0  0  0  0  0
  -20.5843  -28.1547   20.5754 C   0  0  0  0  0  0  0  0  0  0  0  0
  -19.6310  -26.1521   21.7172 C   0  0  0  0  0  0  0  0  0  0  0  0
  -23.7705  -29.0488   26.3373 C   0  0  0  0  0  0  0  0  0  0  0  0
  -30.7100  -24.2859   17.7333 C   0  0  0  0  0  0  0  0  0  0  0  0
  -30.4569  -27.7456   19.2625 C   0  0  0  0  0  0  0  0  0  0  0  0
  -29.1814  -27.5655   20.0711 C   0  0  0  0  0  0  0  0  0  1  0  0
  -22.0057  -26.8552   22.2253 C   0  0  1  0  0  0  0  0  0  0  0  0
  -21.7141  -29.4466   24.9765 C   0  0  2  0  0  0  0  0  0  0  0  0
  -20.9220  -26.7486   21.1155 C   0  0  0  0  0  0  0  0  0  0  0  0
  -28.4037  -14.9549   21.6533 N   0  0  0  0  0  0  0  0  0  0  0  0
  -29.6704  -15.2733   21.3370 N   0  0  0  0  0  0  0  0  0  0  0  0
  -23.7453  -25.1444   22.6389 N   0  0  0  0  0  0  0  0  0  0  0  0
  -30.0364  -18.6193   23.1410 N   0  0  0  0  0  0  0  0  0  0  0  0
  -31.4739  -14.6687   19.9254 N   0  0  0  0  0  0  0  0  0  0  0  0
  -28.2383  -11.7255   18.8007 N   0  0  0  0  0  0  0  0  0  0  0  0
  -29.4135  -20.2331   21.5379 N   0  0  0  0  0  0  0  0  0  0  0  0
  -23.2189  -21.9587   21.6675 N   0  0  0  0  0  0  0  0  0  0  0  0
  -30.3136  -25.5998   18.1861 N   0  0  0  0  0  0  0  0  0  0  0  0
  -21.6097  -27.6666   23.3712 N   0  0  0  0  0  0  0  0  0  0  0  0
  -22.7762  -30.0346   25.8409 N   0  3  0  0  0  0  0  0  0  0  0  0
  -30.3979  -12.3702   18.3775 O   0  0  0  0  0  0  0  0  0  0  0  0
  -24.8991  -23.3060   20.7819 O   0  0  0  0  0  0  0  0  0  0  0  0
  -21.5417  -24.8028   23.3201 O   0  0  0  0  0  0  0  0  0  0  0  0
  -32.2831  -26.1539   19.2879 O   0  0  0  0  0  0  0  0  0  0  0  0
  -23.3533  -29.1879   23.2206 O   0  0  0  0  0  0  0  0  0  0  0  0
  -30.6925  -20.8229   23.3812 O   0  0  0  0  0  0  0  0  0  0  0  0
  -23.1250  -11.4546   20.9954 O   0  0  0  0  0  0  0  0  0  0  0  0
  -29.4948  -26.9481   21.3189 O   0  0  0  0  0  0  0  0  0  1  0  0
  -22.9809   -5.9425   20.9954 F   0  0  0  0  0  0  0  0  0  0  0  0
  -21.9636  -10.0662   23.0849 F   0  0  0  0  0  0  0  0  0  0  0  0
  1  2  1  0  0  0  0
  1  5  2  0  0  0  0
  2  6  2  0  0  0  0
  3 10  2  0  0  0  0
  3 18  1  0  0  0  0
  4 11  1  0  0  0  0
  4 18  2  0  0  0  0
  5 20  1  0  0  0  0
  6 22  1  0  0  0  0
  7 12  2  0  0  0  0
  7 21  1  0  0  0  0
  8  9  2  0  0  0  0
  8 24  1  0  0  0  0
  9 26  1  0  0  0  0
 10 27  1  0  0  0  0
 11 27  2  0  0  0  0
 12 28  1  0  0  0  0
 13 14  2  0  0  0  0
 13 29  1  0  0  0  0
 14 30  1  0  0  0  0
 15 23  1  0  0  0  0
 15 28  2  0  0  0  0
 16 24  2  0  0  0  0
 16 25  1  0  0  0  0
 17 30  2  0  0  0  0
 17 31  1  0  0  0  0
 18 32  1  0  0  0  0
 19 32  1  0  0  0  0
 19 33  2  0  0  0  0
 19 34  1  0  0  0  0
 20 22  2  0  0  0  0
 20 40  1  0  0  0  0
 21 23  2  0  0  0  0
 21 41  1  0  0  0  0
 22 49  1  0  0  0  0
 23 42  1  0  0  0  0
 24 58  1  0  0  0  0
 25 26  2  0  0  0  0
 25 52  1  0  0  0  0
 26 70  1  0  0  0  0
 27 81  1  0  0  0  0
 28 82  1  0  0  0  0
 29 31  2  0  0  0  0
 29 81  1  0  0  0  0
 30 83  1  0  0  0  0
 31 84  1  0  0  0  0
 32 64  2  0  0  0  0
 33 65  1  0  0  0  0
 33 68  1  0  0  0  0
 34 69  1  0  0  0  0
 34 75  2  0  0  0  0
 35 50  1  0  0  0  0
 35 71  1  0  0  0  0
 35 76  2  0  0  0  0
 36 61  1  0  0  0  0
 36 66  1  0  0  0  0
 36 77  2  0  0  0  0
 37 59  1  0  0  0  0
 37 72  1  0  0  0  0
 37 78  2  0  0  0  0
 38 62  1  0  0  0  0
 38 73  1  0  0  0  0
 38 79  2  0  0  0  0
 39 67  1  0  0  0  0
 39 70  1  0  0  0  0
 39 80  2  0  0  0  0
 40 43  1  0  0  0  0
 41 50  1  0  0  0  0
 42 66  1  0  0  0  0
 43 45  1  0  0  0  0
 44 46  1  0  0  0  0
 44 47  1  0  0  0  0
 45 49  1  0  0  0  0
 46 51  1  0  0  0  0
 47 67  1  0  0  0  0
 48 51  1  0  0  0  0
 48 67  1  0  0  0  0
 49 71  1  0  0  0  0
 50 66  1  0  0  0  0
 51 65  1  0  0  0  0
 53 62  1  0  0  0  0
 54 63  1  0  0  0  0
 55 63  1  0  0  0  0
 56 63  1  0  0  0  0
 57 74  1  0  0  0  0
 58 72  1  0  0  0  0
 59 60  1  0  0  0  0
 60 82  1  0  0  0  0
 61 63  1  0  0  0  0
 61 73  1  0  0  0  0
 62 74  1  0  0  0  0
 64 65  1  0  0  0  0
M  CHG  1  74   1
M  ISO  4  39 100  60 101  70 100  82 101
M  END
> <Batch ID>
0050

> <Smiles>
CNC(C)C(=O)NC(C(=O)N1Cc2cc([101O:1][101CH2:1]CC(=O)NCc3ccc([100NH:0][100C:0](=O)N4CCCC(n5nc(-c6ccc(Oc7ccc(F)cc7F)cc6)c(C(N)=O)c5N)C4)c(C)c3)ccc2CC1C(=O)NC1CCCc2ccccc21)C(C)(C)C

> <Shape>
0.250

> <Color>
0.065

> <Negative vol penalty>
0.000

$$$$

  -OEChem-04042322353D

 85 93  0     1  0  0  0  0  0999 V2000
  -17.7579  -25.7133   22.7549 C   0  0  0  0  0  0  0  0  0  0  0  0
  -19.0293  -25.4017   22.2838 C   0  0  0  0  0  0  0  0  0  0  0  0
  -29.4438  -20.3578   14.8603 C   0  0  0  0  0  0  0  0  0  0  0  0
  -24.9470  -13.5957   21.9448 C   0  0  0  0  0  0  0  0  0  0  0  0
  -26.2172  -13.4282   19.8965 C   0  0  0  0  0  0  0  0  0  0  0  0
  -17.3289  -27.0398   22.7747 C   0  0  0  0  0  0  0  0  0  0  0  0
  -19.8719  -26.4163   21.8311 C   0  0  0  0  0  0  0  0  0  0  0  0
  -25.9673  -26.6561   22.3745 C   0  0  0  0  0  0  0  0  0  0  0  0
  -28.9617  -21.5681   14.3622 C   0  0  0  0  0  0  0  0  0  0  0  0
  -29.2258  -20.0165   16.1952 C   0  0  0  0  0  0  0  0  0  0  0  0
  -24.1159  -12.5616   21.5140 C   0  0  0  0  0  0  0  0  0  0  0  0
  -25.3861  -12.3941   19.4657 C   0  0  0  0  0  0  0  0  0  0  0  0
  -27.0006  -26.3477   21.4908 C   0  0  0  0  0  0  0  0  0  0  0  0
  -25.0298   -9.0831   20.0411 C   0  0  0  0  0  0  0  0  0  0  0  0
  -25.6346   -7.9595   19.4781 C   0  0  0  0  0  0  0  0  0  0  0  0
  -27.1473  -28.6718   20.8610 C   0  0  0  0  0  0  0  0  0  0  0  0
  -28.0437  -22.0963   16.5337 C   0  0  0  0  0  0  0  0  0  0  0  0
  -24.4280   -8.3412   17.4201 C   0  0  0  0  0  0  0  0  0  0  0  0
  -25.9976  -14.0290   21.1360 C   0  0  0  0  0  0  0  0  0  0  0  0
  -28.0441  -14.9792   22.3264 C   0  0  0  0  0  0  0  0  0  0  0  0
  -18.1703  -28.0722   22.3310 C   0  0  0  0  0  0  0  0  0  0  0  0
  -25.5081  -27.9751   22.5003 C   0  0  0  0  0  0  0  0  0  0  0  0
  -19.4532  -27.7576   21.8437 C   0  0  0  0  0  0  0  0  0  0  0  0
  -26.1098  -28.9946   21.7488 C   0  0  0  0  0  0  0  0  0  0  0  0
  -28.2617  -22.4374   15.1989 C   0  0  0  0  0  0  0  0  0  0  0  0
  -28.5258  -20.8858   17.0319 C   0  0  0  0  0  0  0  0  0  0  0  0
  -24.3355  -11.9608   20.2745 C   0  0  0  0  0  0  0  0  0  0  0  0
  -27.5889  -27.3552   20.7317 C   0  0  0  0  0  0  0  0  0  0  0  0
  -24.1239   -9.8358   19.2937 C   0  0  0  0  0  0  0  0  0  0  0  0
  -25.3338   -7.5885   18.1676 C   0  0  0  0  0  0  0  0  0  0  0  0
  -23.8231   -9.4648   17.9832 C   0  0  0  0  0  0  0  0  0  0  0  0
  -26.8561  -15.0975   21.5803 C   0  0  0  0  0  0  0  0  0  0  0  0
  -28.4778  -16.2723   22.4886 C   0  0  0  0  0  0  0  0  0  0  0  0
  -28.5499  -25.5268   16.7983 C   0  0  0  0  0  0  0  0  0  0  0  0
  -29.2074  -25.8338   17.9254 C   0  0  0  0  0  0  0  0  0  0  0  0
  -28.6971  -13.8054   22.8278 C   0  0  0  0  0  0  0  0  0  0  0  0
  -29.2477  -25.6111   15.4828 C   0  0  0  0  0  0  0  0  0  0  0  0
  -22.7376  -29.4447   21.9821 C   0  0  0  0  0  0  0  0  0  0  0  0
  -24.2819  -31.9782   23.2933 C   0  0  0  0  0  0  0  0  0  0  0  0
  -27.2455  -33.5185   23.9945 C   0  0  0  0  0  0  0  0  0  0  0  0
  -27.6291  -21.2867   19.3517 C   0  0  0  0  0  0  0  0  0  0  0  0
  -17.6448  -29.4859   22.3273 C   0  0  0  0  0  0  0  0  0  0  0  0
  -24.4106  -28.2955   23.4776 C   0  0  0  0  0  0  0  0  0  0  0  0
  -25.6671  -30.4298   21.8619 C   0  0  0  0  0  0  0  0  0  0  0  0
  -18.7377  -30.5415   22.1800 C   0  0  0  0  0  0  0  0  0  0  0  0
  -26.8393  -20.7626   22.7837 C   0  0  0  0  0  0  0  0  0  0  0  0
  -19.7010  -30.1599   21.0605 C   0  0  0  0  0  0  0  0  0  0  0  0
  -26.8681  -19.2398   22.9339 C   0  0  0  0  0  0  0  0  0  0  0  0
  -26.2717  -21.1884   21.4308 C   0  0  0  0  0  0  0  0  0  0  0  0
  -26.9443  -19.0471   20.4151 C   0  0  0  0  0  0  0  0  0  0  0  0
  -20.4056  -28.8329   21.3673 C   0  0  1  0  0  0  0  0  0  0  0  0
  -23.6754  -29.5907   23.1470 C   0  0  1  0  0  0  0  0  0  0  0  0
  -27.5684  -18.5686   21.7362 C   0  0  2  0  0  0  0  0  0  0  0  0
  -28.1865  -35.5964   25.0405 C   0  0  0  0  0  0  0  0  0  0  0  0
  -23.5057  -33.5757   20.8122 C   0  0  0  0  0  0  0  0  0  0  0  0
  -25.2286  -35.2755   21.4530 C   0  0  0  0  0  0  0  0  0  0  0  0
  -23.2971  -34.8281   22.9669 C   0  0  0  0  0  0  0  0  0  0  0  0
  -29.4631  -24.7273   13.1917 C   0  0  0  0  0  0  0  0  0  0  0  0
  -28.6952  -31.9646   26.0542 C   0  0  0  0  0  0  0  0  0  0  0  0
  -27.7431  -23.7401   14.6622 C   0  0  0  0  0  0  0  0  0  0  0  0
  -28.5878  -25.7551   19.2833 C   0  0  0  0  0  0  0  0  0  1  0  0
  -25.1344  -33.1038   22.7592 C   0  0  1  0  0  0  0  0  0  0  0  0
  -27.7756  -34.1501   25.2690 C   0  0  2  0  0  0  0  0  0  0  0  0
  -24.2987  -34.1685   21.9940 C   0  0  0  0  0  0  0  0  0  0  0  0
  -26.5544  -16.3656   21.2889 N   0  0  0  0  0  0  0  0  0  0  0  0
  -27.5589  -17.0560   21.8548 N   0  0  0  0  0  0  0  0  0  0  0  0
  -24.5862  -30.6916   22.8266 N   0  0  0  0  0  0  0  0  0  0  0  0
  -26.9866  -20.5161   20.3437 N   0  0  0  0  0  0  0  0  0  0  0  0
  -29.5517  -16.8040   23.1103 N   0  0  0  0  0  0  0  0  0  0  0  0
  -28.1161  -12.5562   22.5706 N   0  0  0  0  0  0  0  0  0  0  0  0
  -28.3039  -20.5386   18.3876 N   0  0  0  0  0  0  0  0  0  0  0  0
  -21.4653  -29.0346   22.3321 N   0  0  0  0  0  0  0  0  0  0  0  0
  -25.8745  -33.6320   23.9001 N   0  0  0  0  0  0  0  0  0  0  0  0
  -28.8093  -24.7258   14.4940 N   0  0  0  0  0  0  0  0  0  0  0  0
  -28.9620  -33.3973   25.7656 N   0  3  0  0  0  0  0  0  0  0  0  0
  -29.7554  -13.8639   23.4986 O   0  0  0  0  0  0  0  0  0  0  0  0
  -30.1700  -26.4135   15.3305 O   0  0  0  0  0  0  0  0  0  0  0  0
  -23.1383  -29.6877   20.8498 O   0  0  0  0  0  0  0  0  0  0  0  0
  -23.3838  -32.2304   24.1004 O   0  0  0  0  0  0  0  0  0  0  0  0
  -27.9750  -32.9815   23.1638 O   0  0  0  0  0  0  0  0  0  0  0  0
  -27.6068  -22.5200   19.3723 O   0  0  0  0  0  0  0  0  0  0  0  0
  -23.5248  -10.9516   19.8539 O   0  0  0  0  0  0  0  0  0  0  0  0
  -28.5972  -27.0569   19.8680 O   0  0  0  0  0  0  0  0  0  1  0  0
  -25.9159   -6.5103   17.6265 F   0  0  0  0  0  0  0  0  0  0  0  0
  -22.9545  -10.1847   17.2598 F   0  0  0  0  0  0  0  0  0  0  0  0
  1  2  1  0  0  0  0
  1  6  2  0  0  0  0
  2  7  2  0  0  0  0
  3  9  2  0  0  0  0
  3 10  1  0  0  0  0
  4 11  2  0  0  0  0
  4 19  1  0  0  0  0
  5 12  1  0  0  0  0
  5 19  2  0  0  0  0
  6 21  1  0  0  0  0
  7 23  1  0  0  0  0
  8 13  2  0  0  0  0
  8 22  1  0  0  0  0
  9 25  1  0  0  0  0
 10 26  2  0  0  0  0
 11 27  1  0  0  0  0
 12 27  2  0  0  0  0
 13 28  1  0  0  0  0
 14 15  2  0  0  0  0
 14 29  1  0  0  0  0
 15 30  1  0  0  0  0
 16 24  1  0  0  0  0
 16 28  2  0  0  0  0
 17 25  2  0  0  0  0
 17 26  1  0  0  0  0
 18 30  2  0  0  0  0
 18 31  1  0  0  0  0
 19 32  1  0  0  0  0
 20 32  1  0  0  0  0
 20 33  2  0  0  0  0
 20 36  1  0  0  0  0
 21 23  2  0  0  0  0
 21 42  1  0  0  0  0
 22 24  2  0  0  0  0
 22 43  1  0  0  0  0
 23 51  1  0  0  0  0
 24 44  1  0  0  0  0
 25 60  1  0  0  0  0
 26 71  1  0  0  0  0
 27 82  1  0  0  0  0
 28 83  1  0  0  0  0
 29 31  2  0  0  0  0
 29 82  1  0  0  0  0
 30 84  1  0  0  0  0
 31 85  1  0  0  0  0
 32 65  2  0  0  0  0
 33 66  1  0  0  0  0
 33 69  1  0  0  0  0
 34 35  2  0  0  0  0
 34 37  1  0  0  0  0
 35 61  1  0  0  0  0
 36 70  1  0  0  0  0
 36 76  2  0  0  0  0
 37 74  1  0  0  0  0
 37 77  2  0  0  0  0
 38 52  1  0  0  0  0
 38 72  1  0  0  0  0
 38 78  2  0  0  0  0
 39 62  1  0  0  0  0
 39 67  1  0  0  0  0
 39 79  2  0  0  0  0
 40 63  1  0  0  0  0
 40 73  1  0  0  0  0
 40 80  2  0  0  0  0
 41 68  1  0  0  0  0
 41 71  1  0  0  0  0
 41 81  2  0  0  0  0
 42 45  1  0  0  0  0
 43 52  1  0  0  0  0
 44 67  1  0  0  0  0
 45 47  1  0  0  0  0
 46 48  1  0  0  0  0
 46 49  1  0  0  0  0
 47 51  1  0  0  0  0
 48 53  1  0  0  0  0
 49 68  1  0  0  0  0
 50 53  1  0  0  0  0
 50 68  1  0  0  0  0
 51 72  1  0  0  0  0
 52 67  1  0  0  0  0
 53 66  1  0  0  0  0
 54 63  1  0  0  0  0
 55 64  1  0  0  0  0
 56 64  1  0  0  0  0
 57 64  1  0  0  0  0
 58 74  1  0  0  0  0
 59 75  1  0  0  0  0
 60 74  1  0  0  0  0
 61 83  1  0  0  0  0
 62 64  1  0  0  0  0
 62 73  1  0  0  0  0
 63 75  1  0  0  0  0
 65 66  1  0  0  0  0
M  CHG  1  75   1
M  ISO  4  41 100  61 101  71 100  83 101
M  END
> <Batch ID>
0050

> <Smiles>
CNC(C)C(=O)NC(C(=O)N1Cc2cc([101O:1][101CH2:1]C=CC(=O)N(C)Cc3cccc([100NH:0][100C:0](=O)N4CCCC(n5nc(-c6ccc(Oc7ccc(F)cc7F)cc6)c(C(N)=O)c5N)C4)c3)ccc2CC1C(=O)NC1CCCc2ccccc21)C(C)(C)C

> <Shape>
0.233

> <Color>
0.096

> <Negative vol penalty>
0.000

$$$$

  -OEChem-04042322353D

 90 99  0     1  0  0  0  0  0999 V2000
  -15.6703  -28.1566   26.5189 C   0  0  0  0  0  0  0  0  0  0  0  0
  -16.5018  -27.1209   26.1048 C   0  0  0  0  0  0  0  0  0  0  0  0
  -22.6088  -13.4661   18.7395 C   0  0  0  0  0  0  0  0  0  0  0  0
  -22.5454  -11.1160   19.2963 C   0  0  0  0  0  0  0  0  0  0  0  0
  -15.7245  -29.3922   25.8753 C   0  0  0  0  0  0  0  0  0  0  0  0
  -17.3871  -27.3199   25.0460 C   0  0  0  0  0  0  0  0  0  0  0  0
  -22.9755  -24.8956   24.4148 C   0  0  0  0  0  0  0  0  0  0  0  0
  -21.4458  -13.3185   17.9838 C   0  0  0  0  0  0  0  0  0  0  0  0
  -21.3823  -10.9683   18.5406 C   0  0  0  0  0  0  0  0  0  0  0  0
  -23.4457  -23.7970   23.6966 C   0  0  0  0  0  0  0  0  0  0  0  0
  -18.1206  -13.0817   18.5498 C   0  0  0  0  0  0  0  0  0  0  0  0
  -17.1206  -14.0417   18.7048 C   0  0  0  0  0  0  0  0  0  0  0  0
  -30.2945  -16.6675   21.1360 C   0  0  0  0  0  0  0  0  0  0  0  0
  -30.4863  -14.9002   22.7722 C   0  0  0  0  0  0  0  0  0  0  0  0
  -24.0735  -25.2587   21.8832 C   0  0  0  0  0  0  0  0  0  0  0  0
  -17.2898  -14.5966   16.3595 C   0  0  0  0  0  0  0  0  0  0  0  0
  -23.1587  -12.3648   19.3958 C   0  0  0  0  0  0  0  0  0  0  0  0
  -30.5742  -15.3376   21.4506 C   0  0  0  0  0  0  0  0  0  0  0  0
  -24.4510  -12.8379   21.5437 C   0  0  0  0  0  0  0  0  0  0  0  0
  -16.6178  -29.6095   24.8144 C   0  0  0  0  0  0  0  0  0  0  0  0
  -23.0409  -26.1849   23.8671 C   0  0  0  0  0  0  0  0  0  0  0  0
  -17.4523  -28.5592   24.3868 C   0  0  0  0  0  0  0  0  0  0  0  0
  -23.6058  -26.3724   22.5975 C   0  0  0  0  0  0  0  0  0  0  0  0
  -29.9272  -17.5599   22.1431 C   0  0  0  0  0  0  0  0  0  0  0  0
  -29.8393  -17.1225   23.4646 C   0  0  0  0  0  0  0  0  0  0  0  0
  -20.8325  -12.0696   17.8844 C   0  0  0  0  0  0  0  0  0  0  0  0
  -23.9921  -23.9781   22.4294 C   0  0  0  0  0  0  0  0  0  0  0  0
  -18.7053  -12.8792   17.2996 C   0  0  0  0  0  0  0  0  0  0  0  0
  -16.7052  -14.7991   17.6096 C   0  0  0  0  0  0  0  0  0  0  0  0
  -30.1189  -15.7927   23.7792 C   0  0  0  0  0  0  0  0  0  0  0  0
  -18.2899  -13.6366   16.2045 C   0  0  0  0  0  0  0  0  0  0  0  0
  -24.3604  -12.5166   20.1761 C   0  0  0  0  0  0  0  0  0  0  0  0
  -25.7997  -12.8619   21.8022 C   0  0  0  0  0  0  0  0  0  0  0  0
  -27.2357  -18.9061   21.4721 C   0  0  0  0  0  0  0  0  0  0  0  0
  -26.6262  -17.7287   21.2496 C   0  0  0  0  0  0  0  0  0  0  0  0
  -30.9633  -14.3975   20.3915 C   0  0  0  0  0  0  0  0  0  0  0  0
  -23.4091  -13.0920   22.4954 C   0  0  0  0  0  0  0  0  0  0  0  0
  -20.8994  -28.3932   23.0664 C   0  0  0  0  0  0  0  0  0  0  0  0
  -23.5397  -30.1957   22.5170 C   0  0  0  0  0  0  0  0  0  0  0  0
  -26.8722  -30.3062   21.7896 C   0  0  0  0  0  0  0  0  0  0  0  0
  -16.6069  -30.9476   24.1187 C   0  0  0  0  0  0  0  0  0  0  0  0
  -22.5538  -27.3629   24.6656 C   0  0  0  0  0  0  0  0  0  0  0  0
  -23.7176  -27.7384   21.9731 C   0  0  0  0  0  0  0  0  0  0  0  0
  -26.6438  -19.9359   22.4019 C   0  0  0  0  0  0  0  0  0  0  0  0
  -17.8378  -31.1923   23.2497 C   0  0  0  0  0  0  0  0  0  0  0  0
  -29.7302  -11.3496   19.0018 C   0  0  0  0  0  0  0  0  0  0  0  0
  -18.1353  -29.9688   22.3887 C   0  0  0  0  0  0  0  0  0  0  0  0
  -27.1033  -22.1679   21.2235 C   0  0  0  0  0  0  0  0  0  0  0  0
  -28.2268  -11.4140   19.2770 C   0  0  0  0  0  0  0  0  0  0  0  0
  -28.4627  -21.6742   20.7218 C   0  0  0  0  0  0  0  0  0  0  0  0
  -30.3057  -12.7288   18.6906 C   0  0  0  0  0  0  0  0  0  0  0  0
  -28.5123  -13.8246   19.9896 C   0  0  0  0  0  0  0  0  0  0  0  0
  -18.4436  -28.7440   23.2583 C   0  0  1  0  0  0  0  0  0  0  0  0
  -22.1999  -28.5672   23.7985 C   0  0  1  0  0  0  0  0  0  0  0  0
  -26.0537  -21.1232   21.6319 C   0  0  2  0  0  0  0  0  0  0  0  0
  -27.9019  -12.4623   20.3577 C   0  0  1  0  0  0  0  0  0  0  0  0
  -28.4595  -20.3702   19.9168 C   0  0  1  0  0  0  0  0  0  0  0  0
  -29.4492  -18.0626   24.5577 C   0  0  0  0  0  0  0  0  0  0  0  0
  -29.6126  -21.4352   17.9713 C   0  0  0  0  0  0  0  0  0  0  0  0
  -28.7433  -31.9238   21.3653 C   0  0  0  0  0  0  0  0  0  0  0  0
  -22.4380  -30.7334   19.7228 C   0  0  0  0  0  0  0  0  0  0  0  0
  -24.7180  -31.5201   19.0511 C   0  0  0  0  0  0  0  0  0  0  0  0
  -23.4628  -32.7220   20.8407 C   0  0  0  0  0  0  0  0  0  0  0  0
  -28.4161  -29.3081   24.1088 C   0  0  0  0  0  0  0  0  0  0  0  0
  -29.6337  -18.9861   21.7812 C   0  0  0  0  0  0  0  0  0  0  0  0
  -24.9609  -21.8064   22.4630 C   0  0  0  0  0  0  0  0  0  1  0  0
  -29.6533  -20.3165   18.9569 C   0  0  0  0  0  0  0  0  0  0  0  0
  -24.4383  -30.4412   21.3290 C   0  0  1  0  0  0  0  0  0  0  0  0
  -28.0129  -31.0933   22.4091 C   0  0  2  0  0  0  0  0  0  0  0  0
  -23.7605  -31.3281   20.2466 C   0  0  0  0  0  0  0  0  0  0  0  0
  -25.5563  -12.3486   19.6056 N   0  0  0  0  0  0  0  0  0  0  0  0
  -26.4112  -12.5653   20.6196 N   0  0  0  0  0  0  0  0  0  0  0  0
  -29.9538  -13.6851   19.7397 N   0  0  0  0  0  0  0  0  0  0  0  0
  -23.2217  -28.8579   22.7907 N   0  0  0  0  0  0  0  0  0  0  0  0
  -26.5105  -13.1076   22.9233 N   0  0  0  0  0  0  0  0  0  0  0  0
  -22.0779  -13.0261   22.0622 N   0  0  0  0  0  0  0  0  0  0  0  0
  -19.7928  -28.8186   23.7764 N   0  0  0  0  0  0  0  0  0  0  0  0
  -25.6789  -30.9931   21.8627 N   0  0  0  0  0  0  0  0  0  0  0  0
  -28.4960  -19.1249   20.8008 N   0  3  1  0  0  0  0  0  0  0  0  0
  -28.9941  -30.1695   23.0454 N   0  3  0  0  0  0  0  0  0  0  0  0
  -32.1687  -14.3011   20.1664 O   0  0  0  0  0  0  0  0  0  0  0  0
  -23.6520  -13.3854   23.6906 O   0  0  0  0  0  0  0  0  0  0  0  0
  -20.8999  -27.9102   21.9402 O   0  0  0  0  0  0  0  0  0  0  0  0
  -23.1407  -31.1549   23.1819 O   0  0  0  0  0  0  0  0  0  0  0  0
  -27.0253  -29.1950   21.2874 O   0  0  0  0  0  0  0  0  0  0  0  0
  -19.6975  -11.9252   17.1472 O   0  0  0  0  0  0  0  0  0  0  0  0
  -24.4558  -22.8969   21.7191 O   0  0  0  0  0  0  0  0  0  1  0  0
  -15.7438  -15.7198   17.7583 F   0  0  0  0  0  0  0  0  0  0  0  0
  -30.0390  -15.3627   25.0463 F   0  0  0  0  0  0  0  0  0  0  0  0
  -18.8470  -13.4458   15.0007 F   0  0  0  0  0  0  0  0  0  0  0  0
  1  2  1  0  0  0  0
  1  5  2  0  0  0  0
  2  6  2  0  0  0  0
  3  8  2  0  0  0  0
  3 17  1  0  0  0  0
  4  9  1  0  0  0  0
  4 17  2  0  0  0  0
  5 20  1  0  0  0  0
  6 22  1  0  0  0  0
  7 10  2  0  0  0  0
  7 21  1  0  0  0  0
  8 26  1  0  0  0  0
  9 26  2  0  0  0  0
 10 27  1  0  0  0  0
 11 12  2  0  0  0  0
 11 28  1  0  0  0  0
 12 29  1  0  0  0  0
 13 18  2  0  0  0  0
 13 24  1  0  0  0  0
 14 18  1  0  0  0  0
 14 30  2  0  0  0  0
 15 23  1  0  0  0  0
 15 27  2  0  0  0  0
 16 29  2  0  0  0  0
 16 31  1  0  0  0  0
 17 32  1  0  0  0  0
 18 36  1  0  0  0  0
 19 32  1  0  0  0  0
 19 33  2  0  0  0  0
 19 37  1  0  0  0  0
 20 22  2  0  0  0  0
 20 41  1  0  0  0  0
 21 23  2  0  0  0  0
 21 42  1  0  0  0  0
 22 53  1  0  0  0  0
 23 43  1  0  0  0  0
 24 25  2  0  0  0  0
 24 65  1  0  0  0  0
 25 30  1  0  0  0  0
 25 58  1  0  0  0  0
 26 86  1  0  0  0  0
 27 87  1  0  0  0  0
 28 31  2  0  0  0  0
 28 86  1  0  0  0  0
 29 88  1  0  0  0  0
 30 89  1  0  0  0  0
 31 90  1  0  0  0  0
 32 71  2  0  0  0  0
 33 72  1  0  0  0  0
 33 75  1  0  0  0  0
 34 35  2  0  0  0  0
 34 44  1  0  0  0  0
 34 79  1  0  0  0  0
 36 73  1  0  0  0  0
 36 81  2  0  0  0  0
 37 76  1  0  0  0  0
 37 82  2  0  0  0  0
 38 54  1  0  0  0  0
 38 77  1  0  0  0  0
 38 83  2  0  0  0  0
 39 68  1  0  0  0  0
 39 74  1  0  0  0  0
 39 84  2  0  0  0  0
 40 69  1  0  0  0  0
 40 78  1  0  0  0  0
 40 85  2  0  0  0  0
 41 45  1  0  0  0  0
 42 54  1  0  0  0  0
 43 74  1  0  0  0  0
 44 55  1  0  0  0  0
 45 47  1  0  0  0  0
 46 49  1  0  0  0  0
 46 51  1  0  0  0  0
 47 53  1  0  0  0  0
 48 50  1  0  0  0  0
 48 55  1  0  0  0  0
 49 56  1  0  0  0  0
 50 57  1  0  0  0  0
 51 73  1  0  0  0  0
 52 56  1  0  0  0  0
 52 73  1  0  0  0  0
 53 77  1  0  0  0  0
 54 74  1  0  0  0  0
 55 66  1  0  0  0  0
 56 72  1  0  0  0  0
 57 67  1  0  0  0  0
 57 79  1  0  0  0  0
 59 67  1  0  0  0  0
 60 69  1  0  0  0  0
 61 70  1  0  0  0  0
 62 70  1  0  0  0  0
 63 70  1  0  0  0  0
 64 80  1  0  0  0  0
 65 79  1  0  0  0  0
 66 87  1  0  0  0  0
 68 70  1  0  0  0  0
 68 78  1  0  0  0  0
 69 80  1  0  0  0  0
 71 72  1  0  0  0  0
M  CHG  2  79   1  80   1
M  ISO  4  18 100  36 100  66 101  87 101
M  END
> <Batch ID>
0050

> <Smiles>
C=C1CC([101CH2:1][101O:1]c2ccc3c(c2)CN(C(=O)C(NC(=O)C(C)NC)C(C)(C)C)C(C(=O)NC2CCCc4ccccc42)C3)CCC(CC)N1Cc1c[100c:0]([100C:0](=O)N2CCCC(n3nc(-c4ccc(Oc5ccc(F)cc5F)cc4)c(C(N)=O)c3N)C2)cc(F)c1C

> <Shape>
0.254

> <Color>
0.092

> <Negative vol penalty>
0.000

$$$$

  -OEChem-04042322353D

 92101  0     1  0  0  0  0  0999 V2000
  -24.9167  -34.2608   21.8755 C   0  0  0  0  0  0  0  0  0  0  0  0
  -25.7112  -33.7386   22.8911 C   0  0  0  0  0  0  0  0  0  0  0  0
  -31.1422  -21.5975   29.7461 C   0  0  0  0  0  0  0  0  0  0  0  0
  -23.1468   -9.7884   19.8925 C   0  0  0  0  0  0  0  0  0  0  0  0
  -23.9042   -9.7742   22.1867 C   0  0  0  0  0  0  0  0  0  0  0  0
  -31.9135  -20.5795   29.1855 C   0  0  0  0  0  0  0  0  0  0  0  0
  -24.3718  -33.4126   20.9124 C   0  0  0  0  0  0  0  0  0  0  0  0
  -25.9602  -32.3677   22.9449 C   0  0  0  0  0  0  0  0  0  0  0  0
  -31.0346  -27.6861   24.8555 C   0  0  0  0  0  0  0  0  0  0  0  0
  -31.0366  -22.8291   29.0997 C   0  0  0  0  0  0  0  0  0  0  0  0
  -32.4575  -17.6580   23.5616 C   0  0  0  0  0  0  0  0  0  0  0  0
  -31.8843  -16.7790   22.6427 C   0  0  0  0  0  0  0  0  0  0  0  0
  -22.4449   -8.6041   20.1168 C   0  0  0  0  0  0  0  0  0  0  0  0
  -23.2022   -8.5898   22.4110 C   0  0  0  0  0  0  0  0  0  0  0  0
  -31.2098  -26.5497   25.6439 C   0  0  0  0  0  0  0  0  0  0  0  0
  -20.0046   -7.6632   22.9915 C   0  0  0  0  0  0  0  0  0  0  0  0
  -19.2487   -7.5711   24.1601 C   0  0  0  0  0  0  0  0  0  0  0  0
  -30.2807  -25.1906   23.8807 C   0  0  0  0  0  0  0  0  0  0  0  0
  -30.2581  -18.4367   24.1887 C   0  0  0  0  0  0  0  0  0  0  0  0
  -20.5588   -5.6646   24.8573 C   0  0  0  0  0  0  0  0  0  0  0  0
  -23.8765  -10.3734   20.9274 C   0  0  0  0  0  0  0  0  0  0  0  0
  -32.5795  -20.7931   27.9786 C   0  0  0  0  0  0  0  0  0  0  0  0
  -24.1268  -12.9113   20.8614 C   0  0  0  0  0  0  0  0  0  0  0  0
  -24.6222  -32.0318   20.9488 C   0  0  0  0  0  0  0  0  0  0  0  0
  -30.4701  -27.5846   23.5759 C   0  0  0  0  0  0  0  0  0  0  0  0
  -25.4170  -31.5000   21.9822 C   0  0  0  0  0  0  0  0  0  0  0  0
  -30.1018  -26.3270   23.0770 C   0  0  0  0  0  0  0  0  0  0  0  0
  -31.6444  -18.4868   24.3347 C   0  0  0  0  0  0  0  0  0  0  0  0
  -31.7026  -23.0427   27.8928 C   0  0  0  0  0  0  0  0  0  0  0  0
  -29.6848  -17.5578   23.2698 C   0  0  0  0  0  0  0  0  0  0  0  0
  -32.4740  -22.0247   27.3323 C   0  0  0  0  0  0  0  0  0  0  0  0
  -30.4980  -16.7289   22.4968 C   0  0  0  0  0  0  0  0  0  0  0  0
  -22.4726   -8.0048   21.3761 C   0  0  0  0  0  0  0  0  0  0  0  0
  -30.8301  -25.3021   25.1577 C   0  0  0  0  0  0  0  0  0  0  0  0
  -21.0376   -6.7560   22.7557 C   0  0  0  0  0  0  0  0  0  0  0  0
  -19.5258   -6.5718   25.0930 C   0  0  0  0  0  0  0  0  0  0  0  0
  -21.3147   -5.7567   23.6886 C   0  0  0  0  0  0  0  0  0  0  0  0
  -24.6021  -11.5965   20.6961 C   0  0  0  0  0  0  0  0  0  0  0  0
  -25.1914  -13.7073   20.5158 C   0  0  0  0  0  0  0  0  0  0  0  0
  -34.6896  -19.5457   27.7159 C   0  0  0  0  0  0  0  0  0  0  0  0
  -33.3767  -19.7079   27.4215 C   0  0  0  0  0  0  0  0  0  0  0  0
  -22.8382  -13.3718   21.2892 C   0  0  0  0  0  0  0  0  0  0  0  0
  -27.8528  -28.7287   22.1815 C   0  0  0  0  0  0  0  0  0  0  0  0
  -29.1533  -27.3911   19.5279 C   0  0  0  0  0  0  0  0  0  0  0  0
  -31.2553  -25.0574   18.1928 C   0  0  0  0  0  0  0  0  0  0  0  0
  -30.6160  -14.9459   20.7210 C   0  0  0  0  0  0  0  0  0  0  0  0
  -23.9726  -31.1486   19.9131 C   0  0  0  0  0  0  0  0  0  0  0  0
  -30.3125  -28.8166   22.7275 C   0  0  0  0  0  0  0  0  0  0  0  0
  -29.5100  -26.1616   21.7020 C   0  0  0  0  0  0  0  0  0  0  0  0
  -24.5918  -29.7561   19.8252 C   0  0  0  0  0  0  0  0  0  0  0  0
  -29.5915  -12.5442   18.3004 C   0  0  0  0  0  0  0  0  0  0  0  0
  -24.7761  -29.1649   21.2193 C   0  0  0  0  0  0  0  0  0  0  0  0
  -28.1630  -12.1917   18.7215 C   0  0  0  0  0  0  0  0  0  0  0  0
  -30.4968  -12.7804   19.5081 C   0  0  0  0  0  0  0  0  0  0  0  0
  -28.5638  -13.4059   20.9014 C   0  0  0  0  0  0  0  0  0  0  0  0
  -25.7304  -30.0216   22.0601 C   0  0  1  0  0  0  0  0  0  0  0  0
  -29.2531  -28.6621   21.6407 C   0  0  1  0  0  0  0  0  0  0  0  0
  -27.5988  -13.2226   19.7187 C   0  0  2  0  0  0  0  0  0  0  0  0
  -28.1970  -17.5275   23.1323 C   0  0  0  0  0  0  0  0  0  0  0  0
  -33.1846  -22.2657   26.0363 C   0  0  0  0  0  0  0  0  0  0  0  0
  -35.6191  -18.4746   27.2355 C   0  0  0  0  0  0  0  0  0  0  0  0
  -32.0803  -24.1790   15.9917 C   0  0  0  0  0  0  0  0  0  0  0  0
  -26.5118  -25.9170   19.1287 C   0  0  0  0  0  0  0  0  0  0  0  0
  -27.6875  -24.3854   17.5350 C   0  0  0  0  0  0  0  0  0  0  0  0
  -27.5280  -26.8233   17.0310 C   0  0  0  0  0  0  0  0  0  0  0  0
  -34.0545  -25.7856   18.8197 C   0  0  0  0  0  0  0  0  0  0  0  0
  -31.6983  -18.0056   27.2969 C   0  0  0  0  0  0  0  0  0  0  0  0
  -32.2612  -19.4339   25.3214 C   0  0  0  0  0  0  0  0  0  0  0  0
  -31.5720  -24.3770   27.2192 C   0  0  0  0  0  0  0  0  0  1  0  0
  -29.0776  -26.0359   18.8670 C   0  0  1  0  0  0  0  0  0  0  0  0
  -32.3289  -25.1624   17.1248 C   0  0  2  0  0  0  0  0  0  0  0  0
  -27.7105  -25.7934   18.1672 C   0  0  0  0  0  0  0  0  0  0  0  0
  -25.8700  -11.5554   20.2779 N   0  0  0  0  0  0  0  0  0  0  0  0
  -26.2003  -12.8542   20.1773 N   0  0  0  0  0  0  0  0  0  0  0  0
  -29.3701  -27.3968   20.9131 N   0  0  0  0  0  0  0  0  0  0  0  0
  -29.9002  -13.7715   20.4062 N   0  0  0  0  0  0  0  0  0  0  0  0
  -25.3535  -15.0467   20.4713 N   0  0  0  0  0  0  0  0  0  0  0  0
  -21.8595  -12.4197   21.6056 N   0  0  0  0  0  0  0  0  0  0  0  0
  -29.9350  -15.8294   21.5578 N   0  0  0  0  0  0  0  0  0  0  0  0
  -27.1035  -29.7739   21.6758 N   0  0  0  0  0  0  0  0  0  0  0  0
  -30.2288  -25.9519   17.9749 N   0  0  0  0  0  0  0  0  0  0  0  0
  -33.6701  -24.8773   17.7087 N   0  3  0  0  0  0  0  0  0  0  0  0
  -32.7643  -18.7505   26.5549 N   0  3  1  0  0  0  0  0  0  0  0  0
  -22.5575  -14.5916   21.3722 O   0  0  0  0  0  0  0  0  0  0  0  0
  -27.4793  -27.8929   22.9961 O   0  0  0  0  0  0  0  0  0  0  0  0
  -29.0320  -28.4073   18.8393 O   0  0  0  0  0  0  0  0  0  0  0  0
  -31.3189  -24.2589   19.1250 O   0  0  0  0  0  0  0  0  0  0  0  0
  -31.7386  -15.1652   20.2588 O   0  0  0  0  0  0  0  0  0  0  0  0
  -21.7877   -6.8492   21.5954 O   0  0  0  0  0  0  0  0  0  0  0  0
  -30.9994  -24.1913   25.9254 O   0  0  0  0  0  0  0  0  0  1  0  0
  -18.8008   -6.4845   26.2159 F   0  0  0  0  0  0  0  0  0  0  0  0
  -22.3066   -4.8830   23.4682 F   0  0  0  0  0  0  0  0  0  0  0  0
  1  2  1  0  0  0  0
  1  7  2  0  0  0  0
  2  8  2  0  0  0  0
  3  6  2  0  0  0  0
  3 10  1  0  0  0  0
  4 13  2  0  0  0  0
  4 21  1  0  0  0  0
  5 14  1  0  0  0  0
  5 21  2  0  0  0  0
  6 22  1  0  0  0  0
  7 24  1  0  0  0  0
  8 26  1  0  0  0  0
  9 15  2  0  0  0  0
  9 25  1  0  0  0  0
 10 29  2  0  0  0  0
 11 12  2  0  0  0  0
 11 28  1  0  0  0  0
 12 32  1  0  0  0  0
 13 33  1  0  0  0  0
 14 33  2  0  0  0  0
 15 34  1  0  0  0  0
 16 17  2  0  0  0  0
 16 35  1  0  0  0  0
 17 36  1  0  0  0  0
 18 27  1  0  0  0  0
 18 34  2  0  0  0  0
 19 28  2  0  0  0  0
 19 30  1  0  0  0  0
 20 36  2  0  0  0  0
 20 37  1  0  0  0  0
 21 38  1  0  0  0  0
 22 31  2  0  0  0  0
 22 41  1  0  0  0  0
 23 38  1  0  0  0  0
 23 39  2  0  0  0  0
 23 42  1  0  0  0  0
 24 26  2  0  0  0  0
 24 47  1  0  0  0  0
 25 27  2  0  0  0  0
 25 48  1  0  0  0  0
 26 56  1  0  0  0  0
 27 49  1  0  0  0  0
 28 68  1  0  0  0  0
 29 31  1  0  0  0  0
 29 69  1  0  0  0  0
 30 32  2  0  0  0  0
 30 59  1  0  0  0  0
 31 60  1  0  0  0  0
 32 79  1  0  0  0  0
 33 89  1  0  0  0  0
 34 90  1  0  0  0  0
 35 37  2  0  0  0  0
 35 89  1  0  0  0  0
 36 91  1  0  0  0  0
 37 92  1  0  0  0  0
 38 73  2  0  0  0  0
 39 74  1  0  0  0  0
 39 77  1  0  0  0  0
 40 41  2  0  0  0  0
 40 61  1  0  0  0  0
 41 83  1  0  0  0  0
 42 78  1  0  0  0  0
 42 84  2  0  0  0  0
 43 57  1  0  0  0  0
 43 80  1  0  0  0  0
 43 85  2  0  0  0  0
 44 70  1  0  0  0  0
 44 75  1  0  0  0  0
 44 86  2  0  0  0  0
 45 71  1  0  0  0  0
 45 81  1  0  0  0  0
 45 87  2  0  0  0  0
 46 76  1  0  0  0  0
 46 79  1  0  0  0  0
 46 88  2  0  0  0  0
 47 50  1  0  0  0  0
 48 57  1  0  0  0  0
 49 75  1  0  0  0  0
 50 52  1  0  0  0  0
 51 53  1  0  0  0  0
 51 54  1  0  0  0  0
 52 56  1  0  0  0  0
 53 58  1  0  0  0  0
 54 76  1  0  0  0  0
 55 58  1  0  0  0  0
 55 76  1  0  0  0  0
 56 80  1  0  0  0  0
 57 75  1  0  0  0  0
 58 74  1  0  0  0  0
 62 71  1  0  0  0  0
 63 72  1  0  0  0  0
 64 72  1  0  0  0  0
 65 72  1  0  0  0  0
 66 82  1  0  0  0  0
 67 83  1  0  0  0  0
 68 83  1  0  0  0  0
 69 90  1  0  0  0  0
 70 72  1  0  0  0  0
 70 81  1  0  0  0  0
 71 82  1  0  0  0  0
 73 74  1  0  0  0  0
M  CHG  2  82   1  83   1
M  ISO  4  46 100  69 101  79 100  90 101
M  END
> <Batch ID>
0050

> <Smiles>
CC=C(c1cccc([101CH2:1][101O:1]c2ccc3c(c2)CN(C(=O)C(NC(=O)C(C)NC)C(C)(C)C)C(C(=O)NC2CCCc4ccccc42)C3)c1C)N(C)Cc1ccc([100NH:0][100C:0](=O)N2CCCC(n3nc(-c4ccc(Oc5ccc(F)cc5F)cc4)c(C(N)=O)c3N)C2)c(C)c1

> <Shape>
0.283

> <Color>
0.203

> <Negative vol penalty>
0.000

$$$$

  -OEChem-04042322353D

 84 92  0     1  0  0  0  0  0999 V2000
  -31.7922  -32.6260   23.4921 C   0  0  0  0  0  0  0  0  0  0  0  0
  -31.6624  -31.5512   22.6184 C   0  0  0  0  0  0  0  0  0  0  0  0
  -21.6704  -22.0261   19.4181 C   0  0  0  0  0  0  0  0  0  0  0  0
  -23.9532   -9.7698   21.9967 C   0  0  0  0  0  0  0  0  0  0  0  0
  -22.1949  -10.3701   20.4523 C   0  0  0  0  0  0  0  0  0  0  0  0
  -30.9276  -32.7477   24.5791 C   0  0  0  0  0  0  0  0  0  0  0  0
  -30.6684  -30.5968   22.8319 C   0  0  0  0  0  0  0  0  0  0  0  0
  -27.5123  -27.5492   18.5591 C   0  0  0  0  0  0  0  0  0  0  0  0
  -22.1533  -21.9888   18.1100 C   0  0  0  0  0  0  0  0  0  0  0  0
  -21.9778  -20.9940   20.3048 C   0  0  0  0  0  0  0  0  0  0  0  0
  -23.4695   -8.4622   22.0391 C   0  0  0  0  0  0  0  0  0  0  0  0
  -21.7112   -9.0624   20.4948 C   0  0  0  0  0  0  0  0  0  0  0  0
  -27.6579  -26.2727   18.0175 C   0  0  0  0  0  0  0  0  0  0  0  0
  -20.9549   -6.7849   23.5517 C   0  0  0  0  0  0  0  0  0  0  0  0
  -20.8484   -6.1744   24.8013 C   0  0  0  0  0  0  0  0  0  0  0  0
  -26.0145  -25.4329   19.5709 C   0  0  0  0  0  0  0  0  0  0  0  0
  -22.3746   -4.4436   24.0856 C   0  0  0  0  0  0  0  0  0  0  0  0
  -23.3158  -10.7238   21.2033 C   0  0  0  0  0  0  0  0  0  0  0  0
  -24.7732  -12.5987   20.2715 C   0  0  0  0  0  0  0  0  0  0  0  0
  -29.9164  -31.7995   24.8005 C   0  0  0  0  0  0  0  0  0  0  0  0
  -26.6232  -27.7753   19.6196 C   0  0  0  0  0  0  0  0  0  0  0  0
  -29.7903  -30.7051   23.9236 C   0  0  0  0  0  0  0  0  0  0  0  0
  -25.8575  -26.7136   20.1224 C   0  0  0  0  0  0  0  0  0  0  0  0
  -22.9435  -20.9194   17.6886 C   0  0  0  0  0  0  0  0  0  0  0  0
  -23.2509  -19.8874   18.5752 C   0  0  0  0  0  0  0  0  0  0  0  0
  -22.7681  -19.9247   19.8833 C   0  0  0  0  0  0  0  0  0  0  0  0
  -22.3485   -8.1085   21.2882 C   0  0  0  0  0  0  0  0  0  0  0  0
  -26.9111  -25.2138   18.5254 C   0  0  0  0  0  0  0  0  0  0  0  0
  -21.7712   -6.2248   22.5690 C   0  0  0  0  0  0  0  0  0  0  0  0
  -21.5582   -5.0037   25.0683 C   0  0  0  0  0  0  0  0  0  0  0  0
  -22.4810   -5.0541   22.8360 C   0  0  0  0  0  0  0  0  0  0  0  0
  -23.8146  -12.0748   21.1595 C   0  0  0  0  0  0  0  0  0  0  0  0
  -24.8984  -13.9160   20.6395 C   0  0  0  0  0  0  0  0  0  0  0  0
  -25.4864  -11.9524   19.2088 C   0  0  0  0  0  0  0  0  0  0  0  0
  -26.9212  -28.7744   22.6224 C   0  0  0  0  0  0  0  0  0  0  0  0
  -23.6788  -28.7018   22.5573 C   0  0  0  0  0  0  0  0  0  0  0  0
  -25.3128  -22.5491   16.0889 C   0  0  0  0  0  0  0  0  0  0  0  0
  -20.8369  -27.4280   21.1618 C   0  0  0  0  0  0  0  0  0  0  0  0
  -22.6591  -18.7911   22.1303 C   0  0  0  0  0  0  0  0  0  0  0  0
  -29.0358  -31.9477   26.0159 C   0  0  0  0  0  0  0  0  0  0  0  0
  -26.4581  -29.1634   20.1749 C   0  0  0  0  0  0  0  0  0  0  0  0
  -24.8744  -26.9078   21.2467 C   0  0  0  0  0  0  0  0  0  0  0  0
  -27.7703  -31.0959   25.9587 C   0  0  0  0  0  0  0  0  0  0  0  0
  -23.1566  -16.3807   24.7032 C   0  0  0  0  0  0  0  0  0  0  0  0
  -28.1031  -29.6745   25.5163 C   0  0  0  0  0  0  0  0  0  0  0  0
  -23.4510  -15.0887   23.9376 C   0  0  0  0  0  0  0  0  0  0  0  0
  -22.1114  -17.2368   23.9902 C   0  0  0  0  0  0  0  0  0  0  0  0
  -22.6997  -16.2386   21.8162 C   0  0  0  0  0  0  0  0  0  0  0  0
  -28.7088  -29.6627   24.1077 C   0  0  1  0  0  0  0  0  0  0  0  0
  -25.9011  -29.1765   21.5951 C   0  0  1  0  0  0  0  0  0  0  0  0
  -23.7943  -15.3736   22.4623 C   0  0  2  0  0  0  0  0  0  0  0  0
  -24.0994  -18.7422   18.1184 C   0  0  0  0  0  0  0  0  0  0  0  0
  -18.3361  -27.5295   21.3445 C   0  0  0  0  0  0  0  0  0  0  0  0
  -23.7927  -26.9520   25.0544 C   0  0  0  0  0  0  0  0  0  0  0  0
  -21.4075  -26.3178   24.6339 C   0  0  0  0  0  0  0  0  0  0  0  0
  -22.0024  -28.6980   25.0847 C   0  0  0  0  0  0  0  0  0  0  0  0
  -20.5602  -28.4464   18.3968 C   0  0  0  0  0  0  0  0  0  0  0  0
  -23.4502  -20.9042   16.2753 C   0  0  0  0  0  0  0  0  0  0  0  0
  -26.8315  -22.6008   16.0303 C   0  0  0  0  0  0  0  0  0  0  0  0
  -27.4054  -23.8801   16.6193 C   0  0  0  0  0  0  0  0  0  1  0  0
  -22.6264  -27.6638   22.8637 C   0  0  1  0  0  0  0  0  0  0  0  0
  -19.5704  -28.1006   20.6638 C   0  0  2  0  0  0  0  0  0  0  0  0
  -22.4771  -27.4035   24.3893 C   0  0  0  0  0  0  0  0  0  0  0  0
  -23.3632  -12.9850   22.0265 N   0  0  0  0  0  0  0  0  0  0  0  0
  -24.0410  -14.0941   21.6852 N   0  0  0  0  0  0  0  0  0  0  0  0
  -24.7533  -28.2822   21.7603 N   0  0  0  0  0  0  0  0  0  0  0  0
  -22.5057  -17.4691   22.5991 N   0  0  0  0  0  0  0  0  0  0  0  0
  -25.6574  -14.9278   20.1676 N   0  0  0  0  0  0  0  0  0  0  0  0
  -25.2373  -10.5948   18.9658 N   0  0  0  0  0  0  0  0  0  0  0  0
  -23.0685  -18.8875   20.8008 N   0  0  0  0  0  0  0  0  0  0  0  0
  -27.6727  -29.8262   23.1106 N   0  0  0  0  0  0  0  0  0  0  0  0
  -24.8527  -21.2449   16.1999 N   0  0  0  0  0  0  0  0  0  0  0  0
  -21.4027  -28.1187   22.2125 N   0  0  0  0  0  0  0  0  0  0  0  0
  -19.4265  -27.9097   19.1928 N   0  3  0  0  0  0  0  0  0  0  0  0
  -26.3320  -12.5567   18.5064 O   0  0  0  0  0  0  0  0  0  0  0  0
  -27.0182  -27.5973   22.9491 O   0  0  0  0  0  0  0  0  0  0  0  0
  -23.5486  -29.8447   23.0026 O   0  0  0  0  0  0  0  0  0  0  0  0
  -24.6025  -23.5497   16.0422 O   0  0  0  0  0  0  0  0  0  0  0  0
  -21.2780  -26.3914   20.6704 O   0  0  0  0  0  0  0  0  0  0  0  0
  -22.4697  -19.7654   22.8629 O   0  0  0  0  0  0  0  0  0  0  0  0
  -21.8764   -6.8326   21.3292 O   0  0  0  0  0  0  0  0  0  0  0  0
  -27.0517  -23.9667   17.9991 O   0  0  0  0  0  0  0  0  0  1  0  0
  -21.4571   -4.4184   26.2688 F   0  0  0  0  0  0  0  0  0  0  0  0
  -23.2677   -4.5119   21.8964 F   0  0  0  0  0  0  0  0  0  0  0  0
  1  2  1  0  0  0  0
  1  6  2  0  0  0  0
  2  7  2  0  0  0  0
  3  9  2  0  0  0  0
  3 10  1  0  0  0  0
  4 11  2  0  0  0  0
  4 18  1  0  0  0  0
  5 12  1  0  0  0  0
  5 18  2  0  0  0  0
  6 20  1  0  0  0  0
  7 22  1  0  0  0  0
  8 13  2  0  0  0  0
  8 21  1  0  0  0  0
  9 24  1  0  0  0  0
 10 26  2  0  0  0  0
 11 27  1  0  0  0  0
 12 27  2  0  0  0  0
 13 28  1  0  0  0  0
 14 15  2  0  0  0  0
 14 29  1  0  0  0  0
 15 30  1  0  0  0  0
 16 23  1  0  0  0  0
 16 28  2  0  0  0  0
 17 30  2  0  0  0  0
 17 31  1  0  0  0  0
 18 32  1  0  0  0  0
 19 32  1  0  0  0  0
 19 33  2  0  0  0  0
 19 34  1  0  0  0  0
 20 22  2  0  0  0  0
 20 40  1  0  0  0  0
 21 23  2  0  0  0  0
 21 41  1  0  0  0  0
 22 49  1  0  0  0  0
 23 42  1  0  0  0  0
 24 25  2  0  0  0  0
 24 58  1  0  0  0  0
 25 26  1  0  0  0  0
 25 52  1  0  0  0  0
 26 70  1  0  0  0  0
 27 81  1  0  0  0  0
 28 82  1  0  0  0  0
 29 31  2  0  0  0  0
 29 81  1  0  0  0  0
 30 83  1  0  0  0  0
 31 84  1  0  0  0  0
 32 64  2  0  0  0  0
 33 65  1  0  0  0  0
 33 68  1  0  0  0  0
 34 69  1  0  0  0  0
 34 75  2  0  0  0  0
 35 50  1  0  0  0  0
 35 71  1  0  0  0  0
 35 76  2  0  0  0  0
 36 61  1  0  0  0  0
 36 66  1  0  0  0  0
 36 77  2  0  0  0  0
 37 59  1  0  0  0  0
 37 72  1  0  0  0  0
 37 78  2  0  0  0  0
 38 62  1  0  0  0  0
 38 73  1  0  0  0  0
 38 79  2  0  0  0  0
 39 67  1  0  0  0  0
 39 70  1  0  0  0  0
 39 80  2  0  0  0  0
 40 43  1  0  0  0  0
 41 50  1  0  0  0  0
 42 66  1  0  0  0  0
 43 45  1  0  0  0  0
 44 46  1  0  0  0  0
 44 47  1  0  0  0  0
 45 49  1  0  0  0  0
 46 51  1  0  0  0  0
 47 67  1  0  0  0  0
 48 51  1  0  0  0  0
 48 67  1  0  0  0  0
 49 71  1  0  0  0  0
 50 66  1  0  0  0  0
 51 65  1  0  0  0  0
 53 62  1  0  0  0  0
 54 63  1  0  0  0  0
 55 63  1  0  0  0  0
 56 63  1  0  0  0  0
 57 74  1  0  0  0  0
 58 72  1  0  0  0  0
 59 60  1  0  0  0  0
 60 82  1  0  0  0  0
 61 63  1  0  0  0  0
 61 73  1  0  0  0  0
 62 74  1  0  0  0  0
 64 65  1  0  0  0  0
M  CHG  1  74   1
M  ISO  4  39 100  60 101  70 100  82 101
M  END
> <Batch ID>
0050

> <Smiles>
CNC(C)C(=O)NC(C(=O)N1Cc2cc([101O:1][101CH2:1]CC(=O)NCc3cccc([100NH:0][100C:0](=O)N4CCCC(n5nc(-c6ccc(Oc7ccc(F)cc7F)cc6)c(C(N)=O)c5N)C4)c3C)ccc2CC1C(=O)NC1CCCc2ccccc21)C(C)(C)C

> <Shape>
0.204

> <Color>
0.111

> <Negative vol penalty>
0.000

$$$$

  -OEChem-04042322353D

 84 92  0     1  0  0  0  0  0999 V2000
  -16.6569  -29.0767   23.6393 C   0  0  0  0  0  0  0  0  0  0  0  0
  -17.6103  -28.2995   22.9895 C   0  0  0  0  0  0  0  0  0  0  0  0
  -23.7334   -8.5027   20.0904 C   0  0  0  0  0  0  0  0  0  0  0  0
  -23.0396  -10.3938   21.4245 C   0  0  0  0  0  0  0  0  0  0  0  0
  -28.3984  -19.3913   18.3865 C   0  0  0  0  0  0  0  0  0  0  0  0
  -16.9726  -30.3741   24.0407 C   0  0  0  0  0  0  0  0  0  0  0  0
  -18.8798  -28.8195   22.7397 C   0  0  0  0  0  0  0  0  0  0  0  0
  -24.1835  -25.7575   22.7676 C   0  0  0  0  0  0  0  0  0  0  0  0
  -28.3342  -17.9987   18.4325 C   0  0  0  0  0  0  0  0  0  0  0  0
  -22.8488   -7.6834   20.7917 C   0  0  0  0  0  0  0  0  0  0  0  0
  -22.1549   -9.5745   22.1257 C   0  0  0  0  0  0  0  0  0  0  0  0
  -24.9588  -25.2151   21.7437 C   0  0  0  0  0  0  0  0  0  0  0  0
  -22.7499   -6.1089   23.7809 C   0  0  0  0  0  0  0  0  0  0  0  0
  -23.2176   -4.8655   24.2059 C   0  0  0  0  0  0  0  0  0  0  0  0
  -26.3185  -27.2077   21.7261 C   0  0  0  0  0  0  0  0  0  0  0  0
  -30.3423  -17.9504   19.7750 C   0  0  0  0  0  0  0  0  0  0  0  0
  -21.5032   -3.7741   22.8995 C   0  0  0  0  0  0  0  0  0  0  0  0
  -23.8289   -9.8579   20.4069 C   0  0  0  0  0  0  0  0  0  0  0  0
  -29.4347  -20.0635   19.0346 C   0  0  0  0  0  0  0  0  0  0  0  0
  -24.4771  -11.4352   18.5096 C   0  0  0  0  0  0  0  0  0  0  0  0
  -18.2497  -30.9069   23.8044 C   0  0  0  0  0  0  0  0  0  0  0  0
  -24.4635  -27.0357   23.2719 C   0  0  0  0  0  0  0  0  0  0  0  0
  -19.2125  -30.1257   23.1372 C   0  0  0  0  0  0  0  0  0  0  0  0
  -25.5467  -27.7629   22.7582 C   0  0  0  0  0  0  0  0  0  0  0  0
  -30.4065  -19.3430   19.7289 C   0  0  0  0  0  0  0  0  0  0  0  0
  -29.3060  -17.2783   19.1268 C   0  0  0  0  0  0  0  0  0  0  0  0
  -22.0595   -8.2193   21.8093 C   0  0  0  0  0  0  0  0  0  0  0  0
  -26.0247  -25.9414   21.2208 C   0  0  0  0  0  0  0  0  0  0  0  0
  -21.6587   -6.1850   22.9153 C   0  0  0  0  0  0  0  0  0  0  0  0
  -22.5943   -3.6981   23.7652 C   0  0  0  0  0  0  0  0  0  0  0  0
  -21.0354   -5.0175   22.4746 C   0  0  0  0  0  0  0  0  0  0  0  0
  -24.7430  -10.7046   19.6832 C   0  0  0  0  0  0  0  0  0  0  0  0
  -25.6609  -12.0710   18.2254 C   0  0  0  0  0  0  0  0  0  0  0  0
  -29.4786  -21.5465   18.9685 C   0  0  0  0  0  0  0  0  0  0  0  0
  -23.2681  -11.5306   17.7448 C   0  0  0  0  0  0  0  0  0  0  0  0
  -22.8823  -29.7898   23.4070 C   0  0  0  0  0  0  0  0  0  0  0  0
  -25.4331  -30.7191   25.1824 C   0  0  0  0  0  0  0  0  0  0  0  0
  -28.2330  -23.5951   19.5576 C   0  0  0  0  0  0  0  0  0  0  0  0
  -28.7205  -30.2760   25.9846 C   0  0  0  0  0  0  0  0  0  0  0  0
  -30.1226  -14.9972   19.8171 C   0  0  0  0  0  0  0  0  0  0  0  0
  -18.5294  -32.3310   24.2147 C   0  0  0  0  0  0  0  0  0  0  0  0
  -23.6341  -27.5955   24.3948 C   0  0  0  0  0  0  0  0  0  0  0  0
  -25.9016  -29.1310   23.2787 C   0  0  0  0  0  0  0  0  0  0  0  0
  -20.0164  -32.6749   24.2464 C   0  0  0  0  0  0  0  0  0  0  0  0
  -30.2835  -11.4606   20.1954 C   0  0  0  0  0  0  0  0  0  0  0  0
  -20.7077  -32.1717   22.9832 C   0  0  0  0  0  0  0  0  0  0  0  0
  -28.8345  -11.0087   19.9994 C   0  0  0  0  0  0  0  0  0  0  0  0
  -30.3665  -12.7930   20.9381 C   0  0  0  0  0  0  0  0  0  0  0  0
  -28.1157  -13.4261   20.1622 C   0  0  0  0  0  0  0  0  0  0  0  0
  -20.6084  -30.6457   22.8704 C   0  0  1  0  0  0  0  0  0  0  0  0
  -23.6923  -29.1176   24.4793 C   0  0  1  0  0  0  0  0  0  0  0  0
  -27.9788  -12.1207   19.3616 C   0  0  2  0  0  0  0  0  0  0  0  0
  -31.5275  -20.0381   20.4306 C   0  0  0  0  0  0  0  0  0  0  0  0
  -30.5360  -31.2124   27.4422 C   0  0  0  0  0  0  0  0  0  0  0  0
  -25.7357  -33.0861   23.2809 C   0  0  0  0  0  0  0  0  0  0  0  0
  -28.0481  -33.4230   24.1795 C   0  0  0  0  0  0  0  0  0  0  0  0
  -26.0790  -33.6376   25.6959 C   0  0  0  0  0  0  0  0  0  0  0  0
  -29.0406  -27.7138   27.4307 C   0  0  0  0  0  0  0  0  0  0  0  0
  -26.9137  -23.9942   20.1845 C   0  0  0  0  0  0  0  0  0  1  0  0
  -26.7729  -31.3466   24.8822 C   0  0  1  0  0  0  0  0  0  0  0  0
  -29.4260  -30.1794   27.3252 C   0  0  2  0  0  0  0  0  0  0  0  0
  -26.6513  -32.8484   24.4983 C   0  0  0  0  0  0  0  0  0  0  0  0
  -25.9973  -10.8609   20.1149 N   0  0  0  0  0  0  0  0  0  0  0  0
  -26.5301  -11.6969   19.2076 N   0  0  0  0  0  0  0  0  0  0  0  0
  -25.0569  -29.6379   24.3728 N   0  0  0  0  0  0  0  0  0  0  0  0
  -29.5345  -13.7991   20.2745 N   0  0  0  0  0  0  0  0  0  0  0  0
  -26.0328  -12.9080   17.2336 N   0  0  0  0  0  0  0  0  0  0  0  0
  -22.1452  -10.8123   18.1777 N   0  0  0  0  0  0  0  0  0  0  0  0
  -29.2399  -15.8636   19.1730 N   0  0  0  0  0  0  0  0  0  0  0  0
  -28.3710  -22.2075   19.4966 N   0  0  0  0  0  0  0  0  0  0  0  0
  -21.5630  -30.0105   23.7535 N   0  0  0  0  0  0  0  0  0  0  0  0
  -27.6124  -31.0941   26.0484 N   0  0  0  0  0  0  0  0  0  0  0  0
  -30.0238  -28.8254   27.4996 N   0  3  0  0  0  0  0  0  0  0  0  0
  -30.4689  -22.0946   18.4921 O   0  0  0  0  0  0  0  0  0  0  0  0
  -23.1909  -12.2191   16.6991 O   0  0  0  0  0  0  0  0  0  0  0  0
  -23.4152  -30.0875   22.3444 O   0  0  0  0  0  0  0  0  0  0  0  0
  -24.7488  -31.1670   26.1058 O   0  0  0  0  0  0  0  0  0  0  0  0
  -29.0553  -24.4160   19.1606 O   0  0  0  0  0  0  0  0  0  0  0  0
  -29.1152  -29.6879   24.9802 O   0  0  0  0  0  0  0  0  0  0  0  0
  -31.3266  -15.2251   19.9603 O   0  0  0  0  0  0  0  0  0  0  0  0
  -21.1960   -7.4202   22.4937 O   0  0  0  0  0  0  0  0  0  0  0  0
  -26.7828  -25.4147   20.2209 O   0  0  0  0  0  0  0  0  0  1  0  0
  -23.0446   -2.5040   24.1721 F   0  0  0  0  0  0  0  0  0  0  0  0
  -19.9875   -5.0842   21.6419 F   0  0  0  0  0  0  0  0  0  0  0  0
  1  2  1  0  0  0  0
  1  6  2  0  0  0  0
  2  7  2  0  0  0  0
  3 10  2  0  0  0  0
  3 18  1  0  0  0  0
  4 11  1  0  0  0  0
  4 18  2  0  0  0  0
  5  9  2  0  0  0  0
  5 19  1  0  0  0  0
  6 21  1  0  0  0  0
  7 23  1  0  0  0  0
  8 12  2  0  0  0  0
  8 22  1  0  0  0  0
  9 26  1  0  0  0  0
 10 27  1  0  0  0  0
 11 27  2  0  0  0  0
 12 28  1  0  0  0  0
 13 14  2  0  0  0  0
 13 29  1  0  0  0  0
 14 30  1  0  0  0  0
 15 24  1  0  0  0  0
 15 28  2  0  0  0  0
 16 25  1  0  0  0  0
 16 26  2  0  0  0  0
 17 30  2  0  0  0  0
 17 31  1  0  0  0  0
 18 32  1  0  0  0  0
 19 25  2  0  0  0  0
 19 34  1  0  0  0  0
 20 32  1  0  0  0  0
 20 33  2  0  0  0  0
 20 35  1  0  0  0  0
 21 23  2  0  0  0  0
 21 41  1  0  0  0  0
 22 24  2  0  0  0  0
 22 42  1  0  0  0  0
 23 50  1  0  0  0  0
 24 43  1  0  0  0  0
 25 53  1  0  0  0  0
 26 69  1  0  0  0  0
 27 81  1  0  0  0  0
 28 82  1  0  0  0  0
 29 31  2  0  0  0  0
 29 81  1  0  0  0  0
 30 83  1  0  0  0  0
 31 84  1  0  0  0  0
 32 63  2  0  0  0  0
 33 64  1  0  0  0  0
 33 67  1  0  0  0  0
 34 70  1  0  0  0  0
 34 74  2  0  0  0  0
 35 68  1  0  0  0  0
 35 75  2  0  0  0  0
 36 51  1  0  0  0  0
 36 71  1  0  0  0  0
 36 76  2  0  0  0  0
 37 60  1  0  0  0  0
 37 65  1  0  0  0  0
 37 77  2  0  0  0  0
 38 59  1  0  0  0  0
 38 70  1  0  0  0  0
 38 78  2  0  0  0  0
 39 61  1  0  0  0  0
 39 72  1  0  0  0  0
 39 79  2  0  0  0  0
 40 66  1  0  0  0  0
 40 69  1  0  0  0  0
 40 80  2  0  0  0  0
 41 44  1  0  0  0  0
 42 51  1  0  0  0  0
 43 65  1  0  0  0  0
 44 46  1  0  0  0  0
 45 47  1  0  0  0  0
 45 48  1  0  0  0  0
 46 50  1  0  0  0  0
 47 52  1  0  0  0  0
 48 66  1  0  0  0  0
 49 52  1  0  0  0  0
 49 66  1  0  0  0  0
 50 71  1  0  0  0  0
 51 65  1  0  0  0  0
 52 64  1  0  0  0  0
 54 61  1  0  0  0  0
 55 62  1  0  0  0  0
 56 62  1  0  0  0  0
 57 62  1  0  0  0  0
 58 73  1  0  0  0  0
 59 82  1  0  0  0  0
 60 62  1  0  0  0  0
 60 72  1  0  0  0  0
 61 73  1  0  0  0  0
 63 64  1  0  0  0  0
M  CHG  1  73   1
M  ISO  4  40 100  59 101  69 100  82 101
M  END
> <Batch ID>
0050

> <Smiles>
CNC(C)C(=O)NC(C(=O)N1Cc2cc([101O:1][101CH2:1]C(=O)NC(=O)c3ccc([100NH:0][100C:0](=O)N4CCCC(n5nc(-c6ccc(Oc7ccc(F)cc7F)cc6)c(C(N)=O)c5N)C4)cc3C)ccc2CC1C(=O)NC1CCCc2ccccc21)C(C)(C)C

> <Shape>
0.295

> <Color>
0.092

> <Negative vol penalty>
0.000

$$$$

  -OEChem-04042322353D

 85 93  0     1  0  0  0  0  0999 V2000
  -28.5659  -25.1405   16.4182 C   0  0  0  0  0  0  0  0  0  0  0  0
  -27.4700  -25.1254   17.2751 C   0  0  0  0  0  0  0  0  0  0  0  0
  -26.1588  -13.6847   19.8720 C   0  0  0  0  0  0  0  0  0  0  0  0
  -24.8661  -13.5291   21.9071 C   0  0  0  0  0  0  0  0  0  0  0  0
  -29.6991  -25.8817   16.7506 C   0  0  0  0  0  0  0  0  0  0  0  0
  -27.5071  -25.8507   18.4655 C   0  0  0  0  0  0  0  0  0  0  0  0
  -23.2348  -28.4392   19.2972 C   0  0  0  0  0  0  0  0  0  0  0  0
  -26.1086  -12.2977   19.7340 C   0  0  0  0  0  0  0  0  0  0  0  0
  -24.8159  -12.1420   21.7691 C   0  0  0  0  0  0  0  0  0  0  0  0
  -22.1391  -27.7226   19.7765 C   0  0  0  0  0  0  0  0  0  0  0  0
  -23.0725   -9.8820   19.9599 C   0  0  0  0  0  0  0  0  0  0  0  0
  -21.8438   -9.2556   20.1682 C   0  0  0  0  0  0  0  0  0  0  0  0
  -23.8167  -24.0456   27.2903 C   0  0  0  0  0  0  0  0  0  0  0  0
  -22.6113  -28.5054   22.0088 C   0  0  0  0  0  0  0  0  0  0  0  0
  -25.8879  -22.9522   26.6974 C   0  0  0  0  0  0  0  0  0  0  0  0
  -22.8075   -7.9640   21.9683 C   0  0  0  0  0  0  0  0  0  0  0  0
  -25.5376  -14.3005   20.9586 C   0  0  0  0  0  0  0  0  0  0  0  0
  -23.1942  -23.4659   26.1848 C   0  0  0  0  0  0  0  0  0  0  0  0
  -24.6732  -16.6724   20.5920 C   0  0  0  0  0  0  0  0  0  0  0  0
  -29.7464  -26.6242   17.9410 C   0  0  0  0  0  0  0  0  0  0  0  0
  -24.0347  -29.1869   20.1733 C   0  0  0  0  0  0  0  0  0  0  0  0
  -28.6425  -26.6015   18.8147 C   0  0  0  0  0  0  0  0  0  0  0  0
  -23.7150  -29.2327   21.5378 C   0  0  0  0  0  0  0  0  0  0  0  0
  -25.2655  -22.3725   25.5919 C   0  0  0  0  0  0  0  0  0  0  0  0
  -25.4371  -11.5263   20.6825 C   0  0  0  0  0  0  0  0  0  0  0  0
  -21.8290  -27.7532   21.1329 C   0  0  0  0  0  0  0  0  0  0  0  0
  -24.1688   -9.5494   20.7557 C   0  0  0  0  0  0  0  0  0  0  0  0
  -21.7112   -8.2966   21.1724 C   0  0  0  0  0  0  0  0  0  0  0  0
  -25.1636  -23.7888   27.5466 C   0  0  0  0  0  0  0  0  0  0  0  0
  -24.0362   -8.5904   21.7599 C   0  0  0  0  0  0  0  0  0  0  0  0
  -23.9186  -22.6294   25.3356 C   0  0  0  0  0  0  0  0  0  0  0  0
  -25.5896  -15.7332   21.1020 C   0  0  0  0  0  0  0  0  0  0  0  0
  -25.1656  -17.8884   20.9988 C   0  0  0  0  0  0  0  0  0  0  0  0
  -21.7671  -23.7633   25.9496 C   0  0  0  0  0  0  0  0  0  0  0  0
  -23.4832  -16.4643   19.8198 C   0  0  0  0  0  0  0  0  0  0  0  0
  -27.0877  -29.0962   21.0535 C   0  0  0  0  0  0  0  0  0  0  0  0
  -26.3095  -31.8213   22.6316 C   0  0  0  0  0  0  0  0  0  0  0  0
  -23.8849  -33.7443   24.0704 C   0  0  0  0  0  0  0  0  0  0  0  0
  -27.3788  -21.1896   24.8984 C   0  0  0  0  0  0  0  0  0  0  0  0
  -31.0113  -27.3723   18.2802 C   0  0  0  0  0  0  0  0  0  0  0  0
  -25.1973  -29.9760   19.6364 C   0  0  0  0  0  0  0  0  0  0  0  0
  -24.5301  -30.0364   22.5167 C   0  0  0  0  0  0  0  0  0  0  0  0
  -30.8264  -28.4141   19.3805 C   0  0  0  0  0  0  0  0  0  0  0  0
  -29.6192  -19.1129   23.0694 C   0  0  0  0  0  0  0  0  0  0  0  0
  -30.0388  -27.8250   20.5465 C   0  0  0  0  0  0  0  0  0  0  0  0
  -28.6952  -18.1258   22.3526 C   0  0  0  0  0  0  0  0  0  0  0  0
  -29.1069  -19.4568   24.4669 C   0  0  0  0  0  0  0  0  0  0  0  0
  -26.7919  -18.9373   23.8038 C   0  0  0  0  0  0  0  0  0  0  0  0
  -28.6352  -27.3953   20.1031 C   0  0  1  0  0  0  0  0  0  0  0  0
  -26.2474  -30.2898   20.6976 C   0  0  1  0  0  0  0  0  0  0  0  0
  -27.2323  -18.6107   22.3674 C   0  0  2  0  0  0  0  0  0  0  0  0
  -23.5595  -35.8999   25.3133 C   0  0  0  0  0  0  0  0  0  0  0  0
  -27.4376  -30.5328   25.1569 C   0  0  0  0  0  0  0  0  0  0  0  0
  -26.2493  -32.2824   26.4966 C   0  0  0  0  0  0  0  0  0  0  0  0
  -28.0188  -32.9481   24.8692 C   0  0  0  0  0  0  0  0  0  0  0  0
  -22.1116  -34.8265   21.9626 C   0  0  0  0  0  0  0  0  0  0  0  0
  -20.0042  -25.3017   23.0580 C   0  0  0  0  0  0  0  0  0  0  0  0
  -20.0412  -24.7003   24.4530 C   0  0  0  0  0  0  0  0  0  0  0  0
  -20.8400  -26.5703   22.9436 C   0  0  0  0  0  0  0  0  0  1  0  0
  -25.7811  -32.1460   24.0080 C   0  0  1  0  0  0  0  0  0  0  0  0
  -23.5701  -35.2245   23.9508 C   0  0  2  0  0  0  0  0  0  0  0  0
  -26.8573  -31.9605   25.1148 C   0  0  0  0  0  0  0  0  0  0  0  0
  -26.5886  -16.3036   21.7807 N   0  0  0  0  0  0  0  0  0  0  0  0
  -26.3029  -17.6143   21.7000 N   0  0  0  0  0  0  0  0  0  0  0  0
  -25.6605  -30.7858   21.9441 N   0  0  0  0  0  0  0  0  0  0  0  0
  -27.7167  -19.9127   24.4023 N   0  0  0  0  0  0  0  0  0  0  0  0
  -24.7325  -19.1546   20.8213 N   0  0  0  0  0  0  0  0  0  0  0  0
  -20.8911  -23.4273   26.8966 N   0  0  0  0  0  0  0  0  0  0  0  0
  -23.1224  -15.1509   19.4893 N   0  0  0  0  0  0  0  0  0  0  0  0
  -26.0336  -21.5270   24.7534 N   0  0  0  0  0  0  0  0  0  0  0  0
  -27.7681  -28.5478   19.9831 N   0  0  0  0  0  0  0  0  0  0  0  0
  -25.2336  -33.4958   23.9271 N   0  0  0  0  0  0  0  0  0  0  0  0
  -21.4199  -24.3529   24.7982 N   0  3  0  0  0  0  0  0  0  0  0  0
  -22.2349  -35.4207   23.3186 N   0  3  0  0  0  0  0  0  0  0  0  0
  -22.7702  -17.4159   19.4203 O   0  0  0  0  0  0  0  0  0  0  0  0
  -27.1177  -28.7027   22.2137 O   0  0  0  0  0  0  0  0  0  0  0  0
  -27.2582  -32.4675   22.1800 O   0  0  0  0  0  0  0  0  0  0  0  0
  -23.0213  -32.8940   24.2746 O   0  0  0  0  0  0  0  0  0  0  0  0
  -28.2260  -21.9402   25.3891 O   0  0  0  0  0  0  0  0  0  0  0  0
  -25.3878  -10.1727   20.5481 O   0  0  0  0  0  0  0  0  0  0  0  0
  -20.7605  -27.0541   21.6035 O   0  0  0  0  0  0  0  0  0  1  0  0
  -20.5308   -7.6962   21.3734 F   0  0  0  0  0  0  0  0  0  0  0  0
  -25.7615  -24.3455   28.6081 F   0  0  0  0  0  0  0  0  0  0  0  0
  -25.0855   -8.2676   22.5284 F   0  0  0  0  0  0  0  0  0  0  0  0
  -23.1394  -21.9100   23.9634 Cl  0  0  0  0  0  0  0  0  0  0  0  0
  1  2  1  0  0  0  0
  1  5  2  0  0  0  0
  2  6  2  0  0  0  0
  3  8  2  0  0  0  0
  3 17  1  0  0  0  0
  4  9  1  0  0  0  0
  4 17  2  0  0  0  0
  5 20  1  0  0  0  0
  6 22  1  0  0  0  0
  7 10  2  0  0  0  0
  7 21  1  0  0  0  0
  8 25  1  0  0  0  0
  9 25  2  0  0  0  0
 10 26  1  0  0  0  0
 11 12  2  0  0  0  0
 11 27  1  0  0  0  0
 12 28  1  0  0  0  0
 13 18  1  0  0  0  0
 13 29  2  0  0  0  0
 14 23  1  0  0  0  0
 14 26  2  0  0  0  0
 15 24  2  0  0  0  0
 15 29  1  0  0  0  0
 16 28  2  0  0  0  0
 16 30  1  0  0  0  0
 17 32  1  0  0  0  0
 18 31  2  0  0  0  0
 18 34  1  0  0  0  0
 19 32  1  0  0  0  0
 19 33  2  0  0  0  0
 19 35  1  0  0  0  0
 20 22  2  0  0  0  0
 20 40  1  0  0  0  0
 21 23  2  0  0  0  0
 21 41  1  0  0  0  0
 22 49  1  0  0  0  0
 23 42  1  0  0  0  0
 24 31  1  0  0  0  0
 24 70  1  0  0  0  0
 25 80  1  0  0  0  0
 26 81  1  0  0  0  0
 27 30  2  0  0  0  0
 27 80  1  0  0  0  0
 28 82  1  0  0  0  0
 29 83  1  0  0  0  0
 30 84  1  0  0  0  0
 31 85  1  0  0  0  0
 32 63  2  0  0  0  0
 33 64  1  0  0  0  0
 33 67  1  0  0  0  0
 34 68  1  0  0  0  0
 34 73  2  0  0  0  0
 35 69  1  0  0  0  0
 35 75  2  0  0  0  0
 36 50  1  0  0  0  0
 36 71  1  0  0  0  0
 36 76  2  0  0  0  0
 37 60  1  0  0  0  0
 37 65  1  0  0  0  0
 37 77  2  0  0  0  0
 38 61  1  0  0  0  0
 38 72  1  0  0  0  0
 38 78  2  0  0  0  0
 39 66  1  0  0  0  0
 39 70  1  0  0  0  0
 39 79  2  0  0  0  0
 40 43  1  0  0  0  0
 41 50  1  0  0  0  0
 42 65  1  0  0  0  0
 43 45  1  0  0  0  0
 44 46  1  0  0  0  0
 44 47  1  0  0  0  0
 45 49  1  0  0  0  0
 46 51  1  0  0  0  0
 47 66  1  0  0  0  0
 48 51  1  0  0  0  0
 48 66  1  0  0  0  0
 49 71  1  0  0  0  0
 50 65  1  0  0  0  0
 51 64  1  0  0  0  0
 52 61  1  0  0  0  0
 53 62  1  0  0  0  0
 54 62  1  0  0  0  0
 55 62  1  0  0  0  0
 56 74  1  0  0  0  0
 57 58  1  0  0  0  0
 57 59  1  0  0  0  0
 58 73  1  0  0  0  0
 59 81  1  0  0  0  0
 60 62  1  0  0  0  0
 60 72  1  0  0  0  0
 61 74  1  0  0  0  0
 63 64  1  0  0  0  0
M  CHG  2  73   1  74   1
M  ISO  4  39 100  59 101  70 100  81 101
M  END
> <Batch ID>
0050

> <Smiles>
CNC(C)C(=O)NC(C(=O)N1Cc2cc([101O:1][101CH2:1]CCNC(=N)c3cc(F)cc([100NH:0][100C:0](=O)N4CCCC(n5nc(-c6ccc(Oc7ccc(F)cc7F)cc6)c(C(N)=O)c5N)C4)c3Cl)ccc2CC1C(=O)NC1CCCc2ccccc21)C(C)(C)C

> <Shape>
0.257

> <Color>
0.082

> <Negative vol penalty>
0.000

$$$$

  -OEChem-04042322353D

 90 99  0     1  0  0  0  0  0999 V2000
  -29.2612  -37.1816   21.6628 C   0  0  0  0  0  0  0  0  0  0  0  0
  -29.3171  -36.1019   20.7873 C   0  0  0  0  0  0  0  0  0  0  0  0
  -22.7425  -10.1655   20.1018 C   0  0  0  0  0  0  0  0  0  0  0  0
  -24.3515   -8.3652   20.0170 C   0  0  0  0  0  0  0  0  0  0  0  0
  -28.8861  -36.9821   22.9907 C   0  0  0  0  0  0  0  0  0  0  0  0
  -28.9990  -34.8218   21.2396 C   0  0  0  0  0  0  0  0  0  0  0  0
  -26.0564  -28.6833   19.0086 C   0  0  0  0  0  0  0  0  0  0  0  0
  -30.0441  -19.5377   19.3296 C   0  0  0  0  0  0  0  0  0  0  0  0
  -30.0556  -18.1474   19.4410 C   0  0  0  0  0  0  0  0  0  0  0  0
  -21.8318   -9.3216   20.7376 C   0  0  0  0  0  0  0  0  0  0  0  0
  -23.4408   -7.5213   20.6528 C   0  0  0  0  0  0  0  0  0  0  0  0
  -26.3234  -27.3158   18.9608 C   0  0  0  0  0  0  0  0  0  0  0  0
  -22.3279   -6.9766   23.7969 C   0  0  0  0  0  0  0  0  0  0  0  0
  -22.8030   -6.1802   24.8387 C   0  0  0  0  0  0  0  0  0  0  0  0
  -25.6123  -27.1029   21.2561 C   0  0  0  0  0  0  0  0  0  0  0  0
  -28.2206  -18.0068   17.8757 C   0  0  0  0  0  0  0  0  0  0  0  0
  -22.1487   -4.1982   23.6219 C   0  0  0  0  0  0  0  0  0  0  0  0
  -24.0023   -9.6872   19.7415 C   0  0  0  0  0  0  0  0  0  0  0  0
  -24.7741  -11.2173   17.8518 C   0  0  0  0  0  0  0  0  0  0  0  0
  -28.5540  -35.7004   23.4571 C   0  0  0  0  0  0  0  0  0  0  0  0
  -25.5748  -29.2738   20.1858 C   0  0  0  0  0  0  0  0  0  0  0  0
  -28.6205  -34.6047   22.5753 C   0  0  0  0  0  0  0  0  0  0  0  0
  -25.3375  -28.4777   21.3154 C   0  0  0  0  0  0  0  0  0  0  0  0
  -29.1208  -20.1627   18.4914 C   0  0  0  0  0  0  0  0  0  0  0  0
  -28.2091  -19.3972   17.7644 C   0  0  0  0  0  0  0  0  0  0  0  0
  -29.1439  -17.3819   18.7140 C   0  0  0  0  0  0  0  0  0  0  0  0
  -22.1809   -7.9996   21.0131 C   0  0  0  0  0  0  0  0  0  0  0  0
  -26.1041  -26.5258   20.0855 C   0  0  0  0  0  0  0  0  0  0  0  0
  -21.7631   -6.3839   22.6675 C   0  0  0  0  0  0  0  0  0  0  0  0
  -22.7134   -4.7910   24.7513 C   0  0  0  0  0  0  0  0  0  0  0  0
  -21.6736   -4.9947   22.5801 C   0  0  0  0  0  0  0  0  0  0  0  0
  -24.9433  -10.5583   19.0842 C   0  0  0  0  0  0  0  0  0  0  0  0
  -25.9434  -11.9151   17.6722 C   0  0  0  0  0  0  0  0  0  0  0  0
  -28.9919  -23.6985   19.6921 C   0  0  0  0  0  0  0  0  0  0  0  0
  -31.4351  -23.2585   22.3979 C   0  0  0  0  0  0  0  0  0  0  0  0
  -29.9243  -23.9775   20.6155 C   0  0  0  0  0  0  0  0  0  0  0  0
  -30.5055  -22.9796   21.4773 C   0  0  0  0  0  0  0  0  0  0  0  0
  -23.6596  -11.2004   16.9500 C   0  0  0  0  0  0  0  0  0  0  0  0
  -26.6503  -31.5040   22.1791 C   0  0  0  0  0  0  0  0  0  0  0  0
  -23.7309  -31.1379   23.5448 C   0  0  0  0  0  0  0  0  0  0  0  0
  -21.0085  -29.1489   24.0734 C   0  0  0  0  0  0  0  0  0  0  0  0
  -30.0072  -15.1914   19.6099 C   0  0  0  0  0  0  0  0  0  0  0  0
  -28.2001  -35.5268   24.9129 C   0  0  0  0  0  0  0  0  0  0  0  0
  -25.2665  -30.7457   20.2129 C   0  0  0  0  0  0  0  0  0  0  0  0
  -24.8022  -29.0594   22.5974 C   0  0  0  0  0  0  0  0  0  0  0  0
  -28.3874  -24.7462   18.7934 C   0  0  0  0  0  0  0  0  0  0  0  0
  -27.5163  -34.1967   25.2191 C   0  0  0  0  0  0  0  0  0  0  0  0
  -30.3312  -11.6928   20.1861 C   0  0  0  0  0  0  0  0  0  0  0  0
  -28.2605  -33.0469   24.5475 C   0  0  0  0  0  0  0  0  0  0  0  0
  -28.9444  -11.1400   19.8494 C   0  0  0  0  0  0  0  0  0  0  0  0
  -26.3695  -23.2268   18.6542 C   0  0  0  0  0  0  0  0  0  0  0  0
  -30.2478  -13.0594   20.8637 C   0  0  0  0  0  0  0  0  0  0  0  0
  -28.0700  -13.5107   19.8041 C   0  0  0  0  0  0  0  0  0  0  0  0
  -27.0242  -22.2808   19.6598 C   0  0  0  0  0  0  0  0  0  0  0  0
  -28.2588  -33.2048   23.0222 C   0  0  1  0  0  0  0  0  0  0  0  0
  -25.2657  -31.3302   21.6221 C   0  0  1  0  0  0  0  0  0  0  0  0
  -28.1052  -12.1649   19.0616 C   0  0  2  0  0  0  0  0  0  0  0  0
  -26.8608  -24.6658   18.8110 C   0  0  1  0  0  0  0  0  0  1  0  0
  -18.7988  -29.1093   25.2622 C   0  0  0  0  0  0  0  0  0  0  0  0
  -25.1680  -30.6693   26.1953 C   0  0  0  0  0  0  0  0  0  0  0  0
  -23.0375  -29.7171   27.1022 C   0  0  0  0  0  0  0  0  0  0  0  0
  -23.1205  -32.0962   26.3568 C   0  0  0  0  0  0  0  0  0  0  0  0
  -19.5179  -28.8318   21.5363 C   0  0  0  0  0  0  0  0  0  0  0  0
  -29.1273  -21.6595   18.3886 C   0  0  0  0  0  0  0  0  0  0  0  0
  -27.2130  -20.0443   16.8591 C   0  0  0  0  0  0  0  0  0  0  0  0
  -23.1600  -30.2531   24.6266 C   0  0  1  0  0  0  0  0  0  0  0  0
  -19.5204  -29.4278   23.9619 C   0  0  2  0  0  0  0  0  0  0  0  0
  -23.6334  -30.6730   26.0468 C   0  0  0  0  0  0  0  0  0  0  0  0
  -26.1269  -10.8143   19.6476 N   0  0  0  0  0  0  0  0  0  0  0  0
  -26.7121  -11.6420   18.7652 N   0  0  0  0  0  0  0  0  0  0  0  0
  -24.5222  -30.5047   22.5760 N   0  0  0  0  0  0  0  0  0  0  0  0
  -29.4413  -13.9792   20.0584 N   0  0  0  0  0  0  0  0  0  0  0  0
  -26.3788  -12.7295   16.6875 N   0  0  0  0  0  0  0  0  0  0  0  0
  -23.6282  -10.2241   15.9449 N   0  0  0  0  0  0  0  0  0  0  0  0
  -29.1565  -15.9694   18.8254 N   0  0  0  0  0  0  0  0  0  0  0  0
  -26.9775  -32.8136   22.4749 N   0  0  0  0  0  0  0  0  0  0  0  0
  -21.7121  -30.2737   24.4490 N   0  0  0  0  0  0  0  0  0  0  0  0
  -28.5325  -22.3352   19.5931 N   0  3  1  0  0  0  0  0  0  0  0  0
  -18.9188  -28.6029   22.8763 N   0  3  0  0  0  0  0  0  0  0  0  0
  -22.7275  -12.0367   17.0228 O   0  0  0  0  0  0  0  0  0  0  0  0
  -27.3682  -30.5225   22.3308 O   0  0  0  0  0  0  0  0  0  0  0  0
  -23.4779  -32.3452   23.5548 O   0  0  0  0  0  0  0  0  0  0  0  0
  -21.4973  -28.0430   23.8531 O   0  0  0  0  0  0  0  0  0  0  0  0
  -31.1705  -15.5028   19.8777 O   0  0  0  0  0  0  0  0  0  0  0  0
  -21.2926   -7.1760   21.6336 O   0  0  0  0  0  0  0  0  0  0  0  0
  -26.3645  -25.1908   20.0418 O   0  0  0  0  0  0  0  0  0  1  0  0
  -23.1711   -4.0262   25.7512 F   0  0  0  0  0  0  0  0  0  0  0  0
  -21.1331   -4.4194   21.4971 F   0  0  0  0  0  0  0  0  0  0  0  0
  -26.4479  -19.1094   16.2383 F   0  0  0  0  0  0  0  0  0  0  0  0
  -27.8386  -20.7454   15.8784 F   0  0  0  0  0  0  0  0  0  0  0  0
  1  2  1  0  0  0  0
  1  5  2  0  0  0  0
  2  6  2  0  0  0  0
  3 10  2  0  0  0  0
  3 18  1  0  0  0  0
  4 11  1  0  0  0  0
  4 18  2  0  0  0  0
  5 20  1  0  0  0  0
  6 22  1  0  0  0  0
  7 12  2  0  0  0  0
  7 21  1  0  0  0  0
  8  9  2  0  0  0  0
  8 24  1  0  0  0  0
  9 26  1  0  0  0  0
 10 27  1  0  0  0  0
 11 27  2  0  0  0  0
 12 28  1  0  0  0  0
 13 14  2  0  0  0  0
 13 29  1  0  0  0  0
 14 30  1  0  0  0  0
 15 23  1  0  0  0  0
 15 28  2  0  0  0  0
 16 25  1  0  0  0  0
 16 26  2  0  0  0  0
 17 30  2  0  0  0  0
 17 31  1  0  0  0  0
 18 32  1  0  0  0  0
 19 32  1  0  0  0  0
 19 33  2  0  0  0  0
 19 38  1  0  0  0  0
 20 22  2  0  0  0  0
 20 43  1  0  0  0  0
 21 23  2  0  0  0  0
 21 44  1  0  0  0  0
 22 55  1  0  0  0  0
 23 45  1  0  0  0  0
 24 25  2  0  0  0  0
 24 64  1  0  0  0  0
 25 65  1  0  0  0  0
 26 75  1  0  0  0  0
 27 85  1  0  0  0  0
 28 86  1  0  0  0  0
 29 31  2  0  0  0  0
 29 85  1  0  0  0  0
 30 87  1  0  0  0  0
 31 88  1  0  0  0  0
 32 69  2  0  0  0  0
 33 70  1  0  0  0  0
 33 73  1  0  0  0  0
 34 36  2  0  0  0  0
 34 46  1  0  0  0  0
 34 78  1  0  0  0  0
 35 37  2  0  0  0  0
 36 37  1  0  0  0  0
 38 74  1  0  0  0  0
 38 80  2  0  0  0  0
 39 56  1  0  0  0  0
 39 76  1  0  0  0  0
 39 81  2  0  0  0  0
 40 66  1  0  0  0  0
 40 71  1  0  0  0  0
 40 82  2  0  0  0  0
 41 67  1  0  0  0  0
 41 77  1  0  0  0  0
 41 83  2  0  0  0  0
 42 72  1  0  0  0  0
 42 75  1  0  0  0  0
 42 84  2  0  0  0  0
 43 47  1  0  0  0  0
 44 56  1  0  0  0  0
 45 71  1  0  0  0  0
 46 58  1  0  0  0  0
 47 49  1  0  0  0  0
 48 50  1  0  0  0  0
 48 52  1  0  0  0  0
 49 55  1  0  0  0  0
 50 57  1  0  0  0  0
 51 54  1  0  0  0  0
 51 58  1  0  0  0  0
 52 72  1  0  0  0  0
 53 57  1  0  0  0  0
 53 72  1  0  0  0  0
 54 78  1  0  0  0  0
 55 76  1  0  0  0  0
 56 71  1  0  0  0  0
 57 70  1  0  0  0  0
 58 86  1  0  0  0  0
 59 67  1  0  0  0  0
 60 68  1  0  0  0  0
 61 68  1  0  0  0  0
 62 68  1  0  0  0  0
 63 79  1  0  0  0  0
 64 78  1  0  0  0  0
 65 89  1  0  0  0  0
 65 90  1  0  0  0  0
 66 68  1  0  0  0  0
 66 77  1  0  0  0  0
 67 79  1  0  0  0  0
 69 70  1  0  0  0  0
M  CHG  2  78   1  79   1
M  ISO  4  42 100  58 101  75 100  86 101
M  END
> <Batch ID>
0050

> <Smiles>
C=CC=C1C[101CH:1]([101O:1]c2ccc3c(c2)CN(C(=O)C(NC(=O)C(C)NC)C(C)(C)C)C(C(=O)NC2CCCc4ccccc42)C3)CCN1Cc1ccc([100NH:0][100C:0](=O)N2CCCC(n3nc(-c4ccc(Oc5ccc(F)cc5F)cc4)c(C(N)=O)c3N)C2)cc1C(F)F

> <Shape>
0.294

> <Color>
0.107

> <Negative vol penalty>
0.000

$$$$

  -OEChem-04042322353D

 84 92  0     1  0  0  0  0  0999 V2000
  -30.7081  -31.3082   25.5024 C   0  0  0  0  0  0  0  0  0  0  0  0
  -30.1122  -30.2606   24.8074 C   0  0  0  0  0  0  0  0  0  0  0  0
  -23.9395   -8.8172   20.5593 C   0  0  0  0  0  0  0  0  0  0  0  0
  -23.2741  -10.9788   21.4089 C   0  0  0  0  0  0  0  0  0  0  0  0
  -30.6138  -18.6463   19.8524 C   0  0  0  0  0  0  0  0  0  0  0  0
  -28.4614  -18.8005   20.9389 C   0  0  0  0  0  0  0  0  0  0  0  0
  -29.9148  -32.2792   26.1121 C   0  0  0  0  0  0  0  0  0  0  0  0
  -28.7225  -30.1830   24.7227 C   0  0  0  0  0  0  0  0  0  0  0  0
  -27.1196  -29.0848   20.0462 C   0  0  0  0  0  0  0  0  0  0  0  0
  -30.5959  -17.2609   20.0133 C   0  0  0  0  0  0  0  0  0  0  0  0
  -28.4434  -17.4150   21.0998 C   0  0  0  0  0  0  0  0  0  0  0  0
  -23.0992   -8.1955   21.4828 C   0  0  0  0  0  0  0  0  0  0  0  0
  -22.4337  -10.3571   22.3324 C   0  0  0  0  0  0  0  0  0  0  0  0
  -27.2116  -27.7551   19.6374 C   0  0  0  0  0  0  0  0  0  0  0  0
  -19.7954   -7.5524   21.8058 C   0  0  0  0  0  0  0  0  0  0  0  0
  -18.9896   -6.5093   21.3494 C   0  0  0  0  0  0  0  0  0  0  0  0
  -24.8661  -27.4527   20.1134 C   0  0  0  0  0  0  0  0  0  0  0  0
  -20.0473   -5.0061   22.9175 C   0  0  0  0  0  0  0  0  0  0  0  0
  -24.0270  -10.2089   20.5223 C   0  0  0  0  0  0  0  0  0  0  0  0
  -29.5466  -19.4162   20.3152 C   0  0  0  0  0  0  0  0  0  0  0  0
  -24.5674  -11.2640   18.2635 C   0  0  0  0  0  0  0  0  0  0  0  0
  -28.5150  -32.2187   26.0267 C   0  0  0  0  0  0  0  0  0  0  0  0
  -25.9006  -29.6064   20.5027 C   0  0  0  0  0  0  0  0  0  0  0  0
  -27.9097  -31.1533   25.3330 C   0  0  0  0  0  0  0  0  0  0  0  0
  -24.7607  -28.7901   20.5250 C   0  0  0  0  0  0  0  0  0  0  0  0
  -29.5107  -16.6453   20.6370 C   0  0  0  0  0  0  0  0  0  0  0  0
  -22.3462   -8.9655   22.3693 C   0  0  0  0  0  0  0  0  0  0  0  0
  -26.0855  -26.9380   19.6737 C   0  0  0  0  0  0  0  0  0  0  0  0
  -20.7272   -7.3223   22.8179 C   0  0  0  0  0  0  0  0  0  0  0  0
  -19.1155   -5.2362   21.9053 C   0  0  0  0  0  0  0  0  0  0  0  0
  -20.8531   -6.0493   23.3738 C   0  0  0  0  0  0  0  0  0  0  0  0
  -24.8954  -10.8517   19.5690 C   0  0  0  0  0  0  0  0  0  0  0  0
  -25.7276  -11.8139   17.7755 C   0  0  0  0  0  0  0  0  0  0  0  0
  -29.5658  -20.8953   20.1436 C   0  0  0  0  0  0  0  0  0  0  0  0
  -23.3251  -11.1595   17.5554 C   0  0  0  0  0  0  0  0  0  0  0  0
  -24.8761  -30.8412   23.2467 C   0  0  0  0  0  0  0  0  0  0  0  0
  -22.1941  -31.4438   21.5244 C   0  0  0  0  0  0  0  0  0  0  0  0
  -27.2323  -23.4990   19.6585 C   0  0  0  0  0  0  0  0  0  0  0  0
  -20.2301  -30.6506   18.8486 C   0  0  0  0  0  0  0  0  0  0  0  0
  -30.4714  -14.3288   20.3977 C   0  0  0  0  0  0  0  0  0  0  0  0
  -27.6981  -33.2654   26.7421 C   0  0  0  0  0  0  0  0  0  0  0  0
  -25.8117  -31.0502   20.9149 C   0  0  0  0  0  0  0  0  0  0  0  0
  -23.4238  -29.3073   20.9874 C   0  0  0  0  0  0  0  0  0  0  0  0
  -26.2416  -33.3167   26.2880 C   0  0  0  0  0  0  0  0  0  0  0  0
  -30.4870  -11.5159   18.2149 C   0  0  0  0  0  0  0  0  0  0  0  0
  -25.6541  -31.9106   26.2188 C   0  0  0  0  0  0  0  0  0  0  0  0
  -29.0239  -11.0676   18.1909 C   0  0  0  0  0  0  0  0  0  0  0  0
  -30.9041  -12.0167   19.5966 C   0  0  0  0  0  0  0  0  0  0  0  0
  -28.5760  -12.6089   20.1430 C   0  0  0  0  0  0  0  0  0  0  0  0
  -26.4061  -31.0482   25.1979 C   0  0  1  0  0  0  0  0  0  0  0  0
  -24.6381  -31.3342   21.8474 C   0  0  1  0  0  0  0  0  0  0  0  0
  -28.0913  -12.1570   18.7557 C   0  0  2  0  0  0  0  0  0  0  0  0
  -30.9159  -21.5851   20.1343 C   0  0  0  0  0  0  0  0  0  0  0  0
  -18.0818  -31.2938   17.7224 C   0  0  0  0  0  0  0  0  0  0  0  0
  -20.6221  -29.9913   23.6991 C   0  0  0  0  0  0  0  0  0  0  0  0
  -18.6993  -29.8297   22.1038 C   0  0  0  0  0  0  0  0  0  0  0  0
  -19.5292  -32.0667   22.8315 C   0  0  0  0  0  0  0  0  0  0  0  0
  -21.6287  -31.3976   16.3496 C   0  0  0  0  0  0  0  0  0  0  0  0
  -27.4279  -24.9864   19.4611 C   0  0  0  0  0  0  0  0  0  1  0  0
  -20.9199  -30.6893   21.2312 C   0  0  1  0  0  0  0  0  0  0  0  0
  -19.5851  -31.5157   17.7808 C   0  0  2  0  0  0  0  0  0  0  0  0
  -19.9681  -30.6337   22.4595 C   0  0  0  0  0  0  0  0  0  0  0  0
  -26.1645  -11.1168   19.8899 N   0  0  0  0  0  0  0  0  0  0  0  0
  -28.4254  -21.5060   20.0113 N   0  0  0  0  0  0  0  0  0  0  0  0
  -26.6443  -11.7015   18.7791 N   0  0  0  0  0  0  0  0  0  0  0  0
  -23.3894  -30.7240   21.3863 N   0  0  0  0  0  0  0  0  0  0  0  0
  -29.9777  -13.0495   20.0655 N   0  0  0  0  0  0  0  0  0  0  0  0
  -26.0428  -12.3777   16.5901 N   0  0  0  0  0  0  0  0  0  0  0  0
  -22.2335  -10.5673   18.2050 N   0  0  0  0  0  0  0  0  0  0  0  0
  -29.4933  -15.2378   20.7998 N   0  0  0  0  0  0  0  0  0  0  0  0
  -25.9938  -31.3835   23.8517 N   0  0  0  0  0  0  0  0  0  0  0  0
  -20.3360  -31.3173   20.0509 N   0  0  0  0  0  0  0  0  0  0  0  0
  -28.4387  -22.8427   19.8219 N   0  0  0  0  0  0  0  0  0  0  0  0
  -20.1592  -31.2005   16.4422 N   0  3  0  0  0  0  0  0  0  0  0  0
  -23.1917  -11.5639   16.3755 O   0  0  0  0  0  0  0  0  0  0  0  0
  -24.1021  -30.0301   23.7414 O   0  0  0  0  0  0  0  0  0  0  0  0
  -22.1317  -32.6301   21.8566 O   0  0  0  0  0  0  0  0  0  0  0  0
  -26.1246  -22.9681   19.6697 O   0  0  0  0  0  0  0  0  0  0  0  0
  -20.5994  -29.4974   18.6381 O   0  0  0  0  0  0  0  0  0  0  0  0
  -31.6699  -14.6062   20.3045 O   0  0  0  0  0  0  0  0  0  0  0  0
  -21.5259   -8.3591   23.2705 O   0  0  0  0  0  0  0  0  0  0  0  0
  -26.1727  -25.6395   19.2759 O   0  0  0  0  0  0  0  0  0  1  0  0
  -18.3406   -4.2350   21.4680 F   0  0  0  0  0  0  0  0  0  0  0  0
  -21.7457   -5.8225   24.3473 F   0  0  0  0  0  0  0  0  0  0  0  0
  1  2  1  0  0  0  0
  1  7  2  0  0  0  0
  2  8  2  0  0  0  0
  3 12  2  0  0  0  0
  3 19  1  0  0  0  0
  4 13  1  0  0  0  0
  4 19  2  0  0  0  0
  5 10  2  0  0  0  0
  5 20  1  0  0  0  0
  6 11  1  0  0  0  0
  6 20  2  0  0  0  0
  7 22  1  0  0  0  0
  8 24  1  0  0  0  0
  9 14  2  0  0  0  0
  9 23  1  0  0  0  0
 10 26  1  0  0  0  0
 11 26  2  0  0  0  0
 12 27  1  0  0  0  0
 13 27  2  0  0  0  0
 14 28  1  0  0  0  0
 15 16  2  0  0  0  0
 15 29  1  0  0  0  0
 16 30  1  0  0  0  0
 17 25  1  0  0  0  0
 17 28  2  0  0  0  0
 18 30  2  0  0  0  0
 18 31  1  0  0  0  0
 19 32  1  0  0  0  0
 20 34  1  0  0  0  0
 21 32  1  0  0  0  0
 21 33  2  0  0  0  0
 21 35  1  0  0  0  0
 22 24  2  0  0  0  0
 22 41  1  0  0  0  0
 23 25  2  0  0  0  0
 23 42  1  0  0  0  0
 24 50  1  0  0  0  0
 25 43  1  0  0  0  0
 26 70  1  0  0  0  0
 27 81  1  0  0  0  0
 28 82  1  0  0  0  0
 29 31  2  0  0  0  0
 29 81  1  0  0  0  0
 30 83  1  0  0  0  0
 31 84  1  0  0  0  0
 32 63  2  0  0  0  0
 33 65  1  0  0  0  0
 33 68  1  0  0  0  0
 34 53  1  0  0  0  0
 34 64  2  0  0  0  0
 35 69  1  0  0  0  0
 35 75  2  0  0  0  0
 36 51  1  0  0  0  0
 36 71  1  0  0  0  0
 36 76  2  0  0  0  0
 37 60  1  0  0  0  0
 37 66  1  0  0  0  0
 37 77  2  0  0  0  0
 38 59  1  0  0  0  0
 38 73  1  0  0  0  0
 38 78  2  0  0  0  0
 39 61  1  0  0  0  0
 39 72  1  0  0  0  0
 39 79  2  0  0  0  0
 40 67  1  0  0  0  0
 40 70  1  0  0  0  0
 40 80  2  0  0  0  0
 41 44  1  0  0  0  0
 42 51  1  0  0  0  0
 43 66  1  0  0  0  0
 44 46  1  0  0  0  0
 45 47  1  0  0  0  0
 45 48  1  0  0  0  0
 46 50  1  0  0  0  0
 47 52  1  0  0  0  0
 48 67  1  0  0  0  0
 49 52  1  0  0  0  0
 49 67  1  0  0  0  0
 50 71  1  0  0  0  0
 51 66  1  0  0  0  0
 52 65  1  0  0  0  0
 54 61  1  0  0  0  0
 55 62  1  0  0  0  0
 56 62  1  0  0  0  0
 57 62  1  0  0  0  0
 58 74  1  0  0  0  0
 59 82  1  0  0  0  0
 60 62  1  0  0  0  0
 60 72  1  0  0  0  0
 61 74  1  0  0  0  0
 63 65  1  0  0  0  0
 64 73  1  0  0  0  0
M  CHG  1  74   1
M  ISO  4  40 100  59 101  70 100  82 101
M  END
> <Batch ID>
0050

> <Smiles>
CNC(C)C(=O)NC(C(=O)N1Cc2cc([101O:1][101CH2:1]C(=O)NN=C(C)c3ccc([100NH:0][100C:0](=O)N4CCCC(n5nc(-c6ccc(Oc7ccc(F)cc7F)cc6)c(C(N)=O)c5N)C4)cc3)ccc2CC1C(=O)NC1CCCc2ccccc21)C(C)(C)C

> <Shape>
0.310

> <Color>
0.094

> <Negative vol penalty>
0.000

$$$$

  -OEChem-04042322353D

 88 97  0     1  0  0  0  0  0999 V2000
  -23.9228  -11.6845   20.4443 C   0  0  0  0  0  0  0  0  0  0  0  0
  -23.5897  -13.0164   20.6689 C   0  0  0  0  0  0  0  0  0  0  0  0
  -29.3334  -26.3480   20.6981 C   0  0  0  0  0  0  0  0  0  0  0  0
  -29.8076  -28.3866   19.4912 C   0  0  0  0  0  0  0  0  0  0  0  0
  -25.2425  -11.2617   20.5975 C   0  0  0  0  0  0  0  0  0  0  0  0
  -24.5761  -13.9262   21.0480 C   0  0  0  0  0  0  0  0  0  0  0  0
  -24.2660  -18.2976   18.5103 C   0  0  0  0  0  0  0  0  0  0  0  0
  -30.7009  -26.1002   20.8167 C   0  0  0  0  0  0  0  0  0  0  0  0
  -31.1751  -28.1388   19.6099 C   0  0  0  0  0  0  0  0  0  0  0  0
  -23.2859  -19.2018   18.9171 C   0  0  0  0  0  0  0  0  0  0  0  0
  -33.2691  -27.1711   22.7377 C   0  0  0  0  0  0  0  0  0  0  0  0
  -33.7484  -26.7634   23.9826 C   0  0  0  0  0  0  0  0  0  0  0  0
  -24.9525  -20.4524   20.1325 C   0  0  0  0  0  0  0  0  0  0  0  0
  -19.6932  -26.5192   22.3225 C   0  0  0  0  0  0  0  0  0  0  0  0
  -18.5307  -28.0434   20.8521 C   0  0  0  0  0  0  0  0  0  0  0  0
  -18.4023  -25.6614   20.4691 C   0  0  0  0  0  0  0  0  0  0  0  0
  -34.5536  -24.7085   22.9995 C   0  0  0  0  0  0  0  0  0  0  0  0
  -28.8867  -27.4912   20.0352 C   0  0  0  0  0  0  0  0  0  0  0  0
  -26.5144  -26.9333   19.2814 C   0  0  0  0  0  0  0  0  0  0  0  0
  -26.2473  -12.1688   20.9694 C   0  0  0  0  0  0  0  0  0  0  0  0
  -25.5971  -18.4581   18.9212 C   0  0  0  0  0  0  0  0  0  0  0  0
  -25.9103  -13.5149   21.2077 C   0  0  0  0  0  0  0  0  0  0  0  0
  -25.9482  -19.5503   19.7275 C   0  0  0  0  0  0  0  0  0  0  0  0
  -19.3486  -27.8213   21.9600 C   0  0  0  0  0  0  0  0  0  0  0  0
  -19.2201  -25.4393   21.5771 C   0  0  0  0  0  0  0  0  0  0  0  0
  -31.6217  -26.9955   20.2726 C   0  0  0  0  0  0  0  0  0  0  0  0
  -23.6285  -20.2778   19.7306 C   0  0  0  0  0  0  0  0  0  0  0  0
  -33.4319  -26.3475   21.6238 C   0  0  0  0  0  0  0  0  0  0  0  0
  -34.3906  -25.5321   24.1135 C   0  0  0  0  0  0  0  0  0  0  0  0
  -18.0576  -26.9635   20.1066 C   0  0  0  0  0  0  0  0  0  0  0  0
  -34.0742  -25.1163   21.7546 C   0  0  0  0  0  0  0  0  0  0  0  0
  -27.4742  -27.7475   19.9119 C   0  0  0  0  0  0  0  0  0  0  0  0
  -25.3316  -27.6141   19.4361 C   0  0  0  0  0  0  0  0  0  0  0  0
  -19.7562  -22.1817   20.3534 C   0  0  0  0  0  0  0  0  0  0  0  0
  -26.6773  -25.6740   18.6155 C   0  0  0  0  0  0  0  0  0  0  0  0
  -27.6364  -16.7329   20.6442 C   0  0  0  0  0  0  0  0  0  0  0  0
  -29.7379  -19.0347   19.7453 C   0  0  0  0  0  0  0  0  0  0  0  0
  -30.2478  -22.2393   18.6881 C   0  0  0  0  0  0  0  0  0  0  0  0
  -21.7760  -30.5382   22.5909 C   0  0  0  0  0  0  0  0  0  0  0  0
  -27.6513  -11.6553   21.1686 C   0  0  0  0  0  0  0  0  0  0  0  0
  -26.6474  -17.4891   18.4519 C   0  0  0  0  0  0  0  0  0  0  0  0
  -27.3666  -19.7788   20.1795 C   0  0  0  0  0  0  0  0  0  0  0  0
  -20.4909  -21.5568   19.1795 C   0  0  0  0  0  0  0  0  0  0  0  0
  -28.7040  -12.7600   21.2084 C   0  0  0  0  0  0  0  0  0  0  0  0
  -24.4310  -32.3281   21.0340 C   0  0  0  0  0  0  0  0  0  0  0  0
  -28.2496  -13.8980   22.1170 C   0  0  0  0  0  0  0  0  0  0  0  0
  -25.3826  -31.2295   20.5572 C   0  0  0  0  0  0  0  0  0  0  0  0
  -22.2002  -23.3576   19.2672 C   0  0  0  0  0  0  0  0  0  0  0  0
  -23.7834  -31.9729   22.3706 C   0  0  0  0  0  0  0  0  0  0  0  0
  -21.6354  -23.8413   20.5915 C   0  0  0  0  0  0  0  0  0  0  0  0
  -24.0575  -29.5646   21.9250 C   0  0  0  0  0  0  0  0  0  0  0  0
  -26.9565  -14.5369   21.5962 C   0  0  1  0  0  0  0  0  0  0  0  0
  -27.8788  -17.4604   19.3520 C   0  0  1  0  0  0  0  0  0  0  0  0
  -24.6922  -29.8523   20.5536 C   0  0  2  0  0  0  0  0  0  0  0  0
  -21.9751  -21.8663   19.1079 C   0  0  1  0  0  0  0  0  0  1  0  0
  -32.0773  -23.8433   18.0737 C   0  0  0  0  0  0  0  0  0  0  0  0
  -30.3964  -19.4120   22.7006 C   0  0  0  0  0  0  0  0  0  0  0  0
  -31.4649  -21.5982   22.1118 C   0  0  0  0  0  0  0  0  0  0  0  0
  -32.3766  -19.4739   21.1745 C   0  0  0  0  0  0  0  0  0  0  0  0
  -29.2182  -22.5377   15.9296 C   0  0  0  0  0  0  0  0  0  0  0  0
  -19.8548  -28.9760   22.7566 C   0  0  0  0  0  0  0  0  0  0  0  0
  -19.5918  -24.0350   21.9676 C   0  0  1  0  0  0  0  0  0  0  0  0
  -30.1735  -20.3647   20.3113 C   0  0  1  0  0  0  0  0  0  0  0  0
  -31.0912  -22.8057   17.5602 C   0  0  2  0  0  0  0  0  0  0  0  0
  -31.0757  -20.2071   21.5678 C   0  0  0  0  0  0  0  0  0  0  0  0
  -26.9468  -28.8606   20.4284 N   0  0  0  0  0  0  0  0  0  0  0  0
  -25.6428  -28.7507   20.1228 N   0  0  0  0  0  0  0  0  0  0  0  0
  -20.2896  -23.3528   20.8858 N   0  0  0  0  0  0  0  0  0  0  0  0
  -28.3563  -18.8003   19.6994 N   0  0  0  0  0  0  0  0  0  0  0  0
  -23.1450  -30.6563   22.2996 N   0  0  0  0  0  0  0  0  0  0  0  0
  -24.0661  -27.3455   19.0503 N   0  0  0  0  0  0  0  0  0  0  0  0
  -26.9530  -25.6756   17.2413 N   0  0  0  0  0  0  0  0  0  0  0  0
  -27.2407  -15.4186   20.4843 N   0  0  0  0  0  0  0  0  0  0  0  0
  -30.8012  -21.0902   19.2122 N   0  0  0  0  0  0  0  0  0  0  0  0
  -21.2487  -29.2564   22.4936 N   0  0  0  0  0  0  0  0  0  0  0  0
  -30.2212  -23.4504   16.5363 N   0  3  0  0  0  0  0  0  0  0  0  0
  -18.6944  -21.6750   20.7276 O   0  0  0  0  0  0  0  0  0  0  0  0
  -26.5652  -24.5794   19.2179 O   0  0  0  0  0  0  0  0  0  0  0  0
  -27.7980  -17.3201   21.7076 O   0  0  0  0  0  0  0  0  0  0  0  0
  -30.5917  -18.2362   19.3516 O   0  0  0  0  0  0  0  0  0  0  0  0
  -29.2046  -22.7657   19.0689 O   0  0  0  0  0  0  0  0  0  0  0  0
  -21.0744  -31.5045   22.9086 O   0  0  0  0  0  0  0  0  0  0  0  0
  -32.9562  -26.7541   20.3884 O   0  0  0  0  0  0  0  0  0  0  0  0
  -22.6737  -21.1615   20.1296 O   0  0  0  0  0  0  0  0  0  1  0  0
  -34.8522  -25.1414   25.3086 F   0  0  0  0  0  0  0  0  0  0  0  0
  -17.2732  -27.1771   19.0422 F   0  0  0  0  0  0  0  0  0  0  0  0
  -34.2347  -24.3213   20.6878 F   0  0  0  0  0  0  0  0  0  0  0  0
  -20.3730  -23.9823   23.0842 F   0  0  0  0  0  0  0  0  0  0  0  0
  1  2  1  0  0  0  0
  1  5  2  0  0  0  0
  2  6  2  0  0  0  0
  3  8  2  0  0  0  0
  3 18  1  0  0  0  0
  4  9  1  0  0  0  0
  4 18  2  0  0  0  0
  5 20  1  0  0  0  0
  6 22  1  0  0  0  0
  7 10  2  0  0  0  0
  7 21  1  0  0  0  0
  8 26  1  0  0  0  0
  9 26  2  0  0  0  0
 10 27  1  0  0  0  0
 11 12  2  0  0  0  0
 11 28  1  0  0  0  0
 12 29  1  0  0  0  0
 13 23  1  0  0  0  0
 13 27  2  0  0  0  0
 14 24  1  0  0  0  0
 14 25  2  0  0  0  0
 15 24  2  0  0  0  0
 15 30  1  0  0  0  0
 16 25  1  0  0  0  0
 16 30  2  0  0  0  0
 17 29  2  0  0  0  0
 17 31  1  0  0  0  0
 18 32  1  0  0  0  0
 19 32  1  0  0  0  0
 19 33  2  0  0  0  0
 19 35  1  0  0  0  0
 20 22  2  0  0  0  0
 20 40  1  0  0  0  0
 21 23  2  0  0  0  0
 21 41  1  0  0  0  0
 22 52  1  0  0  0  0
 23 42  1  0  0  0  0
 24 61  1  0  0  0  0
 25 62  1  0  0  0  0
 26 83  1  0  0  0  0
 27 84  1  0  0  0  0
 28 31  2  0  0  0  0
 28 83  1  0  0  0  0
 29 85  1  0  0  0  0
 30 86  1  0  0  0  0
 31 87  1  0  0  0  0
 32 66  2  0  0  0  0
 33 67  1  0  0  0  0
 33 71  1  0  0  0  0
 34 43  1  0  0  0  0
 34 68  1  0  0  0  0
 34 77  2  0  0  0  0
 35 72  1  0  0  0  0
 35 78  2  0  0  0  0
 36 53  1  0  0  0  0
 36 73  1  0  0  0  0
 36 79  2  0  0  0  0
 37 63  1  0  0  0  0
 37 69  1  0  0  0  0
 37 80  2  0  0  0  0
 38 64  1  0  0  0  0
 38 74  1  0  0  0  0
 38 81  2  0  0  0  0
 39 70  1  0  0  0  0
 39 75  1  0  0  0  0
 39 82  2  0  0  0  0
 40 44  1  0  0  0  0
 41 53  1  0  0  0  0
 42 69  1  0  0  0  0
 43 55  1  0  0  0  0
 44 46  1  0  0  0  0
 45 47  1  0  0  0  0
 45 49  1  0  0  0  0
 46 52  1  0  0  0  0
 47 54  1  0  0  0  0
 48 50  1  0  0  0  0
 48 55  1  0  0  0  0
 49 70  1  0  0  0  0
 50 68  1  0  0  0  0
 51 54  1  0  0  0  0
 51 70  1  0  0  0  0
 52 73  1  0  0  0  0
 53 69  1  0  0  0  0
 54 67  1  0  0  0  0
 55 84  1  0  0  0  0
 56 64  1  0  0  0  0
 57 65  1  0  0  0  0
 58 65  1  0  0  0  0
 59 65  1  0  0  0  0
 60 76  1  0  0  0  0
 61 75  1  0  0  0  0
 62 68  1  0  0  0  0
 62 88  1  0  0  0  0
 63 65  1  0  0  0  0
 63 74  1  0  0  0  0
 64 76  1  0  0  0  0
 66 67  1  0  0  0  0
M  CHG  1  76   1
M  ISO  4  39 100  55 101  75 100  84 101
M  END
> <Batch ID>
0050

> <Smiles>
CNC(C)C(=O)NC(C(=O)N1Cc2cc([101O:1][101CH:1]3CCN(C(F)c4cc(F)cc(C[100NH:0][100C:0](=O)N5CCCC(n6nc(-c7ccc(Oc8ccc(F)cc8F)cc7)c(C(N)=O)c6N)C5)c4)C(=O)C3)ccc2CC1C(=O)NC1CCCc2ccccc21)C(C)(C)C

> <Shape>
0.253

> <Color>
0.085

> <Negative vol penalty>
0.000

$$$$

  -OEChem-04042322353D

 87 95  0     1  0  0  0  0  0999 V2000
  -28.0495  -33.8944   25.2498 C   0  0  0  0  0  0  0  0  0  0  0  0
  -28.1885  -32.6210   24.7069 C   0  0  0  0  0  0  0  0  0  0  0  0
  -21.9039  -10.2236   21.9626 C   0  0  0  0  0  0  0  0  0  0  0  0
  -24.1458  -10.0075   21.0882 C   0  0  0  0  0  0  0  0  0  0  0  0
  -26.7962  -34.3396   25.6680 C   0  0  0  0  0  0  0  0  0  0  0  0
  -27.0744  -31.7917   24.5829 C   0  0  0  0  0  0  0  0  0  0  0  0
  -26.8630  -29.4820   20.0812 C   0  0  0  0  0  0  0  0  0  0  0  0
  -28.3045  -20.5779   18.2203 C   0  0  0  0  0  0  0  0  0  0  0  0
  -27.1322  -19.8251   18.2877 C   0  0  0  0  0  0  0  0  0  0  0  0
  -21.7345   -8.8422   21.8696 C   0  0  0  0  0  0  0  0  0  0  0  0
  -23.9764   -8.6261   20.9952 C   0  0  0  0  0  0  0  0  0  0  0  0
  -27.6955  -28.3799   19.8913 C   0  0  0  0  0  0  0  0  0  0  0  0
  -22.6381   -6.0980   23.6263 C   0  0  0  0  0  0  0  0  0  0  0  0
  -22.0588   -5.4414   24.7120 C   0  0  0  0  0  0  0  0  0  0  0  0
  -25.8336  -26.9072   20.3199 C   0  0  0  0  0  0  0  0  0  0  0  0
  -27.7713  -19.0257   20.4762 C   0  0  0  0  0  0  0  0  0  0  0  0
  -20.2615   -4.6761   23.2903 C   0  0  0  0  0  0  0  0  0  0  0  0
  -23.1095  -10.8063   21.5718 C   0  0  0  0  0  0  0  0  0  0  0  0
  -23.7838  -12.9569   22.7667 C   0  0  0  0  0  0  0  0  0  0  0  0
  -25.6645  -33.5189   25.5403 C   0  0  0  0  0  0  0  0  0  0  0  0
  -25.5097  -29.3047   20.4031 C   0  0  0  0  0  0  0  0  0  0  0  0
  -25.8050  -32.2258   25.0011 C   0  0  0  0  0  0  0  0  0  0  0  0
  -24.9855  -28.0087   20.5108 C   0  0  0  0  0  0  0  0  0  0  0  0
  -29.2103  -20.5546   19.2809 C   0  0  0  0  0  0  0  0  0  0  0  0
  -28.9437  -19.7785   20.4088 C   0  0  0  0  0  0  0  0  0  0  0  0
  -26.8655  -19.0490   19.4156 C   0  0  0  0  0  0  0  0  0  0  0  0
  -22.7707   -8.0434   21.3860 C   0  0  0  0  0  0  0  0  0  0  0  0
  -27.1816  -27.0923   20.0135 C   0  0  0  0  0  0  0  0  0  0  0  0
  -22.0291   -6.0437   22.3725 C   0  0  0  0  0  0  0  0  0  0  0  0
  -20.8705   -4.7305   24.5441 C   0  0  0  0  0  0  0  0  0  0  0  0
  -20.8408   -5.3327   22.2046 C   0  0  0  0  0  0  0  0  0  0  0  0
  -23.2849  -12.2332   21.6671 C   0  0  0  0  0  0  0  0  0  0  0  0
  -23.7517  -14.2678   22.3582 C   0  0  0  0  0  0  0  0  0  0  0  0
  -24.2359  -12.4862   24.0433 C   0  0  0  0  0  0  0  0  0  0  0  0
  -23.6718  -30.0834   22.8769 C   0  0  0  0  0  0  0  0  0  0  0  0
  -21.3042  -28.9338   20.9808 C   0  0  0  0  0  0  0  0  0  0  0  0
  -29.8754  -23.7662   19.5481 C   0  0  0  0  0  0  0  0  0  0  0  0
  -20.3931  -26.9062   18.3913 C   0  0  0  0  0  0  0  0  0  0  0  0
  -24.6691  -18.1982   18.5223 C   0  0  0  0  0  0  0  0  0  0  0  0
  -24.3387  -34.0260   26.0500 C   0  0  0  0  0  0  0  0  0  0  0  0
  -24.6188  -30.5038   20.5785 C   0  0  0  0  0  0  0  0  0  0  0  0
  -23.5350  -27.7644   20.8349 C   0  0  0  0  0  0  0  0  0  0  0  0
  -23.1432  -33.2262   25.5387 C   0  0  0  0  0  0  0  0  0  0  0  0
  -21.6024  -16.4025   18.3028 C   0  0  0  0  0  0  0  0  0  0  0  0
  -23.4067  -31.7295   25.6701 C   0  0  0  0  0  0  0  0  0  0  0  0
  -21.8078  -15.2172   19.2490 C   0  0  0  0  0  0  0  0  0  0  0  0
  -22.8862  -16.7616   17.5567 C   0  0  0  0  0  0  0  0  0  0  0  0
  -24.2647  -15.7993   19.3574 C   0  0  0  0  0  0  0  0  0  0  0  0
  -24.6159  -31.3061   24.8274 C   0  0  1  0  0  0  0  0  0  0  0  0
  -23.3742  -30.2070   21.4093 C   0  0  1  0  0  0  0  0  0  0  0  0
  -23.0158  -15.4418   20.1796 C   0  0  2  0  0  0  0  0  0  0  0  0
  -18.3814  -26.1474   17.0971 C   0  0  0  0  0  0  0  0  0  0  0  0
  -20.5035  -27.1153   23.2964 C   0  0  0  0  0  0  0  0  0  0  0  0
  -19.1642  -25.7569   21.6750 C   0  0  0  0  0  0  0  0  0  0  0  0
  -18.5847  -28.1506   22.0713 C   0  0  0  0  0  0  0  0  0  0  0  0
  -21.4618  -28.0071   15.8605 C   0  0  0  0  0  0  0  0  0  0  0  0
  -30.4656  -21.3725   19.1850 C   0  0  0  0  0  0  0  0  0  0  0  0
  -29.9362  -24.8399   20.6233 C   0  0  0  0  0  0  0  0  0  0  0  0
  -29.3704  -26.1744   20.1627 C   0  0  0  0  0  0  0  0  0  1  0  0
  -20.6714  -27.5808   20.7624 C   0  0  1  0  0  0  0  0  0  0  0  0
  -19.5172  -27.1555   17.1767 C   0  0  2  0  0  0  0  0  0  0  0  0
  -29.8978  -19.7396   21.5571 C   0  0  0  0  0  0  0  0  0  0  0  0
  -19.7587  -27.1552   21.9470 C   0  0  0  0  0  0  0  0  0  0  0  0
  -22.9596  -13.0192   20.6373 N   0  0  0  0  0  0  0  0  0  0  0  0
  -23.2546  -14.2504   21.0882 N   0  0  0  0  0  0  0  0  0  0  0  0
  -22.7057  -28.9691   21.0034 N   0  0  0  0  0  0  0  0  0  0  0  0
  -23.9859  -16.9638   18.5025 N   0  0  0  0  0  0  0  0  0  0  0  0
  -24.1004  -15.4222   22.9650 N   0  0  0  0  0  0  0  0  0  0  0  0
  -24.2016  -11.1084   24.2978 N   0  0  0  0  0  0  0  0  0  0  0  0
  -25.6738  -18.2857   19.4854 N   0  0  0  0  0  0  0  0  0  0  0  0
  -24.2497  -31.2099   23.4306 N   0  0  0  0  0  0  0  0  0  0  0  0
  -30.3987  -22.5635   20.0009 N   0  0  0  0  0  0  0  0  0  0  0  0
  -19.9862  -27.6534   19.4764 N   0  0  0  0  0  0  0  0  0  0  0  0
  -20.3234  -27.0549   15.9273 N   0  3  0  0  0  0  0  0  0  0  0  0
  -24.6424  -13.2658   24.9380 O   0  0  0  0  0  0  0  0  0  0  0  0
  -23.3962  -29.0435   23.4638 O   0  0  0  0  0  0  0  0  0  0  0  0
  -20.5818  -29.9241   21.1189 O   0  0  0  0  0  0  0  0  0  0  0  0
  -29.4161  -23.9616   18.4262 O   0  0  0  0  0  0  0  0  0  0  0  0
  -21.3409  -26.1239   18.3798 O   0  0  0  0  0  0  0  0  0  0  0  0
  -24.3657  -19.1201   17.7607 O   0  0  0  0  0  0  0  0  0  0  0  0
  -22.6059   -6.6954   21.2954 O   0  0  0  0  0  0  0  0  0  0  0  0
  -27.9921  -26.0148   19.8293 O   0  0  0  0  0  0  0  0  0  1  0  0
  -20.3151   -4.0987   25.5865 F   0  0  0  0  0  0  0  0  0  0  0  0
  -20.2517   -5.2760   21.0022 F   0  0  0  0  0  0  0  0  0  0  0  0
  -29.4872  -18.9346   22.5804 F   0  0  0  0  0  0  0  0  0  0  0  0
  -31.1390  -19.2832   21.2187 F   0  0  0  0  0  0  0  0  0  0  0  0
  -30.0969  -20.9690   22.1135 F   0  0  0  0  0  0  0  0  0  0  0  0
  1  2  1  0  0  0  0
  1  5  2  0  0  0  0
  2  6  2  0  0  0  0
  3 10  2  0  0  0  0
  3 18  1  0  0  0  0
  4 11  1  0  0  0  0
  4 18  2  0  0  0  0
  5 20  1  0  0  0  0
  6 22  1  0  0  0  0
  7 12  2  0  0  0  0
  7 21  1  0  0  0  0
  8  9  2  0  0  0  0
  8 24  1  0  0  0  0
  9 26  1  0  0  0  0
 10 27  1  0  0  0  0
 11 27  2  0  0  0  0
 12 28  1  0  0  0  0
 13 14  2  0  0  0  0
 13 29  1  0  0  0  0
 14 30  1  0  0  0  0
 15 23  1  0  0  0  0
 15 28  2  0  0  0  0
 16 25  1  0  0  0  0
 16 26  2  0  0  0  0
 17 30  2  0  0  0  0
 17 31  1  0  0  0  0
 18 32  1  0  0  0  0
 19 32  1  0  0  0  0
 19 33  2  0  0  0  0
 19 34  1  0  0  0  0
 20 22  2  0  0  0  0
 20 40  1  0  0  0  0
 21 23  2  0  0  0  0
 21 41  1  0  0  0  0
 22 49  1  0  0  0  0
 23 42  1  0  0  0  0
 24 25  2  0  0  0  0
 24 57  1  0  0  0  0
 25 62  1  0  0  0  0
 26 70  1  0  0  0  0
 27 81  1  0  0  0  0
 28 82  1  0  0  0  0
 29 31  2  0  0  0  0
 29 81  1  0  0  0  0
 30 83  1  0  0  0  0
 31 84  1  0  0  0  0
 32 64  2  0  0  0  0
 33 65  1  0  0  0  0
 33 68  1  0  0  0  0
 34 69  1  0  0  0  0
 34 75  2  0  0  0  0
 35 50  1  0  0  0  0
 35 71  1  0  0  0  0
 35 76  2  0  0  0  0
 36 60  1  0  0  0  0
 36 66  1  0  0  0  0
 36 77  2  0  0  0  0
 37 58  1  0  0  0  0
 37 72  1  0  0  0  0
 37 78  2  0  0  0  0
 38 61  1  0  0  0  0
 38 73  1  0  0  0  0
 38 79  2  0  0  0  0
 39 67  1  0  0  0  0
 39 70  1  0  0  0  0
 39 80  2  0  0  0  0
 40 43  1  0  0  0  0
 41 50  1  0  0  0  0
 42 66  1  0  0  0  0
 43 45  1  0  0  0  0
 44 46  1  0  0  0  0
 44 47  1  0  0  0  0
 45 49  1  0  0  0  0
 46 51  1  0  0  0  0
 47 67  1  0  0  0  0
 48 51  1  0  0  0  0
 48 67  1  0  0  0  0
 49 71  1  0  0  0  0
 50 66  1  0  0  0  0
 51 65  1  0  0  0  0
 52 61  1  0  0  0  0
 53 63  1  0  0  0  0
 54 63  1  0  0  0  0
 55 63  1  0  0  0  0
 56 74  1  0  0  0  0
 57 72  1  0  0  0  0
 58 59  1  0  0  0  0
 59 82  1  0  0  0  0
 60 63  1  0  0  0  0
 60 73  1  0  0  0  0
 61 74  1  0  0  0  0
 62 85  1  0  0  0  0
 62 86  1  0  0  0  0
 62 87  1  0  0  0  0
 64 65  1  0  0  0  0
M  CHG  1  74   1
M  ISO  4  39 100  59 101  70 100  82 101
M  END
> <Batch ID>
0050

> <Smiles>
CNC(C)C(=O)NC(C(=O)N1Cc2cc([101O:1][101CH2:1]CC(=O)NCc3ccc([100NH:0][100C:0](=O)N4CCCC(n5nc(-c6ccc(Oc7ccc(F)cc7F)cc6)c(C(N)=O)c5N)C4)cc3C(F)(F)F)ccc2CC1C(=O)NC1CCCc2ccccc21)C(C)(C)C

> <Shape>
0.308

> <Color>
0.099

> <Negative vol penalty>
0.000

$$$$

  -OEChem-04042322353D

 85 93  0     1  0  0  0  0  0999 V2000
  -20.2159  -23.8454   22.4100 C   0  0  0  0  0  0  0  0  0  0  0  0
  -21.1304  -24.3418   21.4865 C   0  0  0  0  0  0  0  0  0  0  0  0
  -25.5732  -13.0573   21.7671 C   0  0  0  0  0  0  0  0  0  0  0  0
  -25.3670  -12.8964   19.3653 C   0  0  0  0  0  0  0  0  0  0  0  0
  -19.3734  -24.7203   23.0944 C   0  0  0  0  0  0  0  0  0  0  0  0
  -21.2020  -25.7135   21.2462 C   0  0  0  0  0  0  0  0  0  0  0  0
  -25.9704  -27.4104   21.0807 C   0  0  0  0  0  0  0  0  0  0  0  0
  -25.0116  -11.7875   21.9004 C   0  0  0  0  0  0  0  0  0  0  0  0
  -24.8054  -11.6266   19.4986 C   0  0  0  0  0  0  0  0  0  0  0  0
  -26.6898  -27.1750   19.9099 C   0  0  0  0  0  0  0  0  0  0  0  0
  -26.0138   -8.5743   21.5790 C   0  0  0  0  0  0  0  0  0  0  0  0
  -26.6246   -7.6849   22.4631 C   0  0  0  0  0  0  0  0  0  0  0  0
  -26.2515  -29.4363   19.1931 C   0  0  0  0  0  0  0  0  0  0  0  0
  -26.7292  -22.7704   15.6762 C   0  0  0  0  0  0  0  0  0  0  0  0
  -29.1569  -21.9555   14.5694 C   0  0  0  0  0  0  0  0  0  0  0  0
  -24.5776   -7.5478   23.7391 C   0  0  0  0  0  0  0  0  0  0  0  0
  -25.7509  -13.6118   20.4996 C   0  0  0  0  0  0  0  0  0  0  0  0
  -27.6952  -15.2398   20.2227 C   0  0  0  0  0  0  0  0  0  0  0  0
  -19.4414  -26.1043   22.8694 C   0  0  0  0  0  0  0  0  0  0  0  0
  -25.3760  -28.6593   21.3119 C   0  0  0  0  0  0  0  0  0  0  0  0
  -20.3586  -26.6077   21.9273 C   0  0  0  0  0  0  0  0  0  0  0  0
  -25.5273  -29.6858   20.3688 C   0  0  0  0  0  0  0  0  0  0  0  0
  -27.2253  -23.4064   14.5382 C   0  0  0  0  0  0  0  0  0  0  0  0
  -28.6608  -21.3196   15.7075 C   0  0  0  0  0  0  0  0  0  0  0  0
  -27.4470  -21.7270   16.2609 C   0  0  0  0  0  0  0  0  0  0  0  0
  -24.6277  -11.0721   20.7662 C   0  0  0  0  0  0  0  0  0  0  0  0
  -26.8280  -28.1871   18.9645 C   0  0  0  0  0  0  0  0  0  0  0  0
  -24.6850   -8.9505   21.7750 C   0  0  0  0  0  0  0  0  0  0  0  0
  -25.9064   -7.1717   23.5431 C   0  0  0  0  0  0  0  0  0  0  0  0
  -23.9669   -8.4372   22.8550 C   0  0  0  0  0  0  0  0  0  0  0  0
  -28.4391  -22.9989   13.9848 C   0  0  0  0  0  0  0  0  0  0  0  0
  -26.3304  -14.9237   20.3612 C   0  0  0  0  0  0  0  0  0  0  0  0
  -27.7225  -16.6098   20.1277 C   0  0  0  0  0  0  0  0  0  0  0  0
  -28.8364  -14.3727   20.1833 C   0  0  0  0  0  0  0  0  0  0  0  0
  -22.3942  -29.6841   21.7150 C   0  0  0  0  0  0  0  0  0  0  0  0
  -23.8633  -32.5070   22.3438 C   0  0  0  0  0  0  0  0  0  0  0  0
  -26.6894  -26.5428   15.3773 C   0  0  0  0  0  0  0  0  0  0  0  0
  -26.6095  -34.4946   21.9507 C   0  0  0  0  0  0  0  0  0  0  0  0
  -25.7357  -21.3907   18.0788 C   0  0  0  0  0  0  0  0  0  0  0  0
  -18.4775  -27.0065   23.5986 C   0  0  0  0  0  0  0  0  0  0  0  0
  -24.6259  -28.9056   22.5922 C   0  0  0  0  0  0  0  0  0  0  0  0
  -24.9257  -31.0505   20.5787 C   0  0  0  0  0  0  0  0  0  0  0  0
  -18.8750  -28.4799   23.5608 C   0  0  0  0  0  0  0  0  0  0  0  0
  -24.0882  -20.0402   20.9316 C   0  0  0  0  0  0  0  0  0  0  0  0
  -19.2690  -28.8904   22.1455 C   0  0  0  0  0  0  0  0  0  0  0  0
  -24.6369  -18.6147   21.0262 C   0  0  0  0  0  0  0  0  0  0  0  0
  -23.8976  -20.4795   19.4810 C   0  0  0  0  0  0  0  0  0  0  0  0
  -25.6304  -18.9022   18.7202 C   0  0  0  0  0  0  0  0  0  0  0  0
  -20.4834  -28.0915   21.6572 C   0  0  1  0  0  0  0  0  0  0  0  0
  -23.6279  -30.0548   22.4884 C   0  0  1  0  0  0  0  0  0  0  0  0
  -25.9003  -18.4386   20.1610 C   0  0  2  0  0  0  0  0  0  0  0  0
  -29.4512  -20.2050   16.3129 C   0  0  0  0  0  0  0  0  0  0  0  0
  -27.5017  -36.7625   22.5490 C   0  0  0  0  0  0  0  0  0  0  0  0
  -22.0707  -33.7694   20.2218 C   0  0  0  0  0  0  0  0  0  0  0  0
  -23.6170  -35.7381   20.1866 C   0  0  0  0  0  0  0  0  0  0  0  0
  -22.3887  -35.1564   22.2784 C   0  0  0  0  0  0  0  0  0  0  0  0
  -28.8834  -33.3331   23.4472 C   0  0  0  0  0  0  0  0  0  0  0  0
  -26.4230  -24.5252   13.9393 C   0  0  0  0  0  0  0  0  0  0  0  0
  -27.4407  -27.8643   15.4177 C   0  0  0  0  0  0  0  0  0  0  0  0
  -27.1300  -28.6864   16.6590 C   0  0  0  0  0  0  0  0  0  1  0  0
  -24.3029  -33.6909   21.5168 C   0  0  1  0  0  0  0  0  0  0  0  0
  -27.4231  -35.2975   22.9496 C   0  0  2  0  0  0  0  0  0  0  0  0
  -23.1046  -34.5625   21.0458 C   0  0  0  0  0  0  0  0  0  0  0  0
  -25.5474  -16.0057   20.3555 N   0  0  0  0  0  0  0  0  0  0  0  0
  -26.4230  -17.0152   20.2123 N   0  0  0  0  0  0  0  0  0  0  0  0
  -24.1961  -31.2402   21.8434 N   0  0  0  0  0  0  0  0  0  0  0  0
  -25.1364  -20.2881   18.7235 N   0  0  0  0  0  0  0  0  0  0  0  0
  -28.7310  -17.4951   19.9811 N   0  0  0  0  0  0  0  0  0  0  0  0
  -28.6297  -12.9909   20.2943 N   0  0  0  0  0  0  0  0  0  0  0  0
  -26.9268  -21.0942   17.4170 N   0  0  0  0  0  0  0  0  0  0  0  0
  -21.6999  -28.6124   22.2431 N   0  0  0  0  0  0  0  0  0  0  0  0
  -26.9954  -25.8191   14.2337 N   0  0  0  0  0  0  0  0  0  0  0  0
  -25.2843  -34.4096   22.3222 N   0  0  0  0  0  0  0  0  0  0  0  0
  -28.8101  -34.7597   23.0393 N   0  3  0  0  0  0  0  0  0  0  0  0
  -30.0061  -14.8113   20.0699 O   0  0  0  0  0  0  0  0  0  0  0  0
  -22.0936  -30.3239   20.7140 O   0  0  0  0  0  0  0  0  0  0  0  0
  -23.2535  -32.6992   23.3987 O   0  0  0  0  0  0  0  0  0  0  0  0
  -25.9137  -26.1817   16.2581 O   0  0  0  0  0  0  0  0  0  0  0  0
  -27.0996  -33.9960   20.9399 O   0  0  0  0  0  0  0  0  0  0  0  0
  -25.2439  -22.5208   18.1341 O   0  0  0  0  0  0  0  0  0  0  0  0
  -24.0799   -9.8329   20.8959 O   0  0  0  0  0  0  0  0  0  0  0  0
  -27.5290  -27.9598   17.8205 O   0  0  0  0  0  0  0  0  0  1  0  0
  -26.4926   -6.3164   24.3912 F   0  0  0  0  0  0  0  0  0  0  0  0
  -22.6897   -8.7941   23.0478 F   0  0  0  0  0  0  0  0  0  0  0  0
  -29.0841  -23.7627   12.5776 Cl  0  0  0  0  0  0  0  0  0  0  0  0
  1  2  1  0  0  0  0
  1  5  2  0  0  0  0
  2  6  2  0  0  0  0
  3  8  2  0  0  0  0
  3 17  1  0  0  0  0
  4  9  1  0  0  0  0
  4 17  2  0  0  0  0
  5 19  1  0  0  0  0
  6 21  1  0  0  0  0
  7 10  2  0  0  0  0
  7 20  1  0  0  0  0
  8 26  1  0  0  0  0
  9 26  2  0  0  0  0
 10 27  1  0  0  0  0
 11 12  2  0  0  0  0
 11 28  1  0  0  0  0
 12 29  1  0  0  0  0
 13 22  1  0  0  0  0
 13 27  2  0  0  0  0
 14 23  1  0  0  0  0
 14 25  2  0  0  0  0
 15 24  2  0  0  0  0
 15 31  1  0  0  0  0
 16 29  2  0  0  0  0
 16 30  1  0  0  0  0
 17 32  1  0  0  0  0
 18 32  1  0  0  0  0
 18 33  2  0  0  0  0
 18 34  1  0  0  0  0
 19 21  2  0  0  0  0
 19 40  1  0  0  0  0
 20 22  2  0  0  0  0
 20 41  1  0  0  0  0
 21 49  1  0  0  0  0
 22 42  1  0  0  0  0
 23 31  2  0  0  0  0
 23 58  1  0  0  0  0
 24 25  1  0  0  0  0
 24 52  1  0  0  0  0
 25 70  1  0  0  0  0
 26 81  1  0  0  0  0
 27 82  1  0  0  0  0
 28 30  2  0  0  0  0
 28 81  1  0  0  0  0
 29 83  1  0  0  0  0
 30 84  1  0  0  0  0
 31 85  1  0  0  0  0
 32 64  2  0  0  0  0
 33 65  1  0  0  0  0
 33 68  1  0  0  0  0
 34 69  1  0  0  0  0
 34 75  2  0  0  0  0
 35 50  1  0  0  0  0
 35 71  1  0  0  0  0
 35 76  2  0  0  0  0
 36 61  1  0  0  0  0
 36 66  1  0  0  0  0
 36 77  2  0  0  0  0
 37 59  1  0  0  0  0
 37 72  1  0  0  0  0
 37 78  2  0  0  0  0
 38 62  1  0  0  0  0
 38 73  1  0  0  0  0
 38 79  2  0  0  0  0
 39 67  1  0  0  0  0
 39 70  1  0  0  0  0
 39 80  2  0  0  0  0
 40 43  1  0  0  0  0
 41 50  1  0  0  0  0
 42 66  1  0  0  0  0
 43 45  1  0  0  0  0
 44 46  1  0  0  0  0
 44 47  1  0  0  0  0
 45 49  1  0  0  0  0
 46 51  1  0  0  0  0
 47 67  1  0  0  0  0
 48 51  1  0  0  0  0
 48 67  1  0  0  0  0
 49 71  1  0  0  0  0
 50 66  1  0  0  0  0
 51 65  1  0  0  0  0
 53 62  1  0  0  0  0
 54 63  1  0  0  0  0
 55 63  1  0  0  0  0
 56 63  1  0  0  0  0
 57 74  1  0  0  0  0
 58 72  1  0  0  0  0
 59 60  1  0  0  0  0
 60 82  1  0  0  0  0
 61 63  1  0  0  0  0
 61 73  1  0  0  0  0
 62 74  1  0  0  0  0
 64 65  1  0  0  0  0
M  CHG  1  74   1
M  ISO  4  39 100  60 101  70 100  82 101
M  END
> <Batch ID>
0050

> <Smiles>
CNC(C)C(=O)NC(C(=O)N1Cc2cc([101O:1][101CH2:1]CC(=O)NCc3cc([100NH:0][100C:0](=O)N4CCCC(n5nc(-c6ccc(Oc7ccc(F)cc7F)cc6)c(C(N)=O)c5N)C4)c(C)cc3Cl)ccc2CC1C(=O)NC1CCCc2ccccc21)C(C)(C)C

> <Shape>
0.205

> <Color>
0.106

> <Negative vol penalty>
0.000

$$$$

  -OEChem-04042322353D

 90 99  0     1  0  0  0  0  0999 V2000
  -30.9470  -22.3389   21.1767 C   0  0  0  0  0  0  0  0  0  0  0  0
  -26.6720  -35.6524   26.6853 C   0  0  0  0  0  0  0  0  0  0  0  0
  -27.3187  -34.6307   25.9972 C   0  0  0  0  0  0  0  0  0  0  0  0
  -23.6016   -9.6554   20.4504 C   0  0  0  0  0  0  0  0  0  0  0  0
  -24.1676   -8.8226   22.6465 C   0  0  0  0  0  0  0  0  0  0  0  0
  -25.3054  -35.5598   26.9453 C   0  0  0  0  0  0  0  0  0  0  0  0
  -26.5993  -33.5153   25.5698 C   0  0  0  0  0  0  0  0  0  0  0  0
  -27.5169  -30.2832   20.4495 C   0  0  0  0  0  0  0  0  0  0  0  0
  -22.6205   -8.6713   20.3300 C   0  0  0  0  0  0  0  0  0  0  0  0
  -23.1864   -7.8384   22.5262 C   0  0  0  0  0  0  0  0  0  0  0  0
  -28.1876  -29.0860   20.2035 C   0  0  0  0  0  0  0  0  0  0  0  0
  -22.8335   -4.8470   20.9908 C   0  0  0  0  0  0  0  0  0  0  0  0
  -23.1689   -3.5476   21.3710 C   0  0  0  0  0  0  0  0  0  0  0  0
  -26.0995  -27.8894   20.3680 C   0  0  0  0  0  0  0  0  0  0  0  0
  -27.4309  -19.6457   22.1307 C   0  0  0  0  0  0  0  0  0  0  0  0
  -21.4126   -3.5796   23.0297 C   0  0  0  0  0  0  0  0  0  0  0  0
  -24.3752   -9.7310   21.6087 C   0  0  0  0  0  0  0  0  0  0  0  0
  -26.5082  -10.9380   20.9008 C   0  0  0  0  0  0  0  0  0  0  0  0
  -24.5669  -34.4473   26.5124 C   0  0  0  0  0  0  0  0  0  0  0  0
  -26.1317  -30.2912   20.6677 C   0  0  0  0  0  0  0  0  0  0  0  0
  -25.2217  -33.4072   25.8255 C   0  0  0  0  0  0  0  0  0  0  0  0
  -25.4132  -29.0884   20.6140 C   0  0  0  0  0  0  0  0  0  0  0  0
  -27.6011  -20.8273   21.4092 C   0  0  0  0  0  0  0  0  0  0  0  0
  -28.0668  -20.7812   20.0952 C   0  0  0  0  0  0  0  0  0  0  0  0
  -28.3624  -19.5535   19.5026 C   0  0  0  0  0  0  0  0  0  0  0  0
  -27.7265  -18.4180   21.5381 C   0  0  0  0  0  0  0  0  0  0  0  0
  -22.4129   -7.7628   21.3679 C   0  0  0  0  0  0  0  0  0  0  0  0
  -27.4794  -27.8885   20.1656 C   0  0  0  0  0  0  0  0  0  0  0  0
  -21.7877   -5.5128   21.6301 C   0  0  0  0  0  0  0  0  0  0  0  0
  -22.4585   -2.9138   22.3904 C   0  0  0  0  0  0  0  0  0  0  0  0
  -21.0772   -4.8790   22.6495 C   0  0  0  0  0  0  0  0  0  0  0  0
  -28.1922  -18.3719   20.2241 C   0  0  0  0  0  0  0  0  0  0  0  0
  -25.3892  -10.7470   21.7334 C   0  0  0  0  0  0  0  0  0  0  0  0
  -27.1544  -12.0245   21.4379 C   0  0  0  0  0  0  0  0  0  0  0  0
  -30.1821  -23.0537   20.3984 C   0  0  0  0  0  0  0  0  0  0  0  0
  -31.7066  -21.6287   21.9494 C   0  0  0  0  0  0  0  0  0  0  0  0
  -26.9261  -10.1993   19.7452 C   0  0  0  0  0  0  0  0  0  0  0  0
  -24.2469  -31.1254   23.0875 C   0  0  0  0  0  0  0  0  0  0  0  0
  -21.8862  -30.5307   20.9438 C   0  0  0  0  0  0  0  0  0  0  0  0
  -20.8833  -28.9063   18.1150 C   0  0  0  0  0  0  0  0  0  0  0  0
  -27.0821  -17.1482   23.6163 C   0  0  0  0  0  0  0  0  0  0  0  0
  -23.1010  -34.3698   26.8583 C   0  0  0  0  0  0  0  0  0  0  0  0
  -25.4190  -31.5943   20.9052 C   0  0  0  0  0  0  0  0  0  0  0  0
  -23.9220  -29.0454   20.8216 C   0  0  0  0  0  0  0  0  0  0  0  0
  -29.8088  -24.4827   20.6982 C   0  0  0  0  0  0  0  0  0  0  0  0
  -22.3371  -33.3291   26.0435 C   0  0  0  0  0  0  0  0  0  0  0  0
  -26.4504  -14.4345   25.8331 C   0  0  0  0  0  0  0  0  0  0  0  0
  -23.1073  -32.0131   26.0022 C   0  0  0  0  0  0  0  0  0  0  0  0
  -26.2100  -13.2490   24.8956 C   0  0  0  0  0  0  0  0  0  0  0  0
  -29.4874  -24.7712   18.2134 C   0  0  0  0  0  0  0  0  0  0  0  0
  -25.8777  -15.7319   25.2651 C   0  0  0  0  0  0  0  0  0  0  0  0
  -26.0742  -14.8734   22.9643 C   0  0  0  0  0  0  0  0  0  0  0  0
  -29.9811  -23.3436   17.9948 C   0  0  0  0  0  0  0  0  0  0  0  0
  -24.4707  -32.1929   25.3239 C   0  0  1  0  0  0  0  0  0  0  0  0
  -24.0842  -31.4230   21.6237 C   0  0  1  0  0  0  0  0  0  0  0  0
  -30.0840  -25.3828   19.4878 C   0  0  1  0  0  0  0  0  0  0  0  0
  -26.6905  -13.5564   23.4637 C   0  0  2  0  0  0  0  0  0  0  0  0
  -27.2781  -22.1290   22.0674 C   0  0  0  0  0  0  0  0  0  0  0  0
  -28.8630  -19.5258   18.0914 C   0  0  0  0  0  0  0  0  0  0  0  0
  -18.8858  -28.5873   16.6298 C   0  0  0  0  0  0  0  0  0  0  0  0
  -20.6484  -28.6620   23.0140 C   0  0  0  0  0  0  0  0  0  0  0  0
  -19.2492  -27.6772   21.1863 C   0  0  0  0  0  0  0  0  0  0  0  0
  -19.0049  -30.0876   21.7806 C   0  0  0  0  0  0  0  0  0  0  0  0
  -22.2946  -30.0462   15.7766 C   0  0  0  0  0  0  0  0  0  0  0  0
  -28.2508  -22.0549   19.3239 C   0  0  0  0  0  0  0  0  0  0  0  0
  -29.5423  -26.7910   19.7230 C   0  0  0  0  0  0  0  0  0  1  0  0
  -21.0771  -29.3173   20.5538 C   0  0  1  0  0  0  0  0  0  0  0  0
  -20.1499  -29.3952   16.8790 C   0  0  2  0  0  0  0  0  0  0  0  0
  -20.0233  -28.9363   21.6316 C   0  0  0  0  0  0  0  0  0  0  0  0
  -25.3253  -11.6405   22.7242 N   0  0  0  0  0  0  0  0  0  0  0  0
  -26.4123  -12.4033   22.5177 N   0  0  0  0  0  0  0  0  0  0  0  0
  -23.2713  -30.3450   21.0567 N   0  0  0  0  0  0  0  0  0  0  0  0
  -26.3799  -15.9597   23.9083 N   0  0  0  0  0  0  0  0  0  0  0  0
  -28.2794  -12.6831   21.0872 N   0  0  0  0  0  0  0  0  0  0  0  0
  -27.7836   -9.1055   19.9255 N   0  0  0  0  0  0  0  0  0  0  0  0
  -27.5397  -17.2394   22.3022 N   0  0  0  0  0  0  0  0  0  0  0  0
  -24.3162  -32.2510   23.8861 N   0  0  0  0  0  0  0  0  0  0  0  0
  -20.5107  -29.6090   19.2413 N   0  0  0  0  0  0  0  0  0  0  0  0
  -29.6938  -22.4536   19.1803 N   0  3  2  0  0  0  0  0  0  0  0  0
  -21.0251  -29.2809   15.6782 N   0  3  0  0  0  0  0  0  0  0  0  0
  -26.5634  -10.5104   18.5853 O   0  0  0  0  0  0  0  0  0  0  0  0
  -24.3039  -29.9609   23.4647 O   0  0  0  0  0  0  0  0  0  0  0  0
  -21.3113  -31.6053   21.1341 O   0  0  0  0  0  0  0  0  0  0  0  0
  -21.7018  -27.9899   18.0849 O   0  0  0  0  0  0  0  0  0  0  0  0
  -27.2877  -18.0085   24.4763 O   0  0  0  0  0  0  0  0  0  0  0  0
  -21.4554   -6.8025   21.2509 O   0  0  0  0  0  0  0  0  0  0  0  0
  -28.1317  -26.7184   19.9264 O   0  0  0  0  0  0  0  0  0  1  0  0
  -22.7797   -1.6654   22.7544 F   0  0  0  0  0  0  0  0  0  0  0  0
  -20.0707   -5.5131   23.2666 F   0  0  0  0  0  0  0  0  0  0  0  0
  -28.5590  -16.8461   19.4854 Cl  0  0  0  0  0  0  0  0  0  0  0  0
  1 35  2  0  0  0  0
  1 36  2  0  0  0  0
  2  3  1  0  0  0  0
  2  6  2  0  0  0  0
  3  7  2  0  0  0  0
  4  9  2  0  0  0  0
  4 17  1  0  0  0  0
  5 10  1  0  0  0  0
  5 17  2  0  0  0  0
  6 19  1  0  0  0  0
  7 21  1  0  0  0  0
  8 11  2  0  0  0  0
  8 20  1  0  0  0  0
  9 27  1  0  0  0  0
 10 27  2  0  0  0  0
 11 28  1  0  0  0  0
 12 13  2  0  0  0  0
 12 29  1  0  0  0  0
 13 30  1  0  0  0  0
 14 22  1  0  0  0  0
 14 28  2  0  0  0  0
 15 23  2  0  0  0  0
 15 26  1  0  0  0  0
 16 30  2  0  0  0  0
 16 31  1  0  0  0  0
 17 33  1  0  0  0  0
 18 33  1  0  0  0  0
 18 34  2  0  0  0  0
 18 37  1  0  0  0  0
 19 21  2  0  0  0  0
 19 42  1  0  0  0  0
 20 22  2  0  0  0  0
 20 43  1  0  0  0  0
 21 54  1  0  0  0  0
 22 44  1  0  0  0  0
 23 24  1  0  0  0  0
 23 58  1  0  0  0  0
 24 25  2  0  0  0  0
 24 65  1  0  0  0  0
 25 32  1  0  0  0  0
 25 59  1  0  0  0  0
 26 32  2  0  0  0  0
 26 76  1  0  0  0  0
 27 86  1  0  0  0  0
 28 87  1  0  0  0  0
 29 31  2  0  0  0  0
 29 86  1  0  0  0  0
 30 88  1  0  0  0  0
 31 89  1  0  0  0  0
 32 90  1  0  0  0  0
 33 70  2  0  0  0  0
 34 71  1  0  0  0  0
 34 74  1  0  0  0  0
 35 45  1  0  0  0  0
 35 79  1  0  0  0  0
 37 75  1  0  0  0  0
 37 81  2  0  0  0  0
 38 55  1  0  0  0  0
 38 77  1  0  0  0  0
 38 82  2  0  0  0  0
 39 67  1  0  0  0  0
 39 72  1  0  0  0  0
 39 83  2  0  0  0  0
 40 68  1  0  0  0  0
 40 78  1  0  0  0  0
 40 84  2  0  0  0  0
 41 73  1  0  0  0  0
 41 76  1  0  0  0  0
 41 85  2  0  0  0  0
 42 46  1  0  0  0  0
 43 55  1  0  0  0  0
 44 72  1  0  0  0  0
 45 56  1  0  0  0  0
 46 48  1  0  0  0  0
 47 49  1  0  0  0  0
 47 51  1  0  0  0  0
 48 54  1  0  0  0  0
 49 57  1  0  0  0  0
 50 53  1  0  0  0  0
 50 56  1  0  0  0  0
 51 73  1  0  0  0  0
 52 57  1  0  0  0  0
 52 73  1  0  0  0  0
 53 79  1  0  0  0  0
 54 77  1  0  0  0  0
 55 72  1  0  0  0  0
 56 66  1  0  0  0  0
 57 71  1  0  0  0  0
 60 68  1  0  0  0  0
 61 69  1  0  0  0  0
 62 69  1  0  0  0  0
 63 69  1  0  0  0  0
 64 80  1  0  0  0  0
 65 79  1  0  0  0  0
 66 87  1  0  0  0  0
 67 69  1  0  0  0  0
 67 78  1  0  0  0  0
 68 80  1  0  0  0  0
 70 71  1  0  0  0  0
M  CHG  2  79   1  80   1
M  ISO  4  41 100  66 101  76 100  87 101
M  END
> <Batch ID>
0050

> <Smiles>
C=C=C1CC([101CH2:1][101O:1]c2ccc3c(c2)CN(C(=O)C(NC(=O)C(C)NC)C(C)(C)C)C(C(=O)NC2CCCc4ccccc42)C3)CCN1Cc1c(C)cc([100NH:0][100C:0](=O)N2CCCC(n3nc(-c4ccc(Oc5ccc(F)cc5F)cc4)c(C(N)=O)c3N)C2)c(Cl)c1C

> <Shape>
0.297

> <Color>
0.073

> <Negative vol penalty>
0.000

$$$$

  -OEChem-04042322353D

 89 98  0     1  0  0  0  0  0999 V2000
  -16.5676  -29.1325   23.6818 C   0  0  0  0  0  0  0  0  0  0  0  0
  -17.4114  -30.1658   23.2905 C   0  0  0  0  0  0  0  0  0  0  0  0
  -21.5820  -17.3330   21.6911 C   0  0  0  0  0  0  0  0  0  0  0  0
  -22.2716  -17.2496   24.0051 C   0  0  0  0  0  0  0  0  0  0  0  0
  -17.0957  -27.8731   23.9576 C   0  0  0  0  0  0  0  0  0  0  0  0
  -18.7819  -29.9370   23.1632 C   0  0  0  0  0  0  0  0  0  0  0  0
  -31.3580  -20.9164   18.6560 C   0  0  0  0  0  0  0  0  0  0  0  0
  -26.8285  -29.8499   21.0075 C   0  0  0  0  0  0  0  0  0  0  0  0
  -30.9188  -19.8865   19.4880 C   0  0  0  0  0  0  0  0  0  0  0  0
  -20.4829  -18.1146   22.0467 C   0  0  0  0  0  0  0  0  0  0  0  0
  -21.1724  -18.0312   24.3608 C   0  0  0  0  0  0  0  0  0  0  0  0
  -27.8034  -28.8595   20.8968 C   0  0  0  0  0  0  0  0  0  0  0  0
  -19.8709  -21.3504   22.8136 C   0  0  0  0  0  0  0  0  0  0  0  0
  -19.5885  -22.4677   22.0278 C   0  0  0  0  0  0  0  0  0  0  0  0
  -29.4483  -20.5688   17.2175 C   0  0  0  0  0  0  0  0  0  0  0  0
  -26.1665  -27.3626   19.9486 C   0  0  0  0  0  0  0  0  0  0  0  0
  -17.4125  -21.5540   21.5107 C   0  0  0  0  0  0  0  0  0  0  0  0
  -22.4764  -16.9005   22.6702 C   0  0  0  0  0  0  0  0  0  0  0  0
  -23.5912  -14.8311   21.6790 C   0  0  0  0  0  0  0  0  0  0  0  0
  -30.6227  -21.2576   17.5208 C   0  0  0  0  0  0  0  0  0  0  0  0
  -18.4751  -27.6328   23.8455 C   0  0  0  0  0  0  0  0  0  0  0  0
  -25.5105  -29.6001   20.5990 C   0  0  0  0  0  0  0  0  0  0  0  0
  -19.3310  -28.6665   23.4139 C   0  0  0  0  0  0  0  0  0  0  0  0
  -25.1773  -28.3523   20.0528 C   0  0  0  0  0  0  0  0  0  0  0  0
  -29.0092  -19.5389   18.0494 C   0  0  0  0  0  0  0  0  0  0  0  0
  -29.7444  -19.1978   19.1847 C   0  0  0  0  0  0  0  0  0  0  0  0
  -20.2781  -18.4637   23.3816 C   0  0  0  0  0  0  0  0  0  0  0  0
  -27.4719  -27.6146   20.3700 C   0  0  0  0  0  0  0  0  0  0  0  0
  -18.9241  -20.3349   22.9479 C   0  0  0  0  0  0  0  0  0  0  0  0
  -18.3593  -22.5696   21.3764 C   0  0  0  0  0  0  0  0  0  0  0  0
  -17.6949  -20.4367   22.2965 C   0  0  0  0  0  0  0  0  0  0  0  0
  -23.6117  -16.0926   22.3035 C   0  0  0  0  0  0  0  0  0  0  0  0
  -24.9155  -14.4908   21.5488 C   0  0  0  0  0  0  0  0  0  0  0  0
  -33.6273  -22.5302   16.1511 C   0  0  0  0  0  0  0  0  0  0  0  0
  -32.4160  -21.9888   15.9606 C   0  0  0  0  0  0  0  0  0  0  0  0
  -22.4749  -14.0379   21.2543 C   0  0  0  0  0  0  0  0  0  0  0  0
  -22.6844  -29.5413   22.0529 C   0  0  0  0  0  0  0  0  0  0  0  0
  -29.6259  -25.1985   18.7423 C   0  0  0  0  0  0  0  0  0  0  0  0
  -21.5753  -29.1346   19.0318 C   0  0  0  0  0  0  0  0  0  0  0  0
  -22.5282  -27.2466   16.1087 C   0  0  0  0  0  0  0  0  0  0  0  0
  -29.9412  -17.7046   21.2041 C   0  0  0  0  0  0  0  0  0  0  0  0
  -18.9922  -26.2486   24.1486 C   0  0  0  0  0  0  0  0  0  0  0  0
  -24.4766  -30.6878   20.7002 C   0  0  0  0  0  0  0  0  0  0  0  0
  -23.7814  -28.0405   19.5809 C   0  0  0  0  0  0  0  0  0  0  0  0
  -33.9364  -23.6369   17.1047 C   0  0  0  0  0  0  0  0  0  0  0  0
  -20.4935  -26.2201   24.4157 C   0  0  0  0  0  0  0  0  0  0  0  0
  -33.2154  -24.9494   16.8021 C   0  0  0  0  0  0  0  0  0  0  0  0
  -29.1817  -15.1911   23.6088 C   0  0  0  0  0  0  0  0  0  0  0  0
  -21.2314  -26.9690   23.3160 C   0  0  0  0  0  0  0  0  0  0  0  0
  -27.6661  -15.0179   23.4858 C   0  0  0  0  0  0  0  0  0  0  0  0
  -29.6025  -16.6484   23.4278 C   0  0  0  0  0  0  0  0  0  0  0  0
  -27.5951  -17.1157   22.0784 C   0  0  0  0  0  0  0  0  0  0  0  0
  -31.7260  -24.8563   16.4758 C   0  0  0  0  0  0  0  0  0  0  0  0
  -31.1038  -22.3807   16.6111 C   0  0  2  0  0  0  0  0  0  0  0  0
  -20.8289  -28.4490   23.2983 C   0  0  1  0  0  0  0  0  0  0  0  0
  -23.0480  -30.1535   20.7297 C   0  0  1  0  0  0  0  0  0  0  0  0
  -27.1295  -15.6547   22.1889 C   0  0  2  0  0  0  0  0  0  0  0  0
  -27.7491  -18.8161   17.6985 C   0  0  0  0  0  0  0  0  0  0  0  0
  -22.1115  -27.6883   13.6738 C   0  0  0  0  0  0  0  0  0  0  0  0
  -19.1337  -27.3471   19.4229 C   0  0  0  0  0  0  0  0  0  0  0  0
  -19.5644  -26.3808   17.1538 C   0  0  0  0  0  0  0  0  0  0  0  0
  -19.0428  -28.8082   17.3953 C   0  0  0  0  0  0  0  0  0  0  0  0
  -25.4139  -27.0980   15.4686 C   0  0  0  0  0  0  0  0  0  0  0  0
  -29.6307  -24.1791   17.6338 C   0  0  0  0  0  0  0  0  0  0  0  0
  -28.2731  -25.7074   19.1967 C   0  0  0  0  0  0  0  0  0  1  0  0
  -21.2970  -27.9441   18.1463 C   0  0  1  0  0  0  0  0  0  0  0  0
  -23.1065  -27.7993   14.8185 C   0  0  2  0  0  0  0  0  0  0  0  0
  -19.7796  -27.6192   18.0497 C   0  0  0  0  0  0  0  0  0  0  0  0
  -24.8508  -16.5243   22.5530 N   0  0  0  0  0  0  0  0  0  0  0  0
  -25.6212  -15.5286   22.0829 N   0  0  0  0  0  0  0  0  0  0  0  0
  -22.8044  -29.1346   19.7065 N   0  0  0  0  0  0  0  0  0  0  0  0
  -29.0615  -17.1835   22.1765 N   0  0  0  0  0  0  0  0  0  0  0  0
  -25.5335  -13.4081   21.0309 N   0  0  0  0  0  0  0  0  0  0  0  0
  -21.9228  -13.1222   22.1604 N   0  0  0  0  0  0  0  0  0  0  0  0
  -29.3151  -18.1547   20.0422 N   0  0  0  0  0  0  0  0  0  0  0  0
  -21.3852  -29.0754   22.1193 N   0  0  0  0  0  0  0  0  0  0  0  0
  -21.9291  -28.2327   16.8636 N   0  0  0  0  0  0  0  0  0  0  0  0
  -31.0486  -23.7741   17.2919 N   0  3  2  0  0  0  0  0  0  0  0  0
  -24.3406  -27.0532   14.4425 N   0  3  0  0  0  0  0  0  0  0  0  0
  -21.9920  -14.1264   20.1000 O   0  0  0  0  0  0  0  0  0  0  0  0
  -23.5212  -29.4938   22.9469 O   0  0  0  0  0  0  0  0  0  0  0  0
  -30.6783  -25.6071   19.2325 O   0  0  0  0  0  0  0  0  0  0  0  0
  -20.7364  -30.0350   19.1159 O   0  0  0  0  0  0  0  0  0  0  0  0
  -22.5975  -26.0582   16.4144 O   0  0  0  0  0  0  0  0  0  0  0  0
  -31.1625  -17.7234   21.3774 O   0  0  0  0  0  0  0  0  0  0  0  0
  -19.2057  -19.2266   23.7290 O   0  0  0  0  0  0  0  0  0  0  0  0
  -28.4214  -26.6459   20.2614 O   0  0  0  0  0  0  0  0  0  1  0  0
  -18.0876  -23.6433   20.6231 F   0  0  0  0  0  0  0  0  0  0  0  0
  -16.7810  -19.4648   22.4227 F   0  0  0  0  0  0  0  0  0  0  0  0
  1  2  1  0  0  0  0
  1  5  2  0  0  0  0
  2  6  2  0  0  0  0
  3 10  2  0  0  0  0
  3 18  1  0  0  0  0
  4 11  1  0  0  0  0
  4 18  2  0  0  0  0
  5 21  1  0  0  0  0
  6 23  1  0  0  0  0
  7  9  2  0  0  0  0
  7 20  1  0  0  0  0
  8 12  2  0  0  0  0
  8 22  1  0  0  0  0
  9 26  1  0  0  0  0
 10 27  1  0  0  0  0
 11 27  2  0  0  0  0
 12 28  1  0  0  0  0
 13 14  2  0  0  0  0
 13 29  1  0  0  0  0
 14 30  1  0  0  0  0
 15 20  2  0  0  0  0
 15 25  1  0  0  0  0
 16 24  1  0  0  0  0
 16 28  2  0  0  0  0
 17 30  2  0  0  0  0
 17 31  1  0  0  0  0
 18 32  1  0  0  0  0
 19 32  1  0  0  0  0
 19 33  2  0  0  0  0
 19 36  1  0  0  0  0
 20 54  1  0  0  0  0
 21 23  2  0  0  0  0
 21 42  1  0  0  0  0
 22 24  2  0  0  0  0
 22 43  1  0  0  0  0
 23 55  1  0  0  0  0
 24 44  1  0  0  0  0
 25 26  2  0  0  0  0
 25 58  1  0  0  0  0
 26 75  1  0  0  0  0
 27 86  1  0  0  0  0
 28 87  1  0  0  0  0
 29 31  2  0  0  0  0
 29 86  1  0  0  0  0
 30 88  1  0  0  0  0
 31 89  1  0  0  0  0
 32 69  2  0  0  0  0
 33 70  1  0  0  0  0
 33 73  1  0  0  0  0
 34 35  2  0  0  0  0
 34 45  1  0  0  0  0
 35 54  1  0  0  0  0
 36 74  1  0  0  0  0
 36 80  2  0  0  0  0
 37 56  1  0  0  0  0
 37 76  1  0  0  0  0
 37 81  2  0  0  0  0
 38 64  1  0  0  0  0
 38 65  1  0  0  0  0
 38 82  2  0  0  0  0
 39 66  1  0  0  0  0
 39 71  1  0  0  0  0
 39 83  2  0  0  0  0
 40 67  1  0  0  0  0
 40 77  1  0  0  0  0
 40 84  2  0  0  0  0
 41 72  1  0  0  0  0
 41 75  1  0  0  0  0
 41 85  2  0  0  0  0
 42 46  1  0  0  0  0
 43 56  1  0  0  0  0
 44 71  1  0  0  0  0
 45 47  1  0  0  0  0
 46 49  1  0  0  0  0
 47 53  1  0  0  0  0
 48 50  1  0  0  0  0
 48 51  1  0  0  0  0
 49 55  1  0  0  0  0
 50 57  1  0  0  0  0
 51 72  1  0  0  0  0
 52 57  1  0  0  0  0
 52 72  1  0  0  0  0
 53 78  1  0  0  0  0
 54 78  1  0  0  0  0
 55 76  1  0  0  0  0
 56 71  1  0  0  0  0
 57 70  1  0  0  0  0
 59 67  1  0  0  0  0
 60 68  1  0  0  0  0
 61 68  1  0  0  0  0
 62 68  1  0  0  0  0
 63 79  1  0  0  0  0
 64 78  1  0  0  0  0
 65 87  1  0  0  0  0
 66 68  1  0  0  0  0
 66 77  1  0  0  0  0
 67 79  1  0  0  0  0
 69 70  1  0  0  0  0
M  CHG  2  78   1  79   1
M  ISO  4  41 100  65 101  75 100  87 101
M  END
> <Batch ID>
0050

> <Smiles>
CNC(C)C(=O)NC(C(=O)N1Cc2cc([101O:1][101CH2:1]C(=O)CN3CCCC=CC3c3ccc([100NH:0][100C:0](=O)N4CCCC(n5nc(-c6ccc(Oc7ccc(F)cc7F)cc6)c(C(N)=O)c5N)C4)c(C)c3)ccc2CC1C(=O)NC1CCCc2ccccc21)C(C)(C)C

> <Shape>
0.226

> <Color>
0.128

> <Negative vol penalty>
0.000

$$$$

  -OEChem-04042322353D

 87 95  0     1  0  0  0  0  0999 V2000
  -28.5081  -37.6085   22.3413 C   0  0  0  0  0  0  0  0  0  0  0  0
  -28.9187  -36.3864   21.8184 C   0  0  0  0  0  0  0  0  0  0  0  0
  -23.6256  -11.3814   20.1264 C   0  0  0  0  0  0  0  0  0  0  0  0
  -22.7268  -13.4310   21.0368 C   0  0  0  0  0  0  0  0  0  0  0  0
  -27.5586  -37.6452   23.3616 C   0  0  0  0  0  0  0  0  0  0  0  0
  -28.3807  -35.2002   22.3163 C   0  0  0  0  0  0  0  0  0  0  0  0
  -27.2040  -30.0831   19.1641 C   0  0  0  0  0  0  0  0  0  0  0  0
  -30.2239  -21.3458   20.7805 C   0  0  0  0  0  0  0  0  0  0  0  0
  -29.9273  -19.9829   20.7761 C   0  0  0  0  0  0  0  0  0  0  0  0
  -22.4059  -10.7448   20.3556 C   0  0  0  0  0  0  0  0  0  0  0  0
  -21.5070  -12.7943   21.2659 C   0  0  0  0  0  0  0  0  0  0  0  0
  -27.9112  -28.8912   19.0126 C   0  0  0  0  0  0  0  0  0  0  0  0
  -19.3629  -10.5896   18.8895 C   0  0  0  0  0  0  0  0  0  0  0  0
  -18.8481   -9.7889   17.8700 C   0  0  0  0  0  0  0  0  0  0  0  0
  -26.5951  -27.8938   20.7711 C   0  0  0  0  0  0  0  0  0  0  0  0
  -31.1065  -19.7195   22.8684 C   0  0  0  0  0  0  0  0  0  0  0  0
  -18.8987   -7.8769   19.3460 C   0  0  0  0  0  0  0  0  0  0  0  0
  -23.7861  -12.7246   20.4671 C   0  0  0  0  0  0  0  0  0  0  0  0
  -25.4404  -14.0721   19.0689 C   0  0  0  0  0  0  0  0  0  0  0  0
  -27.0016  -36.4593   23.8657 C   0  0  0  0  0  0  0  0  0  0  0  0
  -26.1927  -30.1929   20.1293 C   0  0  0  0  0  0  0  0  0  0  0  0
  -27.4239  -35.2210   23.3453 C   0  0  0  0  0  0  0  0  0  0  0  0
  -25.8748  -29.0874   20.9311 C   0  0  0  0  0  0  0  0  0  0  0  0
  -30.9618  -21.8956   21.8288 C   0  0  0  0  0  0  0  0  0  0  0  0
  -31.4031  -21.0825   22.8727 C   0  0  0  0  0  0  0  0  0  0  0  0
  -30.3686  -19.1697   21.8200 C   0  0  0  0  0  0  0  0  0  0  0  0
  -21.3466  -11.4512   20.9252 C   0  0  0  0  0  0  0  0  0  0  0  0
  -27.6088  -27.7973   19.8181 C   0  0  0  0  0  0  0  0  0  0  0  0
  -19.6458  -10.0339   20.1373 C   0  0  0  0  0  0  0  0  0  0  0  0
  -18.6159   -8.4326   18.0983 C   0  0  0  0  0  0  0  0  0  0  0  0
  -19.4136   -8.6776   20.3656 C   0  0  0  0  0  0  0  0  0  0  0  0
  -25.0460  -13.3826   20.2312 C   0  0  0  0  0  0  0  0  0  0  0  0
  -26.7132  -14.5090   19.3441 C   0  0  0  0  0  0  0  0  0  0  0  0
  -24.7207  -14.2975   17.8496 C   0  0  0  0  0  0  0  0  0  0  0  0
  -25.7398  -31.9942   22.7088 C   0  0  0  0  0  0  0  0  0  0  0  0
  -22.8325  -30.5558   22.7245 C   0  0  0  0  0  0  0  0  0  0  0  0
  -29.7468  -25.0390   20.7409 C   0  0  0  0  0  0  0  0  0  0  0  0
  -20.9166  -27.8846   21.8073 C   0  0  0  0  0  0  0  0  0  0  0  0
  -30.4276  -16.8395   22.7755 C   0  0  0  0  0  0  0  0  0  0  0  0
  -26.0133  -36.5469   25.0015 C   0  0  0  0  0  0  0  0  0  0  0  0
  -25.4210  -31.4772   20.2620 C   0  0  0  0  0  0  0  0  0  0  0  0
  -24.7843  -29.1473   21.9683 C   0  0  0  0  0  0  0  0  0  0  0  0
  -25.2158  -35.2629   25.2154 C   0  0  0  0  0  0  0  0  0  0  0  0
  -29.8443  -13.3469   23.1478 C   0  0  0  0  0  0  0  0  0  0  0  0
  -26.1412  -34.0505   25.1974 C   0  0  0  0  0  0  0  0  0  0  0  0
  -28.5764  -13.1016   22.3266 C   0  0  0  0  0  0  0  0  0  0  0  0
  -29.8034  -14.6951   23.8650 C   0  0  0  0  0  0  0  0  0  0  0  0
  -28.2517  -15.6037   22.1810 C   0  0  0  0  0  0  0  0  0  0  0  0
  -26.8452  -33.9139   23.8420 C   0  0  1  0  0  0  0  0  0  0  0  0
  -24.7595  -31.6384   21.6272 C   0  0  1  0  0  0  0  0  0  0  0  0
  -28.2746  -14.2865   21.3883 C   0  0  2  0  0  0  0  0  0  0  0  0
  -18.5857  -26.9746   21.9967 C   0  0  0  0  0  0  0  0  0  0  0  0
  -23.3809  -29.7600   25.6187 C   0  0  0  0  0  0  0  0  0  0  0  0
  -21.5171  -28.0977   25.4416 C   0  0  0  0  0  0  0  0  0  0  0  0
  -21.0441  -30.5323   25.1740 C   0  0  0  0  0  0  0  0  0  0  0  0
  -29.1899  -24.0226   22.9566 C   0  0  0  0  0  0  0  0  0  0  0  0
  -20.5454  -27.9058   18.8712 C   0  0  0  0  0  0  0  0  0  0  0  0
  -31.2693  -23.3651   21.8111 C   0  0  0  0  0  0  0  0  0  0  0  0
  -28.4535  -25.8207   20.8357 C   0  0  0  0  0  0  0  0  0  1  0  0
  -22.2654  -29.2976   23.3365 C   0  0  1  0  0  0  0  0  0  0  0  0
  -19.5467  -27.8030   21.1584 C   0  0  2  0  0  0  0  0  0  0  0  0
  -32.1928  -21.6495   24.0065 C   0  0  0  0  0  0  0  0  0  0  0  0
  -22.0738  -29.4211   24.8745 C   0  0  0  0  0  0  0  0  0  0  0  0
  -25.9916  -13.3790   21.1745 N   0  0  0  0  0  0  0  0  0  0  0  0
  -26.9929  -14.0714   20.6053 N   0  0  0  0  0  0  0  0  0  0  0  0
  -24.0626  -30.4270   22.0642 N   0  0  0  0  0  0  0  0  0  0  0  0
  -29.5171  -15.7705   22.9129 N   0  0  0  0  0  0  0  0  0  0  0  0
  -27.6091  -15.2208   18.6280 N   0  0  0  0  0  0  0  0  0  0  0  0
  -23.4236  -13.7793   17.7337 N   0  0  0  0  0  0  0  0  0  0  0  0
  -30.0658  -17.7855   21.8170 N   0  0  0  0  0  0  0  0  0  0  0  0
  -25.9439  -33.3527   22.8586 N   0  0  0  0  0  0  0  0  0  0  0  0
  -21.0389  -29.0039   22.6032 N   0  0  0  0  0  0  0  0  0  0  0  0
  -30.0555  -24.1773   21.7940 N   0  0  0  0  0  0  0  0  0  0  0  0
  -19.6494  -27.1804   19.8083 N   0  3  0  0  0  0  0  0  0  0  0  0
  -25.2193  -14.9254   16.8849 O   0  0  0  0  0  0  0  0  0  0  0  0
  -26.2707  -31.1024   23.3604 O   0  0  0  0  0  0  0  0  0  0  0  0
  -22.2035  -31.6124   22.8223 O   0  0  0  0  0  0  0  0  0  0  0  0
  -30.4599  -25.1907   19.7442 O   0  0  0  0  0  0  0  0  0  0  0  0
  -21.7896  -27.0380   21.6292 O   0  0  0  0  0  0  0  0  0  0  0  0
  -31.4664  -16.8965   23.4386 O   0  0  0  0  0  0  0  0  0  0  0  0
  -20.1562  -10.8303   21.1487 O   0  0  0  0  0  0  0  0  0  0  0  0
  -28.2980  -26.6329   19.6727 O   0  0  0  0  0  0  0  0  0  1  0  0
  -18.1200   -7.6642   17.1196 F   0  0  0  0  0  0  0  0  0  0  0  0
  -19.6823   -8.1383   21.5626 F   0  0  0  0  0  0  0  0  0  0  0  0
  -32.5444  -20.7215   24.9441 F   0  0  0  0  0  0  0  0  0  0  0  0
  -33.3666  -22.2275   23.6174 F   0  0  0  0  0  0  0  0  0  0  0  0
  -31.5127  -22.6181   24.6847 F   0  0  0  0  0  0  0  0  0  0  0  0
  1  2  1  0  0  0  0
  1  5  2  0  0  0  0
  2  6  2  0  0  0  0
  3 10  2  0  0  0  0
  3 18  1  0  0  0  0
  4 11  1  0  0  0  0
  4 18  2  0  0  0  0
  5 20  1  0  0  0  0
  6 22  1  0  0  0  0
  7 12  2  0  0  0  0
  7 21  1  0  0  0  0
  8  9  2  0  0  0  0
  8 24  1  0  0  0  0
  9 26  1  0  0  0  0
 10 27  1  0  0  0  0
 11 27  2  0  0  0  0
 12 28  1  0  0  0  0
 13 14  2  0  0  0  0
 13 29  1  0  0  0  0
 14 30  1  0  0  0  0
 15 23  1  0  0  0  0
 15 28  2  0  0  0  0
 16 25  1  0  0  0  0
 16 26  2  0  0  0  0
 17 30  2  0  0  0  0
 17 31  1  0  0  0  0
 18 32  1  0  0  0  0
 19 32  1  0  0  0  0
 19 33  2  0  0  0  0
 19 34  1  0  0  0  0
 20 22  2  0  0  0  0
 20 40  1  0  0  0  0
 21 23  2  0  0  0  0
 21 41  1  0  0  0  0
 22 49  1  0  0  0  0
 23 42  1  0  0  0  0
 24 25  2  0  0  0  0
 24 58  1  0  0  0  0
 25 62  1  0  0  0  0
 26 70  1  0  0  0  0
 27 81  1  0  0  0  0
 28 82  1  0  0  0  0
 29 31  2  0  0  0  0
 29 81  1  0  0  0  0
 30 83  1  0  0  0  0
 31 84  1  0  0  0  0
 32 64  2  0  0  0  0
 33 65  1  0  0  0  0
 33 68  1  0  0  0  0
 34 69  1  0  0  0  0
 34 75  2  0  0  0  0
 35 50  1  0  0  0  0
 35 71  1  0  0  0  0
 35 76  2  0  0  0  0
 36 60  1  0  0  0  0
 36 66  1  0  0  0  0
 36 77  2  0  0  0  0
 37 59  1  0  0  0  0
 37 73  1  0  0  0  0
 37 78  2  0  0  0  0
 38 61  1  0  0  0  0
 38 72  1  0  0  0  0
 38 79  2  0  0  0  0
 39 67  1  0  0  0  0
 39 70  1  0  0  0  0
 39 80  2  0  0  0  0
 40 43  1  0  0  0  0
 41 50  1  0  0  0  0
 42 66  1  0  0  0  0
 43 45  1  0  0  0  0
 44 46  1  0  0  0  0
 44 47  1  0  0  0  0
 45 49  1  0  0  0  0
 46 51  1  0  0  0  0
 47 67  1  0  0  0  0
 48 51  1  0  0  0  0
 48 67  1  0  0  0  0
 49 71  1  0  0  0  0
 50 66  1  0  0  0  0
 51 65  1  0  0  0  0
 52 61  1  0  0  0  0
 53 63  1  0  0  0  0
 54 63  1  0  0  0  0
 55 63  1  0  0  0  0
 56 73  1  0  0  0  0
 57 74  1  0  0  0  0
 58 73  1  0  0  0  0
 59 82  1  0  0  0  0
 60 63  1  0  0  0  0
 60 72  1  0  0  0  0
 61 74  1  0  0  0  0
 62 85  1  0  0  0  0
 62 86  1  0  0  0  0
 62 87  1  0  0  0  0
 64 65  1  0  0  0  0
M  CHG  1  74   1
M  ISO  4  39 100  59 101  70 100  82 101
M  END
> <Batch ID>
0050

> <Smiles>
CNC(C)C(=O)NC(C(=O)N1Cc2cc([101O:1][101CH2:1]C(=O)N(C)Cc3ccc([100NH:0][100C:0](=O)N4CCCC(n5nc(-c6ccc(Oc7ccc(F)cc7F)cc6)c(C(N)=O)c5N)C4)cc3C(F)(F)F)ccc2CC1C(=O)NC1CCCc2ccccc21)C(C)(C)C

> <Shape>
0.265

> <Color>
0.073

> <Negative vol penalty>
0.000

$$$$

  -OEChem-04042322353D

 84 92  0     1  0  0  0  0  0999 V2000
  -28.7157  -24.4655   18.1625 C   0  0  0  0  0  0  0  0  0  0  0  0
  -27.5256  -24.6653   18.8546 C   0  0  0  0  0  0  0  0  0  0  0  0
  -30.8596  -17.1591   22.1577 C   0  0  0  0  0  0  0  0  0  0  0  0
  -29.3712  -17.2169   20.2555 C   0  0  0  0  0  0  0  0  0  0  0  0
  -29.8636  -25.1630   18.5363 C   0  0  0  0  0  0  0  0  0  0  0  0
  -27.4829  -25.5619   19.9217 C   0  0  0  0  0  0  0  0  0  0  0  0
  -23.4031  -28.5586   19.7791 C   0  0  0  0  0  0  0  0  0  0  0  0
  -20.9818  -21.4416   20.0844 C   0  0  0  0  0  0  0  0  0  0  0  0
  -21.9145  -20.7211   20.8303 C   0  0  0  0  0  0  0  0  0  0  0  0
  -31.4242  -15.9764   21.6800 C   0  0  0  0  0  0  0  0  0  0  0  0
  -29.9358  -16.0343   19.7778 C   0  0  0  0  0  0  0  0  0  0  0  0
  -22.1940  -28.0086   20.2024 C   0  0  0  0  0  0  0  0  0  0  0  0
  -29.7049  -12.7240   20.4257 C   0  0  0  0  0  0  0  0  0  0  0  0
  -28.8389  -11.7322   19.9655 C   0  0  0  0  0  0  0  0  0  0  0  0
  -22.4573  -29.0914   22.3418 C   0  0  0  0  0  0  0  0  0  0  0  0
  -21.2023  -21.8714   22.8320 C   0  0  0  0  0  0  0  0  0  0  0  0
  -29.8702  -11.8442   17.7835 C   0  0  0  0  0  0  0  0  0  0  0  0
  -29.8331  -17.7793   21.4455 C   0  0  0  0  0  0  0  0  0  0  0  0
  -29.6628  -20.3160   21.6547 C   0  0  0  0  0  0  0  0  0  0  0  0
  -29.8327  -26.0759   19.6023 C   0  0  0  0  0  0  0  0  0  0  0  0
  -24.1551  -29.3717   20.6393 C   0  0  0  0  0  0  0  0  0  0  0  0
  -28.6318  -26.2713   20.3109 C   0  0  0  0  0  0  0  0  0  0  0  0
  -23.6744  -29.6527   21.9262 C   0  0  0  0  0  0  0  0  0  0  0  0
  -20.1594  -22.3771   20.7122 C   0  0  0  0  0  0  0  0  0  0  0  0
  -22.0247  -20.9359   22.2041 C   0  0  0  0  0  0  0  0  0  0  0  0
  -30.9623  -15.4140   20.4901 C   0  0  0  0  0  0  0  0  0  0  0  0
  -21.7223  -28.2726   21.4849 C   0  0  0  0  0  0  0  0  0  0  0  0
  -30.6535  -13.2760   19.5649 C   0  0  0  0  0  0  0  0  0  0  0  0
  -28.9215  -11.2922   18.6444 C   0  0  0  0  0  0  0  0  0  0  0  0
  -30.7362  -12.8361   18.2438 C   0  0  0  0  0  0  0  0  0  0  0  0
  -20.2696  -22.5920   22.0860 C   0  0  0  0  0  0  0  0  0  0  0  0
  -29.2491  -19.0007   21.9387 C   0  0  0  0  0  0  0  0  0  0  0  0
  -28.7914  -21.1098   22.3597 C   0  0  0  0  0  0  0  0  0  0  0  0
  -30.7386  -20.7789   20.8276 C   0  0  0  0  0  0  0  0  0  0  0  0
  -27.0531  -29.1921   21.9325 C   0  0  0  0  0  0  0  0  0  0  0  0
  -26.3452  -32.1796   22.9796 C   0  0  0  0  0  0  0  0  0  0  0  0
  -23.9528  -34.4777   23.7808 C   0  0  0  0  0  0  0  0  0  0  0  0
  -23.2103  -20.2941   24.3323 C   0  0  0  0  0  0  0  0  0  0  0  0
  -31.1105  -26.7714   19.9998 C   0  0  0  0  0  0  0  0  0  0  0  0
  -25.4443  -29.9792   20.1583 C   0  0  0  0  0  0  0  0  0  0  0  0
  -24.4338  -30.5358   22.8811 C   0  0  0  0  0  0  0  0  0  0  0  0
  -30.8895  -27.9823   20.9026 C   0  0  0  0  0  0  0  0  0  0  0  0
  -26.0671  -21.1007   26.2983 C   0  0  0  0  0  0  0  0  0  0  0  0
  -29.9115  -27.6417   22.0226 C   0  0  0  0  0  0  0  0  0  0  0  0
  -27.2448  -20.7792   25.3754 C   0  0  0  0  0  0  0  0  0  0  0  0
  -24.9217  -20.1050   26.1240 C   0  0  0  0  0  0  0  0  0  0  0  0
  -25.6352  -19.6069   23.8192 C   0  0  0  0  0  0  0  0  0  0  0  0
  -28.5395  -27.2540   21.4581 C   0  0  1  0  0  0  0  0  0  0  0  0
  -26.3795  -30.3751   21.2966 C   0  0  1  0  0  0  0  0  0  0  0  0
  -26.7872  -20.6207   23.9121 C   0  0  2  0  0  0  0  0  0  0  0  0
  -19.1708  -23.1314   19.8845 C   0  0  0  0  0  0  0  0  0  0  0  0
  -23.6801  -36.8184   24.6434 C   0  0  0  0  0  0  0  0  0  0  0  0
  -27.0252  -31.2187   25.7946 C   0  0  0  0  0  0  0  0  0  0  0  0
  -25.8500  -33.2387   26.6927 C   0  0  0  0  0  0  0  0  0  0  0  0
  -27.8623  -33.5101   25.2438 C   0  0  0  0  0  0  0  0  0  0  0  0
  -22.5643  -35.3481   21.3163 C   0  0  0  0  0  0  0  0  0  0  0  0
  -19.4669  -26.2873   23.4972 C   0  0  0  0  0  0  0  0  0  0  0  0
  -20.4095  -27.4622   23.2948 C   0  0  0  0  0  0  0  0  0  1  0  0
  -25.6832  -32.7525   24.2094 C   0  0  1  0  0  0  0  0  0  0  0  0
  -23.7960  -35.9406   23.4070 C   0  0  2  0  0  0  0  0  0  0  0  0
  -26.5916  -32.6618   25.4681 C   0  0  0  0  0  0  0  0  0  0  0  0
  -28.1968  -18.9572   22.7601 N   0  0  0  0  0  0  0  0  0  0  0  0
  -20.0189  -25.0939   22.8580 N   0  0  0  0  0  0  0  0  0  0  0  0
  -27.9420  -20.2550   22.9984 N   0  0  0  0  0  0  0  0  0  0  0  0
  -25.6920  -31.1010   22.3665 N   0  0  0  0  0  0  0  0  0  0  0  0
  -24.5388  -20.0104   24.7136 N   0  0  0  0  0  0  0  0  0  0  0  0
  -28.6765  -22.4486   22.4893 N   0  0  0  0  0  0  0  0  0  0  0  0
  -31.5364  -19.8289   20.1754 N   0  0  0  0  0  0  0  0  0  0  0  0
  -22.9719  -20.2030   22.9613 N   0  0  0  0  0  0  0  0  0  0  0  0
  -27.8064  -28.4351   21.0556 N   0  0  0  0  0  0  0  0  0  0  0  0
  -25.2794  -34.1103   23.8606 N   0  0  0  0  0  0  0  0  0  0  0  0
  -22.5739  -36.1349   22.5764 N   0  3  0  0  0  0  0  0  0  0  0  0
  -30.9953  -21.9984   20.6845 O   0  0  0  0  0  0  0  0  0  0  0  0
  -26.9019  -28.9825   23.1304 O   0  0  0  0  0  0  0  0  0  0  0  0
  -27.3992  -32.6755   22.5736 O   0  0  0  0  0  0  0  0  0  0  0  0
  -22.9944  -33.7360   23.9854 O   0  0  0  0  0  0  0  0  0  0  0  0
  -22.3542  -20.6222   25.1577 O   0  0  0  0  0  0  0  0  0  0  0  0
  -17.8901  -23.5045   22.4687 O   0  0  0  0  0  0  0  0  0  0  0  0
  -31.5131  -14.2601   20.0235 O   0  0  0  0  0  0  0  0  0  0  0  0
  -20.5427  -27.7364   21.9008 O   0  0  0  0  0  0  0  0  0  1  0  0
  -28.0909  -10.3387   18.2030 F   0  0  0  0  0  0  0  0  0  0  0  0
  -31.6463  -13.3618   17.4124 F   0  0  0  0  0  0  0  0  0  0  0  0
  -19.2486  -23.3479   24.4439 F   0  0  0  0  0  0  0  0  0  0  0  0
  -19.2472  -23.7632   22.9098 S   0  0  1  0  0  0  0  0  0  0  0  0
  1  2  1  0  0  0  0
  1  5  2  0  0  0  0
  2  6  2  0  0  0  0
  3 10  2  0  0  0  0
  3 18  1  0  0  0  0
  4 11  1  0  0  0  0
  4 18  2  0  0  0  0
  5 20  1  0  0  0  0
  6 22  1  0  0  0  0
  7 12  2  0  0  0  0
  7 21  1  0  0  0  0
  8  9  2  0  0  0  0
  8 24  1  0  0  0  0
  9 25  1  0  0  0  0
 10 26  1  0  0  0  0
 11 26  2  0  0  0  0
 12 27  1  0  0  0  0
 13 14  2  0  0  0  0
 13 28  1  0  0  0  0
 14 29  1  0  0  0  0
 15 23  1  0  0  0  0
 15 27  2  0  0  0  0
 16 25  2  0  0  0  0
 16 31  1  0  0  0  0
 17 29  2  0  0  0  0
 17 30  1  0  0  0  0
 18 32  1  0  0  0  0
 19 32  1  0  0  0  0
 19 33  2  0  0  0  0
 19 34  1  0  0  0  0
 20 22  2  0  0  0  0
 20 39  1  0  0  0  0
 21 23  2  0  0  0  0
 21 40  1  0  0  0  0
 22 48  1  0  0  0  0
 23 41  1  0  0  0  0
 24 31  2  0  0  0  0
 24 51  1  0  0  0  0
 25 69  1  0  0  0  0
 26 79  1  0  0  0  0
 27 80  1  0  0  0  0
 28 30  2  0  0  0  0
 28 79  1  0  0  0  0
 29 81  1  0  0  0  0
 30 82  1  0  0  0  0
 31 84  1  0  0  0  0
 32 62  2  0  0  0  0
 33 64  1  0  0  0  0
 33 67  1  0  0  0  0
 34 68  1  0  0  0  0
 34 73  2  0  0  0  0
 35 49  1  0  0  0  0
 35 70  1  0  0  0  0
 35 74  2  0  0  0  0
 36 59  1  0  0  0  0
 36 65  1  0  0  0  0
 36 75  2  0  0  0  0
 37 60  1  0  0  0  0
 37 71  1  0  0  0  0
 37 76  2  0  0  0  0
 38 66  1  0  0  0  0
 38 69  1  0  0  0  0
 38 77  2  0  0  0  0
 39 42  1  0  0  0  0
 40 49  1  0  0  0  0
 41 65  1  0  0  0  0
 42 44  1  0  0  0  0
 43 45  1  0  0  0  0
 43 46  1  0  0  0  0
 44 48  1  0  0  0  0
 45 50  1  0  0  0  0
 46 66  1  0  0  0  0
 47 50  1  0  0  0  0
 47 66  1  0  0  0  0
 48 70  1  0  0  0  0
 49 65  1  0  0  0  0
 50 64  1  0  0  0  0
 52 60  1  0  0  0  0
 53 61  1  0  0  0  0
 54 61  1  0  0  0  0
 55 61  1  0  0  0  0
 56 72  1  0  0  0  0
 57 58  1  0  0  0  0
 57 63  1  0  0  0  0
 58 80  1  0  0  0  0
 59 61  1  0  0  0  0
 59 71  1  0  0  0  0
 60 72  1  0  0  0  0
 62 64  1  0  0  0  0
 63 84  2  0  0  0  0
 78 84  2  0  0  0  0
 83 84  1  0  0  0  0
M  CHG  1  72   1
M  ISO  4  38 100  58 101  69 100  80 101
M  END
> <Batch ID>
0050

> <Smiles>
CNC(C)C(=O)NC(C(=O)N1Cc2cc([101O:1][101CH2:1]CN=S(=O)(F)c3cc([100NH:0][100C:0](=O)N4CCCC(n5nc(-c6ccc(Oc7ccc(F)cc7F)cc6)c(C(N)=O)c5N)C4)ccc3C)ccc2CC1C(=O)NC1CCCc2ccccc21)C(C)(C)C

> <Shape>
0.294

> <Color>
0.056

> <Negative vol penalty>
0.000

$$$$

  -OEChem-04042322353D

 86 95  0     1  0  0  0  0  0999 V2000
  -27.3977  -34.6905   24.3850 C   0  0  0  0  0  0  0  0  0  0  0  0
  -27.6826  -33.3855   23.9960 C   0  0  0  0  0  0  0  0  0  0  0  0
  -25.4965   -9.9116   18.8749 C   0  0  0  0  0  0  0  0  0  0  0  0
  -27.5554  -11.1471   18.6072 C   0  0  0  0  0  0  0  0  0  0  0  0
  -26.1099  -35.0277   24.7995 C   0  0  0  0  0  0  0  0  0  0  0  0
  -26.6800  -32.4167   24.0224 C   0  0  0  0  0  0  0  0  0  0  0  0
  -26.6404  -29.5479   19.8495 C   0  0  0  0  0  0  0  0  0  0  0  0
  -31.2386  -19.1038   20.4092 C   0  0  0  0  0  0  0  0  0  0  0  0
  -30.0286  -18.4261   20.5583 C   0  0  0  0  0  0  0  0  0  0  0  0
  -25.9945   -8.9029   18.0502 C   0  0  0  0  0  0  0  0  0  0  0  0
  -28.0535  -10.1384   17.7825 C   0  0  0  0  0  0  0  0  0  0  0  0
  -27.6008  -28.5413   19.7597 C   0  0  0  0  0  0  0  0  0  0  0  0
  -28.1233   -6.2897   18.3189 C   0  0  0  0  0  0  0  0  0  0  0  0
  -27.9464   -4.9690   18.7311 C   0  0  0  0  0  0  0  0  0  0  0  0
  -25.9539  -26.9172   20.4447 C   0  0  0  0  0  0  0  0  0  0  0  0
  -28.8988  -20.1731   19.3299 C   0  0  0  0  0  0  0  0  0  0  0  0
  -26.6875   -4.5101   16.7208 C   0  0  0  0  0  0  0  0  0  0  0  0
  -26.2770  -11.0337   19.1534 C   0  0  0  0  0  0  0  0  0  0  0  0
  -25.3527  -11.9537   21.3459 C   0  0  0  0  0  0  0  0  0  0  0  0
  -25.0887  -34.0648   24.8218 C   0  0  0  0  0  0  0  0  0  0  0  0
  -25.3301  -29.2479   20.2487 C   0  0  0  0  0  0  0  0  0  0  0  0
  -25.3777  -32.7410   24.4389 C   0  0  0  0  0  0  0  0  0  0  0  0
  -24.9780  -27.9215   20.5362 C   0  0  0  0  0  0  0  0  0  0  0  0
  -31.2787  -20.3162   19.7205 C   0  0  0  0  0  0  0  0  0  0  0  0
  -30.1089  -20.8508   19.1808 C   0  0  0  0  0  0  0  0  0  0  0  0
  -28.8587  -18.9607   20.0186 C   0  0  0  0  0  0  0  0  0  0  0  0
  -27.2730   -9.0163   17.5040 C   0  0  0  0  0  0  0  0  0  0  0  0
  -27.2584  -27.2261   20.0601 C   0  0  0  0  0  0  0  0  0  0  0  0
  -27.5822   -6.7207   17.1077 C   0  0  0  0  0  0  0  0  0  0  0  0
  -27.2285   -4.0792   17.9321 C   0  0  0  0  0  0  0  0  0  0  0  0
  -26.8643   -5.8309   16.3086 C   0  0  0  0  0  0  0  0  0  0  0  0
  -25.7629  -12.0763   20.0048 C   0  0  0  0  0  0  0  0  0  0  0  0
  -24.9511  -13.2188   21.6991 C   0  0  0  0  0  0  0  0  0  0  0  0
  -30.3071  -24.5657   18.5675 C   0  0  0  0  0  0  0  0  0  0  0  0
  -31.4972  -25.1676   18.4221 C   0  0  0  0  0  0  0  0  0  0  0  0
  -25.3363  -10.7996   22.1963 C   0  0  0  0  0  0  0  0  0  0  0  0
  -23.4767  -30.1016   22.6859 C   0  0  0  0  0  0  0  0  0  0  0  0
  -21.2233  -28.4396   21.0482 C   0  0  0  0  0  0  0  0  0  0  0  0
  -21.0571  -25.3435   19.2032 C   0  0  0  0  0  0  0  0  0  0  0  0
  -26.3783  -18.6638   19.6939 C   0  0  0  0  0  0  0  0  0  0  0  0
  -23.7237  -34.4657   25.3225 C   0  0  0  0  0  0  0  0  0  0  0  0
  -24.2990  -30.3411   20.3148 C   0  0  0  0  0  0  0  0  0  0  0  0
  -23.5799  -27.5439   20.9499 C   0  0  0  0  0  0  0  0  0  0  0  0
  -29.0291  -25.1254   17.9979 C   0  0  0  0  0  0  0  0  0  0  0  0
  -22.6261  -33.4669   24.9647 C   0  0  0  0  0  0  0  0  0  0  0  0
  -23.1227  -17.2278   19.8230 C   0  0  0  0  0  0  0  0  0  0  0  0
  -23.0813  -32.0426   25.2663 C   0  0  0  0  0  0  0  0  0  0  0  0
  -23.3929  -15.7334   20.0124 C   0  0  0  0  0  0  0  0  0  0  0  0
  -27.8470  -23.8656   19.8459 C   0  0  0  0  0  0  0  0  0  0  0  0
  -24.1561  -17.8791   18.9056 C   0  0  0  0  0  0  0  0  0  0  0  0
  -25.8259  -16.1609   19.4788 C   0  0  0  0  0  0  0  0  0  0  0  0
  -29.2020  -23.4413   20.4106 C   0  0  0  0  0  0  0  0  0  0  0  0
  -24.3109  -31.6678   24.4302 C   0  0  1  0  0  0  0  0  0  0  0  0
  -23.1255  -30.0012   21.2285 C   0  0  1  0  0  0  0  0  0  0  0  0
  -24.8488  -15.4746   20.4472 C   0  0  2  0  0  0  0  0  0  0  0  0
  -27.9328  -25.1753   19.0623 C   0  0  1  0  0  0  0  0  0  1  0  0
  -32.5858  -21.0238   19.5744 C   0  0  0  0  0  0  0  0  0  0  0  0
  -19.5502  -24.6440   17.3224 C   0  0  0  0  0  0  0  0  0  0  0  0
  -19.4967  -27.2439   23.2616 C   0  0  0  0  0  0  0  0  0  0  0  0
  -19.0205  -25.3072   21.7482 C   0  0  0  0  0  0  0  0  0  0  0  0
  -18.3077  -27.6057   21.0913 C   0  0  0  0  0  0  0  0  0  0  0  0
  -23.3524  -24.6775   17.4576 C   0  0  0  0  0  0  0  0  0  0  0  0
  -30.1282  -22.1521   18.4344 C   0  0  0  0  0  0  0  0  0  0  0  0
  -20.7620  -27.0024   21.0240 C   0  0  1  0  0  0  0  0  0  0  0  0
  -20.9194  -25.1880   17.6994 C   0  0  2  0  0  0  0  0  0  0  0  0
  -19.4235  -26.7967   21.7879 C   0  0  0  0  0  0  0  0  0  0  0  0
  -25.6335  -13.3209   19.5377 N   0  0  0  0  0  0  0  0  0  0  0  0
  -25.1375  -13.9920   20.5911 N   0  0  0  0  0  0  0  0  0  0  0  0
  -22.6090  -28.6492   21.0059 N   0  0  0  0  0  0  0  0  0  0  0  0
  -25.5116  -17.5950   19.3819 N   0  0  0  0  0  0  0  0  0  0  0  0
  -24.4601  -13.7341   22.8462 N   0  0  0  0  0  0  0  0  0  0  0  0
  -25.7834   -9.5783   21.6739 N   0  0  0  0  0  0  0  0  0  0  0  0
  -27.6296  -18.2717   20.1681 N   0  0  0  0  0  0  0  0  0  0  0  0
  -23.9216  -31.3514   23.0726 N   0  0  0  0  0  0  0  0  0  0  0  0
  -20.7141  -26.6127   19.6189 N   0  0  0  0  0  0  0  0  0  0  0  0
  -30.2610  -23.3473   19.3373 N   0  3  1  0  0  0  0  0  0  0  0  0
  -21.9564  -24.2532   17.1782 N   0  3  0  0  0  0  0  0  0  0  0  0
  -24.9216  -10.8463   23.3793 O   0  0  0  0  0  0  0  0  0  0  0  0
  -23.3519  -29.1184   23.4066 O   0  0  0  0  0  0  0  0  0  0  0  0
  -20.3849  -29.3431   21.0955 O   0  0  0  0  0  0  0  0  0  0  0  0
  -21.4282  -24.4294   19.9361 O   0  0  0  0  0  0  0  0  0  0  0  0
  -26.0261  -19.8403   19.5766 O   0  0  0  0  0  0  0  0  0  0  0  0
  -27.7594   -8.0321   16.6994 O   0  0  0  0  0  0  0  0  0  0  0  0
  -28.1940  -26.2417   19.9740 O   0  0  0  0  0  0  0  0  0  1  0  0
  -27.0601   -2.8105   18.3273 F   0  0  0  0  0  0  0  0  0  0  0  0
  -26.3431   -6.2389   15.1433 F   0  0  0  0  0  0  0  0  0  0  0  0
  1  2  1  0  0  0  0
  1  5  2  0  0  0  0
  2  6  2  0  0  0  0
  3 10  2  0  0  0  0
  3 18  1  0  0  0  0
  4 11  1  0  0  0  0
  4 18  2  0  0  0  0
  5 20  1  0  0  0  0
  6 22  1  0  0  0  0
  7 12  2  0  0  0  0
  7 21  1  0  0  0  0
  8  9  2  0  0  0  0
  8 24  1  0  0  0  0
  9 26  1  0  0  0  0
 10 27  1  0  0  0  0
 11 27  2  0  0  0  0
 12 28  1  0  0  0  0
 13 14  2  0  0  0  0
 13 29  1  0  0  0  0
 14 30  1  0  0  0  0
 15 23  1  0  0  0  0
 15 28  2  0  0  0  0
 16 25  1  0  0  0  0
 16 26  2  0  0  0  0
 17 30  2  0  0  0  0
 17 31  1  0  0  0  0
 18 32  1  0  0  0  0
 19 32  1  0  0  0  0
 19 33  2  0  0  0  0
 19 36  1  0  0  0  0
 20 22  2  0  0  0  0
 20 41  1  0  0  0  0
 21 23  2  0  0  0  0
 21 42  1  0  0  0  0
 22 53  1  0  0  0  0
 23 43  1  0  0  0  0
 24 25  2  0  0  0  0
 24 57  1  0  0  0  0
 25 63  1  0  0  0  0
 26 73  1  0  0  0  0
 27 83  1  0  0  0  0
 28 84  1  0  0  0  0
 29 31  2  0  0  0  0
 29 83  1  0  0  0  0
 30 85  1  0  0  0  0
 31 86  1  0  0  0  0
 32 67  2  0  0  0  0
 33 68  1  0  0  0  0
 33 71  1  0  0  0  0
 34 35  2  0  0  0  0
 34 44  1  0  0  0  0
 34 76  1  0  0  0  0
 36 72  1  0  0  0  0
 36 78  2  0  0  0  0
 37 54  1  0  0  0  0
 37 74  1  0  0  0  0
 37 79  2  0  0  0  0
 38 64  1  0  0  0  0
 38 69  1  0  0  0  0
 38 80  2  0  0  0  0
 39 65  1  0  0  0  0
 39 75  1  0  0  0  0
 39 81  2  0  0  0  0
 40 70  1  0  0  0  0
 40 73  1  0  0  0  0
 40 82  2  0  0  0  0
 41 45  1  0  0  0  0
 42 54  1  0  0  0  0
 43 69  1  0  0  0  0
 44 56  1  0  0  0  0
 45 47  1  0  0  0  0
 46 48  1  0  0  0  0
 46 50  1  0  0  0  0
 47 53  1  0  0  0  0
 48 55  1  0  0  0  0
 49 52  1  0  0  0  0
 49 56  1  0  0  0  0
 50 70  1  0  0  0  0
 51 55  1  0  0  0  0
 51 70  1  0  0  0  0
 52 76  1  0  0  0  0
 53 74  1  0  0  0  0
 54 69  1  0  0  0  0
 55 68  1  0  0  0  0
 56 84  1  0  0  0  0
 58 65  1  0  0  0  0
 59 66  1  0  0  0  0
 60 66  1  0  0  0  0
 61 66  1  0  0  0  0
 62 77  1  0  0  0  0
 63 76  1  0  0  0  0
 64 66  1  0  0  0  0
 64 75  1  0  0  0  0
 65 77  1  0  0  0  0
 67 68  1  0  0  0  0
M  CHG  2  76   1  77   1
M  ISO  4  40 100  56 101  73 100  84 101
M  END
> <Batch ID>
0050

> <Smiles>
C=C1C[101CH:1]([101O:1]c2ccc3c(c2)CN(C(=O)C(NC(=O)C(C)NC)C(C)(C)C)C(C(=O)NC2CCCc4ccccc42)C3)CCN1Cc1cc([100NH:0][100C:0](=O)N2CCCC(n3nc(-c4ccc(Oc5ccc(F)cc5F)cc4)c(C(N)=O)c3N)C2)ccc1C

> <Shape>
0.266

> <Color>
0.069

> <Negative vol penalty>
0.000

$$$$

  -OEChem-04042322353D

 85 93  0     1  0  0  0  0  0999 V2000
  -17.7415  -18.1283   20.5491 C   0  0  0  0  0  0  0  0  0  0  0  0
  -18.9347  -18.1954   21.2612 C   0  0  0  0  0  0  0  0  0  0  0  0
  -23.2884   -9.7997   19.9125 C   0  0  0  0  0  0  0  0  0  0  0  0
  -23.7385   -9.9398   22.2820 C   0  0  0  0  0  0  0  0  0  0  0  0
  -16.5296  -18.0203   21.2301 C   0  0  0  0  0  0  0  0  0  0  0  0
  -18.9166  -18.1556   22.6550 C   0  0  0  0  0  0  0  0  0  0  0  0
  -22.4446  -15.0595   24.5557 C   0  0  0  0  0  0  0  0  0  0  0  0
  -22.5619   -8.6271   20.1198 C   0  0  0  0  0  0  0  0  0  0  0  0
  -23.0120   -8.7673   22.4894 C   0  0  0  0  0  0  0  0  0  0  0  0
  -23.7549  -15.5343   24.5935 C   0  0  0  0  0  0  0  0  0  0  0  0
  -19.7648   -7.8564   22.7056 C   0  0  0  0  0  0  0  0  0  0  0  0
  -18.8622   -7.8346   23.7687 C   0  0  0  0  0  0  0  0  0  0  0  0
  -23.4891  -16.0643   26.9318 C   0  0  0  0  0  0  0  0  0  0  0  0
  -30.7070  -14.1404   25.8472 C   0  0  0  0  0  0  0  0  0  0  0  0
  -30.7925  -11.7344   25.6456 C   0  0  0  0  0  0  0  0  0  0  0  0
  -20.0675   -5.9871   24.7542 C   0  0  0  0  0  0  0  0  0  0  0  0
  -23.8768  -10.4560   20.9936 C   0  0  0  0  0  0  0  0  0  0  0  0
  -24.1364  -12.9860   20.7955 C   0  0  0  0  0  0  0  0  0  0  0  0
  -16.4975  -17.9694   22.6326 C   0  0  0  0  0  0  0  0  0  0  0  0
  -21.6418  -15.0937   25.7050 C   0  0  0  0  0  0  0  0  0  0  0  0
  -17.7032  -18.0481   23.3554 C   0  0  0  0  0  0  0  0  0  0  0  0
  -22.1698  -15.5870   26.9066 C   0  0  0  0  0  0  0  0  0  0  0  0
  -31.0430  -13.0006   25.1168 C   0  0  0  0  0  0  0  0  0  0  0  0
  -30.1206  -14.0141   27.1065 C   0  0  0  0  0  0  0  0  0  0  0  0
  -22.4237   -8.1110   21.4082 C   0  0  0  0  0  0  0  0  0  0  0  0
  -24.2764  -16.0395   25.7808 C   0  0  0  0  0  0  0  0  0  0  0  0
  -20.8188   -6.9435   22.6667 C   0  0  0  0  0  0  0  0  0  0  0  0
  -19.0135   -6.9000   24.7931 C   0  0  0  0  0  0  0  0  0  0  0  0
  -30.2060  -11.6081   26.9049 C   0  0  0  0  0  0  0  0  0  0  0  0
  -20.9702   -6.0089   23.6910 C   0  0  0  0  0  0  0  0  0  0  0  0
  -29.8701  -12.7479   27.6354 C   0  0  0  0  0  0  0  0  0  0  0  0
  -24.6279  -11.6669   20.7800 C   0  0  0  0  0  0  0  0  0  0  0  0
  -25.2380  -13.7659   20.5410 C   0  0  0  0  0  0  0  0  0  0  0  0
  -22.8033  -13.4636   21.0201 C   0  0  0  0  0  0  0  0  0  0  0  0
  -18.9180  -16.5282   26.4966 C   0  0  0  0  0  0  0  0  0  0  0  0
  -19.2207  -14.7537   29.1951 C   0  0  0  0  0  0  0  0  0  0  0  0
  -27.7401  -16.2620   26.8304 C   0  0  0  0  0  0  0  0  0  0  0  0
  -21.2720  -13.0670   31.3385 C   0  0  0  0  0  0  0  0  0  0  0  0
  -31.1087  -12.9223   21.3622 C   0  0  0  0  0  0  0  0  0  0  0  0
  -15.1599  -17.8999   23.3260 C   0  0  0  0  0  0  0  0  0  0  0  0
  -20.2391  -14.5530   25.6545 C   0  0  0  0  0  0  0  0  0  0  0  0
  -21.3558  -15.6270   28.1732 C   0  0  0  0  0  0  0  0  0  0  0  0
  -15.2548  -17.4865   24.7924 C   0  0  0  0  0  0  0  0  0  0  0  0
  -29.4607  -13.6624   18.2941 C   0  0  0  0  0  0  0  0  0  0  0  0
  -16.3581  -18.2691   25.4973 C   0  0  0  0  0  0  0  0  0  0  0  0
  -27.9909  -13.3539   18.5847 C   0  0  0  0  0  0  0  0  0  0  0  0
  -30.3937  -12.6828   19.0025 C   0  0  0  0  0  0  0  0  0  0  0  0
  -28.7066  -12.2532   20.7469 C   0  0  0  0  0  0  0  0  0  0  0  0
  -17.7265  -17.9829   24.8671 C   0  0  1  0  0  0  0  0  0  0  0  0
  -19.3436  -15.1108   26.7565 C   0  0  1  0  0  0  0  0  0  0  0  0
  -27.7289  -13.2486   20.0991 C   0  0  2  0  0  0  0  0  0  0  0  0
  -21.2349  -11.7513   33.4751 C   0  0  0  0  0  0  0  0  0  0  0  0
  -18.9220  -17.3429   30.7815 C   0  0  0  0  0  0  0  0  0  0  0  0
  -19.8270  -16.1398   32.7819 C   0  0  0  0  0  0  0  0  0  0  0  0
  -17.6912  -15.3865   31.7364 C   0  0  0  0  0  0  0  0  0  0  0  0
  -22.3095  -10.6408   29.9983 C   0  0  0  0  0  0  0  0  0  0  0  0
  -31.6699  -13.1355   23.7702 C   0  0  0  0  0  0  0  0  0  0  0  0
  -29.7735  -15.2660   27.8592 C   0  0  0  0  0  0  0  0  0  0  0  0
  -26.2495  -16.3897   27.0615 C   0  0  0  0  0  0  0  0  0  1  0  0
  -19.8763  -14.9560   30.5398 C   0  0  1  0  0  0  0  0  0  0  0  0
  -21.1648  -11.6850   31.9574 C   0  0  2  0  0  0  0  0  0  0  0  0
  -19.0941  -15.9575   31.4357 C   0  0  0  0  0  0  0  0  0  0  0  0
  -25.9395  -11.6082   20.5348 N   0  0  0  0  0  0  0  0  0  0  0  0
  -26.2816  -12.9002   20.3939 N   0  0  0  0  0  0  0  0  0  0  0  0
  -19.9877  -15.0927   28.0714 N   0  0  0  0  0  0  0  0  0  0  0  0
  -30.0940  -12.6312   20.4355 N   0  0  0  0  0  0  0  0  0  0  0  0
  -25.4060  -15.1008   20.4309 N   0  0  0  0  0  0  0  0  0  0  0  0
  -21.7906  -12.5268   21.2671 N   0  0  0  0  0  0  0  0  0  0  0  0
  -18.2291  -16.7004   25.3112 N   0  0  0  0  0  0  0  0  0  0  0  0
  -28.3541  -15.5340   27.8374 N   0  0  0  0  0  0  0  0  0  0  0  0
  -20.0309  -13.6276   31.1226 N   0  0  0  0  0  0  0  0  0  0  0  0
  -30.7386  -12.8565   22.6999 N   0  0  0  0  0  0  0  0  0  0  0  0
  -22.2724  -10.8133   31.4733 N   0  3  0  0  0  0  0  0  0  0  0  0
  -22.5155  -14.6841   20.9859 O   0  0  0  0  0  0  0  0  0  0  0  0
  -19.1928  -17.4007   27.3120 O   0  0  0  0  0  0  0  0  0  0  0  0
  -18.0731  -14.3044   29.1433 O   0  0  0  0  0  0  0  0  0  0  0  0
  -28.3066  -16.7563   25.8594 O   0  0  0  0  0  0  0  0  0  0  0  0
  -22.3491  -13.5978   31.0765 O   0  0  0  0  0  0  0  0  0  0  0  0
  -32.2578  -13.2241   21.0224 O   0  0  0  0  0  0  0  0  0  0  0  0
  -21.7146   -6.9670   21.6109 O   0  0  0  0  0  0  0  0  0  0  0  0
  -25.5548  -16.5041   25.8203 O   0  0  0  0  0  0  0  0  0  1  0  0
  -18.1475   -6.8801   25.8147 F   0  0  0  0  0  0  0  0  0  0  0  0
  -29.9728  -10.3835   27.3988 F   0  0  0  0  0  0  0  0  0  0  0  0
  -21.9814   -5.1302   23.6597 F   0  0  0  0  0  0  0  0  0  0  0  0
  -29.1457  -12.5603   29.1915 Cl  0  0  0  0  0  0  0  0  0  0  0  0
  1  2  1  0  0  0  0
  1  5  2  0  0  0  0
  2  6  2  0  0  0  0
  3  8  2  0  0  0  0
  3 17  1  0  0  0  0
  4  9  1  0  0  0  0
  4 17  2  0  0  0  0
  5 19  1  0  0  0  0
  6 21  1  0  0  0  0
  7 10  2  0  0  0  0
  7 20  1  0  0  0  0
  8 25  1  0  0  0  0
  9 25  2  0  0  0  0
 10 26  1  0  0  0  0
 11 12  2  0  0  0  0
 11 27  1  0  0  0  0
 12 28  1  0  0  0  0
 13 22  1  0  0  0  0
 13 26  2  0  0  0  0
 14 23  2  0  0  0  0
 14 24  1  0  0  0  0
 15 23  1  0  0  0  0
 15 29  2  0  0  0  0
 16 28  2  0  0  0  0
 16 30  1  0  0  0  0
 17 32  1  0  0  0  0
 18 32  1  0  0  0  0
 18 33  2  0  0  0  0
 18 34  1  0  0  0  0
 19 21  2  0  0  0  0
 19 40  1  0  0  0  0
 20 22  2  0  0  0  0
 20 41  1  0  0  0  0
 21 49  1  0  0  0  0
 22 42  1  0  0  0  0
 23 57  1  0  0  0  0
 24 31  2  0  0  0  0
 24 58  1  0  0  0  0
 25 80  1  0  0  0  0
 26 81  1  0  0  0  0
 27 30  2  0  0  0  0
 27 80  1  0  0  0  0
 28 82  1  0  0  0  0
 29 31  1  0  0  0  0
 29 83  1  0  0  0  0
 30 84  1  0  0  0  0
 31 85  1  0  0  0  0
 32 63  2  0  0  0  0
 33 64  1  0  0  0  0
 33 67  1  0  0  0  0
 34 68  1  0  0  0  0
 34 74  2  0  0  0  0
 35 50  1  0  0  0  0
 35 69  1  0  0  0  0
 35 75  2  0  0  0  0
 36 60  1  0  0  0  0
 36 65  1  0  0  0  0
 36 76  2  0  0  0  0
 37 59  1  0  0  0  0
 37 70  1  0  0  0  0
 37 77  2  0  0  0  0
 38 61  1  0  0  0  0
 38 71  1  0  0  0  0
 38 78  2  0  0  0  0
 39 66  1  0  0  0  0
 39 72  1  0  0  0  0
 39 79  2  0  0  0  0
 40 43  1  0  0  0  0
 41 50  1  0  0  0  0
 42 65  1  0  0  0  0
 43 45  1  0  0  0  0
 44 46  1  0  0  0  0
 44 47  1  0  0  0  0
 45 49  1  0  0  0  0
 46 51  1  0  0  0  0
 47 66  1  0  0  0  0
 48 51  1  0  0  0  0
 48 66  1  0  0  0  0
 49 69  1  0  0  0  0
 50 65  1  0  0  0  0
 51 64  1  0  0  0  0
 52 61  1  0  0  0  0
 53 62  1  0  0  0  0
 54 62  1  0  0  0  0
 55 62  1  0  0  0  0
 56 73  1  0  0  0  0
 57 72  1  0  0  0  0
 58 70  1  0  0  0  0
 59 81  1  0  0  0  0
 60 62  1  0  0  0  0
 60 71  1  0  0  0  0
 61 73  1  0  0  0  0
 63 64  1  0  0  0  0
M  CHG  1  73   1
M  ISO  4  39 100  59 101  72 100  81 101
M  END
> <Batch ID>
0050

> <Smiles>
CNC(C)C(=O)NC(C(=O)N1Cc2cc([101O:1][101CH2:1]C(=O)NCc3cc(C[100NH:0][100C:0](=O)N4CCCC(n5nc(-c6ccc(Oc7ccc(F)cc7F)cc6)c(C(N)=O)c5N)C4)cc(F)c3Cl)ccc2CC1C(=O)NC1CCCc2ccccc21)C(C)(C)C

> <Shape>
0.132

> <Color>
0.174

> <Negative vol penalty>
0.000

$$$$

  -OEChem-04042322353D

 93102  0     1  0  0  0  0  0999 V2000
  -26.0445  -37.1769   22.7945 C   0  0  0  0  0  0  0  0  0  0  0  0
  -26.7413  -36.0736   22.3123 C   0  0  0  0  0  0  0  0  0  0  0  0
  -22.8509   -9.7020   22.5457 C   0  0  0  0  0  0  0  0  0  0  0  0
  -24.2501  -10.6284   20.8075 C   0  0  0  0  0  0  0  0  0  0  0  0
  -24.9856  -36.9972   23.6836 C   0  0  0  0  0  0  0  0  0  0  0  0
  -26.3804  -34.7898   22.7199 C   0  0  0  0  0  0  0  0  0  0  0  0
  -26.5979  -29.6668   19.3712 C   0  0  0  0  0  0  0  0  0  0  0  0
  -22.2282   -8.8800   21.6064 C   0  0  0  0  0  0  0  0  0  0  0  0
  -23.6274   -9.8064   19.8682 C   0  0  0  0  0  0  0  0  0  0  0  0
  -27.5317  -28.6343   19.2962 C   0  0  0  0  0  0  0  0  0  0  0  0
  -22.9052   -5.9895   19.9880 C   0  0  0  0  0  0  0  0  0  0  0  0
  -22.7077   -4.6511   20.3275 C   0  0  0  0  0  0  0  0  0  0  0  0
  -26.2200  -27.3429   20.8554 C   0  0  0  0  0  0  0  0  0  0  0  0
  -28.3177  -18.8264   20.5545 C   0  0  0  0  0  0  0  0  0  0  0  0
  -29.3737  -16.6634   20.3465 C   0  0  0  0  0  0  0  0  0  0  0  0
  -20.3228   -4.9371   20.0679 C   0  0  0  0  0  0  0  0  0  0  0  0
  -23.8618  -10.5762   22.1462 C   0  0  0  0  0  0  0  0  0  0  0  0
  -25.2227  -11.0214   24.2575 C   0  0  0  0  0  0  0  0  0  0  0  0
  -24.6054  -35.7099   24.0947 C   0  0  0  0  0  0  0  0  0  0  0  0
  -25.4719  -29.5494   20.1987 C   0  0  0  0  0  0  0  0  0  0  0  0
  -25.3163  -34.5928   23.6163 C   0  0  0  0  0  0  0  0  0  0  0  0
  -25.2721  -28.3743   20.9372 C   0  0  0  0  0  0  0  0  0  0  0  0
  -29.1324  -19.3222   19.5367 C   0  0  0  0  0  0  0  0  0  0  0  0
  -30.1885  -17.1591   19.3286 C   0  0  0  0  0  0  0  0  0  0  0  0
  -30.0678  -18.4885   18.9237 C   0  0  0  0  0  0  0  0  0  0  0  0
  -28.4383  -17.4971   20.9595 C   0  0  0  0  0  0  0  0  0  0  0  0
  -22.6165   -8.9322   20.2677 C   0  0  0  0  0  0  0  0  0  0  0  0
  -27.3443  -27.4732   20.0405 C   0  0  0  0  0  0  0  0  0  0  0  0
  -21.8114   -6.8018   19.6885 C   0  0  0  0  0  0  0  0  0  0  0  0
  -21.4165   -4.1249   20.3674 C   0  0  0  0  0  0  0  0  0  0  0  0
  -20.5203   -6.2756   19.7285 C   0  0  0  0  0  0  0  0  0  0  0  0
  -24.5051  -11.4259   23.1159 C   0  0  0  0  0  0  0  0  0  0  0  0
  -25.6291  -12.1962   24.8417 C   0  0  0  0  0  0  0  0  0  0  0  0
  -29.9004  -21.9689   21.0076 C   0  0  0  0  0  0  0  0  0  0  0  0
  -32.3740  -19.6914   22.4838 C   0  0  0  0  0  0  0  0  0  0  0  0
  -30.6556  -21.3357   21.9178 C   0  0  0  0  0  0  0  0  0  0  0  0
  -31.6213  -20.3224   21.5757 C   0  0  0  0  0  0  0  0  0  0  0  0
  -25.4974   -9.7018   24.7461 C   0  0  0  0  0  0  0  0  0  0  0  0
  -24.3677  -31.1353   22.7225 C   0  0  0  0  0  0  0  0  0  0  0  0
  -21.8072  -29.1807   22.3415 C   0  0  0  0  0  0  0  0  0  0  0  0
  -20.5624  -26.2361   21.1470 C   0  0  0  0  0  0  0  0  0  0  0  0
  -26.6308  -17.6854   22.7041 C   0  0  0  0  0  0  0  0  0  0  0  0
  -23.4846  -35.5685   25.0941 C   0  0  0  0  0  0  0  0  0  0  0  0
  -24.4601  -30.6614   20.2481 C   0  0  0  0  0  0  0  0  0  0  0  0
  -24.0695  -28.1905   21.8251 C   0  0  0  0  0  0  0  0  0  0  0  0
  -28.8928  -23.0267   21.3684 C   0  0  0  0  0  0  0  0  0  0  0  0
  -22.9249  -34.1513   25.1851 C   0  0  0  0  0  0  0  0  0  0  0  0
  -24.3558  -16.7907   25.2927 C   0  0  0  0  0  0  0  0  0  0  0  0
  -24.0584  -33.1341   25.2703 C   0  0  0  0  0  0  0  0  0  0  0  0
  -24.2059  -15.2757   25.1360 C   0  0  0  0  0  0  0  0  0  0  0  0
  -29.2393  -23.9333   19.0412 C   0  0  0  0  0  0  0  0  0  0  0  0
  -24.4843  -17.4907   23.9409 C   0  0  0  0  0  0  0  0  0  0  0  0
  -25.3855  -15.4441   22.9072 C   0  0  0  0  0  0  0  0  0  0  0  0
  -30.3217  -22.8835   18.8010 C   0  0  0  0  0  0  0  0  0  0  0  0
  -24.9389  -33.1828   24.0158 C   0  0  1  0  0  0  0  0  0  0  0  0
  -23.6152  -30.6444   21.5182 C   0  0  1  0  0  0  0  0  0  0  0  0
  -29.1192  -24.2901   20.5294 C   0  0  1  0  0  0  0  0  0  0  0  0
  -25.3178  -14.6886   24.2445 C   0  0  2  0  0  0  0  0  0  0  0  0
  -30.9410  -19.0201   17.8318 C   0  0  0  0  0  0  0  0  0  0  0  0
  -18.4413  -24.9011   21.0202 C   0  0  0  0  0  0  0  0  0  0  0  0
  -22.1316  -28.3915   25.2710 C   0  0  0  0  0  0  0  0  0  0  0  0
  -20.6539  -26.4189   24.8310 C   0  0  0  0  0  0  0  0  0  0  0  0
  -19.7647  -28.7311   24.5381 C   0  0  0  0  0  0  0  0  0  0  0  0
  -20.5627  -26.2994   18.1881 C   0  0  0  0  0  0  0  0  0  0  0  0
  -28.9832  -20.7558   19.1202 C   0  0  0  0  0  0  0  0  0  0  0  0
  -27.9998  -25.3030   20.7590 C   0  0  0  0  0  0  0  0  0  1  0  0
  -21.4174  -27.8165   22.8575 C   0  0  1  0  0  0  0  0  0  0  0  0
  -19.3246  -25.9254   20.3250 C   0  0  2  0  0  0  0  0  0  0  0  0
  -31.1820  -16.2457   18.6885 C   0  0  0  0  0  0  0  0  0  0  0  0
  -21.0157  -27.8435   24.3593 C   0  0  0  0  0  0  0  0  0  0  0  0
  -24.4565  -12.7539   22.9812 N   0  0  0  0  0  0  0  0  0  0  0  0
  -25.1486  -13.1940   24.0457 N   0  0  0  0  0  0  0  0  0  0  0  0
  -23.1119  -29.3086   21.8445 N   0  0  0  0  0  0  0  0  0  0  0  0
  -25.5597  -16.8843   23.1531 N   0  0  0  0  0  0  0  0  0  0  0  0
  -26.3469  -12.4626   25.9535 N   0  0  0  0  0  0  0  0  0  0  0  0
  -25.0053   -8.6060   24.0240 N   0  0  0  0  0  0  0  0  0  0  0  0
  -27.6101  -16.9929   21.9927 N   0  0  0  0  0  0  0  0  0  0  0  0
  -24.2901  -32.5013   22.9162 N   0  0  0  0  0  0  0  0  0  0  0  0
  -20.3699  -27.3275   21.9674 N   0  0  0  0  0  0  0  0  0  0  0  0
  -30.0977  -21.6334   19.6192 N   0  3  2  0  0  0  0  0  0  0  0  0
  -19.7109  -25.3846   18.9911 N   0  3  0  0  0  0  0  0  0  0  0  0
  -26.1458   -9.5006   25.8010 O   0  0  0  0  0  0  0  0  0  0  0  0
  -24.9727  -30.3339   23.4250 O   0  0  0  0  0  0  0  0  0  0  0  0
  -20.9820  -30.0971   22.3717 O   0  0  0  0  0  0  0  0  0  0  0  0
  -21.5954  -25.5744   21.0718 O   0  0  0  0  0  0  0  0  0  0  0  0
  -26.6895  -18.8915   22.9570 O   0  0  0  0  0  0  0  0  0  0  0  0
  -22.0092   -8.1301   19.3509 O   0  0  0  0  0  0  0  0  0  0  0  0
  -28.2545  -26.4641   19.9696 O   0  0  0  0  0  0  0  0  0  1  0  0
  -21.2271   -2.8392   20.6919 F   0  0  0  0  0  0  0  0  0  0  0  0
  -19.4657   -7.0507   19.4406 F   0  0  0  0  0  0  0  0  0  0  0  0
  -31.1696  -14.9809   19.2019 F   0  0  0  0  0  0  0  0  0  0  0  0
  -30.9915  -16.0890   17.3460 F   0  0  0  0  0  0  0  0  0  0  0  0
  -32.4648  -16.6874   18.8292 F   0  0  0  0  0  0  0  0  0  0  0  0
  1  2  1  0  0  0  0
  1  5  2  0  0  0  0
  2  6  2  0  0  0  0
  3  8  2  0  0  0  0
  3 17  1  0  0  0  0
  4  9  1  0  0  0  0
  4 17  2  0  0  0  0
  5 19  1  0  0  0  0
  6 21  1  0  0  0  0
  7 10  2  0  0  0  0
  7 20  1  0  0  0  0
  8 27  1  0  0  0  0
  9 27  2  0  0  0  0
 10 28  1  0  0  0  0
 11 12  2  0  0  0  0
 11 29  1  0  0  0  0
 12 30  1  0  0  0  0
 13 22  1  0  0  0  0
 13 28  2  0  0  0  0
 14 23  1  0  0  0  0
 14 26  2  0  0  0  0
 15 24  2  0  0  0  0
 15 26  1  0  0  0  0
 16 30  2  0  0  0  0
 16 31  1  0  0  0  0
 17 32  1  0  0  0  0
 18 32  1  0  0  0  0
 18 33  2  0  0  0  0
 18 38  1  0  0  0  0
 19 21  2  0  0  0  0
 19 43  1  0  0  0  0
 20 22  2  0  0  0  0
 20 44  1  0  0  0  0
 21 55  1  0  0  0  0
 22 45  1  0  0  0  0
 23 25  2  0  0  0  0
 23 65  1  0  0  0  0
 24 25  1  0  0  0  0
 24 69  1  0  0  0  0
 25 59  1  0  0  0  0
 26 77  1  0  0  0  0
 27 87  1  0  0  0  0
 28 88  1  0  0  0  0
 29 31  2  0  0  0  0
 29 87  1  0  0  0  0
 30 89  1  0  0  0  0
 31 90  1  0  0  0  0
 32 71  2  0  0  0  0
 33 72  1  0  0  0  0
 33 75  1  0  0  0  0
 34 36  2  0  0  0  0
 34 46  1  0  0  0  0
 34 80  1  0  0  0  0
 35 37  2  0  0  0  0
 36 37  1  0  0  0  0
 38 76  1  0  0  0  0
 38 82  2  0  0  0  0
 39 56  1  0  0  0  0
 39 78  1  0  0  0  0
 39 83  2  0  0  0  0
 40 67  1  0  0  0  0
 40 73  1  0  0  0  0
 40 84  2  0  0  0  0
 41 68  1  0  0  0  0
 41 79  1  0  0  0  0
 41 85  2  0  0  0  0
 42 74  1  0  0  0  0
 42 77  1  0  0  0  0
 42 86  2  0  0  0  0
 43 47  1  0  0  0  0
 44 56  1  0  0  0  0
 45 73  1  0  0  0  0
 46 57  1  0  0  0  0
 47 49  1  0  0  0  0
 48 50  1  0  0  0  0
 48 52  1  0  0  0  0
 49 55  1  0  0  0  0
 50 58  1  0  0  0  0
 51 54  1  0  0  0  0
 51 57  1  0  0  0  0
 52 74  1  0  0  0  0
 53 58  1  0  0  0  0
 53 74  1  0  0  0  0
 54 80  1  0  0  0  0
 55 78  1  0  0  0  0
 56 73  1  0  0  0  0
 57 66  1  0  0  0  0
 58 72  1  0  0  0  0
 60 68  1  0  0  0  0
 61 70  1  0  0  0  0
 62 70  1  0  0  0  0
 63 70  1  0  0  0  0
 64 81  1  0  0  0  0
 65 80  1  0  0  0  0
 66 88  1  0  0  0  0
 67 70  1  0  0  0  0
 67 79  1  0  0  0  0
 68 81  1  0  0  0  0
 69 91  1  0  0  0  0
 69 92  1  0  0  0  0
 69 93  1  0  0  0  0
 71 72  1  0  0  0  0
M  CHG  2  80   1  81   1
M  ISO  4  42 100  66 101  77 100  88 101
M  END
> <Batch ID>
0050

> <Smiles>
C=CC=C1CC([101CH2:1][101O:1]c2ccc3c(c2)CN(C(=O)C(NC(=O)C(C)NC)C(C)(C)C)C(C(=O)NC2CCCc4ccccc42)C3)CCN1Cc1cc([100NH:0][100C:0](=O)N2CCCC(n3nc(-c4ccc(Oc5ccc(F)cc5F)cc4)c(C(N)=O)c3N)C2)cc(C(F)(F)F)c1C

> <Shape>
0.276

> <Color>
0.056

> <Negative vol penalty>
0.000

$$$$

  -OEChem-04042322353D

 88 96  0     1  0  0  0  0  0999 V2000
  -24.8797  -35.9345   15.8629 C   0  0  0  0  0  0  0  0  0  0  0  0
  -25.2081  -34.5838   15.8052 C   0  0  0  0  0  0  0  0  0  0  0  0
  -23.8345   -9.1605   20.5886 C   0  0  0  0  0  0  0  0  0  0  0  0
  -23.3431  -11.0337   22.0333 C   0  0  0  0  0  0  0  0  0  0  0  0
  -30.5608  -18.9456   21.4071 C   0  0  0  0  0  0  0  0  0  0  0  0
  -25.0708  -36.6472   17.0459 C   0  0  0  0  0  0  0  0  0  0  0  0
  -25.7289  -33.9454   16.9301 C   0  0  0  0  0  0  0  0  0  0  0  0
  -24.7681  -28.1457   18.6467 C   0  0  0  0  0  0  0  0  0  0  0  0
  -30.5347  -17.5636   21.2198 C   0  0  0  0  0  0  0  0  0  0  0  0
  -23.1183   -8.3174   21.4382 C   0  0  0  0  0  0  0  0  0  0  0  0
  -22.6268  -10.1905   22.8828 C   0  0  0  0  0  0  0  0  0  0  0  0
  -25.5224  -26.9838   18.4896 C   0  0  0  0  0  0  0  0  0  0  0  0
  -19.8790   -7.5696   22.0550 C   0  0  0  0  0  0  0  0  0  0  0  0
  -18.9942   -6.6621   21.4728 C   0  0  0  0  0  0  0  0  0  0  0  0
  -26.4466  -27.2925   20.6963 C   0  0  0  0  0  0  0  0  0  0  0  0
  -28.5599  -17.4133   22.6036 C   0  0  0  0  0  0  0  0  0  0  0  0
  -20.2276   -4.8305   22.4531 C   0  0  0  0  0  0  0  0  0  0  0  0
  -23.9469  -10.5187   20.8862 C   0  0  0  0  0  0  0  0  0  0  0  0
  -29.5864  -19.5615   22.1926 C   0  0  0  0  0  0  0  0  0  0  0  0
  -24.1886  -12.1098   18.9069 C   0  0  0  0  0  0  0  0  0  0  0  0
  -25.5852  -36.0148   18.1888 C   0  0  0  0  0  0  0  0  0  0  0  0
  -24.8558  -28.8970   19.8275 C   0  0  0  0  0  0  0  0  0  0  0  0
  -25.9284  -34.6506   18.1291 C   0  0  0  0  0  0  0  0  0  0  0  0
  -25.6904  -28.4622   20.8670 C   0  0  0  0  0  0  0  0  0  0  0  0
  -28.5860  -18.7953   22.7908 C   0  0  0  0  0  0  0  0  0  0  0  0
  -29.5343  -16.7975   21.8181 C   0  0  0  0  0  0  0  0  0  0  0  0
  -22.5145   -8.8324   22.5853 C   0  0  0  0  0  0  0  0  0  0  0  0
  -26.3640  -26.5586   19.5133 C   0  0  0  0  0  0  0  0  0  0  0  0
  -20.9382   -7.1077   22.8363 C   0  0  0  0  0  0  0  0  0  0  0  0
  -19.1685   -5.2926   21.6718 C   0  0  0  0  0  0  0  0  0  0  0  0
  -21.1125   -5.7381   23.0354 C   0  0  0  0  0  0  0  0  0  0  0  0
  -24.6871  -11.3901   20.0093 C   0  0  0  0  0  0  0  0  0  0  0  0
  -25.2808  -12.7793   18.4116 C   0  0  0  0  0  0  0  0  0  0  0  0
  -29.6390  -21.0349   22.3754 C   0  0  0  0  0  0  0  0  0  0  0  0
  -22.8573  -12.1679   18.3778 C   0  0  0  0  0  0  0  0  0  0  0  0
  -25.7729  -31.8556   20.5409 C   0  0  0  0  0  0  0  0  0  0  0  0
  -28.6860  -23.7640   20.1355 C   0  0  0  0  0  0  0  0  0  0  0  0
  -24.7029  -31.0574   23.4972 C   0  0  0  0  0  0  0  0  0  0  0  0
  -23.9956  -28.5991   25.7564 C   0  0  0  0  0  0  0  0  0  0  0  0
  -30.4003  -14.6265   20.8782 C   0  0  0  0  0  0  0  0  0  0  0  0
  -25.8185  -36.8379   19.4308 C   0  0  0  0  0  0  0  0  0  0  0  0
  -24.0154  -30.1335   19.9920 C   0  0  0  0  0  0  0  0  0  0  0  0
  -25.8051  -29.2220   22.1624 C   0  0  0  0  0  0  0  0  0  0  0  0
  -26.0243  -35.9977   20.6886 C   0  0  0  0  0  0  0  0  0  0  0  0
  -30.0470  -12.4455   18.0861 C   0  0  0  0  0  0  0  0  0  0  0  0
  -27.0070  -34.8629   20.4176 C   0  0  0  0  0  0  0  0  0  0  0  0
  -28.5854  -11.9976   18.1586 C   0  0  0  0  0  0  0  0  0  0  0  0
  -30.6648  -12.5924   19.4756 C   0  0  0  0  0  0  0  0  0  0  0  0
  -28.4501  -12.9987   20.4752 C   0  0  0  0  0  0  0  0  0  0  0  0
  -26.4725  -33.9168   19.3356 C   0  0  1  0  0  0  0  0  0  0  0  0
  -24.5714  -31.0997   21.0334 C   0  0  1  0  0  0  0  0  0  0  0  0
  -27.7657  -12.8996   19.1021 C   0  0  2  0  0  0  0  0  0  0  0  0
  -27.5314  -19.4296   23.6379 C   0  0  0  0  0  0  0  0  0  0  0  0
  -23.1714  -28.2570   28.1018 C   0  0  0  0  0  0  0  0  0  0  0  0
  -27.4274  -31.9075   24.5762 C   0  0  0  0  0  0  0  0  0  0  0  0
  -26.8942  -30.6812   26.6928 C   0  0  0  0  0  0  0  0  0  0  0  0
  -25.4827  -32.6114   25.9822 C   0  0  0  0  0  0  0  0  0  0  0  0
  -33.0250  -23.8363   19.5996 C   0  0  0  0  0  0  0  0  0  0  0  0
  -21.6427  -27.0620   24.8290 C   0  0  0  0  0  0  0  0  0  0  0  0
  -27.9431  -25.0479   20.4515 C   0  0  0  0  0  0  0  0  0  1  0  0
  -31.0294  -23.7649   21.0999 C   0  0  0  0  0  0  0  0  0  0  0  0
  -29.6082  -23.2349   21.2286 C   0  0  2  0  0  0  0  0  0  0  0  0
  -25.3183  -30.4255   24.7224 C   0  0  1  0  0  0  0  0  0  0  0  0
  -22.7816  -28.3577   26.6353 C   0  0  2  0  0  0  0  0  0  0  0  0
  -26.2802  -31.3929   25.4683 C   0  0  0  0  0  0  0  0  0  0  0  0
  -25.9943  -11.5840   20.2033 N   0  0  0  0  0  0  0  0  0  0  0  0
  -26.3265  -12.4332   19.2160 N   0  0  0  0  0  0  0  0  0  0  0  0
  -24.9680  -30.4281   22.2727 N   0  0  0  0  0  0  0  0  0  0  0  0
  -29.8365  -13.4635   20.3122 N   0  0  0  0  0  0  0  0  0  0  0  0
  -25.4392  -13.6245   17.3709 N   0  0  0  0  0  0  0  0  0  0  0  0
  -21.8546  -11.4181   19.0078 N   0  0  0  0  0  0  0  0  0  0  0  0
  -29.5087  -15.3937   21.6273 N   0  0  0  0  0  0  0  0  0  0  0  0
  -29.5482  -21.7963   21.2176 N   0  0  0  0  0  0  0  0  0  0  0  0
  -25.4671  -33.0343   19.8876 N   0  0  0  0  0  0  0  0  0  0  0  0
  -24.2068  -29.9437   25.5352 N   0  0  0  0  0  0  0  0  0  0  0  0
  -31.6156  -23.3978   19.7859 N   0  3  0  0  0  0  0  0  0  0  0  0
  -22.1008  -27.0917   26.2419 N   0  3  0  0  0  0  0  0  0  0  0  0
  -29.7769  -21.4947   23.5059 O   0  0  0  0  0  0  0  0  0  0  0  0
  -22.5688  -12.8513   17.3663 O   0  0  0  0  0  0  0  0  0  0  0  0
  -26.8944  -31.4037   20.7401 O   0  0  0  0  0  0  0  0  0  0  0  0
  -28.5754  -23.2049   19.0442 O   0  0  0  0  0  0  0  0  0  0  0  0
  -24.0065  -32.0678   23.6230 O   0  0  0  0  0  0  0  0  0  0  0  0
  -24.6895  -27.6865   25.3136 O   0  0  0  0  0  0  0  0  0  0  0  0
  -31.5797  -14.9345   20.6883 O   0  0  0  0  0  0  0  0  0  0  0  0
  -21.8153   -8.0100   23.4144 O   0  0  0  0  0  0  0  0  0  0  0  0
  -27.1019  -25.4252   19.3623 O   0  0  0  0  0  0  0  0  0  1  0  0
  -18.3178   -4.4213   21.1138 F   0  0  0  0  0  0  0  0  0  0  0  0
  -22.1275   -5.2883   23.7859 F   0  0  0  0  0  0  0  0  0  0  0  0
  1  2  1  0  0  0  0
  1  6  2  0  0  0  0
  2  7  2  0  0  0  0
  3 10  2  0  0  0  0
  3 18  1  0  0  0  0
  4 11  1  0  0  0  0
  4 18  2  0  0  0  0
  5  9  2  0  0  0  0
  5 19  1  0  0  0  0
  6 21  1  0  0  0  0
  7 23  1  0  0  0  0
  8 12  2  0  0  0  0
  8 22  1  0  0  0  0
  9 26  1  0  0  0  0
 10 27  1  0  0  0  0
 11 27  2  0  0  0  0
 12 28  1  0  0  0  0
 13 14  2  0  0  0  0
 13 29  1  0  0  0  0
 14 30  1  0  0  0  0
 15 24  1  0  0  0  0
 15 28  2  0  0  0  0
 16 25  1  0  0  0  0
 16 26  2  0  0  0  0
 17 30  2  0  0  0  0
 17 31  1  0  0  0  0
 18 32  1  0  0  0  0
 19 25  2  0  0  0  0
 19 34  1  0  0  0  0
 20 32  1  0  0  0  0
 20 33  2  0  0  0  0
 20 35  1  0  0  0  0
 21 23  2  0  0  0  0
 21 41  1  0  0  0  0
 22 24  2  0  0  0  0
 22 42  1  0  0  0  0
 23 50  1  0  0  0  0
 24 43  1  0  0  0  0
 25 53  1  0  0  0  0
 26 72  1  0  0  0  0
 27 85  1  0  0  0  0
 28 86  1  0  0  0  0
 29 31  2  0  0  0  0
 29 85  1  0  0  0  0
 30 87  1  0  0  0  0
 31 88  1  0  0  0  0
 32 66  2  0  0  0  0
 33 67  1  0  0  0  0
 33 70  1  0  0  0  0
 34 73  1  0  0  0  0
 34 78  2  0  0  0  0
 35 71  1  0  0  0  0
 35 79  2  0  0  0  0
 36 51  1  0  0  0  0
 36 74  1  0  0  0  0
 36 80  2  0  0  0  0
 37 60  1  0  0  0  0
 37 62  1  0  0  0  0
 37 81  2  0  0  0  0
 38 63  1  0  0  0  0
 38 68  1  0  0  0  0
 38 82  2  0  0  0  0
 39 64  1  0  0  0  0
 39 75  1  0  0  0  0
 39 83  2  0  0  0  0
 40 69  1  0  0  0  0
 40 72  1  0  0  0  0
 40 84  2  0  0  0  0
 41 44  1  0  0  0  0
 42 51  1  0  0  0  0
 43 68  1  0  0  0  0
 44 46  1  0  0  0  0
 45 47  1  0  0  0  0
 45 48  1  0  0  0  0
 46 50  1  0  0  0  0
 47 52  1  0  0  0  0
 48 69  1  0  0  0  0
 49 52  1  0  0  0  0
 49 69  1  0  0  0  0
 50 74  1  0  0  0  0
 51 68  1  0  0  0  0
 52 67  1  0  0  0  0
 54 64  1  0  0  0  0
 55 65  1  0  0  0  0
 56 65  1  0  0  0  0
 57 65  1  0  0  0  0
 58 76  1  0  0  0  0
 59 77  1  0  0  0  0
 60 86  1  0  0  0  0
 61 62  1  0  0  0  0
 61 76  1  0  0  0  0
 62 73  1  0  0  0  0
 63 65  1  0  0  0  0
 63 75  1  0  0  0  0
 64 77  1  0  0  0  0
 66 67  1  0  0  0  0
M  CHG  2  76   1  77   1
M  ISO  4  40 100  60 101  72 100  86 101
M  END
> <Batch ID>
0050

> <Smiles>
CNCC(NC(=O)c1ccc([100NH:0][100C:0](=O)N2CCCC(n3nc(-c4ccc(Oc5ccc(F)cc5F)cc4)c(C(N)=O)c3N)C2)cc1C)C(=O)[101CH2:1][101O:1]c1ccc2c(c1)CN(C(=O)C(NC(=O)C(C)NC)C(C)(C)C)C(C(=O)NC1CCCc3ccccc31)C2

> <Shape>
0.285

> <Color>
0.131

> <Negative vol penalty>
0.000

$$$$

  -OEChem-04042322353D

 85 93  0     1  0  0  0  0  0999 V2000
  -17.8438  -26.1028   31.0626 C   0  0  0  0  0  0  0  0  0  0  0  0
  -18.3086  -25.2505   30.0662 C   0  0  0  0  0  0  0  0  0  0  0  0
  -23.0742   -9.8684   19.9419 C   0  0  0  0  0  0  0  0  0  0  0  0
  -23.8381   -9.8747   22.2339 C   0  0  0  0  0  0  0  0  0  0  0  0
  -18.6429  -27.1556   31.5065 C   0  0  0  0  0  0  0  0  0  0  0  0
  -19.5725  -25.4510   29.5123 C   0  0  0  0  0  0  0  0  0  0  0  0
  -23.4668  -21.1421   27.5698 C   0  0  0  0  0  0  0  0  0  0  0  0
  -31.5057  -18.4288   20.0474 C   0  0  0  0  0  0  0  0  0  0  0  0
  -22.3316   -8.7147   20.1925 C   0  0  0  0  0  0  0  0  0  0  0  0
  -23.0954   -8.7209   22.4846 C   0  0  0  0  0  0  0  0  0  0  0  0
  -23.7495  -20.6360   26.3018 C   0  0  0  0  0  0  0  0  0  0  0  0
  -19.8688   -7.9206   23.0922 C   0  0  0  0  0  0  0  0  0  0  0  0
  -19.1139   -7.8795   24.2643 C   0  0  0  0  0  0  0  0  0  0  0  0
  -31.2457  -19.4811   19.1696 C   0  0  0  0  0  0  0  0  0  0  0  0
  -25.6190  -22.1498   26.1210 C   0  0  0  0  0  0  0  0  0  0  0  0
  -29.2939  -18.6682   20.9896 C   0  0  0  0  0  0  0  0  0  0  0  0
  -20.3578   -5.9425   24.9976 C   0  0  0  0  0  0  0  0  0  0  0  0
  -23.8275  -10.4485   20.9626 C   0  0  0  0  0  0  0  0  0  0  0  0
  -24.1674  -12.9739   20.8433 C   0  0  0  0  0  0  0  0  0  0  0  0
  -19.9211  -27.3633   30.9646 C   0  0  0  0  0  0  0  0  0  0  0  0
  -24.2529  -22.1651   28.1193 C   0  0  0  0  0  0  0  0  0  0  0  0
  -20.3889  -26.5084   29.9485 C   0  0  0  0  0  0  0  0  0  0  0  0
  -25.3458  -22.6653   27.3972 C   0  0  0  0  0  0  0  0  0  0  0  0
  -30.5298  -18.0223   20.9574 C   0  0  0  0  0  0  0  0  0  0  0  0
  -29.0339  -19.7206   20.1119 C   0  0  0  0  0  0  0  0  0  0  0  0
  -22.3421   -8.1409   21.4638 C   0  0  0  0  0  0  0  0  0  0  0  0
  -24.8239  -21.1418   25.5760 C   0  0  0  0  0  0  0  0  0  0  0  0
  -20.8682   -6.9726   22.8727 C   0  0  0  0  0  0  0  0  0  0  0  0
  -19.3584   -6.8905   25.2171 C   0  0  0  0  0  0  0  0  0  0  0  0
  -21.1127   -5.9836   23.8254 C   0  0  0  0  0  0  0  0  0  0  0  0
  -30.0098  -20.1271   19.2018 C   0  0  0  0  0  0  0  0  0  0  0  0
  -24.5954  -11.6400   20.7042 C   0  0  0  0  0  0  0  0  0  0  0  0
  -25.2585  -13.7243   20.4786 C   0  0  0  0  0  0  0  0  0  0  0  0
  -22.8973  -13.4886   21.2647 C   0  0  0  0  0  0  0  0  0  0  0  0
  -23.7093  -25.1524   29.0599 C   0  0  0  0  0  0  0  0  0  0  0  0
  -26.7811  -24.9749   30.0868 C   0  0  0  0  0  0  0  0  0  0  0  0
  -26.3755  -20.5443   22.3016 C   0  0  0  0  0  0  0  0  0  0  0  0
  -29.8506  -23.5103   29.8036 C   0  0  0  0  0  0  0  0  0  0  0  0
  -30.7418  -14.7470   20.6581 C   0  0  0  0  0  0  0  0  0  0  0  0
  -20.7295  -28.5432   31.4433 C   0  0  0  0  0  0  0  0  0  0  0  0
  -23.9511  -22.6817   29.4994 C   0  0  0  0  0  0  0  0  0  0  0  0
  -26.2328  -23.7495   27.9507 C   0  0  0  0  0  0  0  0  0  0  0  0
  -22.2071  -28.4614   31.0687 C   0  0  0  0  0  0  0  0  0  0  0  0
  -29.6018  -12.3630   18.2720 C   0  0  0  0  0  0  0  0  0  0  0  0
  -22.3654  -28.0643   29.6045 C   0  0  0  0  0  0  0  0  0  0  0  0
  -28.1653  -12.0681   18.7073 C   0  0  0  0  0  0  0  0  0  0  0  0
  -30.5208  -12.5838   19.4715 C   0  0  0  0  0  0  0  0  0  0  0  0
  -28.6209  -13.3129   20.8617 C   0  0  0  0  0  0  0  0  0  0  0  0
  -21.7643  -26.6785   29.3405 C   0  0  1  0  0  0  0  0  0  0  0  0
  -24.5062  -24.0807   29.7484 C   0  0  1  0  0  0  0  0  0  0  0  0
  -27.6449  -13.1382   19.6856 C   0  0  2  0  0  0  0  0  0  0  0  0
  -32.1722  -23.6025   30.7518 C   0  0  0  0  0  0  0  0  0  0  0  0
  -27.3308  -27.5147   28.4876 C   0  0  0  0  0  0  0  0  0  0  0  0
  -29.7783  -27.0253   28.6842 C   0  0  0  0  0  0  0  0  0  0  0  0
  -28.4225  -27.4411   30.7365 C   0  0  0  0  0  0  0  0  0  0  0  0
  -28.3575  -22.0159   21.9035 C   0  0  0  0  0  0  0  0  0  0  0  0
  -29.6954  -20.7143   30.7612 C   0  0  0  0  0  0  0  0  0  0  0  0
  -30.8083  -16.8970   21.8960 C   0  0  0  0  0  0  0  0  0  0  0  0
  -27.6912  -20.3891   20.1778 C   0  0  0  0  0  0  0  0  0  0  0  0
  -26.2174  -21.2144   23.6502 C   0  0  0  0  0  0  0  0  0  1  0  0
  -28.1307  -25.2682   29.4774 C   0  0  1  0  0  0  0  0  0  0  0  0
  -30.8007  -22.9525   30.8479 C   0  0  2  0  0  0  0  0  0  0  0  0
  -28.3979  -26.7932   29.3349 C   0  0  0  0  0  0  0  0  0  0  0  0
  -25.8596  -11.5453   20.2837 N   0  0  0  0  0  0  0  0  0  0  0  0
  -26.2354  -12.8292   20.1554 N   0  0  0  0  0  0  0  0  0  0  0  0
  -25.8930  -24.2262   29.3016 N   0  0  0  0  0  0  0  0  0  0  0  0
  -29.9710  -13.6115   20.3589 N   0  0  0  0  0  0  0  0  0  0  0  0
  -25.4678  -15.0560   20.4059 N   0  0  0  0  0  0  0  0  0  0  0  0
  -21.8866  -12.5786   21.6032 N   0  0  0  0  0  0  0  0  0  0  0  0
  -22.6579  -25.6420   29.8112 N   0  0  0  0  0  0  0  0  0  0  0  0
  -29.1106  -24.5639   30.2973 N   0  0  0  0  0  0  0  0  0  0  0  0
  -30.1435  -15.6750   21.5017 N   0  0  0  0  0  0  0  0  0  0  0  0
  -27.4322  -20.9666   21.4942 N   0  0  0  0  0  0  0  0  0  0  0  0
  -30.9637  -21.4822   30.6672 N   0  3  0  0  0  0  0  0  0  0  0  0
  -22.6603  -14.7191   21.3231 O   0  0  0  0  0  0  0  0  0  0  0  0
  -24.0257  -25.5097   27.9313 O   0  0  0  0  0  0  0  0  0  0  0  0
  -26.5269  -25.3886   31.2208 O   0  0  0  0  0  0  0  0  0  0  0  0
  -25.5765  -19.6588   21.9819 O   0  0  0  0  0  0  0  0  0  0  0  0
  -29.7752  -23.0591   28.6629 O   0  0  0  0  0  0  0  0  0  0  0  0
  -31.8769  -14.9235   20.2027 O   0  0  0  0  0  0  0  0  0  0  0  0
  -21.6174   -7.0152   21.7088 O   0  0  0  0  0  0  0  0  0  0  0  0
  -25.1016  -20.6501   24.3379 O   0  0  0  0  0  0  0  0  0  1  0  0
  -18.6344   -6.8521   26.3434 F   0  0  0  0  0  0  0  0  0  0  0  0
  -22.0723   -5.0709   23.6207 F   0  0  0  0  0  0  0  0  0  0  0  0
  -29.7235  -21.4250   18.1007 Cl  0  0  0  0  0  0  0  0  0  0  0  0
  1  2  1  0  0  0  0
  1  5  2  0  0  0  0
  2  6  2  0  0  0  0
  3  9  2  0  0  0  0
  3 18  1  0  0  0  0
  4 10  1  0  0  0  0
  4 18  2  0  0  0  0
  5 20  1  0  0  0  0
  6 22  1  0  0  0  0
  7 11  2  0  0  0  0
  7 21  1  0  0  0  0
  8 14  2  0  0  0  0
  8 24  1  0  0  0  0
  9 26  1  0  0  0  0
 10 26  2  0  0  0  0
 11 27  1  0  0  0  0
 12 13  2  0  0  0  0
 12 28  1  0  0  0  0
 13 29  1  0  0  0  0
 14 31  1  0  0  0  0
 15 23  1  0  0  0  0
 15 27  2  0  0  0  0
 16 24  2  0  0  0  0
 16 25  1  0  0  0  0
 17 29  2  0  0  0  0
 17 30  1  0  0  0  0
 18 32  1  0  0  0  0
 19 32  1  0  0  0  0
 19 33  2  0  0  0  0
 19 34  1  0  0  0  0
 20 22  2  0  0  0  0
 20 40  1  0  0  0  0
 21 23  2  0  0  0  0
 21 41  1  0  0  0  0
 22 49  1  0  0  0  0
 23 42  1  0  0  0  0
 24 58  1  0  0  0  0
 25 31  2  0  0  0  0
 25 59  1  0  0  0  0
 26 81  1  0  0  0  0
 27 82  1  0  0  0  0
 28 30  2  0  0  0  0
 28 81  1  0  0  0  0
 29 83  1  0  0  0  0
 30 84  1  0  0  0  0
 31 85  1  0  0  0  0
 32 64  2  0  0  0  0
 33 65  1  0  0  0  0
 33 68  1  0  0  0  0
 34 69  1  0  0  0  0
 34 75  2  0  0  0  0
 35 50  1  0  0  0  0
 35 70  1  0  0  0  0
 35 76  2  0  0  0  0
 36 61  1  0  0  0  0
 36 66  1  0  0  0  0
 36 77  2  0  0  0  0
 37 60  1  0  0  0  0
 37 73  1  0  0  0  0
 37 78  2  0  0  0  0
 38 62  1  0  0  0  0
 38 71  1  0  0  0  0
 38 79  2  0  0  0  0
 39 67  1  0  0  0  0
 39 72  1  0  0  0  0
 39 80  2  0  0  0  0
 40 43  1  0  0  0  0
 41 50  1  0  0  0  0
 42 66  1  0  0  0  0
 43 45  1  0  0  0  0
 44 46  1  0  0  0  0
 44 47  1  0  0  0  0
 45 49  1  0  0  0  0
 46 51  1  0  0  0  0
 47 67  1  0  0  0  0
 48 51  1  0  0  0  0
 48 67  1  0  0  0  0
 49 70  1  0  0  0  0
 50 66  1  0  0  0  0
 51 65  1  0  0  0  0
 52 62  1  0  0  0  0
 53 63  1  0  0  0  0
 54 63  1  0  0  0  0
 55 63  1  0  0  0  0
 56 73  1  0  0  0  0
 57 74  1  0  0  0  0
 58 72  1  0  0  0  0
 59 73  1  0  0  0  0
 60 82  1  0  0  0  0
 61 63  1  0  0  0  0
 61 71  1  0  0  0  0
 62 74  1  0  0  0  0
 64 65  1  0  0  0  0
M  CHG  1  74   1
M  ISO  4  39 100  60 101  72 100  82 101
M  END
> <Batch ID>
0050

> <Smiles>
CNC(C)C(=O)NC(C(=O)N1Cc2cc([101O:1][101CH2:1]C(=O)N(C)Cc3cc(C[100NH:0][100C:0](=O)N4CCCC(n5nc(-c6ccc(Oc7ccc(F)cc7F)cc6)c(C(N)=O)c5N)C4)ccc3Cl)ccc2CC1C(=O)NC1CCCc2ccccc21)C(C)(C)C

> <Shape>
0.201

> <Color>
0.196

> <Negative vol penalty>
0.000

$$$$

  -OEChem-04042322353D

 88 97  0     1  0  0  0  0  0999 V2000
  -29.3088  -37.2754   24.6231 C   0  0  0  0  0  0  0  0  0  0  0  0
  -29.5471  -35.9477   24.2829 C   0  0  0  0  0  0  0  0  0  0  0  0
  -23.4448   -9.5344   20.3803 C   0  0  0  0  0  0  0  0  0  0  0  0
  -23.9045  -10.1024   22.6831 C   0  0  0  0  0  0  0  0  0  0  0  0
  -28.0778  -37.6452   25.1634 C   0  0  0  0  0  0  0  0  0  0  0  0
  -28.5549  -34.9887   24.4838 C   0  0  0  0  0  0  0  0  0  0  0  0
  -27.4081  -30.0903   20.9916 C   0  0  0  0  0  0  0  0  0  0  0  0
  -29.3450  -19.5348   23.2847 C   0  0  0  0  0  0  0  0  0  0  0  0
  -28.9709  -18.4176   22.5381 C   0  0  0  0  0  0  0  0  0  0  0  0
  -22.7982   -8.3706   20.7964 C   0  0  0  0  0  0  0  0  0  0  0  0
  -23.2579   -8.9386   23.0993 C   0  0  0  0  0  0  0  0  0  0  0  0
  -27.7646  -28.7479   21.1125 C   0  0  0  0  0  0  0  0  0  0  0  0
  -20.0791   -7.8749   23.5286 C   0  0  0  0  0  0  0  0  0  0  0  0
  -19.1887   -7.9769   24.5974 C   0  0  0  0  0  0  0  0  0  0  0  0
  -25.6358  -28.2821   22.1473 C   0  0  0  0  0  0  0  0  0  0  0  0
  -31.2879  -17.7538   22.3706 C   0  0  0  0  0  0  0  0  0  0  0  0
  -20.5203   -6.4029   25.8570 C   0  0  0  0  0  0  0  0  0  0  0  0
  -23.9980  -10.4003   21.3237 C   0  0  0  0  0  0  0  0  0  0  0  0
  -24.0901  -12.8713   20.6967 C   0  0  0  0  0  0  0  0  0  0  0  0
  -27.0666  -36.6920   25.3621 C   0  0  0  0  0  0  0  0  0  0  0  0
  -26.1651  -30.5415   21.4582 C   0  0  0  0  0  0  0  0  0  0  0  0
  -27.3098  -35.3459   25.0286 C   0  0  0  0  0  0  0  0  0  0  0  0
  -25.2649  -29.6303   22.0287 C   0  0  0  0  0  0  0  0  0  0  0  0
  -30.6905  -19.7616   23.5742 C   0  0  0  0  0  0  0  0  0  0  0  0
  -29.9423  -17.5270   22.0811 C   0  0  0  0  0  0  0  0  0  0  0  0
  -22.7047   -8.0727   22.1558 C   0  0  0  0  0  0  0  0  0  0  0  0
  -26.8796  -27.8441   21.6931 C   0  0  0  0  0  0  0  0  0  0  0  0
  -21.1901   -7.0369   23.6239 C   0  0  0  0  0  0  0  0  0  0  0  0
  -19.4093   -7.2409   25.7616 C   0  0  0  0  0  0  0  0  0  0  0  0
  -21.4107   -6.3009   24.7881 C   0  0  0  0  0  0  0  0  0  0  0  0
  -31.6620  -18.8711   23.1171 C   0  0  0  0  0  0  0  0  0  0  0  0
  -24.6665  -11.6023   20.8944 C   0  0  0  0  0  0  0  0  0  0  0  0
  -25.1362  -13.6646   20.2931 C   0  0  0  0  0  0  0  0  0  0  0  0
  -29.7819  -24.1433   22.6782 C   0  0  0  0  0  0  0  0  0  0  0  0
  -29.7880  -22.9354   23.5681 C   0  0  0  0  0  0  0  0  0  0  0  0
  -28.7534  -24.9983   22.7846 C   0  0  0  0  0  0  0  0  0  0  0  0
  -22.7306  -13.2952   20.8631 C   0  0  0  0  0  0  0  0  0  0  0  0
  -25.2191  -32.6187   23.6705 C   0  0  0  0  0  0  0  0  0  0  0  0
  -22.2807  -31.9849   22.4512 C   0  0  0  0  0  0  0  0  0  0  0  0
  -20.2509  -29.8273   20.7567 C   0  0  0  0  0  0  0  0  0  0  0  0
  -30.3996  -15.4112   20.7924 C   0  0  0  0  0  0  0  0  0  0  0  0
  -25.7690  -37.1310   25.9931 C   0  0  0  0  0  0  0  0  0  0  0  0
  -25.7848  -31.9877   21.2961 C   0  0  0  0  0  0  0  0  0  0  0  0
  -23.9102  -30.0602   22.5270 C   0  0  0  0  0  0  0  0  0  0  0  0
  -30.9147  -24.3854   21.7295 C   0  0  0  0  0  0  0  0  0  0  0  0
  -24.6377  -36.1198   25.8260 C   0  0  0  0  0  0  0  0  0  0  0  0
  -32.2270  -23.9481   22.3506 C   0  0  0  0  0  0  0  0  0  0  0  0
  -29.8476  -12.4460   18.9004 C   0  0  0  0  0  0  0  0  0  0  0  0
  -25.1257  -34.7131   26.1578 C   0  0  0  0  0  0  0  0  0  0  0  0
  -28.4030  -12.0665   19.2342 C   0  0  0  0  0  0  0  0  0  0  0  0
  -32.1331  -22.4869   22.7473 C   0  0  0  0  0  0  0  0  0  0  0  0
  -30.5753  -13.0280   20.1109 C   0  0  0  0  0  0  0  0  0  0  0  0
  -28.4449  -13.7683   21.1022 C   0  0  0  0  0  0  0  0  0  0  0  0
  -26.2498  -34.2809   25.2085 C   0  0  1  0  0  0  0  0  0  0  0  0
  -24.7007  -32.4336   22.2724 C   0  0  1  0  0  0  0  0  0  0  0  0
  -27.6515  -13.2377   19.8969 C   0  0  2  0  0  0  0  0  0  0  0  0
  -17.8898  -29.5688   19.9468 C   0  0  0  0  0  0  0  0  0  0  0  0
  -21.3799  -31.3329   25.2926 C   0  0  0  0  0  0  0  0  0  0  0  0
  -19.3711  -30.1979   24.3208 C   0  0  0  0  0  0  0  0  0  0  0  0
  -19.7248  -32.6388   23.9473 C   0  0  0  0  0  0  0  0  0  0  0  0
  -21.1136  -29.6846   17.9293 C   0  0  0  0  0  0  0  0  0  0  0  0
  -31.0513  -20.9755   24.3807 C   0  0  0  0  0  0  0  0  0  0  0  0
  -28.6131  -26.2392   21.9666 C   0  0  0  0  0  0  0  0  0  1  0  0
  -21.1977  -30.9742   22.7423 C   0  0  1  0  0  0  0  0  0  0  0  0
  -19.2920  -30.0445   19.6000 C   0  0  2  0  0  0  0  0  0  0  0  0
  -20.4446  -31.2779   24.0682 C   0  0  0  0  0  0  0  0  0  0  0  0
  -25.9771  -11.5856   20.6374 N   0  0  0  0  0  0  0  0  0  0  0  0
  -26.2329  -12.8539   20.2740 N   0  0  0  0  0  0  0  0  0  0  0  0
  -30.9737  -22.1977   23.5910 N   0  0  0  0  0  0  0  0  0  0  0  0
  -23.5872  -31.4859   22.3519 N   0  0  0  0  0  0  0  0  0  0  0  0
  -29.8069  -14.1354   20.6836 N   0  0  0  0  0  0  0  0  0  0  0  0
  -25.2158  -14.9694   19.9562 N   0  0  0  0  0  0  0  0  0  0  0  0
  -21.7833  -12.3519   21.2841 N   0  0  0  0  0  0  0  0  0  0  0  0
  -29.5622  -16.3927   21.3217 N   0  0  0  0  0  0  0  0  0  0  0  0
  -25.7053  -33.8865   23.9269 N   0  0  0  0  0  0  0  0  0  0  0  0
  -20.3407  -30.9429   21.5620 N   0  0  0  0  0  0  0  0  0  0  0  0
  -19.7565  -29.2999   18.3955 N   0  3  0  0  0  0  0  0  0  0  0  0
  -28.7891  -22.6454   24.2282 O   0  0  0  0  0  0  0  0  0  0  0  0
  -22.3634  -14.4716   20.6292 O   0  0  0  0  0  0  0  0  0  0  0  0
  -25.1795  -31.6812   24.4586 O   0  0  0  0  0  0  0  0  0  0  0  0
  -21.9777  -33.1722   22.3099 O   0  0  0  0  0  0  0  0  0  0  0  0
  -20.8565  -28.7721   20.9308 O   0  0  0  0  0  0  0  0  0  0  0  0
  -31.5552  -15.6241   20.4166 O   0  0  0  0  0  0  0  0  0  0  0  0
  -22.0736   -6.9374   22.5623 O   0  0  0  0  0  0  0  0  0  0  0  0
  -27.2253  -26.5334   21.8130 O   0  0  0  0  0  0  0  0  0  1  0  0
  -18.5550   -7.3401   26.7885 F   0  0  0  0  0  0  0  0  0  0  0  0
  -22.4770   -5.4951   24.8860 F   0  0  0  0  0  0  0  0  0  0  0  0
  -33.3363  -19.1197   23.4553 Cl  0  0  0  0  0  0  0  0  0  0  0  0
  1  2  1  0  0  0  0
  1  5  2  0  0  0  0
  2  6  2  0  0  0  0
  3 10  2  0  0  0  0
  3 18  1  0  0  0  0
  4 11  1  0  0  0  0
  4 18  2  0  0  0  0
  5 20  1  0  0  0  0
  6 22  1  0  0  0  0
  7 12  2  0  0  0  0
  7 21  1  0  0  0  0
  8  9  2  0  0  0  0
  8 24  1  0  0  0  0
  9 25  1  0  0  0  0
 10 26  1  0  0  0  0
 11 26  2  0  0  0  0
 12 27  1  0  0  0  0
 13 14  2  0  0  0  0
 13 28  1  0  0  0  0
 14 29  1  0  0  0  0
 15 23  1  0  0  0  0
 15 27  2  0  0  0  0
 16 25  2  0  0  0  0
 16 31  1  0  0  0  0
 17 29  2  0  0  0  0
 17 30  1  0  0  0  0
 18 32  1  0  0  0  0
 19 32  1  0  0  0  0
 19 33  2  0  0  0  0
 19 37  1  0  0  0  0
 20 22  2  0  0  0  0
 20 42  1  0  0  0  0
 21 23  2  0  0  0  0
 21 43  1  0  0  0  0
 22 54  1  0  0  0  0
 23 44  1  0  0  0  0
 24 31  2  0  0  0  0
 24 62  1  0  0  0  0
 25 74  1  0  0  0  0
 26 84  1  0  0  0  0
 27 85  1  0  0  0  0
 28 30  2  0  0  0  0
 28 84  1  0  0  0  0
 29 86  1  0  0  0  0
 30 87  1  0  0  0  0
 31 88  1  0  0  0  0
 32 67  2  0  0  0  0
 33 68  1  0  0  0  0
 33 72  1  0  0  0  0
 34 35  1  0  0  0  0
 34 36  2  0  0  0  0
 34 45  1  0  0  0  0
 35 69  1  0  0  0  0
 35 78  2  0  0  0  0
 36 63  1  0  0  0  0
 37 73  1  0  0  0  0
 37 79  2  0  0  0  0
 38 55  1  0  0  0  0
 38 75  1  0  0  0  0
 38 80  2  0  0  0  0
 39 64  1  0  0  0  0
 39 70  1  0  0  0  0
 39 81  2  0  0  0  0
 40 65  1  0  0  0  0
 40 76  1  0  0  0  0
 40 82  2  0  0  0  0
 41 71  1  0  0  0  0
 41 74  1  0  0  0  0
 41 83  2  0  0  0  0
 42 46  1  0  0  0  0
 43 55  1  0  0  0  0
 44 70  1  0  0  0  0
 45 47  1  0  0  0  0
 46 49  1  0  0  0  0
 47 51  1  0  0  0  0
 48 50  1  0  0  0  0
 48 52  1  0  0  0  0
 49 54  1  0  0  0  0
 50 56  1  0  0  0  0
 51 69  1  0  0  0  0
 52 71  1  0  0  0  0
 53 56  1  0  0  0  0
 53 71  1  0  0  0  0
 54 75  1  0  0  0  0
 55 70  1  0  0  0  0
 56 68  1  0  0  0  0
 57 65  1  0  0  0  0
 58 66  1  0  0  0  0
 59 66  1  0  0  0  0
 60 66  1  0  0  0  0
 61 77  1  0  0  0  0
 62 69  1  0  0  0  0
 63 85  1  0  0  0  0
 64 66  1  0  0  0  0
 64 76  1  0  0  0  0
 65 77  1  0  0  0  0
 67 68  1  0  0  0  0
M  CHG  1  77   1
M  ISO  4  41 100  63 101  74 100  85 101
M  END
> <Batch ID>
0050

> <Smiles>
CNC(C)C(=O)NC(C(=O)N1Cc2cc([101O:1][101CH2:1]C=C3CCCN(Cc4ccc([100NH:0][100C:0](=O)N5CCCC(n6nc(-c7ccc(Oc8ccc(F)cc8F)cc7)c(C(N)=O)c6N)C5)cc4Cl)C3=O)ccc2CC1C(=O)NC1CCCc2ccccc21)C(C)(C)C

> <Shape>
0.304

> <Color>
0.170

> <Negative vol penalty>
0.000

$$$$

  -OEChem-04042322353D

 85 93  0     1  0  0  0  0  0999 V2000
  -25.9184  -36.6639   25.1873 C   0  0  0  0  0  0  0  0  0  0  0  0
  -26.6863  -35.5925   24.7426 C   0  0  0  0  0  0  0  0  0  0  0  0
  -23.1208  -12.0921   23.1855 C   0  0  0  0  0  0  0  0  0  0  0  0
  -22.1894  -13.4509   21.4182 C   0  0  0  0  0  0  0  0  0  0  0  0
  -24.5583  -36.4882   25.4388 C   0  0  0  0  0  0  0  0  0  0  0  0
  -26.0948  -34.3445   24.5502 C   0  0  0  0  0  0  0  0  0  0  0  0
  -27.5130  -30.2221   20.2489 C   0  0  0  0  0  0  0  0  0  0  0  0
  -26.4121  -20.1769   16.8653 C   0  0  0  0  0  0  0  0  0  0  0  0
  -26.6880  -18.9338   17.4346 C   0  0  0  0  0  0  0  0  0  0  0  0
  -21.9185  -12.1805   23.8871 C   0  0  0  0  0  0  0  0  0  0  0  0
  -20.9871  -13.5394   22.1199 C   0  0  0  0  0  0  0  0  0  0  0  0
  -28.3052  -29.0752   20.2738 C   0  0  0  0  0  0  0  0  0  0  0  0
  -18.8604  -10.7421   23.7803 C   0  0  0  0  0  0  0  0  0  0  0  0
  -18.3496   -9.5716   24.3413 C   0  0  0  0  0  0  0  0  0  0  0  0
  -26.3380  -27.7320   20.6547 C   0  0  0  0  0  0  0  0  0  0  0  0
  -28.5509  -19.8967   18.6344 C   0  0  0  0  0  0  0  0  0  0  0  0
  -18.4620  -10.5748   26.5364 C   0  0  0  0  0  0  0  0  0  0  0  0
  -23.2562  -12.7273   21.9510 C   0  0  0  0  0  0  0  0  0  0  0  0
  -24.8617  -11.6582   20.2816 C   0  0  0  0  0  0  0  0  0  0  0  0
  -23.9478  -35.2399   25.2401 C   0  0  0  0  0  0  0  0  0  0  0  0
  -26.1263  -30.1336   20.4378 C   0  0  0  0  0  0  0  0  0  0  0  0
  -24.7256  -34.1517   24.8005 C   0  0  0  0  0  0  0  0  0  0  0  0
  -25.5301  -28.8790   20.6291 C   0  0  0  0  0  0  0  0  0  0  0  0
  -27.2056  -21.2800   17.1805 C   0  0  0  0  0  0  0  0  0  0  0  0
  -28.2750  -21.1398   18.0651 C   0  0  0  0  0  0  0  0  0  0  0  0
  -27.7574  -18.7937   18.3191 C   0  0  0  0  0  0  0  0  0  0  0  0
  -20.8517  -12.9042   23.3543 C   0  0  0  0  0  0  0  0  0  0  0  0
  -27.7182  -27.8302   20.4796 C   0  0  0  0  0  0  0  0  0  0  0  0
  -19.1720  -11.8289   24.5972 C   0  0  0  0  0  0  0  0  0  0  0  0
  -18.1504   -9.4880   25.7193 C   0  0  0  0  0  0  0  0  0  0  0  0
  -18.9728  -11.7453   25.9753 C   0  0  0  0  0  0  0  0  0  0  0  0
  -24.4981  -12.6368   21.2260 C   0  0  0  0  0  0  0  0  0  0  0  0
  -26.1281  -12.0151   19.8875 C   0  0  0  0  0  0  0  0  0  0  0  0
  -24.1210  -10.5276   19.8033 C   0  0  0  0  0  0  0  0  0  0  0  0
  -24.0799  -31.2589   22.5942 C   0  0  0  0  0  0  0  0  0  0  0  0
  -21.8702  -29.9889   20.5876 C   0  0  0  0  0  0  0  0  0  0  0  0
  -28.9176  -24.5692   19.4619 C   0  0  0  0  0  0  0  0  0  0  0  0
  -21.1364  -27.7134   18.1524 C   0  0  0  0  0  0  0  0  0  0  0  0
  -29.0594  -17.2213   19.7952 C   0  0  0  0  0  0  0  0  0  0  0  0
  -22.4842  -35.0867   25.5706 C   0  0  0  0  0  0  0  0  0  0  0  0
  -25.2824  -31.3774   20.3815 C   0  0  0  0  0  0  0  0  0  0  0  0
  -24.0434  -28.7279   20.8168 C   0  0  0  0  0  0  0  0  0  0  0  0
  -21.8559  -33.8256   24.9832 C   0  0  0  0  0  0  0  0  0  0  0  0
  -30.0558  -14.2461   21.4782 C   0  0  0  0  0  0  0  0  0  0  0  0
  -22.7508  -32.6162   25.2349 C   0  0  0  0  0  0  0  0  0  0  0  0
  -28.7783  -13.4042   21.5132 C   0  0  0  0  0  0  0  0  0  0  0  0
  -29.7596  -15.7339   21.6586 C   0  0  0  0  0  0  0  0  0  0  0  0
  -27.4799  -15.4417   20.7718 C   0  0  0  0  0  0  0  0  0  0  0  0
  -24.1151  -32.7887   24.5562 C   0  0  1  0  0  0  0  0  0  0  0  0
  -23.9443  -31.2245   21.0982 C   0  0  1  0  0  0  0  0  0  0  0  0
  -27.7213  -13.9428   20.5293 C   0  0  2  0  0  0  0  0  0  0  0  0
  -26.8912  -22.6006   16.5579 C   0  0  0  0  0  0  0  0  0  0  0  0
  -19.2365  -26.8869   16.7365 C   0  0  0  0  0  0  0  0  0  0  0  0
  -20.7420  -28.4790   22.9870 C   0  0  0  0  0  0  0  0  0  0  0  0
  -19.5145  -26.9947   21.3876 C   0  0  0  0  0  0  0  0  0  0  0  0
  -19.0159  -29.4380   21.4523 C   0  0  0  0  0  0  0  0  0  0  0  0
  -22.5178  -28.4762   15.6486 C   0  0  0  0  0  0  0  0  0  0  0  0
  -27.8833  -25.4940   20.0662 C   0  0  0  0  0  0  0  0  0  1  0  0
  -21.1975  -28.6443   20.4511 C   0  0  1  0  0  0  0  0  0  0  0  0
  -20.4062  -27.8544   16.8290 C   0  0  2  0  0  0  0  0  0  0  0  0
  -29.1456  -22.3191   18.4225 C   0  0  0  0  0  0  0  0  0  0  0  0
  -20.1458  -28.3917   21.5679 C   0  0  0  0  0  0  0  0  0  0  0  0
  -25.4561  -13.5470   21.4203 N   0  0  0  0  0  0  0  0  0  0  0  0
  -26.4343  -13.1417   20.5926 N   0  0  0  0  0  0  0  0  0  0  0  0
  -23.2616  -29.9741   20.7599 N   0  0  0  0  0  0  0  0  0  0  0  0
  -28.7532  -16.1743   20.6901 N   0  0  0  0  0  0  0  0  0  0  0  0
  -26.9986  -11.4720   19.0102 N   0  0  0  0  0  0  0  0  0  0  0  0
  -22.8342  -10.3076   20.3133 N   0  0  0  0  0  0  0  0  0  0  0  0
  -28.0369  -17.5314   18.8992 N   0  0  0  0  0  0  0  0  0  0  0  0
  -24.0098  -32.5279   23.1365 N   0  0  0  0  0  0  0  0  0  0  0  0
  -20.6555  -28.5946   19.0975 N   0  0  0  0  0  0  0  0  0  0  0  0
  -28.3545  -23.3746   19.0395 N   0  0  0  0  0  0  0  0  0  0  0  0
  -21.3329  -27.5812   15.6943 N   0  3  0  0  0  0  0  0  0  0  0  0
  -24.5927   -9.7266   18.9611 O   0  0  0  0  0  0  0  0  0  0  0  0
  -24.2351  -30.2114   23.2110 O   0  0  0  0  0  0  0  0  0  0  0  0
  -21.1872  -31.0148   20.5358 O   0  0  0  0  0  0  0  0  0  0  0  0
  -30.1053  -24.8673   19.3692 O   0  0  0  0  0  0  0  0  0  0  0  0
  -22.0403  -26.9000   18.3310 O   0  0  0  0  0  0  0  0  0  0  0  0
  -30.1584  -17.7817   19.8037 O   0  0  0  0  0  0  0  0  0  0  0  0
  -19.6783  -12.9905   24.0386 O   0  0  0  0  0  0  0  0  0  0  0  0
  -28.4892  -26.7091   20.5051 O   0  0  0  0  0  0  0  0  0  1  0  0
  -17.6585   -8.3645   26.2578 F   0  0  0  0  0  0  0  0  0  0  0  0
  -19.2692  -12.7865   26.7651 F   0  0  0  0  0  0  0  0  0  0  0  0
  -30.1493  -21.9708   19.2810 F   0  0  0  0  0  0  0  0  0  0  0  0
  -29.7797  -22.8352   17.3285 F   0  0  0  0  0  0  0  0  0  0  0  0
  1  2  1  0  0  0  0
  1  5  2  0  0  0  0
  2  6  2  0  0  0  0
  3 10  2  0  0  0  0
  3 18  1  0  0  0  0
  4 11  1  0  0  0  0
  4 18  2  0  0  0  0
  5 20  1  0  0  0  0
  6 22  1  0  0  0  0
  7 12  2  0  0  0  0
  7 21  1  0  0  0  0
  8  9  2  0  0  0  0
  8 24  1  0  0  0  0
  9 26  1  0  0  0  0
 10 27  1  0  0  0  0
 11 27  2  0  0  0  0
 12 28  1  0  0  0  0
 13 14  2  0  0  0  0
 13 29  1  0  0  0  0
 14 30  1  0  0  0  0
 15 23  1  0  0  0  0
 15 28  2  0  0  0  0
 16 25  1  0  0  0  0
 16 26  2  0  0  0  0
 17 30  2  0  0  0  0
 17 31  1  0  0  0  0
 18 32  1  0  0  0  0
 19 32  1  0  0  0  0
 19 33  2  0  0  0  0
 19 34  1  0  0  0  0
 20 22  2  0  0  0  0
 20 40  1  0  0  0  0
 21 23  2  0  0  0  0
 21 41  1  0  0  0  0
 22 49  1  0  0  0  0
 23 42  1  0  0  0  0
 24 25  2  0  0  0  0
 24 52  1  0  0  0  0
 25 61  1  0  0  0  0
 26 69  1  0  0  0  0
 27 80  1  0  0  0  0
 28 81  1  0  0  0  0
 29 31  2  0  0  0  0
 29 80  1  0  0  0  0
 30 82  1  0  0  0  0
 31 83  1  0  0  0  0
 32 63  2  0  0  0  0
 33 64  1  0  0  0  0
 33 67  1  0  0  0  0
 34 68  1  0  0  0  0
 34 74  2  0  0  0  0
 35 50  1  0  0  0  0
 35 70  1  0  0  0  0
 35 75  2  0  0  0  0
 36 59  1  0  0  0  0
 36 65  1  0  0  0  0
 36 76  2  0  0  0  0
 37 58  1  0  0  0  0
 37 72  1  0  0  0  0
 37 77  2  0  0  0  0
 38 60  1  0  0  0  0
 38 71  1  0  0  0  0
 38 78  2  0  0  0  0
 39 66  1  0  0  0  0
 39 69  1  0  0  0  0
 39 79  2  0  0  0  0
 40 43  1  0  0  0  0
 41 50  1  0  0  0  0
 42 65  1  0  0  0  0
 43 45  1  0  0  0  0
 44 46  1  0  0  0  0
 44 47  1  0  0  0  0
 45 49  1  0  0  0  0
 46 51  1  0  0  0  0
 47 66  1  0  0  0  0
 48 51  1  0  0  0  0
 48 66  1  0  0  0  0
 49 70  1  0  0  0  0
 50 65  1  0  0  0  0
 51 64  1  0  0  0  0
 53 60  1  0  0  0  0
 54 62  1  0  0  0  0
 55 62  1  0  0  0  0
 56 62  1  0  0  0  0
 57 73  1  0  0  0  0
 58 81  1  0  0  0  0
 59 62  1  0  0  0  0
 59 71  1  0  0  0  0
 60 73  1  0  0  0  0
 61 72  1  0  0  0  0
 61 84  1  0  0  0  0
 61 85  1  0  0  0  0
 63 64  1  0  0  0  0
M  CHG  1  73   1
M  ISO  4  39 100  58 101  69 100  81 101
M  END
> <Batch ID>
0050

> <Smiles>
CNC(C)C(=O)NC(C(=O)N1Cc2cc([101O:1][101CH2:1]C(=O)NC(F)(F)c3cc([100NH:0][100C:0](=O)N4CCCC(n5nc(-c6ccc(Oc7ccc(F)cc7F)cc6)c(C(N)=O)c5N)C4)ccc3C)ccc2CC1C(=O)NC1CCCc2ccccc21)C(C)(C)C

> <Shape>
0.287

> <Color>
0.087

> <Negative vol penalty>
0.000

$$$$

  -OEChem-04042322353D

 88 97  0     1  0  0  0  0  0999 V2000
  -20.8614  -29.4918   25.6831 C   0  0  0  0  0  0  0  0  0  0  0  0
  -21.9329  -28.8115   25.1135 C   0  0  0  0  0  0  0  0  0  0  0  0
  -27.5837  -13.8476   22.4519 C   0  0  0  0  0  0  0  0  0  0  0  0
  -26.8096  -13.8622   20.1633 C   0  0  0  0  0  0  0  0  0  0  0  0
  -19.6387  -29.5482   25.0154 C   0  0  0  0  0  0  0  0  0  0  0  0
  -21.7820  -28.1862   23.8763 C   0  0  0  0  0  0  0  0  0  0  0  0
  -25.6835  -29.0610   20.7685 C   0  0  0  0  0  0  0  0  0  0  0  0
  -33.3944  -23.3215   16.4872 C   0  0  0  0  0  0  0  0  0  0  0  0
  -33.0248  -22.0623   16.0145 C   0  0  0  0  0  0  0  0  0  0  0  0
  -26.7746  -12.7432   22.7186 C   0  0  0  0  0  0  0  0  0  0  0  0
  -26.0005  -12.7577   20.4300 C   0  0  0  0  0  0  0  0  0  0  0  0
  -26.8493  -28.3286   20.9884 C   0  0  0  0  0  0  0  0  0  0  0  0
  -23.5085  -12.1428   23.3481 C   0  0  0  0  0  0  0  0  0  0  0  0
  -22.7579  -12.1590   24.5236 C   0  0  0  0  0  0  0  0  0  0  0  0
  -26.2382  -26.8304   19.1992 C   0  0  0  0  0  0  0  0  0  0  0  0
  -31.4087  -23.3883   17.8619 C   0  0  0  0  0  0  0  0  0  0  0  0
  -23.8875  -10.1589   25.2725 C   0  0  0  0  0  0  0  0  0  0  0  0
  -27.6012  -14.4072   21.1743 C   0  0  0  0  0  0  0  0  0  0  0  0
  -29.7698  -15.5367   20.4470 C   0  0  0  0  0  0  0  0  0  0  0  0
  -19.4755  -28.9315   23.7650 C   0  0  0  0  0  0  0  0  0  0  0  0
  -24.7795  -28.6766   19.7679 C   0  0  0  0  0  0  0  0  0  0  0  0
  -20.5556  -28.2332   23.1919 C   0  0  0  0  0  0  0  0  0  0  0  0
  -25.0630  -27.5611   18.9669 C   0  0  0  0  0  0  0  0  0  0  0  0
  -32.5864  -23.9845   17.4110 C   0  0  0  0  0  0  0  0  0  0  0  0
  -31.8471  -21.4662   16.4654 C   0  0  0  0  0  0  0  0  0  0  0  0
  -31.0391  -22.1291   17.3891 C   0  0  0  0  0  0  0  0  0  0  0  0
  -25.9830  -12.1982   21.7076 C   0  0  0  0  0  0  0  0  0  0  0  0
  -27.1254  -27.2115   20.2056 C   0  0  0  0  0  0  0  0  0  0  0  0
  -24.4485  -11.1346   23.1347 C   0  0  0  0  0  0  0  0  0  0  0  0
  -22.9474  -11.1671   25.4858 C   0  0  0  0  0  0  0  0  0  0  0  0
  -24.6380  -10.1427   24.0968 C   0  0  0  0  0  0  0  0  0  0  0  0
  -28.4364  -15.5484   20.8983 C   0  0  0  0  0  0  0  0  0  0  0  0
  -30.1078  -16.8637   20.3403 C   0  0  0  0  0  0  0  0  0  0  0  0
  -31.5856  -26.0237   21.2760 C   0  0  0  0  0  0  0  0  0  0  0  0
  -30.6458  -26.5422   20.4721 C   0  0  0  0  0  0  0  0  0  0  0  0
  -31.0168  -26.3709   19.0836 C   0  0  0  0  0  0  0  0  0  0  0  0
  -32.6465  -25.4730   20.3997 C   0  0  0  0  0  0  0  0  0  0  0  0
  -30.3319  -26.7591   18.0024 C   0  0  0  0  0  0  0  0  0  0  0  0
  -30.6263  -14.4257   20.1507 C   0  0  0  0  0  0  0  0  0  0  0  0
  -21.7437  -27.7351   19.7288 C   0  0  0  0  0  0  0  0  0  0  0  0
  -22.1465  -27.8808   16.5134 C   0  0  0  0  0  0  0  0  0  0  0  0
  -24.2846  -27.7993   13.8547 C   0  0  0  0  0  0  0  0  0  0  0  0
  -28.9369  -22.0778   18.7764 C   0  0  0  0  0  0  0  0  0  0  0  0
  -18.1211  -28.9793   23.1032 C   0  0  0  0  0  0  0  0  0  0  0  0
  -23.5395  -29.4929   19.5257 C   0  0  0  0  0  0  0  0  0  0  0  0
  -24.1349  -27.1186   17.8663 C   0  0  0  0  0  0  0  0  0  0  0  0
  -18.1532  -28.6087   21.6227 C   0  0  0  0  0  0  0  0  0  0  0  0
  -27.6956  -21.0162   21.9402 C   0  0  0  0  0  0  0  0  0  0  0  0
  -18.9834  -27.3475   21.4059 C   0  0  0  0  0  0  0  0  0  0  0  0
  -27.8873  -19.4981   21.9140 C   0  0  0  0  0  0  0  0  0  0  0  0
  -27.2964  -21.5611   20.5700 C   0  0  0  0  0  0  0  0  0  0  0  0
  -28.3757  -19.6568   19.4395 C   0  0  0  0  0  0  0  0  0  0  0  0
  -20.4382  -27.5634   21.8400 C   0  0  1  0  0  0  0  0  0  0  0  0
  -22.4371  -28.7097   18.8194 C   0  0  1  0  0  0  0  0  0  0  0  0
  -28.8417  -19.0700   20.7820 C   0  0  2  0  0  0  0  0  0  0  0  0
  -31.4757  -20.1170   15.9412 C   0  0  0  0  0  0  0  0  0  0  0  0
  -30.7916  -26.5406   16.6000 C   0  0  0  0  0  0  0  0  0  0  0  0
  -24.3154  -27.9050   11.3476 C   0  0  0  0  0  0  0  0  0  0  0  0
  -21.1348  -25.0052   16.3820 C   0  0  0  0  0  0  0  0  0  0  0  0
  -22.0698  -24.8557   14.0644 C   0  0  0  0  0  0  0  0  0  0  0  0
  -20.2654  -26.5005   14.5757 C   0  0  0  0  0  0  0  0  0  0  0  0
  -25.9533  -30.2435   13.8626 C   0  0  0  0  0  0  0  0  0  0  0  0
  -32.9852  -25.3397   17.9194 C   0  0  0  0  0  0  0  0  0  0  0  0
  -29.3940  -27.2048   20.9192 C   0  0  0  0  0  0  0  0  0  1  0  0
  -22.6022  -26.9132   15.4481 C   0  0  1  0  0  0  0  0  0  0  0  0
  -24.4163  -28.7002   12.6400 C   0  0  2  0  0  0  0  0  0  0  0  0
  -21.5348  -25.8256   15.1395 C   0  0  0  0  0  0  0  0  0  0  0  0
  -27.9599  -16.7847   21.0669 N   0  0  0  0  0  0  0  0  0  0  0  0
  -28.9996  -17.5623   20.7197 N   0  0  0  0  0  0  0  0  0  0  0  0
  -32.2317  -25.7204   19.0946 N   0  0  0  0  0  0  0  0  0  0  0  0
  -22.9324  -27.9457   17.6726 N   0  0  0  0  0  0  0  0  0  0  0  0
  -28.2480  -21.1186   19.5485 N   0  0  0  0  0  0  0  0  0  0  0  0
  -31.2419  -17.4894   19.9599 N   0  0  0  0  0  0  0  0  0  0  0  0
  -30.1197  -13.1293   20.3145 N   0  0  0  0  0  0  0  0  0  0  0  0
  -29.8395  -21.5398   17.8597 N   0  0  0  0  0  0  0  0  0  0  0  0
  -21.1584  -28.3178   20.8366 N   0  0  0  0  0  0  0  0  0  0  0  0
  -22.9802  -27.7235   14.2953 N   0  0  0  0  0  0  0  0  0  0  0  0
  -25.7297  -29.4043   12.6573 N   0  3  0  0  0  0  0  0  0  0  0  0
  -33.6555  -24.9249   20.8090 O   0  0  0  0  0  0  0  0  0  0  0  0
  -31.8112  -14.5781   19.7681 O   0  0  0  0  0  0  0  0  0  0  0  0
  -21.7387  -26.5429   19.4455 O   0  0  0  0  0  0  0  0  0  0  0  0
  -21.1345  -28.5595   16.3209 O   0  0  0  0  0  0  0  0  0  0  0  0
  -25.2423  -27.2178   14.3597 O   0  0  0  0  0  0  0  0  0  0  0  0
  -28.7606  -23.2882   18.9370 O   0  0  0  0  0  0  0  0  0  0  0  0
  -25.1935  -11.1204   21.9674 O   0  0  0  0  0  0  0  0  0  0  0  0
  -28.2622  -26.4944   20.4185 O   0  0  0  0  0  0  0  0  0  1  0  0
  -22.2276  -11.1837   26.6154 F   0  0  0  0  0  0  0  0  0  0  0  0
  -25.5405   -9.1722   23.8980 F   0  0  0  0  0  0  0  0  0  0  0  0
  1  2  1  0  0  0  0
  1  5  2  0  0  0  0
  2  6  2  0  0  0  0
  3 10  2  0  0  0  0
  3 18  1  0  0  0  0
  4 11  1  0  0  0  0
  4 18  2  0  0  0  0
  5 20  1  0  0  0  0
  6 22  1  0  0  0  0
  7 12  2  0  0  0  0
  7 21  1  0  0  0  0
  8  9  2  0  0  0  0
  8 24  1  0  0  0  0
  9 25  1  0  0  0  0
 10 27  1  0  0  0  0
 11 27  2  0  0  0  0
 12 28  1  0  0  0  0
 13 14  2  0  0  0  0
 13 29  1  0  0  0  0
 14 30  1  0  0  0  0
 15 23  1  0  0  0  0
 15 28  2  0  0  0  0
 16 24  2  0  0  0  0
 16 26  1  0  0  0  0
 17 30  2  0  0  0  0
 17 31  1  0  0  0  0
 18 32  1  0  0  0  0
 19 32  1  0  0  0  0
 19 33  2  0  0  0  0
 19 39  1  0  0  0  0
 20 22  2  0  0  0  0
 20 44  1  0  0  0  0
 21 23  2  0  0  0  0
 21 45  1  0  0  0  0
 22 53  1  0  0  0  0
 23 46  1  0  0  0  0
 24 63  1  0  0  0  0
 25 26  2  0  0  0  0
 25 56  1  0  0  0  0
 26 75  1  0  0  0  0
 27 85  1  0  0  0  0
 28 86  1  0  0  0  0
 29 31  2  0  0  0  0
 29 85  1  0  0  0  0
 30 87  1  0  0  0  0
 31 88  1  0  0  0  0
 32 68  2  0  0  0  0
 33 69  1  0  0  0  0
 33 73  1  0  0  0  0
 34 35  2  0  0  0  0
 34 37  1  0  0  0  0
 35 36  1  0  0  0  0
 35 64  1  0  0  0  0
 36 38  2  0  0  0  0
 36 70  1  0  0  0  0
 37 70  1  0  0  0  0
 37 79  2  0  0  0  0
 38 57  1  0  0  0  0
 39 74  1  0  0  0  0
 39 80  2  0  0  0  0
 40 54  1  0  0  0  0
 40 76  1  0  0  0  0
 40 81  2  0  0  0  0
 41 65  1  0  0  0  0
 41 71  1  0  0  0  0
 41 82  2  0  0  0  0
 42 66  1  0  0  0  0
 42 77  1  0  0  0  0
 42 83  2  0  0  0  0
 43 72  1  0  0  0  0
 43 75  1  0  0  0  0
 43 84  2  0  0  0  0
 44 47  1  0  0  0  0
 45 54  1  0  0  0  0
 46 71  1  0  0  0  0
 47 49  1  0  0  0  0
 48 50  1  0  0  0  0
 48 51  1  0  0  0  0
 49 53  1  0  0  0  0
 50 55  1  0  0  0  0
 51 72  1  0  0  0  0
 52 55  1  0  0  0  0
 52 72  1  0  0  0  0
 53 76  1  0  0  0  0
 54 71  1  0  0  0  0
 55 69  1  0  0  0  0
 58 66  1  0  0  0  0
 59 67  1  0  0  0  0
 60 67  1  0  0  0  0
 61 67  1  0  0  0  0
 62 78  1  0  0  0  0
 63 70  1  0  0  0  0
 64 86  1  0  0  0  0
 65 67  1  0  0  0  0
 65 77  1  0  0  0  0
 66 78  1  0  0  0  0
 68 69  1  0  0  0  0
M  CHG  1  78   1
M  ISO  4  43 100  64 101  75 100  86 101
M  END
> <Batch ID>
0050

> <Smiles>
CC=C1C([101CH2:1][101O:1]c2ccc3c(c2)CN(C(=O)C(NC(=O)C(C)NC)C(C)(C)C)C(C(=O)NC2CCCc4ccccc42)C3)=CC(=O)N1Cc1ccc(C)c([100NH:0][100C:0](=O)N2CCCC(n3nc(-c4ccc(Oc5ccc(F)cc5F)cc4)c(C(N)=O)c3N)C2)c1

> <Shape>
0.240

> <Color>
0.089

> <Negative vol penalty>
0.000

$$$$

  -OEChem-04042322353D

 88 97  0     1  0  0  0  0  0999 V2000
  -27.7341  -35.1046   26.1132 C   0  0  0  0  0  0  0  0  0  0  0  0
  -28.1165  -33.8931   25.5463 C   0  0  0  0  0  0  0  0  0  0  0  0
  -22.0961  -10.5594   21.2950 C   0  0  0  0  0  0  0  0  0  0  0  0
  -23.9906   -9.6104   22.4556 C   0  0  0  0  0  0  0  0  0  0  0  0
  -26.3822  -35.3895   26.3003 C   0  0  0  0  0  0  0  0  0  0  0  0
  -27.1471  -32.9652   25.1672 C   0  0  0  0  0  0  0  0  0  0  0  0
  -27.3723  -29.1534   20.3791 C   0  0  0  0  0  0  0  0  0  0  0  0
  -33.4670  -19.5021   19.4055 C   0  0  0  0  0  0  0  0  0  0  0  0
  -21.6034   -9.2775   21.0509 C   0  0  0  0  0  0  0  0  0  0  0  0
  -23.4979   -8.3284   22.2115 C   0  0  0  0  0  0  0  0  0  0  0  0
  -27.7165  -27.8070   20.2675 C   0  0  0  0  0  0  0  0  0  0  0  0
  -21.1254   -6.2887   23.4886 C   0  0  0  0  0  0  0  0  0  0  0  0
  -21.1356   -5.3798   24.5467 C   0  0  0  0  0  0  0  0  0  0  0  0
  -32.8637  -20.4677   18.5998 C   0  0  0  0  0  0  0  0  0  0  0  0
  -25.3844  -27.2056   20.4048 C   0  0  0  0  0  0  0  0  0  0  0  0
  -22.5635   -3.9083   23.2689 C   0  0  0  0  0  0  0  0  0  0  0  0
  -23.2897  -10.7258   21.9973 C   0  0  0  0  0  0  0  0  0  0  0  0
  -23.5276  -12.8678   23.3622 C   0  0  0  0  0  0  0  0  0  0  0  0
  -25.3953  -34.4687   25.9145 C   0  0  0  0  0  0  0  0  0  0  0  0
  -26.0301  -29.5360   20.5157 C   0  0  0  0  0  0  0  0  0  0  0  0
  -25.7807  -33.2374   25.3506 C   0  0  0  0  0  0  0  0  0  0  0  0
  -25.0256  -28.5577   20.5155 C   0  0  0  0  0  0  0  0  0  0  0  0
  -32.7109  -18.8144   20.3548 C   0  0  0  0  0  0  0  0  0  0  0  0
  -31.3516  -19.0924   20.4984 C   0  0  0  0  0  0  0  0  0  0  0  0
  -30.7483  -20.0580   19.6927 C   0  0  0  0  0  0  0  0  0  0  0  0
  -22.3043   -8.1620   21.5092 C   0  0  0  0  0  0  0  0  0  0  0  0
  -26.7228  -26.8327   20.2832 C   0  0  0  0  0  0  0  0  0  0  0  0
  -21.8342   -6.0073   22.3207 C   0  0  0  0  0  0  0  0  0  0  0  0
  -21.8546   -4.1896   24.4368 C   0  0  0  0  0  0  0  0  0  0  0  0
  -22.5532   -4.8171   22.2108 C   0  0  0  0  0  0  0  0  0  0  0  0
  -31.5044  -20.7457   18.7434 C   0  0  0  0  0  0  0  0  0  0  0  0
  -23.7994  -12.0498   22.2492 C   0  0  0  0  0  0  0  0  0  0  0  0
  -24.2462  -14.0148   23.1290 C   0  0  0  0  0  0  0  0  0  0  0  0
  -28.3296  -22.6762   20.0583 C   0  0  0  0  0  0  0  0  0  0  0  0
  -22.6997  -12.6135   24.5048 C   0  0  0  0  0  0  0  0  0  0  0  0
  -24.3431  -31.0422   22.7493 C   0  0  0  0  0  0  0  0  0  0  0  0
  -21.9863  -30.8796   20.5264 C   0  0  0  0  0  0  0  0  0  0  0  0
  -20.6959  -29.3158   17.7811 C   0  0  0  0  0  0  0  0  0  0  0  0
  -28.9017  -16.4993   21.6795 C   0  0  0  0  0  0  0  0  0  0  0  0
  -23.9485  -34.8013   26.1802 C   0  0  0  0  0  0  0  0  0  0  0  0
  -25.6732  -30.9942   20.6082 C   0  0  0  0  0  0  0  0  0  0  0  0
  -23.5683  -28.9174   20.6394 C   0  0  0  0  0  0  0  0  0  0  0  0
  -22.9694  -33.9214   25.4072 C   0  0  0  0  0  0  0  0  0  0  0  0
  -26.6665  -15.5997   18.9790 C   0  0  0  0  0  0  0  0  0  0  0  0
  -23.3714  -32.4539   25.5143 C   0  0  0  0  0  0  0  0  0  0  0  0
  -25.6940  -14.6572   19.6904 C   0  0  0  0  0  0  0  0  0  0  0  0
  -29.4023  -23.2974   22.0965 C   0  0  0  0  0  0  0  0  0  0  0  0
  -28.0904  -15.4181   19.4964 C   0  0  0  0  0  0  0  0  0  0  0  0
  -29.5065  -21.7951   21.9123 C   0  0  0  0  0  0  0  0  0  0  0  0
  -27.2645  -14.6386   21.6837 C   0  0  0  0  0  0  0  0  0  0  0  0
  -24.7578  -32.2157   24.9038 C   0  0  1  0  0  0  0  0  0  0  0  0
  -28.2407  -23.6934   21.1821 C   0  0  1  0  0  0  0  0  0  0  0  0
  -24.3153  -31.2369   21.2597 C   0  0  1  0  0  0  0  0  0  0  0  0
  -25.8039  -14.7894   21.2210 C   0  0  2  0  0  0  0  0  0  0  0  0
  -33.3820  -17.7842   21.2030 C   0  0  0  0  0  0  0  0  0  0  0  0
  -18.7381  -29.3855   16.2128 C   0  0  0  0  0  0  0  0  0  0  0  0
  -20.2323  -29.5871   22.6625 C   0  0  0  0  0  0  0  0  0  0  0  0
  -18.6906  -28.8316   20.8402 C   0  0  0  0  0  0  0  0  0  0  0  0
  -19.0613  -31.2678   21.2277 C   0  0  0  0  0  0  0  0  0  0  0  0
  -22.4371  -29.8380   15.4457 C   0  0  0  0  0  0  0  0  0  0  0  0
  -29.2844  -20.3476   19.8581 C   0  0  0  0  0  0  0  0  0  0  0  0
  -30.5439  -18.3524   21.5177 C   0  0  0  0  0  0  0  0  0  0  0  0
  -28.3275  -25.1254   20.6906 C   0  0  0  0  0  0  0  0  0  1  0  0
  -20.9035  -29.8838   20.1871 C   0  0  1  0  0  0  0  0  0  0  0  0
  -20.1593  -29.8617   16.4702 C   0  0  2  0  0  0  0  0  0  0  0  0
  -19.7494  -29.8853   21.2290 C   0  0  0  0  0  0  0  0  0  0  0  0
  -24.6260  -12.6281   21.3739 N   0  0  0  0  0  0  0  0  0  0  0  0
  -24.8798  -13.8218   21.9367 N   0  0  0  0  0  0  0  0  0  0  0  0
  -29.0545  -21.5942   20.5553 N   0  0  0  0  0  0  0  0  0  0  0  0
  -23.2705  -30.3562   20.7334 N   0  0  0  0  0  0  0  0  0  0  0  0
  -28.1290  -15.5747   20.9573 N   0  0  0  0  0  0  0  0  0  0  0  0
  -24.3915  -15.1597   23.8294 N   0  0  0  0  0  0  0  0  0  0  0  0
  -22.0327  -11.3835   24.5862 N   0  0  0  0  0  0  0  0  0  0  0  0
  -24.6747  -32.1803   23.4594 N   0  0  0  0  0  0  0  0  0  0  0  0
  -20.4795  -30.1901   18.8252 N   0  0  0  0  0  0  0  0  0  0  0  0
  -29.6982  -17.3449   20.9171 N   0  0  0  0  0  0  0  0  0  0  0  0
  -21.0165  -29.4180   15.3348 N   0  3  0  0  0  0  0  0  0  0  0  0
  -27.8107  -22.7916   18.9579 O   0  0  0  0  0  0  0  0  0  0  0  0
  -22.5426  -13.4587   25.4184 O   0  0  0  0  0  0  0  0  0  0  0  0
  -24.0816  -29.9412   23.2197 O   0  0  0  0  0  0  0  0  0  0  0  0
  -21.7046  -32.0784   20.5978 O   0  0  0  0  0  0  0  0  0  0  0  0
  -21.2482  -28.2215   17.8708 O   0  0  0  0  0  0  0  0  0  0  0  0
  -28.8793  -16.5699   22.9130 O   0  0  0  0  0  0  0  0  0  0  0  0
  -21.8237   -6.9110   21.2714 O   0  0  0  0  0  0  0  0  0  0  0  0
  -27.0561  -25.5178   20.1750 O   0  0  0  0  0  0  0  0  0  1  0  0
  -21.8656   -3.3177   25.4536 F   0  0  0  0  0  0  0  0  0  0  0  0
  -23.2371   -4.5418   21.0917 F   0  0  0  0  0  0  0  0  0  0  0  0
  -30.7954  -21.9479   17.7270 Cl  0  0  0  0  0  0  0  0  0  0  0  0
  1  2  1  0  0  0  0
  1  5  2  0  0  0  0
  2  6  2  0  0  0  0
  3  9  2  0  0  0  0
  3 17  1  0  0  0  0
  4 10  1  0  0  0  0
  4 17  2  0  0  0  0
  5 19  1  0  0  0  0
  6 21  1  0  0  0  0
  7 11  2  0  0  0  0
  7 20  1  0  0  0  0
  8 14  1  0  0  0  0
  8 23  2  0  0  0  0
  9 26  1  0  0  0  0
 10 26  2  0  0  0  0
 11 27  1  0  0  0  0
 12 13  2  0  0  0  0
 12 28  1  0  0  0  0
 13 29  1  0  0  0  0
 14 31  2  0  0  0  0
 15 22  1  0  0  0  0
 15 27  2  0  0  0  0
 16 29  2  0  0  0  0
 16 30  1  0  0  0  0
 17 32  1  0  0  0  0
 18 32  1  0  0  0  0
 18 33  2  0  0  0  0
 18 35  1  0  0  0  0
 19 21  2  0  0  0  0
 19 40  1  0  0  0  0
 20 22  2  0  0  0  0
 20 41  1  0  0  0  0
 21 51  1  0  0  0  0
 22 42  1  0  0  0  0
 23 24  1  0  0  0  0
 23 55  1  0  0  0  0
 24 25  2  0  0  0  0
 24 62  1  0  0  0  0
 25 31  1  0  0  0  0
 25 61  1  0  0  0  0
 26 84  1  0  0  0  0
 27 85  1  0  0  0  0
 28 30  2  0  0  0  0
 28 84  1  0  0  0  0
 29 86  1  0  0  0  0
 30 87  1  0  0  0  0
 31 88  1  0  0  0  0
 32 67  2  0  0  0  0
 33 68  1  0  0  0  0
 33 72  1  0  0  0  0
 34 52  1  0  0  0  0
 34 69  1  0  0  0  0
 34 78  2  0  0  0  0
 35 73  1  0  0  0  0
 35 79  2  0  0  0  0
 36 53  1  0  0  0  0
 36 74  1  0  0  0  0
 36 80  2  0  0  0  0
 37 64  1  0  0  0  0
 37 70  1  0  0  0  0
 37 81  2  0  0  0  0
 38 65  1  0  0  0  0
 38 75  1  0  0  0  0
 38 82  2  0  0  0  0
 39 71  1  0  0  0  0
 39 76  1  0  0  0  0
 39 83  2  0  0  0  0
 40 43  1  0  0  0  0
 41 53  1  0  0  0  0
 42 70  1  0  0  0  0
 43 45  1  0  0  0  0
 44 46  1  0  0  0  0
 44 48  1  0  0  0  0
 45 51  1  0  0  0  0
 46 54  1  0  0  0  0
 47 49  1  0  0  0  0
 47 52  1  0  0  0  0
 48 71  1  0  0  0  0
 49 69  1  0  0  0  0
 50 54  1  0  0  0  0
 50 71  1  0  0  0  0
 51 74  1  0  0  0  0
 52 63  1  0  0  0  0
 53 70  1  0  0  0  0
 54 68  1  0  0  0  0
 56 65  1  0  0  0  0
 57 66  1  0  0  0  0
 58 66  1  0  0  0  0
 59 66  1  0  0  0  0
 60 77  1  0  0  0  0
 61 69  1  0  0  0  0
 62 76  1  0  0  0  0
 63 85  1  0  0  0  0
 64 66  1  0  0  0  0
 64 75  1  0  0  0  0
 65 77  1  0  0  0  0
 67 68  1  0  0  0  0
M  CHG  1  77   1
M  ISO  4  39 100  63 101  76 100  85 101
M  END
> <Batch ID>
0050

> <Smiles>
CNC(C)C(=O)NC(C(=O)N1Cc2cc([101O:1][101CH2:1]C3CCN(Cc4c(Cl)ccc(C)c4C[100NH:0][100C:0](=O)N4CCCC(n5nc(-c6ccc(Oc7ccc(F)cc7F)cc6)c(C(N)=O)c5N)C4)C3=O)ccc2CC1C(=O)NC1CCCc2ccccc21)C(C)(C)C

> <Shape>
0.289

> <Color>
0.092

> <Negative vol penalty>
0.000

$$$$

  -OEChem-04042322353D

 96105  0     1  0  0  0  0  0999 V2000
  -26.6435  -37.9398   23.0832 C   0  0  0  0  0  0  0  0  0  0  0  0
  -27.1625  -37.0784   22.1219 C   0  0  0  0  0  0  0  0  0  0  0  0
  -22.3441  -15.0639   19.9506 C   0  0  0  0  0  0  0  0  0  0  0  0
  -23.0356  -15.8694   22.1208 C   0  0  0  0  0  0  0  0  0  0  0  0
  -28.8544  -20.0959   20.4759 C   0  0  0  0  0  0  0  0  0  0  0  0
  -26.0817  -37.4233   24.2499 C   0  0  0  0  0  0  0  0  0  0  0  0
  -27.1208  -35.6998   22.3273 C   0  0  0  0  0  0  0  0  0  0  0  0
  -26.4565  -29.5376   18.7355 C   0  0  0  0  0  0  0  0  0  0  0  0
  -29.0880  -21.2049   19.6628 C   0  0  0  0  0  0  0  0  0  0  0  0
  -32.7967  -13.8757   26.0977 C   0  0  0  0  0  0  0  0  0  0  0  0
  -31.5986  -14.5897   26.0794 C   0  0  0  0  0  0  0  0  0  0  0  0
  -21.0482  -14.8788   20.4322 C   0  0  0  0  0  0  0  0  0  0  0  0
  -21.7397  -15.6844   22.6024 C   0  0  0  0  0  0  0  0  0  0  0  0
  -27.0886  -28.3038   18.5872 C   0  0  0  0  0  0  0  0  0  0  0  0
  -18.3368  -16.7904   21.0853 C   0  0  0  0  0  0  0  0  0  0  0  0
  -17.2800  -17.2303   20.2882 C   0  0  0  0  0  0  0  0  0  0  0  0
  -26.0224  -27.5219   20.6049 C   0  0  0  0  0  0  0  0  0  0  0  0
  -27.6658  -22.5456   21.0830 C   0  0  0  0  0  0  0  0  0  0  0  0
  -32.2387  -12.8847   23.9661 C   0  0  0  0  0  0  0  0  0  0  0  0
  -16.4138  -14.9769   20.1930 C   0  0  0  0  0  0  0  0  0  0  0  0
  -23.3379  -15.5592   20.7949 C   0  0  0  0  0  0  0  0  0  0  0  0
  -28.0264  -20.2117   21.5925 C   0  0  0  0  0  0  0  0  0  0  0  0
  -25.2043  -16.9100   19.6998 C   0  0  0  0  0  0  0  0  0  0  0  0
  -26.0244  -36.0373   24.4655 C   0  0  0  0  0  0  0  0  0  0  0  0
  -25.6097  -29.7768   19.8273 C   0  0  0  0  0  0  0  0  0  0  0  0
  -26.5588  -35.1643   23.4987 C   0  0  0  0  0  0  0  0  0  0  0  0
  -25.3788  -28.7587   20.7634 C   0  0  0  0  0  0  0  0  0  0  0  0
  -28.4938  -22.4298   19.9664 C   0  0  0  0  0  0  0  0  0  0  0  0
  -33.1168  -13.0233   25.0410 C   0  0  0  0  0  0  0  0  0  0  0  0
  -30.7205  -14.4512   25.0045 C   0  0  0  0  0  0  0  0  0  0  0  0
  -27.4322  -21.4366   21.8960 C   0  0  0  0  0  0  0  0  0  0  0  0
  -31.0405  -13.5987   23.9479 C   0  0  0  0  0  0  0  0  0  0  0  0
  -20.7460  -15.1890   21.7581 C   0  0  0  0  0  0  0  0  0  0  0  0
  -26.8739  -27.2967   19.5236 C   0  0  0  0  0  0  0  0  0  0  0  0
  -18.4321  -15.4437   21.4362 C   0  0  0  0  0  0  0  0  0  0  0  0
  -16.3185  -16.3235   19.8421 C   0  0  0  0  0  0  0  0  0  0  0  0
  -17.4707  -14.5370   20.9901 C   0  0  0  0  0  0  0  0  0  0  0  0
  -24.6769  -15.7500   20.2982 C   0  0  0  0  0  0  0  0  0  0  0  0
  -26.5060  -16.5839   19.4071 C   0  0  0  0  0  0  0  0  0  0  0  0
  -27.8019  -19.0349   22.4217 C   0  0  0  0  0  0  0  0  0  0  0  0
  -28.6940  -18.0398   22.6175 C   0  0  0  0  0  0  0  0  0  0  0  0
  -24.5739  -18.1698   19.4326 C   0  0  0  0  0  0  0  0  0  0  0  0
  -28.3580  -16.8847   23.4979 C   0  0  0  0  0  0  0  0  0  0  0  0
  -25.6231  -31.8062   22.2738 C   0  0  0  0  0  0  0  0  0  0  0  0
  -22.7024  -30.5191   22.8529 C   0  0  0  0  0  0  0  0  0  0  0  0
  -20.5733  -27.8788   22.4754 C   0  0  0  0  0  0  0  0  0  0  0  0
  -30.3456  -12.6361   21.7259 C   0  0  0  0  0  0  0  0  0  0  0  0
  -28.7555  -25.9764   20.0020 C   0  0  0  0  0  0  0  0  0  1  0  0
  -25.4501  -35.5276   25.7636 C   0  0  0  0  0  0  0  0  0  0  0  0
  -24.9144  -31.1042   19.9584 C   0  0  0  0  0  0  0  0  0  0  0  0
  -24.4630  -28.9582   21.9424 C   0  0  0  0  0  0  0  0  0  0  0  0
  -25.1065  -34.0405   25.7354 C   0  0  0  0  0  0  0  0  0  0  0  0
  -29.2748  -12.8262   18.3356 C   0  0  0  0  0  0  0  0  0  0  0  0
  -26.2523  -33.2393   25.1255 C   0  0  0  0  0  0  0  0  0  0  0  0
  -28.0256  -13.7081   18.3989 C   0  0  0  0  0  0  0  0  0  0  0  0
  -29.3840  -11.9095   19.5528 C   0  0  0  0  0  0  0  0  0  0  0  0
  -28.0522  -13.4716   20.9149 C   0  0  0  0  0  0  0  0  0  0  0  0
  -26.5097  -33.6620   23.6741 C   0  0  1  0  0  0  0  0  0  0  0  0
  -24.4763  -31.4106   21.3872 C   0  0  1  0  0  0  0  0  0  0  0  0
  -27.9329  -14.4584   19.7420 C   0  0  2  0  0  0  0  0  0  0  0  0
  -34.3982  -12.2604   25.0613 C   0  0  0  0  0  0  0  0  0  0  0  0
  -26.5391  -21.5974   23.0841 C   0  0  0  0  0  0  0  0  0  0  0  0
  -18.2675  -27.1038   23.0920 C   0  0  0  0  0  0  0  0  0  0  0  0
  -23.6587  -29.9403   25.6919 C   0  0  0  0  0  0  0  0  0  0  0  0
  -21.7310  -28.3629   25.9451 C   0  0  0  0  0  0  0  0  0  0  0  0
  -21.3109  -30.7873   25.5344 C   0  0  0  0  0  0  0  0  0  0  0  0
  -30.6628  -24.4546   20.4157 C   0  0  0  0  0  0  0  0  0  0  0  0
  -19.7574  -27.6745   19.6379 C   0  0  0  0  0  0  0  0  0  0  0  0
  -28.7462  -23.6242   19.0925 C   0  0  0  0  0  0  0  0  0  0  0  0
  -29.4377  -15.2313   25.0122 C   0  0  0  0  0  0  0  0  0  0  0  0
  -22.1907  -29.3456   23.6530 C   0  0  1  0  0  0  0  0  0  0  0  0
  -19.1181  -27.8113   22.0486 C   0  0  2  0  0  0  0  0  0  0  0  0
  -22.2417  -29.6056   25.1850 C   0  0  0  0  0  0  0  0  0  0  0  0
  -25.5705  -14.7608   20.3812 N   0  0  0  0  0  0  0  0  0  0  0  0
  -26.6725  -15.2983   19.8311 N   0  0  0  0  0  0  0  0  0  0  0  0
  -23.8113  -30.2754   22.0303 N   0  0  0  0  0  0  0  0  0  0  0  0
  -29.2924  -12.6901   20.7886 N   0  0  0  0  0  0  0  0  0  0  0  0
  -27.5129  -17.2742   18.8308 N   0  0  0  0  0  0  0  0  0  0  0  0
  -23.2311  -18.3358   19.7980 N   0  0  0  0  0  0  0  0  0  0  0  0
  -30.1619  -13.4451   22.8468 N   0  0  0  0  0  0  0  0  0  0  0  0
  -29.4843  -16.3580   24.1072 N   0  0  0  0  0  0  0  0  0  0  0  0
  -25.5173  -33.0815   22.7951 N   0  0  0  0  0  0  0  0  0  0  0  0
  -20.8565  -29.0529   23.1406 N   0  0  0  0  0  0  0  0  0  0  0  0
  -29.3560  -24.7238   19.8333 N   0  0  0  0  0  0  0  0  0  0  0  0
  -18.9900  -27.0744   20.7595 N   0  3  0  0  0  0  0  0  0  0  0  0
  -25.1787  -19.1145   18.8710 O   0  0  0  0  0  0  0  0  0  0  0  0
  -27.2100  -16.4771   23.6418 O   0  0  0  0  0  0  0  0  0  0  0  0
  -26.5356  -31.0125   22.4715 O   0  0  0  0  0  0  0  0  0  0  0  0
  -22.1345  -31.6100   22.9487 O   0  0  0  0  0  0  0  0  0  0  0  0
  -21.3774  -26.9783   22.2453 O   0  0  0  0  0  0  0  0  0  0  0  0
  -31.3498  -11.9455   21.5346 O   0  0  0  0  0  0  0  0  0  0  0  0
  -29.2610  -26.9078   20.6274 O   0  0  0  0  0  0  0  0  0  0  0  0
  -19.4815  -15.0087   22.2283 O   0  0  0  0  0  0  0  0  0  0  0  0
  -27.4901  -26.0917   19.3816 O   0  0  0  0  0  0  0  0  0  1  0  0
  -15.3029  -16.7463   19.0779 F   0  0  0  0  0  0  0  0  0  0  0  0
  -17.5563  -13.2423   21.3250 F   0  0  0  0  0  0  0  0  0  0  0  0
  1  2  1  0  0  0  0
  1  6  2  0  0  0  0
  2  7  2  0  0  0  0
  3 12  2  0  0  0  0
  3 21  1  0  0  0  0
  4 13  1  0  0  0  0
  4 21  2  0  0  0  0
  5  9  2  0  0  0  0
  5 22  1  0  0  0  0
  6 24  1  0  0  0  0
  7 26  1  0  0  0  0
  8 14  2  0  0  0  0
  8 25  1  0  0  0  0
  9 28  1  0  0  0  0
 10 11  2  0  0  0  0
 10 29  1  0  0  0  0
 11 30  1  0  0  0  0
 12 33  1  0  0  0  0
 13 33  2  0  0  0  0
 14 34  1  0  0  0  0
 15 16  2  0  0  0  0
 15 35  1  0  0  0  0
 16 36  1  0  0  0  0
 17 27  1  0  0  0  0
 17 34  2  0  0  0  0
 18 28  2  0  0  0  0
 18 31  1  0  0  0  0
 19 29  2  0  0  0  0
 19 32  1  0  0  0  0
 20 36  2  0  0  0  0
 20 37  1  0  0  0  0
 21 38  1  0  0  0  0
 22 31  2  0  0  0  0
 22 40  1  0  0  0  0
 23 38  1  0  0  0  0
 23 39  2  0  0  0  0
 23 42  1  0  0  0  0
 24 26  2  0  0  0  0
 24 49  1  0  0  0  0
 25 27  2  0  0  0  0
 25 50  1  0  0  0  0
 26 58  1  0  0  0  0
 27 51  1  0  0  0  0
 28 69  1  0  0  0  0
 29 61  1  0  0  0  0
 30 32  2  0  0  0  0
 30 70  1  0  0  0  0
 31 62  1  0  0  0  0
 32 80  1  0  0  0  0
 33 93  1  0  0  0  0
 34 94  1  0  0  0  0
 35 37  2  0  0  0  0
 35 93  1  0  0  0  0
 36 95  1  0  0  0  0
 37 96  1  0  0  0  0
 38 74  2  0  0  0  0
 39 75  1  0  0  0  0
 39 78  1  0  0  0  0
 40 41  2  0  0  0  0
 41 43  1  0  0  0  0
 42 79  1  0  0  0  0
 42 86  2  0  0  0  0
 43 81  1  0  0  0  0
 43 87  2  0  0  0  0
 44 59  1  0  0  0  0
 44 82  1  0  0  0  0
 44 88  2  0  0  0  0
 45 71  1  0  0  0  0
 45 76  1  0  0  0  0
 45 89  2  0  0  0  0
 46 72  1  0  0  0  0
 46 83  1  0  0  0  0
 46 90  2  0  0  0  0
 47 77  1  0  0  0  0
 47 80  1  0  0  0  0
 47 91  2  0  0  0  0
 48 84  1  0  0  0  0
 48 92  2  0  0  0  0
 48 94  1  0  0  0  0
 49 52  1  0  0  0  0
 50 59  1  0  0  0  0
 51 76  1  0  0  0  0
 52 54  1  0  0  0  0
 53 55  1  0  0  0  0
 53 56  1  0  0  0  0
 54 58  1  0  0  0  0
 55 60  1  0  0  0  0
 56 77  1  0  0  0  0
 57 60  1  0  0  0  0
 57 77  1  0  0  0  0
 58 82  1  0  0  0  0
 59 76  1  0  0  0  0
 60 75  1  0  0  0  0
 63 72  1  0  0  0  0
 64 73  1  0  0  0  0
 65 73  1  0  0  0  0
 66 73  1  0  0  0  0
 67 84  1  0  0  0  0
 68 85  1  0  0  0  0
 69 84  1  0  0  0  0
 70 81  1  0  0  0  0
 71 73  1  0  0  0  0
 71 83  1  0  0  0  0
 72 85  1  0  0  0  0
 74 75  1  0  0  0  0
M  CHG  1  85   1
M  ISO  4  47 100  48 101  80 100  94 101
M  END
> <Batch ID>
0050

> <Smiles>
CNC(C)C(=O)NC(C(=O)N1Cc2cc([101O:1][101C:1](=O)N(C)Cc3ccc(C=CC(=O)NCc4ccc(C)cc4[100NH:0][100C:0](=O)N4CCCC(n5nc(-c6ccc(Oc7ccc(F)cc7F)cc6)c(C(N)=O)c5N)C4)c(C)c3)ccc2CC1C(=O)NC1CCCc2ccccc21)C(C)(C)C

> <Shape>
0.287

> <Color>
0.077

> <Negative vol penalty>
0.000

$$$$

  -OEChem-04042322353D

 85 93  0     1  0  0  0  0  0999 V2000
  -32.2563  -32.8635   22.3810 C   0  0  0  0  0  0  0  0  0  0  0  0
  -31.6887  -31.8404   21.6284 C   0  0  0  0  0  0  0  0  0  0  0  0
  -28.3447  -23.5975   22.8525 C   0  0  0  0  0  0  0  0  0  0  0  0
  -26.4903  -12.2257   21.4692 C   0  0  0  0  0  0  0  0  0  0  0  0
  -25.7656  -13.9746   19.9681 C   0  0  0  0  0  0  0  0  0  0  0  0
  -27.7438  -23.8861   21.6273 C   0  0  0  0  0  0  0  0  0  0  0  0
  -31.7187  -33.1933   23.6244 C   0  0  0  0  0  0  0  0  0  0  0  0
  -30.5837  -31.1458   22.1192 C   0  0  0  0  0  0  0  0  0  0  0  0
  -26.9903  -30.4843   18.6128 C   0  0  0  0  0  0  0  0  0  0  0  0
  -28.9255  -22.3476   23.0672 C   0  0  0  0  0  0  0  0  0  0  0  0
  -25.2225  -11.6473   21.4075 C   0  0  0  0  0  0  0  0  0  0  0  0
  -24.4978  -13.3962   19.9063 C   0  0  0  0  0  0  0  0  0  0  0  0
  -27.1967  -29.4765   17.6718 C   0  0  0  0  0  0  0  0  0  0  0  0
  -22.0702   -9.9109   21.9285 C   0  0  0  0  0  0  0  0  0  0  0  0
  -21.4888   -9.4899   23.1244 C   0  0  0  0  0  0  0  0  0  0  0  0
  -25.7300  -28.0216   18.9173 C   0  0  0  0  0  0  0  0  0  0  0  0
  -21.5922  -11.7506   23.9704 C   0  0  0  0  0  0  0  0  0  0  0  0
  -26.7618  -13.3894   20.7496 C   0  0  0  0  0  0  0  0  0  0  0  0
  -27.7234  -22.9248   20.6169 C   0  0  0  0  0  0  0  0  0  0  0  0
  -29.1690  -13.7219   19.9734 C   0  0  0  0  0  0  0  0  0  0  0  0
  -30.6006  -32.5089   24.1265 C   0  0  0  0  0  0  0  0  0  0  0  0
  -26.1594  -30.2643   19.7208 C   0  0  0  0  0  0  0  0  0  0  0  0
  -30.0315  -31.4659   23.3711 C   0  0  0  0  0  0  0  0  0  0  0  0
  -25.5127  -29.0291   19.8695 C   0  0  0  0  0  0  0  0  0  0  0  0
  -28.3040  -21.6748   20.8316 C   0  0  0  0  0  0  0  0  0  0  0  0
  -28.9051  -21.3862   22.0568 C   0  0  0  0  0  0  0  0  0  0  0  0
  -24.2263  -12.2325   20.6260 C   0  0  0  0  0  0  0  0  0  0  0  0
  -26.5688  -28.2439   17.8255 C   0  0  0  0  0  0  0  0  0  0  0  0
  -22.4127  -11.2517   21.7535 C   0  0  0  0  0  0  0  0  0  0  0  0
  -21.2498  -10.4097   24.1454 C   0  0  0  0  0  0  0  0  0  0  0  0
  -22.1737  -12.1715   22.7745 C   0  0  0  0  0  0  0  0  0  0  0  0
  -28.0710  -13.9877   20.8134 C   0  0  0  0  0  0  0  0  0  0  0  0
  -30.1670  -14.5402   20.4435 C   0  0  0  0  0  0  0  0  0  0  0  0
  -27.0765  -23.2630   19.3229 C   0  0  0  0  0  0  0  0  0  0  0  0
  -29.2772  -12.8164   18.8670 C   0  0  0  0  0  0  0  0  0  0  0  0
  -26.5801  -30.2446   22.8714 C   0  0  0  0  0  0  0  0  0  0  0  0
  -23.3558  -29.8914   22.9081 C   0  0  0  0  0  0  0  0  0  0  0  0
  -20.5328  -28.8845   21.2760 C   0  0  0  0  0  0  0  0  0  0  0  0
  -30.1350  -19.6963   23.4632 C   0  0  0  0  0  0  0  0  0  0  0  0
  -30.0838  -32.8695   25.4967 C   0  0  0  0  0  0  0  0  0  0  0  0
  -25.9259  -31.3706   20.7127 C   0  0  0  0  0  0  0  0  0  0  0  0
  -24.5949  -28.7491   21.0305 C   0  0  0  0  0  0  0  0  0  0  0  0
  -28.6818  -32.3354   25.7789 C   0  0  0  0  0  0  0  0  0  0  0  0
  -31.6952  -16.6548   24.4594 C   0  0  0  0  0  0  0  0  0  0  0  0
  -28.5746  -30.8716   25.3636 C   0  0  0  0  0  0  0  0  0  0  0  0
  -31.0472  -15.6024   23.5568 C   0  0  0  0  0  0  0  0  0  0  0  0
  -30.6981  -17.7335   24.8792 C   0  0  0  0  0  0  0  0  0  0  0  0
  -29.3311  -17.3261   22.8706 C   0  0  0  0  0  0  0  0  0  0  0  0
  -28.8170  -30.7059   23.8585 C   0  0  1  0  0  0  0  0  0  0  0  0
  -25.4658  -30.8636   22.0760 C   0  0  1  0  0  0  0  0  0  0  0  0
  -30.3123  -16.2541   22.3690 C   0  0  2  0  0  0  0  0  0  0  0  0
  -28.2811  -20.6437   19.7463 C   0  0  0  0  0  0  0  0  0  0  0  0
  -18.0495  -28.6836   21.5761 C   0  0  0  0  0  0  0  0  0  0  0  0
  -29.0431  -25.4545   16.5498 C   0  0  0  0  0  0  0  0  0  0  0  0
  -23.7701  -27.4373   24.6732 C   0  0  0  0  0  0  0  0  0  0  0  0
  -21.4178  -26.7541   24.1555 C   0  0  0  0  0  0  0  0  0  0  0  0
  -21.8574  -28.8989   25.3510 C   0  0  0  0  0  0  0  0  0  0  0  0
  -19.9946  -30.7240   19.0209 C   0  0  0  0  0  0  0  0  0  0  0  0
  -27.4183  -23.5298   16.8800 C   0  0  0  0  0  0  0  0  0  0  0  0
  -26.6941  -25.9120   17.3759 C   0  0  0  0  0  0  0  0  0  1  0  0
  -22.4088  -28.7158   22.8905 C   0  0  1  0  0  0  0  0  0  0  0  0
  -19.1880  -29.5606   21.0787 C   0  0  2  0  0  0  0  0  0  0  0  0
  -27.5773  -25.0097   16.5058 C   0  0  1  0  0  0  0  0  0  0  0  0
  -22.3823  -27.9558   24.2466 C   0  0  0  0  0  0  0  0  0  0  0  0
  -28.3454  -14.9031   21.7466 N   0  0  0  0  0  0  0  0  0  0  0  0
  -29.6272  -15.2196   21.4958 N   0  0  0  0  0  0  0  0  0  0  0  0
  -24.4036  -29.8605   21.9769 N   0  0  0  0  0  0  0  0  0  0  0  0
  -30.0439  -18.3087   23.7019 N   0  0  0  0  0  0  0  0  0  0  0  0
  -31.4448  -14.7375   20.0554 N   0  0  0  0  0  0  0  0  0  0  0  0
  -28.1561  -12.0512   18.5179 N   0  0  0  0  0  0  0  0  0  0  0  0
  -29.5016  -20.1235   22.2966 N   0  0  0  0  0  0  0  0  0  0  0  0
  -27.8917  -23.2070   18.1987 N   0  0  0  0  0  0  0  0  0  0  0  0
  -27.6410  -31.0969   23.1111 N   0  0  0  0  0  0  0  0  0  0  0  0
  -21.1131  -29.2417   22.4747 N   0  0  0  0  0  0  0  0  0  0  0  0
  -18.9612  -29.8510   19.6347 N   0  3  0  0  0  0  0  0  0  0  0  0
  -25.8918  -23.5867   19.3109 O   0  0  0  0  0  0  0  0  0  0  0  0
  -30.3415  -12.6777   18.2179 O   0  0  0  0  0  0  0  0  0  0  0  0
  -26.4839  -29.0804   23.2416 O   0  0  0  0  0  0  0  0  0  0  0  0
  -23.1685  -30.8068   23.7134 O   0  0  0  0  0  0  0  0  0  0  0  0
  -21.0182  -28.1135   20.4510 O   0  0  0  0  0  0  0  0  0  0  0  0
  -30.7543  -20.4461   24.2223 O   0  0  0  0  0  0  0  0  0  0  0  0
  -22.9892  -11.6682   20.5653 O   0  0  0  0  0  0  0  0  0  0  0  0
  -26.7691  -27.2583   16.9088 O   0  0  0  0  0  0  0  0  0  1  0  0
  -20.6900  -10.0056   25.2932 F   0  0  0  0  0  0  0  0  0  0  0  0
  -22.4994  -13.4612   22.6118 F   0  0  0  0  0  0  0  0  0  0  0  0
  1  2  1  0  0  0  0
  1  7  2  0  0  0  0
  2  8  2  0  0  0  0
  3  6  2  0  0  0  0
  3 10  1  0  0  0  0
  4 11  2  0  0  0  0
  4 18  1  0  0  0  0
  5 12  1  0  0  0  0
  5 18  2  0  0  0  0
  6 19  1  0  0  0  0
  7 21  1  0  0  0  0
  8 23  1  0  0  0  0
  9 13  2  0  0  0  0
  9 22  1  0  0  0  0
 10 26  2  0  0  0  0
 11 27  1  0  0  0  0
 12 27  2  0  0  0  0
 13 28  1  0  0  0  0
 14 15  2  0  0  0  0
 14 29  1  0  0  0  0
 15 30  1  0  0  0  0
 16 24  1  0  0  0  0
 16 28  2  0  0  0  0
 17 30  2  0  0  0  0
 17 31  1  0  0  0  0
 18 32  1  0  0  0  0
 19 25  2  0  0  0  0
 19 34  1  0  0  0  0
 20 32  1  0  0  0  0
 20 33  2  0  0  0  0
 20 35  1  0  0  0  0
 21 23  2  0  0  0  0
 21 40  1  0  0  0  0
 22 24  2  0  0  0  0
 22 41  1  0  0  0  0
 23 49  1  0  0  0  0
 24 42  1  0  0  0  0
 25 26  1  0  0  0  0
 25 52  1  0  0  0  0
 26 71  1  0  0  0  0
 27 82  1  0  0  0  0
 28 83  1  0  0  0  0
 29 31  2  0  0  0  0
 29 82  1  0  0  0  0
 30 84  1  0  0  0  0
 31 85  1  0  0  0  0
 32 65  2  0  0  0  0
 33 66  1  0  0  0  0
 33 69  1  0  0  0  0
 34 72  1  0  0  0  0
 34 76  2  0  0  0  0
 35 70  1  0  0  0  0
 35 77  2  0  0  0  0
 36 50  1  0  0  0  0
 36 73  1  0  0  0  0
 36 78  2  0  0  0  0
 37 61  1  0  0  0  0
 37 67  1  0  0  0  0
 37 79  2  0  0  0  0
 38 62  1  0  0  0  0
 38 74  1  0  0  0  0
 38 80  2  0  0  0  0
 39 68  1  0  0  0  0
 39 71  1  0  0  0  0
 39 81  2  0  0  0  0
 40 43  1  0  0  0  0
 41 50  1  0  0  0  0
 42 67  1  0  0  0  0
 43 45  1  0  0  0  0
 44 46  1  0  0  0  0
 44 47  1  0  0  0  0
 45 49  1  0  0  0  0
 46 51  1  0  0  0  0
 47 68  1  0  0  0  0
 48 51  1  0  0  0  0
 48 68  1  0  0  0  0
 49 73  1  0  0  0  0
 50 67  1  0  0  0  0
 51 66  1  0  0  0  0
 53 62  1  0  0  0  0
 54 63  1  0  0  0  0
 55 64  1  0  0  0  0
 56 64  1  0  0  0  0
 57 64  1  0  0  0  0
 58 75  1  0  0  0  0
 59 63  1  0  0  0  0
 59 72  1  0  0  0  0
 60 63  1  0  0  0  0
 60 83  1  0  0  0  0
 61 64  1  0  0  0  0
 61 74  1  0  0  0  0
 62 75  1  0  0  0  0
 65 66  1  0  0  0  0
M  CHG  1  75   1
M  ISO  4  39 100  60 101  71 100  83 101
M  END
> <Batch ID>
0050

> <Smiles>
CNC(C)C(=O)NC(C(=O)N1Cc2cc([101O:1][101CH2:1]C(C)CNC(=O)c3cccc([100NH:0][100C:0](=O)N4CCCC(n5nc(-c6ccc(Oc7ccc(F)cc7F)cc6)c(C(N)=O)c5N)C4)c3C)ccc2CC1C(=O)NC1CCCc2ccccc21)C(C)(C)C

> <Shape>
0.248

> <Color>
0.068

> <Negative vol penalty>
0.000

$$$$

  -OEChem-04042322353D

 85 93  0     1  0  0  0  0  0999 V2000
  -17.2535  -12.4325   20.0895 C   0  0  0  0  0  0  0  0  0  0  0  0
  -17.3424  -13.8009   19.8547 C   0  0  0  0  0  0  0  0  0  0  0  0
  -18.5291  -29.6994   24.8085 C   0  0  0  0  0  0  0  0  0  0  0  0
  -27.9864  -25.5405   18.1840 C   0  0  0  0  0  0  0  0  0  0  0  0
  -26.2268  -24.2292   19.1947 C   0  0  0  0  0  0  0  0  0  0  0  0
  -18.1998  -11.8019   20.8961 C   0  0  0  0  0  0  0  0  0  0  0  0
  -18.3772  -14.5396   20.4273 C   0  0  0  0  0  0  0  0  0  0  0  0
  -21.2608  -19.3525   17.9724 C   0  0  0  0  0  0  0  0  0  0  0  0
  -17.5978  -28.8017   24.2866 C   0  0  0  0  0  0  0  0  0  0  0  0
  -19.6960  -29.9847   24.0996 C   0  0  0  0  0  0  0  0  0  0  0  0
  -28.8531  -24.4519   18.2805 C   0  0  0  0  0  0  0  0  0  0  0  0
  -27.0935  -23.1406   19.2912 C   0  0  0  0  0  0  0  0  0  0  0  0
  -21.1081  -20.7271   18.1480 C   0  0  0  0  0  0  0  0  0  0  0  0
  -31.6339  -22.1292   18.5903 C   0  0  0  0  0  0  0  0  0  0  0  0
  -32.9258  -22.3665   19.0595 C   0  0  0  0  0  0  0  0  0  0  0  0
  -22.8957  -20.7128   19.7677 C   0  0  0  0  0  0  0  0  0  0  0  0
  -32.0181  -23.1978   21.1385 C   0  0  0  0  0  0  0  0  0  0  0  0
  -26.6732  -25.4292   18.6411 C   0  0  0  0  0  0  0  0  0  0  0  0
  -19.0005  -28.4743   22.3469 C   0  0  0  0  0  0  0  0  0  0  0  0
  -24.9248  -26.8691   17.4675 C   0  0  0  0  0  0  0  0  0  0  0  0
  -19.2523  -12.5315   21.4711 C   0  0  0  0  0  0  0  0  0  0  0  0
  -22.2265  -18.6447   18.7024 C   0  0  0  0  0  0  0  0  0  0  0  0
  -19.3378  -13.9184   21.2435 C   0  0  0  0  0  0  0  0  0  0  0  0
  -23.0604  -19.3296   19.5976 C   0  0  0  0  0  0  0  0  0  0  0  0
  -17.8335  -28.1891   23.0558 C   0  0  0  0  0  0  0  0  0  0  0  0
  -19.9318  -29.3721   22.8689 C   0  0  0  0  0  0  0  0  0  0  0  0
  -28.4067  -23.2519   18.8341 C   0  0  0  0  0  0  0  0  0  0  0  0
  -21.9236  -21.4070   19.0479 C   0  0  0  0  0  0  0  0  0  0  0  0
  -30.5340  -22.4263   19.3952 C   0  0  0  0  0  0  0  0  0  0  0  0
  -33.1180  -22.9008   20.3336 C   0  0  0  0  0  0  0  0  0  0  0  0
  -30.7262  -22.9605   20.6693 C   0  0  0  0  0  0  0  0  0  0  0  0
  -25.7776  -26.5535   18.5422 C   0  0  0  0  0  0  0  0  0  0  0  0
  -24.2899  -28.0221   17.8601 C   0  0  0  0  0  0  0  0  0  0  0  0
  -19.2439  -27.8222   21.0480 C   0  0  0  0  0  0  0  0  0  0  0  0
  -20.2833  -27.0169   20.7837 C   0  0  0  0  0  0  0  0  0  0  0  0
  -24.7244  -26.1815   16.2255 C   0  0  0  0  0  0  0  0  0  0  0  0
  -20.4234  -26.4030   19.4324 C   0  0  0  0  0  0  0  0  0  0  0  0
  -22.1454  -16.2847   20.8302 C   0  0  0  0  0  0  0  0  0  0  0  0
  -25.3724  -16.4306   20.5351 C   0  0  0  0  0  0  0  0  0  0  0  0
  -28.1266  -18.2726   19.7175 C   0  0  0  0  0  0  0  0  0  0  0  0
  -22.1345  -30.5598   22.5796 C   0  0  0  0  0  0  0  0  0  0  0  0
  -20.2243  -11.8145   22.3743 C   0  0  0  0  0  0  0  0  0  0  0  0
  -22.3966  -17.1666   18.4818 C   0  0  0  0  0  0  0  0  0  0  0  0
  -24.1259  -18.6194   20.3906 C   0  0  0  0  0  0  0  0  0  0  0  0
  -21.5047  -12.6023   22.6390 C   0  0  0  0  0  0  0  0  0  0  0  0
  -25.2448  -31.5715   21.1727 C   0  0  0  0  0  0  0  0  0  0  0  0
  -21.1777  -14.0508   22.9879 C   0  0  0  0  0  0  0  0  0  0  0  0
  -25.6174  -30.4124   20.2454 C   0  0  0  0  0  0  0  0  0  0  0  0
  -24.5607  -31.0806   22.4473 C   0  0  0  0  0  0  0  0  0  0  0  0
  -23.7755  -29.0441   21.3048 C   0  0  0  0  0  0  0  0  0  0  0  0
  -20.4599  -14.7495   21.8268 C   0  0  1  0  0  0  0  0  0  0  0  0
  -23.0667  -16.4603   19.6563 C   0  0  1  0  0  0  0  0  0  0  0  0
  -24.4090  -29.4938   19.9781 C   0  0  2  0  0  0  0  0  0  0  0  0
  -16.8096  -27.2340   22.5309 C   0  0  0  0  0  0  0  0  0  0  0  0
  -30.6300  -18.1330   19.6133 C   0  0  0  0  0  0  0  0  0  0  0  0
  -25.5120  -16.7116   23.5701 C   0  0  0  0  0  0  0  0  0  0  0  0
  -27.8722  -17.5080   23.3181 C   0  0  0  0  0  0  0  0  0  0  0  0
  -27.2484  -15.2081   22.5807 C   0  0  0  0  0  0  0  0  0  0  0  0
  -28.1483  -18.7621   16.7988 C   0  0  0  0  0  0  0  0  0  0  0  0
  -21.9223  -24.8922   18.1427 C   0  0  0  0  0  0  0  0  0  0  0  0
  -21.3140  -23.5018   18.1012 C   0  0  0  0  0  0  0  0  0  1  0  0
  -26.4755  -17.1969   21.2244 C   0  0  1  0  0  0  0  0  0  0  0  0
  -29.3287  -17.9549   18.8467 C   0  0  2  0  0  0  0  0  0  0  0  0
  -26.7557  -16.6695   22.6600 C   0  0  0  0  0  0  0  0  0  0  0  0
  -25.6946  -27.4350   19.5424 N   0  0  0  0  0  0  0  0  0  0  0  0
  -24.7821  -28.3158   19.0977 N   0  0  0  0  0  0  0  0  0  0  0  0
  -24.2490  -17.1731   20.1444 N   0  0  0  0  0  0  0  0  0  0  0  0
  -23.4230  -30.2198   22.1161 N   0  0  0  0  0  0  0  0  0  0  0  0
  -23.3644  -28.8032   17.2638 N   0  0  0  0  0  0  0  0  0  0  0  0
  -25.4579  -25.0120   15.9833 N   0  0  0  0  0  0  0  0  0  0  0  0
  -21.1267  -29.6852   22.1747 N   0  0  0  0  0  0  0  0  0  0  0  0
  -21.5536  -25.6018   19.3389 N   0  0  0  0  0  0  0  0  0  0  0  0
  -21.4064  -15.1176   20.7957 N   0  0  0  0  0  0  0  0  0  0  0  0
  -27.6287  -17.1434   20.3325 N   0  0  0  0  0  0  0  0  0  0  0  0
  -29.3578  -18.8517   17.6567 N   0  3  0  0  0  0  0  0  0  0  0  0
  -23.9309  -26.6010   15.3492 O   0  0  0  0  0  0  0  0  0  0  0  0
  -19.6164  -26.6025   18.5304 O   0  0  0  0  0  0  0  0  0  0  0  0
  -22.1088  -17.1437   21.7034 O   0  0  0  0  0  0  0  0  0  0  0  0
  -25.5058  -15.2194   20.3436 O   0  0  0  0  0  0  0  0  0  0  0  0
  -27.6767  -19.4095   19.8428 O   0  0  0  0  0  0  0  0  0  0  0  0
  -21.9353  -31.5686   23.2612 O   0  0  0  0  0  0  0  0  0  0  0  0
  -29.2520  -22.1894   18.9282 O   0  0  0  0  0  0  0  0  0  0  0  0
  -21.7762  -22.7486   19.2217 O   0  0  0  0  0  0  0  0  0  1  0  0
  -34.3587  -23.1272   20.7846 F   0  0  0  0  0  0  0  0  0  0  0  0
  -29.6735  -23.2468   21.4475 F   0  0  0  0  0  0  0  0  0  0  0  0
  1  2  1  0  0  0  0
  1  6  2  0  0  0  0
  2  7  2  0  0  0  0
  3  9  1  0  0  0  0
  3 10  2  0  0  0  0
  4 11  2  0  0  0  0
  4 18  1  0  0  0  0
  5 12  1  0  0  0  0
  5 18  2  0  0  0  0
  6 21  1  0  0  0  0
  7 23  1  0  0  0  0
  8 13  2  0  0  0  0
  8 22  1  0  0  0  0
  9 25  2  0  0  0  0
 10 26  1  0  0  0  0
 11 27  1  0  0  0  0
 12 27  2  0  0  0  0
 13 28  1  0  0  0  0
 14 15  2  0  0  0  0
 14 29  1  0  0  0  0
 15 30  1  0  0  0  0
 16 24  1  0  0  0  0
 16 28  2  0  0  0  0
 17 30  2  0  0  0  0
 17 31  1  0  0  0  0
 18 32  1  0  0  0  0
 19 25  1  0  0  0  0
 19 26  2  0  0  0  0
 19 34  1  0  0  0  0
 20 32  1  0  0  0  0
 20 33  2  0  0  0  0
 20 36  1  0  0  0  0
 21 23  2  0  0  0  0
 21 42  1  0  0  0  0
 22 24  2  0  0  0  0
 22 43  1  0  0  0  0
 23 51  1  0  0  0  0
 24 44  1  0  0  0  0
 25 54  1  0  0  0  0
 26 71  1  0  0  0  0
 27 82  1  0  0  0  0
 28 83  1  0  0  0  0
 29 31  2  0  0  0  0
 29 82  1  0  0  0  0
 30 84  1  0  0  0  0
 31 85  1  0  0  0  0
 32 65  2  0  0  0  0
 33 66  1  0  0  0  0
 33 69  1  0  0  0  0
 34 35  2  0  0  0  0
 35 37  1  0  0  0  0
 36 70  1  0  0  0  0
 36 76  2  0  0  0  0
 37 72  1  0  0  0  0
 37 77  2  0  0  0  0
 38 52  1  0  0  0  0
 38 73  1  0  0  0  0
 38 78  2  0  0  0  0
 39 62  1  0  0  0  0
 39 67  1  0  0  0  0
 39 79  2  0  0  0  0
 40 63  1  0  0  0  0
 40 74  1  0  0  0  0
 40 80  2  0  0  0  0
 41 68  1  0  0  0  0
 41 71  1  0  0  0  0
 41 81  2  0  0  0  0
 42 45  1  0  0  0  0
 43 52  1  0  0  0  0
 44 67  1  0  0  0  0
 45 47  1  0  0  0  0
 46 48  1  0  0  0  0
 46 49  1  0  0  0  0
 47 51  1  0  0  0  0
 48 53  1  0  0  0  0
 49 68  1  0  0  0  0
 50 53  1  0  0  0  0
 50 68  1  0  0  0  0
 51 73  1  0  0  0  0
 52 67  1  0  0  0  0
 53 66  1  0  0  0  0
 55 63  1  0  0  0  0
 56 64  1  0  0  0  0
 57 64  1  0  0  0  0
 58 64  1  0  0  0  0
 59 75  1  0  0  0  0
 60 61  1  0  0  0  0
 60 72  1  0  0  0  0
 61 83  1  0  0  0  0
 62 64  1  0  0  0  0
 62 74  1  0  0  0  0
 63 75  1  0  0  0  0
 65 66  1  0  0  0  0
M  CHG  1  75   1
M  ISO  4  41 100  61 101  71 100  83 101
M  END
> <Batch ID>
0050

> <Smiles>
CNC(C)C(=O)NC(C(=O)N1Cc2cc([101O:1][101CH2:1]CNC(=O)C=Cc3c(C)cccc3[100NH:0][100C:0](=O)N3CCCC(n4nc(-c5ccc(Oc6ccc(F)cc6F)cc5)c(C(N)=O)c4N)C3)ccc2CC1C(=O)NC1CCCc2ccccc21)C(C)(C)C

> <Shape>
0.193

> <Color>
0.069

> <Negative vol penalty>
0.000

$$$$

  -OEChem-04042322353D

 97107  0     1  0  0  0  0  0999 V2000
  -19.8194  -23.8869   22.1808 C   0  0  0  0  0  0  0  0  0  0  0  0
  -20.9823  -24.3081   21.5438 C   0  0  0  0  0  0  0  0  0  0  0  0
  -27.6554  -11.9147   23.0978 C   0  0  0  0  0  0  0  0  0  0  0  0
  -28.3201  -11.4655   20.8189 C   0  0  0  0  0  0  0  0  0  0  0  0
  -18.9119  -24.8276   22.6660 C   0  0  0  0  0  0  0  0  0  0  0  0
  -21.2378  -25.6703   21.3907 C   0  0  0  0  0  0  0  0  0  0  0  0
  -26.0213  -26.8887   22.5214 C   0  0  0  0  0  0  0  0  0  0  0  0
  -29.0993  -21.4534   16.9646 C   0  0  0  0  0  0  0  0  0  0  0  0
  -29.4226  -22.7361   17.4069 C   0  0  0  0  0  0  0  0  0  0  0  0
  -28.9439  -11.6072   23.5343 C   0  0  0  0  0  0  0  0  0  0  0  0
  -29.6088  -11.1579   21.2554 C   0  0  0  0  0  0  0  0  0  0  0  0
  -26.9939  -26.6060   21.5633 C   0  0  0  0  0  0  0  0  0  0  0  0
  -31.1906   -8.5455   22.7060 C   0  0  0  0  0  0  0  0  0  0  0  0
  -31.7965   -7.4030   22.1833 C   0  0  0  0  0  0  0  0  0  0  0  0
  -26.9626  -28.9131   20.8595 C   0  0  0  0  0  0  0  0  0  0  0  0
  -22.6501  -22.2649   17.1804 C   0  0  0  0  0  0  0  0  0  0  0  0
  -24.9489  -21.9856   17.8689 C   0  0  0  0  0  0  0  0  0  0  0  0
  -30.2349  -21.8140   19.4871 C   0  0  0  0  0  0  0  0  0  0  0  0
  -33.5823   -8.7605   21.2861 C   0  0  0  0  0  0  0  0  0  0  0  0
  -27.3434  -11.8438   21.7401 C   0  0  0  0  0  0  0  0  0  0  0  0
  -24.8141  -11.5216   21.6592 C   0  0  0  0  0  0  0  0  0  0  0  0
  -19.1611  -26.2021   22.5274 C   0  0  0  0  0  0  0  0  0  0  0  0
  -25.5034  -28.1856   22.6486 C   0  0  0  0  0  0  0  0  0  0  0  0
  -20.3321  -26.6303   21.8734 C   0  0  0  0  0  0  0  0  0  0  0  0
  -25.9854  -29.2103   21.8217 C   0  0  0  0  0  0  0  0  0  0  0  0
  -29.3437  -20.3509   17.7835 C   0  0  0  0  0  0  0  0  0  0  0  0
  -23.9099  -22.8077   17.4328 C   0  0  0  0  0  0  0  0  0  0  0  0
  -22.4291  -20.8999   17.3643 C   0  0  0  0  0  0  0  0  0  0  0  0
  -29.9115  -20.5312   19.0447 C   0  0  0  0  0  0  0  0  0  0  0  0
  -24.7280  -20.6206   18.0528 C   0  0  0  0  0  0  0  0  0  0  0  0
  -29.9905  -22.9164   18.6681 C   0  0  0  0  0  0  0  0  0  0  0  0
  -23.4681  -20.0778   17.8004 C   0  0  0  0  0  0  0  0  0  0  0  0
  -29.9206  -11.2288   22.6132 C   0  0  0  0  0  0  0  0  0  0  0  0
  -27.4626  -27.6176   20.7302 C   0  0  0  0  0  0  0  0  0  0  0  0
  -31.7805   -9.7956   22.5186 C   0  0  0  0  0  0  0  0  0  0  0  0
  -32.9923   -7.5105   21.4734 C   0  0  0  0  0  0  0  0  0  0  0  0
  -32.9764   -9.9030   21.8087 C   0  0  0  0  0  0  0  0  0  0  0  0
  -26.0124  -12.1609   21.2885 C   0  0  0  0  0  0  0  0  0  0  0  0
  -23.8382  -12.1904   20.9616 C   0  0  0  0  0  0  0  0  0  0  0  0
  -31.6264  -24.6171   19.4647 C   0  0  0  0  0  0  0  0  0  0  0  0
  -32.7657  -24.0606   19.0089 C   0  0  0  0  0  0  0  0  0  0  0  0
  -26.5215  -19.2913   17.5624 C   0  0  0  0  0  0  0  0  0  0  0  0
  -24.6023  -10.4217   22.5542 C   0  0  0  0  0  0  0  0  0  0  0  0
  -22.6244  -29.4931   22.3235 C   0  0  0  0  0  0  0  0  0  0  0  0
  -24.1318  -32.1435   23.4306 C   0  0  0  0  0  0  0  0  0  0  0  0
  -27.0553  -33.8562   23.8388 C   0  0  0  0  0  0  0  0  0  0  0  0
  -23.8719  -17.8385   18.8991 C   0  0  0  0  0  0  0  0  0  0  0  0
  -18.1279  -27.1811   23.0261 C   0  0  0  0  0  0  0  0  0  0  0  0
  -24.4740  -28.4801   23.7051 C   0  0  0  0  0  0  0  0  0  0  0  0
  -25.4766  -30.6236   21.9317 C   0  0  0  0  0  0  0  0  0  0  0  0
  -31.7510  -25.7937   20.4133 C   0  0  0  0  0  0  0  0  0  0  0  0
  -18.6539  -28.6083   23.1562 C   0  0  0  0  0  0  0  0  0  0  0  0
  -30.7360  -26.8880   20.1179 C   0  0  0  0  0  0  0  0  0  0  0  0
  -23.9922  -14.6358   16.7890 C   0  0  0  0  0  0  0  0  0  0  0  0
  -19.4352  -29.0052   21.9077 C   0  0  0  0  0  0  0  0  0  0  0  0
  -23.7036  -13.6043   17.8772 C   0  0  0  0  0  0  0  0  0  0  0  0
  -23.4754  -16.0214   17.1551 C   0  0  0  0  0  0  0  0  0  0  0  0
  -24.6253  -15.5049   19.3154 C   0  0  0  0  0  0  0  0  0  0  0  0
  -29.2215  -25.2042   19.0326 C   0  0  0  0  0  0  0  0  0  0  0  0
  -20.6567  -28.0994   21.7102 C   0  0  1  0  0  0  0  0  0  0  0  0
  -23.6453  -29.7245   23.4015 C   0  0  1  0  0  0  0  0  0  0  0  0
  -23.8662  -14.1690   19.3023 C   0  0  2  0  0  0  0  0  0  0  0  0
  -29.3332  -26.3003   20.0906 C   0  0  2  0  0  0  0  0  0  1  0  0
  -24.1470  -24.2669   17.2367 C   0  0  0  0  0  0  0  0  0  0  0  0
  -21.0682  -20.3482   17.0863 C   0  0  0  0  0  0  0  0  0  0  0  0
  -30.1809  -19.3661   19.9395 C   0  0  0  0  0  0  0  0  0  0  0  0
  -27.9652  -36.0123   24.7447 C   0  0  0  0  0  0  0  0  0  0  0  0
  -23.0695  -33.6187   20.9799 C   0  0  0  0  0  0  0  0  0  0  0  0
  -24.7448  -35.4247   21.4273 C   0  0  0  0  0  0  0  0  0  0  0  0
  -22.9710  -34.9270   23.1091 C   0  0  0  0  0  0  0  0  0  0  0  0
  -28.7510  -32.4459   25.8123 C   0  0  0  0  0  0  0  0  0  0  0  0
  -28.9879  -18.9875   17.2886 C   0  0  0  0  0  0  0  0  0  0  0  0
  -27.7038  -18.4281   17.9145 C   0  0  0  0  0  0  0  0  0  0  0  0
  -24.8755  -33.2939   22.7962 C   0  0  1  0  0  0  0  0  0  0  0  0
  -27.6532  -34.5548   25.0467 C   0  0  2  0  0  0  0  0  0  0  0  0
  -23.9236  -34.2891   22.0745 C   0  0  0  0  0  0  0  0  0  0  0  0
  -25.8178  -13.1590   20.4226 N   0  0  0  0  0  0  0  0  0  0  0  0
  -25.7900  -19.8130   18.4921 N   0  0  0  0  0  0  0  0  0  0  0  0
  -24.4859  -13.1519   20.2432 N   0  0  0  0  0  0  0  0  0  0  0  0
  -30.3214  -24.2264   19.1190 N   0  0  0  0  0  0  0  0  0  0  0  0
  -24.4659  -30.8601   22.9758 N   0  0  0  0  0  0  0  0  0  0  0  0
  -23.9693  -16.4968   18.4556 N   0  0  0  0  0  0  0  0  0  0  0  0
  -22.4976  -12.0439   20.8987 N   0  0  0  0  0  0  0  0  0  0  0  0
  -24.6339   -9.1209   22.0333 N   0  0  0  0  0  0  0  0  0  0  0  0
  -23.2423  -18.6912   17.9885 N   0  0  0  0  0  0  0  0  0  0  0  0
  -21.7230  -28.4856   22.6092 N   0  0  0  0  0  0  0  0  0  0  0  0
  -25.6771  -33.8959   23.8562 N   0  0  0  0  0  0  0  0  0  0  0  0
  -28.9153  -33.8805   25.4629 N   0  3  0  0  0  0  0  0  0  0  0  0
  -24.3749  -10.5882   23.7765 O   0  0  0  0  0  0  0  0  0  0  0  0
  -22.6516  -30.1791   21.3084 O   0  0  0  0  0  0  0  0  0  0  0  0
  -23.2906  -32.3747   24.3027 O   0  0  0  0  0  0  0  0  0  0  0  0
  -27.7422  -33.3313   22.9652 O   0  0  0  0  0  0  0  0  0  0  0  0
  -24.3015  -18.1897   20.0000 O   0  0  0  0  0  0  0  0  0  0  0  0
  -31.1782  -10.9288   23.0388 O   0  0  0  0  0  0  0  0  0  0  0  0
  -28.4113  -27.3442   19.7937 O   0  0  0  0  0  0  0  0  0  1  0  0
  -33.5749   -6.4131   20.9729 F   0  0  0  0  0  0  0  0  0  0  0  0
  -33.5485  -11.1011   21.6265 F   0  0  0  0  0  0  0  0  0  0  0  0
  1  2  1  0  0  0  0
  1  5  2  0  0  0  0
  2  6  2  0  0  0  0
  3 10  2  0  0  0  0
  3 20  1  0  0  0  0
  4 11  1  0  0  0  0
  4 20  2  0  0  0  0
  5 22  1  0  0  0  0
  6 24  1  0  0  0  0
  7 12  2  0  0  0  0
  7 23  1  0  0  0  0
  8  9  2  0  0  0  0
  8 26  1  0  0  0  0
  9 31  1  0  0  0  0
 10 33  1  0  0  0  0
 11 33  2  0  0  0  0
 12 34  1  0  0  0  0
 13 14  2  0  0  0  0
 13 35  1  0  0  0  0
 14 36  1  0  0  0  0
 15 25  1  0  0  0  0
 15 34  2  0  0  0  0
 16 27  1  0  0  0  0
 16 28  2  0  0  0  0
 17 27  2  0  0  0  0
 17 30  1  0  0  0  0
 18 29  1  0  0  0  0
 18 31  2  0  0  0  0
 19 36  2  0  0  0  0
 19 37  1  0  0  0  0
 20 38  1  0  0  0  0
 21 38  1  0  0  0  0
 21 39  2  0  0  0  0
 21 43  1  0  0  0  0
 22 24  2  0  0  0  0
 22 48  1  0  0  0  0
 23 25  2  0  0  0  0
 23 49  1  0  0  0  0
 24 60  1  0  0  0  0
 25 50  1  0  0  0  0
 26 29  2  0  0  0  0
 26 72  1  0  0  0  0
 27 64  1  0  0  0  0
 28 32  1  0  0  0  0
 28 65  1  0  0  0  0
 29 66  1  0  0  0  0
 30 32  2  0  0  0  0
 30 78  1  0  0  0  0
 31 80  1  0  0  0  0
 32 85  1  0  0  0  0
 33 94  1  0  0  0  0
 34 95  1  0  0  0  0
 35 37  2  0  0  0  0
 35 94  1  0  0  0  0
 36 96  1  0  0  0  0
 37 97  1  0  0  0  0
 38 77  2  0  0  0  0
 39 79  1  0  0  0  0
 39 83  1  0  0  0  0
 40 41  2  0  0  0  0
 40 51  1  0  0  0  0
 40 80  1  0  0  0  0
 42 73  1  0  0  0  0
 42 78  2  0  0  0  0
 43 84  1  0  0  0  0
 43 89  2  0  0  0  0
 44 61  1  0  0  0  0
 44 86  1  0  0  0  0
 44 90  2  0  0  0  0
 45 74  1  0  0  0  0
 45 81  1  0  0  0  0
 45 91  2  0  0  0  0
 46 75  1  0  0  0  0
 46 87  1  0  0  0  0
 46 92  2  0  0  0  0
 47 82  1  0  0  0  0
 47 85  1  0  0  0  0
 47 93  2  0  0  0  0
 48 52  1  0  0  0  0
 49 61  1  0  0  0  0
 50 81  1  0  0  0  0
 51 53  1  0  0  0  0
 52 55  1  0  0  0  0
 53 63  1  0  0  0  0
 54 56  1  0  0  0  0
 54 57  1  0  0  0  0
 55 60  1  0  0  0  0
 56 62  1  0  0  0  0
 57 82  1  0  0  0  0
 58 62  1  0  0  0  0
 58 82  1  0  0  0  0
 59 63  1  0  0  0  0
 59 80  1  0  0  0  0
 60 86  1  0  0  0  0
 61 81  1  0  0  0  0
 62 79  1  0  0  0  0
 63 95  1  0  0  0  0
 67 75  1  0  0  0  0
 68 76  1  0  0  0  0
 69 76  1  0  0  0  0
 70 76  1  0  0  0  0
 71 88  1  0  0  0  0
 72 73  1  0  0  0  0
 74 76  1  0  0  0  0
 74 87  1  0  0  0  0
 75 88  1  0  0  0  0
 77 79  1  0  0  0  0
M  CHG  1  88   1
M  ISO  4  47 100  63 101  85 100  95 101
M  END
> <Batch ID>
0050

> <Smiles>
C=C1CC[101CH:1]([101O:1]c2ccc3c(c2)CN(C(=O)C(NC(=O)C(C)NC)C(C)(C)C)C(C(=O)NC2CCCc4ccccc42)C3)CN1c1ccc(CC=CNc2cc(C)cc(C)c2[100NH:0][100C:0](=O)N2CCCC(n3nc(-c4ccc(Oc5ccc(F)cc5F)cc4)c(C(N)=O)c3N)C2)c(C)c1

> <Shape>
0.256

> <Color>
0.092

> <Negative vol penalty>
0.000

$$$$

  -OEChem-04042322353D

 87 95  0     1  0  0  0  0  0999 V2000
  -32.1851  -14.0050   18.4768 C   0  0  0  0  0  0  0  0  0  0  0  0
  -31.3778  -15.1374   18.4415 C   0  0  0  0  0  0  0  0  0  0  0  0
  -29.0658  -20.0528   17.3189 C   0  0  0  0  0  0  0  0  0  0  0  0
  -27.5925  -21.8152   16.5702 C   0  0  0  0  0  0  0  0  0  0  0  0
  -31.6418  -12.7741   18.8425 C   0  0  0  0  0  0  0  0  0  0  0  0
  -30.0263  -15.0394   18.7707 C   0  0  0  0  0  0  0  0  0  0  0  0
  -28.4963  -18.7734   21.8303 C   0  0  0  0  0  0  0  0  0  0  0  0
  -23.5005  -29.5733   20.5989 C   0  0  0  0  0  0  0  0  0  0  0  0
  -28.2886  -19.1146   16.6397 C   0  0  0  0  0  0  0  0  0  0  0  0
  -26.8154  -20.8769   15.8910 C   0  0  0  0  0  0  0  0  0  0  0  0
  -28.2566  -20.0168   21.2468 C   0  0  0  0  0  0  0  0  0  0  0  0
  -26.4864  -16.2101   15.3987 C   0  0  0  0  0  0  0  0  0  0  0  0
  -26.1654  -15.0275   16.0649 C   0  0  0  0  0  0  0  0  0  0  0  0
  -23.4155  -30.6268   21.5091 C   0  0  0  0  0  0  0  0  0  0  0  0
  -25.8896  -19.5510   21.2414 C   0  0  0  0  0  0  0  0  0  0  0  0
  -25.7960  -30.9894   21.3116 C   0  0  0  0  0  0  0  0  0  0  0  0
  -25.0437  -16.3006   17.7848 C   0  0  0  0  0  0  0  0  0  0  0  0
  -28.7177  -21.4031   17.2842 C   0  0  0  0  0  0  0  0  0  0  0  0
  -30.8833  -22.6566   17.7809 C   0  0  0  0  0  0  0  0  0  0  0  0
  -30.2852  -12.6628   19.1857 C   0  0  0  0  0  0  0  0  0  0  0  0
  -27.4337  -17.9036   22.1141 C   0  0  0  0  0  0  0  0  0  0  0  0
  -29.4641  -13.8056   19.1400 C   0  0  0  0  0  0  0  0  0  0  0  0
  -26.1183  -18.2983   21.8308 C   0  0  0  0  0  0  0  0  0  0  0  0
  -24.7332  -29.2279   20.0450 C   0  0  0  0  0  0  0  0  0  0  0  0
  -25.8809  -29.9360   20.4013 C   0  0  0  0  0  0  0  0  0  0  0  0
  -27.1634  -19.5266   15.9257 C   0  0  0  0  0  0  0  0  0  0  0  0
  -26.9533  -20.4046   20.9496 C   0  0  0  0  0  0  0  0  0  0  0  0
  -26.0862  -17.4381   15.9256 C   0  0  0  0  0  0  0  0  0  0  0  0
  -25.4441  -15.0727   17.2579 C   0  0  0  0  0  0  0  0  0  0  0  0
  -25.3648  -17.4833   17.1186 C   0  0  0  0  0  0  0  0  0  0  0  0
  -24.5633  -31.3349   21.8655 C   0  0  0  0  0  0  0  0  0  0  0  0
  -29.5198  -22.3727   17.9860 C   0  0  0  0  0  0  0  0  0  0  0  0
  -31.1688  -23.6455   18.6903 C   0  0  0  0  0  0  0  0  0  0  0  0
  -25.3170  -23.2989   19.4539 C   0  0  0  0  0  0  0  0  0  0  0  0
  -31.8091  -22.0781   16.8513 C   0  0  0  0  0  0  0  0  0  0  0  0
  -24.6591  -24.3898   19.8901 C   0  0  0  0  0  0  0  0  0  0  0  0
  -24.7793  -25.6144   19.0253 C   0  0  0  0  0  0  0  0  0  0  0  0
  -26.5996  -14.9917   21.1502 C   0  0  0  0  0  0  0  0  0  0  0  0
  -24.2936  -15.3291   23.4065 C   0  0  0  0  0  0  0  0  0  0  0  0
  -22.3677  -17.4243   25.2900 C   0  0  0  0  0  0  0  0  0  0  0  0
  -27.7969  -27.7740   21.4174 C   0  0  0  0  0  0  0  0  0  0  0  0
  -29.7325  -11.3020   19.5288 C   0  0  0  0  0  0  0  0  0  0  0  0
  -27.7067  -16.5769   22.7681 C   0  0  0  0  0  0  0  0  0  0  0  0
  -24.9409  -17.4096   22.1345 C   0  0  0  0  0  0  0  0  0  0  0  0
  -28.3752  -11.3539   20.2255 C   0  0  0  0  0  0  0  0  0  0  0  0
  -29.8224  -25.2946   22.9750 C   0  0  0  0  0  0  0  0  0  0  0  0
  -27.4397  -12.3165   19.5010 C   0  0  0  0  0  0  0  0  0  0  0  0
  -30.0976  -24.2902   21.8545 C   0  0  0  0  0  0  0  0  0  0  0  0
  -28.4121  -25.8725   22.8810 C   0  0  0  0  0  0  0  0  0  0  0  0
  -28.3454  -25.4578   20.4526 C   0  0  0  0  0  0  0  0  0  0  0  0
  -27.9990  -13.7443   19.5143 C   0  0  1  0  0  0  0  0  0  0  0  0
  -26.5934  -15.5587   22.5417 C   0  0  1  0  0  0  0  0  0  0  0  0
  -29.7747  -24.8895   20.4725 C   0  0  2  0  0  0  0  0  0  0  0  0
  -23.8823  -24.4781   21.1702 C   0  0  0  0  0  0  0  0  0  0  0  0
  -20.5469  -17.4069   27.0168 C   0  0  0  0  0  0  0  0  0  0  0  0
  -22.2530  -14.6431   21.2444 C   0  0  0  0  0  0  0  0  0  0  0  0
  -20.4648  -15.5554   22.7405 C   0  0  0  0  0  0  0  0  0  0  0  0
  -21.8124  -13.5862   23.4677 C   0  0  0  0  0  0  0  0  0  0  0  0
  -24.0744  -18.8096   27.2717 C   0  0  0  0  0  0  0  0  0  0  0  0
  -24.8004  -28.0898   19.0680 C   0  0  0  0  0  0  0  0  0  0  0  0
  -27.2118  -29.5831   19.8224 C   0  0  0  0  0  0  0  0  0  0  0  0
  -25.3570  -21.9502   20.1019 C   0  0  0  0  0  0  0  0  0  1  0  0
  -22.8861  -15.8747   23.4235 C   0  0  1  0  0  0  0  0  0  0  0  0
  -22.0478  -17.4370   26.7740 C   0  0  2  0  0  0  0  0  0  0  0  0
  -21.8762  -14.9310   22.7114 C   0  0  0  0  0  0  0  0  0  0  0  0
  -28.9768  -23.1208   18.9502 N   0  0  0  0  0  0  0  0  0  0  0  0
  -30.0044  -23.8844   19.3590 N   0  0  0  0  0  0  0  0  0  0  0  0
  -25.2598  -16.1196   22.7682 N   0  0  0  0  0  0  0  0  0  0  0  0
  -28.1704  -26.4261   21.5465 N   0  0  0  0  0  0  0  0  0  0  0  0
  -32.2998  -24.3253   18.9752 N   0  0  0  0  0  0  0  0  0  0  0  0
  -31.9371  -22.6631   15.5842 N   0  0  0  0  0  0  0  0  0  0  0  0
  -24.7000  -26.8069   19.7247 N   0  0  0  0  0  0  0  0  0  0  0  0
  -27.7797  -14.3611   20.8049 N   0  0  0  0  0  0  0  0  0  0  0  0
  -22.5692  -16.1431   24.8220 N   0  0  0  0  0  0  0  0  0  0  0  0
  -27.5935  -28.2200   20.1172 N   0  0  0  0  0  0  0  0  0  0  0  0
  -22.6028  -18.6637   27.4129 N   0  3  0  0  0  0  0  0  0  0  0  0
  -32.4902  -21.0623   17.1302 O   0  0  0  0  0  0  0  0  0  0  0  0
  -24.9386  -25.5332   17.8089 O   0  0  0  0  0  0  0  0  0  0  0  0
  -25.6067  -15.1158   20.4428 O   0  0  0  0  0  0  0  0  0  0  0  0
  -24.5286  -14.2451   23.9462 O   0  0  0  0  0  0  0  0  0  0  0  0
  -22.4287  -18.4482   24.6130 O   0  0  0  0  0  0  0  0  0  0  0  0
  -27.6604  -28.5258   22.3885 O   0  0  0  0  0  0  0  0  0  0  0  0
  -26.4050  -18.6114   15.2627 O   0  0  0  0  0  0  0  0  0  0  0  0
  -26.7166  -21.6173   20.3795 O   0  0  0  0  0  0  0  0  0  1  0  0
  -25.1345  -13.9367   17.8967 F   0  0  0  0  0  0  0  0  0  0  0  0
  -24.9765  -18.6600   17.6291 F   0  0  0  0  0  0  0  0  0  0  0  0
  -24.4583  -32.6331   22.9898 Cl  0  0  0  0  0  0  0  0  0  0  0  0
  1  2  1  0  0  0  0
  1  5  2  0  0  0  0
  2  6  2  0  0  0  0
  3  9  2  0  0  0  0
  3 18  1  0  0  0  0
  4 10  1  0  0  0  0
  4 18  2  0  0  0  0
  5 20  1  0  0  0  0
  6 22  1  0  0  0  0
  7 11  2  0  0  0  0
  7 21  1  0  0  0  0
  8 14  2  0  0  0  0
  8 24  1  0  0  0  0
  9 26  1  0  0  0  0
 10 26  2  0  0  0  0
 11 27  1  0  0  0  0
 12 13  2  0  0  0  0
 12 28  1  0  0  0  0
 13 29  1  0  0  0  0
 14 31  1  0  0  0  0
 15 23  1  0  0  0  0
 15 27  2  0  0  0  0
 16 25  1  0  0  0  0
 16 31  2  0  0  0  0
 17 29  2  0  0  0  0
 17 30  1  0  0  0  0
 18 32  1  0  0  0  0
 19 32  1  0  0  0  0
 19 33  2  0  0  0  0
 19 35  1  0  0  0  0
 20 22  2  0  0  0  0
 20 42  1  0  0  0  0
 21 23  2  0  0  0  0
 21 43  1  0  0  0  0
 22 51  1  0  0  0  0
 23 44  1  0  0  0  0
 24 25  2  0  0  0  0
 24 60  1  0  0  0  0
 25 61  1  0  0  0  0
 26 83  1  0  0  0  0
 27 84  1  0  0  0  0
 28 30  2  0  0  0  0
 28 83  1  0  0  0  0
 29 85  1  0  0  0  0
 30 86  1  0  0  0  0
 31 87  1  0  0  0  0
 32 66  2  0  0  0  0
 33 67  1  0  0  0  0
 33 70  1  0  0  0  0
 34 36  2  0  0  0  0
 34 62  1  0  0  0  0
 35 71  1  0  0  0  0
 35 77  2  0  0  0  0
 36 37  1  0  0  0  0
 36 54  1  0  0  0  0
 37 72  1  0  0  0  0
 37 78  2  0  0  0  0
 38 52  1  0  0  0  0
 38 73  1  0  0  0  0
 38 79  2  0  0  0  0
 39 63  1  0  0  0  0
 39 68  1  0  0  0  0
 39 80  2  0  0  0  0
 40 64  1  0  0  0  0
 40 74  1  0  0  0  0
 40 81  2  0  0  0  0
 41 69  1  0  0  0  0
 41 75  1  0  0  0  0
 41 82  2  0  0  0  0
 42 45  1  0  0  0  0
 43 52  1  0  0  0  0
 44 68  1  0  0  0  0
 45 47  1  0  0  0  0
 46 48  1  0  0  0  0
 46 49  1  0  0  0  0
 47 51  1  0  0  0  0
 48 53  1  0  0  0  0
 49 69  1  0  0  0  0
 50 53  1  0  0  0  0
 50 69  1  0  0  0  0
 51 73  1  0  0  0  0
 52 68  1  0  0  0  0
 53 67  1  0  0  0  0
 55 64  1  0  0  0  0
 56 65  1  0  0  0  0
 57 65  1  0  0  0  0
 58 65  1  0  0  0  0
 59 76  1  0  0  0  0
 60 72  1  0  0  0  0
 61 75  1  0  0  0  0
 62 84  1  0  0  0  0
 63 65  1  0  0  0  0
 63 74  1  0  0  0  0
 64 76  1  0  0  0  0
 66 67  1  0  0  0  0
M  CHG  1  76   1
M  ISO  4  41 100  62 101  75 100  84 101
M  END
> <Batch ID>
0050

> <Smiles>
CNC(C)C(=O)NC(C(=O)N1Cc2cc([101O:1][101CH2:1]C=C(C)C(=O)NCc3ccc(Cl)cc3C[100NH:0][100C:0](=O)N3CCCC(n4nc(-c5ccc(Oc6ccc(F)cc6F)cc5)c(C(N)=O)c4N)C3)ccc2CC1C(=O)NC1CCCc2ccccc21)C(C)(C)C

> <Shape>
0.186

> <Color>
0.072

> <Negative vol penalty>
0.000

$$$$

  -OEChem-04042322353D

 83 91  0     1  0  0  0  0  0999 V2000
  -28.1560  -36.4029   22.4316 C   0  0  0  0  0  0  0  0  0  0  0  0
  -28.4341  -35.0417   22.3602 C   0  0  0  0  0  0  0  0  0  0  0  0
  -29.9276  -20.9114   23.5154 C   0  0  0  0  0  0  0  0  0  0  0  0
  -24.6605  -12.2857   19.7749 C   0  0  0  0  0  0  0  0  0  0  0  0
  -25.6663  -12.9811   21.8586 C   0  0  0  0  0  0  0  0  0  0  0  0
  -26.9221  -36.8368   22.9146 C   0  0  0  0  0  0  0  0  0  0  0  0
  -27.4787  -34.1135   22.7728 C   0  0  0  0  0  0  0  0  0  0  0  0
  -26.9972  -30.2507   19.5337 C   0  0  0  0  0  0  0  0  0  0  0  0
  -30.8861  -21.7056   22.8862 C   0  0  0  0  0  0  0  0  0  0  0  0
  -28.8507  -20.4080   22.7856 C   0  0  0  0  0  0  0  0  0  0  0  0
  -25.1773  -11.0025   19.9537 C   0  0  0  0  0  0  0  0  0  0  0  0
  -26.1830  -11.6979   22.0375 C   0  0  0  0  0  0  0  0  0  0  0  0
  -27.9729  -29.2559   19.5794 C   0  0  0  0  0  0  0  0  0  0  0  0
  -24.4250   -8.2431   21.7573 C   0  0  0  0  0  0  0  0  0  0  0  0
  -23.5758   -7.1630   21.5169 C   0  0  0  0  0  0  0  0  0  0  0  0
  -26.4884  -27.8681   20.8792 C   0  0  0  0  0  0  0  0  0  0  0  0
  -29.6908  -21.4933   20.7973 C   0  0  0  0  0  0  0  0  0  0  0  0
  -25.0775   -6.3645   19.8009 C   0  0  0  0  0  0  0  0  0  0  0  0
  -24.9050  -13.2750   20.7273 C   0  0  0  0  0  0  0  0  0  0  0  0
  -23.1255  -15.0848   20.9833 C   0  0  0  0  0  0  0  0  0  0  0  0
  -25.9476  -35.9132   23.3242 C   0  0  0  0  0  0  0  0  0  0  0  0
  -25.7617  -30.0657   20.1706 C   0  0  0  0  0  0  0  0  0  0  0  0
  -26.2312  -34.5355   23.2630 C   0  0  0  0  0  0  0  0  0  0  0  0
  -25.4977  -28.8610   20.8378 C   0  0  0  0  0  0  0  0  0  0  0  0
  -30.7677  -21.9966   21.5271 C   0  0  0  0  0  0  0  0  0  0  0  0
  -28.7323  -20.6989   21.4266 C   0  0  0  0  0  0  0  0  0  0  0  0
  -25.9385  -10.7086   21.0850 C   0  0  0  0  0  0  0  0  0  0  0  0
  -27.7197  -28.0656   20.2547 C   0  0  0  0  0  0  0  0  0  0  0  0
  -25.6004   -8.3840   21.0195 C   0  0  0  0  0  0  0  0  0  0  0  0
  -23.9021   -6.2237   20.5387 C   0  0  0  0  0  0  0  0  0  0  0  0
  -25.9266   -7.4447   20.0413 C   0  0  0  0  0  0  0  0  0  0  0  0
  -24.3720  -14.6009   20.5429 C   0  0  0  0  0  0  0  0  0  0  0  0
  -23.0963  -16.3918   20.5621 C   0  0  0  0  0  0  0  0  0  0  0  0
  -22.0869  -14.4130   21.7083 C   0  0  0  0  0  0  0  0  0  0  0  0
  -24.2131  -31.5283   22.5299 C   0  0  0  0  0  0  0  0  0  0  0  0
  -21.8259  -29.4945   21.7008 C   0  0  0  0  0  0  0  0  0  0  0  0
  -30.8573  -25.1240   20.4535 C   0  0  0  0  0  0  0  0  0  0  0  0
  -20.9050  -26.5462   20.2495 C   0  0  0  0  0  0  0  0  0  0  0  0
  -27.3720  -20.3801   19.3304 C   0  0  0  0  0  0  0  0  0  0  0  0
  -24.6462  -36.4311   23.8836 C   0  0  0  0  0  0  0  0  0  0  0  0
  -24.7097  -31.1377   20.0893 C   0  0  0  0  0  0  0  0  0  0  0  0
  -24.1799  -28.6049   21.5207 C   0  0  0  0  0  0  0  0  0  0  0  0
  -23.5476  -35.3733   23.9494 C   0  0  0  0  0  0  0  0  0  0  0  0
  -24.8077  -19.2590   17.1292 C   0  0  0  0  0  0  0  0  0  0  0  0
  -24.0888  -34.0781   24.5463 C   0  0  0  0  0  0  0  0  0  0  0  0
  -24.2874  -17.9846   17.7980 C   0  0  0  0  0  0  0  0  0  0  0  0
  -26.3182  -19.4123   17.2986 C   0  0  0  0  0  0  0  0  0  0  0  0
  -26.2792  -18.0518   19.3521 C   0  0  0  0  0  0  0  0  0  0  0  0
  -25.2113  -33.4972   23.6778 C   0  0  1  0  0  0  0  0  0  0  0  0
  -23.6784  -31.0491   21.2100 C   0  0  1  0  0  0  0  0  0  0  0  0
  -24.7532  -17.8870   19.2640 C   0  0  2  0  0  0  0  0  0  0  0  0
  -18.8864  -25.1392   19.7565 C   0  0  0  0  0  0  0  0  0  0  0  0
  -21.7217  -28.6242   24.6234 C   0  0  0  0  0  0  0  0  0  0  0  0
  -20.4132  -26.6140   23.9057 C   0  0  0  0  0  0  0  0  0  0  0  0
  -19.4862  -28.9003   23.5368 C   0  0  0  0  0  0  0  0  0  0  0  0
  -21.3641  -26.7044   17.3301 C   0  0  0  0  0  0  0  0  0  0  0  0
  -31.7998  -22.8516   20.8503 C   0  0  0  0  0  0  0  0  0  0  0  0
  -30.8899  -26.5269   21.0395 C   0  0  0  0  0  0  0  0  0  0  0  0
  -30.0333  -27.5150   20.2629 C   0  0  0  0  0  0  0  0  0  1  0  0
  -21.4169  -28.1012   22.1135 C   0  0  1  0  0  0  0  0  0  0  0  0
  -19.8244  -26.2169   19.2355 C   0  0  2  0  0  0  0  0  0  0  0  0
  -20.7851  -28.0652   23.5337 C   0  0  0  0  0  0  0  0  0  0  0  0
  -25.0831  -15.5252   19.8917 N   0  0  0  0  0  0  0  0  0  0  0  0
  -24.2808  -16.6030   19.9198 N   0  0  0  0  0  0  0  0  0  0  0  0
  -23.1858  -29.6860   21.4184 N   0  0  0  0  0  0  0  0  0  0  0  0
  -26.6851  -19.3134   18.7130 N   0  0  0  0  0  0  0  0  0  0  0  0
  -22.1733  -17.3695   20.6821 N   0  0  0  0  0  0  0  0  0  0  0  0
  -22.2799  -13.0707   22.0623 N   0  0  0  0  0  0  0  0  0  0  0  0
  -27.6386  -20.1868   20.6854 N   0  0  0  0  0  0  0  0  0  0  0  0
  -24.6597  -32.8359   22.5147 N   0  0  0  0  0  0  0  0  0  0  0  0
  -31.6479  -24.2494   21.1849 N   0  0  0  0  0  0  0  0  0  0  0  0
  -20.5422  -27.6029   21.0576 N   0  0  0  0  0  0  0  0  0  0  0  0
  -20.4360  -25.7338   17.9652 N   0  3  0  0  0  0  0  0  0  0  0  0
  -21.0124  -14.9812   22.0183 O   0  0  0  0  0  0  0  0  0  0  0  0
  -24.2185  -30.7685   23.4914 O   0  0  0  0  0  0  0  0  0  0  0  0
  -20.9691  -30.3787   21.6247 O   0  0  0  0  0  0  0  0  0  0  0  0
  -30.2053  -24.8254   19.4566 O   0  0  0  0  0  0  0  0  0  0  0  0
  -21.9634  -25.9255   20.3204 O   0  0  0  0  0  0  0  0  0  0  0  0
  -27.6755  -21.4022   18.7097 O   0  0  0  0  0  0  0  0  0  0  0  0
  -26.4428   -9.4565   21.2599 O   0  0  0  0  0  0  0  0  0  0  0  0
  -28.6706  -27.0932   20.3015 O   0  0  0  0  0  0  0  0  0  1  0  0
  -23.0873   -5.1856   20.3089 F   0  0  0  0  0  0  0  0  0  0  0  0
  -27.0550   -7.5741   19.3301 F   0  0  0  0  0  0  0  0  0  0  0  0
  1  2  1  0  0  0  0
  1  6  2  0  0  0  0
  2  7  2  0  0  0  0
  3  9  2  0  0  0  0
  3 10  1  0  0  0  0
  4 11  2  0  0  0  0
  4 19  1  0  0  0  0
  5 12  1  0  0  0  0
  5 19  2  0  0  0  0
  6 21  1  0  0  0  0
  7 23  1  0  0  0  0
  8 13  2  0  0  0  0
  8 22  1  0  0  0  0
  9 25  1  0  0  0  0
 10 26  2  0  0  0  0
 11 27  1  0  0  0  0
 12 27  2  0  0  0  0
 13 28  1  0  0  0  0
 14 15  2  0  0  0  0
 14 29  1  0  0  0  0
 15 30  1  0  0  0  0
 16 24  1  0  0  0  0
 16 28  2  0  0  0  0
 17 25  2  0  0  0  0
 17 26  1  0  0  0  0
 18 30  2  0  0  0  0
 18 31  1  0  0  0  0
 19 32  1  0  0  0  0
 20 32  1  0  0  0  0
 20 33  2  0  0  0  0
 20 34  1  0  0  0  0
 21 23  2  0  0  0  0
 21 40  1  0  0  0  0
 22 24  2  0  0  0  0
 22 41  1  0  0  0  0
 23 49  1  0  0  0  0
 24 42  1  0  0  0  0
 25 57  1  0  0  0  0
 26 69  1  0  0  0  0
 27 80  1  0  0  0  0
 28 81  1  0  0  0  0
 29 31  2  0  0  0  0
 29 80  1  0  0  0  0
 30 82  1  0  0  0  0
 31 83  1  0  0  0  0
 32 63  2  0  0  0  0
 33 64  1  0  0  0  0
 33 67  1  0  0  0  0
 34 68  1  0  0  0  0
 34 74  2  0  0  0  0
 35 50  1  0  0  0  0
 35 70  1  0  0  0  0
 35 75  2  0  0  0  0
 36 60  1  0  0  0  0
 36 65  1  0  0  0  0
 36 76  2  0  0  0  0
 37 58  1  0  0  0  0
 37 71  1  0  0  0  0
 37 77  2  0  0  0  0
 38 61  1  0  0  0  0
 38 72  1  0  0  0  0
 38 78  2  0  0  0  0
 39 66  1  0  0  0  0
 39 69  1  0  0  0  0
 39 79  2  0  0  0  0
 40 43  1  0  0  0  0
 41 50  1  0  0  0  0
 42 65  1  0  0  0  0
 43 45  1  0  0  0  0
 44 46  1  0  0  0  0
 44 47  1  0  0  0  0
 45 49  1  0  0  0  0
 46 51  1  0  0  0  0
 47 66  1  0  0  0  0
 48 51  1  0  0  0  0
 48 66  1  0  0  0  0
 49 70  1  0  0  0  0
 50 65  1  0  0  0  0
 51 64  1  0  0  0  0
 52 61  1  0  0  0  0
 53 62  1  0  0  0  0
 54 62  1  0  0  0  0
 55 62  1  0  0  0  0
 56 73  1  0  0  0  0
 57 71  1  0  0  0  0
 58 59  1  0  0  0  0
 59 81  1  0  0  0  0
 60 62  1  0  0  0  0
 60 72  1  0  0  0  0
 61 73  1  0  0  0  0
 63 64  1  0  0  0  0
M  CHG  1  73   1
M  ISO  4  39 100  59 101  69 100  81 101
M  END
> <Batch ID>
0050

> <Smiles>
CNC(C)C(=O)NC(C(=O)N1Cc2cc([101O:1][101CH2:1]CC(=O)NCc3cccc([100NH:0][100C:0](=O)N4CCCC(n5nc(-c6ccc(Oc7ccc(F)cc7F)cc6)c(C(N)=O)c5N)C4)c3)ccc2CC1C(=O)NC1CCCc2ccccc21)C(C)(C)C

> <Shape>
0.274

> <Color>
0.093

> <Negative vol penalty>
0.000

$$$$

  -OEChem-04042322353D

 89 98  0     1  0  0  0  0  0999 V2000
  -28.6697  -33.4765   26.2042 C   0  0  0  0  0  0  0  0  0  0  0  0
  -28.6825  -32.2842   25.4874 C   0  0  0  0  0  0  0  0  0  0  0  0
  -23.8779   -9.1995   21.0240 C   0  0  0  0  0  0  0  0  0  0  0  0
  -25.3192   -9.6649   22.9063 C   0  0  0  0  0  0  0  0  0  0  0  0
  -27.4604  -34.0063   26.6523 C   0  0  0  0  0  0  0  0  0  0  0  0
  -27.4859  -31.6204   25.2193 C   0  0  0  0  0  0  0  0  0  0  0  0
  -27.1916  -30.0054   20.4287 C   0  0  0  0  0  0  0  0  0  0  0  0
  -30.1317  -20.2743   22.2697 C   0  0  0  0  0  0  0  0  0  0  0  0
  -30.0378  -19.0214   21.6639 C   0  0  0  0  0  0  0  0  0  0  0  0
  -23.5401   -7.9688   21.5869 C   0  0  0  0  0  0  0  0  0  0  0  0
  -24.9813   -8.4342   23.4693 C   0  0  0  0  0  0  0  0  0  0  0  0
  -27.8981  -28.8486   20.1022 C   0  0  0  0  0  0  0  0  0  0  0  0
  -21.4884   -6.8203   24.0167 C   0  0  0  0  0  0  0  0  0  0  0  0
  -20.1419   -6.4562   24.0187 C   0  0  0  0  0  0  0  0  0  0  0  0
  -25.8625  -27.5651   20.2704 C   0  0  0  0  0  0  0  0  0  0  0  0
  -27.6300  -19.1180   21.8372 C   0  0  0  0  0  0  0  0  0  0  0  0
  -20.6698   -4.4973   22.7067 C   0  0  0  0  0  0  0  0  0  0  0  0
  -24.7675  -10.0475   21.6837 C   0  0  0  0  0  0  0  0  0  0  0  0
  -24.2456  -12.3784   20.7880 C   0  0  0  0  0  0  0  0  0  0  0  0
  -26.2474  -33.3536   26.3811 C   0  0  0  0  0  0  0  0  0  0  0  0
  -25.8150  -29.9488   20.6896 C   0  0  0  0  0  0  0  0  0  0  0  0
  -26.2593  -32.1413   25.6653 C   0  0  0  0  0  0  0  0  0  0  0  0
  -25.1404  -28.7230   20.5975 C   0  0  0  0  0  0  0  0  0  0  0  0
  -28.9747  -20.9491   22.6593 C   0  0  0  0  0  0  0  0  0  0  0  0
  -27.7239  -20.3710   22.4430 C   0  0  0  0  0  0  0  0  0  0  0  0
  -28.7870  -18.4433   21.4477 C   0  0  0  0  0  0  0  0  0  0  0  0
  -24.0917   -7.5862   22.8095 C   0  0  0  0  0  0  0  0  0  0  0  0
  -27.2341  -27.6278   20.0259 C   0  0  0  0  0  0  0  0  0  0  0  0
  -22.4256   -6.0230   23.3596 C   0  0  0  0  0  0  0  0  0  0  0  0
  -19.7326   -5.2947   23.3637 C   0  0  0  0  0  0  0  0  0  0  0  0
  -22.0162   -4.8615   22.7047 C   0  0  0  0  0  0  0  0  0  0  0  0
  -25.1174  -11.3187   21.1024 C   0  0  0  0  0  0  0  0  0  0  0  0
  -25.0620  -13.3505   20.2634 C   0  0  0  0  0  0  0  0  0  0  0  0
  -27.7247  -24.2583   22.7415 C   0  0  0  0  0  0  0  0  0  0  0  0
  -22.8250  -12.4755   20.9553 C   0  0  0  0  0  0  0  0  0  0  0  0
  -23.9806  -30.5892   23.2053 C   0  0  0  0  0  0  0  0  0  0  0  0
  -21.5748  -30.0092   21.1081 C   0  0  0  0  0  0  0  0  0  0  0  0
  -20.5411  -28.4881   18.2333 C   0  0  0  0  0  0  0  0  0  0  0  0
  -29.7395  -16.3687   20.3821 C   0  0  0  0  0  0  0  0  0  0  0  0
  -24.9696  -33.9402   26.9268 C   0  0  0  0  0  0  0  0  0  0  0  0
  -25.0623  -31.2100   21.0143 C   0  0  0  0  0  0  0  0  0  0  0  0
  -23.6595  -28.6120   20.8486 C   0  0  0  0  0  0  0  0  0  0  0  0
  -27.3551  -25.3141   21.7166 C   0  0  0  0  0  0  0  0  0  0  0  0
  -23.7114  -33.3694   26.2777 C   0  0  0  0  0  0  0  0  0  0  0  0
  -29.9176  -13.1618   18.8457 C   0  0  0  0  0  0  0  0  0  0  0  0
  -23.7945  -31.8483   26.1990 C   0  0  0  0  0  0  0  0  0  0  0  0
  -28.6129  -12.4835   19.2700 C   0  0  0  0  0  0  0  0  0  0  0  0
  -29.1292  -24.5059   20.1940 C   0  0  0  0  0  0  0  0  0  0  0  0
  -30.4895  -14.0378   19.9589 C   0  0  0  0  0  0  0  0  0  0  0  0
  -29.6571  -23.5777   21.2714 C   0  0  0  0  0  0  0  0  0  0  0  0
  -28.2502  -14.3468   20.9384 C   0  0  0  0  0  0  0  0  0  0  0  0
  -24.9798  -31.4046   25.3331 C   0  0  1  0  0  0  0  0  0  0  0  0
  -23.7590  -30.9518   21.7641 C   0  0  1  0  0  0  0  0  0  0  0  0
  -27.6021  -13.5050   19.8272 C   0  0  2  0  0  0  0  0  0  0  0  0
  -28.4847  -25.7513   20.7913 C   0  0  2  0  0  0  0  0  0  1  0  0
  -29.4937  -26.6550   21.5045 C   0  0  0  0  0  0  0  0  0  0  0  0
  -18.5094  -28.1652   16.7962 C   0  0  0  0  0  0  0  0  0  0  0  0
  -20.4758  -27.9944   23.1187 C   0  0  0  0  0  0  0  0  0  0  0  0
  -19.0553  -27.0470   21.2877 C   0  0  0  0  0  0  0  0  0  0  0  0
  -18.7410  -29.4139   22.0099 C   0  0  0  0  0  0  0  0  0  0  0  0
  -21.8318  -29.7955   15.9130 C   0  0  0  0  0  0  0  0  0  0  0  0
  -29.1011  -22.2962   23.3101 C   0  0  0  0  0  0  0  0  0  0  0  0
  -26.4715  -21.0758   22.8499 C   0  0  0  0  0  0  0  0  0  0  0  0
  -20.7991  -28.7860   20.6826 C   0  0  1  0  0  0  0  0  0  0  0  0
  -19.7500  -29.0083   17.0467 C   0  0  2  0  0  0  0  0  0  0  0  0
  -19.7961  -28.3118   21.7718 C   0  0  0  0  0  0  0  0  0  0  0  0
  -26.3900  -11.5916   20.8024 N   0  0  0  0  0  0  0  0  0  0  0  0
  -26.3239  -12.8338   20.2940 N   0  0  0  0  0  0  0  0  0  0  0  0
  -28.7479  -23.3772   22.3992 N   0  0  0  0  0  0  0  0  0  0  0  0
  -22.9688  -29.8722   21.1688 N   0  0  0  0  0  0  0  0  0  0  0  0
  -29.4772  -14.9834   20.4343 N   0  0  0  0  0  0  0  0  0  0  0  0
  -24.8164  -14.5881   19.7835 N   0  0  0  0  0  0  0  0  0  0  0  0
  -22.3278  -12.9907   22.1602 N   0  0  0  0  0  0  0  0  0  0  0  0
  -28.6910  -17.1714   20.8306 N   0  0  0  0  0  0  0  0  0  0  0  0
  -24.6619  -31.5494   23.9287 N   0  0  0  0  0  0  0  0  0  0  0  0
  -20.1797  -29.1196   19.4045 N   0  0  0  0  0  0  0  0  0  0  0  0
  -20.5891  -28.9872   15.8153 N   0  3  0  0  0  0  0  0  0  0  0  0
  -27.0639  -24.1798   23.7811 O   0  0  0  0  0  0  0  0  0  0  0  0
  -22.0200  -12.1009   20.0692 O   0  0  0  0  0  0  0  0  0  0  0  0
  -23.5630  -29.5182   23.6300 O   0  0  0  0  0  0  0  0  0  0  0  0
  -20.9668  -31.0501   21.3699 O   0  0  0  0  0  0  0  0  0  0  0  0
  -21.3918  -27.6069   18.1319 O   0  0  0  0  0  0  0  0  0  0  0  0
  -30.8046  -16.8115   19.9446 O   0  0  0  0  0  0  0  0  0  0  0  0
  -23.7621   -6.3855   23.3592 O   0  0  0  0  0  0  0  0  0  0  0  0
  -27.9214  -26.4971   19.7080 O   0  0  0  0  0  0  0  0  0  1  0  0
  -18.4398   -4.9443   23.3670 F   0  0  0  0  0  0  0  0  0  0  0  0
  -22.9121   -4.0909   22.0727 F   0  0  0  0  0  0  0  0  0  0  0  0
  -26.4524  -21.2877   24.1913 F   0  0  0  0  0  0  0  0  0  0  0  0
  -25.3797  -20.3209   22.5620 F   0  0  0  0  0  0  0  0  0  0  0  0
  1  2  1  0  0  0  0
  1  5  2  0  0  0  0
  2  6  2  0  0  0  0
  3 10  2  0  0  0  0
  3 18  1  0  0  0  0
  4 11  1  0  0  0  0
  4 18  2  0  0  0  0
  5 20  1  0  0  0  0
  6 22  1  0  0  0  0
  7 12  2  0  0  0  0
  7 21  1  0  0  0  0
  8  9  2  0  0  0  0
  8 24  1  0  0  0  0
  9 26  1  0  0  0  0
 10 27  1  0  0  0  0
 11 27  2  0  0  0  0
 12 28  1  0  0  0  0
 13 14  2  0  0  0  0
 13 29  1  0  0  0  0
 14 30  1  0  0  0  0
 15 23  1  0  0  0  0
 15 28  2  0  0  0  0
 16 25  1  0  0  0  0
 16 26  2  0  0  0  0
 17 30  2  0  0  0  0
 17 31  1  0  0  0  0
 18 32  1  0  0  0  0
 19 32  1  0  0  0  0
 19 33  2  0  0  0  0
 19 35  1  0  0  0  0
 20 22  2  0  0  0  0
 20 40  1  0  0  0  0
 21 23  2  0  0  0  0
 21 41  1  0  0  0  0
 22 52  1  0  0  0  0
 23 42  1  0  0  0  0
 24 25  2  0  0  0  0
 24 62  1  0  0  0  0
 25 63  1  0  0  0  0
 26 74  1  0  0  0  0
 27 84  1  0  0  0  0
 28 85  1  0  0  0  0
 29 31  2  0  0  0  0
 29 84  1  0  0  0  0
 30 86  1  0  0  0  0
 31 87  1  0  0  0  0
 32 67  2  0  0  0  0
 33 68  1  0  0  0  0
 33 72  1  0  0  0  0
 34 43  1  0  0  0  0
 34 69  1  0  0  0  0
 34 78  2  0  0  0  0
 35 73  1  0  0  0  0
 35 79  2  0  0  0  0
 36 53  1  0  0  0  0
 36 75  1  0  0  0  0
 36 80  2  0  0  0  0
 37 64  1  0  0  0  0
 37 70  1  0  0  0  0
 37 81  2  0  0  0  0
 38 65  1  0  0  0  0
 38 76  1  0  0  0  0
 38 82  2  0  0  0  0
 39 71  1  0  0  0  0
 39 74  1  0  0  0  0
 39 83  2  0  0  0  0
 40 44  1  0  0  0  0
 41 53  1  0  0  0  0
 42 70  1  0  0  0  0
 43 55  1  0  0  0  0
 44 46  1  0  0  0  0
 45 47  1  0  0  0  0
 45 49  1  0  0  0  0
 46 52  1  0  0  0  0
 47 54  1  0  0  0  0
 48 50  1  0  0  0  0
 48 55  1  0  0  0  0
 49 71  1  0  0  0  0
 50 69  1  0  0  0  0
 51 54  1  0  0  0  0
 51 71  1  0  0  0  0
 52 75  1  0  0  0  0
 53 70  1  0  0  0  0
 54 68  1  0  0  0  0
 55 56  1  0  0  0  0
 55 85  1  0  0  0  0
 57 65  1  0  0  0  0
 58 66  1  0  0  0  0
 59 66  1  0  0  0  0
 60 66  1  0  0  0  0
 61 77  1  0  0  0  0
 62 69  1  0  0  0  0
 63 88  1  0  0  0  0
 63 89  1  0  0  0  0
 64 66  1  0  0  0  0
 64 76  1  0  0  0  0
 65 77  1  0  0  0  0
 67 68  1  0  0  0  0
M  CHG  1  77   1
M  ISO  4  39 100  55 101  74 100  85 101
M  END
> <Batch ID>
0050

> <Smiles>
CNC(C)C(=O)NC(C(=O)N1Cc2cc([101O:1][101C:1]3(C)CCN(Cc4ccc([100NH:0][100C:0](=O)N5CCCC(n6nc(-c7ccc(Oc8ccc(F)cc8F)cc7)c(C(N)=O)c6N)C5)cc4C(F)F)C(=O)C3)ccc2CC1C(=O)NC1CCCc2ccccc21)C(C)(C)C

> <Shape>
0.349

> <Color>
0.146

> <Negative vol penalty>
0.000

$$$$

  -OEChem-04042322353D

 84 92  0     1  0  0  0  0  0999 V2000
  -27.5110  -36.3348   16.9490 C   0  0  0  0  0  0  0  0  0  0  0  0
  -27.9688  -35.0316   17.1150 C   0  0  0  0  0  0  0  0  0  0  0  0
  -24.3077   -9.1401   21.3874 C   0  0  0  0  0  0  0  0  0  0  0  0
  -22.9153  -11.0247   20.7990 C   0  0  0  0  0  0  0  0  0  0  0  0
  -26.6970  -36.9155   17.9206 C   0  0  0  0  0  0  0  0  0  0  0  0
  -27.6137  -34.3087   18.2533 C   0  0  0  0  0  0  0  0  0  0  0  0
  -26.5510  -28.2879   18.6081 C   0  0  0  0  0  0  0  0  0  0  0  0
  -29.4586  -19.1567   21.0392 C   0  0  0  0  0  0  0  0  0  0  0  0
  -29.1792  -20.5107   20.8544 C   0  0  0  0  0  0  0  0  0  0  0  0
  -23.3286   -8.6938   22.2750 C   0  0  0  0  0  0  0  0  0  0  0  0
  -21.9362  -10.5784   21.6865 C   0  0  0  0  0  0  0  0  0  0  0  0
  -27.3452  -27.2178   19.0178 C   0  0  0  0  0  0  0  0  0  0  0  0
  -20.3836   -7.0407   22.1097 C   0  0  0  0  0  0  0  0  0  0  0  0
  -20.0650   -5.6829   22.0941 C   0  0  0  0  0  0  0  0  0  0  0  0
  -26.3605  -27.3369   21.2168 C   0  0  0  0  0  0  0  0  0  0  0  0
  -29.6183  -20.2786   18.4899 C   0  0  0  0  0  0  0  0  0  0  0  0
  -20.7228   -5.5020   24.4118 C   0  0  0  0  0  0  0  0  0  0  0  0
  -24.1011  -10.3056   20.6494 C   0  0  0  0  0  0  0  0  0  0  0  0
  -25.2399  -10.4365   18.3705 C   0  0  0  0  0  0  0  0  0  0  0  0
  -26.3238  -36.1960   19.0668 C   0  0  0  0  0  0  0  0  0  0  0  0
  -25.6620  -28.8986   19.5043 C   0  0  0  0  0  0  0  0  0  0  0  0
  -26.7950  -34.8808   19.2418 C   0  0  0  0  0  0  0  0  0  0  0  0
  -25.5544  -28.4129   20.8152 C   0  0  0  0  0  0  0  0  0  0  0  0
  -29.8180  -18.3636   19.9494 C   0  0  0  0  0  0  0  0  0  0  0  0
  -29.8978  -18.9246   18.6748 C   0  0  0  0  0  0  0  0  0  0  0  0
  -29.2590  -21.0717   19.5798 C   0  0  0  0  0  0  0  0  0  0  0  0
  -22.1428   -9.4129   22.4245 C   0  0  0  0  0  0  0  0  0  0  0  0
  -27.2521  -26.7440   20.3232 C   0  0  0  0  0  0  0  0  0  0  0  0
  -20.8719   -7.6292   23.2763 C   0  0  0  0  0  0  0  0  0  0  0  0
  -20.2345   -4.9135   23.2452 C   0  0  0  0  0  0  0  0  0  0  0  0
  -21.0415   -6.8599   24.4273 C   0  0  0  0  0  0  0  0  0  0  0  0
  -25.1124  -10.7674   19.7328 C   0  0  0  0  0  0  0  0  0  0  0  0
  -26.3506  -11.1275   17.9518 C   0  0  0  0  0  0  0  0  0  0  0  0
  -24.4270   -9.5811   17.5562 C   0  0  0  0  0  0  0  0  0  0  0  0
  -25.3630  -31.8165   20.7291 C   0  0  0  0  0  0  0  0  0  0  0  0
  -22.6322  -30.5895   21.9779 C   0  0  0  0  0  0  0  0  0  0  0  0
  -28.8567  -16.0956   20.0287 C   0  0  0  0  0  0  0  0  0  0  0  0
  -28.6021  -23.3731   20.3581 C   0  0  0  0  0  0  0  0  0  0  0  0
  -20.8829  -27.8318   22.9687 C   0  0  0  0  0  0  0  0  0  0  0  0
  -25.4808  -36.8824   20.1122 C   0  0  0  0  0  0  0  0  0  0  0  0
  -24.7929  -30.0347   19.0391 C   0  0  0  0  0  0  0  0  0  0  0  0
  -24.6009  -29.0207   21.8103 C   0  0  0  0  0  0  0  0  0  0  0  0
  -24.8434  -35.9185   21.1098 C   0  0  0  0  0  0  0  0  0  0  0  0
  -30.4972  -12.8859   19.5449 C   0  0  0  0  0  0  0  0  0  0  0  0
  -25.8717  -34.9073   21.6067 C   0  0  0  0  0  0  0  0  0  0  0  0
  -29.2993  -11.9428   19.4423 C   0  0  0  0  0  0  0  0  0  0  0  0
  -30.2355  -14.0202   20.5323 C   0  0  0  0  0  0  0  0  0  0  0  0
  -27.7983  -13.8617   20.1335 C   0  0  0  0  0  0  0  0  0  0  0  0
  -26.4112  -34.0559   20.4510 C   0  0  1  0  0  0  0  0  0  0  0  0
  -24.2943  -30.9126   20.1827 C   0  0  1  0  0  0  0  0  0  0  0  0
  -28.0101  -12.7205   19.1247 C   0  0  2  0  0  0  0  0  0  0  0  0
  -30.2784  -18.0945   17.4930 C   0  0  0  0  0  0  0  0  0  0  0  0
  -18.6921  -27.1485   23.9840 C   0  0  0  0  0  0  0  0  0  0  0  0
  -23.6109  -31.5240   24.7126 C   0  0  0  0  0  0  0  0  0  0  0  0
  -21.9082  -30.0165   25.7597 C   0  0  0  0  0  0  0  0  0  0  0  0
  -21.1736  -31.8964   24.2937 C   0  0  0  0  0  0  0  0  0  0  0  0
  -20.1483  -26.2296   20.5912 C   0  0  0  0  0  0  0  0  0  0  0  0
  -28.3894  -24.7400   19.7344 C   0  0  0  0  0  0  0  0  0  1  0  0
  -22.2695  -29.8690   23.2539 C   0  0  1  0  0  0  0  0  0  0  0  0
  -19.4570  -27.3903   22.6921 C   0  0  2  0  0  0  0  0  0  0  0  0
  -30.1133  -16.9167   20.1721 C   0  0  0  0  0  0  0  0  0  0  0  0
  -22.2600  -30.8161   24.4870 C   0  0  0  0  0  0  0  0  0  0  0  0
  -26.0661  -11.6034   20.1519 N   0  0  0  0  0  0  0  0  0  0  0  0
  -26.8035  -11.8036   19.0463 N   0  0  0  0  0  0  0  0  0  0  0  0
  -23.7771  -30.1333   21.3094 N   0  0  0  0  0  0  0  0  0  0  0  0
  -28.9849  -14.7185   20.2117 N   0  0  0  0  0  0  0  0  0  0  0  0
  -26.9744  -11.2165   16.7579 N   0  0  0  0  0  0  0  0  0  0  0  0
  -23.3236   -8.9489   18.1454 N   0  0  0  0  0  0  0  0  0  0  0  0
  -28.9737  -22.4449   19.3915 N   0  0  0  0  0  0  0  0  0  0  0  0
  -25.4525  -33.0355   20.0846 N   0  0  0  0  0  0  0  0  0  0  0  0
  -20.9951  -29.2057   23.0001 N   0  0  0  0  0  0  0  0  0  0  0  0
  -19.4501  -26.1288   21.8986 N   0  3  0  0  0  0  0  0  0  0  0  0
  -24.6813   -9.3703   16.3461 O   0  0  0  0  0  0  0  0  0  0  0  0
  -26.0542  -31.4366   21.6670 O   0  0  0  0  0  0  0  0  0  0  0  0
  -21.9216  -31.5181   21.5848 O   0  0  0  0  0  0  0  0  0  0  0  0
  -27.7945  -16.6625   19.7594 O   0  0  0  0  0  0  0  0  0  0  0  0
  -28.4488  -23.1846   21.5605 O   0  0  0  0  0  0  0  0  0  0  0  0
  -21.8042  -27.0373   23.1434 O   0  0  0  0  0  0  0  0  0  0  0  0
  -21.1871   -8.9776   23.2903 O   0  0  0  0  0  0  0  0  0  0  0  0
  -28.0266  -25.7000   20.7259 O   0  0  0  0  0  0  0  0  0  1  0  0
  -19.9270   -3.6099   23.2305 F   0  0  0  0  0  0  0  0  0  0  0  0
  -21.5091   -7.4199   25.5514 F   0  0  0  0  0  0  0  0  0  0  0  0
  -31.0541  -16.4319   19.2990 F   0  0  0  0  0  0  0  0  0  0  0  0
  -30.6542  -16.6752   21.4096 F   0  0  0  0  0  0  0  0  0  0  0  0
  1  2  1  0  0  0  0
  1  5  2  0  0  0  0
  2  6  2  0  0  0  0
  3 10  2  0  0  0  0
  3 18  1  0  0  0  0
  4 11  1  0  0  0  0
  4 18  2  0  0  0  0
  5 20  1  0  0  0  0
  6 22  1  0  0  0  0
  7 12  2  0  0  0  0
  7 21  1  0  0  0  0
  8  9  2  0  0  0  0
  8 24  1  0  0  0  0
  9 26  1  0  0  0  0
 10 27  1  0  0  0  0
 11 27  2  0  0  0  0
 12 28  1  0  0  0  0
 13 14  2  0  0  0  0
 13 29  1  0  0  0  0
 14 30  1  0  0  0  0
 15 23  1  0  0  0  0
 15 28  2  0  0  0  0
 16 25  1  0  0  0  0
 16 26  2  0  0  0  0
 17 30  2  0  0  0  0
 17 31  1  0  0  0  0
 18 32  1  0  0  0  0
 19 32  1  0  0  0  0
 19 33  2  0  0  0  0
 19 34  1  0  0  0  0
 20 22  2  0  0  0  0
 20 40  1  0  0  0  0
 21 23  2  0  0  0  0
 21 41  1  0  0  0  0
 22 49  1  0  0  0  0
 23 42  1  0  0  0  0
 24 25  2  0  0  0  0
 24 61  1  0  0  0  0
 25 52  1  0  0  0  0
 26 69  1  0  0  0  0
 27 79  1  0  0  0  0
 28 80  1  0  0  0  0
 29 31  2  0  0  0  0
 29 79  1  0  0  0  0
 30 81  1  0  0  0  0
 31 82  1  0  0  0  0
 32 63  2  0  0  0  0
 33 64  1  0  0  0  0
 33 67  1  0  0  0  0
 34 68  1  0  0  0  0
 34 73  2  0  0  0  0
 35 50  1  0  0  0  0
 35 70  1  0  0  0  0
 35 74  2  0  0  0  0
 36 59  1  0  0  0  0
 36 65  1  0  0  0  0
 36 75  2  0  0  0  0
 37 61  1  0  0  0  0
 37 66  1  0  0  0  0
 37 76  2  0  0  0  0
 38 58  1  0  0  0  0
 38 69  1  0  0  0  0
 38 77  2  0  0  0  0
 39 60  1  0  0  0  0
 39 71  1  0  0  0  0
 39 78  2  0  0  0  0
 40 43  1  0  0  0  0
 41 50  1  0  0  0  0
 42 65  1  0  0  0  0
 43 45  1  0  0  0  0
 44 46  1  0  0  0  0
 44 47  1  0  0  0  0
 45 49  1  0  0  0  0
 46 51  1  0  0  0  0
 47 66  1  0  0  0  0
 48 51  1  0  0  0  0
 48 66  1  0  0  0  0
 49 70  1  0  0  0  0
 50 65  1  0  0  0  0
 51 64  1  0  0  0  0
 53 60  1  0  0  0  0
 54 62  1  0  0  0  0
 55 62  1  0  0  0  0
 56 62  1  0  0  0  0
 57 72  1  0  0  0  0
 58 80  1  0  0  0  0
 59 62  1  0  0  0  0
 59 71  1  0  0  0  0
 60 72  1  0  0  0  0
 61 83  1  0  0  0  0
 61 84  1  0  0  0  0
 63 64  1  0  0  0  0
M  CHG  1  72   1
M  ISO  4  37 100  58 101  61 100  80 101
M  END
> <Batch ID>
0050

> <Smiles>
CNC(C)C(=O)NC(C(=O)N1Cc2cc([101O:1][101CH2:1]C(=O)Nc3ccc([100C:0](F)(F)[100C:0](=O)N4CCCC(n5nc(-c6ccc(Oc7ccc(F)cc7F)cc6)c(C(N)=O)c5N)C4)c(C)c3)ccc2CC1C(=O)NC1CCCc2ccccc21)C(C)(C)C

> <Shape>
0.306

> <Color>
0.081

> <Negative vol penalty>
0.000

$$$$

  -OEChem-04042322353D

 90 99  0     1  0  0  0  0  0999 V2000
  -29.7030  -35.0495   23.9734 C   0  0  0  0  0  0  0  0  0  0  0  0
  -29.6305  -33.7005   23.6412 C   0  0  0  0  0  0  0  0  0  0  0  0
  -23.4994  -11.2529   20.6570 C   0  0  0  0  0  0  0  0  0  0  0  0
  -21.6551  -11.9744   19.2731 C   0  0  0  0  0  0  0  0  0  0  0  0
  -28.5815  -35.7017   24.4839 C   0  0  0  0  0  0  0  0  0  0  0  0
  -28.4367  -33.0026   23.8206 C   0  0  0  0  0  0  0  0  0  0  0  0
  -27.2858  -30.0707   19.8552 C   0  0  0  0  0  0  0  0  0  0  0  0
  -23.6556  -10.1201   19.8583 C   0  0  0  0  0  0  0  0  0  0  0  0
  -21.8114  -10.8416   18.4743 C   0  0  0  0  0  0  0  0  0  0  0  0
  -27.9677  -28.8601   19.7392 C   0  0  0  0  0  0  0  0  0  0  0  0
  -22.1678   -7.1075   19.4908 C   0  0  0  0  0  0  0  0  0  0  0  0
  -22.3504   -5.8828   20.1330 C   0  0  0  0  0  0  0  0  0  0  0  0
  -26.0662  -27.7065   20.6735 C   0  0  0  0  0  0  0  0  0  0  0  0
  -27.2080  -20.4172   19.7088 C   0  0  0  0  0  0  0  0  0  0  0  0
  -28.0135  -18.4996   20.9380 C   0  0  0  0  0  0  0  0  0  0  0  0
  -24.4902   -5.6289   19.0404 C   0  0  0  0  0  0  0  0  0  0  0  0
  -22.4991  -12.1800   20.3644 C   0  0  0  0  0  0  0  0  0  0  0  0
  -22.0509  -13.3857   22.5674 C   0  0  0  0  0  0  0  0  0  0  0  0
  -27.3706  -35.0139   24.6606 C   0  0  0  0  0  0  0  0  0  0  0  0
  -25.9910  -30.1097   20.3922 C   0  0  0  0  0  0  0  0  0  0  0  0
  -27.2983  -33.6459   24.3353 C   0  0  0  0  0  0  0  0  0  0  0  0
  -25.3691  -28.9185   20.7929 C   0  0  0  0  0  0  0  0  0  0  0  0
  -28.5218  -20.7761   19.4077 C   0  0  0  0  0  0  0  0  0  0  0  0
  -29.3274  -18.8584   20.6369 C   0  0  0  0  0  0  0  0  0  0  0  0
  -29.5815  -19.9967   19.8717 C   0  0  0  0  0  0  0  0  0  0  0  0
  -26.9538  -19.2790   20.4741 C   0  0  0  0  0  0  0  0  0  0  0  0
  -22.8117   -9.9145   18.7669 C   0  0  0  0  0  0  0  0  0  0  0  0
  -27.3590  -27.6782   20.1511 C   0  0  0  0  0  0  0  0  0  0  0  0
  -23.1464   -7.5929   18.6234 C   0  0  0  0  0  0  0  0  0  0  0  0
  -23.5116   -5.1436   19.9078 C   0  0  0  0  0  0  0  0  0  0  0  0
  -24.3076   -6.8536   18.3982 C   0  0  0  0  0  0  0  0  0  0  0  0
  -22.3368  -13.3501   21.1895 C   0  0  0  0  0  0  0  0  0  0  0  0
  -21.9980  -14.7238   22.8727 C   0  0  0  0  0  0  0  0  0  0  0  0
  -29.5226  -24.3085   18.5495 C   0  0  0  0  0  0  0  0  0  0  0  0
  -30.7989  -24.6010   18.2572 C   0  0  0  0  0  0  0  0  0  0  0  0
  -21.8511  -12.3057   23.4891 C   0  0  0  0  0  0  0  0  0  0  0  0
  -24.6568  -31.4756   22.9334 C   0  0  0  0  0  0  0  0  0  0  0  0
  -21.9167  -30.3425   21.6182 C   0  0  0  0  0  0  0  0  0  0  0  0
  -20.8343  -27.3091   19.9920 C   0  0  0  0  0  0  0  0  0  0  0  0
  -24.4534  -19.5759   20.3963 C   0  0  0  0  0  0  0  0  0  0  0  0
  -26.1985  -35.7497   25.2601 C   0  0  0  0  0  0  0  0  0  0  0  0
  -25.2588  -31.4202   20.4858 C   0  0  0  0  0  0  0  0  0  0  0  0
  -23.9728  -28.9039   21.3572 C   0  0  0  0  0  0  0  0  0  0  0  0
  -28.3596  -25.1368   18.0675 C   0  0  0  0  0  0  0  0  0  0  0  0
  -24.8654  -35.0310   25.0683 C   0  0  0  0  0  0  0  0  0  0  0  0
  -20.9825  -18.9743   20.9141 C   0  0  0  0  0  0  0  0  0  0  0  0
  -25.0020  -33.5516   25.4140 C   0  0  0  0  0  0  0  0  0  0  0  0
  -20.9106  -17.4680   21.1749 C   0  0  0  0  0  0  0  0  0  0  0  0
  -27.1150  -24.2690   20.0918 C   0  0  0  0  0  0  0  0  0  0  0  0
  -22.0394  -19.3186   19.8661 C   0  0  0  0  0  0  0  0  0  0  0  0
  -23.3069  -17.2736   20.3956 C   0  0  0  0  0  0  0  0  0  0  0  0
  -28.3838  -23.5534   20.5534 C   0  0  0  0  0  0  0  0  0  0  0  0
  -26.0142  -32.8608   24.4922 C   0  0  1  0  0  0  0  0  0  0  0  0
  -24.1409  -31.4071   21.5239 C   0  0  1  0  0  0  0  0  0  0  0  0
  -22.3014  -16.8839   21.4914 C   0  0  2  0  0  0  0  0  0  0  0  0
  -27.4236  -25.4889   19.2239 C   0  0  1  0  0  0  0  0  0  1  0  0
  -30.9903  -20.3814   19.5482 C   0  0  0  0  0  0  0  0  0  0  0  0
  -19.0163  -26.9210   18.3063 C   0  0  0  0  0  0  0  0  0  0  0  0
  -20.1993  -29.6817   24.0521 C   0  0  0  0  0  0  0  0  0  0  0  0
  -19.1249  -27.8599   22.7124 C   0  0  0  0  0  0  0  0  0  0  0  0
  -18.9078  -30.2356   21.9835 C   0  0  0  0  0  0  0  0  0  0  0  0
  -22.7123  -26.0453   18.0854 C   0  0  0  0  0  0  0  0  0  0  0  0
  -28.7682  -22.0053   18.5835 C   0  0  0  0  0  0  0  0  0  0  0  0
  -21.1303  -29.0583   21.7260 C   0  0  1  0  0  0  0  0  0  0  0  0
  -20.5068  -27.1342   18.5200 C   0  0  2  0  0  0  0  0  0  0  0  0
  -30.4440  -18.0068   21.1458 C   0  0  0  0  0  0  0  0  0  0  0  0
  -19.8688  -29.2094   22.6222 C   0  0  0  0  0  0  0  0  0  0  0  0
  -22.4570  -14.5688   20.6562 N   0  0  0  0  0  0  0  0  0  0  0  0
  -22.2455  -15.3827   21.7045 N   0  0  0  0  0  0  0  0  0  0  0  0
  -23.3004  -30.2113   21.4345 N   0  0  0  0  0  0  0  0  0  0  0  0
  -23.3314  -18.7358   20.2346 N   0  0  0  0  0  0  0  0  0  0  0  0
  -21.7644  -15.3893   24.0238 N   0  0  0  0  0  0  0  0  0  0  0  0
  -21.9406  -10.9921   23.0087 N   0  0  0  0  0  0  0  0  0  0  0  0
  -25.6193  -18.9135   20.7792 N   0  0  0  0  0  0  0  0  0  0  0  0
  -25.4212  -32.5958   23.1989 N   0  0  0  0  0  0  0  0  0  0  0  0
  -20.8449  -28.6384   20.3584 N   0  0  0  0  0  0  0  0  0  0  0  0
  -29.2723  -23.1670   19.3943 N   0  3  1  0  0  0  0  0  0  0  0  0
  -21.2343  -25.9585   17.9637 N   0  3  0  0  0  0  0  0  0  0  0  0
  -21.5843  -12.5000   24.6993 O   0  0  0  0  0  0  0  0  0  0  0  0
  -24.3806  -30.5794   23.7221 O   0  0  0  0  0  0  0  0  0  0  0  0
  -21.3240  -31.4221   21.6870 O   0  0  0  0  0  0  0  0  0  0  0  0
  -21.0547  -26.3612   20.7426 O   0  0  0  0  0  0  0  0  0  0  0  0
  -24.3786  -20.7968   20.2353 O   0  0  0  0  0  0  0  0  0  0  0  0
  -22.9640   -8.8093   17.9872 O   0  0  0  0  0  0  0  0  0  0  0  0
  -28.0226  -26.4953   20.0396 O   0  0  0  0  0  0  0  0  0  1  0  0
  -23.6875   -3.9682   20.5258 F   0  0  0  0  0  0  0  0  0  0  0  0
  -25.2518   -7.3153   17.5668 F   0  0  0  0  0  0  0  0  0  0  0  0
  -30.0219  -16.9335   21.8760 F   0  0  0  0  0  0  0  0  0  0  0  0
  -31.2233  -17.4820   20.1556 F   0  0  0  0  0  0  0  0  0  0  0  0
  -31.2962  -18.6936   21.9598 F   0  0  0  0  0  0  0  0  0  0  0  0
  1  2  1  0  0  0  0
  1  5  2  0  0  0  0
  2  6  2  0  0  0  0
  3  8  2  0  0  0  0
  3 17  1  0  0  0  0
  4  9  1  0  0  0  0
  4 17  2  0  0  0  0
  5 19  1  0  0  0  0
  6 21  1  0  0  0  0
  7 10  2  0  0  0  0
  7 20  1  0  0  0  0
  8 27  1  0  0  0  0
  9 27  2  0  0  0  0
 10 28  1  0  0  0  0
 11 12  2  0  0  0  0
 11 29  1  0  0  0  0
 12 30  1  0  0  0  0
 13 22  1  0  0  0  0
 13 28  2  0  0  0  0
 14 23  1  0  0  0  0
 14 26  2  0  0  0  0
 15 24  2  0  0  0  0
 15 26  1  0  0  0  0
 16 30  2  0  0  0  0
 16 31  1  0  0  0  0
 17 32  1  0  0  0  0
 18 32  1  0  0  0  0
 18 33  2  0  0  0  0
 18 36  1  0  0  0  0
 19 21  2  0  0  0  0
 19 41  1  0  0  0  0
 20 22  2  0  0  0  0
 20 42  1  0  0  0  0
 21 53  1  0  0  0  0
 22 43  1  0  0  0  0
 23 25  2  0  0  0  0
 23 63  1  0  0  0  0
 24 25  1  0  0  0  0
 24 66  1  0  0  0  0
 25 57  1  0  0  0  0
 26 74  1  0  0  0  0
 27 84  1  0  0  0  0
 28 85  1  0  0  0  0
 29 31  2  0  0  0  0
 29 84  1  0  0  0  0
 30 86  1  0  0  0  0
 31 87  1  0  0  0  0
 32 68  2  0  0  0  0
 33 69  1  0  0  0  0
 33 72  1  0  0  0  0
 34 35  2  0  0  0  0
 34 44  1  0  0  0  0
 34 77  1  0  0  0  0
 36 73  1  0  0  0  0
 36 79  2  0  0  0  0
 37 54  1  0  0  0  0
 37 75  1  0  0  0  0
 37 80  2  0  0  0  0
 38 64  1  0  0  0  0
 38 70  1  0  0  0  0
 38 81  2  0  0  0  0
 39 65  1  0  0  0  0
 39 76  1  0  0  0  0
 39 82  2  0  0  0  0
 40 71  1  0  0  0  0
 40 74  1  0  0  0  0
 40 83  2  0  0  0  0
 41 45  1  0  0  0  0
 42 54  1  0  0  0  0
 43 70  1  0  0  0  0
 44 56  1  0  0  0  0
 45 47  1  0  0  0  0
 46 48  1  0  0  0  0
 46 50  1  0  0  0  0
 47 53  1  0  0  0  0
 48 55  1  0  0  0  0
 49 52  1  0  0  0  0
 49 56  1  0  0  0  0
 50 71  1  0  0  0  0
 51 55  1  0  0  0  0
 51 71  1  0  0  0  0
 52 77  1  0  0  0  0
 53 75  1  0  0  0  0
 54 70  1  0  0  0  0
 55 69  1  0  0  0  0
 56 85  1  0  0  0  0
 58 65  1  0  0  0  0
 59 67  1  0  0  0  0
 60 67  1  0  0  0  0
 61 67  1  0  0  0  0
 62 78  1  0  0  0  0
 63 77  1  0  0  0  0
 64 67  1  0  0  0  0
 64 76  1  0  0  0  0
 65 78  1  0  0  0  0
 66 88  1  0  0  0  0
 66 89  1  0  0  0  0
 66 90  1  0  0  0  0
 68 69  1  0  0  0  0
M  CHG  2  77   1  78   1
M  ISO  4  40 100  56 101  74 100  85 101
M  END
> <Batch ID>
0050

> <Smiles>
C=C1C[101CH:1]([101O:1]c2ccc3c(c2)CN(C(=O)C(NC(=O)C(C)NC)C(C)(C)C)C(C(=O)NC2CCCc4ccccc42)C3)CCN1Cc1cc([100NH:0][100C:0](=O)N2CCCC(n3nc(-c4ccc(Oc5ccc(F)cc5F)cc4)c(C(N)=O)c3N)C2)cc(C(F)(F)F)c1C

> <Shape>
0.272

> <Color>
0.063

> <Negative vol penalty>
0.000

$$$$

  -OEChem-04042322353D

 86 94  0     1  0  0  0  0  0999 V2000
  -22.4092  -26.7957   25.0985 C   0  0  0  0  0  0  0  0  0  0  0  0
  -21.8976  -25.5194   24.8870 C   0  0  0  0  0  0  0  0  0  0  0  0
  -29.5119  -23.4824   21.2057 C   0  0  0  0  0  0  0  0  0  0  0  0
  -27.2779  -23.0770   20.3798 C   0  0  0  0  0  0  0  0  0  0  0  0
  -21.8878  -27.8801   24.3942 C   0  0  0  0  0  0  0  0  0  0  0  0
  -20.8633  -25.3269   23.9718 C   0  0  0  0  0  0  0  0  0  0  0  0
  -21.6386  -21.3158   20.9793 C   0  0  0  0  0  0  0  0  0  0  0  0
  -29.4328  -24.8052   20.7702 C   0  0  0  0  0  0  0  0  0  0  0  0
  -27.1988  -24.3998   19.9444 C   0  0  0  0  0  0  0  0  0  0  0  0
  -21.3826  -20.0575   21.5222 C   0  0  0  0  0  0  0  0  0  0  0  0
  -26.2712  -27.7680   18.9380 C   0  0  0  0  0  0  0  0  0  0  0  0
  -25.0980  -28.4719   19.2096 C   0  0  0  0  0  0  0  0  0  0  0  0
  -24.5910  -12.0104   20.9756 C   0  0  0  0  0  0  0  0  0  0  0  0
  -19.2467  -20.0153   20.4018 C   0  0  0  0  0  0  0  0  0  0  0  0
  -26.6687  -12.7907   20.0212 C   0  0  0  0  0  0  0  0  0  0  0  0
  -25.4503  -28.1452   21.5774 C   0  0  0  0  0  0  0  0  0  0  0  0
  -28.4344  -22.6183   21.0105 C   0  0  0  0  0  0  0  0  0  0  0  0
  -24.0572  -13.2941   20.8633 C   0  0  0  0  0  0  0  0  0  0  0  0
  -28.1413  -20.7471   22.7194 C   0  0  0  0  0  0  0  0  0  0  0  0
  -20.8531  -27.6994   23.4628 C   0  0  0  0  0  0  0  0  0  0  0  0
  -20.6943  -21.9392   20.1509 C   0  0  0  0  0  0  0  0  0  0  0  0
  -20.3266  -26.4101   23.2553 C   0  0  0  0  0  0  0  0  0  0  0  0
  -19.4942  -21.2805   19.8476 C   0  0  0  0  0  0  0  0  0  0  0  0
  -24.8292  -14.3262   20.3298 C   0  0  0  0  0  0  0  0  0  0  0  0
  -26.1350  -14.0745   19.9088 C   0  0  0  0  0  0  0  0  0  0  0  0
  -28.2763  -25.2639   20.1396 C   0  0  0  0  0  0  0  0  0  0  0  0
  -20.1853  -19.4082   21.2358 C   0  0  0  0  0  0  0  0  0  0  0  0
  -27.0338  -27.2526   19.9861 C   0  0  0  0  0  0  0  0  0  0  0  0
  -24.6876  -28.6606   20.5293 C   0  0  0  0  0  0  0  0  0  0  0  0
  -25.8968  -11.7587   20.5546 C   0  0  0  0  0  0  0  0  0  0  0  0
  -26.6234  -27.4413   21.3057 C   0  0  0  0  0  0  0  0  0  0  0  0
  -28.5157  -21.2516   21.4596 C   0  0  0  0  0  0  0  0  0  0  0  0
  -28.4119  -19.4026   22.6450 C   0  0  0  0  0  0  0  0  0  0  0  0
  -19.9151  -15.0051   20.4326 C   0  0  0  0  0  0  0  0  0  0  0  0
  -19.4691  -15.8916   21.3345 C   0  0  0  0  0  0  0  0  0  0  0  0
  -22.6728  -13.5362   21.3164 C   0  0  0  0  0  0  0  0  0  0  0  0
  -27.5975  -21.4325   23.8552 C   0  0  0  0  0  0  0  0  0  0  0  0
  -18.9979  -24.6228   20.3069 C   0  0  0  0  0  0  0  0  0  0  0  0
  -18.1148  -23.7793   17.3017 C   0  0  0  0  0  0  0  0  0  0  0  0
  -17.7033  -21.3022   14.9906 C   0  0  0  0  0  0  0  0  0  0  0  0
  -28.2495  -15.0049   18.9041 C   0  0  0  0  0  0  0  0  0  0  0  0
  -20.2896  -28.9090   22.7600 C   0  0  0  0  0  0  0  0  0  0  0  0
  -20.9970  -23.2851   19.5517 C   0  0  0  0  0  0  0  0  0  0  0  0
  -18.4563  -21.8979   18.9476 C   0  0  0  0  0  0  0  0  0  0  0  0
  -19.4488  -28.5641   21.5335 C   0  0  0  0  0  0  0  0  0  0  0  0
  -31.3136  -16.5842   19.7953 C   0  0  0  0  0  0  0  0  0  0  0  0
  -18.4740  -27.4357   21.8546 C   0  0  0  0  0  0  0  0  0  0  0  0
  -30.8696  -17.8998   20.4389 C   0  0  0  0  0  0  0  0  0  0  0  0
  -30.4137  -16.1935   18.6243 C   0  0  0  0  0  0  0  0  0  0  0  0
  -28.5339  -17.4719   19.5736 C   0  0  0  0  0  0  0  0  0  0  0  0
  -19.2216  -26.1573   22.2527 C   0  0  1  0  0  0  0  0  0  0  0  0
  -19.7439  -24.0494   19.1355 C   0  0  1  0  0  0  0  0  0  0  0  0
  -29.3712  -17.8735   20.7989 C   0  0  2  0  0  0  0  0  0  0  0  0
  -24.2530  -15.7026   20.2113 C   0  0  0  0  0  0  0  0  0  0  0  0
  -16.9293  -20.9144   12.6352 C   0  0  0  0  0  0  0  0  0  0  0  0
  -15.2152  -24.0487   18.2127 C   0  0  0  0  0  0  0  0  0  0  0  0
  -14.5293  -22.7619   16.1776 C   0  0  0  0  0  0  0  0  0  0  0  0
  -15.6809  -24.9609   15.9312 C   0  0  0  0  0  0  0  0  0  0  0  0
  -20.3554  -20.2813   14.1641 C   0  0  0  0  0  0  0  0  0  0  0  0
  -20.2670  -13.5927   20.7636 C   0  0  0  0  0  0  0  0  0  0  0  0
  -19.1060  -17.3019   21.0022 C   0  0  0  0  0  0  0  0  0  1  0  0
  -17.0021  -22.9500   16.7075 C   0  0  1  0  0  0  0  0  0  0  0  0
  -18.1211  -21.2035   13.5346 C   0  0  2  0  0  0  0  0  0  0  0  0
  -15.6254  -23.6693   16.7758 C   0  0  0  0  0  0  0  0  0  0  0  0
  -28.9883  -20.3048   20.6446 N   0  0  0  0  0  0  0  0  0  0  0  0
  -28.9128  -19.1918   21.3940 N   0  0  0  0  0  0  0  0  0  0  0  0
  -18.7959  -23.2179   18.3911 N   0  0  0  0  0  0  0  0  0  0  0  0
  -29.0097  -16.1856   19.0409 N   0  0  0  0  0  0  0  0  0  0  0  0
  -28.2680  -18.3919   23.5283 N   0  0  0  0  0  0  0  0  0  0  0  0
  -22.4814  -13.8985   22.5849 N   0  0  0  0  0  0  0  0  0  0  0  0
  -27.3821  -22.8142   23.7617 N   0  0  0  0  0  0  0  0  0  0  0  0
  -26.9370  -15.1077   19.3637 N   0  0  0  0  0  0  0  0  0  0  0  0
  -19.7451  -25.4917   21.0790 N   0  0  0  0  0  0  0  0  0  0  0  0
  -17.4286  -22.6031   15.3562 N   0  0  0  0  0  0  0  0  0  0  0  0
  -21.6760  -13.3787   20.4352 N   0  3  0  0  0  0  0  0  0  0  0  0
  -19.1207  -20.1128   13.3553 N   0  3  0  0  0  0  0  0  0  0  0  0
  -27.3264  -20.8400   24.9271 O   0  0  0  0  0  0  0  0  0  0  0  0
  -17.8304  -24.3018   20.4955 O   0  0  0  0  0  0  0  0  0  0  0  0
  -18.3749  -24.8816   16.8128 O   0  0  0  0  0  0  0  0  0  0  0  0
  -17.6246  -20.3227   15.7289 O   0  0  0  0  0  0  0  0  0  0  0  0
  -28.7356  -13.9702   18.4403 O   0  0  0  0  0  0  0  0  0  0  0  0
  -28.1987  -26.5546   19.7148 O   0  0  0  0  0  0  0  0  0  0  0  0
  -19.9326  -18.1802   21.7649 O   0  0  0  0  0  0  0  0  0  1  0  0
  -23.5618  -29.3379   20.7901 F   0  0  0  0  0  0  0  0  0  0  0  0
  -26.4091  -10.5257   20.6619 F   0  0  0  0  0  0  0  0  0  0  0  0
  -27.3526  -26.9495   22.3168 F   0  0  0  0  0  0  0  0  0  0  0  0
  1  2  1  0  0  0  0
  1  5  2  0  0  0  0
  2  6  2  0  0  0  0
  3  8  2  0  0  0  0
  3 17  1  0  0  0  0
  4  9  1  0  0  0  0
  4 17  2  0  0  0  0
  5 20  1  0  0  0  0
  6 22  1  0  0  0  0
  7 10  2  0  0  0  0
  7 21  1  0  0  0  0
  8 26  1  0  0  0  0
  9 26  2  0  0  0  0
 10 27  1  0  0  0  0
 11 12  2  0  0  0  0
 11 28  1  0  0  0  0
 12 29  1  0  0  0  0
 13 18  1  0  0  0  0
 13 30  2  0  0  0  0
 14 23  1  0  0  0  0
 14 27  2  0  0  0  0
 15 25  2  0  0  0  0
 15 30  1  0  0  0  0
 16 29  2  0  0  0  0
 16 31  1  0  0  0  0
 17 32  1  0  0  0  0
 18 24  2  0  0  0  0
 18 36  1  0  0  0  0
 19 32  1  0  0  0  0
 19 33  2  0  0  0  0
 19 37  1  0  0  0  0
 20 22  2  0  0  0  0
 20 42  1  0  0  0  0
 21 23  2  0  0  0  0
 21 43  1  0  0  0  0
 22 51  1  0  0  0  0
 23 44  1  0  0  0  0
 24 25  1  0  0  0  0
 24 54  1  0  0  0  0
 25 72  1  0  0  0  0
 26 82  1  0  0  0  0
 27 83  1  0  0  0  0
 28 31  2  0  0  0  0
 28 82  1  0  0  0  0
 29 84  1  0  0  0  0
 30 85  1  0  0  0  0
 31 86  1  0  0  0  0
 32 65  2  0  0  0  0
 33 66  1  0  0  0  0
 33 69  1  0  0  0  0
 34 35  2  0  0  0  0
 34 60  1  0  0  0  0
 35 61  1  0  0  0  0
 36 70  1  0  0  0  0
 36 75  2  0  0  0  0
 37 71  1  0  0  0  0
 37 77  2  0  0  0  0
 38 52  1  0  0  0  0
 38 73  1  0  0  0  0
 38 78  2  0  0  0  0
 39 62  1  0  0  0  0
 39 67  1  0  0  0  0
 39 79  2  0  0  0  0
 40 63  1  0  0  0  0
 40 74  1  0  0  0  0
 40 80  2  0  0  0  0
 41 68  1  0  0  0  0
 41 72  1  0  0  0  0
 41 81  2  0  0  0  0
 42 45  1  0  0  0  0
 43 52  1  0  0  0  0
 44 67  1  0  0  0  0
 45 47  1  0  0  0  0
 46 48  1  0  0  0  0
 46 49  1  0  0  0  0
 47 51  1  0  0  0  0
 48 53  1  0  0  0  0
 49 68  1  0  0  0  0
 50 53  1  0  0  0  0
 50 68  1  0  0  0  0
 51 73  1  0  0  0  0
 52 67  1  0  0  0  0
 53 66  1  0  0  0  0
 55 63  1  0  0  0  0
 56 64  1  0  0  0  0
 57 64  1  0  0  0  0
 58 64  1  0  0  0  0
 59 76  1  0  0  0  0
 60 75  1  0  0  0  0
 61 83  1  0  0  0  0
 62 64  1  0  0  0  0
 62 74  1  0  0  0  0
 63 76  1  0  0  0  0
 65 66  1  0  0  0  0
M  CHG  2  75   1  76   1
M  ISO  4  41 100  61 101  72 100  83 101
M  END
> <Batch ID>
0050

> <Smiles>
CNC(C)C(=O)NC(C(=O)N1Cc2cc([101O:1][101CH2:1]C=CCNC(=N)c3cc(F)cc([100NH:0][100C:0](=O)N4CCCC(n5nc(-c6ccc(Oc7ccc(F)cc7F)cc6)c(C(N)=O)c5N)C4)c3C)ccc2CC1C(=O)NC1CCCc2ccccc21)C(C)(C)C

> <Shape>
0.200

> <Color>
0.079

> <Negative vol penalty>
0.000

$$$$

  -OEChem-04042322353D

 87 95  0     1  0  0  0  0  0999 V2000
  -28.5263  -23.0785   17.8308 C   0  0  0  0  0  0  0  0  0  0  0  0
  -27.3404  -23.3157   18.5185 C   0  0  0  0  0  0  0  0  0  0  0  0
  -24.2815   -9.4491   21.5618 C   0  0  0  0  0  0  0  0  0  0  0  0
  -22.2611  -10.5825   20.8761 C   0  0  0  0  0  0  0  0  0  0  0  0
  -29.6962  -23.7326   18.2146 C   0  0  0  0  0  0  0  0  0  0  0  0
  -27.3241  -24.2064   19.5912 C   0  0  0  0  0  0  0  0  0  0  0  0
  -23.3533  -27.3461   19.4491 C   0  0  0  0  0  0  0  0  0  0  0  0
  -24.1569  -21.2160   19.3761 C   0  0  0  0  0  0  0  0  0  0  0  0
  -24.5323  -20.0088   19.9653 C   0  0  0  0  0  0  0  0  0  0  0  0
  -23.5859   -8.2413   21.6152 C   0  0  0  0  0  0  0  0  0  0  0  0
  -21.5654   -9.3746   20.9294 C   0  0  0  0  0  0  0  0  0  0  0  0
  -22.1234  -26.8364   19.8629 C   0  0  0  0  0  0  0  0  0  0  0  0
  -21.4598   -6.6833   23.7310 C   0  0  0  0  0  0  0  0  0  0  0  0
  -21.6678   -5.8650   24.8413 C   0  0  0  0  0  0  0  0  0  0  0  0
  -22.4140  -27.8954   22.0107 C   0  0  0  0  0  0  0  0  0  0  0  0
  -24.1754  -20.9661   22.1546 C   0  0  0  0  0  0  0  0  0  0  0  0
  -22.4665   -4.1035   23.3934 C   0  0  0  0  0  0  0  0  0  0  0  0
  -23.6191  -10.6197   21.1923 C   0  0  0  0  0  0  0  0  0  0  0  0
  -25.0166  -12.4097   20.0302 C   0  0  0  0  0  0  0  0  0  0  0  0
  -29.6921  -24.6391   19.2865 C   0  0  0  0  0  0  0  0  0  0  0  0
  -24.1291  -28.1266   20.3182 C   0  0  0  0  0  0  0  0  0  0  0  0
  -28.4953  -24.8722   19.9906 C   0  0  0  0  0  0  0  0  0  0  0  0
  -23.6522  -28.4160   21.6046 C   0  0  0  0  0  0  0  0  0  0  0  0
  -23.7908  -22.2984   20.1762 C   0  0  0  0  0  0  0  0  0  0  0  0
  -23.8000  -22.1735   21.5654 C   0  0  0  0  0  0  0  0  0  0  0  0
  -24.5415  -19.8838   21.3545 C   0  0  0  0  0  0  0  0  0  0  0  0
  -22.2279   -8.2040   21.2990 C   0  0  0  0  0  0  0  0  0  0  0  0
  -21.6549  -27.1086   21.1449 C   0  0  0  0  0  0  0  0  0  0  0  0
  -21.7551   -6.2117   22.4519 C   0  0  0  0  0  0  0  0  0  0  0  0
  -22.1712   -4.5751   24.6725 C   0  0  0  0  0  0  0  0  0  0  0  0
  -22.2585   -4.9218   22.2831 C   0  0  0  0  0  0  0  0  0  0  0  0
  -24.3370  -11.8678   21.1376 C   0  0  0  0  0  0  0  0  0  0  0  0
  -25.5271  -13.5993   20.4892 C   0  0  0  0  0  0  0  0  0  0  0  0
  -25.1724  -11.8848   18.7051 C   0  0  0  0  0  0  0  0  0  0  0  0
  -27.0126  -27.8364   21.6241 C   0  0  0  0  0  0  0  0  0  0  0  0
  -26.4052  -30.8402   22.6875 C   0  0  0  0  0  0  0  0  0  0  0  0
  -20.9637  -23.2784   22.8815 C   0  0  0  0  0  0  0  0  0  0  0  0
  -24.0914  -33.2161   23.4924 C   0  0  0  0  0  0  0  0  0  0  0  0
  -24.9838  -18.3657   23.3157 C   0  0  0  0  0  0  0  0  0  0  0  0
  -30.9917  -25.2865   19.6947 C   0  0  0  0  0  0  0  0  0  0  0  0
  -25.4413  -28.6912   19.8474 C   0  0  0  0  0  0  0  0  0  0  0  0
  -24.4375  -29.2656   22.5690 C   0  0  0  0  0  0  0  0  0  0  0  0
  -30.8089  -26.4986   20.6045 C   0  0  0  0  0  0  0  0  0  0  0  0
  -25.8334  -15.4584   25.1873 C   0  0  0  0  0  0  0  0  0  0  0  0
  -29.8140  -26.1856   21.7175 C   0  0  0  0  0  0  0  0  0  0  0  0
  -25.5757  -14.3097   24.2094 C   0  0  0  0  0  0  0  0  0  0  0  0
  -24.8049  -16.5772   25.0315 C   0  0  0  0  0  0  0  0  0  0  0  0
  -24.3917  -15.9430   22.6871 C   0  0  0  0  0  0  0  0  0  0  0  0
  -28.4320  -25.8501   21.1439 C   0  0  1  0  0  0  0  0  0  0  0  0
  -26.3843  -29.0466   20.9928 C   0  0  1  0  0  0  0  0  0  0  0  0
  -25.4405  -14.8214   22.7619 C   0  0  2  0  0  0  0  0  0  0  0  0
  -23.3935  -23.5812   19.5225 C   0  0  0  0  0  0  0  0  0  0  0  0
  -23.8971  -35.5593   24.3693 C   0  0  0  0  0  0  0  0  0  0  0  0
  -27.0368  -29.8378   25.4993 C   0  0  0  0  0  0  0  0  0  0  0  0
  -25.9290  -31.8922   26.4052 C   0  0  0  0  0  0  0  0  0  0  0  0
  -27.9569  -32.1017   24.9676 C   0  0  0  0  0  0  0  0  0  0  0  0
  -19.1392  -24.9628   24.6885 C   0  0  0  0  0  0  0  0  0  0  0  0
  -17.9002  -25.6662   22.6374 C   0  0  0  0  0  0  0  0  0  0  0  0
  -22.7468  -34.1509   21.0272 C   0  0  0  0  0  0  0  0  0  0  0  0
  -23.4079  -23.3241   22.4465 C   0  0  0  0  0  0  0  0  0  0  0  0
  -19.6499  -23.8991   22.4363 C   0  0  0  0  0  0  0  0  0  0  0  0
  -20.3054  -26.3334   22.9431 C   0  0  0  0  0  0  0  0  0  1  0  0
  -25.7577  -31.4282   23.9179 C   0  0  1  0  0  0  0  0  0  0  0  0
  -23.9881  -34.6860   23.1276 C   0  0  2  0  0  0  0  0  0  0  0  0
  -26.6560  -31.2973   25.1802 C   0  0  0  0  0  0  0  0  0  0  0  0
  -19.2735  -25.2086   23.1748 C   0  0  0  0  0  0  0  0  0  0  0  0
  -24.4077  -12.6490   22.2187 N   0  0  0  0  0  0  0  0  0  0  0  0
  -25.1378  -13.6938   21.7929 N   0  0  0  0  0  0  0  0  0  0  0  0
  -25.7174  -29.7894   22.0641 N   0  0  0  0  0  0  0  0  0  0  0  0
  -24.7347  -17.0143   23.6355 N   0  0  0  0  0  0  0  0  0  0  0  0
  -26.2667  -14.5633   19.9008 N   0  0  0  0  0  0  0  0  0  0  0  0
  -24.5833  -10.6497   18.4022 N   0  0  0  0  0  0  0  0  0  0  0  0
  -24.9209  -18.6569   21.9534 N   0  0  0  0  0  0  0  0  0  0  0  0
  -27.7430  -27.0589   20.7458 N   0  0  0  0  0  0  0  0  0  0  0  0
  -22.0577  -23.7670   22.1882 N   0  0  0  0  0  0  0  0  0  0  0  0
  -25.4038  -32.8016   23.5762 N   0  0  0  0  0  0  0  0  0  0  0  0
  -22.7778  -34.9287   22.2925 N   0  3  0  0  0  0  0  0  0  0  0  0
  -25.8289  -12.4852   17.8207 O   0  0  0  0  0  0  0  0  0  0  0  0
  -26.8481  -27.6246   22.8198 O   0  0  0  0  0  0  0  0  0  0  0  0
  -27.4781  -31.3012   22.2898 O   0  0  0  0  0  0  0  0  0  0  0  0
  -21.0084  -22.4339   23.7738 O   0  0  0  0  0  0  0  0  0  0  0  0
  -23.1064  -32.5074   23.6876 O   0  0  0  0  0  0  0  0  0  0  0  0
  -25.2614  -19.1975   24.1835 O   0  0  0  0  0  0  0  0  0  0  0  0
  -21.5488   -7.0256   21.3507 O   0  0  0  0  0  0  0  0  0  0  0  0
  -20.4550  -26.6117   21.5516 O   0  0  0  0  0  0  0  0  0  1  0  0
  -22.3723   -3.7900   25.7389 F   0  0  0  0  0  0  0  0  0  0  0  0
  -22.5452   -4.4636   21.0569 F   0  0  0  0  0  0  0  0  0  0  0  0
  1  2  1  0  0  0  0
  1  5  2  0  0  0  0
  2  6  2  0  0  0  0
  3 10  2  0  0  0  0
  3 18  1  0  0  0  0
  4 11  1  0  0  0  0
  4 18  2  0  0  0  0
  5 20  1  0  0  0  0
  6 22  1  0  0  0  0
  7 12  2  0  0  0  0
  7 21  1  0  0  0  0
  8  9  2  0  0  0  0
  8 24  1  0  0  0  0
  9 26  1  0  0  0  0
 10 27  1  0  0  0  0
 11 27  2  0  0  0  0
 12 28  1  0  0  0  0
 13 14  2  0  0  0  0
 13 29  1  0  0  0  0
 14 30  1  0  0  0  0
 15 23  1  0  0  0  0
 15 28  2  0  0  0  0
 16 25  1  0  0  0  0
 16 26  2  0  0  0  0
 17 30  2  0  0  0  0
 17 31  1  0  0  0  0
 18 32  1  0  0  0  0
 19 32  1  0  0  0  0
 19 33  2  0  0  0  0
 19 34  1  0  0  0  0
 20 22  2  0  0  0  0
 20 40  1  0  0  0  0
 21 23  2  0  0  0  0
 21 41  1  0  0  0  0
 22 49  1  0  0  0  0
 23 42  1  0  0  0  0
 24 25  2  0  0  0  0
 24 52  1  0  0  0  0
 25 60  1  0  0  0  0
 26 73  1  0  0  0  0
 27 84  1  0  0  0  0
 28 85  1  0  0  0  0
 29 31  2  0  0  0  0
 29 84  1  0  0  0  0
 30 86  1  0  0  0  0
 31 87  1  0  0  0  0
 32 67  2  0  0  0  0
 33 68  1  0  0  0  0
 33 71  1  0  0  0  0
 34 72  1  0  0  0  0
 34 78  2  0  0  0  0
 35 50  1  0  0  0  0
 35 74  1  0  0  0  0
 35 79  2  0  0  0  0
 36 63  1  0  0  0  0
 36 69  1  0  0  0  0
 36 80  2  0  0  0  0
 37 61  1  0  0  0  0
 37 75  1  0  0  0  0
 37 81  2  0  0  0  0
 38 64  1  0  0  0  0
 38 76  1  0  0  0  0
 38 82  2  0  0  0  0
 39 70  1  0  0  0  0
 39 73  1  0  0  0  0
 39 83  2  0  0  0  0
 40 43  1  0  0  0  0
 41 50  1  0  0  0  0
 42 69  1  0  0  0  0
 43 45  1  0  0  0  0
 44 46  1  0  0  0  0
 44 47  1  0  0  0  0
 45 49  1  0  0  0  0
 46 51  1  0  0  0  0
 47 70  1  0  0  0  0
 48 51  1  0  0  0  0
 48 70  1  0  0  0  0
 49 74  1  0  0  0  0
 50 69  1  0  0  0  0
 51 68  1  0  0  0  0
 53 64  1  0  0  0  0
 54 65  1  0  0  0  0
 55 65  1  0  0  0  0
 56 65  1  0  0  0  0
 57 66  1  0  0  0  0
 58 66  1  0  0  0  0
 59 77  1  0  0  0  0
 60 75  1  0  0  0  0
 61 66  1  0  0  0  0
 62 66  1  0  0  0  0
 62 85  1  0  0  0  0
 63 65  1  0  0  0  0
 63 76  1  0  0  0  0
 64 77  1  0  0  0  0
 67 68  1  0  0  0  0
M  CHG  1  77   1
M  ISO  4  39 100  62 101  73 100  85 101
M  END
> <Batch ID>
0050

> <Smiles>
CNC(C)C(=O)NC(C(=O)N1Cc2cc([101O:1][101CH2:1]C(C)(C)CC(=O)NCc3cc([100NH:0][100C:0](=O)N4CCCC(n5nc(-c6ccc(Oc7ccc(F)cc7F)cc6)c(C(N)=O)c5N)C4)ccc3C)ccc2CC1C(=O)NC1CCCc2ccccc21)C(C)(C)C

> <Shape>
0.284

> <Color>
0.117

> <Negative vol penalty>
0.000

$$$$

  -OEChem-04042322353D

 83 91  0     1  0  0  0  0  0999 V2000
  -20.7070  -33.9165   15.3762 C   0  0  0  0  0  0  0  0  0  0  0  0
  -21.5300  -32.7999   15.4822 C   0  0  0  0  0  0  0  0  0  0  0  0
  -32.2564  -18.5006   21.1899 C   0  0  0  0  0  0  0  0  0  0  0  0
  -22.9327  -11.5986   21.5332 C   0  0  0  0  0  0  0  0  0  0  0  0
  -22.9220  -13.9949   21.2250 C   0  0  0  0  0  0  0  0  0  0  0  0
  -20.9190  -35.0184   16.2037 C   0  0  0  0  0  0  0  0  0  0  0  0
  -22.5662  -32.7849   16.4151 C   0  0  0  0  0  0  0  0  0  0  0  0
  -24.6134  -27.9492   19.5664 C   0  0  0  0  0  0  0  0  0  0  0  0
  -31.4568  -19.6085   20.9094 C   0  0  0  0  0  0  0  0  0  0  0  0
  -31.8228  -17.2214   20.8414 C   0  0  0  0  0  0  0  0  0  0  0  0
  -21.9161  -11.7160   22.4810 C   0  0  0  0  0  0  0  0  0  0  0  0
  -21.9053  -14.1122   22.1727 C   0  0  0  0  0  0  0  0  0  0  0  0
  -25.6987  -27.0954   19.3741 C   0  0  0  0  0  0  0  0  0  0  0  0
  -18.5582  -13.6644   22.3011 C   0  0  0  0  0  0  0  0  0  0  0  0
  -17.4842  -14.5009   21.9971 C   0  0  0  0  0  0  0  0  0  0  0  0
  -27.0050  -28.4198   20.9098 C   0  0  0  0  0  0  0  0  0  0  0  0
  -29.7899  -18.1581   19.9321 C   0  0  0  0  0  0  0  0  0  0  0  0
  -17.9817  -15.8461   23.9414 C   0  0  0  0  0  0  0  0  0  0  0  0
  -23.4357  -12.7381   20.9052 C   0  0  0  0  0  0  0  0  0  0  0  0
  -24.3382  -12.4385   18.5380 C   0  0  0  0  0  0  0  0  0  0  0  0
  -21.9523  -35.0131   17.1539 C   0  0  0  0  0  0  0  0  0  0  0  0
  -24.7194  -29.0528   20.4249 C   0  0  0  0  0  0  0  0  0  0  0  0
  -22.7931  -33.8883   17.2552 C   0  0  0  0  0  0  0  0  0  0  0  0
  -25.9188  -29.2846   21.1133 C   0  0  0  0  0  0  0  0  0  0  0  0
  -30.2236  -19.4373   20.2805 C   0  0  0  0  0  0  0  0  0  0  0  0
  -30.5896  -17.0501   20.2126 C   0  0  0  0  0  0  0  0  0  0  0  0
  -21.4024  -12.9727   22.8007 C   0  0  0  0  0  0  0  0  0  0  0  0
  -26.8956  -27.3323   20.0436 C   0  0  0  0  0  0  0  0  0  0  0  0
  -19.3439  -13.9186   23.4253 C   0  0  0  0  0  0  0  0  0  0  0  0
  -17.1960  -15.5918   22.8172 C   0  0  0  0  0  0  0  0  0  0  0  0
  -19.0557  -15.0095   24.2454 C   0  0  0  0  0  0  0  0  0  0  0  0
  -24.4863  -12.6176   19.9265 C   0  0  0  0  0  0  0  0  0  0  0  0
  -25.6245  -12.3836   18.0598 C   0  0  0  0  0  0  0  0  0  0  0  0
  -23.1445  -12.3315   17.7510 C   0  0  0  0  0  0  0  0  0  0  0  0
  -24.5009  -32.2035   20.0655 C   0  0  0  0  0  0  0  0  0  0  0  0
  -24.7528  -32.1982   23.2995 C   0  0  0  0  0  0  0  0  0  0  0  0
  -29.6888  -21.8983   20.2713 C   0  0  0  0  0  0  0  0  0  0  0  0
  -25.8009  -30.5901   26.1213 C   0  0  0  0  0  0  0  0  0  0  0  0
  -30.8213  -14.5459   20.0656 C   0  0  0  0  0  0  0  0  0  0  0  0
  -22.1724  -36.2463   17.9938 C   0  0  0  0  0  0  0  0  0  0  0  0
  -23.5311  -29.9490   20.6421 C   0  0  0  0  0  0  0  0  0  0  0  0
  -26.0777  -30.4439   22.0615 C   0  0  0  0  0  0  0  0  0  0  0  0
  -23.0573  -36.0025   19.2136 C   0  0  0  0  0  0  0  0  0  0  0  0
  -30.0581  -11.1378   19.3733 C   0  0  0  0  0  0  0  0  0  0  0  0
  -24.2963  -35.2029   18.8230 C   0  0  0  0  0  0  0  0  0  0  0  0
  -28.5294  -11.1154   19.3042 C   0  0  0  0  0  0  0  0  0  0  0  0
  -30.5634  -12.1035   20.4438 C   0  0  0  0  0  0  0  0  0  0  0  0
  -28.5053  -13.4474   20.2779 C   0  0  0  0  0  0  0  0  0  0  0  0
  -23.9122  -33.8244   18.2719 C   0  0  1  0  0  0  0  0  0  0  0  0
  -23.9139  -31.3378   21.1442 C   0  0  1  0  0  0  0  0  0  0  0  0
  -27.9505  -12.5375   19.1698 C   0  0  2  0  0  0  0  0  0  0  0  0
  -25.9023  -30.8514   28.6150 C   0  0  0  0  0  0  0  0  0  0  0  0
  -27.0700  -34.1602   22.9972 C   0  0  0  0  0  0  0  0  0  0  0  0
  -27.7210  -33.6473   25.3597 C   0  0  0  0  0  0  0  0  0  0  0  0
  -25.5021  -34.6789   24.8753 C   0  0  0  0  0  0  0  0  0  0  0  0
  -24.1313  -28.1857   26.5575 C   0  0  0  0  0  0  0  0  0  0  0  0
  -28.5472  -22.7873   19.7981 C   0  0  0  0  0  0  0  0  0  0  0  0
  -28.7992  -24.2651   20.0766 C   0  0  0  0  0  0  0  0  0  0  0  0
  -27.6675  -25.1371   19.5526 C   0  0  0  0  0  0  0  0  0  1  0  0
  -25.8969  -32.2530   24.2828 C   0  0  1  0  0  0  0  0  0  0  0  0
  -25.1024  -30.3110   27.4399 C   0  0  2  0  0  0  0  0  0  0  0  0
  -26.5454  -33.6640   24.3595 C   0  0  0  0  0  0  0  0  0  0  0  0
  -25.7658  -12.6726   20.3057 N   0  0  0  0  0  0  0  0  0  0  0  0
  -26.4334  -12.5272   19.1485 N   0  0  0  0  0  0  0  0  0  0  0  0
  -24.8892  -31.2953   22.2356 N   0  0  0  0  0  0  0  0  0  0  0  0
  -29.9763  -13.4312   20.2504 N   0  0  0  0  0  0  0  0  0  0  0  0
  -26.1313  -12.2269   16.8184 N   0  0  0  0  0  0  0  0  0  0  0  0
  -21.9058  -12.4089   18.4020 N   0  0  0  0  0  0  0  0  0  0  0  0
  -29.4131  -20.5619   19.9958 N   0  0  0  0  0  0  0  0  0  0  0  0
  -30.1497  -15.7505   19.8588 N   0  0  0  0  0  0  0  0  0  0  0  0
  -23.5640  -32.9271   19.3527 N   0  0  0  0  0  0  0  0  0  0  0  0
  -25.3670  -31.7691   25.5531 N   0  0  0  0  0  0  0  0  0  0  0  0
  -24.9212  -28.8440   27.6297 N   0  3  0  0  0  0  0  0  0  0  0  0
  -23.1756  -12.1555   16.5094 O   0  0  0  0  0  0  0  0  0  0  0  0
  -25.7142  -32.2153   19.8936 O   0  0  0  0  0  0  0  0  0  0  0  0
  -23.7709  -32.9245   23.4731 O   0  0  0  0  0  0  0  0  0  0  0  0
  -30.6885  -22.3562   20.8147 O   0  0  0  0  0  0  0  0  0  0  0  0
  -26.6493  -29.8392   25.6449 O   0  0  0  0  0  0  0  0  0  0  0  0
  -32.0500  -14.4353   20.0618 O   0  0  0  0  0  0  0  0  0  0  0  0
  -20.4102  -13.0876   23.7254 O   0  0  0  0  0  0  0  0  0  0  0  0
  -27.9567  -26.5009   19.8572 O   0  0  0  0  0  0  0  0  0  1  0  0
  -16.1657  -16.3960   22.5243 F   0  0  0  0  0  0  0  0  0  0  0  0
  -19.8076  -15.2595   25.3261 F   0  0  0  0  0  0  0  0  0  0  0  0
  1  2  1  0  0  0  0
  1  6  2  0  0  0  0
  2  7  2  0  0  0  0
  3  9  2  0  0  0  0
  3 10  1  0  0  0  0
  4 11  2  0  0  0  0
  4 19  1  0  0  0  0
  5 12  1  0  0  0  0
  5 19  2  0  0  0  0
  6 21  1  0  0  0  0
  7 23  1  0  0  0  0
  8 13  2  0  0  0  0
  8 22  1  0  0  0  0
  9 25  1  0  0  0  0
 10 26  2  0  0  0  0
 11 27  1  0  0  0  0
 12 27  2  0  0  0  0
 13 28  1  0  0  0  0
 14 15  2  0  0  0  0
 14 29  1  0  0  0  0
 15 30  1  0  0  0  0
 16 24  1  0  0  0  0
 16 28  2  0  0  0  0
 17 25  2  0  0  0  0
 17 26  1  0  0  0  0
 18 30  2  0  0  0  0
 18 31  1  0  0  0  0
 19 32  1  0  0  0  0
 20 32  1  0  0  0  0
 20 33  2  0  0  0  0
 20 34  1  0  0  0  0
 21 23  2  0  0  0  0
 21 40  1  0  0  0  0
 22 24  2  0  0  0  0
 22 41  1  0  0  0  0
 23 49  1  0  0  0  0
 24 42  1  0  0  0  0
 25 69  1  0  0  0  0
 26 70  1  0  0  0  0
 27 80  1  0  0  0  0
 28 81  1  0  0  0  0
 29 31  2  0  0  0  0
 29 80  1  0  0  0  0
 30 82  1  0  0  0  0
 31 83  1  0  0  0  0
 32 63  2  0  0  0  0
 33 64  1  0  0  0  0
 33 67  1  0  0  0  0
 34 68  1  0  0  0  0
 34 74  2  0  0  0  0
 35 50  1  0  0  0  0
 35 71  1  0  0  0  0
 35 75  2  0  0  0  0
 36 60  1  0  0  0  0
 36 65  1  0  0  0  0
 36 76  2  0  0  0  0
 37 57  1  0  0  0  0
 37 69  1  0  0  0  0
 37 77  2  0  0  0  0
 38 61  1  0  0  0  0
 38 72  1  0  0  0  0
 38 78  2  0  0  0  0
 39 66  1  0  0  0  0
 39 70  1  0  0  0  0
 39 79  2  0  0  0  0
 40 43  1  0  0  0  0
 41 50  1  0  0  0  0
 42 65  1  0  0  0  0
 43 45  1  0  0  0  0
 44 46  1  0  0  0  0
 44 47  1  0  0  0  0
 45 49  1  0  0  0  0
 46 51  1  0  0  0  0
 47 66  1  0  0  0  0
 48 51  1  0  0  0  0
 48 66  1  0  0  0  0
 49 71  1  0  0  0  0
 50 65  1  0  0  0  0
 51 64  1  0  0  0  0
 52 61  1  0  0  0  0
 53 62  1  0  0  0  0
 54 62  1  0  0  0  0
 55 62  1  0  0  0  0
 56 73  1  0  0  0  0
 57 58  1  0  0  0  0
 58 59  1  0  0  0  0
 59 81  1  0  0  0  0
 60 62  1  0  0  0  0
 60 72  1  0  0  0  0
 61 73  1  0  0  0  0
 63 64  1  0  0  0  0
M  CHG  1  73   1
M  ISO  4  39 100  59 101  70 100  81 101
M  END
> <Batch ID>
0050

> <Smiles>
CNC(C)C(=O)NC(C(=O)N1Cc2cc([101O:1][101CH2:1]CCC(=O)Nc3cccc([100NH:0][100C:0](=O)N4CCCC(n5nc(-c6ccc(Oc7ccc(F)cc7F)cc6)c(C(N)=O)c5N)C4)c3)ccc2CC1C(=O)NC1CCCc2ccccc21)C(C)(C)C

> <Shape>
0.275

> <Color>
0.101

> <Negative vol penalty>
0.000

$$$$

  -OEChem-04042322353D

 86 95  0     1  0  0  0  0  0999 V2000
  -25.0305  -35.6334   22.3575 C   0  0  0  0  0  0  0  0  0  0  0  0
  -25.7536  -34.4518   22.2295 C   0  0  0  0  0  0  0  0  0  0  0  0
  -23.9312  -13.3923   20.3068 C   0  0  0  0  0  0  0  0  0  0  0  0
  -26.3229  -13.4257   20.6466 C   0  0  0  0  0  0  0  0  0  0  0  0
  -23.7540  -35.6109   22.9176 C   0  0  0  0  0  0  0  0  0  0  0  0
  -25.2010  -33.2471   22.6627 C   0  0  0  0  0  0  0  0  0  0  0  0
  -25.8800  -29.4905   19.3354 C   0  0  0  0  0  0  0  0  0  0  0  0
  -29.9171  -24.2213   24.0429 C   0  0  0  0  0  0  0  0  0  0  0  0
  -28.8380  -23.4383   24.4528 C   0  0  0  0  0  0  0  0  0  0  0  0
  -23.9675  -12.0030   20.1875 C   0  0  0  0  0  0  0  0  0  0  0  0
  -26.3593  -12.0364   20.5273 C   0  0  0  0  0  0  0  0  0  0  0  0
  -27.1386  -28.8917   19.2991 C   0  0  0  0  0  0  0  0  0  0  0  0
  -24.1646   -9.3301   22.2490 C   0  0  0  0  0  0  0  0  0  0  0  0
  -23.1969   -8.5951   22.9338 C   0  0  0  0  0  0  0  0  0  0  0  0
  -26.3005  -27.0636   20.6314 C   0  0  0  0  0  0  0  0  0  0  0  0
  -29.7016  -23.3454   21.8017 C   0  0  0  0  0  0  0  0  0  0  0  0
  -22.4114   -7.6791   20.8407 C   0  0  0  0  0  0  0  0  0  0  0  0
  -25.1089  -14.1036   20.5363 C   0  0  0  0  0  0  0  0  0  0  0  0
  -24.3597  -16.2925   21.6111 C   0  0  0  0  0  0  0  0  0  0  0  0
  -23.1815  -34.4040   23.3491 C   0  0  0  0  0  0  0  0  0  0  0  0
  -24.8233  -28.8846   20.0302 C   0  0  0  0  0  0  0  0  0  0  0  0
  -23.9161  -33.2087   23.2304 C   0  0  0  0  0  0  0  0  0  0  0  0
  -25.0289  -27.6554   20.6727 C   0  0  0  0  0  0  0  0  0  0  0  0
  -30.3489  -24.1749   22.7174 C   0  0  0  0  0  0  0  0  0  0  0  0
  -28.1907  -22.6087   23.5371 C   0  0  0  0  0  0  0  0  0  0  0  0
  -28.6225  -22.5623   22.2115 C   0  0  0  0  0  0  0  0  0  0  0  0
  -25.1816  -11.3251   20.2977 C   0  0  0  0  0  0  0  0  0  0  0  0
  -27.3498  -27.6796   19.9496 C   0  0  0  0  0  0  0  0  0  0  0  0
  -24.2557   -9.2397   20.8600 C   0  0  0  0  0  0  0  0  0  0  0  0
  -22.3204   -7.7696   22.2297 C   0  0  0  0  0  0  0  0  0  0  0  0
  -23.3791   -8.4142   20.1559 C   0  0  0  0  0  0  0  0  0  0  0  0
  -25.0720  -15.5388   20.6591 C   0  0  0  0  0  0  0  0  0  0  0  0
  -24.6532  -17.5988   21.3042 C   0  0  0  0  0  0  0  0  0  0  0  0
  -31.7583  -25.8392   19.9689 C   0  0  0  0  0  0  0  0  0  0  0  0
  -23.5089  -15.8514   22.6774 C   0  0  0  0  0  0  0  0  0  0  0  0
  -23.0113  -29.6990   22.5115 C   0  0  0  0  0  0  0  0  0  0  0  0
  -21.4211  -26.9773   21.7462 C   0  0  0  0  0  0  0  0  0  0  0  0
  -22.2786  -23.6267   20.7188 C   0  0  0  0  0  0  0  0  0  0  0  0
  -28.2940  -21.5764   19.9166 C   0  0  0  0  0  0  0  0  0  0  0  0
  -21.8174  -34.4363   23.9916 C   0  0  0  0  0  0  0  0  0  0  0  0
  -23.4647  -29.5301   20.0373 C   0  0  0  0  0  0  0  0  0  0  0  0
  -23.9221  -26.9540   21.4155 C   0  0  0  0  0  0  0  0  0  0  0  0
  -31.2716  -26.7762   18.8814 C   0  0  0  0  0  0  0  0  0  0  0  0
  -21.1541  -33.0644   24.0822 C   0  0  0  0  0  0  0  0  0  0  0  0
  -30.7042  -28.0887   19.3882 C   0  0  0  0  0  0  0  0  0  0  0  0
  -26.9717  -19.5940   17.2711 C   0  0  0  0  0  0  0  0  0  0  0  0
  -22.1413  -32.0280   24.6095 C   0  0  0  0  0  0  0  0  0  0  0  0
  -26.3010  -18.4242   17.9950 C   0  0  0  0  0  0  0  0  0  0  0  0
  -28.2574  -20.0316   17.9705 C   0  0  0  0  0  0  0  0  0  0  0  0
  -27.4451  -19.1575   20.1258 C   0  0  0  0  0  0  0  0  0  0  0  0
  -30.2917  -27.0678   21.6167 C   0  0  0  0  0  0  0  0  0  0  0  0
  -23.3408  -31.8784   23.6659 C   0  0  1  0  0  0  0  0  0  0  0  0
  -22.5954  -29.0797   21.2073 C   0  0  1  0  0  0  0  0  0  0  0  0
  -26.1118  -18.7237   19.4951 C   0  0  2  0  0  0  0  0  0  0  0  0
  -29.6643  -27.8337   20.4631 C   0  0  2  0  0  0  0  0  0  1  0  0
  -27.0381  -21.7803   24.0043 C   0  0  0  0  0  0  0  0  0  0  0  0
  -20.9883  -21.9555   19.3626 C   0  0  0  0  0  0  0  0  0  0  0  0
  -20.4840  -25.9348   24.4564 C   0  0  0  0  0  0  0  0  0  0  0  0
  -20.6455  -23.6105   23.5400 C   0  0  0  0  0  0  0  0  0  0  0  0
  -19.0573  -25.2429   22.5224 C   0  0  0  0  0  0  0  0  0  0  0  0
  -24.4883  -23.3261   18.7731 C   0  0  0  0  0  0  0  0  0  0  0  0
  -31.5104  -25.0183   22.2771 C   0  0  0  0  0  0  0  0  0  0  0  0
  -21.5400  -25.5239   22.1365 C   0  0  1  0  0  0  0  0  0  0  0  0
  -22.0760  -23.0182   19.3429 C   0  0  2  0  0  0  0  0  0  0  0  0
  -20.4543  -25.0953   23.1636 C   0  0  0  0  0  0  0  0  0  0  0  0
  -25.7657  -16.3026   19.8109 N   0  0  0  0  0  0  0  0  0  0  0  0
  -25.4906  -17.5499   20.2288 N   0  0  0  0  0  0  0  0  0  0  0  0
  -31.1406  -25.9431   21.2134 N   0  0  0  0  0  0  0  0  0  0  0  0
  -22.6134  -27.6281   21.3989 N   0  0  0  0  0  0  0  0  0  0  0  0
  -28.0006  -20.3021   19.3867 N   0  0  0  0  0  0  0  0  0  0  0  0
  -24.2741  -18.7729   21.8520 N   0  0  0  0  0  0  0  0  0  0  0  0
  -23.3158  -14.4743   22.8520 N   0  0  0  0  0  0  0  0  0  0  0  0
  -27.9775  -21.7265   21.2663 N   0  0  0  0  0  0  0  0  0  0  0  0
  -22.9808  -31.0805   22.5134 N   0  0  0  0  0  0  0  0  0  0  0  0
  -21.5179  -24.7638   20.8914 N   0  0  0  0  0  0  0  0  0  0  0  0
  -23.3391  -22.3890   18.8637 N   0  3  0  0  0  0  0  0  0  0  0  0
  -32.6070  -24.9885   19.6870 O   0  0  0  0  0  0  0  0  0  0  0  0
  -22.9237  -16.6552   23.4423 O   0  0  0  0  0  0  0  0  0  0  0  0
  -23.3344  -28.9770   23.4474 O   0  0  0  0  0  0  0  0  0  0  0  0
  -20.3101  -27.5135   21.7425 O   0  0  0  0  0  0  0  0  0  0  0  0
  -23.0332  -23.1399   21.5580 O   0  0  0  0  0  0  0  0  0  0  0  0
  -28.7644  -22.4774   19.2172 O   0  0  0  0  0  0  0  0  0  0  0  0
  -25.2174   -9.9694   20.1816 O   0  0  0  0  0  0  0  0  0  0  0  0
  -28.5774  -27.0933   19.9164 O   0  0  0  0  0  0  0  0  0  1  0  0
  -21.3922   -7.0627   22.8876 F   0  0  0  0  0  0  0  0  0  0  0  0
  -23.4625   -8.3223   18.8215 F   0  0  0  0  0  0  0  0  0  0  0  0
  1  2  1  0  0  0  0
  1  5  2  0  0  0  0
  2  6  2  0  0  0  0
  3 10  2  0  0  0  0
  3 18  1  0  0  0  0
  4 11  1  0  0  0  0
  4 18  2  0  0  0  0
  5 20  1  0  0  0  0
  6 22  1  0  0  0  0
  7 12  2  0  0  0  0
  7 21  1  0  0  0  0
  8  9  2  0  0  0  0
  8 24  1  0  0  0  0
  9 25  1  0  0  0  0
 10 27  1  0  0  0  0
 11 27  2  0  0  0  0
 12 28  1  0  0  0  0
 13 14  2  0  0  0  0
 13 29  1  0  0  0  0
 14 30  1  0  0  0  0
 15 23  1  0  0  0  0
 15 28  2  0  0  0  0
 16 24  2  0  0  0  0
 16 26  1  0  0  0  0
 17 30  2  0  0  0  0
 17 31  1  0  0  0  0
 18 32  1  0  0  0  0
 19 32  1  0  0  0  0
 19 33  2  0  0  0  0
 19 35  1  0  0  0  0
 20 22  2  0  0  0  0
 20 40  1  0  0  0  0
 21 23  2  0  0  0  0
 21 41  1  0  0  0  0
 22 52  1  0  0  0  0
 23 42  1  0  0  0  0
 24 62  1  0  0  0  0
 25 26  2  0  0  0  0
 25 56  1  0  0  0  0
 26 73  1  0  0  0  0
 27 83  1  0  0  0  0
 28 84  1  0  0  0  0
 29 31  2  0  0  0  0
 29 83  1  0  0  0  0
 30 85  1  0  0  0  0
 31 86  1  0  0  0  0
 32 66  2  0  0  0  0
 33 67  1  0  0  0  0
 33 71  1  0  0  0  0
 34 43  1  0  0  0  0
 34 68  1  0  0  0  0
 34 77  2  0  0  0  0
 35 72  1  0  0  0  0
 35 78  2  0  0  0  0
 36 53  1  0  0  0  0
 36 74  1  0  0  0  0
 36 79  2  0  0  0  0
 37 63  1  0  0  0  0
 37 69  1  0  0  0  0
 37 80  2  0  0  0  0
 38 64  1  0  0  0  0
 38 75  1  0  0  0  0
 38 81  2  0  0  0  0
 39 70  1  0  0  0  0
 39 73  1  0  0  0  0
 39 82  2  0  0  0  0
 40 44  1  0  0  0  0
 41 53  1  0  0  0  0
 42 69  1  0  0  0  0
 43 45  1  0  0  0  0
 44 47  1  0  0  0  0
 45 55  1  0  0  0  0
 46 48  1  0  0  0  0
 46 49  1  0  0  0  0
 47 52  1  0  0  0  0
 48 54  1  0  0  0  0
 49 70  1  0  0  0  0
 50 54  1  0  0  0  0
 50 70  1  0  0  0  0
 51 55  1  0  0  0  0
 51 68  1  0  0  0  0
 52 74  1  0  0  0  0
 53 69  1  0  0  0  0
 54 67  1  0  0  0  0
 55 84  1  0  0  0  0
 57 64  1  0  0  0  0
 58 65  1  0  0  0  0
 59 65  1  0  0  0  0
 60 65  1  0  0  0  0
 61 76  1  0  0  0  0
 62 68  1  0  0  0  0
 63 65  1  0  0  0  0
 63 75  1  0  0  0  0
 64 76  1  0  0  0  0
 66 67  1  0  0  0  0
M  CHG  1  76   1
M  ISO  4  39 100  55 101  73 100  84 101
M  END
> <Batch ID>
0050

> <Smiles>
CNC(C)C(=O)NC(C(=O)N1Cc2cc([101O:1][101CH:1]3CCC(=O)N(Cc4ccc(C)c([100NH:0][100C:0](=O)N5CCCC(n6nc(-c7ccc(Oc8ccc(F)cc8F)cc7)c(C(N)=O)c6N)C5)c4)C3)ccc2CC1C(=O)NC1CCCc2ccccc21)C(C)(C)C

> <Shape>
0.256

> <Color>
0.101

> <Negative vol penalty>
0.000

$$$$

  -OEChem-04042322353D

 85 93  0     1  0  0  0  0  0999 V2000
  -27.6732  -23.8434   17.2972 C   0  0  0  0  0  0  0  0  0  0  0  0
  -26.6081  -24.7041   17.5371 C   0  0  0  0  0  0  0  0  0  0  0  0
  -26.1791  -13.2321   19.6179 C   0  0  0  0  0  0  0  0  0  0  0  0
  -24.0067  -13.4463   20.6532 C   0  0  0  0  0  0  0  0  0  0  0  0
  -28.7424  -23.7981   18.1894 C   0  0  0  0  0  0  0  0  0  0  0  0
  -26.6172  -25.5284   18.6628 C   0  0  0  0  0  0  0  0  0  0  0  0
  -23.0103  -28.8541   19.0272 C   0  0  0  0  0  0  0  0  0  0  0  0
  -19.4182  -21.2119   22.2194 C   0  0  0  0  0  0  0  0  0  0  0  0
  -20.8290  -23.1708   22.3156 C   0  0  0  0  0  0  0  0  0  0  0  0
  -20.2699  -20.6450   21.2714 C   0  0  0  0  0  0  0  0  0  0  0  0
  -21.6807  -22.6040   21.3675 C   0  0  0  0  0  0  0  0  0  0  0  0
  -26.5306  -12.2617   20.5562 C   0  0  0  0  0  0  0  0  0  0  0  0
  -24.3582  -12.4759   21.5915 C   0  0  0  0  0  0  0  0  0  0  0  0
  -21.6915  -28.5070   19.3173 C   0  0  0  0  0  0  0  0  0  0  0  0
  -24.5528   -9.7955   24.0401 C   0  0  0  0  0  0  0  0  0  0  0  0
  -23.6187   -8.7996   24.3252 C   0  0  0  0  0  0  0  0  0  0  0  0
  -21.9940  -29.2760   21.5836 C   0  0  0  0  0  0  0  0  0  0  0  0
  -23.6487   -8.1086   22.0103 C   0  0  0  0  0  0  0  0  0  0  0  0
  -24.9172  -13.8244   19.6664 C   0  0  0  0  0  0  0  0  0  0  0  0
  -23.9378  -14.6193   17.4490 C   0  0  0  0  0  0  0  0  0  0  0  0
  -28.7580  -24.6136   19.3330 C   0  0  0  0  0  0  0  0  0  0  0  0
  -23.8355  -29.4056   20.0178 C   0  0  0  0  0  0  0  0  0  0  0  0
  -27.6984  -25.5146   19.5626 C   0  0  0  0  0  0  0  0  0  0  0  0
  -23.3221  -29.6316   21.3029 C   0  0  0  0  0  0  0  0  0  0  0  0
  -19.6977  -22.4748   22.7415 C   0  0  0  0  0  0  0  0  0  0  0  0
  -21.4011  -21.3410   20.8454 C   0  0  0  0  0  0  0  0  0  0  0  0
  -25.6201  -11.8836   21.5430 C   0  0  0  0  0  0  0  0  0  0  0  0
  -21.1841  -28.7152   20.5965 C   0  0  0  0  0  0  0  0  0  0  0  0
  -25.0348   -9.9480   22.7400 C   0  0  0  0  0  0  0  0  0  0  0  0
  -23.1667   -7.9562   23.3104 C   0  0  0  0  0  0  0  0  0  0  0  0
  -24.5828   -9.1045   21.7252 C   0  0  0  0  0  0  0  0  0  0  0  0
  -24.5537  -14.8273   18.6977 C   0  0  0  0  0  0  0  0  0  0  0  0
  -23.8074  -15.8786   16.9166 C   0  0  0  0  0  0  0  0  0  0  0  0
  -18.5536  -25.7725   22.6983 C   0  0  0  0  0  0  0  0  0  0  0  0
  -18.4707  -27.0177   22.2089 C   0  0  0  0  0  0  0  0  0  0  0  0
  -23.5209  -13.3971   16.8261 C   0  0  0  0  0  0  0  0  0  0  0  0
  -17.3730  -24.8639   22.6257 C   0  0  0  0  0  0  0  0  0  0  0  0
  -26.5448  -28.5239   21.4270 C   0  0  0  0  0  0  0  0  0  0  0  0
  -26.3338  -31.4586   22.7929 C   0  0  0  0  0  0  0  0  0  0  0  0
  -24.3619  -34.0764   23.7443 C   0  0  0  0  0  0  0  0  0  0  0  0
  -23.4304  -21.3218   19.3527 C   0  0  0  0  0  0  0  0  0  0  0  0
  -29.9440  -24.5298   20.2612 C   0  0  0  0  0  0  0  0  0  0  0  0
  -25.2477  -29.7994   19.6815 C   0  0  0  0  0  0  0  0  0  0  0  0
  -24.1608  -30.2395   22.3963 C   0  0  0  0  0  0  0  0  0  0  0  0
  -29.6591  -25.1082   21.6434 C   0  0  0  0  0  0  0  0  0  0  0  0
  -25.8538  -20.2077   16.9941 C   0  0  0  0  0  0  0  0  0  0  0  0
  -29.0272  -26.4857   21.5104 C   0  0  0  0  0  0  0  0  0  0  0  0
  -25.7351  -18.6827   17.0453 C   0  0  0  0  0  0  0  0  0  0  0  0
  -25.6620  -20.8380   18.3724 C   0  0  0  0  0  0  0  0  0  0  0  0
  -24.3134  -18.9172   19.1215 C   0  0  0  0  0  0  0  0  0  0  0  0
  -27.6723  -26.3983   20.7965 C   0  0  1  0  0  0  0  0  0  0  0  0
  -26.1538  -29.8781   20.9064 C   0  0  1  0  0  0  0  0  0  0  0  0
  -24.4349  -18.2418   17.7457 C   0  0  2  0  0  0  0  0  0  0  0  0
  -24.4696  -36.3161   24.8710 C   0  0  0  0  0  0  0  0  0  0  0  0
  -26.6115  -30.0803   25.5009 C   0  0  0  0  0  0  0  0  0  0  0  0
  -25.7725  -32.1794   26.5771 C   0  0  0  0  0  0  0  0  0  0  0  0
  -27.9016  -32.2111   25.2777 C   0  0  0  0  0  0  0  0  0  0  0  0
  -16.4472  -22.6285   23.0976 C   0  0  0  0  0  0  0  0  0  0  0  0
  -23.3473  -35.4660   21.3363 C   0  0  0  0  0  0  0  0  0  0  0  0
  -18.7809  -23.0849   23.7620 C   0  0  0  0  0  0  0  0  0  0  0  0
  -19.6125  -27.9822   22.2239 C   0  0  0  0  0  0  0  0  0  1  0  0
  -25.7018  -32.0108   24.0478 C   0  0  1  0  0  0  0  0  0  0  0  0
  -24.5101  -35.5739   23.5442 C   0  0  2  0  0  0  0  0  0  0  0  0
  -26.4814  -31.6071   25.3310 C   0  0  0  0  0  0  0  0  0  0  0  0
  -24.7977  -16.1172   18.9439 N   0  0  0  0  0  0  0  0  0  0  0  0
  -24.3328  -16.7311   17.8425 N   0  0  0  0  0  0  0  0  0  0  0  0
  -25.5372  -30.6020   22.0200 N   0  0  0  0  0  0  0  0  0  0  0  0
  -24.4081  -20.3779   18.9732 N   0  0  0  0  0  0  0  0  0  0  0  0
  -23.2956  -16.3289   15.7513 N   0  0  0  0  0  0  0  0  0  0  0  0
  -23.7297  -12.1926   17.5118 N   0  0  0  0  0  0  0  0  0  0  0  0
  -22.2667  -20.7653   19.8825 N   0  0  0  0  0  0  0  0  0  0  0  0
  -27.2056  -27.7357   20.5042 N   0  0  0  0  0  0  0  0  0  0  0  0
  -25.5865  -33.4512   23.8469 N   0  0  0  0  0  0  0  0  0  0  0  0
  -17.5461  -23.5836   23.1592 N   0  0  0  0  0  0  0  0  0  0  0  0
  -23.4109  -36.0926   22.6818 N   0  3  0  0  0  0  0  0  0  0  0  0
  -22.9942  -13.3722   15.6880 O   0  0  0  0  0  0  0  0  0  0  0  0
  -16.3330  -25.2545   22.0934 O   0  0  0  0  0  0  0  0  0  0  0  0
  -26.2688  -28.2175   22.5809 O   0  0  0  0  0  0  0  0  0  0  0  0
  -27.4892  -31.7812   22.5053 O   0  0  0  0  0  0  0  0  0  0  0  0
  -23.2690  -33.5177   23.8072 O   0  0  0  0  0  0  0  0  0  0  0  0
  -23.6011  -22.5331   19.1925 O   0  0  0  0  0  0  0  0  0  0  0  0
  -25.9627  -10.9366   22.4586 O   0  0  0  0  0  0  0  0  0  0  0  0
  -19.8974  -28.3767   20.8825 O   0  0  0  0  0  0  0  0  0  1  0  0
  -22.2708   -6.9989   23.5847 F   0  0  0  0  0  0  0  0  0  0  0  0
  -25.0431   -9.2454   20.4745 F   0  0  0  0  0  0  0  0  0  0  0  0
  1  2  1  0  0  0  0
  1  5  2  0  0  0  0
  2  6  2  0  0  0  0
  3 12  2  0  0  0  0
  3 19  1  0  0  0  0
  4 13  1  0  0  0  0
  4 19  2  0  0  0  0
  5 21  1  0  0  0  0
  6 23  1  0  0  0  0
  7 14  2  0  0  0  0
  7 22  1  0  0  0  0
  8 10  2  0  0  0  0
  8 25  1  0  0  0  0
  9 11  1  0  0  0  0
  9 25  2  0  0  0  0
 10 26  1  0  0  0  0
 11 26  2  0  0  0  0
 12 27  1  0  0  0  0
 13 27  2  0  0  0  0
 14 28  1  0  0  0  0
 15 16  2  0  0  0  0
 15 29  1  0  0  0  0
 16 30  1  0  0  0  0
 17 24  1  0  0  0  0
 17 28  2  0  0  0  0
 18 30  2  0  0  0  0
 18 31  1  0  0  0  0
 19 32  1  0  0  0  0
 20 32  1  0  0  0  0
 20 33  2  0  0  0  0
 20 36  1  0  0  0  0
 21 23  2  0  0  0  0
 21 42  1  0  0  0  0
 22 24  2  0  0  0  0
 22 43  1  0  0  0  0
 23 51  1  0  0  0  0
 24 44  1  0  0  0  0
 25 60  1  0  0  0  0
 26 71  1  0  0  0  0
 27 82  1  0  0  0  0
 28 83  1  0  0  0  0
 29 31  2  0  0  0  0
 29 82  1  0  0  0  0
 30 84  1  0  0  0  0
 31 85  1  0  0  0  0
 32 65  2  0  0  0  0
 33 66  1  0  0  0  0
 33 69  1  0  0  0  0
 34 35  2  0  0  0  0
 34 37  1  0  0  0  0
 35 61  1  0  0  0  0
 36 70  1  0  0  0  0
 36 76  2  0  0  0  0
 37 74  1  0  0  0  0
 37 77  2  0  0  0  0
 38 52  1  0  0  0  0
 38 72  1  0  0  0  0
 38 78  2  0  0  0  0
 39 62  1  0  0  0  0
 39 67  1  0  0  0  0
 39 79  2  0  0  0  0
 40 63  1  0  0  0  0
 40 73  1  0  0  0  0
 40 80  2  0  0  0  0
 41 68  1  0  0  0  0
 41 71  1  0  0  0  0
 41 81  2  0  0  0  0
 42 45  1  0  0  0  0
 43 52  1  0  0  0  0
 44 67  1  0  0  0  0
 45 47  1  0  0  0  0
 46 48  1  0  0  0  0
 46 49  1  0  0  0  0
 47 51  1  0  0  0  0
 48 53  1  0  0  0  0
 49 68  1  0  0  0  0
 50 53  1  0  0  0  0
 50 68  1  0  0  0  0
 51 72  1  0  0  0  0
 52 67  1  0  0  0  0
 53 66  1  0  0  0  0
 54 63  1  0  0  0  0
 55 64  1  0  0  0  0
 56 64  1  0  0  0  0
 57 64  1  0  0  0  0
 58 74  1  0  0  0  0
 59 75  1  0  0  0  0
 60 74  1  0  0  0  0
 61 83  1  0  0  0  0
 62 64  1  0  0  0  0
 62 73  1  0  0  0  0
 63 75  1  0  0  0  0
 65 66  1  0  0  0  0
M  CHG  1  75   1
M  ISO  4  41 100  61 101  71 100  83 101
M  END
> <Batch ID>
0050

> <Smiles>
CNC(C)C(=O)NC(C(=O)N1Cc2cc([101O:1][101CH2:1]C=CC(=O)N(C)Cc3ccc([100NH:0][100C:0](=O)N4CCCC(n5nc(-c6ccc(Oc7ccc(F)cc7F)cc6)c(C(N)=O)c5N)C4)cc3)ccc2CC1C(=O)NC1CCCc2ccccc21)C(C)(C)C

> <Shape>
0.248

> <Color>
0.073

> <Negative vol penalty>
0.000

$$$$

  -OEChem-04042322353D

 83 91  0     1  0  0  0  0  0999 V2000
  -18.7313  -27.0391   25.9742 C   0  0  0  0  0  0  0  0  0  0  0  0
  -19.9648  -26.5486   25.5579 C   0  0  0  0  0  0  0  0  0  0  0  0
  -24.5069   -9.2481   21.1146 C   0  0  0  0  0  0  0  0  0  0  0  0
  -22.5298  -10.5473   20.6243 C   0  0  0  0  0  0  0  0  0  0  0  0
  -17.9826  -27.8518   25.1240 C   0  0  0  0  0  0  0  0  0  0  0  0
  -20.4498  -26.8696   24.2905 C   0  0  0  0  0  0  0  0  0  0  0  0
  -26.2948  -27.7863   22.7090 C   0  0  0  0  0  0  0  0  0  0  0  0
  -28.2455  -20.8011   17.7018 C   0  0  0  0  0  0  0  0  0  0  0  0
  -27.1752  -20.0361   17.2383 C   0  0  0  0  0  0  0  0  0  0  0  0
  -23.7079   -8.1434   21.4092 C   0  0  0  0  0  0  0  0  0  0  0  0
  -21.7308   -9.4425   20.9189 C   0  0  0  0  0  0  0  0  0  0  0  0
  -27.2442  -26.9613   22.1074 C   0  0  0  0  0  0  0  0  0  0  0  0
  -21.8103   -7.0590   23.9875 C   0  0  0  0  0  0  0  0  0  0  0  0
  -22.1126   -6.3297   25.1374 C   0  0  0  0  0  0  0  0  0  0  0  0
  -26.7030  -27.9153   19.9589 C   0  0  0  0  0  0  0  0  0  0  0  0
  -27.9214  -19.9086   19.9234 C   0  0  0  0  0  0  0  0  0  0  0  0
  -22.4738   -4.3565   23.7910 C   0  0  0  0  0  0  0  0  0  0  0  0
  -23.9178  -10.4501   20.7222 C   0  0  0  0  0  0  0  0  0  0  0  0
  -25.2825  -11.9412   19.1660 C   0  0  0  0  0  0  0  0  0  0  0  0
  -18.4631  -28.1908   23.8493 C   0  0  0  0  0  0  0  0  0  0  0  0
  -25.5334  -28.6757   21.9372 C   0  0  0  0  0  0  0  0  0  0  0  0
  -19.7062  -27.6865   23.4219 C   0  0  0  0  0  0  0  0  0  0  0  0
  -25.7464  -28.7523   20.5534 C   0  0  0  0  0  0  0  0  0  0  0  0
  -28.6186  -20.7373   19.0443 C   0  0  0  0  0  0  0  0  0  0  0  0
  -26.4779  -19.2074   18.1173 C   0  0  0  0  0  0  0  0  0  0  0  0
  -26.8510  -19.1437   19.4599 C   0  0  0  0  0  0  0  0  0  0  0  0
  -22.3199   -8.2405   21.3114 C   0  0  0  0  0  0  0  0  0  0  0  0
  -27.4464  -27.0237   20.7318 C   0  0  0  0  0  0  0  0  0  0  0  0
  -21.8396   -6.4371   22.7393 C   0  0  0  0  0  0  0  0  0  0  0  0
  -22.4444   -4.9785   25.0392 C   0  0  0  0  0  0  0  0  0  0  0  0
  -22.1714   -5.0858   22.6410 C   0  0  0  0  0  0  0  0  0  0  0  0
  -24.7426  -11.5918   20.4182 C   0  0  0  0  0  0  0  0  0  0  0  0
  -25.9827  -13.0985   19.4048 C   0  0  0  0  0  0  0  0  0  0  0  0
  -25.1619  -11.2790   17.9000 C   0  0  0  0  0  0  0  0  0  0  0  0
  -22.4348  -29.0242   21.3200 C   0  0  0  0  0  0  0  0  0  0  0  0
  -23.4382  -31.7066   19.7968 C   0  0  0  0  0  0  0  0  0  0  0  0
  -29.0641  -23.9383   19.7261 C   0  0  0  0  0  0  0  0  0  0  0  0
  -25.9731  -33.3761   18.2367 C   0  0  0  0  0  0  0  0  0  0  0  0
  -26.4121  -18.1402   21.7285 C   0  0  0  0  0  0  0  0  0  0  0  0
  -17.5965  -29.0338   22.9474 C   0  0  0  0  0  0  0  0  0  0  0  0
  -24.5321  -29.5779   22.6049 C   0  0  0  0  0  0  0  0  0  0  0  0
  -24.9693  -29.7046   19.6830 C   0  0  0  0  0  0  0  0  0  0  0  0
  -18.3515  -29.6335   21.7639 C   0  0  0  0  0  0  0  0  0  0  0  0
  -27.2523  -15.3406   23.7617 C   0  0  0  0  0  0  0  0  0  0  0  0
  -19.2210  -28.5746   21.0935 C   0  0  0  0  0  0  0  0  0  0  0  0
  -26.7187  -14.1445   22.9701 C   0  0  0  0  0  0  0  0  0  0  0  0
  -26.3342  -16.5556   23.6412 C   0  0  0  0  0  0  0  0  0  0  0  0
  -25.4757  -15.7582   21.4741 C   0  0  0  0  0  0  0  0  0  0  0  0
  -20.2774  -28.0328   22.0640 C   0  0  1  0  0  0  0  0  0  0  0  0
  -23.4514  -30.0797   21.6521 C   0  0  1  0  0  0  0  0  0  0  0  0
  -26.4002  -14.5304   21.5123 C   0  0  2  0  0  0  0  0  0  0  0  0
  -25.3349  -18.3999   17.5932 C   0  0  0  0  0  0  0  0  0  0  0  0
  -26.4805  -35.5349   17.0622 C   0  0  0  0  0  0  0  0  0  0  0  0
  -21.9515  -30.7090   17.3261 C   0  0  0  0  0  0  0  0  0  0  0  0
  -23.2500  -32.3602   15.9638 C   0  0  0  0  0  0  0  0  0  0  0  0
  -21.7198  -33.1603   17.7640 C   0  0  0  0  0  0  0  0  0  0  0  0
  -28.0366  -34.1087   20.2278 C   0  0  0  0  0  0  0  0  0  0  0  0
  -29.7710  -21.5609   19.5423 C   0  0  0  0  0  0  0  0  0  0  0  0
  -28.6189  -24.9547   20.7558 C   0  0  0  0  0  0  0  0  0  1  0  0
  -23.8932  -32.0332   18.3949 C   0  0  1  0  0  0  0  0  0  0  0  0
  -26.4895  -34.7953   18.3910 C   0  0  2  0  0  0  0  0  0  0  0  0
  -22.7171  -32.0462   17.3781 C   0  0  0  0  0  0  0  0  0  0  0  0
  -25.0717  -12.4569   21.3812 N   0  0  0  0  0  0  0  0  0  0  0  0
  -25.8260  -13.3614   20.7339 N   0  0  0  0  0  0  0  0  0  0  0  0
  -23.9972  -30.5616   20.3817 N   0  0  0  0  0  0  0  0  0  0  0  0
  -26.0801  -16.8647   22.2323 N   0  0  0  0  0  0  0  0  0  0  0  0
  -26.7110  -13.9066   18.6055 N   0  0  0  0  0  0  0  0  0  0  0  0
  -24.4056  -10.1010   17.8316 N   0  0  0  0  0  0  0  0  0  0  0  0
  -26.1556  -18.3074   20.3681 N   0  0  0  0  0  0  0  0  0  0  0  0
  -21.3695  -28.9728   22.1986 N   0  0  0  0  0  0  0  0  0  0  0  0
  -29.3279  -22.7061   20.3033 N   0  0  0  0  0  0  0  0  0  0  0  0
  -24.6192  -33.2955   18.4850 N   0  0  0  0  0  0  0  0  0  0  0  0
  -27.8851  -34.7848   18.9136 N   0  3  0  0  0  0  0  0  0  0  0  0
  -25.7220  -11.7100   16.8637 O   0  0  0  0  0  0  0  0  0  0  0  0
  -22.6037  -28.3103   20.3384 O   0  0  0  0  0  0  0  0  0  0  0  0
  -22.6224  -32.4445   20.3551 O   0  0  0  0  0  0  0  0  0  0  0  0
  -29.1700  -24.2048   18.5321 O   0  0  0  0  0  0  0  0  0  0  0  0
  -26.6976  -32.4341   17.9234 O   0  0  0  0  0  0  0  0  0  0  0  0
  -26.9141  -19.0103   22.4447 O   0  0  0  0  0  0  0  0  0  0  0  0
  -21.5400   -7.1627   21.5985 O   0  0  0  0  0  0  0  0  0  0  0  0
  -28.3720  -26.2191   20.1421 O   0  0  0  0  0  0  0  0  0  1  0  0
  -22.7362   -4.2786   26.1433 F   0  0  0  0  0  0  0  0  0  0  0  0
  -22.2024   -4.4831   21.4445 F   0  0  0  0  0  0  0  0  0  0  0  0
  1  2  1  0  0  0  0
  1  5  2  0  0  0  0
  2  6  2  0  0  0  0
  3 10  2  0  0  0  0
  3 18  1  0  0  0  0
  4 11  1  0  0  0  0
  4 18  2  0  0  0  0
  5 20  1  0  0  0  0
  6 22  1  0  0  0  0
  7 12  2  0  0  0  0
  7 21  1  0  0  0  0
  8  9  2  0  0  0  0
  8 24  1  0  0  0  0
  9 25  1  0  0  0  0
 10 27  1  0  0  0  0
 11 27  2  0  0  0  0
 12 28  1  0  0  0  0
 13 14  2  0  0  0  0
 13 29  1  0  0  0  0
 14 30  1  0  0  0  0
 15 23  1  0  0  0  0
 15 28  2  0  0  0  0
 16 24  2  0  0  0  0
 16 26  1  0  0  0  0
 17 30  2  0  0  0  0
 17 31  1  0  0  0  0
 18 32  1  0  0  0  0
 19 32  1  0  0  0  0
 19 33  2  0  0  0  0
 19 34  1  0  0  0  0
 20 22  2  0  0  0  0
 20 40  1  0  0  0  0
 21 23  2  0  0  0  0
 21 41  1  0  0  0  0
 22 49  1  0  0  0  0
 23 42  1  0  0  0  0
 24 58  1  0  0  0  0
 25 26  2  0  0  0  0
 25 52  1  0  0  0  0
 26 69  1  0  0  0  0
 27 80  1  0  0  0  0
 28 81  1  0  0  0  0
 29 31  2  0  0  0  0
 29 80  1  0  0  0  0
 30 82  1  0  0  0  0
 31 83  1  0  0  0  0
 32 63  2  0  0  0  0
 33 64  1  0  0  0  0
 33 67  1  0  0  0  0
 34 68  1  0  0  0  0
 34 74  2  0  0  0  0
 35 50  1  0  0  0  0
 35 70  1  0  0  0  0
 35 75  2  0  0  0  0
 36 60  1  0  0  0  0
 36 65  1  0  0  0  0
 36 76  2  0  0  0  0
 37 59  1  0  0  0  0
 37 71  1  0  0  0  0
 37 77  2  0  0  0  0
 38 61  1  0  0  0  0
 38 72  1  0  0  0  0
 38 78  2  0  0  0  0
 39 66  1  0  0  0  0
 39 69  1  0  0  0  0
 39 79  2  0  0  0  0
 40 43  1  0  0  0  0
 41 50  1  0  0  0  0
 42 65  1  0  0  0  0
 43 45  1  0  0  0  0
 44 46  1  0  0  0  0
 44 47  1  0  0  0  0
 45 49  1  0  0  0  0
 46 51  1  0  0  0  0
 47 66  1  0  0  0  0
 48 51  1  0  0  0  0
 48 66  1  0  0  0  0
 49 70  1  0  0  0  0
 50 65  1  0  0  0  0
 51 64  1  0  0  0  0
 53 61  1  0  0  0  0
 54 62  1  0  0  0  0
 55 62  1  0  0  0  0
 56 62  1  0  0  0  0
 57 73  1  0  0  0  0
 58 71  1  0  0  0  0
 59 81  1  0  0  0  0
 60 62  1  0  0  0  0
 60 72  1  0  0  0  0
 61 73  1  0  0  0  0
 63 64  1  0  0  0  0
M  CHG  1  73   1
M  ISO  4  39 100  59 101  69 100  81 101
M  END
> <Batch ID>
0050

> <Smiles>
CNC(C)C(=O)NC(C(=O)N1Cc2cc([101O:1][101CH2:1]C(=O)NCc3ccc(C)c([100NH:0][100C:0](=O)N4CCCC(n5nc(-c6ccc(Oc7ccc(F)cc7F)cc6)c(C(N)=O)c5N)C4)c3)ccc2CC1C(=O)NC1CCCc2ccccc21)C(C)(C)C

> <Shape>
0.253

> <Color>
0.131

> <Negative vol penalty>
0.000

$$$$

  -OEChem-04042322353D

 86 95  0     1  0  0  0  0  0999 V2000
  -28.1445  -33.4170   26.1775 C   0  0  0  0  0  0  0  0  0  0  0  0
  -28.2732  -32.2225   25.4760 C   0  0  0  0  0  0  0  0  0  0  0  0
  -24.8879  -15.2573   21.1017 C   0  0  0  0  0  0  0  0  0  0  0  0
  -23.6542  -14.3417   19.2371 C   0  0  0  0  0  0  0  0  0  0  0  0
  -26.8822  -33.8621   26.5681 C   0  0  0  0  0  0  0  0  0  0  0  0
  -27.1397  -31.4719   25.1656 C   0  0  0  0  0  0  0  0  0  0  0  0
  -27.1669  -29.7980   20.3863 C   0  0  0  0  0  0  0  0  0  0  0  0
  -27.9048  -22.4724   14.9799 C   0  0  0  0  0  0  0  0  0  0  0  0
  -25.4290  -13.9984   21.3620 C   0  0  0  0  0  0  0  0  0  0  0  0
  -24.1953  -13.0826   19.4974 C   0  0  0  0  0  0  0  0  0  0  0  0
  -27.9677  -28.6923   20.1034 C   0  0  0  0  0  0  0  0  0  0  0  0
  -23.6702  -10.5460   21.6700 C   0  0  0  0  0  0  0  0  0  0  0  0
  -22.8052   -9.4519   21.6496 C   0  0  0  0  0  0  0  0  0  0  0  0
  -29.1991  -22.9665   14.8183 C   0  0  0  0  0  0  0  0  0  0  0  0
  -26.0239  -27.2671   20.2011 C   0  0  0  0  0  0  0  0  0  0  0  0
  -28.3396  -22.1011   17.3273 C   0  0  0  0  0  0  0  0  0  0  0  0
  -24.1046   -8.4578   19.8718 C   0  0  0  0  0  0  0  0  0  0  0  0
  -24.0004  -15.4290   20.0393 C   0  0  0  0  0  0  0  0  0  0  0  0
  -22.6511  -17.5103   20.6352 C   0  0  0  0  0  0  0  0  0  0  0  0
  -25.7319  -33.1215   26.2539 C   0  0  0  0  0  0  0  0  0  0  0  0
  -25.7880  -29.6447   20.5898 C   0  0  0  0  0  0  0  0  0  0  0  0
  -25.8610  -31.9069   25.5535 C   0  0  0  0  0  0  0  0  0  0  0  0
  -25.2074  -28.3728   20.4839 C   0  0  0  0  0  0  0  0  0  0  0  0
  -29.6340  -22.5951   17.1656 C   0  0  0  0  0  0  0  0  0  0  0  0
  -27.4750  -22.0398   16.2344 C   0  0  0  0  0  0  0  0  0  0  0  0
  -25.0827  -12.9110   20.5598 C   0  0  0  0  0  0  0  0  0  0  0  0
  -27.3967  -27.4262   20.0137 C   0  0  0  0  0  0  0  0  0  0  0  0
  -24.7524  -10.5960   20.7913 C   0  0  0  0  0  0  0  0  0  0  0  0
  -23.0223   -8.4078   20.7505 C   0  0  0  0  0  0  0  0  0  0  0  0
  -24.9696   -9.5519   19.8923 C   0  0  0  0  0  0  0  0  0  0  0  0
  -30.0637  -23.0278   15.9111 C   0  0  0  0  0  0  0  0  0  0  0  0
  -23.4407  -16.7291   19.7702 C   0  0  0  0  0  0  0  0  0  0  0  0
  -22.3756  -18.6473   19.9157 C   0  0  0  0  0  0  0  0  0  0  0  0
  -29.2959  -23.5132   20.3110 C   0  0  0  0  0  0  0  0  0  0  0  0
  -22.2067  -17.2330   21.9698 C   0  0  0  0  0  0  0  0  0  0  0  0
  -23.8066  -30.1733   23.0184 C   0  0  0  0  0  0  0  0  0  0  0  0
  -21.5403  -29.4033   20.8290 C   0  0  0  0  0  0  0  0  0  0  0  0
  -21.1299  -26.9506   18.2150 C   0  0  0  0  0  0  0  0  0  0  0  0
  -25.1760  -21.4112   15.4185 C   0  0  0  0  0  0  0  0  0  0  0  0
  -24.3932  -33.6193   26.7385 C   0  0  0  0  0  0  0  0  0  0  0  0
  -24.9338  -30.8512   20.8677 C   0  0  0  0  0  0  0  0  0  0  0  0
  -23.7289  -28.1576   20.6738 C   0  0  0  0  0  0  0  0  0  0  0  0
  -29.0288  -24.6732   21.2551 C   0  0  0  0  0  0  0  0  0  0  0  0
  -23.2080  -32.9537   26.0438 C   0  0  0  0  0  0  0  0  0  0  0  0
  -21.8311  -20.1908   15.4150 C   0  0  0  0  0  0  0  0  0  0  0  0
  -23.4030  -31.4419   25.9866 C   0  0  0  0  0  0  0  0  0  0  0  0
  -21.7907  -19.2403   16.6138 C   0  0  0  0  0  0  0  0  0  0  0  0
  -30.5633  -26.1196   19.9416 C   0  0  0  0  0  0  0  0  0  0  0  0
  -23.1742  -20.1318   14.6895 C   0  0  0  0  0  0  0  0  0  0  0  0
  -30.6353  -25.0665   18.8495 C   0  0  0  0  0  0  0  0  0  0  0  0
  -24.3106  -19.3834   16.7432 C   0  0  0  0  0  0  0  0  0  0  0  0
  -24.6529  -31.0771   25.1766 C   0  0  1  0  0  0  0  0  0  0  0  0
  -23.6214  -30.5064   21.5650 C   0  0  1  0  0  0  0  0  0  0  0  0
  -23.0005  -19.4553   17.5444 C   0  0  2  0  0  0  0  0  0  0  0  0
  -29.2265  -26.0532   20.6548 C   0  0  1  0  0  0  0  0  0  1  0  0
  -19.7709  -27.0250   16.1067 C   0  0  0  0  0  0  0  0  0  0  0  0
  -19.4000  -28.0157   22.5034 C   0  0  0  0  0  0  0  0  0  0  0  0
  -18.8211  -26.6377   20.4948 C   0  0  0  0  0  0  0  0  0  0  0  0
  -18.5482  -29.1163   20.4255 C   0  0  0  0  0  0  0  0  0  0  0  0
  -23.4905  -26.3483   16.5345 C   0  0  0  0  0  0  0  0  0  0  0  0
  -30.5338  -22.6449   18.3665 C   0  0  0  0  0  0  0  0  0  0  0  0
  -20.8731  -28.1237   20.3858 C   0  0  1  0  0  0  0  0  0  0  0  0
  -21.1515  -27.2050   16.7186 C   0  0  2  0  0  0  0  0  0  0  0  0
  -19.4371  -27.9735   20.9626 C   0  0  0  0  0  0  0  0  0  0  0  0
  -23.6528  -17.3199   18.5912 N   0  0  0  0  0  0  0  0  0  0  0  0
  -22.9925  -18.4843   18.7102 N   0  0  0  0  0  0  0  0  0  0  0  0
  -30.1857  -23.7388   19.2637 N   0  0  0  0  0  0  0  0  0  0  0  0
  -22.9367  -29.3675   20.9498 N   0  0  0  0  0  0  0  0  0  0  0  0
  -24.2732  -20.3483   15.6331 N   0  0  0  0  0  0  0  0  0  0  0  0
  -21.6682  -19.7607   20.2028 N   0  0  0  0  0  0  0  0  0  0  0  0
  -22.5804  -16.0178   22.5596 N   0  0  0  0  0  0  0  0  0  0  0  0
  -26.1597  -21.5388   16.3986 N   0  0  0  0  0  0  0  0  0  0  0  0
  -24.3858  -31.1864   23.7584 N   0  0  0  0  0  0  0  0  0  0  0  0
  -20.9355  -28.1145   18.9282 N   0  0  0  0  0  0  0  0  0  0  0  0
  -22.0900  -26.2625   16.0464 N   0  3  0  0  0  0  0  0  0  0  0  0
  -28.7809  -22.4180   20.5547 O   0  0  0  0  0  0  0  0  0  0  0  0
  -21.4853  -18.0319   22.6141 O   0  0  0  0  0  0  0  0  0  0  0  0
  -23.4489  -29.0788   23.4378 O   0  0  0  0  0  0  0  0  0  0  0  0
  -20.8487  -30.3999   21.0527 O   0  0  0  0  0  0  0  0  0  0  0  0
  -21.2678  -25.8307   18.7023 O   0  0  0  0  0  0  0  0  0  0  0  0
  -25.0669  -22.1701   14.4520 O   0  0  0  0  0  0  0  0  0  0  0  0
  -25.6107  -11.6824   20.8134 O   0  0  0  0  0  0  0  0  0  0  0  0
  -28.1761  -26.3452   19.7384 O   0  0  0  0  0  0  0  0  0  1  0  0
  -22.1925   -7.3566   20.7320 F   0  0  0  0  0  0  0  0  0  0  0  0
  -26.0082   -9.5937   19.0465 F   0  0  0  0  0  0  0  0  0  0  0  0
  -31.6576  -23.6458   15.6725 Cl  0  0  0  0  0  0  0  0  0  0  0  0
  1  2  1  0  0  0  0
  1  5  2  0  0  0  0
  2  6  2  0  0  0  0
  3  9  2  0  0  0  0
  3 18  1  0  0  0  0
  4 10  1  0  0  0  0
  4 18  2  0  0  0  0
  5 20  1  0  0  0  0
  6 22  1  0  0  0  0
  7 11  2  0  0  0  0
  7 21  1  0  0  0  0
  8 14  2  0  0  0  0
  8 25  1  0  0  0  0
  9 26  1  0  0  0  0
 10 26  2  0  0  0  0
 11 27  1  0  0  0  0
 12 13  2  0  0  0  0
 12 28  1  0  0  0  0
 13 29  1  0  0  0  0
 14 31  1  0  0  0  0
 15 23  1  0  0  0  0
 15 27  2  0  0  0  0
 16 24  1  0  0  0  0
 16 25  2  0  0  0  0
 17 29  2  0  0  0  0
 17 30  1  0  0  0  0
 18 32  1  0  0  0  0
 19 32  1  0  0  0  0
 19 33  2  0  0  0  0
 19 35  1  0  0  0  0
 20 22  2  0  0  0  0
 20 40  1  0  0  0  0
 21 23  2  0  0  0  0
 21 41  1  0  0  0  0
 22 52  1  0  0  0  0
 23 42  1  0  0  0  0
 24 31  2  0  0  0  0
 24 61  1  0  0  0  0
 25 72  1  0  0  0  0
 26 82  1  0  0  0  0
 27 83  1  0  0  0  0
 28 30  2  0  0  0  0
 28 82  1  0  0  0  0
 29 84  1  0  0  0  0
 30 85  1  0  0  0  0
 31 86  1  0  0  0  0
 32 65  2  0  0  0  0
 33 66  1  0  0  0  0
 33 70  1  0  0  0  0
 34 43  1  0  0  0  0
 34 67  1  0  0  0  0
 34 76  2  0  0  0  0
 35 71  1  0  0  0  0
 35 77  2  0  0  0  0
 36 53  1  0  0  0  0
 36 73  1  0  0  0  0
 36 78  2  0  0  0  0
 37 62  1  0  0  0  0
 37 68  1  0  0  0  0
 37 79  2  0  0  0  0
 38 63  1  0  0  0  0
 38 74  1  0  0  0  0
 38 80  2  0  0  0  0
 39 69  1  0  0  0  0
 39 72  1  0  0  0  0
 39 81  2  0  0  0  0
 40 44  1  0  0  0  0
 41 53  1  0  0  0  0
 42 68  1  0  0  0  0
 43 55  1  0  0  0  0
 44 46  1  0  0  0  0
 45 47  1  0  0  0  0
 45 49  1  0  0  0  0
 46 52  1  0  0  0  0
 47 54  1  0  0  0  0
 48 50  1  0  0  0  0
 48 55  1  0  0  0  0
 49 69  1  0  0  0  0
 50 67  1  0  0  0  0
 51 54  1  0  0  0  0
 51 69  1  0  0  0  0
 52 73  1  0  0  0  0
 53 68  1  0  0  0  0
 54 66  1  0  0  0  0
 55 83  1  0  0  0  0
 56 63  1  0  0  0  0
 57 64  1  0  0  0  0
 58 64  1  0  0  0  0
 59 64  1  0  0  0  0
 60 75  1  0  0  0  0
 61 67  1  0  0  0  0
 62 64  1  0  0  0  0
 62 74  1  0  0  0  0
 63 75  1  0  0  0  0
 65 66  1  0  0  0  0
M  CHG  1  75   1
M  ISO  4  39 100  55 101  72 100  83 101
M  END
> <Batch ID>
0050

> <Smiles>
CNC(C)C(=O)NC(C(=O)N1Cc2cc([101O:1][101CH:1]3CCN(Cc4cc([100NH:0][100C:0](=O)N5CCCC(n6nc(-c7ccc(Oc8ccc(F)cc8F)cc7)c(C(N)=O)c6N)C5)ccc4Cl)C(=O)C3)ccc2CC1C(=O)NC1CCCc2ccccc21)C(C)(C)C

> <Shape>
0.250

> <Color>
0.084

> <Negative vol penalty>
0.000

$$$$

  -OEChem-04042322353D

 98108  0     1  0  0  0  0  0999 V2000
  -18.7103  -25.0599   23.2154 C   0  0  0  0  0  0  0  0  0  0  0  0
  -19.9395  -25.1929   22.5776 C   0  0  0  0  0  0  0  0  0  0  0  0
  -24.9756   -8.1622   20.8558 C   0  0  0  0  0  0  0  0  0  0  0  0
  -23.7143  -10.2218   20.9204 C   0  0  0  0  0  0  0  0  0  0  0  0
  -27.2708  -21.3228   17.9867 C   0  0  0  0  0  0  0  0  0  0  0  0
  -17.8381  -26.1458   23.2788 C   0  0  0  0  0  0  0  0  0  0  0  0
  -20.2968  -26.4116   22.0019 C   0  0  0  0  0  0  0  0  0  0  0  0
  -25.0647  -27.7416   23.0712 C   0  0  0  0  0  0  0  0  0  0  0  0
  -27.1681  -14.9906   20.6939 C   0  0  0  0  0  0  0  0  0  0  0  0
  -28.1562  -22.3368   18.3518 C   0  0  0  0  0  0  0  0  0  0  0  0
  -27.0927  -15.4788   19.3895 C   0  0  0  0  0  0  0  0  0  0  0  0
  -23.8240   -7.4467   21.1838 C   0  0  0  0  0  0  0  0  0  0  0  0
  -22.5627   -9.5063   21.2484 C   0  0  0  0  0  0  0  0  0  0  0  0
  -26.0783  -27.1121   22.3501 C   0  0  0  0  0  0  0  0  0  0  0  0
  -22.0149   -6.7755   23.9588 C   0  0  0  0  0  0  0  0  0  0  0  0
  -22.1234   -5.7874   24.9372 C   0  0  0  0  0  0  0  0  0  0  0  0
  -26.2516  -29.0453   20.9176 C   0  0  0  0  0  0  0  0  0  0  0  0
  -24.7857  -14.5894   20.6816 C   0  0  0  0  0  0  0  0  0  0  0  0
  -21.4028   -4.1254   23.3386 C   0  0  0  0  0  0  0  0  0  0  0  0
  -24.9207   -9.5498   20.7242 C   0  0  0  0  0  0  0  0  0  0  0  0
  -26.8715  -20.3732   18.9273 C   0  0  0  0  0  0  0  0  0  0  0  0
  -27.3126  -10.3456   21.1158 C   0  0  0  0  0  0  0  0  0  0  0  0
  -18.1890  -27.3813   22.7121 C   0  0  0  0  0  0  0  0  0  0  0  0
  -24.6287  -29.0255   22.7135 C   0  0  0  0  0  0  0  0  0  0  0  0
  -19.4280  -27.5147   22.0567 C   0  0  0  0  0  0  0  0  0  0  0  0
  -25.2341  -29.6900   21.6374 C   0  0  0  0  0  0  0  0  0  0  0  0
  -26.0146  -14.5458   21.3400 C   0  0  0  0  0  0  0  0  0  0  0  0
  -24.7102  -15.0777   19.3772 C   0  0  0  0  0  0  0  0  0  0  0  0
  -27.3579  -20.4377   20.2331 C   0  0  0  0  0  0  0  0  0  0  0  0
  -28.2435  -21.4517   20.5982 C   0  0  0  0  0  0  0  0  0  0  0  0
  -28.6426  -22.4012   19.6575 C   0  0  0  0  0  0  0  0  0  0  0  0
  -25.8638  -15.5224   18.7311 C   0  0  0  0  0  0  0  0  0  0  0  0
  -22.6176   -8.1187   21.3800 C   0  0  0  0  0  0  0  0  0  0  0  0
  -26.6700  -27.7627   21.2713 C   0  0  0  0  0  0  0  0  0  0  0  0
  -21.6002   -6.4387   22.6703 C   0  0  0  0  0  0  0  0  0  0  0  0
  -21.8174   -4.4623   24.6271 C   0  0  0  0  0  0  0  0  0  0  0  0
  -21.2942   -5.1136   22.3602 C   0  0  0  0  0  0  0  0  0  0  0  0
  -26.1100  -10.2896   20.3860 C   0  0  0  0  0  0  0  0  0  0  0  0
  -28.1224  -11.1757   20.3798 C   0  0  0  0  0  0  0  0  0  0  0  0
  -29.5521  -25.7389   20.8817 C   0  0  0  0  0  0  0  0  0  0  0  0
  -30.8560  -23.1722   20.4852 C   0  0  0  0  0  0  0  0  0  0  0  0
  -25.9454  -19.3274   18.5119 C   0  0  0  0  0  0  0  0  0  0  0  0
  -28.7975  -26.7917   21.2311 C   0  0  0  0  0  0  0  0  0  1  0  0
  -26.1743  -18.4071   17.5496 C   0  0  0  0  0  0  0  0  0  0  0  0
  -27.6660   -9.7047   22.3486 C   0  0  0  0  0  0  0  0  0  0  0  0
  -21.8739  -30.2641   21.7233 C   0  0  0  0  0  0  0  0  0  0  0  0
  -23.4796  -33.0681   22.0096 C   0  0  0  0  0  0  0  0  0  0  0  0
  -25.7623  -35.5959   22.2242 C   0  0  0  0  0  0  0  0  0  0  0  0
  -26.5175  -15.4581   16.3105 C   0  0  0  0  0  0  0  0  0  0  0  0
  -17.1934  -28.5130   22.7645 C   0  0  0  0  0  0  0  0  0  0  0  0
  -23.5526  -29.7017   23.5181 C   0  0  0  0  0  0  0  0  0  0  0  0
  -24.8162  -31.0771   21.2255 C   0  0  0  0  0  0  0  0  0  0  0  0
  -30.7962  -25.3851   21.6463 C   0  0  0  0  0  0  0  0  0  0  0  0
  -29.1936  -24.8519   19.7167 C   0  0  0  0  0  0  0  0  0  0  0  0
  -31.6540  -24.4108   20.8530 C   0  0  0  0  0  0  0  0  0  0  0  0
  -17.8051  -29.8772   22.4565 C   0  0  0  0  0  0  0  0  0  0  0  0
  -28.9186  -12.6711   15.9101 C   0  0  0  0  0  0  0  0  0  0  0  0
  -18.6943  -29.7966   21.2197 C   0  0  0  0  0  0  0  0  0  0  0  0
  -28.5131  -11.7108   17.0268 C   0  0  0  0  0  0  0  0  0  0  0  0
  -27.7354  -13.4987   15.4174 C   0  0  0  0  0  0  0  0  0  0  0  0
  -26.6310  -13.2858   17.6256 C   0  0  0  0  0  0  0  0  0  0  0  0
  -19.8619  -28.8276   21.4418 C   0  0  1  0  0  0  0  0  0  0  0  0
  -22.8329  -30.8035   22.7466 C   0  0  1  0  0  0  0  0  0  0  0  0
  -27.8139  -12.4692   18.1670 C   0  0  1  0  0  0  0  0  0  0  0  0
  -26.0951  -14.0259   22.7357 C   0  0  0  0  0  0  0  0  0  0  0  0
  -23.3800  -15.1156   18.6972 C   0  0  0  0  0  0  0  0  0  0  0  0
  -26.9341  -19.4225   21.2494 C   0  0  0  0  0  0  0  0  0  0  0  0
  -28.7661  -21.5194   21.9995 C   0  0  0  0  0  0  0  0  0  0  0  0
  -25.9975  -38.0715   21.8873 C   0  0  0  0  0  0  0  0  0  0  0  0
  -23.5355  -32.6491   18.9878 C   0  0  0  0  0  0  0  0  0  0  0  0
  -24.6848  -34.8630   18.7723 C   0  0  0  0  0  0  0  0  0  0  0  0
  -22.3845  -34.7418   19.7298 C   0  0  0  0  0  0  0  0  0  0  0  0
  -26.4803  -36.0310   25.0621 C   0  0  0  0  0  0  0  0  0  0  0  0
  -25.1965  -17.3415   17.1703 C   0  0  0  0  0  0  0  0  0  0  0  0
  -24.3410  -33.9049   21.0950 C   0  0  1  0  0  0  0  0  0  0  0  0
  -25.6933  -36.9622   22.8822 C   0  0  2  0  0  0  0  0  0  0  0  0
  -23.7476  -34.0191   19.6624 C   0  0  0  0  0  0  0  0  0  0  0  0
  -26.1481  -11.0255   19.2720 N   0  0  0  0  0  0  0  0  0  0  0  0
  -27.3844  -11.5519   19.2963 N   0  0  0  0  0  0  0  0  0  0  0  0
  -29.5571  -23.4555   20.0115 N   0  0  0  0  0  0  0  0  0  0  0  0
  -23.7557  -31.6937   22.0394 N   0  0  0  0  0  0  0  0  0  0  0  0
  -27.0433  -14.1667   16.5206 N   0  0  0  0  0  0  0  0  0  0  0  0
  -29.3867  -11.6131   20.5602 N   0  0  0  0  0  0  0  0  0  0  0  0
  -26.7151   -8.8853   22.9722 N   0  0  0  0  0  0  0  0  0  0  0  0
  -20.8887  -29.4503   22.2494 N   0  0  0  0  0  0  0  0  0  0  0  0
  -24.5273  -35.1856   21.7685 N   0  0  0  0  0  0  0  0  0  0  0  0
  -25.8070  -16.0310   17.3825 N   0  0  0  0  0  0  0  0  0  0  0  0
  -26.6765  -37.0496   23.9987 N   0  3  0  0  0  0  0  0  0  0  0  0
  -31.3851  -22.0637   20.5616 O   0  0  0  0  0  0  0  0  0  0  0  0
  -28.7858   -9.8672   22.8899 O   0  0  0  0  0  0  0  0  0  0  0  0
  -22.0162  -30.5652   20.5440 O   0  0  0  0  0  0  0  0  0  0  0  0
  -22.5990  -33.6147   22.6786 O   0  0  0  0  0  0  0  0  0  0  0  0
  -26.8078  -34.9582   22.1211 O   0  0  0  0  0  0  0  0  0  0  0  0
  -26.6248  -16.0394   15.2236 O   0  0  0  0  0  0  0  0  0  0  0  0
  -21.4937   -7.4208   21.6998 O   0  0  0  0  0  0  0  0  0  0  0  0
  -27.6591  -27.1502   20.5653 O   0  0  0  0  0  0  0  0  0  1  0  0
  -21.9232   -3.5132   25.5663 F   0  0  0  0  0  0  0  0  0  0  0  0
  -20.8965   -4.7837   21.1237 F   0  0  0  0  0  0  0  0  0  0  0  0
  1  2  1  0  0  0  0
  1  6  2  0  0  0  0
  2  7  2  0  0  0  0
  3 12  2  0  0  0  0
  3 20  1  0  0  0  0
  4 13  1  0  0  0  0
  4 20  2  0  0  0  0
  5 10  2  0  0  0  0
  5 21  1  0  0  0  0
  6 23  1  0  0  0  0
  7 25  1  0  0  0  0
  8 14  2  0  0  0  0
  8 24  1  0  0  0  0
  9 11  2  0  0  0  0
  9 27  1  0  0  0  0
 10 31  1  0  0  0  0
 11 32  1  0  0  0  0
 12 33  1  0  0  0  0
 13 33  2  0  0  0  0
 14 34  1  0  0  0  0
 15 16  2  0  0  0  0
 15 35  1  0  0  0  0
 16 36  1  0  0  0  0
 17 26  1  0  0  0  0
 17 34  2  0  0  0  0
 18 27  2  0  0  0  0
 18 28  1  0  0  0  0
 19 36  2  0  0  0  0
 19 37  1  0  0  0  0
 20 38  1  0  0  0  0
 21 29  2  0  0  0  0
 21 42  1  0  0  0  0
 22 38  1  0  0  0  0
 22 39  2  0  0  0  0
 22 45  1  0  0  0  0
 23 25  2  0  0  0  0
 23 50  1  0  0  0  0
 24 26  2  0  0  0  0
 24 51  1  0  0  0  0
 25 62  1  0  0  0  0
 26 52  1  0  0  0  0
 27 65  1  0  0  0  0
 28 32  2  0  0  0  0
 28 66  1  0  0  0  0
 29 30  1  0  0  0  0
 29 67  1  0  0  0  0
 30 31  2  0  0  0  0
 30 68  1  0  0  0  0
 31 80  1  0  0  0  0
 32 87  1  0  0  0  0
 33 95  1  0  0  0  0
 34 96  1  0  0  0  0
 35 37  2  0  0  0  0
 35 95  1  0  0  0  0
 36 97  1  0  0  0  0
 37 98  1  0  0  0  0
 38 78  2  0  0  0  0
 39 79  1  0  0  0  0
 39 83  1  0  0  0  0
 40 43  2  0  0  0  0
 40 53  1  0  0  0  0
 40 54  1  0  0  0  0
 41 55  1  0  0  0  0
 41 80  1  0  0  0  0
 41 89  2  0  0  0  0
 42 44  2  0  0  0  0
 43 96  1  0  0  0  0
 44 74  1  0  0  0  0
 45 84  1  0  0  0  0
 45 90  2  0  0  0  0
 46 63  1  0  0  0  0
 46 85  1  0  0  0  0
 46 91  2  0  0  0  0
 47 75  1  0  0  0  0
 47 81  1  0  0  0  0
 47 92  2  0  0  0  0
 48 76  1  0  0  0  0
 48 86  1  0  0  0  0
 48 93  2  0  0  0  0
 49 82  1  0  0  0  0
 49 87  1  0  0  0  0
 49 94  2  0  0  0  0
 50 56  1  0  0  0  0
 51 63  1  0  0  0  0
 52 81  1  0  0  0  0
 53 55  1  0  0  0  0
 54 80  1  0  0  0  0
 56 58  1  0  0  0  0
 57 59  1  0  0  0  0
 57 60  1  0  0  0  0
 58 62  1  0  0  0  0
 59 64  1  0  0  0  0
 60 82  1  0  0  0  0
 61 64  1  0  0  0  0
 61 82  1  0  0  0  0
 62 85  1  0  0  0  0
 63 81  1  0  0  0  0
 64 79  1  0  0  0  0
 69 76  1  0  0  0  0
 70 77  1  0  0  0  0
 71 77  1  0  0  0  0
 72 77  1  0  0  0  0
 73 88  1  0  0  0  0
 74 87  1  0  0  0  0
 75 77  1  0  0  0  0
 75 86  1  0  0  0  0
 76 88  1  0  0  0  0
 78 79  1  0  0  0  0
M  CHG  1  88   1
M  ISO  4  43 101  49 100  87 100  96 101
M  END
> <Batch ID>
0050

> <Smiles>
CNC(C)C(=O)NC(C(=O)N1Cc2cc([101O:1][101CH:1]=C3CCC(=O)N(c4ccc(C=CC[100N:0](c5ccc(C)cc5C)[100C:0](=O)N5CCCC(n6nc(-c7ccc(Oc8ccc(F)cc8F)cc7)c(C(N)=O)c6N)C5)c(C)c4C)C3)ccc2CC1C(=O)NC1CCCc2ccccc21)C(C)(C)C

> <Shape>
0.319

> <Color>
0.132

> <Negative vol penalty>
0.000

$$$$

  -OEChem-04042322353D

 88 97  0     1  0  0  0  0  0999 V2000
  -16.5317  -29.1879   23.2310 C   0  0  0  0  0  0  0  0  0  0  0  0
  -17.4314  -29.5279   22.2257 C   0  0  0  0  0  0  0  0  0  0  0  0
  -27.2961  -13.2216   19.6946 C   0  0  0  0  0  0  0  0  0  0  0  0
  -26.2358  -13.3565   21.8614 C   0  0  0  0  0  0  0  0  0  0  0  0
  -17.0014  -28.8398   24.4967 C   0  0  0  0  0  0  0  0  0  0  0  0
  -18.8013  -29.5210   22.4860 C   0  0  0  0  0  0  0  0  0  0  0  0
  -25.0834  -28.2243   19.2971 C   0  0  0  0  0  0  0  0  0  0  0  0
  -28.2576  -25.2513   17.7401 C   0  0  0  0  0  0  0  0  0  0  0  0
  -27.5388  -24.1687   18.2471 C   0  0  0  0  0  0  0  0  0  0  0  0
  -26.8687  -11.8999   19.5677 C   0  0  0  0  0  0  0  0  0  0  0  0
  -25.8083  -12.0348   21.7345 C   0  0  0  0  0  0  0  0  0  0  0  0
  -26.3268  -28.8184   19.0854 C   0  0  0  0  0  0  0  0  0  0  0  0
  -23.3475  -10.3570   20.1377 C   0  0  0  0  0  0  0  0  0  0  0  0
  -22.0273  -10.0684   20.4834 C   0  0  0  0  0  0  0  0  0  0  0  0
  -27.0269  -28.1236   21.2868 C   0  0  0  0  0  0  0  0  0  0  0  0
  -30.3259  -24.0773   18.1653 C   0  0  0  0  0  0  0  0  0  0  0  0
  -22.8066   -8.5235   22.1696 C   0  0  0  0  0  0  0  0  0  0  0  0
  -26.9797  -13.9499   20.8415 C   0  0  0  0  0  0  0  0  0  0  0  0
  -28.7491  -15.7831   20.9690 C   0  0  0  0  0  0  0  0  0  0  0  0
  -18.3782  -28.8193   24.7699 C   0  0  0  0  0  0  0  0  0  0  0  0
  -24.7982  -27.5837   20.5115 C   0  0  0  0  0  0  0  0  0  0  0  0
  -19.2897  -29.1736   23.7570 C   0  0  0  0  0  0  0  0  0  0  0  0
  -25.7801  -27.5199   21.5105 C   0  0  0  0  0  0  0  0  0  0  0  0
  -29.6511  -25.2056   17.6992 C   0  0  0  0  0  0  0  0  0  0  0  0
  -29.6071  -22.9947   18.6724 C   0  0  0  0  0  0  0  0  0  0  0  0
  -28.2136  -23.0404   18.7132 C   0  0  0  0  0  0  0  0  0  0  0  0
  -26.1248  -11.3066   20.5876 C   0  0  0  0  0  0  0  0  0  0  0  0
  -27.2977  -28.7707   20.0814 C   0  0  0  0  0  0  0  0  0  0  0  0
  -24.3972   -9.7288   20.8079 C   0  0  0  0  0  0  0  0  0  0  0  0
  -21.7569   -9.1517   21.4993 C   0  0  0  0  0  0  0  0  0  0  0  0
  -24.1268   -8.8121   21.8238 C   0  0  0  0  0  0  0  0  0  0  0  0
  -27.4214  -15.3150   20.9734 C   0  0  0  0  0  0  0  0  0  0  0  0
  -28.6342  -17.1430   21.1237 C   0  0  0  0  0  0  0  0  0  0  0  0
  -31.8419  -28.2744   17.6496 C   0  0  0  0  0  0  0  0  0  0  0  0
  -35.2114  -26.8603   18.0131 C   0  0  0  0  0  0  0  0  0  0  0  0
  -33.1770  -28.1516   17.6000 C   0  0  0  0  0  0  0  0  0  0  0  0
  -33.8802  -26.9821   18.0629 C   0  0  0  0  0  0  0  0  0  0  0  0
  -29.9764  -15.0539   20.8368 C   0  0  0  0  0  0  0  0  0  0  0  0
  -22.6822  -28.0314   22.8408 C   0  0  0  0  0  0  0  0  0  0  0  0
  -23.9241  -25.2566   23.9724 C   0  0  0  0  0  0  0  0  0  0  0  0
  -27.1983  -23.7765   24.2983 C   0  0  0  0  0  0  0  0  0  0  0  0
  -26.2266  -22.0026   19.8625 C   0  0  0  0  0  0  0  0  0  0  0  0
  -18.8362  -28.4822   26.1668 C   0  0  0  0  0  0  0  0  0  0  0  0
  -23.4615  -26.9244   20.7140 C   0  0  0  0  0  0  0  0  0  0  0  0
  -25.5309  -26.8267   22.8242 C   0  0  0  0  0  0  0  0  0  0  0  0
  -31.1122  -29.4976   17.1651 C   0  0  0  0  0  0  0  0  0  0  0  0
  -20.3205  -28.1367   26.2545 C   0  0  0  0  0  0  0  0  0  0  0  0
  -30.1508  -30.0002   18.2353 C   0  0  0  0  0  0  0  0  0  0  0  0
  -24.6300  -19.9943   22.3313 C   0  0  0  0  0  0  0  0  0  0  0  0
  -21.1523  -29.1558   25.4822 C   0  0  0  0  0  0  0  0  0  0  0  0
  -25.3231  -18.6364   22.1977 C   0  0  0  0  0  0  0  0  0  0  0  0
  -24.4462  -20.6730   20.9751 C   0  0  0  0  0  0  0  0  0  0  0  0
  -26.3628  -19.4402   20.0390 C   0  0  0  0  0  0  0  0  0  0  0  0
  -30.1461  -27.7075   19.2881 C   0  0  0  0  0  0  0  0  0  0  0  0
  -20.7843  -29.1539   23.9936 C   0  0  1  0  0  0  0  0  0  0  0  0
  -23.1003  -26.7456   22.1854 C   0  0  1  0  0  0  0  0  0  0  0  0
  -26.6283  -18.7473   21.3855 C   0  0  2  0  0  0  0  0  0  0  0  0
  -29.2872  -28.8649   18.7849 C   0  0  1  0  0  0  0  0  0  1  0  0
  -30.3563  -21.8002   19.1677 C   0  0  0  0  0  0  0  0  0  0  0  0
  -27.9001  -21.3683   24.3733 C   0  0  0  0  0  0  0  0  0  0  0  0
  -23.7495  -25.6007   26.9991 C   0  0  0  0  0  0  0  0  0  0  0  0
  -25.7845  -24.1578   27.2107 C   0  0  0  0  0  0  0  0  0  0  0  0
  -23.6957  -23.2268   26.2143 C   0  0  0  0  0  0  0  0  0  0  0  0
  -29.0815  -24.1345   22.0434 C   0  0  0  0  0  0  0  0  0  0  0  0
  -30.4242  -26.3711   17.1560 C   0  0  0  0  0  0  0  0  0  0  0  0
  -25.0639  -24.8923   24.8929 C   0  0  1  0  0  0  0  0  0  0  0  0
  -27.7500  -22.6067   23.5034 C   0  0  2  0  0  0  0  0  0  0  0  0
  -24.5740  -24.4931   26.3135 C   0  0  0  0  0  0  0  0  0  0  0  0
  -26.5287  -16.2977   21.1195 N   0  0  0  0  0  0  0  0  0  0  0  0
  -27.2968  -17.3969   21.2084 N   0  0  0  0  0  0  0  0  0  0  0  0
  -24.2062  -26.2027   22.9769 N   0  0  0  0  0  0  0  0  0  0  0  0
  -25.7248  -20.7467   20.2646 N   0  0  0  0  0  0  0  0  0  0  0  0
  -29.5477  -18.1344   21.1942 N   0  0  0  0  0  0  0  0  0  0  0  0
  -30.6000  -14.5791   21.9987 N   0  0  0  0  0  0  0  0  0  0  0  0
  -27.4655  -21.9511   19.2245 N   0  0  0  0  0  0  0  0  0  0  0  0
  -21.3881  -28.0211   23.3252 N   0  0  0  0  0  0  0  0  0  0  0  0
  -25.8244  -23.8521   24.2088 N   0  0  0  0  0  0  0  0  0  0  0  0
  -31.0880  -27.1892   18.2289 N   0  3  1  0  0  0  0  0  0  0  0  0
  -29.0859  -22.9486   22.9382 N   0  3  0  0  0  0  0  0  0  0  0  0
  -30.5131  -14.8440   19.7226 O   0  0  0  0  0  0  0  0  0  0  0  0
  -23.4755  -28.9632   22.9038 O   0  0  0  0  0  0  0  0  0  0  0  0
  -22.8260  -24.7161   24.1265 O   0  0  0  0  0  0  0  0  0  0  0  0
  -27.9142  -24.5440   24.9377 O   0  0  0  0  0  0  0  0  0  0  0  0
  -25.6159  -23.0495   20.0932 O   0  0  0  0  0  0  0  0  0  0  0  0
  -25.7073  -10.0170   20.4640 O   0  0  0  0  0  0  0  0  0  0  0  0
  -28.5119  -29.3504   19.8776 O   0  0  0  0  0  0  0  0  0  1  0  0
  -20.4891   -8.8758   21.8323 F   0  0  0  0  0  0  0  0  0  0  0  0
  -25.1311   -8.2063   22.4720 F   0  0  0  0  0  0  0  0  0  0  0  0
  1  2  1  0  0  0  0
  1  5  2  0  0  0  0
  2  6  2  0  0  0  0
  3 10  2  0  0  0  0
  3 18  1  0  0  0  0
  4 11  1  0  0  0  0
  4 18  2  0  0  0  0
  5 20  1  0  0  0  0
  6 22  1  0  0  0  0
  7 12  2  0  0  0  0
  7 21  1  0  0  0  0
  8  9  2  0  0  0  0
  8 24  1  0  0  0  0
  9 26  1  0  0  0  0
 10 27  1  0  0  0  0
 11 27  2  0  0  0  0
 12 28  1  0  0  0  0
 13 14  2  0  0  0  0
 13 29  1  0  0  0  0
 14 30  1  0  0  0  0
 15 23  1  0  0  0  0
 15 28  2  0  0  0  0
 16 24  2  0  0  0  0
 16 25  1  0  0  0  0
 17 30  2  0  0  0  0
 17 31  1  0  0  0  0
 18 32  1  0  0  0  0
 19 32  1  0  0  0  0
 19 33  2  0  0  0  0
 19 38  1  0  0  0  0
 20 22  2  0  0  0  0
 20 43  1  0  0  0  0
 21 23  2  0  0  0  0
 21 44  1  0  0  0  0
 22 55  1  0  0  0  0
 23 45  1  0  0  0  0
 24 65  1  0  0  0  0
 25 26  2  0  0  0  0
 25 59  1  0  0  0  0
 26 75  1  0  0  0  0
 27 85  1  0  0  0  0
 28 86  1  0  0  0  0
 29 31  2  0  0  0  0
 29 85  1  0  0  0  0
 30 87  1  0  0  0  0
 31 88  1  0  0  0  0
 32 69  2  0  0  0  0
 33 70  1  0  0  0  0
 33 73  1  0  0  0  0
 34 36  2  0  0  0  0
 34 46  1  0  0  0  0
 34 78  1  0  0  0  0
 35 37  2  0  0  0  0
 36 37  1  0  0  0  0
 38 74  1  0  0  0  0
 38 80  2  0  0  0  0
 39 56  1  0  0  0  0
 39 76  1  0  0  0  0
 39 81  2  0  0  0  0
 40 66  1  0  0  0  0
 40 71  1  0  0  0  0
 40 82  2  0  0  0  0
 41 67  1  0  0  0  0
 41 77  1  0  0  0  0
 41 83  2  0  0  0  0
 42 72  1  0  0  0  0
 42 75  1  0  0  0  0
 42 84  2  0  0  0  0
 43 47  1  0  0  0  0
 44 56  1  0  0  0  0
 45 71  1  0  0  0  0
 46 48  1  0  0  0  0
 47 50  1  0  0  0  0
 48 58  1  0  0  0  0
 49 51  1  0  0  0  0
 49 52  1  0  0  0  0
 50 55  1  0  0  0  0
 51 57  1  0  0  0  0
 52 72  1  0  0  0  0
 53 57  1  0  0  0  0
 53 72  1  0  0  0  0
 54 58  1  0  0  0  0
 54 78  1  0  0  0  0
 55 76  1  0  0  0  0
 56 71  1  0  0  0  0
 57 70  1  0  0  0  0
 58 86  1  0  0  0  0
 60 67  1  0  0  0  0
 61 68  1  0  0  0  0
 62 68  1  0  0  0  0
 63 68  1  0  0  0  0
 64 79  1  0  0  0  0
 65 78  1  0  0  0  0
 66 68  1  0  0  0  0
 66 77  1  0  0  0  0
 67 79  1  0  0  0  0
 69 70  1  0  0  0  0
M  CHG  2  78   1  79   1
M  ISO  4  42 100  58 101  75 100  86 101
M  END
> <Batch ID>
0050

> <Smiles>
C=CC=C1CC[101CH:1]([101O:1]c2ccc3c(c2)CN(C(=O)C(NC(=O)C(C)NC)C(C)(C)C)C(C(=O)NC2CCCc4ccccc42)C3)CN1Cc1ccc([100NH:0][100C:0](=O)N2CCCC(n3nc(-c4ccc(Oc5ccc(F)cc5F)cc4)c(C(N)=O)c3N)C2)c(C)c1

> <Shape>
0.222

> <Color>
0.081

> <Negative vol penalty>
0.000

$$$$

  -OEChem-04042322353D

 86 94  0     1  0  0  0  0  0999 V2000
  -22.8978  -23.7651   18.2616 C   0  0  0  0  0  0  0  0  0  0  0  0
  -23.8716  -22.7771   18.1706 C   0  0  0  0  0  0  0  0  0  0  0  0
  -25.3201  -27.0774   19.8027 C   0  0  0  0  0  0  0  0  0  0  0  0
  -27.3621  -27.9725   20.7333 C   0  0  0  0  0  0  0  0  0  0  0  0
  -21.8264  -23.6039   19.1375 C   0  0  0  0  0  0  0  0  0  0  0  0
  -23.7681  -21.6221   18.9466 C   0  0  0  0  0  0  0  0  0  0  0  0
  -27.0320  -18.0452   18.0769 C   0  0  0  0  0  0  0  0  0  0  0  0
  -32.0971  -24.3784   26.0716 C   0  0  0  0  0  0  0  0  0  0  0  0
  -24.7069  -28.3213   19.9516 C   0  0  0  0  0  0  0  0  0  0  0  0
  -26.7490  -29.2165   20.8821 C   0  0  0  0  0  0  0  0  0  0  0  0
  -28.3742  -18.1448   18.4407 C   0  0  0  0  0  0  0  0  0  0  0  0
  -25.6127  -32.5332   21.8406 C   0  0  0  0  0  0  0  0  0  0  0  0
  -25.8019  -33.2092   23.0459 C   0  0  0  0  0  0  0  0  0  0  0  0
  -32.9722  -25.4622   25.9996 C   0  0  0  0  0  0  0  0  0  0  0  0
  -27.9691  -16.6791   20.3134 C   0  0  0  0  0  0  0  0  0  0  0  0
  -34.5028  -24.1387   24.6794 C   0  0  0  0  0  0  0  0  0  0  0  0
  -24.7858  -31.3694   24.2374 C   0  0  0  0  0  0  0  0  0  0  0  0
  -26.6477  -26.9029   20.1936 C   0  0  0  0  0  0  0  0  0  0  0  0
  -27.9965  -25.1507   18.9217 C   0  0  0  0  0  0  0  0  0  0  0  0
  -21.7171  -22.4517   19.9335 C   0  0  0  0  0  0  0  0  0  0  0  0
  -26.1444  -17.2692   18.8362 C   0  0  0  0  0  0  0  0  0  0  0  0
  -22.6816  -21.4300   19.8191 C   0  0  0  0  0  0  0  0  0  0  0  0
  -26.6167  -16.5692   19.9557 C   0  0  0  0  0  0  0  0  0  0  0  0
  -32.4249  -23.1747   25.4476 C   0  0  0  0  0  0  0  0  0  0  0  0
  -33.6277  -23.0548   24.7515 C   0  0  0  0  0  0  0  0  0  0  0  0
  -25.4213  -29.3909   20.4912 C   0  0  0  0  0  0  0  0  0  0  0  0
  -28.8423  -17.4640   19.5608 C   0  0  0  0  0  0  0  0  0  0  0  0
  -25.0099  -31.2752   21.8337 C   0  0  0  0  0  0  0  0  0  0  0  0
  -25.3885  -32.6273   24.2443 C   0  0  0  0  0  0  0  0  0  0  0  0
  -24.5965  -30.6934   23.0321 C   0  0  0  0  0  0  0  0  0  0  0  0
  -34.1750  -25.3423   25.3035 C   0  0  0  0  0  0  0  0  0  0  0  0
  -27.2815  -25.6180   20.0407 C   0  0  0  0  0  0  0  0  0  0  0  0
  -28.3932  -23.8834   19.2726 C   0  0  0  0  0  0  0  0  0  0  0  0
  -32.0017  -20.0632   21.3815 C   0  0  0  0  0  0  0  0  0  0  0  0
  -31.9284  -18.9899   20.5824 C   0  0  0  0  0  0  0  0  0  0  0  0
  -28.2771  -25.8037   17.6765 C   0  0  0  0  0  0  0  0  0  0  0  0
  -33.1332  -20.2133   22.3376 C   0  0  0  0  0  0  0  0  0  0  0  0
  -23.5147  -17.8690   20.5180 C   0  0  0  0  0  0  0  0  0  0  0  0
  -23.4234  -14.6382   20.7937 C   0  0  0  0  0  0  0  0  0  0  0  0
  -25.1206  -11.6778   20.7516 C   0  0  0  0  0  0  0  0  0  0  0  0
  -29.3426  -21.2230   24.5520 C   0  0  0  0  0  0  0  0  0  0  0  0
  -20.5327  -22.3253   20.8589 C   0  0  0  0  0  0  0  0  0  0  0  0
  -24.7053  -17.1506   18.4151 C   0  0  0  0  0  0  0  0  0  0  0  0
  -25.7090  -15.7066   20.7925 C   0  0  0  0  0  0  0  0  0  0  0  0
  -20.7422  -21.2844   21.9539 C   0  0  0  0  0  0  0  0  0  0  0  0
  -27.0933  -20.1732   21.9995 C   0  0  0  0  0  0  0  0  0  0  0  0
  -21.2398  -19.9821   21.3448 C   0  0  0  0  0  0  0  0  0  0  0  0
  -26.9510  -21.4074   21.1070 C   0  0  0  0  0  0  0  0  0  0  0  0
  -27.2154  -20.5536   23.4734 C   0  0  0  0  0  0  0  0  0  0  0  0
  -28.1396  -22.7607   22.8832 C   0  0  0  0  0  0  0  0  0  0  0  0
  -22.6061  -20.1791   20.6758 C   0  0  1  0  0  0  0  0  0  0  0  0
  -23.7799  -16.7442   19.5578 C   0  0  1  0  0  0  0  0  0  0  0  0
  -28.0694  -22.4305   21.3824 C   0  0  2  0  0  0  0  0  0  0  0  0
  -24.7824   -9.2088   21.0466 C   0  0  0  0  0  0  0  0  0  0  0  0
  -23.2446  -15.0263   23.8149 C   0  0  0  0  0  0  0  0  0  0  0  0
  -23.8628  -12.6159   24.0910 C   0  0  0  0  0  0  0  0  0  0  0  0
  -21.7578  -13.2337   22.9036 C   0  0  0  0  0  0  0  0  0  0  0  0
  -26.0277  -11.1063   17.9930 C   0  0  0  0  0  0  0  0  0  0  0  0
  -31.4729  -22.0276   25.5388 C   0  0  0  0  0  0  0  0  0  0  0  0
  -34.0025  -21.7688   24.0733 C   0  0  0  0  0  0  0  0  0  0  0  0
  -30.8256  -18.7760   19.5963 C   0  0  0  0  0  0  0  0  0  1  0  0
  -23.9826  -13.6324   21.7707 C   0  0  1  0  0  0  0  0  0  0  0  0
  -24.8311  -10.3606   20.0548 C   0  0  2  0  0  0  0  0  0  0  0  0
  -23.2289  -13.6448   23.1306 C   0  0  0  0  0  0  0  0  0  0  0  0
  -27.2254  -24.7206   21.0284 N   0  0  0  0  0  0  0  0  0  0  0  0
  -27.9102  -23.6766   20.5312 N   0  0  0  0  0  0  0  0  0  0  0  0
  -24.3090  -15.6277   20.3438 N   0  0  0  0  0  0  0  0  0  0  0  0
  -28.2947  -21.5250   23.6667 N   0  0  0  0  0  0  0  0  0  0  0  0
  -29.1045  -22.9368   18.6241 N   0  0  0  0  0  0  0  0  0  0  0  0
  -27.7949  -27.1050   17.4810 N   0  0  0  0  0  0  0  0  0  0  0  0
  -33.0332  -21.3824   23.0726 N   0  0  0  0  0  0  0  0  0  0  0  0
  -22.9452  -18.9846   19.9343 N   0  0  0  0  0  0  0  0  0  0  0  0
  -23.9609  -12.3437   21.0872 N   0  0  0  0  0  0  0  0  0  0  0  0
  -30.3279  -22.1954   24.6718 N   0  0  0  0  0  0  0  0  0  0  0  0
  -25.8863  -10.0662   19.0443 N   0  3  0  0  0  0  0  0  0  0  0  0
  -28.9220  -25.2435   16.7579 O   0  0  0  0  0  0  0  0  0  0  0  0
  -34.0277  -19.3798   22.4361 O   0  0  0  0  0  0  0  0  0  0  0  0
  -23.8038  -17.7343   21.7012 O   0  0  0  0  0  0  0  0  0  0  0  0
  -22.2461  -14.5451   20.4373 O   0  0  0  0  0  0  0  0  0  0  0  0
  -26.2615  -12.0744   20.9789 O   0  0  0  0  0  0  0  0  0  0  0  0
  -29.3989  -20.1629   25.1844 O   0  0  0  0  0  0  0  0  0  0  0  0
  -24.8234  -30.6050   20.6363 O   0  0  0  0  0  0  0  0  0  0  0  0
  -30.1518  -17.5601   19.9185 O   0  0  0  0  0  0  0  0  0  1  0  0
  -25.5717  -33.2760   25.4018 F   0  0  0  0  0  0  0  0  0  0  0  0
  -24.0179  -29.4846   23.0319 F   0  0  0  0  0  0  0  0  0  0  0  0
  -35.2550  -26.6790   25.2165 Cl  0  0  0  0  0  0  0  0  0  0  0  0
  1  2  1  0  0  0  0
  1  5  2  0  0  0  0
  2  6  2  0  0  0  0
  3  9  2  0  0  0  0
  3 18  1  0  0  0  0
  4 10  1  0  0  0  0
  4 18  2  0  0  0  0
  5 20  1  0  0  0  0
  6 22  1  0  0  0  0
  7 11  2  0  0  0  0
  7 21  1  0  0  0  0
  8 14  2  0  0  0  0
  8 24  1  0  0  0  0
  9 26  1  0  0  0  0
 10 26  2  0  0  0  0
 11 27  1  0  0  0  0
 12 13  2  0  0  0  0
 12 28  1  0  0  0  0
 13 29  1  0  0  0  0
 14 31  1  0  0  0  0
 15 23  1  0  0  0  0
 15 27  2  0  0  0  0
 16 25  1  0  0  0  0
 16 31  2  0  0  0  0
 17 29  2  0  0  0  0
 17 30  1  0  0  0  0
 18 32  1  0  0  0  0
 19 32  1  0  0  0  0
 19 33  2  0  0  0  0
 19 36  1  0  0  0  0
 20 22  2  0  0  0  0
 20 42  1  0  0  0  0
 21 23  2  0  0  0  0
 21 43  1  0  0  0  0
 22 51  1  0  0  0  0
 23 44  1  0  0  0  0
 24 25  2  0  0  0  0
 24 59  1  0  0  0  0
 25 60  1  0  0  0  0
 26 82  1  0  0  0  0
 27 83  1  0  0  0  0
 28 30  2  0  0  0  0
 28 82  1  0  0  0  0
 29 84  1  0  0  0  0
 30 85  1  0  0  0  0
 31 86  1  0  0  0  0
 32 65  2  0  0  0  0
 33 66  1  0  0  0  0
 33 69  1  0  0  0  0
 34 35  2  0  0  0  0
 34 37  1  0  0  0  0
 35 61  1  0  0  0  0
 36 70  1  0  0  0  0
 36 76  2  0  0  0  0
 37 71  1  0  0  0  0
 37 77  2  0  0  0  0
 38 52  1  0  0  0  0
 38 72  1  0  0  0  0
 38 78  2  0  0  0  0
 39 62  1  0  0  0  0
 39 67  1  0  0  0  0
 39 79  2  0  0  0  0
 40 63  1  0  0  0  0
 40 73  1  0  0  0  0
 40 80  2  0  0  0  0
 41 68  1  0  0  0  0
 41 74  1  0  0  0  0
 41 81  2  0  0  0  0
 42 45  1  0  0  0  0
 43 52  1  0  0  0  0
 44 67  1  0  0  0  0
 45 47  1  0  0  0  0
 46 48  1  0  0  0  0
 46 49  1  0  0  0  0
 47 51  1  0  0  0  0
 48 53  1  0  0  0  0
 49 68  1  0  0  0  0
 50 53  1  0  0  0  0
 50 68  1  0  0  0  0
 51 72  1  0  0  0  0
 52 67  1  0  0  0  0
 53 66  1  0  0  0  0
 54 63  1  0  0  0  0
 55 64  1  0  0  0  0
 56 64  1  0  0  0  0
 57 64  1  0  0  0  0
 58 75  1  0  0  0  0
 59 74  1  0  0  0  0
 60 71  1  0  0  0  0
 61 83  1  0  0  0  0
 62 64  1  0  0  0  0
 62 73  1  0  0  0  0
 63 75  1  0  0  0  0
 65 66  1  0  0  0  0
M  CHG  1  75   1
M  ISO  4  41 100  61 101  74 100  83 101
M  END
> <Batch ID>
0050

> <Smiles>
CNC(C)C(=O)NC(C(=O)N1Cc2cc([101O:1][101CH2:1]C=CC(=O)NCc3cc(Cl)ccc3C[100NH:0][100C:0](=O)N3CCCC(n4nc(-c5ccc(Oc6ccc(F)cc6F)cc5)c(C(N)=O)c4N)C3)ccc2CC1C(=O)NC1CCCc2ccccc21)C(C)(C)C

> <Shape>
0.186

> <Color>
0.086

> <Negative vol penalty>
0.000

$$$$

  -OEChem-04042322353D

 87 95  0     1  0  0  0  0  0999 V2000
  -28.6202  -32.9668   26.9008 C   0  0  0  0  0  0  0  0  0  0  0  0
  -28.6010  -31.8434   26.0804 C   0  0  0  0  0  0  0  0  0  0  0  0
  -27.2632  -13.1923   22.3422 C   0  0  0  0  0  0  0  0  0  0  0  0
  -27.0833  -12.3256   20.0942 C   0  0  0  0  0  0  0  0  0  0  0  0
  -27.4225  -33.5665   27.2879 C   0  0  0  0  0  0  0  0  0  0  0  0
  -27.3839  -31.3184   25.6475 C   0  0  0  0  0  0  0  0  0  0  0  0
  -27.4152  -30.1488   20.7204 C   0  0  0  0  0  0  0  0  0  0  0  0
  -31.8008  -22.7600   17.4782 C   0  0  0  0  0  0  0  0  0  0  0  0
  -26.6041  -12.0639   22.8300 C   0  0  0  0  0  0  0  0  0  0  0  0
  -26.4243  -11.1971   20.5820 C   0  0  0  0  0  0  0  0  0  0  0  0
  -28.0496  -28.9634   20.3514 C   0  0  0  0  0  0  0  0  0  0  0  0
  -23.3120  -10.3858   21.6244 C   0  0  0  0  0  0  0  0  0  0  0  0
  -22.1728   -9.9559   20.9440 C   0  0  0  0  0  0  0  0  0  0  0  0
  -33.0589  -22.6087   16.8953 C   0  0  0  0  0  0  0  0  0  0  0  0
  -25.9062  -27.8644   20.2200 C   0  0  0  0  0  0  0  0  0  0  0  0
  -32.4534  -20.3865   16.1655 C   0  0  0  0  0  0  0  0  0  0  0  0
  -23.2332   -7.8282   20.5131 C   0  0  0  0  0  0  0  0  0  0  0  0
  -27.5027  -13.3232   20.9743 C   0  0  0  0  0  0  0  0  0  0  0  0
  -29.5699  -14.6545   20.2947 C   0  0  0  0  0  0  0  0  0  0  0  0
  -26.1905  -33.0543   26.8517 C   0  0  0  0  0  0  0  0  0  0  0  0
  -26.0200  -30.1981   20.8528 C   0  0  0  0  0  0  0  0  0  0  0  0
  -26.1685  -31.9110   26.0302 C   0  0  0  0  0  0  0  0  0  0  0  0
  -25.2563  -29.0523   20.5883 C   0  0  0  0  0  0  0  0  0  0  0  0
  -30.8690  -21.7246   17.4049 C   0  0  0  0  0  0  0  0  0  0  0  0
  -31.1953  -20.5379   16.7485 C   0  0  0  0  0  0  0  0  0  0  0  0
  -26.1847  -11.0663   21.9500 C   0  0  0  0  0  0  0  0  0  0  0  0
  -27.2953  -27.8202   20.1040 C   0  0  0  0  0  0  0  0  0  0  0  0
  -24.4119   -9.5370   21.7491 C   0  0  0  0  0  0  0  0  0  0  0  0
  -22.1334   -8.6771   20.3883 C   0  0  0  0  0  0  0  0  0  0  0  0
  -24.3724   -8.2582   21.1935 C   0  0  0  0  0  0  0  0  0  0  0  0
  -33.3852  -21.4219   16.2389 C   0  0  0  0  0  0  0  0  0  0  0  0
  -28.1829  -14.4889   20.4697 C   0  0  0  0  0  0  0  0  0  0  0  0
  -29.7032  -15.9261   19.7929 C   0  0  0  0  0  0  0  0  0  0  0  0
  -30.6419  -13.7407   20.5617 C   0  0  0  0  0  0  0  0  0  0  0  0
  -24.0134  -30.7904   23.2458 C   0  0  0  0  0  0  0  0  0  0  0  0
  -21.7796  -30.6154   20.9002 C   0  0  0  0  0  0  0  0  0  0  0  0
  -29.3739  -24.1709   19.1138 C   0  0  0  0  0  0  0  0  0  0  0  0
  -20.9017  -29.4453   17.8169 C   0  0  0  0  0  0  0  0  0  0  0  0
  -27.7932  -19.6769   15.9719 C   0  0  0  0  0  0  0  0  0  0  0  0
  -24.9203  -33.7084   27.3349 C   0  0  0  0  0  0  0  0  0  0  0  0
  -25.3489  -31.4915   21.2256 C   0  0  0  0  0  0  0  0  0  0  0  0
  -23.7541  -29.0581   20.6967 C   0  0  0  0  0  0  0  0  0  0  0  0
  -23.6865  -33.3136   26.5274 C   0  0  0  0  0  0  0  0  0  0  0  0
  -26.3634  -19.6911   19.3861 C   0  0  0  0  0  0  0  0  0  0  0  0
  -23.6480  -31.8035   26.3154 C   0  0  0  0  0  0  0  0  0  0  0  0
  -26.7686  -18.3192   19.9226 C   0  0  0  0  0  0  0  0  0  0  0  0
  -26.2132  -19.6846   17.8679 C   0  0  0  0  0  0  0  0  0  0  0  0
  -27.8206  -17.8149   17.6822 C   0  0  0  0  0  0  0  0  0  0  0  0
  -24.8692  -31.3268   25.5197 C   0  0  1  0  0  0  0  0  0  0  0  0
  -23.9626  -31.2926   21.8306 C   0  0  1  0  0  0  0  0  0  0  0  0
  -28.0258  -17.7987   19.2044 C   0  0  2  0  0  0  0  0  0  0  0  0
  -18.9973  -29.4348   16.1828 C   0  0  0  0  0  0  0  0  0  0  0  0
  -20.3267  -28.5481   22.6106 C   0  0  0  0  0  0  0  0  0  0  0  0
  -19.0135  -27.8948   20.5816 C   0  0  0  0  0  0  0  0  0  0  0  0
  -18.8322  -30.2110   21.4900 C   0  0  0  0  0  0  0  0  0  0  0  0
  -29.8770  -22.1262   20.4690 C   0  0  0  0  0  0  0  0  0  0  0  0
  -29.6175  -20.2255   14.4064 C   0  0  0  0  0  0  0  0  0  0  0  0
  -22.5147  -30.8193   15.7506 C   0  0  0  0  0  0  0  0  0  0  0  0
  -29.5215  -21.9099   18.0405 C   0  0  0  0  0  0  0  0  0  0  0  0
  -30.2145  -19.4150   16.6587 C   0  0  0  0  0  0  0  0  0  0  0  0
  -29.4704  -24.9525   20.4199 C   0  0  0  0  0  0  0  0  0  0  0  0
  -29.2319  -26.4468   20.2422 C   0  0  0  0  0  0  0  0  0  1  0  0
  -20.9478  -29.5097   20.2964 C   0  0  1  0  0  0  0  0  0  0  0  0
  -20.2748  -30.1352   16.6187 C   0  0  2  0  0  0  0  0  0  0  0  0
  -19.8085  -29.0399   21.2444 C   0  0  0  0  0  0  0  0  0  0  0  0
  -27.4850  -15.5689   20.1086 N   0  0  0  0  0  0  0  0  0  0  0  0
  -28.4373  -16.4255   19.7017 N   0  0  0  0  0  0  0  0  0  0  0  0
  -23.1448  -30.3452   21.0704 N   0  0  0  0  0  0  0  0  0  0  0  0
  -27.4051  -19.1451   17.2126 N   0  0  0  0  0  0  0  0  0  0  0  0
  -30.7786  -16.6546   19.4252 N   0  0  0  0  0  0  0  0  0  0  0  0
  -30.3285  -12.4749   21.0756 N   0  0  0  0  0  0  0  0  0  0  0  0
  -24.7008  -31.6187   24.1123 N   0  0  0  0  0  0  0  0  0  0  0  0
  -20.4842  -30.0062   19.0053 N   0  0  0  0  0  0  0  0  0  0  0  0
  -29.5827  -22.7903   19.2051 N   0  0  0  0  0  0  0  0  0  0  0  0
  -29.1647  -19.6742   15.6757 N   0  0  0  0  0  0  0  0  0  0  0  0
  -21.2234  -30.1407   15.4693 N   0  3  0  0  0  0  0  0  0  0  0  0
  -31.8434  -14.0436   20.3664 O   0  0  0  0  0  0  0  0  0  0  0  0
  -23.4681  -29.7307   23.5308 O   0  0  0  0  0  0  0  0  0  0  0  0
  -21.2393  -31.6822   21.2029 O   0  0  0  0  0  0  0  0  0  0  0  0
  -29.1239  -24.7499   18.0533 O   0  0  0  0  0  0  0  0  0  0  0  0
  -21.6808  -28.5008   17.7094 O   0  0  0  0  0  0  0  0  0  0  0  0
  -26.9622  -20.1371   15.1784 O   0  0  0  0  0  0  0  0  0  0  0  0
  -25.5418   -9.9650   22.4256 O   0  0  0  0  0  0  0  0  0  0  0  0
  -27.9120  -26.6616   19.7443 O   0  0  0  0  0  0  0  0  0  1  0  0
  -21.0387   -8.2639   19.7363 F   0  0  0  0  0  0  0  0  0  0  0  0
  -25.4254   -7.4377   21.3111 F   0  0  0  0  0  0  0  0  0  0  0  0
  -34.9380  -21.2350   15.5215 Cl  0  0  0  0  0  0  0  0  0  0  0  0
  1  2  1  0  0  0  0
  1  5  2  0  0  0  0
  2  6  2  0  0  0  0
  3  9  2  0  0  0  0
  3 18  1  0  0  0  0
  4 10  1  0  0  0  0
  4 18  2  0  0  0  0
  5 20  1  0  0  0  0
  6 22  1  0  0  0  0
  7 11  2  0  0  0  0
  7 21  1  0  0  0  0
  8 14  2  0  0  0  0
  8 24  1  0  0  0  0
  9 26  1  0  0  0  0
 10 26  2  0  0  0  0
 11 27  1  0  0  0  0
 12 13  2  0  0  0  0
 12 28  1  0  0  0  0
 13 29  1  0  0  0  0
 14 31  1  0  0  0  0
 15 23  1  0  0  0  0
 15 27  2  0  0  0  0
 16 25  1  0  0  0  0
 16 31  2  0  0  0  0
 17 29  2  0  0  0  0
 17 30  1  0  0  0  0
 18 32  1  0  0  0  0
 19 32  1  0  0  0  0
 19 33  2  0  0  0  0
 19 34  1  0  0  0  0
 20 22  2  0  0  0  0
 20 40  1  0  0  0  0
 21 23  2  0  0  0  0
 21 41  1  0  0  0  0
 22 49  1  0  0  0  0
 23 42  1  0  0  0  0
 24 25  2  0  0  0  0
 24 59  1  0  0  0  0
 25 60  1  0  0  0  0
 26 83  1  0  0  0  0
 27 84  1  0  0  0  0
 28 30  2  0  0  0  0
 28 83  1  0  0  0  0
 29 85  1  0  0  0  0
 30 86  1  0  0  0  0
 31 87  1  0  0  0  0
 32 66  2  0  0  0  0
 33 67  1  0  0  0  0
 33 70  1  0  0  0  0
 34 71  1  0  0  0  0
 34 77  2  0  0  0  0
 35 50  1  0  0  0  0
 35 72  1  0  0  0  0
 35 78  2  0  0  0  0
 36 63  1  0  0  0  0
 36 68  1  0  0  0  0
 36 79  2  0  0  0  0
 37 61  1  0  0  0  0
 37 74  1  0  0  0  0
 37 80  2  0  0  0  0
 38 64  1  0  0  0  0
 38 73  1  0  0  0  0
 38 81  2  0  0  0  0
 39 69  1  0  0  0  0
 39 75  1  0  0  0  0
 39 82  2  0  0  0  0
 40 43  1  0  0  0  0
 41 50  1  0  0  0  0
 42 68  1  0  0  0  0
 43 45  1  0  0  0  0
 44 46  1  0  0  0  0
 44 47  1  0  0  0  0
 45 49  1  0  0  0  0
 46 51  1  0  0  0  0
 47 69  1  0  0  0  0
 48 51  1  0  0  0  0
 48 69  1  0  0  0  0
 49 72  1  0  0  0  0
 50 68  1  0  0  0  0
 51 67  1  0  0  0  0
 52 64  1  0  0  0  0
 53 65  1  0  0  0  0
 54 65  1  0  0  0  0
 55 65  1  0  0  0  0
 56 74  1  0  0  0  0
 57 75  1  0  0  0  0
 58 76  1  0  0  0  0
 59 74  1  0  0  0  0
 60 75  1  0  0  0  0
 61 62  1  0  0  0  0
 62 84  1  0  0  0  0
 63 65  1  0  0  0  0
 63 73  1  0  0  0  0
 64 76  1  0  0  0  0
 66 67  1  0  0  0  0
M  CHG  1  76   1
M  ISO  4  39 100  62 101  75 100  84 101
M  END
> <Batch ID>
0050

> <Smiles>
CNC(C)C(=O)NC(C(=O)N1Cc2cc([101O:1][101CH2:1]CC(=O)N(C)Cc3ccc(Cl)cc3C[100N:0](C)[100C:0](=O)N3CCCC(n4nc(-c5ccc(Oc6ccc(F)cc6F)cc5)c(C(N)=O)c4N)C3)ccc2CC1C(=O)NC1CCCc2ccccc21)C(C)(C)C

> <Shape>
0.287

> <Color>
0.087

> <Negative vol penalty>
0.000

$$$$

  -OEChem-04042322353D

 86 94  0     1  0  0  0  0  0999 V2000
  -40.8858  -26.3388   11.8640 C   0  0  0  0  0  0  0  0  0  0  0  0
  -40.4160  -25.2006   12.5115 C   0  0  0  0  0  0  0  0  0  0  0  0
  -23.0763   -9.8672   19.9413 C   0  0  0  0  0  0  0  0  0  0  0  0
  -23.8352   -9.8753   22.2350 C   0  0  0  0  0  0  0  0  0  0  0  0
  -41.1946  -27.4813   12.6012 C   0  0  0  0  0  0  0  0  0  0  0  0
  -40.2558  -25.2039   13.8967 C   0  0  0  0  0  0  0  0  0  0  0  0
  -35.9242  -22.3009   17.1085 C   0  0  0  0  0  0  0  0  0  0  0  0
  -30.4651  -18.3421   24.0443 C   0  0  0  0  0  0  0  0  0  0  0  0
  -29.8780  -17.4589   23.1383 C   0  0  0  0  0  0  0  0  0  0  0  0
  -22.3324   -8.7141   20.1915 C   0  0  0  0  0  0  0  0  0  0  0  0
  -23.0913   -8.7222   22.4852 C   0  0  0  0  0  0  0  0  0  0  0  0
  -35.9231  -21.0919   17.8028 C   0  0  0  0  0  0  0  0  0  0  0  0
  -21.1058   -5.9857   23.8223 C   0  0  0  0  0  0  0  0  0  0  0  0
  -20.3491   -5.9427   24.9932 C   0  0  0  0  0  0  0  0  0  0  0  0
  -36.3933  -22.2751   19.8517 C   0  0  0  0  0  0  0  0  0  0  0  0
  -32.0620  -16.6087   22.5516 C   0  0  0  0  0  0  0  0  0  0  0  0
  -19.1048   -7.8795   24.2602 C   0  0  0  0  0  0  0  0  0  0  0  0
  -23.8278  -10.4478   20.9630 C   0  0  0  0  0  0  0  0  0  0  0  0
  -24.1696  -12.9729   20.8419 C   0  0  0  0  0  0  0  0  0  0  0  0
  -41.0289  -27.5017   13.9950 C   0  0  0  0  0  0  0  0  0  0  0  0
  -36.1711  -23.5070   17.7799 C   0  0  0  0  0  0  0  0  0  0  0  0
  -40.5639  -26.3472   14.6533 C   0  0  0  0  0  0  0  0  0  0  0  0
  -36.3945  -23.4983   19.1641 C   0  0  0  0  0  0  0  0  0  0  0  0
  -31.8508  -18.3587   24.2039 C   0  0  0  0  0  0  0  0  0  0  0  0
  -32.6492  -17.4920   23.4576 C   0  0  0  0  0  0  0  0  0  0  0  0
  -30.6764  -16.5922   22.3920 C   0  0  0  0  0  0  0  0  0  0  0  0
  -22.3398   -8.1417   21.4634 C   0  0  0  0  0  0  0  0  0  0  0  0
  -36.1605  -21.0785   19.1741 C   0  0  0  0  0  0  0  0  0  0  0  0
  -20.8621   -6.9757   22.8703 C   0  0  0  0  0  0  0  0  0  0  0  0
  -19.3485   -6.8895   25.2121 C   0  0  0  0  0  0  0  0  0  0  0  0
  -19.8616   -7.9226   23.0892 C   0  0  0  0  0  0  0  0  0  0  0  0
  -24.5969  -11.6385   20.7050 C   0  0  0  0  0  0  0  0  0  0  0  0
  -25.2619  -13.7222   20.4788 C   0  0  0  0  0  0  0  0  0  0  0  0
  -22.8989  -13.4888   21.2601 C   0  0  0  0  0  0  0  0  0  0  0  0
  -38.4037  -25.7618   17.5933 C   0  0  0  0  0  0  0  0  0  0  0  0
  -36.4982  -27.2786   19.7359 C   0  0  0  0  0  0  0  0  0  0  0  0
  -35.1400  -18.6185   21.6348 C   0  0  0  0  0  0  0  0  0  0  0  0
  -34.1093  -27.0463   22.1620 C   0  0  0  0  0  0  0  0  0  0  0  0
  -30.7279  -14.7681   20.6553 C   0  0  0  0  0  0  0  0  0  0  0  0
  -41.4208  -28.7444   14.7545 C   0  0  0  0  0  0  0  0  0  0  0  0
  -36.1423  -24.8054   17.0211 C   0  0  0  0  0  0  0  0  0  0  0  0
  -36.6446  -24.7677   19.9350 C   0  0  0  0  0  0  0  0  0  0  0  0
  -40.8675  -28.7890   16.1765 C   0  0  0  0  0  0  0  0  0  0  0  0
  -29.6146  -12.3531   18.2877 C   0  0  0  0  0  0  0  0  0  0  0  0
  -41.0891  -27.4526   16.8777 C   0  0  0  0  0  0  0  0  0  0  0  0
  -28.1748  -12.0617   18.7168 C   0  0  0  0  0  0  0  0  0  0  0  0
  -30.5292  -12.5825   19.4896 C   0  0  0  0  0  0  0  0  0  0  0  0
  -28.6217  -13.3076   20.8697 C   0  0  0  0  0  0  0  0  0  0  0  0
  -40.3533  -26.3200   16.1516 C   0  0  1  0  0  0  0  0  0  0  0  0
  -36.9149  -25.9216   17.7174 C   0  0  1  0  0  0  0  0  0  0  0  0
  -27.6493  -13.1337   19.6916 C   0  0  2  0  0  0  0  0  0  0  0  0
  -32.7785  -28.4539   23.7573 C   0  0  0  0  0  0  0  0  0  0  0  0
  -38.9515  -27.5628   21.5278 C   0  0  0  0  0  0  0  0  0  0  0  0
  -37.4133  -28.0871   23.4323 C   0  0  0  0  0  0  0  0  0  0  0  0
  -37.4840  -29.5860   21.4396 C   0  0  0  0  0  0  0  0  0  0  0  0
  -31.5458  -26.2159   20.9381 C   0  0  0  0  0  0  0  0  0  0  0  0
  -34.1424  -17.4905   23.6141 C   0  0  0  0  0  0  0  0  0  0  0  0
  -35.7547  -19.9388   21.2216 C   0  0  0  0  0  0  0  0  0  1  0  0
  -36.3978  -27.3115   21.2418 C   0  0  1  0  0  0  0  0  0  0  0  0
  -32.8165  -27.8119   22.3792 C   0  0  2  0  0  0  0  0  0  0  0  0
  -32.4566  -19.3136   25.1794 C   0  0  0  0  0  0  0  0  0  0  0  0
  -37.5589  -28.1126   21.8958 C   0  0  0  0  0  0  0  0  0  0  0  0
  -25.8620  -11.5425   20.2873 N   0  0  0  0  0  0  0  0  0  0  0  0
  -26.2389  -12.8261   20.1586 N   0  0  0  0  0  0  0  0  0  0  0  0
  -36.6127  -26.0112   19.1474 N   0  0  0  0  0  0  0  0  0  0  0  0
  -29.9698  -13.6137   20.3663 N   0  0  0  0  0  0  0  0  0  0  0  0
  -25.4722  -15.0536   20.4052 N   0  0  0  0  0  0  0  0  0  0  0  0
  -21.8869  -12.5798   21.5974 N   0  0  0  0  0  0  0  0  0  0  0  0
  -30.0802  -15.6935   21.4730 N   0  0  0  0  0  0  0  0  0  0  0  0
  -38.9409  -26.3522   16.4653 N   0  0  0  0  0  0  0  0  0  0  0  0
  -34.7550  -18.6272   22.9663 N   0  0  0  0  0  0  0  0  0  0  0  0
  -35.0683  -27.8263   21.5511 N   0  0  0  0  0  0  0  0  0  0  0  0
  -31.6460  -26.8979   22.2540 N   0  3  0  0  0  0  0  0  0  0  0  0
  -22.6626  -14.7195   21.3167 O   0  0  0  0  0  0  0  0  0  0  0  0
  -39.0198  -25.1496   18.4578 O   0  0  0  0  0  0  0  0  0  0  0  0
  -36.4687  -28.3379   19.1046 O   0  0  0  0  0  0  0  0  0  0  0  0
  -35.0135  -17.6735   20.8610 O   0  0  0  0  0  0  0  0  0  0  0  0
  -34.2551  -25.8747   22.5036 O   0  0  0  0  0  0  0  0  0  0  0  0
  -31.8572  -14.9366   20.1881 O   0  0  0  0  0  0  0  0  0  0  0  0
  -21.6138   -7.0166   21.7080 O   0  0  0  0  0  0  0  0  0  0  0  0
  -36.1607  -19.8998   19.8541 O   0  0  0  0  0  0  0  0  0  1  0  0
  -18.6209   -6.8471   26.3359 F   0  0  0  0  0  0  0  0  0  0  0  0
  -19.6220   -8.8754   22.1778 F   0  0  0  0  0  0  0  0  0  0  0  0
  -31.5377  -20.0895   25.8255 F   0  0  0  0  0  0  0  0  0  0  0  0
  -33.1683  -18.7016   26.1705 F   0  0  0  0  0  0  0  0  0  0  0  0
  -33.3235  -20.1853   24.5884 F   0  0  0  0  0  0  0  0  0  0  0  0
  1  2  1  0  0  0  0
  1  5  2  0  0  0  0
  2  6  2  0  0  0  0
  3 10  2  0  0  0  0
  3 18  1  0  0  0  0
  4 11  1  0  0  0  0
  4 18  2  0  0  0  0
  5 20  1  0  0  0  0
  6 22  1  0  0  0  0
  7 12  2  0  0  0  0
  7 21  1  0  0  0  0
  8  9  2  0  0  0  0
  8 24  1  0  0  0  0
  9 26  1  0  0  0  0
 10 27  1  0  0  0  0
 11 27  2  0  0  0  0
 12 28  1  0  0  0  0
 13 14  2  0  0  0  0
 13 29  1  0  0  0  0
 14 30  1  0  0  0  0
 15 23  1  0  0  0  0
 15 28  2  0  0  0  0
 16 25  1  0  0  0  0
 16 26  2  0  0  0  0
 17 30  2  0  0  0  0
 17 31  1  0  0  0  0
 18 32  1  0  0  0  0
 19 32  1  0  0  0  0
 19 33  2  0  0  0  0
 19 34  1  0  0  0  0
 20 22  2  0  0  0  0
 20 40  1  0  0  0  0
 21 23  2  0  0  0  0
 21 41  1  0  0  0  0
 22 49  1  0  0  0  0
 23 42  1  0  0  0  0
 24 25  2  0  0  0  0
 24 61  1  0  0  0  0
 25 57  1  0  0  0  0
 26 69  1  0  0  0  0
 27 80  1  0  0  0  0
 28 81  1  0  0  0  0
 29 31  2  0  0  0  0
 29 80  1  0  0  0  0
 30 82  1  0  0  0  0
 31 83  1  0  0  0  0
 32 63  2  0  0  0  0
 33 64  1  0  0  0  0
 33 67  1  0  0  0  0
 34 68  1  0  0  0  0
 34 74  2  0  0  0  0
 35 50  1  0  0  0  0
 35 70  1  0  0  0  0
 35 75  2  0  0  0  0
 36 59  1  0  0  0  0
 36 65  1  0  0  0  0
 36 76  2  0  0  0  0
 37 58  1  0  0  0  0
 37 71  1  0  0  0  0
 37 77  2  0  0  0  0
 38 60  1  0  0  0  0
 38 72  1  0  0  0  0
 38 78  2  0  0  0  0
 39 66  1  0  0  0  0
 39 69  1  0  0  0  0
 39 79  2  0  0  0  0
 40 43  1  0  0  0  0
 41 50  1  0  0  0  0
 42 65  1  0  0  0  0
 43 45  1  0  0  0  0
 44 46  1  0  0  0  0
 44 47  1  0  0  0  0
 45 49  1  0  0  0  0
 46 51  1  0  0  0  0
 47 66  1  0  0  0  0
 48 51  1  0  0  0  0
 48 66  1  0  0  0  0
 49 70  1  0  0  0  0
 50 65  1  0  0  0  0
 51 64  1  0  0  0  0
 52 60  1  0  0  0  0
 53 62  1  0  0  0  0
 54 62  1  0  0  0  0
 55 62  1  0  0  0  0
 56 73  1  0  0  0  0
 57 71  1  0  0  0  0
 58 81  1  0  0  0  0
 59 62  1  0  0  0  0
 59 72  1  0  0  0  0
 60 73  1  0  0  0  0
 61 84  1  0  0  0  0
 61 85  1  0  0  0  0
 61 86  1  0  0  0  0
 63 64  1  0  0  0  0
M  CHG  1  73   1
M  ISO  4  39 100  58 101  69 100  81 101
M  END
> <Batch ID>
0050

> <Smiles>
CNC(C)C(=O)NC(C(=O)N1Cc2cc([101O:1][101CH2:1]C(=O)NCc3cc([100NH:0][100C:0](=O)N4CCCC(n5nc(-c6ccc(Oc7ccc(F)cc7F)cc6)c(C(N)=O)c5N)C4)ccc3C(F)(F)F)ccc2CC1C(=O)NC1CCCc2ccccc21)C(C)(C)C

> <Shape>
0.164

> <Color>
0.191

> <Negative vol penalty>
0.000

$$$$

  -OEChem-04042322353D

 97107  0     1  0  0  0  0  0999 V2000
  -19.9919  -23.7472   22.7065 C   0  0  0  0  0  0  0  0  0  0  0  0
  -21.1584  -24.1347   22.0550 C   0  0  0  0  0  0  0  0  0  0  0  0
  -25.9740  -17.1861   24.6076 C   0  0  0  0  0  0  0  0  0  0  0  0
  -23.7797  -16.7931   25.5390 C   0  0  0  0  0  0  0  0  0  0  0  0
  -19.0559  -24.7076   23.0878 C   0  0  0  0  0  0  0  0  0  0  0  0
  -21.3891  -25.4829   21.7834 C   0  0  0  0  0  0  0  0  0  0  0  0
  -26.1231  -26.9043   22.8850 C   0  0  0  0  0  0  0  0  0  0  0  0
  -29.5986  -20.1021   20.7914 C   0  0  0  0  0  0  0  0  0  0  0  0
  -29.8360  -21.4487   21.0671 C   0  0  0  0  0  0  0  0  0  0  0  0
  -26.5351  -17.0670   25.8790 C   0  0  0  0  0  0  0  0  0  0  0  0
  -24.3408  -16.6739   26.8105 C   0  0  0  0  0  0  0  0  0  0  0  0
  -27.1202  -26.5577   21.9742 C   0  0  0  0  0  0  0  0  0  0  0  0
  -27.3888  -14.5773   28.0017 C   0  0  0  0  0  0  0  0  0  0  0  0
  -28.5423  -13.8039   28.1313 C   0  0  0  0  0  0  0  0  0  0  0  0
  -27.0559  -28.7905   21.0633 C   0  0  0  0  0  0  0  0  0  0  0  0
  -29.7420  -15.7314   28.9574 C   0  0  0  0  0  0  0  0  0  0  0  0
  -24.5963  -17.0492   24.4376 C   0  0  0  0  0  0  0  0  0  0  0  0
  -24.0710  -18.2922   22.2727 C   0  0  0  0  0  0  0  0  0  0  0  0
  -19.2796  -26.0691   22.8294 C   0  0  0  0  0  0  0  0  0  0  0  0
  -25.5763  -28.1956   22.8845 C   0  0  0  0  0  0  0  0  0  0  0  0
  -20.4545  -26.4622   22.1605 C   0  0  0  0  0  0  0  0  0  0  0  0
  -26.0538  -29.1517   21.9768 C   0  0  0  0  0  0  0  0  0  0  0  0
  -29.2374  -19.7071   19.5033 C   0  0  0  0  0  0  0  0  0  0  0  0
  -29.1136  -20.6587   18.4909 C   0  0  0  0  0  0  0  0  0  0  0  0
  -29.3509  -22.0052   18.7667 C   0  0  0  0  0  0  0  0  0  0  0  0
  -29.7121  -22.4002   20.0548 C   0  0  0  0  0  0  0  0  0  0  0  0
  -25.7185  -16.8108   26.9805 C   0  0  0  0  0  0  0  0  0  0  0  0
  -27.5847  -27.5000   21.0613 C   0  0  0  0  0  0  0  0  0  0  0  0
  -27.4119  -15.9279   28.3498 C   0  0  0  0  0  0  0  0  0  0  0  0
  -29.7189  -14.3809   28.6092 C   0  0  0  0  0  0  0  0  0  0  0  0
  -28.5885  -16.5049   28.8277 C   0  0  0  0  0  0  0  0  0  0  0  0
  -24.0160  -17.1727   23.1245 C   0  0  0  0  0  0  0  0  0  0  0  0
  -23.3733  -17.9070   21.1541 C   0  0  0  0  0  0  0  0  0  0  0  0
  -28.1723  -14.6568   22.5953 C   0  0  0  0  0  0  0  0  0  0  0  0
  -27.0999  -14.9342   21.8430 C   0  0  0  0  0  0  0  0  0  0  0  0
  -30.0709  -15.2541   21.1405 C   0  0  0  0  0  0  0  0  0  0  0  0
  -29.5426  -14.5364   22.1432 C   0  0  0  0  0  0  0  0  0  0  0  0
  -28.0312  -15.7490   19.6841 C   0  0  0  0  0  0  0  0  0  0  0  0
  -27.0612  -15.1504   20.4080 C   0  0  0  0  0  0  0  0  0  0  0  0
  -29.3140  -16.2211   20.3060 C   0  0  0  0  0  0  0  0  0  0  0  0
  -28.9805  -24.7862   20.1996 C   0  0  0  0  0  0  0  0  0  0  0  0
  -24.6969  -19.5662   22.4745 C   0  0  0  0  0  0  0  0  0  0  0  0
  -22.6783  -29.4042   22.3900 C   0  0  0  0  0  0  0  0  0  0  0  0
  -24.1087  -32.1766   23.2788 C   0  0  0  0  0  0  0  0  0  0  0  0
  -26.9878  -33.9836   23.5825 C   0  0  0  0  0  0  0  0  0  0  0  0
  -25.0917  -13.7298   20.3085 C   0  0  0  0  0  0  0  0  0  0  0  0
  -18.2168  -27.0660   23.2184 C   0  0  0  0  0  0  0  0  0  0  0  0
  -24.5202  -28.5615   23.8911 C   0  0  0  0  0  0  0  0  0  0  0  0
  -25.5140  -30.5575   21.9487 C   0  0  0  0  0  0  0  0  0  0  0  0
  -18.7108  -28.5104   23.2278 C   0  0  0  0  0  0  0  0  0  0  0  0
  -31.8561  -25.3647   20.1628 C   0  0  0  0  0  0  0  0  0  0  0  0
  -21.8634  -13.4210   21.6068 C   0  0  0  0  0  0  0  0  0  0  0  0
  -19.5087  -28.8100   21.9627 C   0  0  0  0  0  0  0  0  0  0  0  0
  -30.8143  -26.4428   19.8693 C   0  0  0  0  0  0  0  0  0  0  0  0
  -21.1852  -14.7146   21.1332 C   0  0  0  0  0  0  0  0  0  0  0  0
  -31.2626  -24.1791   20.9157 C   0  0  0  0  0  0  0  0  0  0  0  0
  -22.7947  -12.8332   20.5516 C   0  0  0  0  0  0  0  0  0  0  0  0
  -23.0328  -15.0045   19.4421 C   0  0  0  0  0  0  0  0  0  0  0  0
  -20.7521  -27.9174   21.8703 C   0  0  1  0  0  0  0  0  0  0  0  0
  -29.4894  -26.1773   20.5758 C   0  0  1  0  0  0  0  0  0  1  0  0
  -23.6725  -29.7546   23.4607 C   0  0  1  0  0  0  0  0  0  0  0  0
  -22.1418  -15.7355   20.4685 C   0  0  2  0  0  0  0  0  0  0  0  0
  -28.7261  -20.2319   17.1103 C   0  0  0  0  0  0  0  0  0  0  0  0
  -29.2175  -23.0247   17.6787 C   0  0  0  0  0  0  0  0  0  0  0  0
  -30.3989  -13.6069   22.9592 C   0  0  0  0  0  0  0  0  0  0  0  0
  -27.9533  -16.0079   18.2002 C   0  0  0  0  0  0  0  0  0  0  0  0
  -27.8352  -36.2324   24.3051 C   0  0  0  0  0  0  0  0  0  0  0  0
  -23.0657  -33.4002   20.6855 C   0  0  0  0  0  0  0  0  0  0  0  0
  -24.6945  -35.2759   20.9971 C   0  0  0  0  0  0  0  0  0  0  0  0
  -22.8979  -34.8931   22.6849 C   0  0  0  0  0  0  0  0  0  0  0  0
  -28.6722  -32.7955   25.7063 C   0  0  0  0  0  0  0  0  0  0  0  0
  -28.9890  -18.2588   19.2350 C   0  0  0  0  0  0  0  0  0  0  0  0
  -24.8413  -33.2811   22.5561 C   0  0  1  0  0  0  0  0  0  0  0  0
  -27.5471  -34.8016   24.7325 C   0  0  2  0  0  0  0  0  0  0  0  0
  -23.8839  -34.1856   21.7299 C   0  0  0  0  0  0  0  0  0  0  0  0
  -23.3369  -16.1530   22.5927 N   0  0  0  0  0  0  0  0  0  0  0  0
  -29.8255  -17.3889   20.0698 N   0  0  0  0  0  0  0  0  0  0  0  0
  -22.9586  -16.6302   21.3947 N   0  0  0  0  0  0  0  0  0  0  0  0
  -29.9618  -23.7827   20.3619 N   0  0  0  0  0  0  0  0  0  0  0  0
  -24.4780  -30.8650   22.9486 N   0  0  0  0  0  0  0  0  0  0  0  0
  -23.7126  -13.8630   20.0677 N   0  0  0  0  0  0  0  0  0  0  0  0
  -23.0800  -18.5394   19.9980 N   0  0  0  0  0  0  0  0  0  0  0  0
  -26.0285  -19.7283   22.0684 N   0  0  0  0  0  0  0  0  0  0  0  0
  -25.8869  -14.7654   19.8259 N   0  0  0  0  0  0  0  0  0  0  0  0
  -21.7921  -28.4068   22.7497 N   0  0  0  0  0  0  0  0  0  0  0  0
  -25.6091  -33.9940   23.5714 N   0  0  0  0  0  0  0  0  0  0  0  0
  -28.8141  -34.1958   25.2311 N   0  3  0  0  0  0  0  0  0  0  0  0
  -27.8387  -24.6362   19.7683 O   0  0  0  0  0  0  0  0  0  0  0  0
  -24.0984  -20.5274   23.0143 O   0  0  0  0  0  0  0  0  0  0  0  0
  -22.7118  -29.9959   21.3174 O   0  0  0  0  0  0  0  0  0  0  0  0
  -23.2457  -32.4670   24.1109 O   0  0  0  0  0  0  0  0  0  0  0  0
  -27.7026  -33.3972   22.7727 O   0  0  0  0  0  0  0  0  0  0  0  0
  -25.5664  -12.7661   20.9200 O   0  0  0  0  0  0  0  0  0  0  0  0
  -26.2657  -16.6943   28.2213 O   0  0  0  0  0  0  0  0  0  0  0  0
  -28.5574  -27.1641   20.1708 O   0  0  0  0  0  0  0  0  0  1  0  0
  -30.8261  -13.6376   28.7351 F   0  0  0  0  0  0  0  0  0  0  0  0
  -28.6165  -17.8016   29.1648 F   0  0  0  0  0  0  0  0  0  0  0  0
  1  2  1  0  0  0  0
  1  5  2  0  0  0  0
  2  6  2  0  0  0  0
  3 10  2  0  0  0  0
  3 17  1  0  0  0  0
  4 11  1  0  0  0  0
  4 17  2  0  0  0  0
  5 19  1  0  0  0  0
  6 21  1  0  0  0  0
  7 12  2  0  0  0  0
  7 20  1  0  0  0  0
  8  9  2  0  0  0  0
  8 23  1  0  0  0  0
  9 26  1  0  0  0  0
 10 27  1  0  0  0  0
 11 27  2  0  0  0  0
 12 28  1  0  0  0  0
 13 14  2  0  0  0  0
 13 29  1  0  0  0  0
 14 30  1  0  0  0  0
 15 22  1  0  0  0  0
 15 28  2  0  0  0  0
 16 30  2  0  0  0  0
 16 31  1  0  0  0  0
 17 32  1  0  0  0  0
 18 32  1  0  0  0  0
 18 33  2  0  0  0  0
 18 42  1  0  0  0  0
 19 21  2  0  0  0  0
 19 47  1  0  0  0  0
 20 22  2  0  0  0  0
 20 48  1  0  0  0  0
 21 59  1  0  0  0  0
 22 49  1  0  0  0  0
 23 24  2  0  0  0  0
 23 72  1  0  0  0  0
 24 25  1  0  0  0  0
 24 63  1  0  0  0  0
 25 26  2  0  0  0  0
 25 64  1  0  0  0  0
 26 79  1  0  0  0  0
 27 94  1  0  0  0  0
 28 95  1  0  0  0  0
 29 31  2  0  0  0  0
 29 94  1  0  0  0  0
 30 96  1  0  0  0  0
 31 97  1  0  0  0  0
 32 76  2  0  0  0  0
 33 78  1  0  0  0  0
 33 82  1  0  0  0  0
 34 35  2  0  0  0  0
 34 37  1  0  0  0  0
 35 39  1  0  0  0  0
 36 37  2  0  0  0  0
 36 40  1  0  0  0  0
 37 65  1  0  0  0  0
 38 39  2  0  0  0  0
 38 40  1  0  0  0  0
 38 66  1  0  0  0  0
 39 84  1  0  0  0  0
 40 77  2  0  0  0  0
 41 60  1  0  0  0  0
 41 79  1  0  0  0  0
 41 88  2  0  0  0  0
 42 83  1  0  0  0  0
 42 89  2  0  0  0  0
 43 61  1  0  0  0  0
 43 85  1  0  0  0  0
 43 90  2  0  0  0  0
 44 73  1  0  0  0  0
 44 80  1  0  0  0  0
 44 91  2  0  0  0  0
 45 74  1  0  0  0  0
 45 86  1  0  0  0  0
 45 92  2  0  0  0  0
 46 81  1  0  0  0  0
 46 84  1  0  0  0  0
 46 93  2  0  0  0  0
 47 50  1  0  0  0  0
 48 61  1  0  0  0  0
 49 80  1  0  0  0  0
 50 53  1  0  0  0  0
 51 54  1  0  0  0  0
 51 56  1  0  0  0  0
 52 55  1  0  0  0  0
 52 57  1  0  0  0  0
 53 59  1  0  0  0  0
 54 60  1  0  0  0  0
 55 62  1  0  0  0  0
 56 79  1  0  0  0  0
 57 81  1  0  0  0  0
 58 62  1  0  0  0  0
 58 81  1  0  0  0  0
 59 85  1  0  0  0  0
 60 95  1  0  0  0  0
 61 80  1  0  0  0  0
 62 78  1  0  0  0  0
 67 74  1  0  0  0  0
 68 75  1  0  0  0  0
 69 75  1  0  0  0  0
 70 75  1  0  0  0  0
 71 87  1  0  0  0  0
 72 77  1  0  0  0  0
 73 75  1  0  0  0  0
 73 86  1  0  0  0  0
 74 87  1  0  0  0  0
 76 78  1  0  0  0  0
M  CHG  1  87   1
M  ISO  4  46 100  60 101  84 100  95 101
M  END
> <Batch ID>
0050

> <Smiles>
CNC(C)C(=O)NC(C(=O)N1Cc2cc([101O:1][101CH:1]3CCCN(c4ccc(CN=c5cc(C)ccc([100NH:0][100C:0](=O)N6CCCC(n7nc(-c8ccc(Oc9ccc(F)cc9F)cc8)c(C(N)=O)c7N)C6)c5C)c(C)c4C)C3=O)ccc2CC1C(=O)NC1CCCc2ccccc21)C(C)(C)C

> <Shape>
0.269

> <Color>
0.093

> <Negative vol penalty>
0.000

$$$$

  -OEChem-04042322353D

 87 95  0     1  0  0  0  0  0999 V2000
  -33.5449  -26.6229   28.1279 C   0  0  0  0  0  0  0  0  0  0  0  0
  -32.9531  -25.4444   27.6848 C   0  0  0  0  0  0  0  0  0  0  0  0
  -23.3015   -9.7432   20.0202 C   0  0  0  0  0  0  0  0  0  0  0  0
  -23.7214  -10.0253   22.3827 C   0  0  0  0  0  0  0  0  0  0  0  0
  -32.9889  -27.8538   27.7819 C   0  0  0  0  0  0  0  0  0  0  0  0
  -31.8042  -25.4961   26.8963 C   0  0  0  0  0  0  0  0  0  0  0  0
  -32.0132  -22.3308   22.9489 C   0  0  0  0  0  0  0  0  0  0  0  0
  -31.6250  -12.5949   26.2832 C   0  0  0  0  0  0  0  0  0  0  0  0
  -22.5724   -8.5847   20.2881 C   0  0  0  0  0  0  0  0  0  0  0  0
  -22.9922   -8.8668   22.6506 C   0  0  0  0  0  0  0  0  0  0  0  0
  -31.7705  -20.9813   23.2013 C   0  0  0  0  0  0  0  0  0  0  0  0
  -20.9375   -6.1818   23.9874 C   0  0  0  0  0  0  0  0  0  0  0  0
  -32.9746  -12.2697   26.1481 C   0  0  0  0  0  0  0  0  0  0  0  0
  -20.0221   -6.2194   25.0392 C   0  0  0  0  0  0  0  0  0  0  0  0
  -29.5109  -21.2438   22.3985 C   0  0  0  0  0  0  0  0  0  0  0  0
  -32.7764  -12.4447   23.7466 C   0  0  0  0  0  0  0  0  0  0  0  0
  -18.8256   -8.0038   23.9340 C   0  0  0  0  0  0  0  0  0  0  0  0
  -23.8760  -10.4635   21.0675 C   0  0  0  0  0  0  0  0  0  0  0  0
  -24.1382  -12.9774   20.7217 C   0  0  0  0  0  0  0  0  0  0  0  0
  -31.8382  -27.9208   26.9806 C   0  0  0  0  0  0  0  0  0  0  0  0
  -31.0016  -23.1508   22.4287 C   0  0  0  0  0  0  0  0  0  0  0  0
  -31.2315  -26.7290   26.5403 C   0  0  0  0  0  0  0  0  0  0  0  0
  -29.7441  -22.6028   22.1380 C   0  0  0  0  0  0  0  0  0  0  0  0
  -30.8510  -12.8449   25.1499 C   0  0  0  0  0  0  0  0  0  0  0  0
  -31.4267  -12.7699   23.8817 C   0  0  0  0  0  0  0  0  0  0  0  0
  -22.4177   -8.1465   21.6033 C   0  0  0  0  0  0  0  0  0  0  0  0
  -30.5184  -20.4383   22.9288 C   0  0  0  0  0  0  0  0  0  0  0  0
  -20.7970   -7.0553   22.9089 C   0  0  0  0  0  0  0  0  0  0  0  0
  -33.5504  -12.1946   24.8798 C   0  0  0  0  0  0  0  0  0  0  0  0
  -18.9662   -7.1304   25.0125 C   0  0  0  0  0  0  0  0  0  0  0  0
  -19.7410   -7.9662   22.8823 C   0  0  0  0  0  0  0  0  0  0  0  0
  -24.6298  -11.6601   20.7914 C   0  0  0  0  0  0  0  0  0  0  0  0
  -25.2429  -13.7414   20.4350 C   0  0  0  0  0  0  0  0  0  0  0  0
  -28.9292  -17.1711   23.1899 C   0  0  0  0  0  0  0  0  0  0  0  0
  -22.8023  -13.4666   20.9002 C   0  0  0  0  0  0  0  0  0  0  0  0
  -28.0947  -16.5568   24.0461 C   0  0  0  0  0  0  0  0  0  0  0  0
  -28.2549  -15.0775   24.1554 C   0  0  0  0  0  0  0  0  0  0  0  0
  -29.4624  -25.7369   23.4518 C   0  0  0  0  0  0  0  0  0  0  0  0
  -28.1707  -25.6678   20.4770 C   0  0  0  0  0  0  0  0  0  0  0  0
  -27.3592  -23.8384   17.7127 C   0  0  0  0  0  0  0  0  0  0  0  0
  -31.0918  -12.9826   21.3939 C   0  0  0  0  0  0  0  0  0  0  0  0
  -31.2464  -29.2733   26.6718 C   0  0  0  0  0  0  0  0  0  0  0  0
  -31.2875  -24.5984   22.1370 C   0  0  0  0  0  0  0  0  0  0  0  0
  -28.6304  -23.4358   21.5599 C   0  0  0  0  0  0  0  0  0  0  0  0
  -30.2431  -29.2509   25.5215 C   0  0  0  0  0  0  0  0  0  0  0  0
  -29.4987  -13.5005   18.2521 C   0  0  0  0  0  0  0  0  0  0  0  0
  -29.2661  -28.0914   25.6878 C   0  0  0  0  0  0  0  0  0  0  0  0
  -28.0237  -13.2131   18.5418 C   0  0  0  0  0  0  0  0  0  0  0  0
  -30.4224  -12.5704   19.0366 C   0  0  0  0  0  0  0  0  0  0  0  0
  -28.7067  -12.2456   20.7744 C   0  0  0  0  0  0  0  0  0  0  0  0
  -29.9988  -26.7446   25.6626 C   0  0  1  0  0  0  0  0  0  0  0  0
  -30.0282  -25.4582   22.0880 C   0  0  1  0  0  0  0  0  0  0  0  0
  -27.7390  -13.2005   20.0565 C   0  0  2  0  0  0  0  0  0  0  0  0
  -26.9770  -17.1502   24.8405 C   0  0  0  0  0  0  0  0  0  0  0  0
  -26.2782  -24.0503   15.4579 C   0  0  0  0  0  0  0  0  0  0  0  0
  -25.4241  -25.7446   21.8038 C   0  0  0  0  0  0  0  0  0  0  0  0
  -24.4297  -25.0052   19.6283 C   0  0  0  0  0  0  0  0  0  0  0  0
  -25.6401  -27.1819   19.7686 C   0  0  0  0  0  0  0  0  0  0  0  0
  -29.8976  -15.5125   25.9939 C   0  0  0  0  0  0  0  0  0  0  0  0
  -29.8370  -23.0157   16.3188 C   0  0  0  0  0  0  0  0  0  0  0  0
  -29.4002  -13.1898   25.3248 C   0  0  0  0  0  0  0  0  0  0  0  0
  -28.9730  -18.6314   22.8721 C   0  0  0  0  0  0  0  0  0  1  0  0
  -26.9555  -25.0244   19.8539 C   0  0  1  0  0  0  0  0  0  0  0  0
  -27.5856  -24.0941   16.2335 C   0  0  2  0  0  0  0  0  0  0  0  0
  -25.6325  -25.7235   20.2763 C   0  0  0  0  0  0  0  0  0  0  0  0
  -25.9445  -11.5878   20.5668 N   0  0  0  0  0  0  0  0  0  0  0  0
  -26.2883  -12.8693   20.3532 N   0  0  0  0  0  0  0  0  0  0  0  0
  -28.9572  -24.8473   21.2981 N   0  0  0  0  0  0  0  0  0  0  0  0
  -30.0970  -12.6138   20.4638 N   0  0  0  0  0  0  0  0  0  0  0  0
  -25.4124  -15.0675   20.2472 N   0  0  0  0  0  0  0  0  0  0  0  0
  -21.7866  -12.5454   21.1900 N   0  0  0  0  0  0  0  0  0  0  0  0
  -30.6573  -13.0202   22.7184 N   0  0  0  0  0  0  0  0  0  0  0  0
  -30.3396  -26.3800   24.3041 N   0  0  0  0  0  0  0  0  0  0  0  0
  -27.1923  -25.0136   18.4144 N   0  0  0  0  0  0  0  0  0  0  0  0
  -29.1490  -14.6100   25.1199 N   0  0  0  0  0  0  0  0  0  0  0  0
  -28.5039  -23.0672   15.6650 N   0  3  0  0  0  0  0  0  0  0  0  0
  -22.5150  -14.6826   20.7894 O   0  0  0  0  0  0  0  0  0  0  0  0
  -27.5993  -14.3646   23.3941 O   0  0  0  0  0  0  0  0  0  0  0  0
  -28.3144  -25.3953   23.7110 O   0  0  0  0  0  0  0  0  0  0  0  0
  -28.4171  -26.8526   20.2382 O   0  0  0  0  0  0  0  0  0  0  0  0
  -27.3295  -22.7091   18.1965 O   0  0  0  0  0  0  0  0  0  0  0  0
  -32.2372  -13.2721   21.0385 O   0  0  0  0  0  0  0  0  0  0  0  0
  -21.7061   -7.0161   21.8651 O   0  0  0  0  0  0  0  0  0  0  0  0
  -30.2786  -19.1215   23.1749 O   0  0  0  0  0  0  0  0  0  1  0  0
  -34.8465  -11.8822   24.7512 F   0  0  0  0  0  0  0  0  0  0  0  0
  -18.0863   -7.1654   26.0219 F   0  0  0  0  0  0  0  0  0  0  0  0
  -19.6002   -8.8070   21.8483 F   0  0  0  0  0  0  0  0  0  0  0  0
  1  2  1  0  0  0  0
  1  5  2  0  0  0  0
  2  6  2  0  0  0  0
  3  9  2  0  0  0  0
  3 18  1  0  0  0  0
  4 10  1  0  0  0  0
  4 18  2  0  0  0  0
  5 20  1  0  0  0  0
  6 22  1  0  0  0  0
  7 11  2  0  0  0  0
  7 21  1  0  0  0  0
  8 13  2  0  0  0  0
  8 24  1  0  0  0  0
  9 26  1  0  0  0  0
 10 26  2  0  0  0  0
 11 27  1  0  0  0  0
 12 14  2  0  0  0  0
 12 28  1  0  0  0  0
 13 29  1  0  0  0  0
 14 30  1  0  0  0  0
 15 23  1  0  0  0  0
 15 27  2  0  0  0  0
 16 25  1  0  0  0  0
 16 29  2  0  0  0  0
 17 30  2  0  0  0  0
 17 31  1  0  0  0  0
 18 32  1  0  0  0  0
 19 32  1  0  0  0  0
 19 33  2  0  0  0  0
 19 35  1  0  0  0  0
 20 22  2  0  0  0  0
 20 42  1  0  0  0  0
 21 23  2  0  0  0  0
 21 43  1  0  0  0  0
 22 51  1  0  0  0  0
 23 44  1  0  0  0  0
 24 25  2  0  0  0  0
 24 61  1  0  0  0  0
 25 72  1  0  0  0  0
 26 83  1  0  0  0  0
 27 84  1  0  0  0  0
 28 31  2  0  0  0  0
 28 83  1  0  0  0  0
 29 85  1  0  0  0  0
 30 86  1  0  0  0  0
 31 87  1  0  0  0  0
 32 66  2  0  0  0  0
 33 67  1  0  0  0  0
 33 70  1  0  0  0  0
 34 36  2  0  0  0  0
 34 62  1  0  0  0  0
 35 71  1  0  0  0  0
 35 77  2  0  0  0  0
 36 37  1  0  0  0  0
 36 54  1  0  0  0  0
 37 75  1  0  0  0  0
 37 78  2  0  0  0  0
 38 52  1  0  0  0  0
 38 73  1  0  0  0  0
 38 79  2  0  0  0  0
 39 63  1  0  0  0  0
 39 68  1  0  0  0  0
 39 80  2  0  0  0  0
 40 64  1  0  0  0  0
 40 74  1  0  0  0  0
 40 81  2  0  0  0  0
 41 69  1  0  0  0  0
 41 72  1  0  0  0  0
 41 82  2  0  0  0  0
 42 45  1  0  0  0  0
 43 52  1  0  0  0  0
 44 68  1  0  0  0  0
 45 47  1  0  0  0  0
 46 48  1  0  0  0  0
 46 49  1  0  0  0  0
 47 51  1  0  0  0  0
 48 53  1  0  0  0  0
 49 69  1  0  0  0  0
 50 53  1  0  0  0  0
 50 69  1  0  0  0  0
 51 73  1  0  0  0  0
 52 68  1  0  0  0  0
 53 67  1  0  0  0  0
 55 64  1  0  0  0  0
 56 65  1  0  0  0  0
 57 65  1  0  0  0  0
 58 65  1  0  0  0  0
 59 75  1  0  0  0  0
 60 76  1  0  0  0  0
 61 75  1  0  0  0  0
 62 84  1  0  0  0  0
 63 65  1  0  0  0  0
 63 74  1  0  0  0  0
 64 76  1  0  0  0  0
 66 67  1  0  0  0  0
M  CHG  1  76   1
M  ISO  4  41 100  62 101  72 100  84 101
M  END
> <Batch ID>
0050

> <Smiles>
CNC(C)C(=O)NC(C(=O)N1Cc2cc([101O:1][101CH2:1]C=C(C)C(=O)N(C)Cc3ccc(F)cc3[100NH:0][100C:0](=O)N3CCCC(n4nc(-c5ccc(Oc6ccc(F)cc6F)cc5)c(C(N)=O)c4N)C3)ccc2CC1C(=O)NC1CCCc2ccccc21)C(C)(C)C

> <Shape>
0.175

> <Color>
0.194

> <Negative vol penalty>
0.000

$$$$

  -OEChem-04042322353D

 86 94  0     1  0  0  0  0  0999 V2000
  -20.8100  -25.9275   21.2124 C   0  0  0  0  0  0  0  0  0  0  0  0
  -23.1763  -32.9441   25.4057 C   0  0  0  0  0  0  0  0  0  0  0  0
  -23.3459  -32.4551   24.1144 C   0  0  0  0  0  0  0  0  0  0  0  0
  -20.7421  -25.5786   22.5612 C   0  0  0  0  0  0  0  0  0  0  0  0
  -26.9904  -14.5494   21.3793 C   0  0  0  0  0  0  0  0  0  0  0  0
  -24.7618  -14.7756   20.4742 C   0  0  0  0  0  0  0  0  0  0  0  0
  -21.7056  -25.2727   20.3669 C   0  0  0  0  0  0  0  0  0  0  0  0
  -24.2886  -33.1769   26.2134 C   0  0  0  0  0  0  0  0  0  0  0  0
  -24.6282  -32.1995   23.6296 C   0  0  0  0  0  0  0  0  0  0  0  0
  -24.9396  -27.7660   21.2022 C   0  0  0  0  0  0  0  0  0  0  0  0
  -21.5698  -24.5751   23.0646 C   0  0  0  0  0  0  0  0  0  0  0  0
  -26.9236  -13.1680   21.1986 C   0  0  0  0  0  0  0  0  0  0  0  0
  -24.6950  -13.3941   20.2934 C   0  0  0  0  0  0  0  0  0  0  0  0
  -24.4452  -27.7173   19.8995 C   0  0  0  0  0  0  0  0  0  0  0  0
  -23.7971   -9.8913   19.9270 C   0  0  0  0  0  0  0  0  0  0  0  0
  -22.6251   -9.2425   20.3157 C   0  0  0  0  0  0  0  0  0  0  0  0
  -26.6921  -27.9218   19.0457 C   0  0  0  0  0  0  0  0  0  0  0  0
  -22.9541  -10.0072   22.5838 C   0  0  0  0  0  0  0  0  0  0  0  0
  -25.9094  -15.3533   21.0172 C   0  0  0  0  0  0  0  0  0  0  0  0
  -22.5334  -24.2691   20.8703 C   0  0  0  0  0  0  0  0  0  0  0  0
  -26.4480  -17.7367   20.2844 C   0  0  0  0  0  0  0  0  0  0  0  0
  -25.5846  -32.9149   25.7417 C   0  0  0  0  0  0  0  0  0  0  0  0
  -26.3152  -27.9042   21.4368 C   0  0  0  0  0  0  0  0  0  0  0  0
  -25.7590  -32.4303   24.4313 C   0  0  0  0  0  0  0  0  0  0  0  0
  -27.2016  -27.9695   20.3523 C   0  0  0  0  0  0  0  0  0  0  0  0
  -22.4655  -23.9203   22.2191 C   0  0  0  0  0  0  0  0  0  0  0  0
  -25.7759  -12.5903   20.6557 C   0  0  0  0  0  0  0  0  0  0  0  0
  -25.3212  -27.7981   18.8210 C   0  0  0  0  0  0  0  0  0  0  0  0
  -24.5476  -10.5980   20.8666 C   0  0  0  0  0  0  0  0  0  0  0  0
  -22.2036   -9.3005   21.6441 C   0  0  0  0  0  0  0  0  0  0  0  0
  -24.1261  -10.6560   22.1950 C   0  0  0  0  0  0  0  0  0  0  0  0
  -25.9776  -16.7803   21.2041 C   0  0  0  0  0  0  0  0  0  0  0  0
  -26.3048  -18.9380   20.9347 C   0  0  0  0  0  0  0  0  0  0  0  0
  -23.4715  -23.5951   19.9466 C   0  0  0  0  0  0  0  0  0  0  0  0
  -26.9678  -17.5554   18.9605 C   0  0  0  0  0  0  0  0  0  0  0  0
  -28.1407  -30.0851   22.8563 C   0  0  0  0  0  0  0  0  0  0  0  0
  -30.4855  -27.9108   22.3120 C   0  0  0  0  0  0  0  0  0  0  0  0
  -24.8039  -23.9397   17.8870 C   0  0  0  0  0  0  0  0  0  0  0  0
  -31.6165  -25.2690   20.4711 C   0  0  0  0  0  0  0  0  0  0  0  0
  -23.3406  -22.4553   24.0723 C   0  0  0  0  0  0  0  0  0  0  0  0
  -26.7591  -33.2269   26.6349 C   0  0  0  0  0  0  0  0  0  0  0  0
  -26.8351  -27.9284   22.8480 C   0  0  0  0  0  0  0  0  0  0  0  0
  -28.6891  -28.0980   20.5504 C   0  0  0  0  0  0  0  0  0  0  0  0
  -28.0620  -32.5759   26.1777 C   0  0  0  0  0  0  0  0  0  0  0  0
  -25.2208  -19.9555   25.7732 C   0  0  0  0  0  0  0  0  0  0  0  0
  -28.2618  -32.7769   24.6789 C   0  0  0  0  0  0  0  0  0  0  0  0
  -25.6240  -18.9853   24.6605 C   0  0  0  0  0  0  0  0  0  0  0  0
  -23.8176  -20.5183   25.5541 C   0  0  0  0  0  0  0  0  0  0  0  0
  -23.9944  -20.1557   23.1237 C   0  0  0  0  0  0  0  0  0  0  0  0
  -27.1324  -32.1173   23.8783 C   0  0  1  0  0  0  0  0  0  0  0  0
  -28.2053  -28.5882   22.9687 C   0  0  1  0  0  0  0  0  0  0  0  0
  -25.4255  -19.6125   23.2666 C   0  0  2  0  0  0  0  0  0  0  0  0
  -25.7595  -22.8836   18.3024 C   0  0  0  0  0  0  0  0  0  0  0  0
  -33.5850  -23.7304   20.2366 C   0  0  0  0  0  0  0  0  0  0  0  0
  -32.0595  -30.1371   20.9422 C   0  0  0  0  0  0  0  0  0  0  0  0
  -33.5230  -28.3800   19.9228 C   0  0  0  0  0  0  0  0  0  0  0  0
  -33.4286  -28.6377   22.4022 C   0  0  0  0  0  0  0  0  0  0  0  0
  -29.9695  -22.8829   21.0650 C   0  0  0  0  0  0  0  0  0  0  0  0
  -24.8363  -26.5252   15.4858 C   0  0  0  0  0  0  0  0  0  0  0  0
  -23.9805  -25.4001   16.0435 C   0  0  0  0  0  0  0  0  0  0  0  0
  -25.6961  -27.1922   16.5520 C   0  0  0  0  0  0  0  0  0  1  0  0
  -31.4510  -27.6395   21.1836 C   0  0  1  0  0  0  0  0  0  0  0  0
  -32.2248  -23.9408   20.8836 C   0  0  2  0  0  0  0  0  0  0  0  0
  -32.5874  -28.6981   21.1086 C   0  0  0  0  0  0  0  0  0  0  0  0
  -25.5665  -17.3269   22.3514 N   0  0  0  0  0  0  0  0  0  0  0  0
  -25.7783  -18.6397   22.1570 N   0  0  0  0  0  0  0  0  0  0  0  0
  -29.1481  -28.1237   21.9491 N   0  0  0  0  0  0  0  0  0  0  0  0
  -23.7051  -21.0997   24.2146 N   0  0  0  0  0  0  0  0  0  0  0  0
  -26.5794  -20.2097   20.5746 N   0  0  0  0  0  0  0  0  0  0  0  0
  -27.0456  -16.2542   18.4457 N   0  0  0  0  0  0  0  0  0  0  0  0
  -23.2977  -22.9055   22.7532 N   0  0  0  0  0  0  0  0  0  0  0  0
  -23.9675  -24.3756   18.8365 N   0  0  0  0  0  0  0  0  0  0  0  0
  -27.3346  -30.6862   23.8042 N   0  0  0  0  0  0  0  0  0  0  0  0
  -31.9208  -26.2708   21.3685 N   0  0  0  0  0  0  0  0  0  0  0  0
  -24.8444  -24.3704   16.6213 N   0  3  0  0  0  0  0  0  0  0  0  0
  -31.3340  -22.8158   20.4813 N   0  3  0  0  0  0  0  0  0  0  0  0
  -23.8007  -22.4275   20.0975 O   0  0  0  0  0  0  0  0  0  0  0  0
  -27.3671  -18.5172   18.2612 O   0  0  0  0  0  0  0  0  0  0  0  0
  -28.7763  -30.6529   21.9758 O   0  0  0  0  0  0  0  0  0  0  0  0
  -30.9014  -27.9259   23.4733 O   0  0  0  0  0  0  0  0  0  0  0  0
  -30.9422  -25.4052   19.4527 O   0  0  0  0  0  0  0  0  0  0  0  0
  -23.1119  -23.1719   25.0502 O   0  0  0  0  0  0  0  0  0  0  0  0
  -25.7105  -11.2423   20.4790 O   0  0  0  0  0  0  0  0  0  0  0  0
  -24.8413  -27.7514   17.5485 O   0  0  0  0  0  0  0  0  0  1  0  0
  -21.0774   -8.6787   22.0170 F   0  0  0  0  0  0  0  0  0  0  0  0
  -24.8424  -11.3344   23.1020 F   0  0  0  0  0  0  0  0  0  0  0  0
  1  4  1  0  0  0  0
  1  7  2  0  0  0  0
  2  3  1  0  0  0  0
  2  8  2  0  0  0  0
  3  9  2  0  0  0  0
  4 11  2  0  0  0  0
  5 12  2  0  0  0  0
  5 19  1  0  0  0  0
  6 13  1  0  0  0  0
  6 19  2  0  0  0  0
  7 20  1  0  0  0  0
  8 22  1  0  0  0  0
  9 24  1  0  0  0  0
 10 14  2  0  0  0  0
 10 23  1  0  0  0  0
 11 26  1  0  0  0  0
 12 27  1  0  0  0  0
 13 27  2  0  0  0  0
 14 28  1  0  0  0  0
 15 16  2  0  0  0  0
 15 29  1  0  0  0  0
 16 30  1  0  0  0  0
 17 25  1  0  0  0  0
 17 28  2  0  0  0  0
 18 30  2  0  0  0  0
 18 31  1  0  0  0  0
 19 32  1  0  0  0  0
 20 26  2  0  0  0  0
 20 34  1  0  0  0  0
 21 32  1  0  0  0  0
 21 33  2  0  0  0  0
 21 35  1  0  0  0  0
 22 24  2  0  0  0  0
 22 41  1  0  0  0  0
 23 25  2  0  0  0  0
 23 42  1  0  0  0  0
 24 50  1  0  0  0  0
 25 43  1  0  0  0  0
 26 71  1  0  0  0  0
 27 83  1  0  0  0  0
 28 84  1  0  0  0  0
 29 31  2  0  0  0  0
 29 83  1  0  0  0  0
 30 85  1  0  0  0  0
 31 86  1  0  0  0  0
 32 65  2  0  0  0  0
 33 66  1  0  0  0  0
 33 69  1  0  0  0  0
 34 72  1  0  0  0  0
 34 77  2  0  0  0  0
 35 70  1  0  0  0  0
 35 78  2  0  0  0  0
 36 51  1  0  0  0  0
 36 73  1  0  0  0  0
 36 79  2  0  0  0  0
 37 62  1  0  0  0  0
 37 67  1  0  0  0  0
 37 80  2  0  0  0  0
 38 53  1  0  0  0  0
 38 72  1  0  0  0  0
 38 75  2  0  0  0  0
 39 63  1  0  0  0  0
 39 74  1  0  0  0  0
 39 81  2  0  0  0  0
 40 68  1  0  0  0  0
 40 71  1  0  0  0  0
 40 82  2  0  0  0  0
 41 44  1  0  0  0  0
 42 51  1  0  0  0  0
 43 67  1  0  0  0  0
 44 46  1  0  0  0  0
 45 47  1  0  0  0  0
 45 48  1  0  0  0  0
 46 50  1  0  0  0  0
 47 52  1  0  0  0  0
 48 68  1  0  0  0  0
 49 52  1  0  0  0  0
 49 68  1  0  0  0  0
 50 73  1  0  0  0  0
 51 67  1  0  0  0  0
 52 66  1  0  0  0  0
 54 63  1  0  0  0  0
 55 64  1  0  0  0  0
 56 64  1  0  0  0  0
 57 64  1  0  0  0  0
 58 76  1  0  0  0  0
 59 60  1  0  0  0  0
 59 61  1  0  0  0  0
 60 75  1  0  0  0  0
 61 84  1  0  0  0  0
 62 64  1  0  0  0  0
 62 74  1  0  0  0  0
 63 76  1  0  0  0  0
 65 66  1  0  0  0  0
M  CHG  2  75   1  76   1
M  ISO  4  40 100  61 101  71 100  84 101
M  END
> <Batch ID>
0050

> <Smiles>
CNC(C)C(=O)NC(C(=O)N1Cc2cc([101O:1][101CH2:1]CCNC(C)=NC(=O)c3ccccc3[100NH:0][100C:0](=O)N3CCCC(n4nc(-c5ccc(Oc6ccc(F)cc6F)cc5)c(C(N)=O)c4N)C3)ccc2CC1C(=O)NC1CCCc2ccccc21)C(C)(C)C

> <Shape>
0.197

> <Color>
0.060

> <Negative vol penalty>
0.000

$$$$

  -OEChem-04042322353D

 83 91  0     1  0  0  0  0  0999 V2000
  -20.8639  -30.0469   27.2780 C   0  0  0  0  0  0  0  0  0  0  0  0
  -21.9672  -29.4056   26.7241 C   0  0  0  0  0  0  0  0  0  0  0  0
  -24.6218   -9.1013   22.1338 C   0  0  0  0  0  0  0  0  0  0  0  0
  -22.9744  -10.4457   20.9868 C   0  0  0  0  0  0  0  0  0  0  0  0
  -19.7012  -30.2064   26.5252 C   0  0  0  0  0  0  0  0  0  0  0  0
  -21.9081  -28.9224   25.4174 C   0  0  0  0  0  0  0  0  0  0  0  0
  -26.4826  -28.7378   21.3499 C   0  0  0  0  0  0  0  0  0  0  0  0
  -28.8769  -20.7113   22.7821 C   0  0  0  0  0  0  0  0  0  0  0  0
  -27.9154  -19.8178   23.2540 C   0  0  0  0  0  0  0  0  0  0  0  0
  -23.8054   -7.9793   21.9914 C   0  0  0  0  0  0  0  0  0  0  0  0
  -22.1579   -9.3237   20.8444 C   0  0  0  0  0  0  0  0  0  0  0  0
  -27.3462  -27.7169   20.9552 C   0  0  0  0  0  0  0  0  0  0  0  0
  -21.0600   -6.6914   23.4843 C   0  0  0  0  0  0  0  0  0  0  0  0
  -20.8928   -5.8671   24.5970 C   0  0  0  0  0  0  0  0  0  0  0  0
  -25.9048  -27.2293   19.0834 C   0  0  0  0  0  0  0  0  0  0  0  0
  -27.3217  -19.2560   20.9804 C   0  0  0  0  0  0  0  0  0  0  0  0
  -21.8268   -4.0119   23.3629 C   0  0  0  0  0  0  0  0  0  0  0  0
  -24.2062  -10.3345   21.6316 C   0  0  0  0  0  0  0  0  0  0  0  0
  -26.0387  -11.9446   20.8851 C   0  0  0  0  0  0  0  0  0  0  0  0
  -19.6310  -29.7334   25.2054 C   0  0  0  0  0  0  0  0  0  0  0  0
  -25.3160  -29.0054   20.6192 C   0  0  0  0  0  0  0  0  0  0  0  0
  -20.7428  -29.0744   24.6468 C   0  0  0  0  0  0  0  0  0  0  0  0
  -25.0293  -28.2558   19.4694 C   0  0  0  0  0  0  0  0  0  0  0  0
  -29.0608  -20.8772   21.4093 C   0  0  0  0  0  0  0  0  0  0  0  0
  -27.1378  -19.0901   22.3532 C   0  0  0  0  0  0  0  0  0  0  0  0
  -22.5735   -8.0905   21.3467 C   0  0  0  0  0  0  0  0  0  0  0  0
  -27.0559  -26.9606   19.8235 C   0  0  0  0  0  0  0  0  0  0  0  0
  -21.6106   -6.1760   22.3108 C   0  0  0  0  0  0  0  0  0  0  0  0
  -21.2762   -4.5273   24.5363 C   0  0  0  0  0  0  0  0  0  0  0  0
  -28.2832  -20.1496   20.5085 C   0  0  0  0  0  0  0  0  0  0  0  0
  -21.9940   -4.8362   22.2502 C   0  0  0  0  0  0  0  0  0  0  0  0
  -25.0489  -11.4939   21.7789 C   0  0  0  0  0  0  0  0  0  0  0  0
  -26.5474  -13.0746   21.4773 C   0  0  0  0  0  0  0  0  0  0  0  0
  -26.4606  -11.3912   19.6315 C   0  0  0  0  0  0  0  0  0  0  0  0
  -22.2028  -28.9253   21.2557 C   0  0  0  0  0  0  0  0  0  0  0  0
  -21.9589  -30.2046   18.2848 C   0  0  0  0  0  0  0  0  0  0  0  0
  -28.9403  -23.8719   20.0626 C   0  0  0  0  0  0  0  0  0  0  0  0
  -23.3431  -30.6420   15.1962 C   0  0  0  0  0  0  0  0  0  0  0  0
  -25.8486  -17.9022   24.1623 C   0  0  0  0  0  0  0  0  0  0  0  0
  -18.3365  -29.8871   24.4470 C   0  0  0  0  0  0  0  0  0  0  0  0
  -24.4085  -30.1276   21.0429 C   0  0  0  0  0  0  0  0  0  0  0  0
  -23.8002  -28.5165   18.6389 C   0  0  0  0  0  0  0  0  0  0  0  0
  -18.4838  -29.6787   22.9419 C   0  0  0  0  0  0  0  0  0  0  0  0
  -25.8774  -14.9386   26.1355 C   0  0  0  0  0  0  0  0  0  0  0  0
  -19.3082  -28.4279   22.6544 C   0  0  0  0  0  0  0  0  0  0  0  0
  -25.7458  -13.8153   25.1044 C   0  0  0  0  0  0  0  0  0  0  0  0
  -25.0507  -16.1635   25.7483 C   0  0  0  0  0  0  0  0  0  0  0  0
  -25.1670  -15.5540   23.3641 C   0  0  0  0  0  0  0  0  0  0  0  0
  -20.7259  -28.5585   23.2242 C   0  0  1  0  0  0  0  0  0  0  0  0
  -22.9844  -29.9751   20.5176 C   0  0  1  0  0  0  0  0  0  0  0  0
  -26.0332  -14.3232   23.6779 C   0  0  2  0  0  0  0  0  0  0  0  0
  -22.8907  -31.7016   12.9669 C   0  0  0  0  0  0  0  0  0  0  0  0
  -20.0208  -27.9473   17.6080 C   0  0  0  0  0  0  0  0  0  0  0  0
  -20.3491  -28.4858   15.1850 C   0  0  0  0  0  0  0  0  0  0  0  0
  -19.3628  -30.1895   16.7170 C   0  0  0  0  0  0  0  0  0  0  0  0
  -25.7106  -32.4034   15.4228 C   0  0  0  0  0  0  0  0  0  0  0  0
  -30.0982  -21.8386   20.9056 C   0  0  0  0  0  0  0  0  0  0  0  0
  -28.6326  -25.2990   20.4630 C   0  0  0  0  0  0  0  0  0  1  0  0
  -21.8262  -29.6469   16.8883 C   0  0  1  0  0  0  0  0  0  0  0  0
  -23.5216  -31.8820   14.3388 C   0  0  2  0  0  0  0  0  0  0  0  0
  -20.4120  -29.0610   16.6161 C   0  0  0  0  0  0  0  0  0  0  0  0
  -24.9340  -12.2740   22.8571 N   0  0  0  0  0  0  0  0  0  0  0  0
  -25.8584  -13.2261   22.6446 N   0  0  0  0  0  0  0  0  0  0  0  0
  -22.9407  -29.6203   19.0976 N   0  0  0  0  0  0  0  0  0  0  0  0
  -25.3794  -16.5905   24.3865 N   0  0  0  0  0  0  0  0  0  0  0  0
  -27.5124  -13.9435   21.1083 N   0  0  0  0  0  0  0  0  0  0  0  0
  -25.8324  -10.2264   19.1701 N   0  0  0  0  0  0  0  0  0  0  0  0
  -26.1597  -18.1838   22.8325 N   0  0  0  0  0  0  0  0  0  0  0  0
  -21.5382  -29.3989   22.3708 N   0  0  0  0  0  0  0  0  0  0  0  0
  -29.6716  -23.2125   21.0381 N   0  0  0  0  0  0  0  0  0  0  0  0
  -22.2122  -30.7222   15.9809 N   0  0  0  0  0  0  0  0  0  0  0  0
  -24.9701  -32.1801   14.1544 N   0  3  0  0  0  0  0  0  0  0  0  0
  -27.3791  -11.9049   18.9488 O   0  0  0  0  0  0  0  0  0  0  0  0
  -22.2015  -27.7714   20.8432 O   0  0  0  0  0  0  0  0  0  0  0  0
  -21.2237  -31.1296   18.6391 O   0  0  0  0  0  0  0  0  0  0  0  0
  -28.5735  -23.3875   18.9955 O   0  0  0  0  0  0  0  0  0  0  0  0
  -24.1264  -29.6953   15.1695 O   0  0  0  0  0  0  0  0  0  0  0  0
  -25.9916  -18.7070   25.0863 O   0  0  0  0  0  0  0  0  0  0  0  0
  -21.7767   -6.9959   21.2073 O   0  0  0  0  0  0  0  0  0  0  0  0
  -27.8968  -25.9631   19.4364 O   0  0  0  0  0  0  0  0  0  1  0  0
  -21.1169   -3.7362   25.6054 F   0  0  0  0  0  0  0  0  0  0  0  0
  -28.4526  -20.3021   19.1878 F   0  0  0  0  0  0  0  0  0  0  0  0
  -22.5246   -4.3357   21.1260 F   0  0  0  0  0  0  0  0  0  0  0  0
  1  2  1  0  0  0  0
  1  5  2  0  0  0  0
  2  6  2  0  0  0  0
  3 10  2  0  0  0  0
  3 18  1  0  0  0  0
  4 11  1  0  0  0  0
  4 18  2  0  0  0  0
  5 20  1  0  0  0  0
  6 22  1  0  0  0  0
  7 12  2  0  0  0  0
  7 21  1  0  0  0  0
  8  9  2  0  0  0  0
  8 24  1  0  0  0  0
  9 25  1  0  0  0  0
 10 26  1  0  0  0  0
 11 26  2  0  0  0  0
 12 27  1  0  0  0  0
 13 14  2  0  0  0  0
 13 28  1  0  0  0  0
 14 29  1  0  0  0  0
 15 23  1  0  0  0  0
 15 27  2  0  0  0  0
 16 25  2  0  0  0  0
 16 30  1  0  0  0  0
 17 29  2  0  0  0  0
 17 31  1  0  0  0  0
 18 32  1  0  0  0  0
 19 32  1  0  0  0  0
 19 33  2  0  0  0  0
 19 34  1  0  0  0  0
 20 22  2  0  0  0  0
 20 40  1  0  0  0  0
 21 23  2  0  0  0  0
 21 41  1  0  0  0  0
 22 49  1  0  0  0  0
 23 42  1  0  0  0  0
 24 30  2  0  0  0  0
 24 57  1  0  0  0  0
 25 68  1  0  0  0  0
 26 79  1  0  0  0  0
 27 80  1  0  0  0  0
 28 31  2  0  0  0  0
 28 79  1  0  0  0  0
 29 81  1  0  0  0  0
 30 82  1  0  0  0  0
 31 83  1  0  0  0  0
 32 62  2  0  0  0  0
 33 63  1  0  0  0  0
 33 66  1  0  0  0  0
 34 67  1  0  0  0  0
 34 73  2  0  0  0  0
 35 50  1  0  0  0  0
 35 69  1  0  0  0  0
 35 74  2  0  0  0  0
 36 59  1  0  0  0  0
 36 64  1  0  0  0  0
 36 75  2  0  0  0  0
 37 58  1  0  0  0  0
 37 70  1  0  0  0  0
 37 76  2  0  0  0  0
 38 60  1  0  0  0  0
 38 71  1  0  0  0  0
 38 77  2  0  0  0  0
 39 65  1  0  0  0  0
 39 68  1  0  0  0  0
 39 78  2  0  0  0  0
 40 43  1  0  0  0  0
 41 50  1  0  0  0  0
 42 64  1  0  0  0  0
 43 45  1  0  0  0  0
 44 46  1  0  0  0  0
 44 47  1  0  0  0  0
 45 49  1  0  0  0  0
 46 51  1  0  0  0  0
 47 65  1  0  0  0  0
 48 51  1  0  0  0  0
 48 65  1  0  0  0  0
 49 69  1  0  0  0  0
 50 64  1  0  0  0  0
 51 63  1  0  0  0  0
 52 60  1  0  0  0  0
 53 61  1  0  0  0  0
 54 61  1  0  0  0  0
 55 61  1  0  0  0  0
 56 72  1  0  0  0  0
 57 70  1  0  0  0  0
 58 80  1  0  0  0  0
 59 61  1  0  0  0  0
 59 71  1  0  0  0  0
 60 72  1  0  0  0  0
 62 63  1  0  0  0  0
M  CHG  1  72   1
M  ISO  4  39 100  58 101  68 100  80 101
M  END
> <Batch ID>
0050

> <Smiles>
CNC(C)C(=O)NC(C(=O)N1Cc2cc([101O:1][101CH2:1]C(=O)NCc3ccc([100NH:0][100C:0](=O)N4CCCC(n5nc(-c6ccc(Oc7ccc(F)cc7F)cc6)c(C(N)=O)c5N)C4)cc3F)ccc2CC1C(=O)NC1CCCc2ccccc21)C(C)(C)C

> <Shape>
0.256

> <Color>
0.119

> <Negative vol penalty>
0.000

$$$$

  -OEChem-04042322353D

 86 94  0     1  0  0  0  0  0999 V2000
  -17.7363  -25.9850   23.0239 C   0  0  0  0  0  0  0  0  0  0  0  0
  -18.8072  -25.8614   22.1446 C   0  0  0  0  0  0  0  0  0  0  0  0
  -27.1806  -14.5929   21.9151 C   0  0  0  0  0  0  0  0  0  0  0  0
  -26.2919  -14.9861   19.7031 C   0  0  0  0  0  0  0  0  0  0  0  0
  -17.3531  -27.2451   23.4812 C   0  0  0  0  0  0  0  0  0  0  0  0
  -19.4950  -26.9982   21.7213 C   0  0  0  0  0  0  0  0  0  0  0  0
  -25.4828  -27.4422   20.5150 C   0  0  0  0  0  0  0  0  0  0  0  0
  -26.8826  -13.2357   21.7936 C   0  0  0  0  0  0  0  0  0  0  0  0
  -25.9940  -13.6288   19.5816 C   0  0  0  0  0  0  0  0  0  0  0  0
  -26.2048  -27.4041   19.3230 C   0  0  0  0  0  0  0  0  0  0  0  0
  -24.6701  -10.3284   18.8302 C   0  0  0  0  0  0  0  0  0  0  0  0
  -23.4209   -9.9825   18.3153 C   0  0  0  0  0  0  0  0  0  0  0  0
  -26.1961  -29.8152   19.2477 C   0  0  0  0  0  0  0  0  0  0  0  0
  -22.7592  -24.8672   16.3918 C   0  0  0  0  0  0  0  0  0  0  0  0
  -22.7614  -24.2878   18.7372 C   0  0  0  0  0  0  0  0  0  0  0  0
  -22.3465  -11.1518   20.1362 C   0  0  0  0  0  0  0  0  0  0  0  0
  -26.8852  -15.4681   20.8699 C   0  0  0  0  0  0  0  0  0  0  0  0
  -28.3890  -17.5145   20.6285 C   0  0  0  0  0  0  0  0  0  0  0  0
  -18.0426  -28.3970   23.0708 C   0  0  0  0  0  0  0  0  0  0  0  0
  -25.1019  -28.6689   21.0776 C   0  0  0  0  0  0  0  0  0  0  0  0
  -19.1198  -28.2750   22.1725 C   0  0  0  0  0  0  0  0  0  0  0  0
  -25.4715  -29.8662   20.4483 C   0  0  0  0  0  0  0  0  0  0  0  0
  -22.1932  -24.9714   17.6623 C   0  0  0  0  0  0  0  0  0  0  0  0
  -23.8935  -24.0793   16.1960 C   0  0  0  0  0  0  0  0  0  0  0  0
  -24.4618  -23.3956   17.2709 C   0  0  0  0  0  0  0  0  0  0  0  0
  -23.8958  -23.4999   18.5415 C   0  0  0  0  0  0  0  0  0  0  0  0
  -26.2893  -12.7536   20.6268 C   0  0  0  0  0  0  0  0  0  0  0  0
  -26.5591  -28.5906   18.6876 C   0  0  0  0  0  0  0  0  0  0  0  0
  -24.7577  -11.0860   19.9982 C   0  0  0  0  0  0  0  0  0  0  0  0
  -22.2590  -10.3942   18.9682 C   0  0  0  0  0  0  0  0  0  0  0  0
  -23.5959  -11.4977   20.6512 C   0  0  0  0  0  0  0  0  0  0  0  0
  -27.1922  -16.8703   20.9951 C   0  0  0  0  0  0  0  0  0  0  0  0
  -28.1798  -18.8343   20.9463 C   0  0  0  0  0  0  0  0  0  0  0  0
  -29.5831  -16.9688   20.0523 C   0  0  0  0  0  0  0  0  0  0  0  0
  -22.3254  -30.0632   21.7488 C   0  0  0  0  0  0  0  0  0  0  0  0
  -24.2272  -32.3063   23.1178 C   0  0  0  0  0  0  0  0  0  0  0  0
  -25.6655  -26.1051   14.3254 C   0  0  0  0  0  0  0  0  0  0  0  0
  -27.2898  -33.8040   23.2741 C   0  0  0  0  0  0  0  0  0  0  0  0
  -24.0048  -22.8254   20.9663 C   0  0  0  0  0  0  0  0  0  0  0  0
  -17.5618  -29.7420   23.5550 C   0  0  0  0  0  0  0  0  0  0  0  0
  -24.3463  -28.6936   22.3779 C   0  0  0  0  0  0  0  0  0  0  0  0
  -25.1045  -31.2097   21.0218 C   0  0  0  0  0  0  0  0  0  0  0  0
  -18.5792  -30.8618   23.3520 C   0  0  0  0  0  0  0  0  0  0  0  0
  -25.0887  -21.2440   23.9665 C   0  0  0  0  0  0  0  0  0  0  0  0
  -19.1637  -30.8032   21.9442 C   0  0  0  0  0  0  0  0  0  0  0  0
  -25.8590  -20.0175   23.4720 C   0  0  0  0  0  0  0  0  0  0  0  0
  -23.8735  -21.5418   23.0900 C   0  0  0  0  0  0  0  0  0  0  0  0
  -24.9278  -20.4324   21.1595 C   0  0  0  0  0  0  0  0  0  0  0  0
  -19.9063  -29.4822   21.7097 C   0  0  1  0  0  0  0  0  0  0  0  0
  -23.5670  -29.9875   22.5917 C   0  0  1  0  0  0  0  0  0  0  0  0
  -26.1974  -20.1314   21.9726 C   0  0  2  0  0  0  0  0  0  0  0  0
  -20.9796  -25.8126   17.8713 C   0  0  0  0  0  0  0  0  0  0  0  0
  -25.6783  -22.5508   17.0553 C   0  0  0  0  0  0  0  0  0  0  0  0
  -28.5299  -35.6325   24.4640 C   0  0  0  0  0  0  0  0  0  0  0  0
  -22.7797  -34.3887   21.4212 C   0  0  0  0  0  0  0  0  0  0  0  0
  -24.6416  -35.9868   21.9190 C   0  0  0  0  0  0  0  0  0  0  0  0
  -23.2351  -35.0956   23.7765 C   0  0  0  0  0  0  0  0  0  0  0  0
  -29.2574  -31.8986   24.3952 C   0  0  0  0  0  0  0  0  0  0  0  0
  -24.4816  -23.9828   14.8180 C   0  0  0  0  0  0  0  0  0  0  0  0
  -27.0648  -26.6911   14.2643 C   0  0  0  0  0  0  0  0  0  0  0  0
  -27.2511  -27.8572   15.2284 C   0  0  0  0  0  0  0  0  0  0  0  0
  -27.0615  -27.4265   16.6756 C   0  0  0  0  0  0  0  0  0  1  0  0
  -24.9022  -33.5702   22.6424 C   0  0  1  0  0  0  0  0  0  0  0  0
  -28.1818  -34.1522   24.4520 C   0  0  2  0  0  0  0  0  0  0  0  0
  -23.8950  -34.7351   22.4277 C   0  0  0  0  0  0  0  0  0  0  0  0
  -26.2896  -17.7115   21.5067 N   0  0  0  0  0  0  0  0  0  0  0  0
  -26.9196  -18.8978   21.4640 N   0  0  0  0  0  0  0  0  0  0  0  0
  -24.3602  -31.1812   22.2917 N   0  0  0  0  0  0  0  0  0  0  0  0
  -24.2710  -21.6401   21.6839 N   0  0  0  0  0  0  0  0  0  0  0  0
  -28.9528  -19.9350   20.8306 N   0  0  0  0  0  0  0  0  0  0  0  0
  -29.6297  -15.5928   19.7898 N   0  0  0  0  0  0  0  0  0  0  0  0
  -24.4576  -22.8149   19.6474 N   0  0  0  0  0  0  0  0  0  0  0  0
  -21.2064  -29.5137   22.3449 N   0  0  0  0  0  0  0  0  0  0  0  0
  -25.6872  -24.7665   14.6890 N   0  0  0  0  0  0  0  0  0  0  0  0
  -25.9539  -33.8604   23.6109 N   0  0  0  0  0  0  0  0  0  0  0  0
  -29.4499  -33.3717   24.3900 N   0  3  0  0  0  0  0  0  0  0  0  0
  -30.5852  -17.6775   19.7935 O   0  0  0  0  0  0  0  0  0  0  0  0
  -22.3784  -30.5831   20.6404 O   0  0  0  0  0  0  0  0  0  0  0  0
  -23.6110  -32.3150   24.1863 O   0  0  0  0  0  0  0  0  0  0  0  0
  -24.6514  -26.7529   14.0804 O   0  0  0  0  0  0  0  0  0  0  0  0
  -27.7335  -33.5148   22.1651 O   0  0  0  0  0  0  0  0  0  0  0  0
  -23.4426  -23.7897   21.4916 O   0  0  0  0  0  0  0  0  0  0  0  0
  -25.9987  -11.4293   20.5078 O   0  0  0  0  0  0  0  0  0  0  0  0
  -27.2633  -28.5563   17.5236 O   0  0  0  0  0  0  0  0  0  1  0  0
  -21.0594  -10.0632   18.4728 F   0  0  0  0  0  0  0  0  0  0  0  0
  -23.6736  -12.2267   21.7729 F   0  0  0  0  0  0  0  0  0  0  0  0
  1  2  1  0  0  0  0
  1  5  2  0  0  0  0
  2  6  2  0  0  0  0
  3  8  2  0  0  0  0
  3 17  1  0  0  0  0
  4  9  1  0  0  0  0
  4 17  2  0  0  0  0
  5 19  1  0  0  0  0
  6 21  1  0  0  0  0
  7 10  2  0  0  0  0
  7 20  1  0  0  0  0
  8 27  1  0  0  0  0
  9 27  2  0  0  0  0
 10 28  1  0  0  0  0
 11 12  2  0  0  0  0
 11 29  1  0  0  0  0
 12 30  1  0  0  0  0
 13 22  1  0  0  0  0
 13 28  2  0  0  0  0
 14 23  2  0  0  0  0
 14 24  1  0  0  0  0
 15 23  1  0  0  0  0
 15 26  2  0  0  0  0
 16 30  2  0  0  0  0
 16 31  1  0  0  0  0
 17 32  1  0  0  0  0
 18 32  1  0  0  0  0
 18 33  2  0  0  0  0
 18 34  1  0  0  0  0
 19 21  2  0  0  0  0
 19 40  1  0  0  0  0
 20 22  2  0  0  0  0
 20 41  1  0  0  0  0
 21 49  1  0  0  0  0
 22 42  1  0  0  0  0
 23 52  1  0  0  0  0
 24 25  2  0  0  0  0
 24 59  1  0  0  0  0
 25 26  1  0  0  0  0
 25 53  1  0  0  0  0
 26 72  1  0  0  0  0
 27 83  1  0  0  0  0
 28 84  1  0  0  0  0
 29 31  2  0  0  0  0
 29 83  1  0  0  0  0
 30 85  1  0  0  0  0
 31 86  1  0  0  0  0
 32 66  2  0  0  0  0
 33 67  1  0  0  0  0
 33 70  1  0  0  0  0
 34 71  1  0  0  0  0
 34 77  2  0  0  0  0
 35 50  1  0  0  0  0
 35 73  1  0  0  0  0
 35 78  2  0  0  0  0
 36 63  1  0  0  0  0
 36 68  1  0  0  0  0
 36 79  2  0  0  0  0
 37 60  1  0  0  0  0
 37 74  1  0  0  0  0
 37 80  2  0  0  0  0
 38 64  1  0  0  0  0
 38 75  1  0  0  0  0
 38 81  2  0  0  0  0
 39 69  1  0  0  0  0
 39 72  1  0  0  0  0
 39 82  2  0  0  0  0
 40 43  1  0  0  0  0
 41 50  1  0  0  0  0
 42 68  1  0  0  0  0
 43 45  1  0  0  0  0
 44 46  1  0  0  0  0
 44 47  1  0  0  0  0
 45 49  1  0  0  0  0
 46 51  1  0  0  0  0
 47 69  1  0  0  0  0
 48 51  1  0  0  0  0
 48 69  1  0  0  0  0
 49 73  1  0  0  0  0
 50 68  1  0  0  0  0
 51 67  1  0  0  0  0
 54 64  1  0  0  0  0
 55 65  1  0  0  0  0
 56 65  1  0  0  0  0
 57 65  1  0  0  0  0
 58 76  1  0  0  0  0
 59 74  1  0  0  0  0
 60 61  1  0  0  0  0
 61 62  1  0  0  0  0
 62 84  1  0  0  0  0
 63 65  1  0  0  0  0
 63 75  1  0  0  0  0
 64 76  1  0  0  0  0
 66 67  1  0  0  0  0
M  CHG  1  76   1
M  ISO  4  39 100  62 101  72 100  84 101
M  END
> <Batch ID>
0050

> <Smiles>
CNC(C)C(=O)NC(C(=O)N1Cc2cc([101O:1][101CH2:1]CCC(=O)NCc3cc(C)cc([100NH:0][100C:0](=O)N4CCCC(n5nc(-c6ccc(Oc7ccc(F)cc7F)cc6)c(C(N)=O)c5N)C4)c3C)ccc2CC1C(=O)NC1CCCc2ccccc21)C(C)(C)C

> <Shape>
0.233

> <Color>
0.132

> <Negative vol penalty>
0.000

$$$$

  -OEChem-04042322353D

 87 95  0     1  0  0  0  0  0999 V2000
  -28.9626  -18.6949   14.7923 C   0  0  0  0  0  0  0  0  0  0  0  0
  -29.2955  -17.6001   15.5818 C   0  0  0  0  0  0  0  0  0  0  0  0
  -22.7157  -29.7358   21.3760 C   0  0  0  0  0  0  0  0  0  0  0  0
  -23.8989  -28.4902   23.0746 C   0  0  0  0  0  0  0  0  0  0  0  0
  -27.9052  -19.4537   19.9611 C   0  0  0  0  0  0  0  0  0  0  0  0
  -27.6589  -19.1863   14.8028 C   0  0  0  0  0  0  0  0  0  0  0  0
  -28.3221  -16.9889   16.3730 C   0  0  0  0  0  0  0  0  0  0  0  0
  -29.5966  -12.8284   18.6685 C   0  0  0  0  0  0  0  0  0  0  0  0
  -27.6274  -20.6443   19.2898 C   0  0  0  0  0  0  0  0  0  0  0  0
  -21.6677  -29.9583   22.2691 C   0  0  0  0  0  0  0  0  0  0  0  0
  -22.8509  -28.7127   23.9678 C   0  0  0  0  0  0  0  0  0  0  0  0
  -30.4674  -12.8045   19.7571 C   0  0  0  0  0  0  0  0  0  0  0  0
  -19.0240  -28.2385   23.4846 C   0  0  0  0  0  0  0  0  0  0  0  0
  -17.7234  -28.0557   23.0150 C   0  0  0  0  0  0  0  0  0  0  0  0
  -28.5917  -12.4988   21.2430 C   0  0  0  0  0  0  0  0  0  0  0  0
  -28.2988  -21.9011   21.2409 C   0  0  0  0  0  0  0  0  0  0  0  0
  -17.2169  -30.3635   23.5193 C   0  0  0  0  0  0  0  0  0  0  0  0
  -23.8313  -29.0017   21.7787 C   0  0  0  0  0  0  0  0  0  0  0  0
  -28.3798  -19.4866   21.2724 C   0  0  0  0  0  0  0  0  0  0  0  0
  -26.0493  -29.5797   20.6588 C   0  0  0  0  0  0  0  0  0  0  0  0
  -26.6727  -18.5880   15.6043 C   0  0  0  0  0  0  0  0  0  0  0  0
  -28.2136  -12.6984   18.8603 C   0  0  0  0  0  0  0  0  0  0  0  0
  -26.9951  -17.4553   16.3791 C   0  0  0  0  0  0  0  0  0  0  0  0
  -27.7058  -12.5188   20.1549 C   0  0  0  0  0  0  0  0  0  0  0  0
  -28.5766  -20.7103   21.9123 C   0  0  0  0  0  0  0  0  0  0  0  0
  -27.8242  -21.8680   19.9297 C   0  0  0  0  0  0  0  0  0  0  0  0
  -21.7353  -29.4468   23.5650 C   0  0  0  0  0  0  0  0  0  0  0  0
  -29.9647  -12.6426   21.0449 C   0  0  0  0  0  0  0  0  0  0  0  0
  -19.4211  -29.4838   23.9717 C   0  0  0  0  0  0  0  0  0  0  0  0
  -16.8198  -29.1182   23.0323 C   0  0  0  0  0  0  0  0  0  0  0  0
  -18.5175  -30.5463   23.9890 C   0  0  0  0  0  0  0  0  0  0  0  0
  -24.9140  -28.7711   20.8564 C   0  0  0  0  0  0  0  0  0  0  0  0
  -26.7674  -28.9311   19.6841 C   0  0  0  0  0  0  0  0  0  0  0  0
  -28.6635  -18.2157   21.9521 C   0  0  0  0  0  0  0  0  0  0  0  0
  -26.4215  -30.8074   21.2991 C   0  0  0  0  0  0  0  0  0  0  0  0
  -29.8429  -17.5651   21.9361 C   0  0  0  0  0  0  0  0  0  0  0  0
  -29.8822  -16.2751   22.7104 C   0  0  0  0  0  0  0  0  0  0  0  0
  -25.6875  -14.5434   18.2959 C   0  0  0  0  0  0  0  0  0  0  0  0
  -24.0429  -11.9108   19.2376 C   0  0  0  0  0  0  0  0  0  0  0  0
  -24.0136   -8.9912   21.0045 C   0  0  0  0  0  0  0  0  0  0  0  0
  -27.0599  -23.2212   17.9470 C   0  0  0  0  0  0  0  0  0  0  0  0
  -25.2756  -19.1559   15.5716 C   0  0  0  0  0  0  0  0  0  0  0  0
  -27.2900  -12.6994   17.6732 C   0  0  0  0  0  0  0  0  0  0  0  0
  -26.2310  -12.3546   20.4126 C   0  0  0  0  0  0  0  0  0  0  0  0
  -24.4311  -18.7263   16.7668 C   0  0  0  0  0  0  0  0  0  0  0  0
  -26.1972  -26.0211   15.9236 C   0  0  0  0  0  0  0  0  0  0  0  0
  -24.5215  -17.2189   16.9521 C   0  0  0  0  0  0  0  0  0  0  0  0
  -25.8795  -27.1194   16.9409 C   0  0  0  0  0  0  0  0  0  0  0  0
  -25.7314  -24.6487   16.4066 C   0  0  0  0  0  0  0  0  0  0  0  0
  -25.8909  -25.3637   18.7587 C   0  0  0  0  0  0  0  0  0  0  0  0
  -25.9603  -16.7933   17.2710 C   0  0  1  0  0  0  0  0  0  0  0  0
  -25.8554  -13.0737   18.0326 C   0  0  1  0  0  0  0  0  0  0  0  0
  -26.3995  -26.7544   18.3452 C   0  0  2  0  0  0  0  0  0  0  0  0
  -29.0842  -20.7839   23.3164 C   0  0  0  0  0  0  0  0  0  0  0  0
  -31.0981  -18.0570   21.2737 C   0  0  0  0  0  0  0  0  0  0  0  0
  -22.5144   -7.0744   21.6172 C   0  0  0  0  0  0  0  0  0  0  0  0
  -22.6000  -13.6875   21.2554 C   0  0  0  0  0  0  0  0  0  0  0  0
  -21.8523  -11.6135   22.4419 C   0  0  0  0  0  0  0  0  0  0  0  0
  -21.1345  -12.0300   20.0894 C   0  0  0  0  0  0  0  0  0  0  0  0
  -25.7910   -7.0276   19.6840 C   0  0  0  0  0  0  0  0  0  0  0  0
  -32.4166  -13.8714   23.3812 C   0  0  0  0  0  0  0  0  0  0  0  0
  -31.3659  -14.7743   24.0132 C   0  0  0  0  0  0  0  0  0  0  0  0
  -32.0171  -13.3760   21.9965 C   0  0  0  0  0  0  0  0  0  1  0  0
  -23.5336  -11.3837   20.5573 C   0  0  1  0  0  0  0  0  0  0  0  0
  -23.5512   -7.5938   20.6334 C   0  0  2  0  0  0  0  0  0  0  0  0
  -22.3078  -12.1837   21.0817 C   0  0  0  0  0  0  0  0  0  0  0  0
  -24.9069  -27.6913   20.0702 N   0  0  0  0  0  0  0  0  0  0  0  0
  -26.0465  -27.8169   19.3691 N   0  0  0  0  0  0  0  0  0  0  0  0
  -25.3679  -12.3687   19.2199 N   0  0  0  0  0  0  0  0  0  0  0  0
  -26.2662  -24.3695   17.7411 N   0  0  0  0  0  0  0  0  0  0  0  0
  -27.9389  -29.2108   19.0742 N   0  0  0  0  0  0  0  0  0  0  0  0
  -25.5693  -31.3351   22.2787 N   0  0  0  0  0  0  0  0  0  0  0  0
  -27.5393  -23.0774   19.2486 N   0  0  0  0  0  0  0  0  0  0  0  0
  -31.1280  -15.9613   23.2393 N   0  0  0  0  0  0  0  0  0  0  0  0
  -26.0452  -15.3500   17.2324 N   0  0  0  0  0  0  0  0  0  0  0  0
  -23.2778   -9.9614   20.3575 N   0  0  0  0  0  0  0  0  0  0  0  0
  -24.7055   -6.6512   20.6257 N   0  3  0  0  0  0  0  0  0  0  0  0
  -27.4703  -31.4268   20.9995 O   0  0  0  0  0  0  0  0  0  0  0  0
  -28.8798  -15.5772   22.8524 O   0  0  0  0  0  0  0  0  0  0  0  0
  -25.2635  -14.9179   19.3829 O   0  0  0  0  0  0  0  0  0  0  0  0
  -23.2949  -11.9094   18.2566 O   0  0  0  0  0  0  0  0  0  0  0  0
  -24.9330   -9.2013   21.7927 O   0  0  0  0  0  0  0  0  0  0  0  0
  -27.3193  -22.4386   17.0293 O   0  0  0  0  0  0  0  0  0  0  0  0
  -20.7129  -29.6639   24.4369 O   0  0  0  0  0  0  0  0  0  0  0  0
  -30.8123  -12.6196   22.1092 O   0  0  0  0  0  0  0  0  0  1  0  0
  -15.5714  -28.9429   22.5798 F   0  0  0  0  0  0  0  0  0  0  0  0
  -18.8935  -31.7453   24.4546 F   0  0  0  0  0  0  0  0  0  0  0  0
  1  2  1  0  0  0  0
  1  6  2  0  0  0  0
  2  7  2  0  0  0  0
  3 10  2  0  0  0  0
  3 18  1  0  0  0  0
  4 11  1  0  0  0  0
  4 18  2  0  0  0  0
  5  9  2  0  0  0  0
  5 19  1  0  0  0  0
  6 21  1  0  0  0  0
  7 23  1  0  0  0  0
  8 12  2  0  0  0  0
  8 22  1  0  0  0  0
  9 26  1  0  0  0  0
 10 27  1  0  0  0  0
 11 27  2  0  0  0  0
 12 28  1  0  0  0  0
 13 14  2  0  0  0  0
 13 29  1  0  0  0  0
 14 30  1  0  0  0  0
 15 24  1  0  0  0  0
 15 28  2  0  0  0  0
 16 25  1  0  0  0  0
 16 26  2  0  0  0  0
 17 30  2  0  0  0  0
 17 31  1  0  0  0  0
 18 32  1  0  0  0  0
 19 25  2  0  0  0  0
 19 34  1  0  0  0  0
 20 32  1  0  0  0  0
 20 33  2  0  0  0  0
 20 35  1  0  0  0  0
 21 23  2  0  0  0  0
 21 42  1  0  0  0  0
 22 24  2  0  0  0  0
 22 43  1  0  0  0  0
 23 51  1  0  0  0  0
 24 44  1  0  0  0  0
 25 54  1  0  0  0  0
 26 73  1  0  0  0  0
 27 84  1  0  0  0  0
 28 85  1  0  0  0  0
 29 31  2  0  0  0  0
 29 84  1  0  0  0  0
 30 86  1  0  0  0  0
 31 87  1  0  0  0  0
 32 67  2  0  0  0  0
 33 68  1  0  0  0  0
 33 71  1  0  0  0  0
 34 36  2  0  0  0  0
 35 72  1  0  0  0  0
 35 78  2  0  0  0  0
 36 37  1  0  0  0  0
 36 55  1  0  0  0  0
 37 74  1  0  0  0  0
 37 79  2  0  0  0  0
 38 52  1  0  0  0  0
 38 75  1  0  0  0  0
 38 80  2  0  0  0  0
 39 64  1  0  0  0  0
 39 69  1  0  0  0  0
 39 81  2  0  0  0  0
 40 65  1  0  0  0  0
 40 76  1  0  0  0  0
 40 82  2  0  0  0  0
 41 70  1  0  0  0  0
 41 73  1  0  0  0  0
 41 83  2  0  0  0  0
 42 45  1  0  0  0  0
 43 52  1  0  0  0  0
 44 69  1  0  0  0  0
 45 47  1  0  0  0  0
 46 48  1  0  0  0  0
 46 49  1  0  0  0  0
 47 51  1  0  0  0  0
 48 53  1  0  0  0  0
 49 70  1  0  0  0  0
 50 53  1  0  0  0  0
 50 70  1  0  0  0  0
 51 75  1  0  0  0  0
 52 69  1  0  0  0  0
 53 68  1  0  0  0  0
 56 65  1  0  0  0  0
 57 66  1  0  0  0  0
 58 66  1  0  0  0  0
 59 66  1  0  0  0  0
 60 77  1  0  0  0  0
 61 62  1  0  0  0  0
 61 63  1  0  0  0  0
 62 74  1  0  0  0  0
 63 85  1  0  0  0  0
 64 66  1  0  0  0  0
 64 76  1  0  0  0  0
 65 77  1  0  0  0  0
 67 68  1  0  0  0  0
M  CHG  1  77   1
M  ISO  4  41 100  63 101  73 100  85 101
M  END
> <Batch ID>
0050

> <Smiles>
CNC(C)C(=O)NC(C(=O)N1Cc2cc([101O:1][101CH2:1]CCNC(=O)C(C)=Cc3ccc([100NH:0][100C:0](=O)N4CCCC(n5nc(-c6ccc(Oc7ccc(F)cc7F)cc6)c(C(N)=O)c5N)C4)cc3C)ccc2CC1C(=O)NC1CCCc2ccccc21)C(C)(C)C

> <Shape>
0.298

> <Color>
0.055

> <Negative vol penalty>
0.000

$$$$

  -OEChem-04042322353D

 85 93  0     1  0  0  0  0  0999 V2000
  -29.0237  -11.5940   19.1692 C   0  0  0  0  0  0  0  0  0  0  0  0
  -29.0118  -12.9748   18.9999 C   0  0  0  0  0  0  0  0  0  0  0  0
  -32.0944  -29.3380   19.5645 C   0  0  0  0  0  0  0  0  0  0  0  0
  -20.2271  -27.8339   23.9314 C   0  0  0  0  0  0  0  0  0  0  0  0
  -20.7238  -27.3960   21.6079 C   0  0  0  0  0  0  0  0  0  0  0  0
  -27.8899  -10.9424   19.6527 C   0  0  0  0  0  0  0  0  0  0  0  0
  -27.8656  -13.7047   19.3129 C   0  0  0  0  0  0  0  0  0  0  0  0
  -28.8978  -17.9136   21.9329 C   0  0  0  0  0  0  0  0  0  0  0  0
  -32.3405  -27.9757   19.3937 C   0  0  0  0  0  0  0  0  0  0  0  0
  -31.0158  -29.7597   20.3421 C   0  0  0  0  0  0  0  0  0  0  0  0
  -18.8621  -27.7856   23.6487 C   0  0  0  0  0  0  0  0  0  0  0  0
  -19.3587  -27.3477   21.3252 C   0  0  0  0  0  0  0  0  0  0  0  0
  -29.3884  -19.0048   21.2173 C   0  0  0  0  0  0  0  0  0  0  0  0
  -16.8234  -25.1389   21.6630 C   0  0  0  0  0  0  0  0  0  0  0  0
  -16.3671  -24.0987   20.8535 C   0  0  0  0  0  0  0  0  0  0  0  0
  -27.1856  -19.9880   21.2178 C   0  0  0  0  0  0  0  0  0  0  0  0
  -15.5476  -25.7075   19.2481 C   0  0  0  0  0  0  0  0  0  0  0  0
  -21.1580  -27.6391   22.9109 C   0  0  0  0  0  0  0  0  0  0  0  0
  -23.3968  -26.6163   23.5813 C   0  0  0  0  0  0  0  0  0  0  0  0
  -26.7325  -11.6658   19.9809 C   0  0  0  0  0  0  0  0  0  0  0  0
  -27.5427  -17.8461   22.2875 C   0  0  0  0  0  0  0  0  0  0  0  0
  -26.7148  -13.0619   19.7999 C   0  0  0  0  0  0  0  0  0  0  0  0
  -26.6807  -18.8961   21.9401 C   0  0  0  0  0  0  0  0  0  0  0  0
  -31.5081  -27.0351   20.0002 C   0  0  0  0  0  0  0  0  0  0  0  0
  -30.1833  -28.8191   20.9486 C   0  0  0  0  0  0  0  0  0  0  0  0
  -18.4278  -27.5425   22.3457 C   0  0  0  0  0  0  0  0  0  0  0  0
  -28.5318  -20.0409   20.8571 C   0  0  0  0  0  0  0  0  0  0  0  0
  -16.6417  -26.4635   21.2651 C   0  0  0  0  0  0  0  0  0  0  0  0
  -15.7293  -24.3830   19.6460 C   0  0  0  0  0  0  0  0  0  0  0  0
  -16.0039  -26.7477   20.0576 C   0  0  0  0  0  0  0  0  0  0  0  0
  -30.4294  -27.4568   20.7777 C   0  0  0  0  0  0  0  0  0  0  0  0
  -22.5682  -27.6894   23.2022 C   0  0  0  0  0  0  0  0  0  0  0  0
  -24.6389  -27.1807   23.7395 C   0  0  0  0  0  0  0  0  0  0  0  0
  -23.0726  -25.2329   23.7732 C   0  0  0  0  0  0  0  0  0  0  0  0
  -25.1455  -15.8679   21.6211 C   0  0  0  0  0  0  0  0  0  0  0  0
  -23.5572  -17.6871   23.7868 C   0  0  0  0  0  0  0  0  0  0  0  0
  -29.9451  -23.8571   19.8382 C   0  0  0  0  0  0  0  0  0  0  0  0
  -23.2711  -20.6791   25.4032 C   0  0  0  0  0  0  0  0  0  0  0  0
  -28.7078  -30.5645   22.0083 C   0  0  0  0  0  0  0  0  0  0  0  0
  -25.5154  -10.9119   20.4555 C   0  0  0  0  0  0  0  0  0  0  0  0
  -27.0346  -16.6748   23.0827 C   0  0  0  0  0  0  0  0  0  0  0  0
  -25.2219  -18.8812   22.3143 C   0  0  0  0  0  0  0  0  0  0  0  0
  -24.4674  -11.8024   21.1180 C   0  0  0  0  0  0  0  0  0  0  0  0
  -26.0568  -32.0380   23.8732 C   0  0  0  0  0  0  0  0  0  0  0  0
  -24.2216  -13.0524   20.2790 C   0  0  0  0  0  0  0  0  0  0  0  0
  -24.9810  -30.9498   23.8961 C   0  0  0  0  0  0  0  0  0  0  0  0
  -26.8035  -32.0695   22.5409 C   0  0  0  0  0  0  0  0  0  0  0  0
  -26.2910  -29.6939   22.1371 C   0  0  0  0  0  0  0  0  0  0  0  0
  -25.4989  -13.8913   20.1518 C   0  0  1  0  0  0  0  0  0  0  0  0
  -25.5296  -16.4666   22.9446 C   0  0  1  0  0  0  0  0  0  0  0  0
  -25.5556  -29.5807   23.4825 C   0  0  2  0  0  0  0  0  0  0  0  0
  -21.8515  -21.8797   27.0886 C   0  0  0  0  0  0  0  0  0  0  0  0
  -21.3957  -18.0949   21.6721 C   0  0  0  0  0  0  0  0  0  0  0  0
  -20.5257  -20.0095   23.0307 C   0  0  0  0  0  0  0  0  0  0  0  0
  -20.5309  -17.7052   23.9861 C   0  0  0  0  0  0  0  0  0  0  0  0
  -30.3038  -25.3398   17.8522 C   0  0  0  0  0  0  0  0  0  0  0  0
  -25.5525  -21.0138   27.2584 C   0  0  0  0  0  0  0  0  0  0  0  0
  -31.7761  -25.5696   19.8144 C   0  0  0  0  0  0  0  0  0  0  0  0
  -28.7899  -23.2392   19.0572 C   0  0  0  0  0  0  0  0  0  0  0  0
  -28.0745  -22.1327   19.8219 C   0  0  0  0  0  0  0  0  0  1  0  0
  -22.7201  -18.9416   23.7203 C   0  0  1  0  0  0  0  0  0  0  0  0
  -23.0849  -21.0170   26.8714 C   0  0  2  0  0  0  0  0  0  0  0  0
  -21.3201  -18.6875   23.0934 C   0  0  0  0  0  0  0  0  0  0  0  0
  -23.2283  -28.8480   23.1244 N   0  0  0  0  0  0  0  0  0  0  0  0
  -24.4847  -28.5061   23.4569 N   0  0  0  0  0  0  0  0  0  0  0  0
  -24.7715  -17.7113   23.0864 N   0  0  0  0  0  0  0  0  0  0  0  0
  -27.3233  -30.7393   22.2163 N   0  0  0  0  0  0  0  0  0  0  0  0
  -25.8369  -26.6677   24.0915 N   0  0  0  0  0  0  0  0  0  0  0  0
  -21.7483  -24.8223   23.5683 N   0  0  0  0  0  0  0  0  0  0  0  0
  -29.0889  -29.2505   21.7385 N   0  0  0  0  0  0  0  0  0  0  0  0
  -25.7327  -14.6433   21.3659 N   0  0  0  0  0  0  0  0  0  0  0  0
  -22.6791  -19.4773   25.0767 N   0  0  0  0  0  0  0  0  0  0  0  0
  -30.6467  -24.8816   19.1930 N   0  0  0  0  0  0  0  0  0  0  0  0
  -24.2719  -21.7558   27.3874 N   0  3  0  0  0  0  0  0  0  0  0  0
  -23.9285  -24.3889   24.1321 O   0  0  0  0  0  0  0  0  0  0  0  0
  -24.3725  -16.4716   20.8865 O   0  0  0  0  0  0  0  0  0  0  0  0
  -23.1519  -16.7237   24.4420 O   0  0  0  0  0  0  0  0  0  0  0  0
  -30.2209  -23.4565   20.9720 O   0  0  0  0  0  0  0  0  0  0  0  0
  -23.8775  -21.4100   24.6231 O   0  0  0  0  0  0  0  0  0  0  0  0
  -29.5006  -31.5059   22.0921 O   0  0  0  0  0  0  0  0  0  0  0  0
  -17.0959  -27.4951   22.0695 O   0  0  0  0  0  0  0  0  0  0  0  0
  -29.0080  -21.1069   20.1579 O   0  0  0  0  0  0  0  0  0  1  0  0
  -15.2926  -23.3839   18.8680 F   0  0  0  0  0  0  0  0  0  0  0  0
  -15.8275  -28.0182   19.6695 F   0  0  0  0  0  0  0  0  0  0  0  0
  -29.6301  -26.5514   21.3619 F   0  0  0  0  0  0  0  0  0  0  0  0
  1  2  1  0  0  0  0
  1  6  2  0  0  0  0
  2  7  2  0  0  0  0
  3  9  2  0  0  0  0
  3 10  1  0  0  0  0
  4 11  2  0  0  0  0
  4 18  1  0  0  0  0
  5 12  1  0  0  0  0
  5 18  2  0  0  0  0
  6 20  1  0  0  0  0
  7 22  1  0  0  0  0
  8 13  2  0  0  0  0
  8 21  1  0  0  0  0
  9 24  1  0  0  0  0
 10 25  2  0  0  0  0
 11 26  1  0  0  0  0
 12 26  2  0  0  0  0
 13 27  1  0  0  0  0
 14 15  2  0  0  0  0
 14 28  1  0  0  0  0
 15 29  1  0  0  0  0
 16 23  1  0  0  0  0
 16 27  2  0  0  0  0
 17 29  2  0  0  0  0
 17 30  1  0  0  0  0
 18 32  1  0  0  0  0
 19 32  1  0  0  0  0
 19 33  2  0  0  0  0
 19 34  1  0  0  0  0
 20 22  2  0  0  0  0
 20 40  1  0  0  0  0
 21 23  2  0  0  0  0
 21 41  1  0  0  0  0
 22 49  1  0  0  0  0
 23 42  1  0  0  0  0
 24 31  2  0  0  0  0
 24 58  1  0  0  0  0
 25 31  1  0  0  0  0
 25 70  1  0  0  0  0
 26 81  1  0  0  0  0
 27 82  1  0  0  0  0
 28 30  2  0  0  0  0
 28 81  1  0  0  0  0
 29 83  1  0  0  0  0
 30 84  1  0  0  0  0
 31 85  1  0  0  0  0
 32 64  2  0  0  0  0
 33 65  1  0  0  0  0
 33 68  1  0  0  0  0
 34 69  1  0  0  0  0
 34 75  2  0  0  0  0
 35 50  1  0  0  0  0
 35 71  1  0  0  0  0
 35 76  2  0  0  0  0
 36 61  1  0  0  0  0
 36 66  1  0  0  0  0
 36 77  2  0  0  0  0
 37 59  1  0  0  0  0
 37 73  1  0  0  0  0
 37 78  2  0  0  0  0
 38 62  1  0  0  0  0
 38 72  1  0  0  0  0
 38 79  2  0  0  0  0
 39 67  1  0  0  0  0
 39 70  1  0  0  0  0
 39 80  2  0  0  0  0
 40 43  1  0  0  0  0
 41 50  1  0  0  0  0
 42 66  1  0  0  0  0
 43 45  1  0  0  0  0
 44 46  1  0  0  0  0
 44 47  1  0  0  0  0
 45 49  1  0  0  0  0
 46 51  1  0  0  0  0
 47 67  1  0  0  0  0
 48 51  1  0  0  0  0
 48 67  1  0  0  0  0
 49 71  1  0  0  0  0
 50 66  1  0  0  0  0
 51 65  1  0  0  0  0
 52 62  1  0  0  0  0
 53 63  1  0  0  0  0
 54 63  1  0  0  0  0
 55 63  1  0  0  0  0
 56 73  1  0  0  0  0
 57 74  1  0  0  0  0
 58 73  1  0  0  0  0
 59 60  1  0  0  0  0
 60 82  1  0  0  0  0
 61 63  1  0  0  0  0
 61 72  1  0  0  0  0
 62 74  1  0  0  0  0
 64 65  1  0  0  0  0
M  CHG  1  74   1
M  ISO  4  39 100  60 101  70 100  82 101
M  END
> <Batch ID>
0050

> <Smiles>
CNC(C)C(=O)NC(C(=O)N1Cc2cc([101O:1][101CH2:1]CC(=O)N(C)Cc3cccc([100NH:0][100C:0](=O)N4CCCC(n5nc(-c6ccc(Oc7ccc(F)cc7F)cc6)c(C(N)=O)c5N)C4)c3F)ccc2CC1C(=O)NC1CCCc2ccccc21)C(C)(C)C

> <Shape>
0.236

> <Color>
0.070

> <Negative vol penalty>
0.000

$$$$

  -OEChem-04042322353D

 88 97  0     1  0  0  0  0  0999 V2000
  -29.4970  -35.2793   23.5258 C   0  0  0  0  0  0  0  0  0  0  0  0
  -29.4740  -33.9076   23.2945 C   0  0  0  0  0  0  0  0  0  0  0  0
  -22.5826  -11.8968   22.6128 C   0  0  0  0  0  0  0  0  0  0  0  0
  -22.2314  -13.9600   21.4058 C   0  0  0  0  0  0  0  0  0  0  0  0
  -28.3477  -35.9287   23.9745 C   0  0  0  0  0  0  0  0  0  0  0  0
  -28.3020  -33.1844   23.5130 C   0  0  0  0  0  0  0  0  0  0  0  0
  -27.3013  -29.9284   19.7658 C   0  0  0  0  0  0  0  0  0  0  0  0
  -21.3107  -12.0087   23.1743 C   0  0  0  0  0  0  0  0  0  0  0  0
  -20.9594  -14.0719   21.9673 C   0  0  0  0  0  0  0  0  0  0  0  0
  -28.0247  -28.7367   19.7476 C   0  0  0  0  0  0  0  0  0  0  0  0
  -17.8939  -12.7386   21.4722 C   0  0  0  0  0  0  0  0  0  0  0  0
  -16.8417  -13.0867   20.6253 C   0  0  0  0  0  0  0  0  0  0  0  0
  -26.1509  -27.5911   20.7455 C   0  0  0  0  0  0  0  0  0  0  0  0
  -27.2887  -21.0878   16.6289 C   0  0  0  0  0  0  0  0  0  0  0  0
  -26.7978  -18.7591   17.0448 C   0  0  0  0  0  0  0  0  0  0  0  0
  -28.5006  -19.8843   18.3376 C   0  0  0  0  0  0  0  0  0  0  0  0
  -16.4264  -15.0620   21.9531 C   0  0  0  0  0  0  0  0  0  0  0  0
  -23.0430  -12.8724   21.7286 C   0  0  0  0  0  0  0  0  0  0  0  0
  -24.8415  -11.7111   20.3413 C   0  0  0  0  0  0  0  0  0  0  0  0
  -27.1583  -35.2147   24.1894 C   0  0  0  0  0  0  0  0  0  0  0  0
  -25.9990  -29.9627   20.2849 C   0  0  0  0  0  0  0  0  0  0  0  0
  -27.1361  -33.8247   23.9664 C   0  0  0  0  0  0  0  0  0  0  0  0
  -25.4122  -28.7839   20.7668 C   0  0  0  0  0  0  0  0  0  0  0  0
  -26.5575  -19.9365   16.3366 C   0  0  0  0  0  0  0  0  0  0  0  0
  -28.2603  -21.0617   17.6294 C   0  0  0  0  0  0  0  0  0  0  0  0
  -27.7694  -18.7330   18.0454 C   0  0  0  0  0  0  0  0  0  0  0  0
  -20.4991  -13.0963   22.8515 C   0  0  0  0  0  0  0  0  0  0  0  0
  -27.4506  -27.5684   20.2402 C   0  0  0  0  0  0  0  0  0  0  0  0
  -18.2124  -13.5522   22.5596 C   0  0  0  0  0  0  0  0  0  0  0  0
  -16.1079  -14.2483   20.8657 C   0  0  0  0  0  0  0  0  0  0  0  0
  -17.4786  -14.7139   22.8000 C   0  0  0  0  0  0  0  0  0  0  0  0
  -24.3570  -12.7577   21.1487 C   0  0  0  0  0  0  0  0  0  0  0  0
  -26.1344  -12.0720   20.0506 C   0  0  0  0  0  0  0  0  0  0  0  0
  -29.6641  -23.8081   19.7382 C   0  0  0  0  0  0  0  0  0  0  0  0
  -30.8460  -21.6270   22.4456 C   0  0  0  0  0  0  0  0  0  0  0  0
  -30.3664  -23.3607   20.7900 C   0  0  0  0  0  0  0  0  0  0  0  0
  -30.1453  -22.0726   21.3968 C   0  0  0  0  0  0  0  0  0  0  0  0
  -24.1817  -10.5193   19.8941 C   0  0  0  0  0  0  0  0  0  0  0  0
  -24.5871  -31.4670   22.7030 C   0  0  0  0  0  0  0  0  0  0  0  0
  -21.9036  -30.1459   21.4475 C   0  0  0  0  0  0  0  0  0  0  0  0
  -20.9445  -26.9648   20.0411 C   0  0  0  0  0  0  0  0  0  0  0  0
  -28.9410  -17.3407   19.7875 C   0  0  0  0  0  0  0  0  0  0  0  0
  -25.9546  -35.9524   24.7200 C   0  0  0  0  0  0  0  0  0  0  0  0
  -25.2222  -31.2506   20.2728 C   0  0  0  0  0  0  0  0  0  0  0  0
  -24.0099  -28.7633   21.3161 C   0  0  0  0  0  0  0  0  0  0  0  0
  -29.8996  -25.1564   19.1075 C   0  0  0  0  0  0  0  0  0  0  0  0
  -24.6490  -35.1761   24.5686 C   0  0  0  0  0  0  0  0  0  0  0  0
  -29.8183  -14.5604   21.8315 C   0  0  0  0  0  0  0  0  0  0  0  0
  -24.8305  -33.7320   25.0252 C   0  0  0  0  0  0  0  0  0  0  0  0
  -28.5636  -13.6844   21.8099 C   0  0  0  0  0  0  0  0  0  0  0  0
  -27.4863  -25.0438   18.3571 C   0  0  0  0  0  0  0  0  0  0  0  0
  -29.4712  -16.0481   21.8425 C   0  0  0  0  0  0  0  0  0  0  0  0
  -27.3065  -15.6052   20.7529 C   0  0  0  0  0  0  0  0  0  0  0  0
  -27.3192  -23.7322   19.1231 C   0  0  0  0  0  0  0  0  0  0  0  0
  -25.8770  -33.0098   24.1681 C   0  0  1  0  0  0  0  0  0  0  0  0
  -24.0920  -31.2763   21.2972 C   0  0  1  0  0  0  0  0  0  0  0  0
  -27.6060  -14.0992   20.6756 C   0  0  2  0  0  0  0  0  0  0  0  0
  -28.5862  -25.9232   18.9516 C   0  0  1  0  0  0  0  0  0  1  0  0
  -25.5188  -19.9645   15.2667 C   0  0  0  0  0  0  0  0  0  0  0  0
  -19.1625  -26.3904   18.3702 C   0  0  0  0  0  0  0  0  0  0  0  0
  -20.1780  -29.6091   23.9060 C   0  0  0  0  0  0  0  0  0  0  0  0
  -19.1825  -27.6570   22.6949 C   0  0  0  0  0  0  0  0  0  0  0  0
  -18.8955  -29.9632   21.7883 C   0  0  0  0  0  0  0  0  0  0  0  0
  -22.8883  -25.6282   18.2539 C   0  0  0  0  0  0  0  0  0  0  0  0
  -29.0466  -22.3002   17.9438 C   0  0  0  0  0  0  0  0  0  0  0  0
  -21.1594  -28.8471   21.6427 C   0  0  1  0  0  0  0  0  0  0  0  0
  -20.6421  -26.6699   18.5830 C   0  0  2  0  0  0  0  0  0  0  0  0
  -19.8820  -29.0209   22.5119 C   0  0  0  0  0  0  0  0  0  0  0  0
  -25.2681  -13.7118   21.3576 N   0  0  0  0  0  0  0  0  0  0  0  0
  -26.3380  -13.2661   20.6774 N   0  0  0  0  0  0  0  0  0  0  0  0
  -23.2933  -30.0490   21.2885 N   0  0  0  0  0  0  0  0  0  0  0  0
  -28.5645  -16.3681   20.7379 N   0  0  0  0  0  0  0  0  0  0  0  0
  -27.1057  -11.4812   19.3226 N   0  0  0  0  0  0  0  0  0  0  0  0
  -22.8530  -10.3044   20.2849 N   0  0  0  0  0  0  0  0  0  0  0  0
  -28.0135  -17.5370   18.7649 N   0  0  0  0  0  0  0  0  0  0  0  0
  -25.3100  -32.6293   22.8921 N   0  0  0  0  0  0  0  0  0  0  0  0
  -20.9059  -28.3171   20.3073 N   0  0  0  0  0  0  0  0  0  0  0  0
  -28.6156  -22.9629   19.2230 N   0  3  1  0  0  0  0  0  0  0  0  0
  -21.4157  -25.4818   18.1236 N   0  3  0  0  0  0  0  0  0  0  0  0
  -24.7587   -9.6621   19.1829 O   0  0  0  0  0  0  0  0  0  0  0  0
  -24.3308  -30.6228   23.5535 O   0  0  0  0  0  0  0  0  0  0  0  0
  -21.2743  -31.2067   21.4293 O   0  0  0  0  0  0  0  0  0  0  0  0
  -21.1868  -26.0833   20.8626 O   0  0  0  0  0  0  0  0  0  0  0  0
  -30.0199  -17.9346   19.8593 O   0  0  0  0  0  0  0  0  0  0  0  0
  -19.2578  -13.2057   23.3991 O   0  0  0  0  0  0  0  0  0  0  0  0
  -28.1547  -26.4040   20.2242 O   0  0  0  0  0  0  0  0  0  1  0  0
  -15.0985  -14.5833   20.0515 F   0  0  0  0  0  0  0  0  0  0  0  0
  -17.7806  -15.5001   23.8424 F   0  0  0  0  0  0  0  0  0  0  0  0
  1  2  1  0  0  0  0
  1  5  2  0  0  0  0
  2  6  2  0  0  0  0
  3  8  2  0  0  0  0
  3 18  1  0  0  0  0
  4  9  1  0  0  0  0
  4 18  2  0  0  0  0
  5 20  1  0  0  0  0
  6 22  1  0  0  0  0
  7 10  2  0  0  0  0
  7 21  1  0  0  0  0
  8 27  1  0  0  0  0
  9 27  2  0  0  0  0
 10 28  1  0  0  0  0
 11 12  2  0  0  0  0
 11 29  1  0  0  0  0
 12 30  1  0  0  0  0
 13 23  1  0  0  0  0
 13 28  2  0  0  0  0
 14 24  2  0  0  0  0
 14 25  1  0  0  0  0
 15 24  1  0  0  0  0
 15 26  2  0  0  0  0
 16 25  2  0  0  0  0
 16 26  1  0  0  0  0
 17 30  2  0  0  0  0
 17 31  1  0  0  0  0
 18 32  1  0  0  0  0
 19 32  1  0  0  0  0
 19 33  2  0  0  0  0
 19 38  1  0  0  0  0
 20 22  2  0  0  0  0
 20 43  1  0  0  0  0
 21 23  2  0  0  0  0
 21 44  1  0  0  0  0
 22 55  1  0  0  0  0
 23 45  1  0  0  0  0
 24 59  1  0  0  0  0
 25 65  1  0  0  0  0
 26 75  1  0  0  0  0
 27 85  1  0  0  0  0
 28 86  1  0  0  0  0
 29 31  2  0  0  0  0
 29 85  1  0  0  0  0
 30 87  1  0  0  0  0
 31 88  1  0  0  0  0
 32 69  2  0  0  0  0
 33 70  1  0  0  0  0
 33 73  1  0  0  0  0
 34 36  2  0  0  0  0
 34 46  1  0  0  0  0
 34 78  1  0  0  0  0
 35 37  2  0  0  0  0
 36 37  1  0  0  0  0
 38 74  1  0  0  0  0
 38 80  2  0  0  0  0
 39 56  1  0  0  0  0
 39 76  1  0  0  0  0
 39 81  2  0  0  0  0
 40 66  1  0  0  0  0
 40 71  1  0  0  0  0
 40 82  2  0  0  0  0
 41 67  1  0  0  0  0
 41 77  1  0  0  0  0
 41 83  2  0  0  0  0
 42 72  1  0  0  0  0
 42 75  1  0  0  0  0
 42 84  2  0  0  0  0
 43 47  1  0  0  0  0
 44 56  1  0  0  0  0
 45 71  1  0  0  0  0
 46 58  1  0  0  0  0
 47 49  1  0  0  0  0
 48 50  1  0  0  0  0
 48 52  1  0  0  0  0
 49 55  1  0  0  0  0
 50 57  1  0  0  0  0
 51 54  1  0  0  0  0
 51 58  1  0  0  0  0
 52 72  1  0  0  0  0
 53 57  1  0  0  0  0
 53 72  1  0  0  0  0
 54 78  1  0  0  0  0
 55 76  1  0  0  0  0
 56 71  1  0  0  0  0
 57 70  1  0  0  0  0
 58 86  1  0  0  0  0
 60 67  1  0  0  0  0
 61 68  1  0  0  0  0
 62 68  1  0  0  0  0
 63 68  1  0  0  0  0
 64 79  1  0  0  0  0
 65 78  1  0  0  0  0
 66 68  1  0  0  0  0
 66 77  1  0  0  0  0
 67 79  1  0  0  0  0
 69 70  1  0  0  0  0
M  CHG  2  78   1  79   1
M  ISO  4  42 100  58 101  75 100  86 101
M  END
> <Batch ID>
0050

> <Smiles>
C=CC=C1C[101CH:1]([101O:1]c2ccc3c(c2)CN(C(=O)C(NC(=O)C(C)NC)C(C)(C)C)C(C(=O)NC2CCCc4ccccc42)C3)CCN1Cc1cc(C)cc([100NH:0][100C:0](=O)N2CCCC(n3nc(-c4ccc(Oc5ccc(F)cc5F)cc4)c(C(N)=O)c3N)C2)c1

> <Shape>
0.307

> <Color>
0.079

> <Negative vol penalty>
0.000

$$$$

  -OEChem-04042322353D

 92101  0     1  0  0  0  0  0999 V2000
  -27.8604  -10.3187   21.4334 C   0  0  0  0  0  0  0  0  0  0  0  0
  -28.4389  -11.2484   20.5753 C   0  0  0  0  0  0  0  0  0  0  0  0
  -17.2486  -26.1140   19.9931 C   0  0  0  0  0  0  0  0  0  0  0  0
  -19.5991  -26.1404   19.4346 C   0  0  0  0  0  0  0  0  0  0  0  0
  -26.5044  -10.4088   21.7452 C   0  0  0  0  0  0  0  0  0  0  0  0
  -27.6614  -12.2682   20.0275 C   0  0  0  0  0  0  0  0  0  0  0  0
  -29.3169  -19.1921   21.1278 C   0  0  0  0  0  0  0  0  0  0  0  0
  -16.9594  -25.5530   18.7492 C   0  0  0  0  0  0  0  0  0  0  0  0
  -19.3098  -25.5794   18.1907 C   0  0  0  0  0  0  0  0  0  0  0  0
  -29.6886  -20.5366   21.1173 C   0  0  0  0  0  0  0  0  0  0  0  0
  -17.1090  -22.5034   17.2964 C   0  0  0  0  0  0  0  0  0  0  0  0
  -16.2163  -21.4323   17.2602 C   0  0  0  0  0  0  0  0  0  0  0  0
  -27.6868  -21.0914   19.8791 C   0  0  0  0  0  0  0  0  0  0  0  0
  -28.2179  -30.1564   23.9227 C   0  0  0  0  0  0  0  0  0  0  0  0
  -26.1890  -31.4680   23.9282 C   0  0  0  0  0  0  0  0  0  0  0  0
  -26.1329  -29.1591   23.2191 C   0  0  0  0  0  0  0  0  0  0  0  0
  -14.7464  -22.7058   15.8268 C   0  0  0  0  0  0  0  0  0  0  0  0
  -18.5685  -26.4077   20.3358 C   0  0  0  0  0  0  0  0  0  0  0  0
  -18.5985  -26.4345   22.8865 C   0  0  0  0  0  0  0  0  0  0  0  0
  -25.7121  -11.4359   21.2085 C   0  0  0  0  0  0  0  0  0  0  0  0
  -28.1196  -18.7938   20.5267 C   0  0  0  0  0  0  0  0  0  0  0  0
  -26.2933  -12.3713   20.3313 C   0  0  0  0  0  0  0  0  0  0  0  0
  -27.3031  -19.7478   19.8974 C   0  0  0  0  0  0  0  0  0  0  0  0
  -27.5604  -31.3632   24.1609 C   0  0  0  0  0  0  0  0  0  0  0  0
  -27.5042  -29.0544   23.4517 C   0  0  0  0  0  0  0  0  0  0  0  0
  -25.4753  -30.3660   23.4573 C   0  0  0  0  0  0  0  0  0  0  0  0
  -17.9899  -25.2857   17.8480 C   0  0  0  0  0  0  0  0  0  0  0  0
  -28.8757  -21.4839   20.4943 C   0  0  0  0  0  0  0  0  0  0  0  0
  -16.8204  -23.6758   16.5979 C   0  0  0  0  0  0  0  0  0  0  0  0
  -15.0350  -21.5335   16.5253 C   0  0  0  0  0  0  0  0  0  0  0  0
  -15.6391  -23.7770   15.8631 C   0  0  0  0  0  0  0  0  0  0  0  0
  -18.8679  -26.9877   21.6203 C   0  0  0  0  0  0  0  0  0  0  0  0
  -19.0724  -27.3670   23.7765 C   0  0  0  0  0  0  0  0  0  0  0  0
  -28.2111  -27.6031   20.7771 C   0  0  0  0  0  0  0  0  0  0  0  0
  -28.2069  -31.0771   19.5870 C   0  0  0  0  0  0  0  0  0  0  0  0
  -27.9619  -28.6839   20.0222 C   0  0  0  0  0  0  0  0  0  0  0  0
  -28.4557  -29.9998   20.3400 C   0  0  0  0  0  0  0  0  0  0  0  0
  -17.9756  -25.1889   23.2275 C   0  0  0  0  0  0  0  0  0  0  0  0
  -29.6821  -25.2756   19.2583 C   0  0  0  0  0  0  0  0  0  0  0  0
  -25.7778  -15.9776   19.7137 C   0  0  0  0  0  0  0  0  0  0  0  0
  -24.0423  -18.3740   20.5236 C   0  0  0  0  0  0  0  0  0  0  0  0
  -21.5858  -20.4359   21.6861 C   0  0  0  0  0  0  0  0  0  0  0  0
  -23.2774  -31.5961   23.4059 C   0  0  0  0  0  0  0  0  0  0  0  0
  -24.2404  -11.4645   21.5373 C   0  0  0  0  0  0  0  0  0  0  0  0
  -27.7097  -17.3477   20.4603 C   0  0  0  0  0  0  0  0  0  0  0  0
  -26.0412  -19.2686   19.2334 C   0  0  0  0  0  0  0  0  0  0  0  0
  -27.6927  -26.2282   20.4411 C   0  0  0  0  0  0  0  0  0  0  0  0
  -23.5692  -12.7961   21.2109 C   0  0  0  0  0  0  0  0  0  0  0  0
  -19.8428  -32.0733   24.2140 C   0  0  0  0  0  0  0  0  0  0  0  0
  -23.9753  -13.2717   19.8196 C   0  0  0  0  0  0  0  0  0  0  0  0
  -19.1795  -30.7706   23.7614 C   0  0  0  0  0  0  0  0  0  0  0  0
  -29.6875  -25.3446   21.7381 C   0  0  0  0  0  0  0  0  0  0  0  0
  -20.9654  -32.4966   23.2683 C   0  0  0  0  0  0  0  0  0  0  0  0
  -21.3168  -30.1643   22.5566 C   0  0  0  0  0  0  0  0  0  0  0  0
  -30.1766  -26.7809   21.9273 C   0  0  0  0  0  0  0  0  0  0  0  0
  -25.4884  -13.5065   19.7367 C   0  0  1  0  0  0  0  0  0  0  0  0
  -26.1869  -17.1468   20.5605 C   0  0  1  0  0  0  0  0  0  0  0  0
  -20.2228  -29.6634   23.5136 C   0  0  2  0  0  0  0  0  0  0  0  0
  -28.8081  -25.1685   20.4863 C   0  0  2  0  0  0  0  0  0  0  0  0
  -28.3236  -32.5415   24.6643 C   0  0  0  0  0  0  0  0  0  0  0  0
  -29.0057  -25.0849   17.9276 C   0  0  0  0  0  0  0  0  0  0  0  0
  -19.1305  -20.8999   21.4548 C   0  0  0  0  0  0  0  0  0  0  0  0
  -24.5550  -19.7285   17.8391 C   0  0  0  0  0  0  0  0  0  0  0  0
  -22.3873  -20.9490   18.1212 C   0  0  0  0  0  0  0  0  0  0  0  0
  -22.4045  -18.4589   17.9736 C   0  0  0  0  0  0  0  0  0  0  0  0
  -21.0887  -19.8561   24.5454 C   0  0  0  0  0  0  0  0  0  0  0  0
  -28.2116  -27.7563   23.1957 C   0  0  0  0  0  0  0  0  0  0  0  0
  -28.1929  -23.7622   20.4700 C   0  0  0  0  0  0  0  0  0  1  0  0
  -23.2630  -19.5823   20.0696 C   0  0  1  0  0  0  0  0  0  0  0  0
  -20.1987  -20.1439   22.2294 C   0  0  2  0  0  0  0  0  0  0  0  0
  -23.1728  -19.6817   18.5206 C   0  0  0  0  0  0  0  0  0  0  0  0
  -19.4664  -28.1795   21.6951 N   0  0  0  0  0  0  0  0  0  0  0  0
  -19.5769  -28.3828   23.0189 N   0  0  0  0  0  0  0  0  0  0  0  0
  -25.3694  -18.2769   20.0877 N   0  0  0  0  0  0  0  0  0  0  0  0
  -21.9178  -31.3993   23.0844 N   0  0  0  0  0  0  0  0  0  0  0  0
  -19.1025  -27.4091   25.1255 N   0  0  0  0  0  0  0  0  0  0  0  0
  -17.5477  -24.3497   22.1898 N   0  0  0  0  0  0  0  0  0  0  0  0
  -24.0822  -30.4724   23.2211 N   0  0  0  0  0  0  0  0  0  0  0  0
  -25.8405  -14.7612   20.3662 N   0  0  0  0  0  0  0  0  0  0  0  0
  -21.9693  -19.5090   20.7400 N   0  0  0  0  0  0  0  0  0  0  0  0
  -29.0413  -27.7748   21.9417 N   0  3  2  0  0  0  0  0  0  0  0  0
  -20.1097  -20.5414   23.6629 N   0  3  0  0  0  0  0  0  0  0  0  0
  -17.7888  -24.8383   24.4173 O   0  0  0  0  0  0  0  0  0  0  0  0
  -30.8868  -25.5091   19.3421 O   0  0  0  0  0  0  0  0  0  0  0  0
  -25.4291  -16.1643   18.5538 O   0  0  0  0  0  0  0  0  0  0  0  0
  -23.4903  -17.5346   21.2405 O   0  0  0  0  0  0  0  0  0  0  0  0
  -22.2600  -21.3928   22.0606 O   0  0  0  0  0  0  0  0  0  0  0  0
  -23.6920  -32.6736   23.8410 O   0  0  0  0  0  0  0  0  0  0  0  0
  -17.7081  -24.7381   16.6343 O   0  0  0  0  0  0  0  0  0  0  0  0
  -29.2423  -22.7955   20.4916 O   0  0  0  0  0  0  0  0  0  1  0  0
  -14.1786  -20.5042   16.4894 F   0  0  0  0  0  0  0  0  0  0  0  0
  -15.3570  -24.9003   15.1890 F   0  0  0  0  0  0  0  0  0  0  0  0
  1  2  1  0  0  0  0
  1  5  2  0  0  0  0
  2  6  2  0  0  0  0
  3  8  2  0  0  0  0
  3 18  1  0  0  0  0
  4  9  1  0  0  0  0
  4 18  2  0  0  0  0
  5 20  1  0  0  0  0
  6 22  1  0  0  0  0
  7 10  2  0  0  0  0
  7 21  1  0  0  0  0
  8 27  1  0  0  0  0
  9 27  2  0  0  0  0
 10 28  1  0  0  0  0
 11 12  2  0  0  0  0
 11 29  1  0  0  0  0
 12 30  1  0  0  0  0
 13 23  1  0  0  0  0
 13 28  2  0  0  0  0
 14 24  2  0  0  0  0
 14 25  1  0  0  0  0
 15 24  1  0  0  0  0
 15 26  2  0  0  0  0
 16 25  2  0  0  0  0
 16 26  1  0  0  0  0
 17 30  2  0  0  0  0
 17 31  1  0  0  0  0
 18 32  1  0  0  0  0
 19 32  1  0  0  0  0
 19 33  2  0  0  0  0
 19 38  1  0  0  0  0
 20 22  2  0  0  0  0
 20 44  1  0  0  0  0
 21 23  2  0  0  0  0
 21 45  1  0  0  0  0
 22 56  1  0  0  0  0
 23 46  1  0  0  0  0
 24 60  1  0  0  0  0
 25 67  1  0  0  0  0
 26 78  1  0  0  0  0
 27 89  1  0  0  0  0
 28 90  1  0  0  0  0
 29 31  2  0  0  0  0
 29 89  1  0  0  0  0
 30 91  1  0  0  0  0
 31 92  1  0  0  0  0
 32 72  2  0  0  0  0
 33 73  1  0  0  0  0
 33 76  1  0  0  0  0
 34 36  2  0  0  0  0
 34 47  1  0  0  0  0
 34 81  1  0  0  0  0
 35 37  2  0  0  0  0
 36 37  1  0  0  0  0
 38 77  1  0  0  0  0
 38 83  2  0  0  0  0
 39 59  1  0  0  0  0
 39 61  1  0  0  0  0
 39 84  2  0  0  0  0
 40 57  1  0  0  0  0
 40 79  1  0  0  0  0
 40 85  2  0  0  0  0
 41 69  1  0  0  0  0
 41 74  1  0  0  0  0
 41 86  2  0  0  0  0
 42 70  1  0  0  0  0
 42 80  1  0  0  0  0
 42 87  2  0  0  0  0
 43 75  1  0  0  0  0
 43 78  1  0  0  0  0
 43 88  2  0  0  0  0
 44 48  1  0  0  0  0
 45 57  1  0  0  0  0
 46 74  1  0  0  0  0
 47 59  1  0  0  0  0
 48 50  1  0  0  0  0
 49 51  1  0  0  0  0
 49 53  1  0  0  0  0
 50 56  1  0  0  0  0
 51 58  1  0  0  0  0
 52 55  1  0  0  0  0
 52 59  1  0  0  0  0
 53 75  1  0  0  0  0
 54 58  1  0  0  0  0
 54 75  1  0  0  0  0
 55 81  1  0  0  0  0
 56 79  1  0  0  0  0
 57 74  1  0  0  0  0
 58 73  1  0  0  0  0
 59 68  1  0  0  0  0
 62 70  1  0  0  0  0
 63 71  1  0  0  0  0
 64 71  1  0  0  0  0
 65 71  1  0  0  0  0
 66 82  1  0  0  0  0
 67 81  1  0  0  0  0
 68 90  1  0  0  0  0
 69 71  1  0  0  0  0
 69 80  1  0  0  0  0
 70 82  1  0  0  0  0
 72 73  1  0  0  0  0
M  CHG  2  81   1  82   1
M  ISO  4  43 100  68 101  78 100  90 101
M  END
> <Batch ID>
0050

> <Smiles>
C=CC=C1CC(C(C)=O)([101CH2:1][101O:1]c2ccc3c(c2)CN(C(=O)C(NC(=O)C(C)NC)C(C)(C)C)C(C(=O)NC2CCCc4ccccc42)C3)CCN1Cc1cc(C)cc([100NH:0][100C:0](=O)N2CCCC(n3nc(-c4ccc(Oc5ccc(F)cc5F)cc4)c(C(N)=O)c3N)C2)c1

> <Shape>
0.241

> <Color>
0.077

> <Negative vol penalty>
0.000

$$$$

  -OEChem-04042322353D

 86 94  0     1  0  0  0  0  0999 V2000
  -22.7000  -23.6978   19.4536 C   0  0  0  0  0  0  0  0  0  0  0  0
  -23.8712  -22.9942   19.7154 C   0  0  0  0  0  0  0  0  0  0  0  0
  -36.0211  -25.3302   23.4287 C   0  0  0  0  0  0  0  0  0  0  0  0
  -25.3431  -27.0306   19.9159 C   0  0  0  0  0  0  0  0  0  0  0  0
  -27.3654  -28.3254   20.1823 C   0  0  0  0  0  0  0  0  0  0  0  0
  -21.4753  -23.1999   19.8963 C   0  0  0  0  0  0  0  0  0  0  0  0
  -23.8185  -21.7926   20.4210 C   0  0  0  0  0  0  0  0  0  0  0  0
  -26.6905  -18.1840   18.3296 C   0  0  0  0  0  0  0  0  0  0  0  0
  -34.9634  -25.3623   24.3374 C   0  0  0  0  0  0  0  0  0  0  0  0
  -36.2305  -24.1975   22.6420 C   0  0  0  0  0  0  0  0  0  0  0  0
  -24.5962  -28.2075   19.8657 C   0  0  0  0  0  0  0  0  0  0  0  0
  -26.6184  -29.5024   20.1320 C   0  0  0  0  0  0  0  0  0  0  0  0
  -28.0640  -18.2504   18.5594 C   0  0  0  0  0  0  0  0  0  0  0  0
  -25.2052  -32.8371   20.4351 C   0  0  0  0  0  0  0  0  0  0  0  0
  -25.4922  -33.8278   21.3741 C   0  0  0  0  0  0  0  0  0  0  0  0
  -27.8518  -16.5693   20.2765 C   0  0  0  0  0  0  0  0  0  0  0  0
  -34.3247  -23.1290   23.6731 C   0  0  0  0  0  0  0  0  0  0  0  0
  -24.9472  -32.2935   23.1591 C   0  0  0  0  0  0  0  0  0  0  0  0
  -26.7277  -27.0895   20.0742 C   0  0  0  0  0  0  0  0  0  0  0  0
  -28.0814  -25.1890   19.0432 C   0  0  0  0  0  0  0  0  0  0  0  0
  -21.4065  -21.9867   20.5993 C   0  0  0  0  0  0  0  0  0  0  0  0
  -25.8844  -17.3162   19.0802 C   0  0  0  0  0  0  0  0  0  0  0  0
  -22.5919  -21.2786   20.8747 C   0  0  0  0  0  0  0  0  0  0  0  0
  -26.4687  -16.4919   20.0524 C   0  0  0  0  0  0  0  0  0  0  0  0
  -34.1152  -24.2617   24.4597 C   0  0  0  0  0  0  0  0  0  0  0  0
  -35.3824  -23.0969   22.7642 C   0  0  0  0  0  0  0  0  0  0  0  0
  -25.2338  -29.4434   19.9737 C   0  0  0  0  0  0  0  0  0  0  0  0
  -28.6445  -17.4451   19.5350 C   0  0  0  0  0  0  0  0  0  0  0  0
  -24.7891  -31.5747   20.8580 C   0  0  0  0  0  0  0  0  0  0  0  0
  -25.3633  -33.5560   22.7362 C   0  0  0  0  0  0  0  0  0  0  0  0
  -24.6601  -31.3029   22.2200 C   0  0  0  0  0  0  0  0  0  0  0  0
  -27.4998  -25.8741   20.1268 C   0  0  0  0  0  0  0  0  0  0  0  0
  -28.7012  -24.1049   19.6153 C   0  0  0  0  0  0  0  0  0  0  0  0
  -28.0632  -25.5043   17.6447 C   0  0  0  0  0  0  0  0  0  0  0  0
  -23.4493  -17.6909   21.0886 C   0  0  0  0  0  0  0  0  0  0  0  0
  -23.3726  -14.4496   20.9858 C   0  0  0  0  0  0  0  0  0  0  0  0
  -33.7349  -20.3816   21.1955 C   0  0  0  0  0  0  0  0  0  0  0  0
  -25.0423  -11.5288   20.4133 C   0  0  0  0  0  0  0  0  0  0  0  0
  -30.8535  -23.0663   25.1052 C   0  0  0  0  0  0  0  0  0  0  0  0
  -20.0648  -21.5122   21.0988 C   0  0  0  0  0  0  0  0  0  0  0  0
  -24.4084  -17.2370   18.8016 C   0  0  0  0  0  0  0  0  0  0  0  0
  -25.6503  -15.5287   20.8715 C   0  0  0  0  0  0  0  0  0  0  0  0
  -20.0542  -20.0433   21.5141 C   0  0  0  0  0  0  0  0  0  0  0  0
  -28.3869  -21.1666   23.3780 C   0  0  0  0  0  0  0  0  0  0  0  0
  -21.2665  -19.7256   22.3837 C   0  0  0  0  0  0  0  0  0  0  0  0
  -27.9323  -22.0958   22.2511 C   0  0  0  0  0  0  0  0  0  0  0  0
  -28.6928  -21.9402   24.6586 C   0  0  0  0  0  0  0  0  0  0  0  0
  -29.1947  -23.9805   23.3706 C   0  0  0  0  0  0  0  0  0  0  0  0
  -22.5729  -19.9592   21.6155 C   0  0  1  0  0  0  0  0  0  0  0  0
  -23.6066  -16.6903   19.9788 C   0  0  1  0  0  0  0  0  0  0  0  0
  -28.9282  -23.2524   22.0420 C   0  0  2  0  0  0  0  0  0  0  0  0
  -24.7256   -9.0396   20.4464 C   0  0  0  0  0  0  0  0  0  0  0  0
  -23.5150  -14.4744   24.0336 C   0  0  0  0  0  0  0  0  0  0  0  0
  -24.1477  -12.0533   23.9543 C   0  0  0  0  0  0  0  0  0  0  0  0
  -21.9322  -12.7910   23.0769 C   0  0  0  0  0  0  0  0  0  0  0  0
  -34.1077  -22.6082   20.1056 C   0  0  0  0  0  0  0  0  0  0  0  0
  -25.6510  -11.2965   17.5264 C   0  0  0  0  0  0  0  0  0  0  0  0
  -32.9837  -24.2975   25.4306 C   0  0  0  0  0  0  0  0  0  0  0  0
  -35.6083  -21.8775   21.9180 C   0  0  0  0  0  0  0  0  0  0  0  0
  -32.5556  -20.2131   20.2462 C   0  0  0  0  0  0  0  0  0  0  0  0
  -31.8279  -18.8850   20.4434 C   0  0  0  0  0  0  0  0  0  0  0  0
  -30.6265  -18.7594   19.5177 C   0  0  0  0  0  0  0  0  0  1  0  0
  -24.0270  -13.3393   21.7719 C   0  0  1  0  0  0  0  0  0  0  0  0
  -24.6749  -10.3014   19.5990 C   0  0  2  0  0  0  0  0  0  0  0  0
  -23.4209  -13.1839   23.1953 C   0  0  0  0  0  0  0  0  0  0  0  0
  -27.7294  -25.2755   21.2985 N   0  0  0  0  0  0  0  0  0  0  0  0
  -28.4621  -24.2027   20.9545 N   0  0  0  0  0  0  0  0  0  0  0  0
  -24.2105  -15.4925   20.5662 N   0  0  0  0  0  0  0  0  0  0  0  0
  -29.6443  -23.0216   24.3919 N   0  0  0  0  0  0  0  0  0  0  0  0
  -29.4218  -23.0871   19.0983 N   0  0  0  0  0  0  0  0  0  0  0  0
  -27.3803  -26.6552   17.2281 N   0  0  0  0  0  0  0  0  0  0  0  0
  -22.8266  -18.8633   20.7049 N   0  0  0  0  0  0  0  0  0  0  0  0
  -23.9274  -12.1408   20.9460 N   0  0  0  0  0  0  0  0  0  0  0  0
  -31.7011  -24.1203   24.7868 N   0  0  0  0  0  0  0  0  0  0  0  0
  -34.4557  -21.5749   21.0784 N   0  0  0  0  0  0  0  0  0  0  0  0
  -25.6164  -10.1377   18.4554 N   0  3  0  0  0  0  0  0  0  0  0  0
  -28.6216  -24.7779   16.7879 O   0  0  0  0  0  0  0  0  0  0  0  0
  -23.8609  -17.4188   22.2103 O   0  0  0  0  0  0  0  0  0  0  0  0
  -22.1640  -14.3901   20.7466 O   0  0  0  0  0  0  0  0  0  0  0  0
  -34.0131  -19.4977   22.0102 O   0  0  0  0  0  0  0  0  0  0  0  0
  -26.2026  -11.9047   20.5651 O   0  0  0  0  0  0  0  0  0  0  0  0
  -31.1577  -22.2260   25.9586 O   0  0  0  0  0  0  0  0  0  0  0  0
  -24.5053  -30.5920   19.9245 O   0  0  0  0  0  0  0  0  0  0  0  0
  -29.9848  -17.5084   19.7618 O   0  0  0  0  0  0  0  0  0  1  0  0
  -25.6404  -34.5069   23.6379 F   0  0  0  0  0  0  0  0  0  0  0  0
  -24.2620  -30.0916   22.6324 F   0  0  0  0  0  0  0  0  0  0  0  0
  1  2  1  0  0  0  0
  1  6  2  0  0  0  0
  2  7  2  0  0  0  0
  3  9  1  0  0  0  0
  3 10  2  0  0  0  0
  4 11  2  0  0  0  0
  4 19  1  0  0  0  0
  5 12  1  0  0  0  0
  5 19  2  0  0  0  0
  6 21  1  0  0  0  0
  7 23  1  0  0  0  0
  8 13  2  0  0  0  0
  8 22  1  0  0  0  0
  9 25  2  0  0  0  0
 10 26  1  0  0  0  0
 11 27  1  0  0  0  0
 12 27  2  0  0  0  0
 13 28  1  0  0  0  0
 14 15  2  0  0  0  0
 14 29  1  0  0  0  0
 15 30  1  0  0  0  0
 16 24  1  0  0  0  0
 16 28  2  0  0  0  0
 17 25  1  0  0  0  0
 17 26  2  0  0  0  0
 18 30  2  0  0  0  0
 18 31  1  0  0  0  0
 19 32  1  0  0  0  0
 20 32  1  0  0  0  0
 20 33  2  0  0  0  0
 20 34  1  0  0  0  0
 21 23  2  0  0  0  0
 21 40  1  0  0  0  0
 22 24  2  0  0  0  0
 22 41  1  0  0  0  0
 23 49  1  0  0  0  0
 24 42  1  0  0  0  0
 25 58  1  0  0  0  0
 26 59  1  0  0  0  0
 27 83  1  0  0  0  0
 28 84  1  0  0  0  0
 29 31  2  0  0  0  0
 29 83  1  0  0  0  0
 30 85  1  0  0  0  0
 31 86  1  0  0  0  0
 32 66  2  0  0  0  0
 33 67  1  0  0  0  0
 33 70  1  0  0  0  0
 34 71  1  0  0  0  0
 34 77  2  0  0  0  0
 35 50  1  0  0  0  0
 35 72  1  0  0  0  0
 35 78  2  0  0  0  0
 36 63  1  0  0  0  0
 36 68  1  0  0  0  0
 36 79  2  0  0  0  0
 37 60  1  0  0  0  0
 37 75  1  0  0  0  0
 37 80  2  0  0  0  0
 38 64  1  0  0  0  0
 38 73  1  0  0  0  0
 38 81  2  0  0  0  0
 39 69  1  0  0  0  0
 39 74  1  0  0  0  0
 39 82  2  0  0  0  0
 40 43  1  0  0  0  0
 41 50  1  0  0  0  0
 42 68  1  0  0  0  0
 43 45  1  0  0  0  0
 44 46  1  0  0  0  0
 44 47  1  0  0  0  0
 45 49  1  0  0  0  0
 46 51  1  0  0  0  0
 47 69  1  0  0  0  0
 48 51  1  0  0  0  0
 48 69  1  0  0  0  0
 49 72  1  0  0  0  0
 50 68  1  0  0  0  0
 51 67  1  0  0  0  0
 52 64  1  0  0  0  0
 53 65  1  0  0  0  0
 54 65  1  0  0  0  0
 55 65  1  0  0  0  0
 56 75  1  0  0  0  0
 57 76  1  0  0  0  0
 58 74  1  0  0  0  0
 59 75  1  0  0  0  0
 60 61  1  0  0  0  0
 61 62  1  0  0  0  0
 62 84  1  0  0  0  0
 63 65  1  0  0  0  0
 63 73  1  0  0  0  0
 64 76  1  0  0  0  0
 66 67  1  0  0  0  0
M  CHG  1  76   1
M  ISO  4  39 100  62 101  74 100  84 101
M  END
> <Batch ID>
0050

> <Smiles>
CNC(C)C(=O)NC(C(=O)N1Cc2cc([101O:1][101CH2:1]CCC(=O)N(C)Cc3cccc(C[100NH:0][100C:0](=O)N4CCCC(n5nc(-c6ccc(Oc7ccc(F)cc7F)cc6)c(C(N)=O)c5N)C4)c3)ccc2CC1C(=O)NC1CCCc2ccccc21)C(C)(C)C

> <Shape>
0.171

> <Color>
0.087

> <Negative vol penalty>
0.000

$$$$

  -OEChem-04042322353D

 87 96  0     1  0  0  0  0  0999 V2000
  -23.6685  -17.3447   23.7481 C   0  0  0  0  0  0  0  0  0  0  0  0
  -23.8943  -18.1837   24.8335 C   0  0  0  0  0  0  0  0  0  0  0  0
  -26.8786  -12.4861   21.7500 C   0  0  0  0  0  0  0  0  0  0  0  0
  -26.0518  -14.2851   20.3653 C   0  0  0  0  0  0  0  0  0  0  0  0
  -24.1907  -17.6719   22.4986 C   0  0  0  0  0  0  0  0  0  0  0  0
  -24.6324  -19.3561   24.6671 C   0  0  0  0  0  0  0  0  0  0  0  0
  -27.8741  -27.0224   25.0163 C   0  0  0  0  0  0  0  0  0  0  0  0
  -29.7901  -24.5034   19.1757 C   0  0  0  0  0  0  0  0  0  0  0  0
  -29.8341  -23.2497   19.7855 C   0  0  0  0  0  0  0  0  0  0  0  0
  -25.5823  -11.9866   21.8751 C   0  0  0  0  0  0  0  0  0  0  0  0
  -24.7555  -13.7856   20.4904 C   0  0  0  0  0  0  0  0  0  0  0  0
  -28.3703  -27.9212   24.0731 C   0  0  0  0  0  0  0  0  0  0  0  0
  -22.5414  -10.0325   22.2621 C   0  0  0  0  0  0  0  0  0  0  0  0
  -22.3587   -8.6580   22.1110 C   0  0  0  0  0  0  0  0  0  0  0  0
  -26.5932  -27.3070   22.5618 C   0  0  0  0  0  0  0  0  0  0  0  0
  -23.2416   -8.7875   19.8658 C   0  0  0  0  0  0  0  0  0  0  0  0
  -27.1134  -13.6354   20.9952 C   0  0  0  0  0  0  0  0  0  0  0  0
  -29.5692  -13.4921   20.3200 C   0  0  0  0  0  0  0  0  0  0  0  0
  -24.9460  -18.8427   22.3204 C   0  0  0  0  0  0  0  0  0  0  0  0
  -26.7382  -26.2498   24.7346 C   0  0  0  0  0  0  0  0  0  0  0  0
  -25.1476  -19.7159   23.4086 C   0  0  0  0  0  0  0  0  0  0  0  0
  -26.0831  -26.4009   23.5041 C   0  0  0  0  0  0  0  0  0  0  0  0
  -30.9190  -25.3227   19.1832 C   0  0  0  0  0  0  0  0  0  0  0  0
  -32.0918  -24.8884   19.8008 C   0  0  0  0  0  0  0  0  0  0  0  0
  -32.1359  -23.6347   20.4106 C   0  0  0  0  0  0  0  0  0  0  0  0
  -31.0070  -22.8153   20.4030 C   0  0  0  0  0  0  0  0  0  0  0  0
  -24.5207  -12.6363   21.2453 C   0  0  0  0  0  0  0  0  0  0  0  0
  -27.7315  -28.0616   22.8445 C   0  0  0  0  0  0  0  0  0  0  0  0
  -23.0742  -10.7846   21.2150 C   0  0  0  0  0  0  0  0  0  0  0  0
  -22.7088   -8.0355   20.9128 C   0  0  0  0  0  0  0  0  0  0  0  0
  -23.4243  -10.1621   20.0169 C   0  0  0  0  0  0  0  0  0  0  0  0
  -28.4521  -14.1522   20.8660 C   0  0  0  0  0  0  0  0  0  0  0  0
  -30.5924  -14.4020   20.4279 C   0  0  0  0  0  0  0  0  0  0  0  0
  -31.7063  -28.7592   19.4970 C   0  0  0  0  0  0  0  0  0  0  0  0
  -29.6727  -12.1743   19.7647 C   0  0  0  0  0  0  0  0  0  0  0  0
  -26.1479  -23.1363   24.4871 C   0  0  0  0  0  0  0  0  0  0  0  0
  -23.0770  -24.1384   24.1914 C   0  0  0  0  0  0  0  0  0  0  0  0
  -21.3269  -26.7992   22.4959 C   0  0  0  0  0  0  0  0  0  0  0  0
  -30.2972  -20.4035   20.6553 C   0  0  0  0  0  0  0  0  0  0  0  0
  -25.4811  -19.1523   20.9445 C   0  0  0  0  0  0  0  0  0  0  0  0
  -26.1999  -25.3041   25.7730 C   0  0  0  0  0  0  0  0  0  0  0  0
  -24.8484  -25.6098   23.1606 C   0  0  0  0  0  0  0  0  0  0  0  0
  -31.5838  -29.8115   20.5829 C   0  0  0  0  0  0  0  0  0  0  0  0
  -26.6138  -20.1736   20.9631 C   0  0  0  0  0  0  0  0  0  0  0  0
  -30.1691  -30.0500   21.0666 C   0  0  0  0  0  0  0  0  0  0  0  0
  -31.3126  -18.0568   23.5164 C   0  0  0  0  0  0  0  0  0  0  0  0
  -26.2113  -21.3810   21.7966 C   0  0  0  0  0  0  0  0  0  0  0  0
  -31.4200  -16.7450   22.7424 C   0  0  0  0  0  0  0  0  0  0  0  0
  -31.4742  -19.2742   22.6148 C   0  0  0  0  0  0  0  0  0  0  0  0
  -29.8268  -18.0244   21.2077 C   0  0  0  0  0  0  0  0  0  0  0  0
  -29.4977  -27.8112   20.2489 C   0  0  0  0  0  0  0  0  0  0  0  0
  -25.9733  -20.9808   23.2582 C   0  0  1  0  0  0  0  0  0  0  0  0
  -25.3371  -24.1943   25.1805 C   0  0  1  0  0  0  0  0  0  0  0  0
  -30.7535  -16.8074   21.3538 C   0  0  2  0  0  0  0  0  0  0  0  0
  -29.5429  -28.7257   21.4605 C   0  0  2  0  0  0  0  0  0  1  0  0
  -33.3010  -25.7693   19.8072 C   0  0  0  0  0  0  0  0  0  0  0  0
  -33.3956  -23.1705   21.0727 C   0  0  0  0  0  0  0  0  0  0  0  0
  -19.1570  -27.9340   23.0447 C   0  0  0  0  0  0  0  0  0  0  0  0
  -21.8574  -22.0883   22.2888 C   0  0  0  0  0  0  0  0  0  0  0  0
  -20.3169  -23.8786   21.4584 C   0  0  0  0  0  0  0  0  0  0  0  0
  -20.2250  -23.1658   23.8472 C   0  0  0  0  0  0  0  0  0  0  0  0
  -22.5926  -29.4745   22.4972 C   0  0  0  0  0  0  0  0  0  0  0  0
  -30.8445  -26.6674   18.5195 C   0  0  0  0  0  0  0  0  0  0  0  0
  -22.1888  -24.5369   23.0376 C   0  0  1  0  0  0  0  0  0  0  0  0
  -20.6731  -28.0100   23.1371 C   0  0  2  0  0  0  0  0  0  0  0  0
  -21.1752  -23.4210   22.6570 C   0  0  0  0  0  0  0  0  0  0  0  0
  -28.7386  -15.3862   21.2896 N   0  0  0  0  0  0  0  0  0  0  0  0
  -30.0473  -15.5086   21.0098 N   0  0  0  0  0  0  0  0  0  0  0  0
  -30.7454  -27.7495   19.4898 N   0  0  0  0  0  0  0  0  0  0  0  0
  -24.3643  -24.6936   24.2065 N   0  0  0  0  0  0  0  0  0  0  0  0
  -30.5468  -19.2750   21.4741 N   0  0  0  0  0  0  0  0  0  0  0  0
  -31.8962  -14.3555   20.0811 N   0  0  0  0  0  0  0  0  0  0  0  0
  -29.4409  -12.0074   18.3926 N   0  0  0  0  0  0  0  0  0  0  0  0
  -31.0292  -21.5377   21.0163 N   0  0  0  0  0  0  0  0  0  0  0  0
  -25.3948  -22.1014   23.9662 N   0  0  0  0  0  0  0  0  0  0  0  0
  -21.5698  -25.8023   23.4170 N   0  0  0  0  0  0  0  0  0  0  0  0
  -21.1230  -29.2600   22.4618 N   0  3  0  0  0  0  0  0  0  0  0  0
  -32.6755  -28.7978   18.7338 O   0  0  0  0  0  0  0  0  0  0  0  0
  -29.9461  -11.1719   20.4676 O   0  0  0  0  0  0  0  0  0  0  0  0
  -27.3665  -23.2512   24.4276 O   0  0  0  0  0  0  0  0  0  0  0  0
  -22.6420  -23.3686   25.0516 O   0  0  0  0  0  0  0  0  0  0  0  0
  -21.5920  -26.7420   21.2972 O   0  0  0  0  0  0  0  0  0  0  0  0
  -29.5093  -20.3552   19.7083 O   0  0  0  0  0  0  0  0  0  0  0  0
  -23.2557  -12.1490   21.3669 O   0  0  0  0  0  0  0  0  0  0  0  0
  -28.2141  -28.9377   21.9218 O   0  0  0  0  0  0  0  0  0  1  0  0
  -22.5347   -6.7153   20.7684 F   0  0  0  0  0  0  0  0  0  0  0  0
  -23.9376  -10.8792   19.0079 F   0  0  0  0  0  0  0  0  0  0  0  0
  1  2  1  0  0  0  0
  1  5  2  0  0  0  0
  2  6  2  0  0  0  0
  3 10  2  0  0  0  0
  3 17  1  0  0  0  0
  4 11  1  0  0  0  0
  4 17  2  0  0  0  0
  5 19  1  0  0  0  0
  6 21  1  0  0  0  0
  7 12  2  0  0  0  0
  7 20  1  0  0  0  0
  8  9  2  0  0  0  0
  8 23  1  0  0  0  0
  9 26  1  0  0  0  0
 10 27  1  0  0  0  0
 11 27  2  0  0  0  0
 12 28  1  0  0  0  0
 13 14  2  0  0  0  0
 13 29  1  0  0  0  0
 14 30  1  0  0  0  0
 15 22  1  0  0  0  0
 15 28  2  0  0  0  0
 16 30  2  0  0  0  0
 16 31  1  0  0  0  0
 17 32  1  0  0  0  0
 18 32  1  0  0  0  0
 18 33  2  0  0  0  0
 18 35  1  0  0  0  0
 19 21  2  0  0  0  0
 19 40  1  0  0  0  0
 20 22  2  0  0  0  0
 20 41  1  0  0  0  0
 21 52  1  0  0  0  0
 22 42  1  0  0  0  0
 23 24  2  0  0  0  0
 23 63  1  0  0  0  0
 24 25  1  0  0  0  0
 24 56  1  0  0  0  0
 25 26  2  0  0  0  0
 25 57  1  0  0  0  0
 26 74  1  0  0  0  0
 27 84  1  0  0  0  0
 28 85  1  0  0  0  0
 29 31  2  0  0  0  0
 29 84  1  0  0  0  0
 30 86  1  0  0  0  0
 31 87  1  0  0  0  0
 32 67  2  0  0  0  0
 33 68  1  0  0  0  0
 33 72  1  0  0  0  0
 34 43  1  0  0  0  0
 34 69  1  0  0  0  0
 34 78  2  0  0  0  0
 35 73  1  0  0  0  0
 35 79  2  0  0  0  0
 36 53  1  0  0  0  0
 36 75  1  0  0  0  0
 36 80  2  0  0  0  0
 37 64  1  0  0  0  0
 37 70  1  0  0  0  0
 37 81  2  0  0  0  0
 38 65  1  0  0  0  0
 38 76  1  0  0  0  0
 38 82  2  0  0  0  0
 39 71  1  0  0  0  0
 39 74  1  0  0  0  0
 39 83  2  0  0  0  0
 40 44  1  0  0  0  0
 41 53  1  0  0  0  0
 42 70  1  0  0  0  0
 43 45  1  0  0  0  0
 44 47  1  0  0  0  0
 45 55  1  0  0  0  0
 46 48  1  0  0  0  0
 46 49  1  0  0  0  0
 47 52  1  0  0  0  0
 48 54  1  0  0  0  0
 49 71  1  0  0  0  0
 50 54  1  0  0  0  0
 50 71  1  0  0  0  0
 51 55  1  0  0  0  0
 51 69  1  0  0  0  0
 52 75  1  0  0  0  0
 53 70  1  0  0  0  0
 54 68  1  0  0  0  0
 55 85  1  0  0  0  0
 58 65  1  0  0  0  0
 59 66  1  0  0  0  0
 60 66  1  0  0  0  0
 61 66  1  0  0  0  0
 62 77  1  0  0  0  0
 63 69  1  0  0  0  0
 64 66  1  0  0  0  0
 64 76  1  0  0  0  0
 65 77  1  0  0  0  0
 67 68  1  0  0  0  0
M  CHG  1  77   1
M  ISO  4  39 100  55 101  74 100  85 101
M  END
> <Batch ID>
0050

> <Smiles>
CNC(C)C(=O)NC(C(=O)N1Cc2cc([101O:1][101CH:1]3CCC(=O)N(Cc4ccc([100NH:0][100C:0](=O)N5CCCC(n6nc(-c7ccc(Oc8ccc(F)cc8F)cc7)c(C(N)=O)c6N)C5)c(C)c4C)C3)ccc2CC1C(=O)NC1CCCc2ccccc21)C(C)(C)C

> <Shape>
0.236

> <Color>
0.078

> <Negative vol penalty>
0.000

$$$$

  -OEChem-04042322353D

 85 93  0     1  0  0  0  0  0999 V2000
  -32.8414  -30.6345   21.6584 C   0  0  0  0  0  0  0  0  0  0  0  0
  -32.2071  -29.4658   21.2495 C   0  0  0  0  0  0  0  0  0  0  0  0
  -23.9518   -9.7700   21.9967 C   0  0  0  0  0  0  0  0  0  0  0  0
  -22.1910  -10.3711   20.4555 C   0  0  0  0  0  0  0  0  0  0  0  0
  -32.2929  -31.4012   22.6857 C   0  0  0  0  0  0  0  0  0  0  0  0
  -31.0244  -29.0625   21.8684 C   0  0  0  0  0  0  0  0  0  0  0  0
  -27.5133  -27.5471   18.5486 C   0  0  0  0  0  0  0  0  0  0  0  0
  -23.4677   -8.4626   22.0399 C   0  0  0  0  0  0  0  0  0  0  0  0
  -21.7068   -9.0637   20.4988 C   0  0  0  0  0  0  0  0  0  0  0  0
  -27.6574  -26.2702   18.0079 C   0  0  0  0  0  0  0  0  0  0  0  0
  -20.9551   -6.7864   23.5569 C   0  0  0  0  0  0  0  0  0  0  0  0
  -20.8506   -6.1758   24.8067 C   0  0  0  0  0  0  0  0  0  0  0  0
  -26.0158  -25.4325   19.5644 C   0  0  0  0  0  0  0  0  0  0  0  0
  -22.1504  -21.9892   18.1128 C   0  0  0  0  0  0  0  0  0  0  0  0
  -21.9782  -20.9955   20.3083 C   0  0  0  0  0  0  0  0  0  0  0  0
  -22.3747   -4.4444   24.0882 C   0  0  0  0  0  0  0  0  0  0  0  0
  -23.3134  -10.7243   21.2045 C   0  0  0  0  0  0  0  0  0  0  0  0
  -24.7699  -12.5987   20.2701 C   0  0  0  0  0  0  0  0  0  0  0  0
  -31.0977  -31.0122   23.3110 C   0  0  0  0  0  0  0  0  0  0  0  0
  -26.6260  -27.7746   19.6104 C   0  0  0  0  0  0  0  0  0  0  0  0
  -30.4601  -29.8240   22.9059 C   0  0  0  0  0  0  0  0  0  0  0  0
  -25.8605  -26.7138   20.1151 C   0  0  0  0  0  0  0  0  0  0  0  0
  -22.9394  -20.9193   17.6904 C   0  0  0  0  0  0  0  0  0  0  0  0
  -23.2478  -19.8875   18.5769 C   0  0  0  0  0  0  0  0  0  0  0  0
  -22.7672  -19.9255   19.8859 C   0  0  0  0  0  0  0  0  0  0  0  0
  -22.3452   -8.1094   21.2910 C   0  0  0  0  0  0  0  0  0  0  0  0
  -26.9107  -25.2120   18.5177 C   0  0  0  0  0  0  0  0  0  0  0  0
  -21.7693   -6.2259   22.5728 C   0  0  0  0  0  0  0  0  0  0  0  0
  -21.5604   -5.0049   25.0724 C   0  0  0  0  0  0  0  0  0  0  0  0
  -22.4792   -5.0549   22.8384 C   0  0  0  0  0  0  0  0  0  0  0  0
  -21.6698  -22.0273   19.4218 C   0  0  0  0  0  0  0  0  0  0  0  0
  -23.8127  -12.0752   21.1598 C   0  0  0  0  0  0  0  0  0  0  0  0
  -24.8964  -13.9159   20.6380 C   0  0  0  0  0  0  0  0  0  0  0  0
  -25.4810  -11.9522   19.2061 C   0  0  0  0  0  0  0  0  0  0  0  0
  -26.9291  -28.7760   22.6118 C   0  0  0  0  0  0  0  0  0  0  0  0
  -23.6866  -28.7051   22.5518 C   0  0  0  0  0  0  0  0  0  0  0  0
  -25.3072  -22.5464   16.0859 C   0  0  0  0  0  0  0  0  0  0  0  0
  -20.8418  -27.4319   21.1616 C   0  0  0  0  0  0  0  0  0  0  0  0
  -22.6618  -18.7919   22.1331 C   0  0  0  0  0  0  0  0  0  0  0  0
  -30.5682  -31.8484   24.4489 C   0  0  0  0  0  0  0  0  0  0  0  0
  -26.4625  -29.1632   20.1647 C   0  0  0  0  0  0  0  0  0  0  0  0
  -24.8791  -26.9094   21.2408 C   0  0  0  0  0  0  0  0  0  0  0  0
  -29.1128  -31.5491   24.7989 C   0  0  0  0  0  0  0  0  0  0  0  0
  -23.1629  -16.3811   24.7049 C   0  0  0  0  0  0  0  0  0  0  0  0
  -28.8827  -30.0435   24.8831 C   0  0  0  0  0  0  0  0  0  0  0  0
  -23.4554  -15.0890   23.9387 C   0  0  0  0  0  0  0  0  0  0  0  0
  -22.1168  -17.2377   23.9939 C   0  0  0  0  0  0  0  0  0  0  0  0
  -22.7008  -16.2394   21.8187 C   0  0  0  0  0  0  0  0  0  0  0  0
  -29.1625  -29.3665   23.5360 C   0  0  1  0  0  0  0  0  0  0  0  0
  -25.9076  -29.1778   21.5858 C   0  0  1  0  0  0  0  0  0  0  0  0
  -23.7961  -15.3739   22.4628 C   0  0  2  0  0  0  0  0  0  0  0  0
  -24.0946  -18.7415   18.1193 C   0  0  0  0  0  0  0  0  0  0  0  0
  -18.3414  -27.5350   21.3480 C   0  0  0  0  0  0  0  0  0  0  0  0
  -23.8032  -26.9573   25.0501 C   0  0  0  0  0  0  0  0  0  0  0  0
  -21.4171  -26.3241   24.6337 C   0  0  0  0  0  0  0  0  0  0  0  0
  -22.0140  -28.7044   25.0817 C   0  0  0  0  0  0  0  0  0  0  0  0
  -20.5615  -28.4483   18.3962 C   0  0  0  0  0  0  0  0  0  0  0  0
  -23.4439  -20.9027   16.2765 C   0  0  0  0  0  0  0  0  0  0  0  0
  -26.8258  -22.5971   16.0249 C   0  0  0  0  0  0  0  0  0  0  0  0
  -27.4014  -23.8766   16.6120 C   0  0  0  0  0  0  0  0  0  1  0  0
  -22.6340  -27.6680   22.8606 C   0  0  1  0  0  0  0  0  0  0  0  0
  -19.5749  -28.1048   20.6650 C   0  0  2  0  0  0  0  0  0  0  0  0
  -22.4869  -27.4090   24.3866 C   0  0  0  0  0  0  0  0  0  0  0  0
  -23.3632  -12.9855   22.0277 N   0  0  0  0  0  0  0  0  0  0  0  0
  -24.0409  -14.0943   21.6852 N   0  0  0  0  0  0  0  0  0  0  0  0
  -24.7597  -28.2843   21.7535 N   0  0  0  0  0  0  0  0  0  0  0  0
  -22.5087  -17.4699   22.6020 N   0  0  0  0  0  0  0  0  0  0  0  0
  -25.6549  -14.9275   20.1648 N   0  0  0  0  0  0  0  0  0  0  0  0
  -25.2309  -10.5946   18.9636 N   0  0  0  0  0  0  0  0  0  0  0  0
  -23.0688  -18.8882   20.8028 N   0  0  0  0  0  0  0  0  0  0  0  0
  -28.0565  -29.5749   22.6262 N   0  0  0  0  0  0  0  0  0  0  0  0
  -24.8465  -21.2424   16.1986 N   0  0  0  0  0  0  0  0  0  0  0  0
  -21.4096  -28.1231   22.2109 N   0  0  0  0  0  0  0  0  0  0  0  0
  -19.4287  -27.9128   19.1944 N   0  3  0  0  0  0  0  0  0  0  0  0
  -26.3256  -12.5561   18.5023 O   0  0  0  0  0  0  0  0  0  0  0  0
  -26.7100  -27.8134   23.3378 O   0  0  0  0  0  0  0  0  0  0  0  0
  -23.5577  -29.8485   22.9964 O   0  0  0  0  0  0  0  0  0  0  0  0
  -24.5974  -23.5473   16.0395 O   0  0  0  0  0  0  0  0  0  0  0  0
  -21.2815  -26.3947   20.6704 O   0  0  0  0  0  0  0  0  0  0  0  0
  -22.4740  -19.7663   22.8660 O   0  0  0  0  0  0  0  0  0  0  0  0
  -21.8726   -6.8337   21.3328 O   0  0  0  0  0  0  0  0  0  0  0  0
  -27.0498  -23.9645   17.9922 O   0  0  0  0  0  0  0  0  0  1  0  0
  -21.4612   -4.4195   26.2730 F   0  0  0  0  0  0  0  0  0  0  0  0
  -23.2640   -4.5125   21.8974 F   0  0  0  0  0  0  0  0  0  0  0  0
  -20.6974  -23.3480   19.9430 Cl  0  0  0  0  0  0  0  0  0  0  0  0
  1  2  1  0  0  0  0
  1  5  2  0  0  0  0
  2  6  2  0  0  0  0
  3  8  2  0  0  0  0
  3 17  1  0  0  0  0
  4  9  1  0  0  0  0
  4 17  2  0  0  0  0
  5 19  1  0  0  0  0
  6 21  1  0  0  0  0
  7 10  2  0  0  0  0
  7 20  1  0  0  0  0
  8 26  1  0  0  0  0
  9 26  2  0  0  0  0
 10 27  1  0  0  0  0
 11 12  2  0  0  0  0
 11 28  1  0  0  0  0
 12 29  1  0  0  0  0
 13 22  1  0  0  0  0
 13 27  2  0  0  0  0
 14 23  1  0  0  0  0
 14 31  2  0  0  0  0
 15 25  2  0  0  0  0
 15 31  1  0  0  0  0
 16 29  2  0  0  0  0
 16 30  1  0  0  0  0
 17 32  1  0  0  0  0
 18 32  1  0  0  0  0
 18 33  2  0  0  0  0
 18 34  1  0  0  0  0
 19 21  2  0  0  0  0
 19 40  1  0  0  0  0
 20 22  2  0  0  0  0
 20 41  1  0  0  0  0
 21 49  1  0  0  0  0
 22 42  1  0  0  0  0
 23 24  2  0  0  0  0
 23 58  1  0  0  0  0
 24 25  1  0  0  0  0
 24 52  1  0  0  0  0
 25 70  1  0  0  0  0
 26 81  1  0  0  0  0
 27 82  1  0  0  0  0
 28 30  2  0  0  0  0
 28 81  1  0  0  0  0
 29 83  1  0  0  0  0
 30 84  1  0  0  0  0
 31 85  1  0  0  0  0
 32 64  2  0  0  0  0
 33 65  1  0  0  0  0
 33 68  1  0  0  0  0
 34 69  1  0  0  0  0
 34 75  2  0  0  0  0
 35 50  1  0  0  0  0
 35 71  1  0  0  0  0
 35 76  2  0  0  0  0
 36 61  1  0  0  0  0
 36 66  1  0  0  0  0
 36 77  2  0  0  0  0
 37 59  1  0  0  0  0
 37 72  1  0  0  0  0
 37 78  2  0  0  0  0
 38 62  1  0  0  0  0
 38 73  1  0  0  0  0
 38 79  2  0  0  0  0
 39 67  1  0  0  0  0
 39 70  1  0  0  0  0
 39 80  2  0  0  0  0
 40 43  1  0  0  0  0
 41 50  1  0  0  0  0
 42 66  1  0  0  0  0
 43 45  1  0  0  0  0
 44 46  1  0  0  0  0
 44 47  1  0  0  0  0
 45 49  1  0  0  0  0
 46 51  1  0  0  0  0
 47 67  1  0  0  0  0
 48 51  1  0  0  0  0
 48 67  1  0  0  0  0
 49 71  1  0  0  0  0
 50 66  1  0  0  0  0
 51 65  1  0  0  0  0
 53 62  1  0  0  0  0
 54 63  1  0  0  0  0
 55 63  1  0  0  0  0
 56 63  1  0  0  0  0
 57 74  1  0  0  0  0
 58 72  1  0  0  0  0
 59 60  1  0  0  0  0
 60 82  1  0  0  0  0
 61 63  1  0  0  0  0
 61 73  1  0  0  0  0
 62 74  1  0  0  0  0
 64 65  1  0  0  0  0
M  CHG  1  74   1
M  ISO  4  39 100  60 101  70 100  82 101
M  END
> <Batch ID>
0050

> <Smiles>
CNC(C)C(=O)NC(C(=O)N1Cc2cc([101O:1][101CH2:1]CC(=O)NCc3cc(Cl)cc([100NH:0][100C:0](=O)N4CCCC(n5nc(-c6ccc(Oc7ccc(F)cc7F)cc6)c(C(N)=O)c5N)C4)c3C)ccc2CC1C(=O)NC1CCCc2ccccc21)C(C)(C)C

> <Shape>
0.192

> <Color>
0.111

> <Negative vol penalty>
0.000

$$$$

  -OEChem-04042322353D

 87 95  0     1  0  0  0  0  0999 V2000
  -28.9496  -24.7171   17.1835 C   0  0  0  0  0  0  0  0  0  0  0  0
  -27.7325  -24.8323   17.8475 C   0  0  0  0  0  0  0  0  0  0  0  0
  -29.9542  -20.6270   23.3257 C   0  0  0  0  0  0  0  0  0  0  0  0
  -27.8925  -21.7461   22.7479 C   0  0  0  0  0  0  0  0  0  0  0  0
  -30.0820  -25.3529   17.6907 C   0  0  0  0  0  0  0  0  0  0  0  0
  -27.6475  -25.5826   19.0198 C   0  0  0  0  0  0  0  0  0  0  0  0
  -23.5795  -28.5974   19.1061 C   0  0  0  0  0  0  0  0  0  0  0  0
  -30.1171  -20.2404   21.9954 C   0  0  0  0  0  0  0  0  0  0  0  0
  -28.0554  -21.3596   21.4176 C   0  0  0  0  0  0  0  0  0  0  0  0
  -22.3537  -28.0044   19.4053 C   0  0  0  0  0  0  0  0  0  0  0  0
  -30.8906  -18.6532   18.8164 C   0  0  0  0  0  0  0  0  0  0  0  0
  -31.2689  -17.3345   18.5644 C   0  0  0  0  0  0  0  0  0  0  0  0
  -20.0704  -20.6457   25.9655 C   0  0  0  0  0  0  0  0  0  0  0  0
  -22.5311  -28.7976   21.6765 C   0  0  0  0  0  0  0  0  0  0  0  0
  -20.9198  -22.7008   27.6500 C   0  0  0  0  0  0  0  0  0  0  0  0
  -29.2683  -16.5496   19.6682 C   0  0  0  0  0  0  0  0  0  0  0  0
  -28.8418  -21.3798   23.7019 C   0  0  0  0  0  0  0  0  0  0  0  0
  -19.7340  -21.9682   25.6766 C   0  0  0  0  0  0  0  0  0  0  0  0
  -29.1431  -22.9591   25.6826 C   0  0  0  0  0  0  0  0  0  0  0  0
  -30.0087  -26.1192   18.8646 C   0  0  0  0  0  0  0  0  0  0  0  0
  -24.2967  -29.2869   20.0944 C   0  0  0  0  0  0  0  0  0  0  0  0
  -28.7803  -26.2281   19.5440 C   0  0  0  0  0  0  0  0  0  0  0  0
  -23.7646  -29.4007   21.3867 C   0  0  0  0  0  0  0  0  0  0  0  0
  -20.1587  -22.9957   26.5189 C   0  0  0  0  0  0  0  0  0  0  0  0
  -21.2562  -21.3783   27.9389 C   0  0  0  0  0  0  0  0  0  0  0  0
  -29.1678  -20.6067   21.0414 C   0  0  0  0  0  0  0  0  0  0  0  0
  -21.8307  -28.1020   20.6914 C   0  0  0  0  0  0  0  0  0  0  0  0
  -29.7012  -18.9201   19.4944 C   0  0  0  0  0  0  0  0  0  0  0  0
  -30.4578  -16.2827   18.9902 C   0  0  0  0  0  0  0  0  0  0  0  0
  -20.8315  -20.3507   27.0966 C   0  0  0  0  0  0  0  0  0  0  0  0
  -28.8900  -17.8683   19.9202 C   0  0  0  0  0  0  0  0  0  0  0  0
  -28.6726  -21.7790   25.0760 C   0  0  0  0  0  0  0  0  0  0  0  0
  -28.7251  -22.8646   26.9875 C   0  0  0  0  0  0  0  0  0  0  0  0
  -19.6593  -24.2566   21.4686 C   0  0  0  0  0  0  0  0  0  0  0  0
  -19.3765  -25.5128   21.0942 C   0  0  0  0  0  0  0  0  0  0  0  0
  -18.9277  -22.2578   24.4739 C   0  0  0  0  0  0  0  0  0  0  0  0
  -29.8909  -24.0437   25.1169 C   0  0  0  0  0  0  0  0  0  0  0  0
  -27.1399  -28.9224   21.4682 C   0  0  0  0  0  0  0  0  0  0  0  0
  -26.3928  -31.7522   22.8668 C   0  0  0  0  0  0  0  0  0  0  0  0
  -23.9720  -33.9411   23.8645 C   0  0  0  0  0  0  0  0  0  0  0  0
  -24.2233  -19.9268   29.6246 C   0  0  0  0  0  0  0  0  0  0  0  0
  -31.2701  -26.7491   19.4002 C   0  0  0  0  0  0  0  0  0  0  0  0
  -25.6049  -29.9438   19.7488 C   0  0  0  0  0  0  0  0  0  0  0  0
  -24.4855  -30.1471   22.4783 C   0  0  0  0  0  0  0  0  0  0  0  0
  -31.0137  -27.8334   20.4437 C   0  0  0  0  0  0  0  0  0  0  0  0
  -27.6938  -19.6362   30.3646 C   0  0  0  0  0  0  0  0  0  0  0  0
  -29.9909  -27.3559   21.4697 C   0  0  0  0  0  0  0  0  0  0  0  0
  -28.3807  -20.2589   29.1478 C   0  0  0  0  0  0  0  0  0  0  0  0
  -26.4354  -18.8665   29.9698 C   0  0  0  0  0  0  0  0  0  0  0  0
  -26.1486  -20.2604   27.9577 C   0  0  0  0  0  0  0  0  0  0  0  0
  -28.6425  -27.0534   20.8049 C   0  0  1  0  0  0  0  0  0  0  0  0
  -26.4937  -30.1823   20.9656 C   0  0  1  0  0  0  0  0  0  0  0  0
  -27.3920  -21.0939   28.3121 C   0  0  2  0  0  0  0  0  0  0  0  0
  -19.8098  -24.4194   26.2305 C   0  0  0  0  0  0  0  0  0  0  0  0
  -23.6667  -36.1511   25.0135 C   0  0  0  0  0  0  0  0  0  0  0  0
  -26.9574  -30.4286   25.5574 C   0  0  0  0  0  0  0  0  0  0  0  0
  -25.7485  -32.3216   26.6636 C   0  0  0  0  0  0  0  0  0  0  0  0
  -27.8182  -32.7670   25.3441 C   0  0  0  0  0  0  0  0  0  0  0  0
  -22.6853  -35.1338   21.4811 C   0  0  0  0  0  0  0  0  0  0  0  0
  -22.0703  -21.0658   29.1490 C   0  0  0  0  0  0  0  0  0  0  0  0
  -18.7488  -23.4154   22.3003 C   0  0  0  0  0  0  0  0  0  0  0  0
  -20.2817  -26.3515   20.2526 C   0  0  0  0  0  0  0  0  0  1  0  0
  -25.6821  -32.1641   24.1334 C   0  0  1  0  0  0  0  0  0  0  0  0
  -23.8318  -35.4412   23.6787 C   0  0  2  0  0  0  0  0  0  0  0  0
  -26.5386  -31.9045   25.4048 C   0  0  0  0  0  0  0  0  0  0  0  0
  -28.0069  -20.9925   25.9259 N   0  0  0  0  0  0  0  0  0  0  0  0
  -28.0561  -21.6796   27.0798 N   0  0  0  0  0  0  0  0  0  0  0  0
  -25.7640  -30.7668   22.0926 N   0  0  0  0  0  0  0  0  0  0  0  0
  -25.5391  -19.7152   29.1809 N   0  0  0  0  0  0  0  0  0  0  0  0
  -28.8683  -23.6803   28.0536 N   0  0  0  0  0  0  0  0  0  0  0  0
  -17.7158  -21.7101   24.3833 N   0  0  0  0  0  0  0  0  0  0  0  0
  -30.2376  -23.9805   23.7604 N   0  0  0  0  0  0  0  0  0  0  0  0
  -27.9274  -28.2814   20.5309 N   0  0  0  0  0  0  0  0  0  0  0  0
  -25.2940  -33.5583   23.9488 N   0  0  0  0  0  0  0  0  0  0  0  0
  -23.4425  -20.7490   28.8214 N   0  0  0  0  0  0  0  0  0  0  0  0
  -19.4507  -23.0533   23.5312 N   0  3  0  0  0  0  0  0  0  0  0  0
  -22.6446  -35.7496   22.8324 N   0  3  0  0  0  0  0  0  0  0  0  0
  -30.2554  -25.0318   25.7983 O   0  0  0  0  0  0  0  0  0  0  0  0
  -26.9401  -28.5594   22.6215 O   0  0  0  0  0  0  0  0  0  0  0  0
  -27.4629  -32.2903   22.5715 O   0  0  0  0  0  0  0  0  0  0  0  0
  -23.0054  -33.1850   23.9321 O   0  0  0  0  0  0  0  0  0  0  0  0
  -23.7790  -19.4247   30.6626 O   0  0  0  0  0  0  0  0  0  0  0  0
  -29.3266  -20.2299   19.7432 O   0  0  0  0  0  0  0  0  0  0  0  0
  -20.6348  -27.5235   20.9862 O   0  0  0  0  0  0  0  0  0  1  0  0
  -30.8204  -15.0165   18.7467 F   0  0  0  0  0  0  0  0  0  0  0  0
  -21.1507  -19.0772   27.3664 F   0  0  0  0  0  0  0  0  0  0  0  0
  -27.7456  -18.1185   20.5710 F   0  0  0  0  0  0  0  0  0  0  0  0
  1  2  1  0  0  0  0
  1  5  2  0  0  0  0
  2  6  2  0  0  0  0
  3  8  2  0  0  0  0
  3 17  1  0  0  0  0
  4  9  1  0  0  0  0
  4 17  2  0  0  0  0
  5 20  1  0  0  0  0
  6 22  1  0  0  0  0
  7 10  2  0  0  0  0
  7 21  1  0  0  0  0
  8 26  1  0  0  0  0
  9 26  2  0  0  0  0
 10 27  1  0  0  0  0
 11 12  2  0  0  0  0
 11 28  1  0  0  0  0
 12 29  1  0  0  0  0
 13 18  1  0  0  0  0
 13 30  2  0  0  0  0
 14 23  1  0  0  0  0
 14 27  2  0  0  0  0
 15 24  1  0  0  0  0
 15 25  2  0  0  0  0
 16 29  2  0  0  0  0
 16 31  1  0  0  0  0
 17 32  1  0  0  0  0
 18 24  2  0  0  0  0
 18 36  1  0  0  0  0
 19 32  1  0  0  0  0
 19 33  2  0  0  0  0
 19 37  1  0  0  0  0
 20 22  2  0  0  0  0
 20 42  1  0  0  0  0
 21 23  2  0  0  0  0
 21 43  1  0  0  0  0
 22 51  1  0  0  0  0
 23 44  1  0  0  0  0
 24 54  1  0  0  0  0
 25 30  1  0  0  0  0
 25 60  1  0  0  0  0
 26 83  1  0  0  0  0
 27 84  1  0  0  0  0
 28 31  2  0  0  0  0
 28 83  1  0  0  0  0
 29 85  1  0  0  0  0
 30 86  1  0  0  0  0
 31 87  1  0  0  0  0
 32 66  2  0  0  0  0
 33 67  1  0  0  0  0
 33 70  1  0  0  0  0
 34 35  2  0  0  0  0
 34 61  1  0  0  0  0
 35 62  1  0  0  0  0
 36 71  1  0  0  0  0
 36 76  2  0  0  0  0
 37 72  1  0  0  0  0
 37 78  2  0  0  0  0
 38 52  1  0  0  0  0
 38 73  1  0  0  0  0
 38 79  2  0  0  0  0
 39 63  1  0  0  0  0
 39 68  1  0  0  0  0
 39 80  2  0  0  0  0
 40 64  1  0  0  0  0
 40 74  1  0  0  0  0
 40 81  2  0  0  0  0
 41 69  1  0  0  0  0
 41 75  1  0  0  0  0
 41 82  2  0  0  0  0
 42 45  1  0  0  0  0
 43 52  1  0  0  0  0
 44 68  1  0  0  0  0
 45 47  1  0  0  0  0
 46 48  1  0  0  0  0
 46 49  1  0  0  0  0
 47 51  1  0  0  0  0
 48 53  1  0  0  0  0
 49 69  1  0  0  0  0
 50 53  1  0  0  0  0
 50 69  1  0  0  0  0
 51 73  1  0  0  0  0
 52 68  1  0  0  0  0
 53 67  1  0  0  0  0
 55 64  1  0  0  0  0
 56 65  1  0  0  0  0
 57 65  1  0  0  0  0
 58 65  1  0  0  0  0
 59 77  1  0  0  0  0
 60 75  1  0  0  0  0
 61 76  1  0  0  0  0
 62 84  1  0  0  0  0
 63 65  1  0  0  0  0
 63 74  1  0  0  0  0
 64 77  1  0  0  0  0
 66 67  1  0  0  0  0
M  CHG  2  76   1  77   1
M  ISO  4  41 100  62 101  75 100  84 101
M  END
> <Batch ID>
0050

> <Smiles>
CNC(C)C(=O)NC(C(=O)N1Cc2cc([101O:1][101CH2:1]C=CCNC(=N)c3cc(F)c(C[100NH:0][100C:0](=O)N4CCCC(n5nc(-c6ccc(Oc7ccc(F)cc7F)cc6)c(C(N)=O)c5N)C4)cc3C)ccc2CC1C(=O)NC1CCCc2ccccc21)C(C)(C)C

> <Shape>
0.226

> <Color>
0.066

> <Negative vol penalty>
0.000

$$$$

  -OEChem-04042322353D

 91100  0     1  0  0  0  0  0999 V2000
  -26.9743  -33.2589   26.9426 C   0  0  0  0  0  0  0  0  0  0  0  0
  -27.3427  -32.1733   26.1544 C   0  0  0  0  0  0  0  0  0  0  0  0
  -23.8054   -9.1012   19.6833 C   0  0  0  0  0  0  0  0  0  0  0  0
  -23.7699   -9.7860   21.9999 C   0  0  0  0  0  0  0  0  0  0  0  0
  -25.6290  -33.4853   27.2303 C   0  0  0  0  0  0  0  0  0  0  0  0
  -26.3659  -31.3129   25.6543 C   0  0  0  0  0  0  0  0  0  0  0  0
  -27.0973  -30.1700   20.7754 C   0  0  0  0  0  0  0  0  0  0  0  0
  -22.4204  -20.3604   16.6709 C   0  0  0  0  0  0  0  0  0  0  0  0
  -22.9785  -19.3478   17.4510 C   0  0  0  0  0  0  0  0  0  0  0  0
  -22.8524   -8.1206   19.9585 C   0  0  0  0  0  0  0  0  0  0  0  0
  -22.8168   -8.8054   22.2752 C   0  0  0  0  0  0  0  0  0  0  0  0
  -28.0742  -29.2190   20.4837 C   0  0  0  0  0  0  0  0  0  0  0  0
  -20.6407   -6.2466   23.6632 C   0  0  0  0  0  0  0  0  0  0  0  0
  -20.8214   -5.4700   24.8077 C   0  0  0  0  0  0  0  0  0  0  0  0
  -26.3585  -27.5412   20.2372 C   0  0  0  0  0  0  0  0  0  0  0  0
  -24.0841  -21.0077   18.8146 C   0  0  0  0  0  0  0  0  0  0  0  0
  -22.9377   -4.6883   23.9431 C   0  0  0  0  0  0  0  0  0  0  0  0
  -24.2642   -9.9339   20.7040 C   0  0  0  0  0  0  0  0  0  0  0  0
  -26.5478  -10.7513   19.9136 C   0  0  0  0  0  0  0  0  0  0  0  0
  -24.6345  -32.6328   26.7255 C   0  0  0  0  0  0  0  0  0  0  0  0
  -25.7423  -29.8107   20.8109 C   0  0  0  0  0  0  0  0  0  0  0  0
  -25.0062  -31.5274   25.9366 C   0  0  0  0  0  0  0  0  0  0  0  0
  -25.3662  -28.4901   20.5270 C   0  0  0  0  0  0  0  0  0  0  0  0
  -22.6942  -21.6967   16.9625 C   0  0  0  0  0  0  0  0  0  0  0  0
  -23.5260  -22.0203   18.0344 C   0  0  0  0  0  0  0  0  0  0  0  0
  -23.8103  -19.6714   18.5229 C   0  0  0  0  0  0  0  0  0  0  0  0
  -22.3581   -7.9727   21.2544 C   0  0  0  0  0  0  0  0  0  0  0  0
  -27.7051  -27.9037   20.2174 C   0  0  0  0  0  0  0  0  0  0  0  0
  -21.6084   -6.2439   22.6586 C   0  0  0  0  0  0  0  0  0  0  0  0
  -21.9699   -4.6909   24.9477 C   0  0  0  0  0  0  0  0  0  0  0  0
  -22.7569   -5.4648   22.7986 C   0  0  0  0  0  0  0  0  0  0  0  0
  -25.2490  -10.9467   20.4204 C   0  0  0  0  0  0  0  0  0  0  0  0
  -27.0754  -12.0162   19.8242 C   0  0  0  0  0  0  0  0  0  0  0  0
  -27.8962  -25.4364   18.2007 C   0  0  0  0  0  0  0  0  0  0  0  0
  -27.9398  -26.4080   17.2741 C   0  0  0  0  0  0  0  0  0  0  0  0
  -27.2173   -9.5351   19.5555 C   0  0  0  0  0  0  0  0  0  0  0  0
  -23.4803  -29.8076   23.0441 C   0  0  0  0  0  0  0  0  0  0  0  0
  -21.5721  -28.9721   20.5575 C   0  0  0  0  0  0  0  0  0  0  0  0
  -21.3010  -27.5758   17.4552 C   0  0  0  0  0  0  0  0  0  0  0  0
  -25.0774  -23.9162   17.6203 C   0  0  0  0  0  0  0  0  0  0  0  0
  -24.2108  -17.2627   19.1729 C   0  0  0  0  0  0  0  0  0  0  0  0
  -23.1971  -32.8909   27.1025 C   0  0  0  0  0  0  0  0  0  0  0  0
  -24.6986  -30.8543   21.1009 C   0  0  0  0  0  0  0  0  0  0  0  0
  -23.9235  -28.0577   20.5325 C   0  0  0  0  0  0  0  0  0  0  0  0
  -22.1941  -32.1475   26.2241 C   0  0  0  0  0  0  0  0  0  0  0  0
  -28.9170  -23.2154   19.8200 C   0  0  0  0  0  0  0  0  0  0  0  0
  -26.1093  -16.0683   22.2863 C   0  0  0  0  0  0  0  0  0  0  0  0
  -22.6120  -30.6906   26.0521 C   0  0  0  0  0  0  0  0  0  0  0  0
  -28.6200  -23.0359   18.3303 C   0  0  0  0  0  0  0  0  0  0  0  0
  -29.2822  -24.6622   20.1432 C   0  0  0  0  0  0  0  0  0  0  0  0
  -26.7822  -14.8242   21.7111 C   0  0  0  0  0  0  0  0  0  0  0  0
  -25.7385  -17.0761   21.2056 C   0  0  0  0  0  0  0  0  0  0  0  0
  -24.8096  -15.0338   20.1001 C   0  0  0  0  0  0  0  0  0  0  0  0
  -23.9739  -30.5858   25.3552 C   0  0  1  0  0  0  0  0  0  0  0  0
  -27.5558  -24.0121   17.8130 C   0  0  1  0  0  0  0  0  0  0  0  0
  -28.2083  -25.6466   19.6704 C   0  0  1  0  0  0  0  0  0  1  0  0
  -23.3895  -30.2634   21.6152 C   0  0  1  0  0  0  0  0  0  0  0  0
  -26.1699  -14.3721   20.3706 C   0  0  2  0  0  0  0  0  0  0  0  0
  -22.0857  -22.7634   16.1126 C   0  0  0  0  0  0  0  0  0  0  0  0
  -19.6070  -26.9986   15.6960 C   0  0  0  0  0  0  0  0  0  0  0  0
  -20.6616  -26.5823   22.2218 C   0  0  0  0  0  0  0  0  0  0  0  0
  -19.7475  -25.5603   20.1270 C   0  0  0  0  0  0  0  0  0  0  0  0
  -18.8347  -27.7287   20.9559 C   0  0  0  0  0  0  0  0  0  0  0  0
  -22.5919  -29.3468   15.4662 C   0  0  0  0  0  0  0  0  0  0  0  0
  -21.1443  -27.6676   19.9294 C   0  0  1  0  0  0  0  0  0  0  0  0
  -20.5903  -28.0444   16.1983 C   0  0  2  0  0  0  0  0  0  0  0  0
  -23.8354  -23.4620   18.3709 C   0  0  0  0  0  0  0  0  0  0  0  0
  -20.1244  -26.8921   20.8102 C   0  0  0  0  0  0  0  0  0  0  0  0
  -24.9688  -12.2344   20.6380 N   0  0  0  0  0  0  0  0  0  0  0  0
  -26.0988  -12.8595   20.2661 N   0  0  0  0  0  0  0  0  0  0  0  0
  -22.9406  -29.1134   20.8278 N   0  0  0  0  0  0  0  0  0  0  0  0
  -24.9148  -16.4971   20.1343 N   0  0  0  0  0  0  0  0  0  0  0  0
  -28.2749  -12.4783   19.4116 N   0  0  0  0  0  0  0  0  0  0  0  0
  -27.9627   -8.8686   20.5375 N   0  0  0  0  0  0  0  0  0  0  0  0
  -24.3761  -18.6428   19.3171 N   0  0  0  0  0  0  0  0  0  0  0  0
  -23.8317  -30.8063   23.9320 N   0  0  0  0  0  0  0  0  0  0  0  0
  -26.2443  -23.6927   18.3296 N   0  0  0  0  0  0  0  0  0  0  0  0
  -20.6524  -27.9984   18.5963 N   0  0  0  0  0  0  0  0  0  0  0  0
  -21.5779  -28.3189   15.1166 N   0  3  0  0  0  0  0  0  0  0  0  0
  -27.1698   -9.0623   18.3945 O   0  0  0  0  0  0  0  0  0  0  0  0
  -23.2472  -28.6367   23.3207 O   0  0  0  0  0  0  0  0  0  0  0  0
  -20.7243  -29.8367   20.7928 O   0  0  0  0  0  0  0  0  0  0  0  0
  -22.3266  -26.8992   17.4275 O   0  0  0  0  0  0  0  0  0  0  0  0
  -25.0086  -24.4010   16.4928 O   0  0  0  0  0  0  0  0  0  0  0  0
  -23.5320  -16.7308   18.2920 O   0  0  0  0  0  0  0  0  0  0  0  0
  -21.4279   -7.0161   21.5233 O   0  0  0  0  0  0  0  0  0  0  0  0
  -28.6566  -26.9733   19.9330 O   0  0  0  0  0  0  0  0  0  1  0  0
  -22.1440   -3.9464   26.0475 F   0  0  0  0  0  0  0  0  0  0  0  0
  -23.6907   -5.4592   21.8374 F   0  0  0  0  0  0  0  0  0  0  0  0
  -23.9976  -23.6475   19.7165 F   0  0  0  0  0  0  0  0  0  0  0  0
  -22.7936  -24.2860   18.0420 F   0  0  0  0  0  0  0  0  0  0  0  0
  1  2  1  0  0  0  0
  1  5  2  0  0  0  0
  2  6  2  0  0  0  0
  3 10  2  0  0  0  0
  3 18  1  0  0  0  0
  4 11  1  0  0  0  0
  4 18  2  0  0  0  0
  5 20  1  0  0  0  0
  6 22  1  0  0  0  0
  7 12  2  0  0  0  0
  7 21  1  0  0  0  0
  8  9  2  0  0  0  0
  8 24  1  0  0  0  0
  9 26  1  0  0  0  0
 10 27  1  0  0  0  0
 11 27  2  0  0  0  0
 12 28  1  0  0  0  0
 13 14  2  0  0  0  0
 13 29  1  0  0  0  0
 14 30  1  0  0  0  0
 15 23  1  0  0  0  0
 15 28  2  0  0  0  0
 16 25  1  0  0  0  0
 16 26  2  0  0  0  0
 17 30  2  0  0  0  0
 17 31  1  0  0  0  0
 18 32  1  0  0  0  0
 19 32  1  0  0  0  0
 19 33  2  0  0  0  0
 19 36  1  0  0  0  0
 20 22  2  0  0  0  0
 20 42  1  0  0  0  0
 21 23  2  0  0  0  0
 21 43  1  0  0  0  0
 22 54  1  0  0  0  0
 23 44  1  0  0  0  0
 24 25  2  0  0  0  0
 24 59  1  0  0  0  0
 25 67  1  0  0  0  0
 26 75  1  0  0  0  0
 27 86  1  0  0  0  0
 28 87  1  0  0  0  0
 29 31  2  0  0  0  0
 29 86  1  0  0  0  0
 30 88  1  0  0  0  0
 31 89  1  0  0  0  0
 32 69  2  0  0  0  0
 33 70  1  0  0  0  0
 33 73  1  0  0  0  0
 34 35  2  0  0  0  0
 34 55  1  0  0  0  0
 34 56  1  0  0  0  0
 36 74  1  0  0  0  0
 36 80  2  0  0  0  0
 37 57  1  0  0  0  0
 37 76  1  0  0  0  0
 37 81  2  0  0  0  0
 38 65  1  0  0  0  0
 38 71  1  0  0  0  0
 38 82  2  0  0  0  0
 39 66  1  0  0  0  0
 39 78  1  0  0  0  0
 39 83  2  0  0  0  0
 40 67  1  0  0  0  0
 40 77  1  0  0  0  0
 40 84  2  0  0  0  0
 41 72  1  0  0  0  0
 41 75  1  0  0  0  0
 41 85  2  0  0  0  0
 42 45  1  0  0  0  0
 43 57  1  0  0  0  0
 44 71  1  0  0  0  0
 45 48  1  0  0  0  0
 46 49  1  0  0  0  0
 46 50  1  0  0  0  0
 47 51  1  0  0  0  0
 47 52  1  0  0  0  0
 48 54  1  0  0  0  0
 49 55  1  0  0  0  0
 50 56  1  0  0  0  0
 51 58  1  0  0  0  0
 52 72  1  0  0  0  0
 53 58  1  0  0  0  0
 53 72  1  0  0  0  0
 54 76  1  0  0  0  0
 55 77  1  0  0  0  0
 56 87  1  0  0  0  0
 57 71  1  0  0  0  0
 58 70  1  0  0  0  0
 60 66  1  0  0  0  0
 61 68  1  0  0  0  0
 62 68  1  0  0  0  0
 63 68  1  0  0  0  0
 64 79  1  0  0  0  0
 65 68  1  0  0  0  0
 65 78  1  0  0  0  0
 66 79  1  0  0  0  0
 67 90  1  0  0  0  0
 67 91  1  0  0  0  0
 69 70  1  0  0  0  0
M  CHG  1  79   1
M  ISO  4  41 100  56 101  75 100  87 101
M  END
> <Batch ID>
0050

> <Smiles>
C=C1C(NC(=O)C(F)(F)c2cc([100NH:0][100C:0](=O)N3CCCC(n4nc(-c5ccc(Oc6ccc(F)cc6F)cc5)c(C(N)=O)c4N)C3)ccc2C)CCC[101CH:1]1[101O:1]c1ccc2c(c1)CN(C(=O)C(NC(=O)C(C)NC)C(C)(C)C)C(C(=O)NC1CCCc3ccccc31)C2

> <Shape>
0.270

> <Color>
0.116

> <Negative vol penalty>
0.000

$$$$

  -OEChem-04042322353D

 91100  0     1  0  0  0  0  0999 V2000
  -16.8887  -28.5699   24.1855 C   0  0  0  0  0  0  0  0  0  0  0  0
  -17.5607  -27.7474   23.2869 C   0  0  0  0  0  0  0  0  0  0  0  0
  -26.2935  -10.7854   20.7694 C   0  0  0  0  0  0  0  0  0  0  0  0
  -25.4618  -12.8893   19.9216 C   0  0  0  0  0  0  0  0  0  0  0  0
  -17.2843  -29.8974   24.3437 C   0  0  0  0  0  0  0  0  0  0  0  0
  -18.6279  -28.2525   22.5450 C   0  0  0  0  0  0  0  0  0  0  0  0
  -22.5844  -25.0935   22.4347 C   0  0  0  0  0  0  0  0  0  0  0  0
  -24.9864  -10.3727   21.0278 C   0  0  0  0  0  0  0  0  0  0  0  0
  -24.1546  -12.4766   20.1800 C   0  0  0  0  0  0  0  0  0  0  0  0
  -22.5060  -24.0049   21.5672 C   0  0  0  0  0  0  0  0  0  0  0  0
  -22.3689   -9.1457   19.2739 C   0  0  0  0  0  0  0  0  0  0  0  0
  -22.0113   -7.8513   18.8969 C   0  0  0  0  0  0  0  0  0  0  0  0
  -23.8759  -25.1858   19.9710 C   0  0  0  0  0  0  0  0  0  0  0  0
  -28.7658  -19.7584   17.7297 C   0  0  0  0  0  0  0  0  0  0  0  0
  -29.7545  -20.9687   19.5723 C   0  0  0  0  0  0  0  0  0  0  0  0
  -21.4890   -7.3258   21.1965 C   0  0  0  0  0  0  0  0  0  0  0  0
  -26.5312  -12.0437   20.2164 C   0  0  0  0  0  0  0  0  0  0  0  0
  -28.8157  -11.8527   19.0974 C   0  0  0  0  0  0  0  0  0  0  0  0
  -18.3631  -30.4163   23.6105 C   0  0  0  0  0  0  0  0  0  0  0  0
  -23.3013  -26.2427   22.0717 C   0  0  0  0  0  0  0  0  0  0  0  0
  -19.0374  -29.5886   22.6925 C   0  0  0  0  0  0  0  0  0  0  0  0
  -23.9641  -26.2867   20.8367 C   0  0  0  0  0  0  0  0  0  0  0  0
  -28.2584  -20.9525   17.2176 C   0  0  0  0  0  0  0  0  0  0  0  0
  -29.2471  -22.1628   19.0601 C   0  0  0  0  0  0  0  0  0  0  0  0
  -28.4990  -22.1547   17.8828 C   0  0  0  0  0  0  0  0  0  0  0  0
  -29.5138  -19.7665   18.9071 C   0  0  0  0  0  0  0  0  0  0  0  0
  -23.9170  -11.2183   20.7331 C   0  0  0  0  0  0  0  0  0  0  0  0
  -23.1494  -24.0521   20.3340 C   0  0  0  0  0  0  0  0  0  0  0  0
  -22.2867   -9.5302   20.6122 C   0  0  0  0  0  0  0  0  0  0  0  0
  -21.5713   -6.9413   19.8582 C   0  0  0  0  0  0  0  0  0  0  0  0
  -21.8467   -8.6202   21.5735 C   0  0  0  0  0  0  0  0  0  0  0  0
  -27.8813  -12.4708   19.9498 C   0  0  0  0  0  0  0  0  0  0  0  0
  -29.9381  -12.6389   19.1907 C   0  0  0  0  0  0  0  0  0  0  0  0
  -25.3002  -22.1071   15.6219 C   0  0  0  0  0  0  0  0  0  0  0  0
  -28.6812  -10.6734   18.2931 C   0  0  0  0  0  0  0  0  0  0  0  0
  -22.5555  -29.2966   21.6013 C   0  0  0  0  0  0  0  0  0  0  0  0
  -25.7672  -29.6290   21.2904 C   0  0  0  0  0  0  0  0  0  0  0  0
  -28.7724  -28.1847   20.5628 C   0  0  0  0  0  0  0  0  0  0  0  0
  -30.7917  -18.3867   20.5833 C   0  0  0  0  0  0  0  0  0  0  0  0
  -18.7239  -31.8708   23.7808 C   0  0  0  0  0  0  0  0  0  0  0  0
  -23.3985  -27.3981   23.0298 C   0  0  0  0  0  0  0  0  0  0  0  0
  -24.7635  -27.4890   20.4081 C   0  0  0  0  0  0  0  0  0  0  0  0
  -23.8202  -22.0473   15.9471 C   0  0  0  0  0  0  0  0  0  0  0  0
  -20.1035  -32.2245   23.2314 C   0  0  0  0  0  0  0  0  0  0  0  0
  -32.2196  -15.5647   22.2187 C   0  0  0  0  0  0  0  0  0  0  0  0
  -20.2952  -31.6236   21.8425 C   0  0  0  0  0  0  0  0  0  0  0  0
  -31.3579  -14.3939   21.7401 C   0  0  0  0  0  0  0  0  0  0  0  0
  -24.4342  -20.6826   18.0219 C   0  0  0  0  0  0  0  0  0  0  0  0
  -31.3909  -16.8311   22.4262 C   0  0  0  0  0  0  0  0  0  0  0  0
  -25.3583  -20.0502   16.9881 C   0  0  0  0  0  0  0  0  0  0  0  0
  -29.7109  -16.0624   20.7964 C   0  0  0  0  0  0  0  0  0  0  0  0
  -20.2157  -30.0929   21.8879 C   0  0  1  0  0  0  0  0  0  0  0  0
  -23.7285  -28.7190   22.3416 C   0  0  1  0  0  0  0  0  0  0  0  0
  -23.5645  -21.8135   17.4407 C   0  0  1  0  0  0  0  0  0  0  0  0
  -30.5125  -14.7819   20.5112 C   0  0  2  0  0  0  0  0  0  0  0  0
  -27.9553  -23.4352   17.3332 C   0  0  0  0  0  0  0  0  0  0  0  0
  -31.2157  -28.7184   20.3554 C   0  0  0  0  0  0  0  0  0  0  0  0
  -25.2415  -30.9811   18.6061 C   0  0  0  0  0  0  0  0  0  0  0  0
  -27.6535  -30.6285   18.0351 C   0  0  0  0  0  0  0  0  0  0  0  0
  -27.0307  -32.0566   19.9832 C   0  0  0  0  0  0  0  0  0  0  0  0
  -29.4898  -26.2781   22.7097 C   0  0  0  0  0  0  0  0  0  0  0  0
  -27.4559  -20.9165   15.9492 C   0  0  0  0  0  0  0  0  0  0  0  0
  -23.7572  -23.1074   18.2378 C   0  0  0  0  0  0  0  0  0  1  0  0
  -26.7440  -29.5497   20.1422 C   0  0  1  0  0  0  0  0  0  0  0  0
  -30.1106  -28.2286   21.2783 C   0  0  2  0  0  0  0  0  0  0  0  0
  -29.5192  -23.4364   19.7915 C   0  0  0  0  0  0  0  0  0  0  0  0
  -26.6509  -30.7819   19.1986 C   0  0  0  0  0  0  0  0  0  0  0  0
  -28.3677  -13.5651   20.5412 N   0  0  0  0  0  0  0  0  0  0  0  0
  -29.6202  -13.6408   20.0597 N   0  0  0  0  0  0  0  0  0  0  0  0
  -26.0337  -21.0736   16.2011 N   0  0  0  0  0  0  0  0  0  0  0  0
  -24.8234  -28.5958   21.3772 N   0  0  0  0  0  0  0  0  0  0  0  0
  -30.6199  -17.1392   21.2197 N   0  0  0  0  0  0  0  0  0  0  0  0
  -31.1561  -12.5639   18.6134 N   0  0  0  0  0  0  0  0  0  0  0  0
  -27.4600   -9.9860   18.3142 N   0  0  0  0  0  0  0  0  0  0  0  0
  -30.0303  -18.5537   19.4270 N   0  0  0  0  0  0  0  0  0  0  0  0
  -21.4514  -29.5375   22.3966 N   0  0  0  0  0  0  0  0  0  0  0  0
  -28.0605  -29.3524   20.7391 N   0  0  0  0  0  0  0  0  0  0  0  0
  -30.4782  -26.8717   21.7729 N   0  3  0  0  0  0  0  0  0  0  0  0
  -25.7549  -22.9793   14.8841 O   0  0  0  0  0  0  0  0  0  0  0  0
  -29.6217  -10.2328   17.5896 O   0  0  0  0  0  0  0  0  0  0  0  0
  -22.6459  -29.5094   20.3979 O   0  0  0  0  0  0  0  0  0  0  0  0
  -25.8434  -30.5692   22.0853 O   0  0  0  0  0  0  0  0  0  0  0  0
  -28.3978  -27.2134   19.9096 O   0  0  0  0  0  0  0  0  0  0  0  0
  -31.5781  -19.2331   21.0158 O   0  0  0  0  0  0  0  0  0  0  0  0
  -22.6413  -10.8159   20.9848 O   0  0  0  0  0  0  0  0  0  0  0  0
  -23.0739  -22.9911   19.4851 O   0  0  0  0  0  0  0  0  0  1  0  0
  -21.2265   -5.6988   19.4957 F   0  0  0  0  0  0  0  0  0  0  0  0
  -21.7644   -8.9842   22.8606 F   0  0  0  0  0  0  0  0  0  0  0  0
  -29.6536  -23.2646   21.1418 F   0  0  0  0  0  0  0  0  0  0  0  0
  -28.5193  -24.3598   19.6565 F   0  0  0  0  0  0  0  0  0  0  0  0
  -31.0285  -24.1735   19.1825 Cl  0  0  0  0  0  0  0  0  0  0  0  0
  1  2  1  0  0  0  0
  1  5  2  0  0  0  0
  2  6  2  0  0  0  0
  3  8  2  0  0  0  0
  3 17  1  0  0  0  0
  4  9  1  0  0  0  0
  4 17  2  0  0  0  0
  5 19  1  0  0  0  0
  6 21  1  0  0  0  0
  7 10  2  0  0  0  0
  7 20  1  0  0  0  0
  8 27  1  0  0  0  0
  9 27  2  0  0  0  0
 10 28  1  0  0  0  0
 11 12  2  0  0  0  0
 11 29  1  0  0  0  0
 12 30  1  0  0  0  0
 13 22  1  0  0  0  0
 13 28  2  0  0  0  0
 14 23  1  0  0  0  0
 14 26  2  0  0  0  0
 15 24  2  0  0  0  0
 15 26  1  0  0  0  0
 16 30  2  0  0  0  0
 16 31  1  0  0  0  0
 17 32  1  0  0  0  0
 18 32  1  0  0  0  0
 18 33  2  0  0  0  0
 18 35  1  0  0  0  0
 19 21  2  0  0  0  0
 19 40  1  0  0  0  0
 20 22  2  0  0  0  0
 20 41  1  0  0  0  0
 21 52  1  0  0  0  0
 22 42  1  0  0  0  0
 23 25  2  0  0  0  0
 23 62  1  0  0  0  0
 24 25  1  0  0  0  0
 24 66  1  0  0  0  0
 25 56  1  0  0  0  0
 26 75  1  0  0  0  0
 27 85  1  0  0  0  0
 28 86  1  0  0  0  0
 29 31  2  0  0  0  0
 29 85  1  0  0  0  0
 30 87  1  0  0  0  0
 31 88  1  0  0  0  0
 32 68  2  0  0  0  0
 33 69  1  0  0  0  0
 33 73  1  0  0  0  0
 34 43  1  0  0  0  0
 34 70  1  0  0  0  0
 34 79  2  0  0  0  0
 35 74  1  0  0  0  0
 35 80  2  0  0  0  0
 36 53  1  0  0  0  0
 36 76  1  0  0  0  0
 36 81  2  0  0  0  0
 37 64  1  0  0  0  0
 37 71  1  0  0  0  0
 37 82  2  0  0  0  0
 38 65  1  0  0  0  0
 38 77  1  0  0  0  0
 38 83  2  0  0  0  0
 39 72  1  0  0  0  0
 39 75  1  0  0  0  0
 39 84  2  0  0  0  0
 40 44  1  0  0  0  0
 41 53  1  0  0  0  0
 42 71  1  0  0  0  0
 43 54  1  0  0  0  0
 44 46  1  0  0  0  0
 45 47  1  0  0  0  0
 45 49  1  0  0  0  0
 46 52  1  0  0  0  0
 47 55  1  0  0  0  0
 48 50  1  0  0  0  0
 48 54  1  0  0  0  0
 49 72  1  0  0  0  0
 50 70  1  0  0  0  0
 51 55  1  0  0  0  0
 51 72  1  0  0  0  0
 52 76  1  0  0  0  0
 53 71  1  0  0  0  0
 54 63  1  0  0  0  0
 55 69  1  0  0  0  0
 57 65  1  0  0  0  0
 58 67  1  0  0  0  0
 59 67  1  0  0  0  0
 60 67  1  0  0  0  0
 61 78  1  0  0  0  0
 62 70  1  0  0  0  0
 63 86  1  0  0  0  0
 64 67  1  0  0  0  0
 64 77  1  0  0  0  0
 65 78  1  0  0  0  0
 66 89  1  0  0  0  0
 66 90  1  0  0  0  0
 66 91  1  0  0  0  0
 68 69  1  0  0  0  0
M  CHG  1  78   1
M  ISO  4  39 100  63 101  75 100  86 101
M  END
> <Batch ID>
0050

> <Smiles>
CNC(C)C(=O)NC(C(=O)N1Cc2cc([101O:1][101CH2:1]C3CCN(Cc4cc([100NH:0][100C:0](=O)N5CCCC(n6nc(-c7ccc(Oc8ccc(F)cc8F)cc7)c(C(N)=O)c6N)C5)cc(C(F)(F)Cl)c4C)C(=O)C3)ccc2CC1C(=O)NC1CCCc2ccccc21)C(C)(C)C

> <Shape>
0.310

> <Color>
0.077

> <Negative vol penalty>
0.000

$$$$

  -OEChem-04042322353D

 84 92  0     1  0  0  0  0  0999 V2000
  -19.2068  -16.7767   21.1587 C   0  0  0  0  0  0  0  0  0  0  0  0
  -20.5896  -16.8915   21.0583 C   0  0  0  0  0  0  0  0  0  0  0  0
  -22.8136  -30.8933   20.8066 C   0  0  0  0  0  0  0  0  0  0  0  0
  -22.6640  -29.0251   22.3312 C   0  0  0  0  0  0  0  0  0  0  0  0
  -18.6464  -15.7199   21.8749 C   0  0  0  0  0  0  0  0  0  0  0  0
  -21.4129  -15.9501   21.6751 C   0  0  0  0  0  0  0  0  0  0  0  0
  -25.1956  -14.4168   18.6776 C   0  0  0  0  0  0  0  0  0  0  0  0
  -21.4296  -30.8651   20.6361 C   0  0  0  0  0  0  0  0  0  0  0  0
  -21.2798  -28.9969   22.1607 C   0  0  0  0  0  0  0  0  0  0  0  0
  -26.2878  -15.2727   18.5425 C   0  0  0  0  0  0  0  0  0  0  0  0
  -18.5969  -30.7119   23.2927 C   0  0  0  0  0  0  0  0  0  0  0  0
  -17.8074  -30.5778   24.4347 C   0  0  0  0  0  0  0  0  0  0  0  0
  -27.5145  -13.9505   20.1444 C   0  0  0  0  0  0  0  0  0  0  0  0
  -29.5490  -22.7911   20.4551 C   0  0  0  0  0  0  0  0  0  0  0  0
  -28.8967  -20.9387   21.8621 C   0  0  0  0  0  0  0  0  0  0  0  0
  -28.3387  -23.1995   22.5059 C   0  0  0  0  0  0  0  0  0  0  0  0
  -16.8780  -28.5300   23.5517 C   0  0  0  0  0  0  0  0  0  0  0  0
  -23.4309  -29.9733   21.6542 C   0  0  0  0  0  0  0  0  0  0  0  0
  -25.5843  -30.7296   22.7937 C   0  0  0  0  0  0  0  0  0  0  0  0
  -19.4630  -14.7596   22.4926 C   0  0  0  0  0  0  0  0  0  0  0  0
  -25.2508  -13.3257   19.5568 C   0  0  0  0  0  0  0  0  0  0  0  0
  -20.8628  -14.8802   22.4013 C   0  0  0  0  0  0  0  0  0  0  0  0
  -26.4225  -13.0807   20.2870 C   0  0  0  0  0  0  0  0  0  0  0  0
  -29.5176  -21.4201   20.7096 C   0  0  0  0  0  0  0  0  0  0  0  0
  -28.9596  -23.6809   21.3533 C   0  0  0  0  0  0  0  0  0  0  0  0
  -20.6626  -29.9169   21.3132 C   0  0  0  0  0  0  0  0  0  0  0  0
  -27.4465  -15.0413   19.2781 C   0  0  0  0  0  0  0  0  0  0  0  0
  -18.5269  -29.7551   22.2801 C   0  0  0  0  0  0  0  0  0  0  0  0
  -16.9480  -29.4869   24.5642 C   0  0  0  0  0  0  0  0  0  0  0  0
  -17.6675  -28.6641   22.4096 C   0  0  0  0  0  0  0  0  0  0  0  0
  -28.3072  -21.8284   22.7603 C   0  0  0  0  0  0  0  0  0  0  0  0
  -24.8607  -30.0016   21.8303 C   0  0  0  0  0  0  0  0  0  0  0  0
  -26.8985  -30.4188   22.5432 C   0  0  0  0  0  0  0  0  0  0  0  0
  -25.1108  -31.6081   23.8231 C   0  0  0  0  0  0  0  0  0  0  0  0
  -23.6386  -12.4539   22.1539 C   0  0  0  0  0  0  0  0  0  0  0  0
  -25.4074   -9.7498   21.8689 C   0  0  0  0  0  0  0  0  0  0  0  0
  -29.3076  -18.1287   19.4198 C   0  0  0  0  0  0  0  0  0  0  0  0
  -28.2387   -8.2502   20.6934 C   0  0  0  0  0  0  0  0  0  0  0  0
  -29.5679  -25.7166   19.9998 C   0  0  0  0  0  0  0  0  0  0  0  0
  -18.8121  -13.6614   23.2957 C   0  0  0  0  0  0  0  0  0  0  0  0
  -24.0737  -12.3964   19.6712 C   0  0  0  0  0  0  0  0  0  0  0  0
  -26.5399  -11.9116   21.2293 C   0  0  0  0  0  0  0  0  0  0  0  0
  -19.7483  -12.4960   23.6048 C   0  0  0  0  0  0  0  0  0  0  0  0
  -29.8262  -29.1191   18.9832 C   0  0  0  0  0  0  0  0  0  0  0  0
  -21.0948  -13.0108   24.1035 C   0  0  0  0  0  0  0  0  0  0  0  0
  -28.6516  -29.7990   19.6905 C   0  0  0  0  0  0  0  0  0  0  0  0
  -29.4686  -27.7087   18.5177 C   0  0  0  0  0  0  0  0  0  0  0  0
  -27.7451  -27.5114   20.2670 C   0  0  0  0  0  0  0  0  0  0  0  0
  -21.7887  -13.8650   23.0356 C   0  0  1  0  0  0  0  0  0  0  0  0
  -24.0557  -11.6133   20.9804 C   0  0  1  0  0  0  0  0  0  0  0  0
  -28.0779  -28.9102   20.8114 C   0  0  2  0  0  0  0  0  0  0  0  0
  -29.4238   -6.0386   20.6500 C   0  0  0  0  0  0  0  0  0  0  0  0
  -26.2688  -10.1572   24.7675 C   0  0  0  0  0  0  0  0  0  0  0  0
  -28.1281   -8.5282   24.3709 C   0  0  0  0  0  0  0  0  0  0  0  0
  -25.7559   -7.7874   24.1549 C   0  0  0  0  0  0  0  0  0  0  0  0
  -28.0928  -20.0852   18.4460 C   0  0  0  0  0  0  0  0  0  0  0  0
  -28.1229   -8.1149   17.7392 C   0  0  0  0  0  0  0  0  0  0  0  0
  -30.1527  -20.4625   19.7432 C   0  0  0  0  0  0  0  0  0  0  0  0
  -28.2379  -17.2376   18.8245 C   0  0  0  0  0  0  0  0  0  1  0  0
  -26.7508   -9.2918   22.3832 C   0  0  1  0  0  0  0  0  0  0  0  0
  -28.4498   -6.9565   19.9278 C   0  0  2  0  0  0  0  0  0  0  0  0
  -26.7233   -8.9644   23.9029 C   0  0  0  0  0  0  0  0  0  0  0  0
  -25.6497  -29.2826   21.0275 N   0  0  0  0  0  0  0  0  0  0  0  0
  -26.8828  -29.5573   21.4859 N   0  0  0  0  0  0  0  0  0  0  0  0
  -25.3597  -11.0353   21.3112 N   0  0  0  0  0  0  0  0  0  0  0  0
  -28.9357  -26.9236   19.6333 N   0  0  0  0  0  0  0  0  0  0  0  0
  -28.0544  -30.8011   23.1264 N   0  0  0  0  0  0  0  0  0  0  0  0
  -23.7298  -31.8160   23.9411 N   0  0  0  0  0  0  0  0  0  0  0  0
  -28.9923  -25.0737   21.0952 N   0  0  0  0  0  0  0  0  0  0  0  0
  -22.3854  -13.0211   22.0226 N   0  0  0  0  0  0  0  0  0  0  0  0
  -27.1515   -8.1723   21.5379 N   0  0  0  0  0  0  0  0  0  0  0  0
  -29.1885  -19.5031   19.2110 N   0  0  0  0  0  0  0  0  0  0  0  0
  -28.9917   -7.2411   18.5690 N   0  3  0  0  0  0  0  0  0  0  0  0
  -25.8903  -32.2043   24.6044 O   0  0  0  0  0  0  0  0  0  0  0  0
  -24.3970  -12.5775   23.1085 O   0  0  0  0  0  0  0  0  0  0  0  0
  -24.4376   -8.9920   21.9522 O   0  0  0  0  0  0  0  0  0  0  0  0
  -30.2238  -17.6072   20.0629 O   0  0  0  0  0  0  0  0  0  0  0  0
  -28.9677   -9.2304   20.5587 O   0  0  0  0  0  0  0  0  0  0  0  0
  -30.5643  -25.2990   19.4042 O   0  0  0  0  0  0  0  0  0  0  0  0
  -19.3120  -29.8892   21.1472 O   0  0  0  0  0  0  0  0  0  0  0  0
  -28.5138  -15.8755   19.1485 O   0  0  0  0  0  0  0  0  0  1  0  0
  -16.1910  -29.3574   25.6617 F   0  0  0  0  0  0  0  0  0  0  0  0
  -17.5968  -27.7411   21.4407 F   0  0  0  0  0  0  0  0  0  0  0  0
  -27.5428  -21.2347   24.1835 Cl  0  0  0  0  0  0  0  0  0  0  0  0
  1  2  1  0  0  0  0
  1  5  2  0  0  0  0
  2  6  2  0  0  0  0
  3  8  2  0  0  0  0
  3 18  1  0  0  0  0
  4  9  1  0  0  0  0
  4 18  2  0  0  0  0
  5 20  1  0  0  0  0
  6 22  1  0  0  0  0
  7 10  2  0  0  0  0
  7 21  1  0  0  0  0
  8 26  1  0  0  0  0
  9 26  2  0  0  0  0
 10 27  1  0  0  0  0
 11 12  2  0  0  0  0
 11 28  1  0  0  0  0
 12 29  1  0  0  0  0
 13 23  1  0  0  0  0
 13 27  2  0  0  0  0
 14 24  2  0  0  0  0
 14 25  1  0  0  0  0
 15 24  1  0  0  0  0
 15 31  2  0  0  0  0
 16 25  2  0  0  0  0
 16 31  1  0  0  0  0
 17 29  2  0  0  0  0
 17 30  1  0  0  0  0
 18 32  1  0  0  0  0
 19 32  1  0  0  0  0
 19 33  2  0  0  0  0
 19 34  1  0  0  0  0
 20 22  2  0  0  0  0
 20 40  1  0  0  0  0
 21 23  2  0  0  0  0
 21 41  1  0  0  0  0
 22 49  1  0  0  0  0
 23 42  1  0  0  0  0
 24 58  1  0  0  0  0
 25 69  1  0  0  0  0
 26 80  1  0  0  0  0
 27 81  1  0  0  0  0
 28 30  2  0  0  0  0
 28 80  1  0  0  0  0
 29 82  1  0  0  0  0
 30 83  1  0  0  0  0
 31 84  1  0  0  0  0
 32 63  2  0  0  0  0
 33 64  1  0  0  0  0
 33 67  1  0  0  0  0
 34 68  1  0  0  0  0
 34 74  2  0  0  0  0
 35 50  1  0  0  0  0
 35 70  1  0  0  0  0
 35 75  2  0  0  0  0
 36 60  1  0  0  0  0
 36 65  1  0  0  0  0
 36 76  2  0  0  0  0
 37 59  1  0  0  0  0
 37 72  1  0  0  0  0
 37 77  2  0  0  0  0
 38 61  1  0  0  0  0
 38 71  1  0  0  0  0
 38 78  2  0  0  0  0
 39 66  1  0  0  0  0
 39 69  1  0  0  0  0
 39 79  2  0  0  0  0
 40 43  1  0  0  0  0
 41 50  1  0  0  0  0
 42 65  1  0  0  0  0
 43 45  1  0  0  0  0
 44 46  1  0  0  0  0
 44 47  1  0  0  0  0
 45 49  1  0  0  0  0
 46 51  1  0  0  0  0
 47 66  1  0  0  0  0
 48 51  1  0  0  0  0
 48 66  1  0  0  0  0
 49 70  1  0  0  0  0
 50 65  1  0  0  0  0
 51 64  1  0  0  0  0
 52 61  1  0  0  0  0
 53 62  1  0  0  0  0
 54 62  1  0  0  0  0
 55 62  1  0  0  0  0
 56 72  1  0  0  0  0
 57 73  1  0  0  0  0
 58 72  1  0  0  0  0
 59 81  1  0  0  0  0
 60 62  1  0  0  0  0
 60 71  1  0  0  0  0
 61 73  1  0  0  0  0
 63 64  1  0  0  0  0
M  CHG  1  73   1
M  ISO  4  39 100  59 101  69 100  81 101
M  END
> <Batch ID>
0050

> <Smiles>
CNC(C)C(=O)NC(C(=O)N1Cc2cc([101O:1][101CH2:1]C(=O)N(C)Cc3cc(Cl)cc([100NH:0][100C:0](=O)N4CCCC(n5nc(-c6ccc(Oc7ccc(F)cc7F)cc6)c(C(N)=O)c5N)C4)c3)ccc2CC1C(=O)NC1CCCc2ccccc21)C(C)(C)C

> <Shape>
0.279

> <Color>
0.092

> <Negative vol penalty>
0.000

$$$$

  -OEChem-04042322353D

 88 97  0     1  0  0  0  0  0999 V2000
  -21.6127  -16.4222   20.6755 C   0  0  0  0  0  0  0  0  0  0  0  0
  -22.5900  -17.2581   20.1449 C   0  0  0  0  0  0  0  0  0  0  0  0
  -27.1601  -12.6752   21.5702 C   0  0  0  0  0  0  0  0  0  0  0  0
  -26.5757  -14.0058   19.6402 C   0  0  0  0  0  0  0  0  0  0  0  0
  -20.3878  -16.9522   21.0790 C   0  0  0  0  0  0  0  0  0  0  0  0
  -22.3426  -18.6243   20.0164 C   0  0  0  0  0  0  0  0  0  0  0  0
  -26.3902  -23.1751   20.6591 C   0  0  0  0  0  0  0  0  0  0  0  0
  -30.0814  -25.0631   21.2686 C   0  0  0  0  0  0  0  0  0  0  0  0
  -29.6236  -23.9258   21.9340 C   0  0  0  0  0  0  0  0  0  0  0  0
  -26.3468  -11.6423   21.1045 C   0  0  0  0  0  0  0  0  0  0  0  0
  -25.7623  -12.9728   19.1744 C   0  0  0  0  0  0  0  0  0  0  0  0
  -27.1179  -23.9209   19.7329 C   0  0  0  0  0  0  0  0  0  0  0  0
  -24.1415   -8.7944   20.6040 C   0  0  0  0  0  0  0  0  0  0  0  0
  -23.2976   -8.1678   21.5209 C   0  0  0  0  0  0  0  0  0  0  0  0
  -25.4366  -25.6489   19.8123 C   0  0  0  0  0  0  0  0  0  0  0  0
  -31.6101  -23.6988   19.9885 C   0  0  0  0  0  0  0  0  0  0  0  0
  -22.2029  -10.2773   21.9551 C   0  0  0  0  0  0  0  0  0  0  0  0
  -27.2746  -13.8571   20.8381 C   0  0  0  0  0  0  0  0  0  0  0  0
  -29.4801  -15.1227   21.0417 C   0  0  0  0  0  0  0  0  0  0  0  0
  -20.1289  -18.3271   20.9644 C   0  0  0  0  0  0  0  0  0  0  0  0
  -25.1727  -23.6565   21.1615 C   0  0  0  0  0  0  0  0  0  0  0  0
  -21.1126  -19.1730   20.4175 C   0  0  0  0  0  0  0  0  0  0  0  0
  -24.6966  -24.9084   20.7468 C   0  0  0  0  0  0  0  0  0  0  0  0
  -31.0746  -24.9495   20.2958 C   0  0  0  0  0  0  0  0  0  0  0  0
  -31.1524  -22.5615   20.6539 C   0  0  0  0  0  0  0  0  0  0  0  0
  -30.1591  -22.6751   21.6267 C   0  0  0  0  0  0  0  0  0  0  0  0
  -25.6479  -11.7910   19.9065 C   0  0  0  0  0  0  0  0  0  0  0  0
  -26.6397  -25.1567   19.3072 C   0  0  0  0  0  0  0  0  0  0  0  0
  -24.0162  -10.1626   20.3627 C   0  0  0  0  0  0  0  0  0  0  0  0
  -22.3283   -8.9092   22.1964 C   0  0  0  0  0  0  0  0  0  0  0  0
  -23.0468  -10.9040   21.0383 C   0  0  0  0  0  0  0  0  0  0  0  0
  -28.1142  -14.9247   21.3190 C   0  0  0  0  0  0  0  0  0  0  0  0
  -29.8078  -16.2657   21.7293 C   0  0  0  0  0  0  0  0  0  0  0  0
  -29.7768  -26.6817   16.2614 C   0  0  0  0  0  0  0  0  0  0  0  0
  -28.7930  -27.5114   16.6043 C   0  0  0  0  0  0  0  0  0  0  0  0
  -30.6862  -26.1184   17.2839 C   0  0  0  0  0  0  0  0  0  0  0  0
  -29.6652  -27.6096   18.9642 C   0  0  0  0  0  0  0  0  0  0  0  0
  -29.7183  -28.2630   20.1413 C   0  0  0  0  0  0  0  0  0  0  0  0
  -30.3727  -14.3433   20.2346 C   0  0  0  0  0  0  0  0  0  0  0  0
  -22.1568  -22.6563   21.0723 C   0  0  0  0  0  0  0  0  0  0  0  0
  -21.6771  -25.1577   23.0811 C   0  0  0  0  0  0  0  0  0  0  0  0
  -22.7281  -28.1952   24.2282 C   0  0  0  0  0  0  0  0  0  0  0  0
  -28.6991  -21.4902   23.3033 C   0  0  0  0  0  0  0  0  0  0  0  0
  -18.7723  -18.8466   21.3701 C   0  0  0  0  0  0  0  0  0  0  0  0
  -24.4130  -22.8519   22.1803 C   0  0  0  0  0  0  0  0  0  0  0  0
  -23.4052  -25.4792   21.2712 C   0  0  0  0  0  0  0  0  0  0  0  0
  -18.7287  -20.3621   21.5478 C   0  0  0  0  0  0  0  0  0  0  0  0
  -27.2175  -18.8733   25.2095 C   0  0  0  0  0  0  0  0  0  0  0  0
  -19.4114  -21.0571   20.3741 C   0  0  0  0  0  0  0  0  0  0  0  0
  -27.4310  -17.6290   24.3445 C   0  0  0  0  0  0  0  0  0  0  0  0
  -26.9245  -20.1099   24.3617 C   0  0  0  0  0  0  0  0  0  0  0  0
  -28.1180  -19.1389   22.4378 C   0  0  0  0  0  0  0  0  0  0  0  0
  -20.8910  -20.6641   20.2851 C   0  0  1  0  0  0  0  0  0  0  0  0
  -28.5266  -27.9342   18.0129 C   0  0  2  0  0  0  0  0  0  0  0  0
  -22.9303  -23.2067   22.2370 C   0  0  1  0  0  0  0  0  0  0  0  0
  -28.4804  -17.8810   23.2441 C   0  0  2  0  0  0  0  0  0  0  0  0
  -31.7462  -21.2348   20.3065 C   0  0  0  0  0  0  0  0  0  0  0  0
  -22.1093  -30.0120   25.8448 C   0  0  0  0  0  0  0  0  0  0  0  0
  -19.4990  -26.1132   21.1698 C   0  0  0  0  0  0  0  0  0  0  0  0
  -19.5891  -28.3479   22.2950 C   0  0  0  0  0  0  0  0  0  0  0  0
  -18.9253  -26.3249   23.5948 C   0  0  0  0  0  0  0  0  0  0  0  0
  -25.2398  -27.8515   25.7553 C   0  0  0  0  0  0  0  0  0  0  0  0
  -31.5689  -26.1740   19.5814 C   0  0  0  0  0  0  0  0  0  0  0  0
  -27.2305  -27.3066   18.4795 C   0  0  0  0  0  0  0  0  0  1  0  0
  -21.3405  -26.6191   22.9073 C   0  0  1  0  0  0  0  0  0  0  0  0
  -22.9060  -28.7336   25.6364 C   0  0  2  0  0  0  0  0  0  0  0  0
  -19.8619  -26.8399   22.4802 C   0  0  0  0  0  0  0  0  0  0  0  0
  -27.6090  -15.8662   22.1205 N   0  0  0  0  0  0  0  0  0  0  0  0
  -28.6630  -16.6669   22.3527 N   0  0  0  0  0  0  0  0  0  0  0  0
  -30.6105  -26.6486   18.5784 N   0  0  0  0  0  0  0  0  0  0  0  0
  -22.6955  -24.6519   22.2608 N   0  0  0  0  0  0  0  0  0  0  0  0
  -27.9623  -20.2877   23.3438 N   0  0  0  0  0  0  0  0  0  0  0  0
  -30.9608  -16.9565   21.8555 N   0  0  0  0  0  0  0  0  0  0  0  0
  -29.8718  -13.1993   19.5985 N   0  0  0  0  0  0  0  0  0  0  0  0
  -29.6808  -21.5319   22.3138 N   0  0  0  0  0  0  0  0  0  0  0  0
  -21.6649  -21.3812   21.2758 N   0  0  0  0  0  0  0  0  0  0  0  0
  -21.7049  -27.2735   24.1593 N   0  0  0  0  0  0  0  0  0  0  0  0
  -24.3430  -29.0268   25.9011 N   0  3  0  0  0  0  0  0  0  0  0  0
  -31.4793  -25.2477   16.9210 O   0  0  0  0  0  0  0  0  0  0  0  0
  -31.5828  -14.6431   20.0953 O   0  0  0  0  0  0  0  0  0  0  0  0
  -22.0155  -23.3387   20.0642 O   0  0  0  0  0  0  0  0  0  0  0  0
  -21.0641  -24.4914   23.9188 O   0  0  0  0  0  0  0  0  0  0  0  0
  -23.4246  -28.5589   23.2831 O   0  0  0  0  0  0  0  0  0  0  0  0
  -28.4941  -22.4043   24.1060 O   0  0  0  0  0  0  0  0  0  0  0  0
  -24.8543  -10.7832   19.4516 O   0  0  0  0  0  0  0  0  0  0  0  0
  -27.3478  -25.8864   18.4027 O   0  0  0  0  0  0  0  0  0  1  0  0
  -21.5169   -8.3069   23.0757 F   0  0  0  0  0  0  0  0  0  0  0  0
  -22.9209  -12.2184   20.8098 F   0  0  0  0  0  0  0  0  0  0  0  0
  1  2  1  0  0  0  0
  1  5  2  0  0  0  0
  2  6  2  0  0  0  0
  3 10  2  0  0  0  0
  3 18  1  0  0  0  0
  4 11  1  0  0  0  0
  4 18  2  0  0  0  0
  5 20  1  0  0  0  0
  6 22  1  0  0  0  0
  7 12  2  0  0  0  0
  7 21  1  0  0  0  0
  8  9  2  0  0  0  0
  8 24  1  0  0  0  0
  9 26  1  0  0  0  0
 10 27  1  0  0  0  0
 11 27  2  0  0  0  0
 12 28  1  0  0  0  0
 13 14  2  0  0  0  0
 13 29  1  0  0  0  0
 14 30  1  0  0  0  0
 15 23  1  0  0  0  0
 15 28  2  0  0  0  0
 16 24  2  0  0  0  0
 16 25  1  0  0  0  0
 17 30  2  0  0  0  0
 17 31  1  0  0  0  0
 18 32  1  0  0  0  0
 19 32  1  0  0  0  0
 19 33  2  0  0  0  0
 19 39  1  0  0  0  0
 20 22  2  0  0  0  0
 20 44  1  0  0  0  0
 21 23  2  0  0  0  0
 21 45  1  0  0  0  0
 22 53  1  0  0  0  0
 23 46  1  0  0  0  0
 24 63  1  0  0  0  0
 25 26  2  0  0  0  0
 25 57  1  0  0  0  0
 26 75  1  0  0  0  0
 27 85  1  0  0  0  0
 28 86  1  0  0  0  0
 29 31  2  0  0  0  0
 29 85  1  0  0  0  0
 30 87  1  0  0  0  0
 31 88  1  0  0  0  0
 32 68  2  0  0  0  0
 33 69  1  0  0  0  0
 33 73  1  0  0  0  0
 34 35  2  0  0  0  0
 34 36  1  0  0  0  0
 35 54  1  0  0  0  0
 36 70  1  0  0  0  0
 36 79  2  0  0  0  0
 37 38  2  0  0  0  0
 37 54  1  0  0  0  0
 37 70  1  0  0  0  0
 39 74  1  0  0  0  0
 39 80  2  0  0  0  0
 40 55  1  0  0  0  0
 40 76  1  0  0  0  0
 40 81  2  0  0  0  0
 41 65  1  0  0  0  0
 41 71  1  0  0  0  0
 41 82  2  0  0  0  0
 42 66  1  0  0  0  0
 42 77  1  0  0  0  0
 42 83  2  0  0  0  0
 43 72  1  0  0  0  0
 43 75  1  0  0  0  0
 43 84  2  0  0  0  0
 44 47  1  0  0  0  0
 45 55  1  0  0  0  0
 46 71  1  0  0  0  0
 47 49  1  0  0  0  0
 48 50  1  0  0  0  0
 48 51  1  0  0  0  0
 49 53  1  0  0  0  0
 50 56  1  0  0  0  0
 51 72  1  0  0  0  0
 52 56  1  0  0  0  0
 52 72  1  0  0  0  0
 53 76  1  0  0  0  0
 54 64  1  0  0  0  0
 55 71  1  0  0  0  0
 56 69  1  0  0  0  0
 58 66  1  0  0  0  0
 59 67  1  0  0  0  0
 60 67  1  0  0  0  0
 61 67  1  0  0  0  0
 62 78  1  0  0  0  0
 63 70  1  0  0  0  0
 64 86  1  0  0  0  0
 65 67  1  0  0  0  0
 65 77  1  0  0  0  0
 66 78  1  0  0  0  0
 68 69  1  0  0  0  0
M  CHG  1  78   1
M  ISO  4  43 100  64 101  75 100  86 101
M  END
> <Batch ID>
0050

> <Smiles>
C=C1C([101CH2:1][101O:1]c2ccc3c(c2)CN(C(=O)C(NC(=O)C(C)NC)C(C)(C)C)C(C(=O)NC2CCCc4ccccc42)C3)C=CC(=O)N1Cc1ccc([100NH:0][100C:0](=O)N2CCCC(n3nc(-c4ccc(Oc5ccc(F)cc5F)cc4)c(C(N)=O)c3N)C2)c(C)c1

> <Shape>
0.197

> <Color>
0.058

> <Negative vol penalty>
0.000

$$$$

  -OEChem-04042322353D

 85 93  0     1  0  0  0  0  0999 V2000
  -16.1763  -29.4513   23.4450 C   0  0  0  0  0  0  0  0  0  0  0  0
  -16.9731  -29.0282   22.3860 C   0  0  0  0  0  0  0  0  0  0  0  0
  -26.1033  -12.9473   21.6362 C   0  0  0  0  0  0  0  0  0  0  0  0
  -25.6801  -13.5258   19.3289 C   0  0  0  0  0  0  0  0  0  0  0  0
  -16.7080  -30.2887   24.4248 C   0  0  0  0  0  0  0  0  0  0  0  0
  -18.3020  -29.4432   22.3057 C   0  0  0  0  0  0  0  0  0  0  0  0
  -23.0428  -26.2163   20.1569 C   0  0  0  0  0  0  0  0  0  0  0  0
  -31.7157  -23.1724   16.0184 C   0  0  0  0  0  0  0  0  0  0  0  0
  -32.0602  -21.8359   16.2203 C   0  0  0  0  0  0  0  0  0  0  0  0
  -25.1416  -11.9399   21.5600 C   0  0  0  0  0  0  0  0  0  0  0  0
  -24.7184  -12.5183   19.2527 C   0  0  0  0  0  0  0  0  0  0  0  0
  -23.6910  -26.2103   18.9225 C   0  0  0  0  0  0  0  0  0  0  0  0
  -24.9215   -8.7932   20.3423 C   0  0  0  0  0  0  0  0  0  0  0  0
  -25.2422   -7.5487   20.8843 C   0  0  0  0  0  0  0  0  0  0  0  0
  -25.3522  -27.7268   19.7942 C   0  0  0  0  0  0  0  0  0  0  0  0
  -30.1623  -23.0510   17.8648 C   0  0  0  0  0  0  0  0  0  0  0  0
  -23.3764   -7.7318   22.4083 C   0  0  0  0  0  0  0  0  0  0  0  0
  -26.3725  -13.7404   20.5206 C   0  0  0  0  0  0  0  0  0  0  0  0
  -28.7402  -14.6680   20.3180 C   0  0  0  0  0  0  0  0  0  0  0  0
  -18.0468  -30.7063   24.3616 C   0  0  0  0  0  0  0  0  0  0  0  0
  -23.5392  -26.9874   21.2177 C   0  0  0  0  0  0  0  0  0  0  0  0
  -18.8517  -30.2880   23.2848 C   0  0  0  0  0  0  0  0  0  0  0  0
  -24.7100  -27.7388   21.0418 C   0  0  0  0  0  0  0  0  0  0  0  0
  -30.7668  -23.7799   16.8407 C   0  0  0  0  0  0  0  0  0  0  0  0
  -31.4557  -21.1069   17.2444 C   0  0  0  0  0  0  0  0  0  0  0  0
  -30.5067  -21.7145   18.0667 C   0  0  0  0  0  0  0  0  0  0  0  0
  -24.4492  -11.7254   20.3683 C   0  0  0  0  0  0  0  0  0  0  0  0
  -24.8442  -26.9679   18.7401 C   0  0  0  0  0  0  0  0  0  0  0  0
  -23.8284   -9.5071   20.8333 C   0  0  0  0  0  0  0  0  0  0  0  0
  -24.4696   -7.0179   21.9173 C   0  0  0  0  0  0  0  0  0  0  0  0
  -23.0558   -8.9764   21.8662 C   0  0  0  0  0  0  0  0  0  0  0  0
  -27.3655  -14.7816   20.5988 C   0  0  0  0  0  0  0  0  0  0  0  0
  -29.2413  -15.9273   20.5409 C   0  0  0  0  0  0  0  0  0  0  0  0
  -29.4967  -13.5264   19.8935 C   0  0  0  0  0  0  0  0  0  0  0  0
  -22.4260  -29.4183   22.9368 C   0  0  0  0  0  0  0  0  0  0  0  0
  -25.1433  -28.9473   24.6446 C   0  0  0  0  0  0  0  0  0  0  0  0
  -27.9064  -25.4949   16.7092 C   0  0  0  0  0  0  0  0  0  0  0  0
  -28.3385  -27.7517   24.7339 C   0  0  0  0  0  0  0  0  0  0  0  0
  -28.9232  -21.4608   20.0095 C   0  0  0  0  0  0  0  0  0  0  0  0
  -18.5636  -31.6498   25.4187 C   0  0  0  0  0  0  0  0  0  0  0  0
  -22.8435  -26.9621   22.5510 C   0  0  0  0  0  0  0  0  0  0  0  0
  -25.2951  -28.5677   22.1550 C   0  0  0  0  0  0  0  0  0  0  0  0
  -20.0867  -31.7412   25.4614 C   0  0  0  0  0  0  0  0  0  0  0  0
  -27.1170  -19.9835   22.6988 C   0  0  0  0  0  0  0  0  0  0  0  0
  -20.6514  -31.9053   24.0539 C   0  0  0  0  0  0  0  0  0  0  0  0
  -27.1337  -18.4891   22.3691 C   0  0  0  0  0  0  0  0  0  0  0  0
  -26.9888  -20.8404   21.4407 C   0  0  0  0  0  0  0  0  0  0  0  0
  -27.9948  -19.0627   20.0633 C   0  0  0  0  0  0  0  0  0  0  0  0
  -20.3048  -30.6966   23.1761 C   0  0  1  0  0  0  0  0  0  0  0  0
  -23.1480  -28.1875   23.4073 C   0  0  1  0  0  0  0  0  0  0  0  0
  -28.1878  -18.1610   21.2935 C   0  0  2  0  0  0  0  0  0  0  0  0
  -31.8435  -19.6767   17.4370 C   0  0  0  0  0  0  0  0  0  0  0  0
  -30.3223  -27.5442   26.2566 C   0  0  0  0  0  0  0  0  0  0  0  0
  -25.7674  -31.9052   24.2306 C   0  0  0  0  0  0  0  0  0  0  0  0
  -28.1289  -31.4310   24.9137 C   0  0  0  0  0  0  0  0  0  0  0  0
  -26.2646  -31.0455   26.5258 C   0  0  0  0  0  0  0  0  0  0  0  0
  -29.1153  -25.3385   14.5217 C   0  0  0  0  0  0  0  0  0  0  0  0
  -28.2842  -24.7960   24.5925 C   0  0  0  0  0  0  0  0  0  0  0  0
  -30.3968  -25.2186   16.6227 C   0  0  0  0  0  0  0  0  0  0  0  0
  -26.6261  -25.6290   15.8912 C   0  0  0  0  0  0  0  0  0  0  0  0
  -25.3781  -25.7758   16.7527 C   0  0  0  0  0  0  0  0  0  1  0  0
  -26.5573  -29.4707   24.5696 C   0  0  1  0  0  0  0  0  0  0  0  0
  -29.0578  -26.8741   25.7423 C   0  0  2  0  0  0  0  0  0  0  0  0
  -26.6677  -30.9491   25.0382 C   0  0  0  0  0  0  0  0  0  0  0  0
  -27.0155  -16.0154   20.9719 N   0  0  0  0  0  0  0  0  0  0  0  0
  -28.1777  -16.6888   20.9270 N   0  0  0  0  0  0  0  0  0  0  0  0
  -24.5749  -28.5151   23.4380 N   0  0  0  0  0  0  0  0  0  0  0  0
  -28.0223  -20.4768   20.4688 N   0  0  0  0  0  0  0  0  0  0  0  0
  -30.4836  -16.4464   20.4425 N   0  0  0  0  0  0  0  0  0  0  0  0
  -28.8251  -12.3097   19.7124 N   0  0  0  0  0  0  0  0  0  0  0  0
  -29.8822  -20.9909   19.1127 N   0  0  0  0  0  0  0  0  0  0  0  0
  -21.1699  -29.5796   23.4897 N   0  0  0  0  0  0  0  0  0  0  0  0
  -27.3787  -28.5386   25.3345 N   0  0  0  0  0  0  0  0  0  0  0  0
  -29.0922  -25.3562   15.9792 N   0  0  0  0  0  0  0  0  0  0  0  0
  -29.4348  -25.5731   25.1208 N   0  3  0  0  0  0  0  0  0  0  0  0
  -30.7344  -13.5797   19.6969 O   0  0  0  0  0  0  0  0  0  0  0  0
  -22.9689  -30.1671   22.1328 O   0  0  0  0  0  0  0  0  0  0  0  0
  -24.5669  -28.9164   25.7348 O   0  0  0  0  0  0  0  0  0  0  0  0
  -27.8676  -25.5119   17.9423 O   0  0  0  0  0  0  0  0  0  0  0  0
  -28.6043  -27.7430   23.5340 O   0  0  0  0  0  0  0  0  0  0  0  0
  -28.8664  -22.6280   20.4050 O   0  0  0  0  0  0  0  0  0  0  0  0
  -23.5109  -10.7423   20.2935 O   0  0  0  0  0  0  0  0  0  0  0  0
  -25.4784  -26.9643   17.5361 O   0  0  0  0  0  0  0  0  0  1  0  0
  -24.7767   -5.8220   22.4367 F   0  0  0  0  0  0  0  0  0  0  0  0
  -22.0037   -9.6570   22.3413 F   0  0  0  0  0  0  0  0  0  0  0  0
  1  2  1  0  0  0  0
  1  5  2  0  0  0  0
  2  6  2  0  0  0  0
  3 10  2  0  0  0  0
  3 18  1  0  0  0  0
  4 11  1  0  0  0  0
  4 18  2  0  0  0  0
  5 20  1  0  0  0  0
  6 22  1  0  0  0  0
  7 12  2  0  0  0  0
  7 21  1  0  0  0  0
  8  9  2  0  0  0  0
  8 24  1  0  0  0  0
  9 25  1  0  0  0  0
 10 27  1  0  0  0  0
 11 27  2  0  0  0  0
 12 28  1  0  0  0  0
 13 14  2  0  0  0  0
 13 29  1  0  0  0  0
 14 30  1  0  0  0  0
 15 23  1  0  0  0  0
 15 28  2  0  0  0  0
 16 24  2  0  0  0  0
 16 26  1  0  0  0  0
 17 30  2  0  0  0  0
 17 31  1  0  0  0  0
 18 32  1  0  0  0  0
 19 32  1  0  0  0  0
 19 33  2  0  0  0  0
 19 34  1  0  0  0  0
 20 22  2  0  0  0  0
 20 40  1  0  0  0  0
 21 23  2  0  0  0  0
 21 41  1  0  0  0  0
 22 49  1  0  0  0  0
 23 42  1  0  0  0  0
 24 59  1  0  0  0  0
 25 26  2  0  0  0  0
 25 52  1  0  0  0  0
 26 71  1  0  0  0  0
 27 82  1  0  0  0  0
 28 83  1  0  0  0  0
 29 31  2  0  0  0  0
 29 82  1  0  0  0  0
 30 84  1  0  0  0  0
 31 85  1  0  0  0  0
 32 65  2  0  0  0  0
 33 66  1  0  0  0  0
 33 69  1  0  0  0  0
 34 70  1  0  0  0  0
 34 76  2  0  0  0  0
 35 50  1  0  0  0  0
 35 72  1  0  0  0  0
 35 77  2  0  0  0  0
 36 62  1  0  0  0  0
 36 67  1  0  0  0  0
 36 78  2  0  0  0  0
 37 60  1  0  0  0  0
 37 74  1  0  0  0  0
 37 79  2  0  0  0  0
 38 63  1  0  0  0  0
 38 73  1  0  0  0  0
 38 80  2  0  0  0  0
 39 68  1  0  0  0  0
 39 71  1  0  0  0  0
 39 81  2  0  0  0  0
 40 43  1  0  0  0  0
 41 50  1  0  0  0  0
 42 67  1  0  0  0  0
 43 45  1  0  0  0  0
 44 46  1  0  0  0  0
 44 47  1  0  0  0  0
 45 49  1  0  0  0  0
 46 51  1  0  0  0  0
 47 68  1  0  0  0  0
 48 51  1  0  0  0  0
 48 68  1  0  0  0  0
 49 72  1  0  0  0  0
 50 67  1  0  0  0  0
 51 66  1  0  0  0  0
 53 63  1  0  0  0  0
 54 64  1  0  0  0  0
 55 64  1  0  0  0  0
 56 64  1  0  0  0  0
 57 74  1  0  0  0  0
 58 75  1  0  0  0  0
 59 74  1  0  0  0  0
 60 61  1  0  0  0  0
 61 83  1  0  0  0  0
 62 64  1  0  0  0  0
 62 73  1  0  0  0  0
 63 75  1  0  0  0  0
 65 66  1  0  0  0  0
M  CHG  1  75   1
M  ISO  4  39 100  61 101  71 100  83 101
M  END
> <Batch ID>
0050

> <Smiles>
CNC(C)C(=O)NC(C(=O)N1Cc2cc([101O:1][101CH2:1]CC(=O)N(C)Cc3ccc(C)c([100NH:0][100C:0](=O)N4CCCC(n5nc(-c6ccc(Oc7ccc(F)cc7F)cc6)c(C(N)=O)c5N)C4)c3)ccc2CC1C(=O)NC1CCCc2ccccc21)C(C)(C)C

> <Shape>
0.278

> <Color>
0.066

> <Negative vol penalty>
0.000

$$$$

  -OEChem-04042322353D

 86 95  0     1  0  0  0  0  0999 V2000
  -30.1942  -35.6447   20.6703 C   0  0  0  0  0  0  0  0  0  0  0  0
  -30.1328  -34.2554   20.7083 C   0  0  0  0  0  0  0  0  0  0  0  0
  -22.3705  -14.0650   22.2841 C   0  0  0  0  0  0  0  0  0  0  0  0
  -23.8436  -12.9693   23.8547 C   0  0  0  0  0  0  0  0  0  0  0  0
  -29.3018  -36.4018   21.4281 C   0  0  0  0  0  0  0  0  0  0  0  0
  -29.1796  -33.6223   21.5053 C   0  0  0  0  0  0  0  0  0  0  0  0
  -26.8714  -29.8038   19.1103 C   0  0  0  0  0  0  0  0  0  0  0  0
  -28.1747  -20.2470   17.8191 C   0  0  0  0  0  0  0  0  0  0  0  0
  -28.0487  -18.8870   18.1021 C   0  0  0  0  0  0  0  0  0  0  0  0
  -21.5011  -14.3891   23.3256 C   0  0  0  0  0  0  0  0  0  0  0  0
  -22.9742  -13.2934   24.8962 C   0  0  0  0  0  0  0  0  0  0  0  0
  -27.5710  -28.6024   19.0052 C   0  0  0  0  0  0  0  0  0  0  0  0
  -20.0512  -12.1463   26.1497 C   0  0  0  0  0  0  0  0  0  0  0  0
  -19.7508  -11.1488   27.0772 C   0  0  0  0  0  0  0  0  0  0  0  0
  -26.3101  -27.7130   20.8595 C   0  0  0  0  0  0  0  0  0  0  0  0
  -30.3630  -18.8161   18.7922 C   0  0  0  0  0  0  0  0  0  0  0  0
  -20.6638  -12.5184   28.8458 C   0  0  0  0  0  0  0  0  0  0  0  0
  -23.5418  -13.3551   22.5487 C   0  0  0  0  0  0  0  0  0  0  0  0
  -24.1520  -12.2397   20.3370 C   0  0  0  0  0  0  0  0  0  0  0  0
  -28.3309  -35.7778   22.2272 C   0  0  0  0  0  0  0  0  0  0  0  0
  -25.8919  -29.9729   20.0994 C   0  0  0  0  0  0  0  0  0  0  0  0
  -28.2743  -34.3718   22.2756 C   0  0  0  0  0  0  0  0  0  0  0  0
  -25.5977  -28.9166   20.9733 C   0  0  0  0  0  0  0  0  0  0  0  0
  -29.3949  -20.8916   18.0226 C   0  0  0  0  0  0  0  0  0  0  0  0
  -29.1428  -18.1716   18.5887 C   0  0  0  0  0  0  0  0  0  0  0  0
  -21.8030  -14.0033   24.6317 C   0  0  0  0  0  0  0  0  0  0  0  0
  -27.2924  -27.5578   19.8817 C   0  0  0  0  0  0  0  0  0  0  0  0
  -20.6580  -13.3298   26.5702 C   0  0  0  0  0  0  0  0  0  0  0  0
  -20.0571  -11.3348   28.4253 C   0  0  0  0  0  0  0  0  0  0  0  0
  -20.9643  -13.5159   27.9182 C   0  0  0  0  0  0  0  0  0  0  0  0
  -30.4890  -20.1762   18.5091 C   0  0  0  0  0  0  0  0  0  0  0  0
  -24.4400  -13.0196   21.4731 C   0  0  0  0  0  0  0  0  0  0  0  0
  -25.3279  -12.2192   19.6276 C   0  0  0  0  0  0  0  0  0  0  0  0
  -30.0819  -24.5121   18.6394 C   0  0  0  0  0  0  0  0  0  0  0  0
  -31.3327  -24.7481   19.0631 C   0  0  0  0  0  0  0  0  0  0  0  0
  -22.9307  -11.5919   19.9569 C   0  0  0  0  0  0  0  0  0  0  0  0
  -25.5259  -31.9215   22.5839 C   0  0  0  0  0  0  0  0  0  0  0  0
  -22.6175  -30.4977   22.7754 C   0  0  0  0  0  0  0  0  0  0  0  0
  -21.2948  -27.1566   22.4510 C   0  0  0  0  0  0  0  0  0  0  0  0
  -30.0013  -15.9334   19.3632 C   0  0  0  0  0  0  0  0  0  0  0  0
  -27.4186  -36.6378   23.0656 C   0  0  0  0  0  0  0  0  0  0  0  0
  -25.1275  -31.2657   20.1824 C   0  0  0  0  0  0  0  0  0  0  0  0
  -24.5412  -29.0404   22.0396 C   0  0  0  0  0  0  0  0  0  0  0  0
  -29.2540  -25.5398   17.9117 C   0  0  0  0  0  0  0  0  0  0  0  0
  -26.1953  -35.8931   23.5939 C   0  0  0  0  0  0  0  0  0  0  0  0
  -30.0713  -12.4813   20.2323 C   0  0  0  0  0  0  0  0  0  0  0  0
  -26.6026  -34.5444   24.1786 C   0  0  0  0  0  0  0  0  0  0  0  0
  -28.6080  -12.1551   20.5398 C   0  0  0  0  0  0  0  0  0  0  0  0
  -27.2348  -24.3112   18.8132 C   0  0  0  0  0  0  0  0  0  0  0  0
  -30.4493  -13.8861   20.6985 C   0  0  0  0  0  0  0  0  0  0  0  0
  -28.1082  -14.6323   20.5205 C   0  0  0  0  0  0  0  0  0  0  0  0
  -28.1610  -23.3873   19.6027 C   0  0  0  0  0  0  0  0  0  0  0  0
  -27.2384  -33.6486   23.1086 C   0  0  1  0  0  0  0  0  0  0  0  0
  -24.5105  -31.5078   21.5565 C   0  0  1  0  0  0  0  0  0  0  0  0
  -27.6630  -13.2518   20.0110 C   0  0  2  0  0  0  0  0  0  0  0  0
  -27.8702  -25.6758   18.5473 C   0  0  1  0  0  0  0  0  0  1  0  0
  -19.0117  -26.3643   21.7749 C   0  0  0  0  0  0  0  0  0  0  0  0
  -22.0611  -30.4552   25.7751 C   0  0  0  0  0  0  0  0  0  0  0  0
  -20.7366  -28.3589   25.4292 C   0  0  0  0  0  0  0  0  0  0  0  0
  -20.0166  -30.4820   24.3352 C   0  0  0  0  0  0  0  0  0  0  0  0
  -22.3960  -25.4637   20.2876 C   0  0  0  0  0  0  0  0  0  0  0  0
  -29.4888  -22.3552   17.7062 C   0  0  0  0  0  0  0  0  0  0  0  0
  -22.0679  -29.2790   23.4767 C   0  0  1  0  0  0  0  0  0  0  0  0
  -20.4382  -26.6245   21.3163 C   0  0  2  0  0  0  0  0  0  0  0  0
  -21.2477  -29.6452   24.7458 C   0  0  0  0  0  0  0  0  0  0  0  0
  -25.7001  -13.4623   21.4888 N   0  0  0  0  0  0  0  0  0  0  0  0
  -26.2143  -12.9589   20.3538 N   0  0  0  0  0  0  0  0  0  0  0  0
  -23.8256  -30.3263   22.0846 N   0  0  0  0  0  0  0  0  0  0  0  0
  -29.5131  -14.8726   20.1551 N   0  0  0  0  0  0  0  0  0  0  0  0
  -25.6798  -11.6407   18.4597 N   0  0  0  0  0  0  0  0  0  0  0  0
  -21.8185  -11.7149   20.8008 N   0  0  0  0  0  0  0  0  0  0  0  0
  -29.0149  -16.7898   18.8750 N   0  0  0  0  0  0  0  0  0  0  0  0
  -26.2174  -33.0730   22.2596 N   0  0  0  0  0  0  0  0  0  0  0  0
  -21.3149  -28.5352   22.4727 N   0  0  0  0  0  0  0  0  0  0  0  0
  -29.5057  -23.2234   18.9338 N   0  3  1  0  0  0  0  0  0  0  0  0
  -21.0042  -25.3486   20.7944 N   0  3  0  0  0  0  0  0  0  0  0  0
  -22.8335  -10.9101   18.9085 O   0  0  0  0  0  0  0  0  0  0  0  0
  -25.6701  -31.2468   23.5966 O   0  0  0  0  0  0  0  0  0  0  0  0
  -21.9942  -31.5606   22.8321 O   0  0  0  0  0  0  0  0  0  0  0  0
  -21.8839  -26.4228   23.2415 O   0  0  0  0  0  0  0  0  0  0  0  0
  -31.2029  -16.0563   19.1124 O   0  0  0  0  0  0  0  0  0  0  0  0
  -20.9549  -14.3195   25.6482 O   0  0  0  0  0  0  0  0  0  0  0  0
  -27.9742  -26.3843   19.7818 O   0  0  0  0  0  0  0  0  0  1  0  0
  -19.7671  -10.3775   29.3161 F   0  0  0  0  0  0  0  0  0  0  0  0
  -21.5462  -14.6512   28.3284 F   0  0  0  0  0  0  0  0  0  0  0  0
  -32.0144  -20.9400   18.7727 Cl  0  0  0  0  0  0  0  0  0  0  0  0
  1  2  1  0  0  0  0
  1  5  2  0  0  0  0
  2  6  2  0  0  0  0
  3 10  2  0  0  0  0
  3 18  1  0  0  0  0
  4 11  1  0  0  0  0
  4 18  2  0  0  0  0
  5 20  1  0  0  0  0
  6 22  1  0  0  0  0
  7 12  2  0  0  0  0
  7 21  1  0  0  0  0
  8  9  2  0  0  0  0
  8 24  1  0  0  0  0
  9 25  1  0  0  0  0
 10 26  1  0  0  0  0
 11 26  2  0  0  0  0
 12 27  1  0  0  0  0
 13 14  2  0  0  0  0
 13 28  1  0  0  0  0
 14 29  1  0  0  0  0
 15 23  1  0  0  0  0
 15 27  2  0  0  0  0
 16 25  2  0  0  0  0
 16 31  1  0  0  0  0
 17 29  2  0  0  0  0
 17 30  1  0  0  0  0
 18 32  1  0  0  0  0
 19 32  1  0  0  0  0
 19 33  2  0  0  0  0
 19 36  1  0  0  0  0
 20 22  2  0  0  0  0
 20 41  1  0  0  0  0
 21 23  2  0  0  0  0
 21 42  1  0  0  0  0
 22 53  1  0  0  0  0
 23 43  1  0  0  0  0
 24 31  2  0  0  0  0
 24 62  1  0  0  0  0
 25 72  1  0  0  0  0
 26 82  1  0  0  0  0
 27 83  1  0  0  0  0
 28 30  2  0  0  0  0
 28 82  1  0  0  0  0
 29 84  1  0  0  0  0
 30 85  1  0  0  0  0
 31 86  1  0  0  0  0
 32 66  2  0  0  0  0
 33 67  1  0  0  0  0
 33 70  1  0  0  0  0
 34 35  2  0  0  0  0
 34 44  1  0  0  0  0
 34 75  1  0  0  0  0
 36 71  1  0  0  0  0
 36 77  2  0  0  0  0
 37 54  1  0  0  0  0
 37 73  1  0  0  0  0
 37 78  2  0  0  0  0
 38 63  1  0  0  0  0
 38 68  1  0  0  0  0
 38 79  2  0  0  0  0
 39 64  1  0  0  0  0
 39 74  1  0  0  0  0
 39 80  2  0  0  0  0
 40 69  1  0  0  0  0
 40 72  1  0  0  0  0
 40 81  2  0  0  0  0
 41 45  1  0  0  0  0
 42 54  1  0  0  0  0
 43 68  1  0  0  0  0
 44 56  1  0  0  0  0
 45 47  1  0  0  0  0
 46 48  1  0  0  0  0
 46 50  1  0  0  0  0
 47 53  1  0  0  0  0
 48 55  1  0  0  0  0
 49 52  1  0  0  0  0
 49 56  1  0  0  0  0
 50 69  1  0  0  0  0
 51 55  1  0  0  0  0
 51 69  1  0  0  0  0
 52 75  1  0  0  0  0
 53 73  1  0  0  0  0
 54 68  1  0  0  0  0
 55 67  1  0  0  0  0
 56 83  1  0  0  0  0
 57 64  1  0  0  0  0
 58 65  1  0  0  0  0
 59 65  1  0  0  0  0
 60 65  1  0  0  0  0
 61 76  1  0  0  0  0
 62 75  1  0  0  0  0
 63 65  1  0  0  0  0
 63 74  1  0  0  0  0
 64 76  1  0  0  0  0
 66 67  1  0  0  0  0
M  CHG  2  75   1  76   1
M  ISO  4  40 100  56 101  72 100  83 101
M  END
> <Batch ID>
0050

> <Smiles>
C=C1C[101CH:1]([101O:1]c2ccc3c(c2)CN(C(=O)C(NC(=O)C(C)NC)C(C)(C)C)C(C(=O)NC2CCCc4ccccc42)C3)CCN1Cc1ccc([100NH:0][100C:0](=O)N2CCCC(n3nc(-c4ccc(Oc5ccc(F)cc5F)cc4)c(C(N)=O)c3N)C2)cc1Cl

> <Shape>
0.284

> <Color>
0.080

> <Negative vol penalty>
0.000

$$$$

  -OEChem-04042322353D

 88 97  0     1  0  0  0  0  0999 V2000
  -29.6814  -15.8921   21.8824 C   0  0  0  0  0  0  0  0  0  0  0  0
  -29.7467  -16.7922   22.9413 C   0  0  0  0  0  0  0  0  0  0  0  0
  -22.4563  -15.0128   20.3902 C   0  0  0  0  0  0  0  0  0  0  0  0
  -23.3330  -14.1583   22.4731 C   0  0  0  0  0  0  0  0  0  0  0  0
  -30.1290  -16.2717   20.6177 C   0  0  0  0  0  0  0  0  0  0  0  0
  -30.2607  -18.0720   22.7362 C   0  0  0  0  0  0  0  0  0  0  0  0
  -27.0158  -25.0444   24.1086 C   0  0  0  0  0  0  0  0  0  0  0  0
  -22.0445  -26.6352   22.9373 C   0  0  0  0  0  0  0  0  0  0  0  0
  -22.3305  -25.3922   23.5019 C   0  0  0  0  0  0  0  0  0  0  0  0
  -21.9092  -13.7614   20.1071 C   0  0  0  0  0  0  0  0  0  0  0  0
  -22.7858  -12.9069   22.1900 C   0  0  0  0  0  0  0  0  0  0  0  0
  -26.4880  -26.3347   24.1602 C   0  0  0  0  0  0  0  0  0  0  0  0
  -23.5408  -10.2368   20.2583 C   0  0  0  0  0  0  0  0  0  0  0  0
  -24.3423   -9.1156   20.4726 C   0  0  0  0  0  0  0  0  0  0  0  0
  -27.9830  -27.0287   22.3907 C   0  0  0  0  0  0  0  0  0  0  0  0
  -22.7318   -8.2681   22.0616 C   0  0  0  0  0  0  0  0  0  0  0  0
  -23.1683  -15.2113   21.5731 C   0  0  0  0  0  0  0  0  0  0  0  0
  -24.6861  -17.2072   21.1037 C   0  0  0  0  0  0  0  0  0  0  0  0
  -30.6398  -17.5601   20.3948 C   0  0  0  0  0  0  0  0  0  0  0  0
  -28.0198  -24.7371   23.1861 C   0  0  0  0  0  0  0  0  0  0  0  0
  -30.7169  -18.4688   21.4676 C   0  0  0  0  0  0  0  0  0  0  0  0
  -28.5069  -25.7348   22.3258 C   0  0  0  0  0  0  0  0  0  0  0  0
  -22.4768  -26.9299   21.6442 C   0  0  0  0  0  0  0  0  0  0  0  0
  -23.1952  -25.9818   20.9159 C   0  0  0  0  0  0  0  0  0  0  0  0
  -23.4813  -24.7388   21.4806 C   0  0  0  0  0  0  0  0  0  0  0  0
  -23.0490  -24.4440   22.7736 C   0  0  0  0  0  0  0  0  0  0  0  0
  -22.0738  -12.7084   21.0070 C   0  0  0  0  0  0  0  0  0  0  0  0
  -26.9706  -27.3244   23.3036 C   0  0  0  0  0  0  0  0  0  0  0  0
  -22.3348  -10.3738   20.9457 C   0  0  0  0  0  0  0  0  0  0  0  0
  -23.9378   -8.1312   21.3742 C   0  0  0  0  0  0  0  0  0  0  0  0
  -21.9303   -9.3894   21.8473 C   0  0  0  0  0  0  0  0  0  0  0  0
  -23.7343  -16.5036   21.8658 C   0  0  0  0  0  0  0  0  0  0  0  0
  -24.8923  -18.3717   21.8021 C   0  0  0  0  0  0  0  0  0  0  0  0
  -23.9692  -29.4491   22.2409 C   0  0  0  0  0  0  0  0  0  0  0  0
  -25.3265  -16.8408   19.8744 C   0  0  0  0  0  0  0  0  0  0  0  0
  -30.3134  -22.1295   21.7662 C   0  0  0  0  0  0  0  0  0  0  0  0
  -29.2861  -23.7945   19.4034 C   0  0  0  0  0  0  0  0  0  0  0  0
  -27.3323  -25.1312   17.3302 C   0  0  0  0  0  0  0  0  0  0  0  0
  -22.9623  -22.7556   24.6412 C   0  0  0  0  0  0  0  0  0  0  0  0
  -31.1554  -17.9090   19.0211 C   0  0  0  0  0  0  0  0  0  0  0  0
  -28.6606  -23.3766   23.1372 C   0  0  0  0  0  0  0  0  0  0  0  0
  -29.6118  -25.3674   21.3733 C   0  0  0  0  0  0  0  0  0  0  0  0
  -31.3391  -19.4085   18.8022 C   0  0  0  0  0  0  0  0  0  0  0  0
  -24.9162  -30.5160   19.6746 C   0  0  0  0  0  0  0  0  0  0  0  0
  -23.4267  -19.7264   26.4539 C   0  0  0  0  0  0  0  0  0  0  0  0
  -32.0600  -20.0371   19.9904 C   0  0  0  0  0  0  0  0  0  0  0  0
  -25.2583  -31.2393   20.9626 C   0  0  0  0  0  0  0  0  0  0  0  0
  -23.6264  -18.6758   25.3591 C   0  0  0  0  0  0  0  0  0  0  0  0
  -23.5443  -29.8808   19.7956 C   0  0  0  0  0  0  0  0  0  0  0  0
  -22.4021  -20.7834   26.0454 C   0  0  0  0  0  0  0  0  0  0  0  0
  -22.8599  -20.3808   23.6584 C   0  0  0  0  0  0  0  0  0  0  0  0
  -31.2450  -19.8744   21.2792 C   0  0  1  0  0  0  0  0  0  0  0  0
  -25.2440  -30.2805   22.1479 C   0  0  2  0  0  0  0  0  0  0  0  0
  -29.0561  -22.9466   21.7131 C   0  0  1  0  0  0  0  0  0  0  0  0
  -23.9308  -19.3313   23.9978 C   0  0  2  0  0  0  0  0  0  0  0  0
  -23.6574  -26.3008   19.5293 C   0  0  0  0  0  0  0  0  0  0  0  0
  -24.2524  -23.7228   20.6971 C   0  0  0  0  0  0  0  0  0  0  0  0
  -26.0467  -26.0583   15.3846 C   0  0  0  0  0  0  0  0  0  0  0  0
  -31.9154  -25.3405   19.3774 C   0  0  0  0  0  0  0  0  0  0  0  0
  -31.2026  -26.3771   17.2128 C   0  0  0  0  0  0  0  0  0  0  0  0
  -31.5270  -23.9084   17.3644 C   0  0  0  0  0  0  0  0  0  0  0  0
  -26.0295  -22.5271   16.8010 C   0  0  0  0  0  0  0  0  0  0  0  0
  -22.1553  -28.2753   21.0604 C   0  0  0  0  0  0  0  0  0  0  0  0
  -26.4452  -29.3336   22.1439 C   0  0  0  0  0  0  0  0  0  1  0  0
  -29.5221  -24.9661   18.4841 C   0  0  1  0  0  0  0  0  0  0  0  0
  -26.6544  -24.8123   16.0098 C   0  0  2  0  0  0  0  0  0  0  0  0
  -31.0255  -25.1504   18.1329 C   0  0  0  0  0  0  0  0  0  0  0  0
  -23.3617  -17.1658   22.9643 N   0  0  0  0  0  0  0  0  0  0  0  0
  -24.0832  -18.2976   22.8976 N   0  0  0  0  0  0  0  0  0  0  0  0
  -23.3170  -29.1543   21.0442 N   0  0  0  0  0  0  0  0  0  0  0  0
  -29.3449  -24.0482   20.7792 N   0  0  0  0  0  0  0  0  0  0  0  0
  -22.7578  -21.3637   24.7486 N   0  0  0  0  0  0  0  0  0  0  0  0
  -25.6850  -19.4416   21.5800 N   0  0  0  0  0  0  0  0  0  0  0  0
  -26.5324  -16.1292   19.9354 N   0  0  0  0  0  0  0  0  0  0  0  0
  -23.3281  -23.1879   23.3669 N   0  0  0  0  0  0  0  0  0  0  0  0
  -30.1607  -20.8321   21.3158 N   0  0  0  0  0  0  0  0  0  0  0  0
  -28.6593  -24.7569   17.3265 N   0  0  0  0  0  0  0  0  0  0  0  0
  -25.5691  -23.8114   16.2133 N   0  3  0  0  0  0  0  0  0  0  0  0
  -23.6223  -29.0067   23.3404 O   0  0  0  0  0  0  0  0  0  0  0  0
  -24.8522  -17.1501   18.7551 O   0  0  0  0  0  0  0  0  0  0  0  0
  -31.3473  -22.6380   22.1836 O   0  0  0  0  0  0  0  0  0  0  0  0
  -29.0612  -22.6824   18.9177 O   0  0  0  0  0  0  0  0  0  0  0  0
  -26.7444  -25.6630   18.2694 O   0  0  0  0  0  0  0  0  0  0  0  0
  -22.8497  -23.5051   25.6146 O   0  0  0  0  0  0  0  0  0  0  0  0
  -21.5398  -11.4872   20.7312 O   0  0  0  0  0  0  0  0  0  0  0  0
  -26.4477  -28.5808   23.3563 O   0  0  0  0  0  0  0  0  0  1  0  0
  -24.7068   -7.0537   21.5788 F   0  0  0  0  0  0  0  0  0  0  0  0
  -20.7722   -9.5149   22.5098 F   0  0  0  0  0  0  0  0  0  0  0  0
  1  2  1  0  0  0  0
  1  5  2  0  0  0  0
  2  6  2  0  0  0  0
  3 10  2  0  0  0  0
  3 17  1  0  0  0  0
  4 11  1  0  0  0  0
  4 17  2  0  0  0  0
  5 19  1  0  0  0  0
  6 21  1  0  0  0  0
  7 12  2  0  0  0  0
  7 20  1  0  0  0  0
  8  9  2  0  0  0  0
  8 23  1  0  0  0  0
  9 26  1  0  0  0  0
 10 27  1  0  0  0  0
 11 27  2  0  0  0  0
 12 28  1  0  0  0  0
 13 14  2  0  0  0  0
 13 29  1  0  0  0  0
 14 30  1  0  0  0  0
 15 22  1  0  0  0  0
 15 28  2  0  0  0  0
 16 30  2  0  0  0  0
 16 31  1  0  0  0  0
 17 32  1  0  0  0  0
 18 32  1  0  0  0  0
 18 33  2  0  0  0  0
 18 35  1  0  0  0  0
 19 21  2  0  0  0  0
 19 40  1  0  0  0  0
 20 22  2  0  0  0  0
 20 41  1  0  0  0  0
 21 52  1  0  0  0  0
 22 42  1  0  0  0  0
 23 24  2  0  0  0  0
 23 63  1  0  0  0  0
 24 25  1  0  0  0  0
 24 56  1  0  0  0  0
 25 26  2  0  0  0  0
 25 57  1  0  0  0  0
 26 75  1  0  0  0  0
 27 85  1  0  0  0  0
 28 86  1  0  0  0  0
 29 31  2  0  0  0  0
 29 85  1  0  0  0  0
 30 87  1  0  0  0  0
 31 88  1  0  0  0  0
 32 68  2  0  0  0  0
 33 69  1  0  0  0  0
 33 73  1  0  0  0  0
 34 53  1  0  0  0  0
 34 70  1  0  0  0  0
 34 79  2  0  0  0  0
 35 74  1  0  0  0  0
 35 80  2  0  0  0  0
 36 54  1  0  0  0  0
 36 76  1  0  0  0  0
 36 81  2  0  0  0  0
 37 65  1  0  0  0  0
 37 71  1  0  0  0  0
 37 82  2  0  0  0  0
 38 66  1  0  0  0  0
 38 77  1  0  0  0  0
 38 83  2  0  0  0  0
 39 72  1  0  0  0  0
 39 75  1  0  0  0  0
 39 84  2  0  0  0  0
 40 43  1  0  0  0  0
 41 54  1  0  0  0  0
 42 71  1  0  0  0  0
 43 46  1  0  0  0  0
 44 47  1  0  0  0  0
 44 49  1  0  0  0  0
 45 48  1  0  0  0  0
 45 50  1  0  0  0  0
 46 52  1  0  0  0  0
 47 53  1  0  0  0  0
 48 55  1  0  0  0  0
 49 70  1  0  0  0  0
 50 72  1  0  0  0  0
 51 55  1  0  0  0  0
 51 72  1  0  0  0  0
 52 76  1  0  0  0  0
 53 64  1  0  0  0  0
 54 71  1  0  0  0  0
 55 69  1  0  0  0  0
 58 66  1  0  0  0  0
 59 67  1  0  0  0  0
 60 67  1  0  0  0  0
 61 67  1  0  0  0  0
 62 78  1  0  0  0  0
 63 70  1  0  0  0  0
 64 86  1  0  0  0  0
 65 67  1  0  0  0  0
 65 77  1  0  0  0  0
 66 78  1  0  0  0  0
 68 69  1  0  0  0  0
M  CHG  1  78   1
M  ISO  4  39 100  64 101  75 100  86 101
M  END
> <Batch ID>
0050

> <Smiles>
CNC(C)C(=O)NC(C(=O)N1Cc2cc([101O:1][101CH2:1]C3CCCN(Cc4ccc([100NH:0][100C:0](=O)N5CCCC(n6nc(-c7ccc(Oc8ccc(F)cc8F)cc7)c(C(N)=O)c6N)C5)c(C)c4C)C3=O)ccc2CC1C(=O)NC1CCCc2ccccc21)C(C)(C)C

> <Shape>
0.196

> <Color>
0.073

> <Negative vol penalty>
0.000

$$$$

  -OEChem-04042322353D

 84 92  0     1  0  0  0  0  0999 V2000
  -26.9729  -37.5240   23.4331 C   0  0  0  0  0  0  0  0  0  0  0  0
  -27.6030  -36.4047   22.8986 C   0  0  0  0  0  0  0  0  0  0  0  0
  -24.2967  -12.9039   24.2109 C   0  0  0  0  0  0  0  0  0  0  0  0
  -23.4357  -14.7837   22.9611 C   0  0  0  0  0  0  0  0  0  0  0  0
  -25.8732  -37.3675   24.2758 C   0  0  0  0  0  0  0  0  0  0  0  0
  -27.1343  -35.1282   23.2073 C   0  0  0  0  0  0  0  0  0  0  0  0
  -27.0908  -30.2329   19.5277 C   0  0  0  0  0  0  0  0  0  0  0  0
  -30.1546  -19.2188   16.4331 C   0  0  0  0  0  0  0  0  0  0  0  0
  -27.7478  -19.4082   16.3412 C   0  0  0  0  0  0  0  0  0  0  0  0
  -30.0336  -17.9197   16.9262 C   0  0  0  0  0  0  0  0  0  0  0  0
  -27.6267  -18.1090   16.8343 C   0  0  0  0  0  0  0  0  0  0  0  0
  -23.7472  -13.4296   25.3802 C   0  0  0  0  0  0  0  0  0  0  0  0
  -22.8861  -15.3094   24.1304 C   0  0  0  0  0  0  0  0  0  0  0  0
  -27.9480  -29.1395   19.4110 C   0  0  0  0  0  0  0  0  0  0  0  0
  -20.7066  -13.5903   26.8505 C   0  0  0  0  0  0  0  0  0  0  0  0
  -20.0207  -12.7166   27.6942 C   0  0  0  0  0  0  0  0  0  0  0  0
  -26.4908  -27.8525   20.8391 C   0  0  0  0  0  0  0  0  0  0  0  0
  -21.5735  -13.2183   29.4759 C   0  0  0  0  0  0  0  0  0  0  0  0
  -24.1410  -13.5810   23.0013 C   0  0  0  0  0  0  0  0  0  0  0  0
  -24.0935  -12.1545   20.8869 C   0  0  0  0  0  0  0  0  0  0  0  0
  -25.3848  -36.0888   24.5872 C   0  0  0  0  0  0  0  0  0  0  0  0
  -25.9309  -30.1476   20.3111 C   0  0  0  0  0  0  0  0  0  0  0  0
  -26.0278  -34.9544   24.0559 C   0  0  0  0  0  0  0  0  0  0  0  0
  -25.6192  -28.9453   20.9620 C   0  0  0  0  0  0  0  0  0  0  0  0
  -29.0117  -19.9631   16.1406 C   0  0  0  0  0  0  0  0  0  0  0  0
  -28.7696  -17.3648   17.1268 C   0  0  0  0  0  0  0  0  0  0  0  0
  -23.0419  -14.6323   25.3400 C   0  0  0  0  0  0  0  0  0  0  0  0
  -27.6495  -27.9500   20.0691 C   0  0  0  0  0  0  0  0  0  0  0  0
  -21.8260  -14.2779   27.3194 C   0  0  0  0  0  0  0  0  0  0  0  0
  -20.4542  -12.5307   29.0069 C   0  0  0  0  0  0  0  0  0  0  0  0
  -22.2594  -14.0920   28.6321 C   0  0  0  0  0  0  0  0  0  0  0  0
  -24.7089  -13.0387   21.7932 C   0  0  0  0  0  0  0  0  0  0  0  0
  -25.0414  -11.9439   19.9155 C   0  0  0  0  0  0  0  0  0  0  0  0
  -28.2707  -23.9123   18.2351 C   0  0  0  0  0  0  0  0  0  0  0  0
  -28.7352  -24.6207   19.2735 C   0  0  0  0  0  0  0  0  0  0  0  0
  -22.7823  -11.5755   20.9202 C   0  0  0  0  0  0  0  0  0  0  0  0
  -29.1628  -22.9652   17.5113 C   0  0  0  0  0  0  0  0  0  0  0  0
  -24.8588  -31.6446   22.9020 C   0  0  0  0  0  0  0  0  0  0  0  0
  -22.1760  -29.9190   22.3127 C   0  0  0  0  0  0  0  0  0  0  0  0
  -20.7602  -27.1617   20.8847 C   0  0  0  0  0  0  0  0  0  0  0  0
  -29.6781  -15.1709   17.9682 C   0  0  0  0  0  0  0  0  0  0  0  0
  -24.2223  -35.9680   25.5405 C   0  0  0  0  0  0  0  0  0  0  0  0
  -25.0028  -31.3275   20.4051 C   0  0  0  0  0  0  0  0  0  0  0  0
  -24.3759  -28.7958   21.7988 C   0  0  0  0  0  0  0  0  0  0  0  0
  -23.5568  -34.5943   25.5185 C   0  0  0  0  0  0  0  0  0  0  0  0
  -29.7857  -11.8581   19.2686 C   0  0  0  0  0  0  0  0  0  0  0  0
  -24.6085  -33.4907   25.5688 C   0  0  0  0  0  0  0  0  0  0  0  0
  -28.4375  -11.7023   19.9759 C   0  0  0  0  0  0  0  0  0  0  0  0
  -30.3471  -13.2705   19.4228 C   0  0  0  0  0  0  0  0  0  0  0  0
  -28.0842  -14.1931   19.7343 C   0  0  0  0  0  0  0  0  0  0  0  0
  -25.5337  -33.5541   24.3475 C   0  0  1  0  0  0  0  0  0  0  0  0
  -24.1148  -31.2919   21.6451 C   0  0  1  0  0  0  0  0  0  0  0  0
  -27.4479  -12.8054   19.5521 C   0  0  2  0  0  0  0  0  0  0  0  0
  -18.5522  -26.0027   20.6041 C   0  0  0  0  0  0  0  0  0  0  0  0
  -22.3384  -28.9181   25.1905 C   0  0  0  0  0  0  0  0  0  0  0  0
  -20.7356  -27.0963   24.5737 C   0  0  0  0  0  0  0  0  0  0  0  0
  -20.0302  -29.4835   24.4113 C   0  0  0  0  0  0  0  0  0  0  0  0
  -20.8689  -27.4177   17.9383 C   0  0  0  0  0  0  0  0  0  0  0  0
  -29.1421  -21.3615   15.6098 C   0  0  0  0  0  0  0  0  0  0  0  0
  -27.8962  -25.5847   20.0489 C   0  0  0  0  0  0  0  0  0  1  0  0
  -21.6688  -28.5577   22.7232 C   0  0  1  0  0  0  0  0  0  0  0  0
  -19.5324  -27.0001   20.0066 C   0  0  2  0  0  0  0  0  0  0  0  0
  -21.2178  -28.5170   24.2106 C   0  0  0  0  0  0  0  0  0  0  0  0
  -25.9516  -13.3671   21.4300 N   0  0  0  0  0  0  0  0  0  0  0  0
  -26.1248  -12.6855   20.2848 N   0  0  0  0  0  0  0  0  0  0  0  0
  -23.5033  -29.9797   21.8649 N   0  0  0  0  0  0  0  0  0  0  0  0
  -29.3564  -14.2620   18.9983 N   0  0  0  0  0  0  0  0  0  0  0  0
  -25.0455  -11.1984   18.7901 N   0  0  0  0  0  0  0  0  0  0  0  0
  -21.9363  -11.8982   21.9900 N   0  0  0  0  0  0  0  0  0  0  0  0
  -28.6464  -16.0450   17.6275 N   0  0  0  0  0  0  0  0  0  0  0  0
  -28.5034  -22.3296   16.4730 N   0  0  0  0  0  0  0  0  0  0  0  0
  -24.8753  -32.9970   23.1853 N   0  0  0  0  0  0  0  0  0  0  0  0
  -20.6201  -28.2087   21.7710 N   0  0  0  0  0  0  0  0  0  0  0  0
  -19.9244  -26.5198   18.6514 N   0  3  0  0  0  0  0  0  0  0  0  0
  -22.3789  -10.7820   20.0363 O   0  0  0  0  0  0  0  0  0  0  0  0
  -30.3367  -22.7957   17.8244 O   0  0  0  0  0  0  0  0  0  0  0  0
  -25.3780  -30.7555   23.5665 O   0  0  0  0  0  0  0  0  0  0  0  0
  -21.4201  -30.8915   22.3799 O   0  0  0  0  0  0  0  0  0  0  0  0
  -21.7435  -26.4298   20.7960 O   0  0  0  0  0  0  0  0  0  0  0  0
  -30.7779  -15.1557   17.4095 O   0  0  0  0  0  0  0  0  0  0  0  0
  -22.5053  -15.1455   26.4807 O   0  0  0  0  0  0  0  0  0  0  0  0
  -28.4848  -26.8815   19.9575 O   0  0  0  0  0  0  0  0  0  1  0  0
  -19.7945  -11.6928   29.8176 F   0  0  0  0  0  0  0  0  0  0  0  0
  -23.3334  -14.7507   29.0886 F   0  0  0  0  0  0  0  0  0  0  0  0
  1  2  1  0  0  0  0
  1  5  2  0  0  0  0
  2  6  2  0  0  0  0
  3 12  2  0  0  0  0
  3 19  1  0  0  0  0
  4 13  1  0  0  0  0
  4 19  2  0  0  0  0
  5 21  1  0  0  0  0
  6 23  1  0  0  0  0
  7 14  2  0  0  0  0
  7 22  1  0  0  0  0
  8 10  2  0  0  0  0
  8 25  1  0  0  0  0
  9 11  1  0  0  0  0
  9 25  2  0  0  0  0
 10 26  1  0  0  0  0
 11 26  2  0  0  0  0
 12 27  1  0  0  0  0
 13 27  2  0  0  0  0
 14 28  1  0  0  0  0
 15 16  2  0  0  0  0
 15 29  1  0  0  0  0
 16 30  1  0  0  0  0
 17 24  1  0  0  0  0
 17 28  2  0  0  0  0
 18 30  2  0  0  0  0
 18 31  1  0  0  0  0
 19 32  1  0  0  0  0
 20 32  1  0  0  0  0
 20 33  2  0  0  0  0
 20 36  1  0  0  0  0
 21 23  2  0  0  0  0
 21 42  1  0  0  0  0
 22 24  2  0  0  0  0
 22 43  1  0  0  0  0
 23 51  1  0  0  0  0
 24 44  1  0  0  0  0
 25 59  1  0  0  0  0
 26 70  1  0  0  0  0
 27 81  1  0  0  0  0
 28 82  1  0  0  0  0
 29 31  2  0  0  0  0
 29 81  1  0  0  0  0
 30 83  1  0  0  0  0
 31 84  1  0  0  0  0
 32 64  2  0  0  0  0
 33 65  1  0  0  0  0
 33 68  1  0  0  0  0
 34 35  2  0  0  0  0
 34 37  1  0  0  0  0
 35 60  1  0  0  0  0
 36 69  1  0  0  0  0
 36 75  2  0  0  0  0
 37 71  1  0  0  0  0
 37 76  2  0  0  0  0
 38 52  1  0  0  0  0
 38 72  1  0  0  0  0
 38 77  2  0  0  0  0
 39 61  1  0  0  0  0
 39 66  1  0  0  0  0
 39 78  2  0  0  0  0
 40 62  1  0  0  0  0
 40 73  1  0  0  0  0
 40 79  2  0  0  0  0
 41 67  1  0  0  0  0
 41 70  1  0  0  0  0
 41 80  2  0  0  0  0
 42 45  1  0  0  0  0
 43 52  1  0  0  0  0
 44 66  1  0  0  0  0
 45 47  1  0  0  0  0
 46 48  1  0  0  0  0
 46 49  1  0  0  0  0
 47 51  1  0  0  0  0
 48 53  1  0  0  0  0
 49 67  1  0  0  0  0
 50 53  1  0  0  0  0
 50 67  1  0  0  0  0
 51 72  1  0  0  0  0
 52 66  1  0  0  0  0
 53 65  1  0  0  0  0
 54 62  1  0  0  0  0
 55 63  1  0  0  0  0
 56 63  1  0  0  0  0
 57 63  1  0  0  0  0
 58 74  1  0  0  0  0
 59 71  1  0  0  0  0
 60 82  1  0  0  0  0
 61 63  1  0  0  0  0
 61 73  1  0  0  0  0
 62 74  1  0  0  0  0
 64 65  1  0  0  0  0
M  CHG  1  74   1
M  ISO  4  41 100  60 101  70 100  82 101
M  END
> <Batch ID>
0050

> <Smiles>
CNC(C)C(=O)NC(C(=O)N1Cc2cc([101O:1][101CH2:1]C=CC(=O)NCc3ccc([100NH:0][100C:0](=O)N4CCCC(n5nc(-c6ccc(Oc7ccc(F)cc7F)cc6)c(C(N)=O)c5N)C4)cc3)ccc2CC1C(=O)NC1CCCc2ccccc21)C(C)(C)C

> <Shape>
0.272

> <Color>
0.095

> <Negative vol penalty>
0.000

$$$$

  -OEChem-04042322353D

 87 96  0     1  0  0  0  0  0999 V2000
  -18.6671  -20.5004   20.8273 C   0  0  0  0  0  0  0  0  0  0  0  0
  -19.0715  -20.2115   19.5279 C   0  0  0  0  0  0  0  0  0  0  0  0
  -25.4576  -29.8538   23.0919 C   0  0  0  0  0  0  0  0  0  0  0  0
  -24.2400  -30.4038   21.0790 C   0  0  0  0  0  0  0  0  0  0  0  0
  -19.5455  -20.2978   21.8909 C   0  0  0  0  0  0  0  0  0  0  0  0
  -20.3552  -19.7209   19.2913 C   0  0  0  0  0  0  0  0  0  0  0  0
  -26.6018  -14.4418   17.4033 C   0  0  0  0  0  0  0  0  0  0  0  0
  -28.3522  -18.5496   20.7340 C   0  0  0  0  0  0  0  0  0  0  0  0
  -27.6282  -19.6292   20.2283 C   0  0  0  0  0  0  0  0  0  0  0  0
  -24.7898  -30.8710   23.7738 C   0  0  0  0  0  0  0  0  0  0  0  0
  -23.5722  -31.4210   21.7609 C   0  0  0  0  0  0  0  0  0  0  0  0
  -27.8632  -14.1910   17.9415 C   0  0  0  0  0  0  0  0  0  0  0  0
  -24.9837  -34.2349   24.0398 C   0  0  0  0  0  0  0  0  0  0  0  0
  -25.7424  -35.0724   24.8575 C   0  0  0  0  0  0  0  0  0  0  0  0
  -26.9142  -14.2103   20.1592 C   0  0  0  0  0  0  0  0  0  0  0  0
  -30.1379  -20.0462   21.3730 C   0  0  0  0  0  0  0  0  0  0  0  0
  -24.4275  -34.3974   26.7687 C   0  0  0  0  0  0  0  0  0  0  0  0
  -25.1827  -29.6202   21.7445 C   0  0  0  0  0  0  0  0  0  0  0  0
  -27.2609  -28.4498   20.8395 C   0  0  0  0  0  0  0  0  0  0  0  0
  -20.8372  -19.7953   21.6681 C   0  0  0  0  0  0  0  0  0  0  0  0
  -25.4871  -14.5898   18.2411 C   0  0  0  0  0  0  0  0  0  0  0  0
  -21.2522  -19.5126   20.3527 C   0  0  0  0  0  0  0  0  0  0  0  0
  -25.6393  -14.4603   19.6290 C   0  0  0  0  0  0  0  0  0  0  0  0
  -29.4140  -21.1259   20.8672 C   0  0  0  0  0  0  0  0  0  0  0  0
  -29.6070  -18.7580   21.3065 C   0  0  0  0  0  0  0  0  0  0  0  0
  -28.1592  -20.9174   20.2948 C   0  0  0  0  0  0  0  0  0  0  0  0
  -23.8471  -31.6546   23.1083 C   0  0  0  0  0  0  0  0  0  0  0  0
  -28.0201  -14.0781   19.3198 C   0  0  0  0  0  0  0  0  0  0  0  0
  -23.9469  -33.4787   24.5865 C   0  0  0  0  0  0  0  0  0  0  0  0
  -25.4642  -35.1537   26.2219 C   0  0  0  0  0  0  0  0  0  0  0  0
  -23.6688  -33.5600   25.9509 C   0  0  0  0  0  0  0  0  0  0  0  0
  -25.8726  -28.5699   21.0394 C   0  0  0  0  0  0  0  0  0  0  0  0
  -27.4048  -27.2903   20.1175 C   0  0  0  0  0  0  0  0  0  0  0  0
  -31.3358  -15.5275   21.1055 C   0  0  0  0  0  0  0  0  0  0  0  0
  -31.2464  -17.8021   22.9119 C   0  0  0  0  0  0  0  0  0  0  0  0
  -31.4650  -14.6516   20.0974 C   0  0  0  0  0  0  0  0  0  0  0  0
  -28.3253  -29.3094   21.2683 C   0  0  0  0  0  0  0  0  0  0  0  0
  -23.4305  -16.9371   18.8446 C   0  0  0  0  0  0  0  0  0  0  0  0
  -21.9492  -14.6582   20.6152 C   0  0  0  0  0  0  0  0  0  0  0  0
  -22.9354  -12.0293   22.8809 C   0  0  0  0  0  0  0  0  0  0  0  0
  -26.1477  -21.9474   19.1815 C   0  0  0  0  0  0  0  0  0  0  0  0
  -21.7676  -19.6374   22.8446 C   0  0  0  0  0  0  0  0  0  0  0  0
  -24.1286  -14.8334   17.6432 C   0  0  0  0  0  0  0  0  0  0  0  0
  -24.4709  -14.5907   20.5704 C   0  0  0  0  0  0  0  0  0  0  0  0
  -32.4734  -15.8031   22.0476 C   0  0  0  0  0  0  0  0  0  0  0  0
  -30.0551  -16.2860   21.3441 C   0  0  0  0  0  0  0  0  0  0  0  0
  -31.9767  -16.5257   23.2908 C   0  0  0  0  0  0  0  0  0  0  0  0
  -22.9815  -18.7607   22.5479 C   0  0  0  0  0  0  0  0  0  0  0  0
  -23.9508  -24.3936   17.8151 C   0  0  0  0  0  0  0  0  0  0  0  0
  -23.6127  -19.1557   21.2166 C   0  0  0  0  0  0  0  0  0  0  0  0
  -24.3692  -25.6883   18.5157 C   0  0  0  0  0  0  0  0  0  0  0  0
  -24.0387  -23.1888   18.7503 C   0  0  0  0  0  0  0  0  0  0  0  0
  -25.7529  -24.3096   20.1193 C   0  0  0  0  0  0  0  0  0  0  0  0
  -22.6280  -18.9555   20.0582 C   0  0  1  0  0  0  0  0  0  0  0  0
  -23.1517  -15.4774   18.6221 C   0  0  1  0  0  0  0  0  0  0  0  0
  -25.7430  -25.5409   19.1987 C   0  0  2  0  0  0  0  0  0  0  0  0
  -30.0060  -22.4952   20.9535 C   0  0  0  0  0  0  0  0  0  0  0  0
  -21.8014   -9.8681   23.4649 C   0  0  0  0  0  0  0  0  0  0  0  0
  -20.7577  -16.2450   22.9331 C   0  0  0  0  0  0  0  0  0  0  0  0
  -21.0308  -14.2145   24.3721 C   0  0  0  0  0  0  0  0  0  0  0  0
  -19.5362  -14.1349   22.3765 C   0  0  0  0  0  0  0  0  0  0  0  0
  -25.3298  -10.4447   22.1633 C   0  0  0  0  0  0  0  0  0  0  0  0
  -30.3769  -14.3315   19.1269 C   0  0  0  0  0  0  0  0  0  1  0  0
  -22.0423  -14.1882   22.0468 C   0  0  1  0  0  0  0  0  0  0  0  0
  -22.8758  -10.5350   22.6201 C   0  0  2  0  0  0  0  0  0  0  0  0
  -20.8642  -14.7070   22.9187 C   0  0  0  0  0  0  0  0  0  0  0  0
  -25.1836  -27.5669   20.4887 N   0  0  0  0  0  0  0  0  0  0  0  0
  -26.1430  -26.8055   19.9356 N   0  0  0  0  0  0  0  0  0  0  0  0
  -30.3529  -17.6437   21.8310 N   0  0  0  0  0  0  0  0  0  0  0  0
  -23.1640  -14.8350   19.9379 N   0  0  0  0  0  0  0  0  0  0  0  0
  -25.3691  -23.1108   19.3575 N   0  0  0  0  0  0  0  0  0  0  0  0
  -28.4862  -26.6484   19.6268 N   0  0  0  0  0  0  0  0  0  0  0  0
  -28.0014  -30.4594   22.0010 N   0  0  0  0  0  0  0  0  0  0  0  0
  -27.4075  -22.0012   19.7770 N   0  0  0  0  0  0  0  0  0  0  0  0
  -22.5423  -17.5549   19.7042 N   0  0  0  0  0  0  0  0  0  0  0  0
  -22.1508  -12.7344   21.9929 N   0  0  0  0  0  0  0  0  0  0  0  0
  -24.1860   -9.9007   22.9397 N   0  3  0  0  0  0  0  0  0  0  0  0
  -31.4248  -18.8238   23.5745 O   0  0  0  0  0  0  0  0  0  0  0  0
  -29.5267  -29.0736   20.9952 O   0  0  0  0  0  0  0  0  0  0  0  0
  -24.3819  -17.4634   18.2794 O   0  0  0  0  0  0  0  0  0  0  0  0
  -20.8392  -14.8542   20.1141 O   0  0  0  0  0  0  0  0  0  0  0  0
  -23.6075  -12.5214   23.7845 O   0  0  0  0  0  0  0  0  0  0  0  0
  -25.7384  -20.9856   18.5262 O   0  0  0  0  0  0  0  0  0  0  0  0
  -23.1952  -32.6471   23.7735 O   0  0  0  0  0  0  0  0  0  0  0  0
  -29.2503  -13.8340   19.8478 O   0  0  0  0  0  0  0  0  0  1  0  0
  -26.1938  -35.9568   27.0073 F   0  0  0  0  0  0  0  0  0  0  0  0
  -22.6747  -32.8350   26.4821 F   0  0  0  0  0  0  0  0  0  0  0  0
  1  2  1  0  0  0  0
  1  5  2  0  0  0  0
  2  6  2  0  0  0  0
  3 10  2  0  0  0  0
  3 18  1  0  0  0  0
  4 11  1  0  0  0  0
  4 18  2  0  0  0  0
  5 20  1  0  0  0  0
  6 22  1  0  0  0  0
  7 12  2  0  0  0  0
  7 21  1  0  0  0  0
  8  9  2  0  0  0  0
  8 25  1  0  0  0  0
  9 26  1  0  0  0  0
 10 27  1  0  0  0  0
 11 27  2  0  0  0  0
 12 28  1  0  0  0  0
 13 14  2  0  0  0  0
 13 29  1  0  0  0  0
 14 30  1  0  0  0  0
 15 23  1  0  0  0  0
 15 28  2  0  0  0  0
 16 24  1  0  0  0  0
 16 25  2  0  0  0  0
 17 30  2  0  0  0  0
 17 31  1  0  0  0  0
 18 32  1  0  0  0  0
 19 32  1  0  0  0  0
 19 33  2  0  0  0  0
 19 37  1  0  0  0  0
 20 22  2  0  0  0  0
 20 42  1  0  0  0  0
 21 23  2  0  0  0  0
 21 43  1  0  0  0  0
 22 54  1  0  0  0  0
 23 44  1  0  0  0  0
 24 26  2  0  0  0  0
 24 57  1  0  0  0  0
 25 69  1  0  0  0  0
 26 74  1  0  0  0  0
 27 84  1  0  0  0  0
 28 85  1  0  0  0  0
 29 31  2  0  0  0  0
 29 84  1  0  0  0  0
 30 86  1  0  0  0  0
 31 87  1  0  0  0  0
 32 67  2  0  0  0  0
 33 68  1  0  0  0  0
 33 72  1  0  0  0  0
 34 36  2  0  0  0  0
 34 45  1  0  0  0  0
 34 46  1  0  0  0  0
 35 47  1  0  0  0  0
 35 69  1  0  0  0  0
 35 78  2  0  0  0  0
 36 63  1  0  0  0  0
 37 73  1  0  0  0  0
 37 79  2  0  0  0  0
 38 55  1  0  0  0  0
 38 75  1  0  0  0  0
 38 80  2  0  0  0  0
 39 64  1  0  0  0  0
 39 70  1  0  0  0  0
 39 81  2  0  0  0  0
 40 65  1  0  0  0  0
 40 76  1  0  0  0  0
 40 82  2  0  0  0  0
 41 71  1  0  0  0  0
 41 74  1  0  0  0  0
 41 83  2  0  0  0  0
 42 48  1  0  0  0  0
 43 55  1  0  0  0  0
 44 70  1  0  0  0  0
 45 47  1  0  0  0  0
 46 69  1  0  0  0  0
 48 50  1  0  0  0  0
 49 51  1  0  0  0  0
 49 52  1  0  0  0  0
 50 54  1  0  0  0  0
 51 56  1  0  0  0  0
 52 71  1  0  0  0  0
 53 56  1  0  0  0  0
 53 71  1  0  0  0  0
 54 75  1  0  0  0  0
 55 70  1  0  0  0  0
 56 68  1  0  0  0  0
 58 65  1  0  0  0  0
 59 66  1  0  0  0  0
 60 66  1  0  0  0  0
 61 66  1  0  0  0  0
 62 77  1  0  0  0  0
 63 85  1  0  0  0  0
 64 66  1  0  0  0  0
 64 76  1  0  0  0  0
 65 77  1  0  0  0  0
 67 68  1  0  0  0  0
M  CHG  1  77   1
M  ISO  4  41 100  63 101  74 100  85 101
M  END
> <Batch ID>
0050

> <Smiles>
CNC(C)C(=O)NC(C(=O)N1Cc2cc([101O:1][101CH2:1]C=C3CCC(=O)N(c4ccc([100NH:0][100C:0](=O)N5CCCC(n6nc(-c7ccc(Oc8ccc(F)cc8F)cc7)c(C(N)=O)c6N)C5)c(C)c4)C3)ccc2CC1C(=O)NC1CCCc2ccccc21)C(C)(C)C

> <Shape>
0.233

> <Color>
0.062

> <Negative vol penalty>
0.000

$$$$

  -OEChem-04042322353D

 85 93  0     1  0  0  0  0  0999 V2000
  -28.1906  -24.3197   17.3663 C   0  0  0  0  0  0  0  0  0  0  0  0
  -27.0561  -24.5066   18.1495 C   0  0  0  0  0  0  0  0  0  0  0  0
  -25.1807  -12.2407   20.0443 C   0  0  0  0  0  0  0  0  0  0  0  0
  -25.4785  -12.9935   22.3207 C   0  0  0  0  0  0  0  0  0  0  0  0
  -23.6135  -22.5594   24.2797 C   0  0  0  0  0  0  0  0  0  0  0  0
  -29.3808  -24.9644   17.7003 C   0  0  0  0  0  0  0  0  0  0  0  0
  -27.1116  -25.3374   19.2680 C   0  0  0  0  0  0  0  0  0  0  0  0
  -23.1201  -28.4379   19.5848 C   0  0  0  0  0  0  0  0  0  0  0  0
  -24.7389  -21.8197   23.9168 C   0  0  0  0  0  0  0  0  0  0  0  0
  -25.8375  -11.0494   20.3524 C   0  0  0  0  0  0  0  0  0  0  0  0
  -26.1352  -11.8021   22.6288 C   0  0  0  0  0  0  0  0  0  0  0  0
  -21.9268  -27.8934   20.0574 C   0  0  0  0  0  0  0  0  0  0  0  0
  -25.1070   -8.1277   21.8896 C   0  0  0  0  0  0  0  0  0  0  0  0
  -24.5405   -6.9381   21.4318 C   0  0  0  0  0  0  0  0  0  0  0  0
  -22.3652  -28.8371   22.2338 C   0  0  0  0  0  0  0  0  0  0  0  0
  -25.4505  -23.6148   22.4648 C   0  0  0  0  0  0  0  0  0  0  0  0
  -26.5486   -6.4660   20.1740 C   0  0  0  0  0  0  0  0  0  0  0  0
  -25.0012  -13.2128   21.0285 C   0  0  0  0  0  0  0  0  0  0  0  0
  -23.4065  -23.8268   23.7351 C   0  0  0  0  0  0  0  0  0  0  0  0
  -22.9429  -14.7033   20.8058 C   0  0  0  0  0  0  0  0  0  0  0  0
  -29.4483  -25.8112   18.8179 C   0  0  0  0  0  0  0  0  0  0  0  0
  -23.9516  -29.1782   20.4375 C   0  0  0  0  0  0  0  0  0  0  0  0
  -28.3042  -25.9930   19.6181 C   0  0  0  0  0  0  0  0  0  0  0  0
  -23.5672  -29.3921   21.7688 C   0  0  0  0  0  0  0  0  0  0  0  0
  -25.6575  -22.3474   23.0094 C   0  0  0  0  0  0  0  0  0  0  0  0
  -24.3250  -24.3545   22.8277 C   0  0  0  0  0  0  0  0  0  0  0  0
  -26.3147  -10.8300   21.6446 C   0  0  0  0  0  0  0  0  0  0  0  0
  -21.5506  -28.0905   21.3828 C   0  0  0  0  0  0  0  0  0  0  0  0
  -26.3942   -8.4865   21.4896 C   0  0  0  0  0  0  0  0  0  0  0  0
  -25.2613   -6.1073   20.5740 C   0  0  0  0  0  0  0  0  0  0  0  0
  -27.1150   -7.6557   20.6318 C   0  0  0  0  0  0  0  0  0  0  0  0
  -24.3233  -14.4439   20.7108 C   0  0  0  0  0  0  0  0  0  0  0  0
  -22.8093  -16.0065   20.3932 C   0  0  0  0  0  0  0  0  0  0  0  0
  -22.1992  -24.5925   24.1393 C   0  0  0  0  0  0  0  0  0  0  0  0
  -21.8769  -13.8431   21.2292 C   0  0  0  0  0  0  0  0  0  0  0  0
  -26.9240  -28.8481   21.5145 C   0  0  0  0  0  0  0  0  0  0  0  0
  -26.3752  -31.7830   22.7824 C   0  0  0  0  0  0  0  0  0  0  0  0
  -24.1100  -34.0869   23.8812 C   0  0  0  0  0  0  0  0  0  0  0  0
  -26.5673  -20.6674   20.3240 C   0  0  0  0  0  0  0  0  0  0  0  0
  -30.7697  -26.4492   19.1665 C   0  0  0  0  0  0  0  0  0  0  0  0
  -25.2225  -29.7814   19.9052 C   0  0  0  0  0  0  0  0  0  0  0  0
  -24.4146  -30.1963   22.7194 C   0  0  0  0  0  0  0  0  0  0  0  0
  -30.6453  -27.6081   20.1523 C   0  0  0  0  0  0  0  0  0  0  0  0
  -24.8517  -19.2591   17.5401 C   0  0  0  0  0  0  0  0  0  0  0  0
  -29.7357  -27.2244   21.3152 C   0  0  0  0  0  0  0  0  0  0  0  0
  -24.3972  -17.8887   18.0456 C   0  0  0  0  0  0  0  0  0  0  0  0
  -26.2218  -19.6399   18.0965 C   0  0  0  0  0  0  0  0  0  0  0  0
  -25.8785  -18.2060   20.0713 C   0  0  0  0  0  0  0  0  0  0  0  0
  -28.3181  -26.9060   20.8249 C   0  0  1  0  0  0  0  0  0  0  0  0
  -26.2436  -30.0840   20.9976 C   0  0  1  0  0  0  0  0  0  0  0  0
  -24.4771  -17.8029   19.5816 C   0  0  2  0  0  0  0  0  0  0  0  0
  -24.1283  -25.7094   22.2299 C   0  0  0  0  0  0  0  0  0  0  0  0
  -23.9641  -36.3768   24.8973 C   0  0  0  0  0  0  0  0  0  0  0  0
  -19.2645  -28.0227   23.9304 C   0  0  0  0  0  0  0  0  0  0  0  0
  -27.2155  -30.6360   25.4821 C   0  0  0  0  0  0  0  0  0  0  0  0
  -26.1626  -32.6262   26.5770 C   0  0  0  0  0  0  0  0  0  0  0  0
  -28.0796  -32.9350   25.0109 C   0  0  0  0  0  0  0  0  0  0  0  0
  -22.5842  -35.1400   21.5743 C   0  0  0  0  0  0  0  0  0  0  0  0
  -26.8615  -21.5568   22.6221 C   0  0  0  0  0  0  0  0  0  0  0  0
  -20.1242  -25.6973   23.3456 C   0  0  0  0  0  0  0  0  0  0  0  0
  -25.8147  -32.2963   24.0867 C   0  0  1  0  0  0  0  0  0  0  0  0
  -23.9708  -35.5733   23.6061 C   0  0  2  0  0  0  0  0  0  0  0  0
  -20.3401  -27.2044   23.2282 C   0  0  1  0  0  0  0  0  0  1  0  0
  -26.8029  -32.1065   25.2720 C   0  0  0  0  0  0  0  0  0  0  0  0
  -25.0170  -15.4977   20.2721 N   0  0  0  0  0  0  0  0  0  0  0  0
  -24.0686  -16.4318   20.0877 N   0  0  0  0  0  0  0  0  0  0  0  0
  -25.6511  -30.7603   22.1534 N   0  0  0  0  0  0  0  0  0  0  0  0
  -26.2300  -19.5393   19.5579 N   0  0  0  0  0  0  0  0  0  0  0  0
  -21.7385  -16.8186   20.2654 N   0  0  0  0  0  0  0  0  0  0  0  0
  -22.1898  -12.5342   21.6203 N   0  0  0  0  0  0  0  0  0  0  0  0
  -21.3236  -24.9360   23.1169 N   0  0  0  0  0  0  0  0  0  0  0  0
  -27.5940  -28.1273   20.5445 N   0  0  0  0  0  0  0  0  0  0  0  0
  -25.4278  -33.6824   23.8474 N   0  0  0  0  0  0  0  0  0  0  0  0
  -26.5444  -20.4877   21.7016 N   0  0  0  0  0  0  0  0  0  0  0  0
  -22.7016  -35.8481   22.8750 N   0  3  0  0  0  0  0  0  0  0  0  0
  -22.0477  -24.8945   25.3201 O   0  0  0  0  0  0  0  0  0  0  0  0
  -20.6801  -14.2189   21.2441 O   0  0  0  0  0  0  0  0  0  0  0  0
  -26.8479  -28.5698   22.7055 O   0  0  0  0  0  0  0  0  0  0  0  0
  -27.4134  -32.2762   22.3345 O   0  0  0  0  0  0  0  0  0  0  0  0
  -23.1465  -33.3583   24.1075 O   0  0  0  0  0  0  0  0  0  0  0  0
  -26.8615  -21.7555   19.8177 O   0  0  0  0  0  0  0  0  0  0  0  0
  -26.9554   -9.6675   21.9456 O   0  0  0  0  0  0  0  0  0  0  0  0
  -20.3867  -27.5596   21.8469 O   0  0  0  0  0  0  0  0  0  1  0  0
  -24.7178   -4.9642   20.1357 F   0  0  0  0  0  0  0  0  0  0  0  0
  -28.3525   -7.9945   20.2449 F   0  0  0  0  0  0  0  0  0  0  0  0
  1  2  1  0  0  0  0
  1  6  2  0  0  0  0
  2  7  2  0  0  0  0
  3 10  2  0  0  0  0
  3 18  1  0  0  0  0
  4 11  1  0  0  0  0
  4 18  2  0  0  0  0
  5  9  2  0  0  0  0
  5 19  1  0  0  0  0
  6 21  1  0  0  0  0
  7 23  1  0  0  0  0
  8 12  2  0  0  0  0
  8 22  1  0  0  0  0
  9 25  1  0  0  0  0
 10 27  1  0  0  0  0
 11 27  2  0  0  0  0
 12 28  1  0  0  0  0
 13 14  2  0  0  0  0
 13 29  1  0  0  0  0
 14 30  1  0  0  0  0
 15 24  1  0  0  0  0
 15 28  2  0  0  0  0
 16 25  2  0  0  0  0
 16 26  1  0  0  0  0
 17 30  2  0  0  0  0
 17 31  1  0  0  0  0
 18 32  1  0  0  0  0
 19 26  2  0  0  0  0
 19 34  1  0  0  0  0
 20 32  1  0  0  0  0
 20 33  2  0  0  0  0
 20 35  1  0  0  0  0
 21 23  2  0  0  0  0
 21 40  1  0  0  0  0
 22 24  2  0  0  0  0
 22 41  1  0  0  0  0
 23 49  1  0  0  0  0
 24 42  1  0  0  0  0
 25 59  1  0  0  0  0
 26 52  1  0  0  0  0
 27 82  1  0  0  0  0
 28 83  1  0  0  0  0
 29 31  2  0  0  0  0
 29 82  1  0  0  0  0
 30 84  1  0  0  0  0
 31 85  1  0  0  0  0
 32 65  2  0  0  0  0
 33 66  1  0  0  0  0
 33 69  1  0  0  0  0
 34 71  1  0  0  0  0
 34 76  2  0  0  0  0
 35 70  1  0  0  0  0
 35 77  2  0  0  0  0
 36 50  1  0  0  0  0
 36 72  1  0  0  0  0
 36 78  2  0  0  0  0
 37 61  1  0  0  0  0
 37 67  1  0  0  0  0
 37 79  2  0  0  0  0
 38 62  1  0  0  0  0
 38 73  1  0  0  0  0
 38 80  2  0  0  0  0
 39 68  1  0  0  0  0
 39 74  1  0  0  0  0
 39 81  2  0  0  0  0
 40 43  1  0  0  0  0
 41 50  1  0  0  0  0
 42 67  1  0  0  0  0
 43 45  1  0  0  0  0
 44 46  1  0  0  0  0
 44 47  1  0  0  0  0
 45 49  1  0  0  0  0
 46 51  1  0  0  0  0
 47 68  1  0  0  0  0
 48 51  1  0  0  0  0
 48 68  1  0  0  0  0
 49 72  1  0  0  0  0
 50 67  1  0  0  0  0
 51 66  1  0  0  0  0
 53 62  1  0  0  0  0
 54 63  1  0  0  0  0
 55 64  1  0  0  0  0
 56 64  1  0  0  0  0
 57 64  1  0  0  0  0
 58 75  1  0  0  0  0
 59 74  1  0  0  0  0
 60 63  1  0  0  0  0
 60 71  1  0  0  0  0
 61 64  1  0  0  0  0
 61 73  1  0  0  0  0
 62 75  1  0  0  0  0
 63 83  1  0  0  0  0
 65 66  1  0  0  0  0
M  CHG  1  75   1
M  ISO  4  39 100  63 101  74 100  83 101
M  END
> <Batch ID>
0050

> <Smiles>
CNC(C)C(=O)NC(C(=O)N1Cc2cc([101O:1][101CH:1](C)CNC(=O)c3ccc(C[100NH:0][100C:0](=O)N4CCCC(n5nc(-c6ccc(Oc7ccc(F)cc7F)cc6)c(C(N)=O)c5N)C4)cc3C)ccc2CC1C(=O)NC1CCCc2ccccc21)C(C)(C)C

> <Shape>
0.263

> <Color>
0.084

> <Negative vol penalty>
0.000

$$$$

  -OEChem-04042322353D

 88 96  0     1  0  0  0  0  0999 V2000
  -20.5190  -33.4170   19.9564 C   0  0  0  0  0  0  0  0  0  0  0  0
  -20.0474  -32.2911   20.6238 C   0  0  0  0  0  0  0  0  0  0  0  0
  -23.0964   -9.8634   21.4282 C   0  0  0  0  0  0  0  0  0  0  0  0
  -23.8549  -10.7135   23.5588 C   0  0  0  0  0  0  0  0  0  0  0  0
  -27.4583  -20.2689   22.3231 C   0  0  0  0  0  0  0  0  0  0  0  0
  -21.3964  -33.2727   18.8825 C   0  0  0  0  0  0  0  0  0  0  0  0
  -20.4522  -31.0203   20.2171 C   0  0  0  0  0  0  0  0  0  0  0  0
  -23.8309  -26.5717   24.7653 C   0  0  0  0  0  0  0  0  0  0  0  0
  -22.3671   -8.8715   22.0836 C   0  0  0  0  0  0  0  0  0  0  0  0
  -23.1255   -9.7215   24.2142 C   0  0  0  0  0  0  0  0  0  0  0  0
  -24.2936  -25.5845   25.6356 C   0  0  0  0  0  0  0  0  0  0  0  0
  -20.5929   -5.8937   23.1831 C   0  0  0  0  0  0  0  0  0  0  0  0
  -20.6697   -4.5934   22.6840 C   0  0  0  0  0  0  0  0  0  0  0  0
  -28.1317  -20.1621   21.1062 C   0  0  0  0  0  0  0  0  0  0  0  0
  -28.6846  -18.3668   23.1688 C   0  0  0  0  0  0  0  0  0  0  0  0
  -24.4903  -24.0345   23.7898 C   0  0  0  0  0  0  0  0  0  0  0  0
  -23.0563   -4.5901   23.0602 C   0  0  0  0  0  0  0  0  0  0  0  0
  -23.8404  -10.7844   22.1658 C   0  0  0  0  0  0  0  0  0  0  0  0
  -27.7348  -19.3713   23.3544 C   0  0  0  0  0  0  0  0  0  0  0  0
  -24.1504  -13.0967   21.1339 C   0  0  0  0  0  0  0  0  0  0  0  0
  -21.8197  -31.9999   18.4684 C   0  0  0  0  0  0  0  0  0  0  0  0
  -23.7106  -26.2984   23.3999 C   0  0  0  0  0  0  0  0  0  0  0  0
  -21.3350  -30.8588   19.1358 C   0  0  0  0  0  0  0  0  0  0  0  0
  -24.0392  -25.0232   22.9114 C   0  0  0  0  0  0  0  0  0  0  0  0
  -22.3815   -8.8005   23.4766 C   0  0  0  0  0  0  0  0  0  0  0  0
  -24.6222  -24.3189   25.1491 C   0  0  0  0  0  0  0  0  0  0  0  0
  -21.7478   -6.5422   23.6206 C   0  0  0  0  0  0  0  0  0  0  0  0
  -21.9014   -3.9416   22.6226 C   0  0  0  0  0  0  0  0  0  0  0  0
  -22.9795   -5.8904   23.5592 C   0  0  0  0  0  0  0  0  0  0  0  0
  -29.3580  -18.2600   21.9519 C   0  0  0  0  0  0  0  0  0  0  0  0
  -29.0815  -19.1576   20.9206 C   0  0  0  0  0  0  0  0  0  0  0  0
  -24.5945  -11.8090   21.4893 C   0  0  0  0  0  0  0  0  0  0  0  0
  -25.2332  -13.6757   20.5184 C   0  0  0  0  0  0  0  0  0  0  0  0
  -27.0205  -19.4852   24.6417 C   0  0  0  0  0  0  0  0  0  0  0  0
  -22.8732  -13.7144   21.3416 C   0  0  0  0  0  0  0  0  0  0  0  0
  -22.7914  -27.5729   19.9930 C   0  0  0  0  0  0  0  0  0  0  0  0
  -26.4671  -23.3064   26.1948 C   0  0  0  0  0  0  0  0  0  1  0  0
  -25.3045  -25.8473   19.6507 C   0  0  0  0  0  0  0  0  0  0  0  0
  -28.3012  -24.2213   19.7642 C   0  0  0  0  0  0  0  0  0  0  0  0
  -30.5912  -14.8391   20.2625 C   0  0  0  0  0  0  0  0  0  0  0  0
  -22.7320  -31.8917   17.2723 C   0  0  0  0  0  0  0  0  0  0  0  0
  -23.1580  -27.3123   22.4352 C   0  0  0  0  0  0  0  0  0  0  0  0
  -23.8611  -24.7637   21.4404 C   0  0  0  0  0  0  0  0  0  0  0  0
  -23.4063  -30.5284   17.1419 C   0  0  0  0  0  0  0  0  0  0  0  0
  -29.6165  -11.6889   18.9484 C   0  0  0  0  0  0  0  0  0  0  0  0
  -22.3890  -29.4088   17.3379 C   0  0  0  0  0  0  0  0  0  0  0  0
  -28.1850  -11.5303   19.4685 C   0  0  0  0  0  0  0  0  0  0  0  0
  -30.5217  -12.3570   19.9816 C   0  0  0  0  0  0  0  0  0  0  0  0
  -28.5843  -13.4845   21.0222 C   0  0  0  0  0  0  0  0  0  0  0  0
  -21.7705  -29.4646   18.7400 C   0  0  1  0  0  0  0  0  0  0  0  0
  -23.8099  -27.2383   21.0428 C   0  0  1  0  0  0  0  0  0  0  0  0
  -27.6273  -12.8695   19.9885 C   0  0  2  0  0  0  0  0  0  0  0  0
  -30.1759  -23.4408   18.2897 C   0  0  0  0  0  0  0  0  0  0  0  0
  -23.5637  -23.5461   18.6618 C   0  0  0  0  0  0  0  0  0  0  0  0
  -25.6568  -22.3343   18.0149 C   0  0  0  0  0  0  0  0  0  0  0  0
  -25.0948  -24.5124   16.9367 C   0  0  0  0  0  0  0  0  0  0  0  0
  -30.2768  -25.9018   21.1896 C   0  0  0  0  0  0  0  0  0  0  0  0
  -30.5616  -16.0945   23.3187 C   0  0  0  0  0  0  0  0  0  0  0  0
  -26.8798  -22.2209   27.1525 C   0  0  0  0  0  0  0  0  0  0  0  0
  -26.4836  -20.8529   26.6261 C   0  0  0  0  0  0  0  0  0  0  0  0
  -25.8707  -24.4843   19.3428 C   0  0  1  0  0  0  0  0  0  0  0  0
  -29.6568  -24.5646   19.1732 C   0  0  2  0  0  0  0  0  0  0  0  0
  -25.0425  -23.7281   18.2658 C   0  0  0  0  0  0  0  0  0  0  0  0
  -25.8607  -11.5827   21.1294 N   0  0  0  0  0  0  0  0  0  0  0  0
  -27.2999  -24.1157   25.6278 N   0  0  0  0  0  0  0  0  0  0  0  0
  -29.9498  -16.0201   20.7092 N   0  0  0  0  0  0  0  0  0  0  0  0
  -26.2215  -12.7360   20.5413 N   0  0  0  0  0  0  0  0  0  0  0  0
  -24.3417  -25.9179   20.6648 N   0  0  0  0  0  0  0  0  0  0  0  0
  -29.9277  -13.6109   20.4448 N   0  0  0  0  0  0  0  0  0  0  0  0
  -25.4268  -14.8917   19.9651 N   0  0  0  0  0  0  0  0  0  0  0  0
  -26.2887  -18.4476   25.0479 N   0  0  0  0  0  0  0  0  0  0  0  0
  -21.8727  -12.9782   21.9906 N   0  0  0  0  0  0  0  0  0  0  0  0
  -22.6884  -28.9234   19.7192 N   0  0  0  0  0  0  0  0  0  0  0  0
  -27.2687  -24.6948   18.9826 N   0  0  0  0  0  0  0  0  0  0  0  0
  -27.1395  -20.6229   25.3370 N   0  3  0  0  0  0  0  0  0  0  0  0
  -30.6490  -24.8056   20.2587 N   0  3  0  0  0  0  0  0  0  0  0  0
  -22.6214  -14.8786   20.9482 O   0  0  0  0  0  0  0  0  0  0  0  0
  -22.1467  -26.6727   19.4680 O   0  0  0  0  0  0  0  0  0  0  0  0
  -25.6992  -26.8238   19.0073 O   0  0  0  0  0  0  0  0  0  0  0  0
  -28.1714  -23.5927   20.8122 O   0  0  0  0  0  0  0  0  0  0  0  0
  -31.6913  -14.8940   19.7077 O   0  0  0  0  0  0  0  0  0  0  0  0
  -31.8459  -17.6254   21.6944 O   0  0  0  0  0  0  0  0  0  0  0  0
  -21.6697   -7.8328   24.1165 O   0  0  0  0  0  0  0  0  0  0  0  0
  -25.0776  -23.3612   26.0035 O   0  0  0  0  0  0  0  0  0  1  0  0
  -21.9748   -2.6924   22.1448 F   0  0  0  0  0  0  0  0  0  0  0  0
  -24.0922   -6.5079   23.9791 F   0  0  0  0  0  0  0  0  0  0  0  0
  -30.5536  -16.9651   21.7736 S   0  0  1  0  0  0  0  0  0  0  0  0
  -29.8850  -19.0684   19.3944 Cl  0  0  0  0  0  0  0  0  0  0  0  0
  1  2  1  0  0  0  0
  1  6  2  0  0  0  0
  2  7  2  0  0  0  0
  3  9  2  0  0  0  0
  3 18  1  0  0  0  0
  4 10  1  0  0  0  0
  4 18  2  0  0  0  0
  5 14  2  0  0  0  0
  5 19  1  0  0  0  0
  6 21  1  0  0  0  0
  7 23  1  0  0  0  0
  8 11  2  0  0  0  0
  8 22  1  0  0  0  0
  9 25  1  0  0  0  0
 10 25  2  0  0  0  0
 11 26  1  0  0  0  0
 12 13  2  0  0  0  0
 12 27  1  0  0  0  0
 13 28  1  0  0  0  0
 14 31  1  0  0  0  0
 15 19  2  0  0  0  0
 15 30  1  0  0  0  0
 16 24  1  0  0  0  0
 16 26  2  0  0  0  0
 17 28  2  0  0  0  0
 17 29  1  0  0  0  0
 18 32  1  0  0  0  0
 19 34  1  0  0  0  0
 20 32  1  0  0  0  0
 20 33  2  0  0  0  0
 20 35  1  0  0  0  0
 21 23  2  0  0  0  0
 21 41  1  0  0  0  0
 22 24  2  0  0  0  0
 22 42  1  0  0  0  0
 23 50  1  0  0  0  0
 24 43  1  0  0  0  0
 25 83  1  0  0  0  0
 26 84  1  0  0  0  0
 27 29  2  0  0  0  0
 27 83  1  0  0  0  0
 28 85  1  0  0  0  0
 29 86  1  0  0  0  0
 30 31  2  0  0  0  0
 30 87  1  0  0  0  0
 31 88  1  0  0  0  0
 32 64  2  0  0  0  0
 33 67  1  0  0  0  0
 33 70  1  0  0  0  0
 34 71  1  0  0  0  0
 34 75  2  0  0  0  0
 35 72  1  0  0  0  0
 35 77  2  0  0  0  0
 36 51  1  0  0  0  0
 36 73  1  0  0  0  0
 36 78  2  0  0  0  0
 37 59  1  0  0  0  0
 37 65  2  0  0  0  0
 37 84  1  0  0  0  0
 38 61  1  0  0  0  0
 38 68  1  0  0  0  0
 38 79  2  0  0  0  0
 39 62  1  0  0  0  0
 39 74  1  0  0  0  0
 39 80  2  0  0  0  0
 40 66  1  0  0  0  0
 40 69  1  0  0  0  0
 40 81  2  0  0  0  0
 41 44  1  0  0  0  0
 42 51  1  0  0  0  0
 43 68  1  0  0  0  0
 44 46  1  0  0  0  0
 45 47  1  0  0  0  0
 45 48  1  0  0  0  0
 46 50  1  0  0  0  0
 47 52  1  0  0  0  0
 48 69  1  0  0  0  0
 49 52  1  0  0  0  0
 49 69  1  0  0  0  0
 50 73  1  0  0  0  0
 51 68  1  0  0  0  0
 52 67  1  0  0  0  0
 53 62  1  0  0  0  0
 54 63  1  0  0  0  0
 55 63  1  0  0  0  0
 56 63  1  0  0  0  0
 57 76  1  0  0  0  0
 58 87  1  0  0  0  0
 59 60  1  0  0  0  0
 60 75  1  0  0  0  0
 61 63  1  0  0  0  0
 61 74  1  0  0  0  0
 62 76  1  0  0  0  0
 64 67  1  0  0  0  0
 66 87  2  0  0  0  0
 82 87  2  0  0  0  0
M  CHG  2  75   1  76   1
M  ISO  4  37 101  40 100  66 100  84 101
M  END
> <Batch ID>
0050

> <Smiles>
CNC(C)C(=O)NC(C(=O)N1Cc2cc([101O:1][101C:1](=N)CCNC(=N)c3ccc(Cl)c(S(C)(=O)=[100N:0][100C:0](=O)N4CCCC(n5nc(-c6ccc(Oc7ccc(F)cc7F)cc6)c(C(N)=O)c5N)C4)c3)ccc2CC1C(=O)NC1CCCc2ccccc21)C(C)(C)C

> <Shape>
0.233

> <Color>
0.145

> <Negative vol penalty>
0.000

$$$$

  -OEChem-04042322353D

 87 96  0     1  0  0  0  0  0999 V2000
  -28.3226  -16.2011   16.9164 C   0  0  0  0  0  0  0  0  0  0  0  0
  -27.2830  -16.9439   17.4666 C   0  0  0  0  0  0  0  0  0  0  0  0
  -21.7003  -15.9695   20.8164 C   0  0  0  0  0  0  0  0  0  0  0  0
  -23.0338  -17.6558   21.9187 C   0  0  0  0  0  0  0  0  0  0  0  0
  -29.6072  -16.3011   17.4490 C   0  0  0  0  0  0  0  0  0  0  0  0
  -27.5272  -17.7864   18.5506 C   0  0  0  0  0  0  0  0  0  0  0  0
  -26.1834  -25.4416   19.3375 C   0  0  0  0  0  0  0  0  0  0  0  0
  -22.8631  -15.3097   20.4190 C   0  0  0  0  0  0  0  0  0  0  0  0
  -24.1967  -16.9959   21.5214 C   0  0  0  0  0  0  0  0  0  0  0  0
  -26.1391  -26.8214   19.5385 C   0  0  0  0  0  0  0  0  0  0  0  0
  -25.1490  -13.2385   21.8040 C   0  0  0  0  0  0  0  0  0  0  0  0
  -25.1934  -11.8531   21.9590 C   0  0  0  0  0  0  0  0  0  0  0  0
  -27.9662  -26.6612   21.1145 C   0  0  0  0  0  0  0  0  0  0  0  0
  -21.1746  -28.9153   21.1120 C   0  0  0  0  0  0  0  0  0  0  0  0
  -22.3425  -28.0504   23.0420 C   0  0  0  0  0  0  0  0  0  0  0  0
  -25.5194  -11.5971   19.5788 C   0  0  0  0  0  0  0  0  0  0  0  0
  -21.7856  -17.1426   21.5662 C   0  0  0  0  0  0  0  0  0  0  0  0
  -19.5494  -17.3138   22.7818 C   0  0  0  0  0  0  0  0  0  0  0  0
  -29.8693  -17.1526   18.5339 C   0  0  0  0  0  0  0  0  0  0  0  0
  -27.1306  -24.6675   20.0135 C   0  0  0  0  0  0  0  0  0  0  0  0
  -28.8162  -17.8969   19.0991 C   0  0  0  0  0  0  0  0  0  0  0  0
  -28.0236  -25.2804   20.9078 C   0  0  0  0  0  0  0  0  0  0  0  0
  -20.0445  -28.1781   21.4655 C   0  0  0  0  0  0  0  0  0  0  0  0
  -20.0633  -27.3771   22.6073 C   0  0  0  0  0  0  0  0  0  0  0  0
  -22.3237  -28.8514   21.9002 C   0  0  0  0  0  0  0  0  0  0  0  0
  -24.1114  -15.8228   20.7715 C   0  0  0  0  0  0  0  0  0  0  0  0
  -27.0282  -27.4296   20.4250 C   0  0  0  0  0  0  0  0  0  0  0  0
  -25.2898  -13.8034   20.5363 C   0  0  0  0  0  0  0  0  0  0  0  0
  -25.3786  -11.0324   20.8465 C   0  0  0  0  0  0  0  0  0  0  0  0
  -21.2124  -27.3132   23.3955 C   0  0  0  0  0  0  0  0  0  0  0  0
  -25.4750  -12.9827   19.4238 C   0  0  0  0  0  0  0  0  0  0  0  0
  -20.5847  -17.8250   21.9765 C   0  0  0  0  0  0  0  0  0  0  0  0
  -18.6474  -18.3452   22.8771 C   0  0  0  0  0  0  0  0  0  0  0  0
  -23.4823  -31.0055   21.4306 C   0  0  0  0  0  0  0  0  0  0  0  0
  -22.6452  -31.8510   22.0630 C   0  0  0  0  0  0  0  0  0  0  0  0
  -19.4151  -16.0222   23.3895 C   0  0  0  0  0  0  0  0  0  0  0  0
  -28.5724  -21.2568   20.6171 C   0  0  0  0  0  0  0  0  0  0  0  0
  -30.9325  -23.2124   20.4913 C   0  0  0  0  0  0  0  0  0  0  0  0
  -32.9688  -25.3549   19.4113 C   0  0  0  0  0  0  0  0  0  0  0  0
  -19.3068  -24.1978   22.4673 C   0  0  0  0  0  0  0  0  0  0  0  0
  -31.2644  -17.1916   19.1056 C   0  0  0  0  0  0  0  0  0  0  0  0
  -27.1743  -23.1700   19.8744 C   0  0  0  0  0  0  0  0  0  0  0  0
  -29.0027  -24.4033   21.6393 C   0  0  0  0  0  0  0  0  0  0  0  0
  -24.5516  -31.6109   20.5419 C   0  0  0  0  0  0  0  0  0  0  0  0
  -31.5163  -18.3909   20.0158 C   0  0  0  0  0  0  0  0  0  0  0  0
  -25.8919  -30.9044   20.6819 C   0  0  0  0  0  0  0  0  0  0  0  0
  -17.0661  -22.1711   20.4751 C   0  0  0  0  0  0  0  0  0  0  0  0
  -30.3625  -18.5674   20.9978 C   0  0  0  0  0  0  0  0  0  0  0  0
  -17.6269  -20.7688   20.7183 C   0  0  0  0  0  0  0  0  0  0  0  0
  -18.1841  -23.2052   20.3823 C   0  0  0  0  0  0  0  0  0  0  0  0
  -19.6566  -21.8349   21.8063 C   0  0  0  0  0  0  0  0  0  0  0  0
  -24.7239  -28.8208   21.4571 C   0  0  0  0  0  0  0  0  0  0  0  0
  -29.0465  -18.8406   20.2595 C   0  0  1  0  0  0  0  0  0  0  0  0
  -28.6017  -22.5986   19.9462 C   0  0  1  0  0  0  0  0  0  0  0  0
  -18.5745  -20.7471   21.9323 C   0  0  2  0  0  0  0  0  0  0  0  0
  -25.7163  -29.4103   20.4567 C   0  0  2  0  0  0  0  0  0  1  0  0
  -18.8260  -28.2622   20.6059 C   0  0  0  0  0  0  0  0  0  0  0  0
  -34.8904  -26.8054   18.7040 C   0  0  0  0  0  0  0  0  0  0  0  0
  -31.0677  -23.2118   23.5385 C   0  0  0  0  0  0  0  0  0  0  0  0
  -33.2280  -24.4663   23.3722 C   0  0  0  0  0  0  0  0  0  0  0  0
  -33.0414  -22.1740   22.4061 C   0  0  0  0  0  0  0  0  0  0  0  0
  -33.4098  -23.7707   16.9507 C   0  0  0  0  0  0  0  0  0  0  0  0
  -18.8637  -26.5799   23.0024 C   0  0  0  0  0  0  0  0  0  0  0  0
  -31.8799  -24.1024   21.2553 C   0  0  1  0  0  0  0  0  0  0  0  0
  -34.2615  -25.4235   18.6185 C   0  0  2  0  0  0  0  0  0  0  0  0
  -32.2806  -23.4989   22.6310 C   0  0  0  0  0  0  0  0  0  0  0  0
  -20.3621  -19.0833   21.5877 N   0  0  0  0  0  0  0  0  0  0  0  0
  -19.1765  -19.3714   22.1511 N   0  0  0  0  0  0  0  0  0  0  0  0
  -23.4778  -29.6043   21.5398 N   0  0  0  0  0  0  0  0  0  0  0  0
  -29.5641  -23.4014   20.7197 N   0  0  0  0  0  0  0  0  0  0  0  0
  -19.0386  -23.1451   21.5767 N   0  0  0  0  0  0  0  0  0  0  0  0
  -17.4611  -18.4653   23.5103 N   0  0  0  0  0  0  0  0  0  0  0  0
  -18.7739  -15.0071   22.6665 N   0  0  0  0  0  0  0  0  0  0  0  0
  -28.9941  -20.2159   19.8120 N   0  0  0  0  0  0  0  0  0  0  0  0
  -33.0064  -24.3593   20.3646 N   0  0  0  0  0  0  0  0  0  0  0  0
  -18.6883  -25.4072   22.1748 N   0  0  0  0  0  0  0  0  0  0  0  0
  -34.0065  -25.1111   17.1838 N   0  3  0  0  0  0  0  0  0  0  0  0
  -19.8362  -15.7800   24.5460 O   0  0  0  0  0  0  0  0  0  0  0  0
  -28.1964  -21.1710   21.7803 O   0  0  0  0  0  0  0  0  0  0  0  0
  -31.3907  -22.3678   19.7167 O   0  0  0  0  0  0  0  0  0  0  0  0
  -32.0217  -26.1114   19.2080 O   0  0  0  0  0  0  0  0  0  0  0  0
  -20.0396  -24.0682   23.4539 O   0  0  0  0  0  0  0  0  0  0  0  0
  -25.2463  -15.1791   20.3841 O   0  0  0  0  0  0  0  0  0  0  0  0
  -26.9824  -28.7777   20.6131 O   0  0  0  0  0  0  0  0  0  1  0  0
  -25.4227   -9.7020   20.9957 F   0  0  0  0  0  0  0  0  0  0  0  0
  -21.2408  -26.5463   24.4946 F   0  0  0  0  0  0  0  0  0  0  0  0
  -25.6120  -13.5195   18.2036 F   0  0  0  0  0  0  0  0  0  0  0  0
  1  2  1  0  0  0  0
  1  5  2  0  0  0  0
  2  6  2  0  0  0  0
  3  8  2  0  0  0  0
  3 17  1  0  0  0  0
  4  9  1  0  0  0  0
  4 17  2  0  0  0  0
  5 19  1  0  0  0  0
  6 21  1  0  0  0  0
  7 10  2  0  0  0  0
  7 20  1  0  0  0  0
  8 26  1  0  0  0  0
  9 26  2  0  0  0  0
 10 27  1  0  0  0  0
 11 12  2  0  0  0  0
 11 28  1  0  0  0  0
 12 29  1  0  0  0  0
 13 22  1  0  0  0  0
 13 27  2  0  0  0  0
 14 23  2  0  0  0  0
 14 25  1  0  0  0  0
 15 25  2  0  0  0  0
 15 30  1  0  0  0  0
 16 29  2  0  0  0  0
 16 31  1  0  0  0  0
 17 32  1  0  0  0  0
 18 32  1  0  0  0  0
 18 33  2  0  0  0  0
 18 36  1  0  0  0  0
 19 21  2  0  0  0  0
 19 41  1  0  0  0  0
 20 22  2  0  0  0  0
 20 42  1  0  0  0  0
 21 53  1  0  0  0  0
 22 43  1  0  0  0  0
 23 24  1  0  0  0  0
 23 57  1  0  0  0  0
 24 30  2  0  0  0  0
 24 63  1  0  0  0  0
 25 69  1  0  0  0  0
 26 83  1  0  0  0  0
 27 84  1  0  0  0  0
 28 31  2  0  0  0  0
 28 83  1  0  0  0  0
 29 85  1  0  0  0  0
 30 86  1  0  0  0  0
 31 87  1  0  0  0  0
 32 67  2  0  0  0  0
 33 68  1  0  0  0  0
 33 72  1  0  0  0  0
 34 35  2  0  0  0  0
 34 44  1  0  0  0  0
 34 69  1  0  0  0  0
 36 73  1  0  0  0  0
 36 78  2  0  0  0  0
 37 54  1  0  0  0  0
 37 74  1  0  0  0  0
 37 79  2  0  0  0  0
 38 64  1  0  0  0  0
 38 70  1  0  0  0  0
 38 80  2  0  0  0  0
 39 65  1  0  0  0  0
 39 75  1  0  0  0  0
 39 81  2  0  0  0  0
 40 71  1  0  0  0  0
 40 76  1  0  0  0  0
 40 82  2  0  0  0  0
 41 45  1  0  0  0  0
 42 54  1  0  0  0  0
 43 70  1  0  0  0  0
 44 46  1  0  0  0  0
 45 48  1  0  0  0  0
 46 56  1  0  0  0  0
 47 49  1  0  0  0  0
 47 50  1  0  0  0  0
 48 53  1  0  0  0  0
 49 55  1  0  0  0  0
 50 71  1  0  0  0  0
 51 55  1  0  0  0  0
 51 71  1  0  0  0  0
 52 56  1  0  0  0  0
 52 69  1  0  0  0  0
 53 74  1  0  0  0  0
 54 70  1  0  0  0  0
 55 68  1  0  0  0  0
 56 84  1  0  0  0  0
 58 65  1  0  0  0  0
 59 66  1  0  0  0  0
 60 66  1  0  0  0  0
 61 66  1  0  0  0  0
 62 77  1  0  0  0  0
 63 76  1  0  0  0  0
 64 66  1  0  0  0  0
 64 75  1  0  0  0  0
 65 77  1  0  0  0  0
 67 68  1  0  0  0  0
M  CHG  1  77   1
M  ISO  4  40 100  56 101  76 100  84 101
M  END
> <Batch ID>
0050

> <Smiles>
C=C1CC[101CH:1]([101O:1]c2ccc3c(c2)CN(C(=O)C(NC(=O)C(C)NC)C(C)(C)C)C(C(=O)NC2CCCc4ccccc42)C3)CN1c1cc(C)c(C[100NH:0][100C:0](=O)N2CCCC(n3nc(-c4ccc(Oc5ccc(F)cc5F)cc4)c(C(N)=O)c3N)C2)c(F)c1

> <Shape>
0.221

> <Color>
0.059

> <Negative vol penalty>
0.000

$$$$

  -OEChem-04042322353D

 86 94  0     1  0  0  0  0  0999 V2000
  -29.7719  -12.4712   19.9035 C   0  0  0  0  0  0  0  0  0  0  0  0
  -29.7062  -13.6022   20.7109 C   0  0  0  0  0  0  0  0  0  0  0  0
  -29.7147  -23.2453   20.1012 C   0  0  0  0  0  0  0  0  0  0  0  0
  -27.3996  -23.2836   19.4114 C   0  0  0  0  0  0  0  0  0  0  0  0
  -28.8654  -12.3098   18.8566 C   0  0  0  0  0  0  0  0  0  0  0  0
  -28.7345  -14.5732   20.4710 C   0  0  0  0  0  0  0  0  0  0  0  0
  -24.6170  -19.3201   23.9104 C   0  0  0  0  0  0  0  0  0  0  0  0
  -29.5663  -21.9251   20.5260 C   0  0  0  0  0  0  0  0  0  0  0  0
  -27.2512  -21.9633   19.8362 C   0  0  0  0  0  0  0  0  0  0  0  0
  -24.2834  -20.6736   23.8863 C   0  0  0  0  0  0  0  0  0  0  0  0
  -29.8939  -18.4274   21.4608 C   0  0  0  0  0  0  0  0  0  0  0  0
  -30.8942  -17.5187   21.1155 C   0  0  0  0  0  0  0  0  0  0  0  0
  -22.7201  -20.2503   22.0986 C   0  0  0  0  0  0  0  0  0  0  0  0
  -21.8826  -29.9567   21.8037 C   0  0  0  0  0  0  0  0  0  0  0  0
  -21.3252  -30.2798   24.1321 C   0  0  0  0  0  0  0  0  0  0  0  0
  -23.2472  -31.3952   23.1841 C   0  0  0  0  0  0  0  0  0  0  0  0
  -30.4704  -17.9418   18.7748 C   0  0  0  0  0  0  0  0  0  0  0  0
  -28.6313  -23.9246   19.5439 C   0  0  0  0  0  0  0  0  0  0  0  0
  -29.1718  -25.7323   17.8270 C   0  0  0  0  0  0  0  0  0  0  0  0
  -27.8760  -13.2746   18.6097 C   0  0  0  0  0  0  0  0  0  0  0  0
  -24.0116  -18.4219   23.0198 C   0  0  0  0  0  0  0  0  0  0  0  0
  -27.8148  -14.4252   19.4189 C   0  0  0  0  0  0  0  0  0  0  0  0
  -23.0458  -18.8855   22.1151 C   0  0  0  0  0  0  0  0  0  0  0  0
  -21.0562  -29.6925   22.8958 C   0  0  0  0  0  0  0  0  0  0  0  0
  -22.9782  -30.8080   21.9478 C   0  0  0  0  0  0  0  0  0  0  0  0
  -28.3346  -21.2840   20.3935 C   0  0  0  0  0  0  0  0  0  0  0  0
  -23.3370  -21.1394   22.9784 C   0  0  0  0  0  0  0  0  0  0  0  0
  -29.1818  -19.0932   20.4632 C   0  0  0  0  0  0  0  0  0  0  0  0
  -31.1825  -17.2759   19.7725 C   0  0  0  0  0  0  0  0  0  0  0  0
  -22.4207  -31.1311   24.2763 C   0  0  0  0  0  0  0  0  0  0  0  0
  -29.4700  -18.8504   19.1202 C   0  0  0  0  0  0  0  0  0  0  0  0
  -28.7838  -25.2887   19.1054 C   0  0  0  0  0  0  0  0  0  0  0  0
  -29.1652  -27.1024   17.9224 C   0  0  0  0  0  0  0  0  0  0  0  0
  -20.9586  -25.1801   22.4947 C   0  0  0  0  0  0  0  0  0  0  0  0
  -21.2944  -24.0853   23.1907 C   0  0  0  0  0  0  0  0  0  0  0  0
  -29.5081  -24.9737   16.6578 C   0  0  0  0  0  0  0  0  0  0  0  0
  -20.5873  -26.4367   23.2019 C   0  0  0  0  0  0  0  0  0  0  0  0
  -25.0541  -16.5258   20.6914 C   0  0  0  0  0  0  0  0  0  0  0  0
  -21.9729  -15.5117   20.6676 C   0  0  0  0  0  0  0  0  0  0  0  0
  -18.7002  -16.1716   21.3749 C   0  0  0  0  0  0  0  0  0  0  0  0
  -26.2381  -30.9281   21.4787 C   0  0  0  0  0  0  0  0  0  0  0  0
  -26.9482  -13.0793   17.4369 C   0  0  0  0  0  0  0  0  0  0  0  0
  -24.3628  -16.9604   23.0766 C   0  0  0  0  0  0  0  0  0  0  0  0
  -22.3520  -17.9586   21.1518 C   0  0  0  0  0  0  0  0  0  0  0  0
  -25.7119  -13.9736   17.4827 C   0  0  0  0  0  0  0  0  0  0  0  0
  -29.7653  -30.6385   21.0889 C   0  0  0  0  0  0  0  0  0  0  0  0
  -26.1032  -15.4084   17.8221 C   0  0  0  0  0  0  0  0  0  0  0  0
  -29.9487  -29.2746   20.4210 C   0  0  0  0  0  0  0  0  0  0  0  0
  -28.6177  -30.6238   22.0963 C   0  0  0  0  0  0  0  0  0  0  0  0
  -27.5140  -28.7772   20.8940 C   0  0  0  0  0  0  0  0  0  0  0  0
  -26.7594  -15.4886   19.2057 C   0  0  1  0  0  0  0  0  0  0  0  0
  -24.0599  -16.2222   21.7764 C   0  0  1  0  0  0  0  0  0  0  0  0
  -28.6238  -28.7574   19.8290 C   0  0  2  0  0  0  0  0  0  0  0  0
  -16.4072  -15.1657   21.2083 C   0  0  0  0  0  0  0  0  0  0  0  0
  -21.9300  -16.1113   17.6762 C   0  0  0  0  0  0  0  0  0  0  0  0
  -19.4300  -16.0065   17.7619 C   0  0  0  0  0  0  0  0  0  0  0  0
  -20.7814  -13.9885   18.3313 C   0  0  0  0  0  0  0  0  0  0  0  0
  -18.3269  -16.2479   24.3098 C   0  0  0  0  0  0  0  0  0  0  0  0
  -19.8773  -28.7758   22.7409 C   0  0  0  0  0  0  0  0  0  0  0  0
  -23.8622  -31.0905   20.7803 C   0  0  0  0  0  0  0  0  0  0  0  0
  -21.6825  -22.7927   22.5481 C   0  0  0  0  0  0  0  0  0  1  0  0
  -20.7147  -15.9320   19.9471 C   0  0  1  0  0  0  0  0  0  0  0  0
  -17.6374  -15.3510   22.0830 C   0  0  2  0  0  0  0  0  0  0  0  0
  -20.7283  -15.5276   18.4458 C   0  0  0  0  0  0  0  0  0  0  0  0
  -28.5480  -26.2954   19.9510 N   0  0  0  0  0  0  0  0  0  0  0  0
  -28.7886  -27.3852   19.2024 N   0  0  0  0  0  0  0  0  0  0  0  0
  -22.7342  -16.5397   21.2417 N   0  0  0  0  0  0  0  0  0  0  0  0
  -27.3904  -30.1248   21.4713 N   0  0  0  0  0  0  0  0  0  0  0  0
  -29.4449  -28.0809   17.0354 N   0  0  0  0  0  0  0  0  0  0  0  0
  -29.4633  -23.5749   16.7332 N   0  0  0  0  0  0  0  0  0  0  0  0
  -20.2735  -27.4523   22.3147 N   0  0  0  0  0  0  0  0  0  0  0  0
  -25.7554  -15.4216   20.2459 N   0  0  0  0  0  0  0  0  0  0  0  0
  -19.6026  -15.3713   20.7069 N   0  0  0  0  0  0  0  0  0  0  0  0
  -25.1204  -30.3823   20.8594 N   0  0  0  0  0  0  0  0  0  0  0  0
  -17.2193  -16.0235   23.3455 N   0  3  0  0  0  0  0  0  0  0  0  0
  -29.8545  -25.5198   15.5829 O   0  0  0  0  0  0  0  0  0  0  0  0
  -20.5708  -26.5240   24.4253 O   0  0  0  0  0  0  0  0  0  0  0  0
  -25.1749  -17.6763   20.2873 O   0  0  0  0  0  0  0  0  0  0  0  0
  -22.2657  -14.3148   20.7253 O   0  0  0  0  0  0  0  0  0  0  0  0
  -18.7250  -17.4000   21.4078 O   0  0  0  0  0  0  0  0  0  0  0  0
  -26.2092  -32.0508   21.9940 O   0  0  0  0  0  0  0  0  0  0  0  0
  -28.1895  -19.9956   20.8077 O   0  0  0  0  0  0  0  0  0  0  0  0
  -23.0100  -22.4601   22.9523 O   0  0  0  0  0  0  0  0  0  1  0  0
  -32.1441  -16.4044   19.4410 F   0  0  0  0  0  0  0  0  0  0  0  0
  -22.6794  -31.6941   25.4637 F   0  0  0  0  0  0  0  0  0  0  0  0
  -28.7901  -19.4880   18.1574 F   0  0  0  0  0  0  0  0  0  0  0  0
  1  2  1  0  0  0  0
  1  5  2  0  0  0  0
  2  6  2  0  0  0  0
  3  8  2  0  0  0  0
  3 18  1  0  0  0  0
  4  9  1  0  0  0  0
  4 18  2  0  0  0  0
  5 20  1  0  0  0  0
  6 22  1  0  0  0  0
  7 10  2  0  0  0  0
  7 21  1  0  0  0  0
  8 26  1  0  0  0  0
  9 26  2  0  0  0  0
 10 27  1  0  0  0  0
 11 12  2  0  0  0  0
 11 28  1  0  0  0  0
 12 29  1  0  0  0  0
 13 23  1  0  0  0  0
 13 27  2  0  0  0  0
 14 24  2  0  0  0  0
 14 25  1  0  0  0  0
 15 24  1  0  0  0  0
 15 30  2  0  0  0  0
 16 25  2  0  0  0  0
 16 30  1  0  0  0  0
 17 29  2  0  0  0  0
 17 31  1  0  0  0  0
 18 32  1  0  0  0  0
 19 32  1  0  0  0  0
 19 33  2  0  0  0  0
 19 36  1  0  0  0  0
 20 22  2  0  0  0  0
 20 42  1  0  0  0  0
 21 23  2  0  0  0  0
 21 43  1  0  0  0  0
 22 51  1  0  0  0  0
 23 44  1  0  0  0  0
 24 59  1  0  0  0  0
 25 60  1  0  0  0  0
 26 82  1  0  0  0  0
 27 83  1  0  0  0  0
 28 31  2  0  0  0  0
 28 82  1  0  0  0  0
 29 84  1  0  0  0  0
 30 85  1  0  0  0  0
 31 86  1  0  0  0  0
 32 65  2  0  0  0  0
 33 66  1  0  0  0  0
 33 69  1  0  0  0  0
 34 35  2  0  0  0  0
 34 37  1  0  0  0  0
 35 61  1  0  0  0  0
 36 70  1  0  0  0  0
 36 76  2  0  0  0  0
 37 71  1  0  0  0  0
 37 77  2  0  0  0  0
 38 52  1  0  0  0  0
 38 72  1  0  0  0  0
 38 78  2  0  0  0  0
 39 62  1  0  0  0  0
 39 67  1  0  0  0  0
 39 79  2  0  0  0  0
 40 63  1  0  0  0  0
 40 73  1  0  0  0  0
 40 80  2  0  0  0  0
 41 68  1  0  0  0  0
 41 74  1  0  0  0  0
 41 81  2  0  0  0  0
 42 45  1  0  0  0  0
 43 52  1  0  0  0  0
 44 67  1  0  0  0  0
 45 47  1  0  0  0  0
 46 48  1  0  0  0  0
 46 49  1  0  0  0  0
 47 51  1  0  0  0  0
 48 53  1  0  0  0  0
 49 68  1  0  0  0  0
 50 53  1  0  0  0  0
 50 68  1  0  0  0  0
 51 72  1  0  0  0  0
 52 67  1  0  0  0  0
 53 66  1  0  0  0  0
 54 63  1  0  0  0  0
 55 64  1  0  0  0  0
 56 64  1  0  0  0  0
 57 64  1  0  0  0  0
 58 75  1  0  0  0  0
 59 71  1  0  0  0  0
 60 74  1  0  0  0  0
 61 83  1  0  0  0  0
 62 64  1  0  0  0  0
 62 73  1  0  0  0  0
 63 75  1  0  0  0  0
 65 66  1  0  0  0  0
M  CHG  1  75   1
M  ISO  4  41 100  61 101  74 100  83 101
M  END
> <Batch ID>
0050

> <Smiles>
CNC(C)C(=O)NC(C(=O)N1Cc2cc([101O:1][101CH2:1]C=CC(=O)NCc3cc(F)cc(C[100NH:0][100C:0](=O)N4CCCC(n5nc(-c6ccc(Oc7ccc(F)cc7F)cc6)c(C(N)=O)c5N)C4)c3)ccc2CC1C(=O)NC1CCCc2ccccc21)C(C)(C)C

> <Shape>
0.249

> <Color>
0.061

> <Negative vol penalty>
0.000

$$$$

  -OEChem-04042322353D

 83 91  0     1  0  0  0  0  0999 V2000
  -17.7733  -29.5227   17.2016 C   0  0  0  0  0  0  0  0  0  0  0  0
  -19.0005  -28.8694   17.1509 C   0  0  0  0  0  0  0  0  0  0  0  0
  -27.7315  -13.2319   18.9298 C   0  0  0  0  0  0  0  0  0  0  0  0
  -29.1611  -13.7798   20.7987 C   0  0  0  0  0  0  0  0  0  0  0  0
  -17.7066  -30.8458   17.6364 C   0  0  0  0  0  0  0  0  0  0  0  0
  -20.1620  -29.5392   17.5339 C   0  0  0  0  0  0  0  0  0  0  0  0
  -25.0423  -27.1331   20.3445 C   0  0  0  0  0  0  0  0  0  0  0  0
  -28.6651  -12.2932   18.4908 C   0  0  0  0  0  0  0  0  0  0  0  0
  -30.0947  -12.8410   20.3598 C   0  0  0  0  0  0  0  0  0  0  0  0
  -26.2771  -26.6943   19.8686 C   0  0  0  0  0  0  0  0  0  0  0  0
  -29.5902   -9.1398   19.2868 C   0  0  0  0  0  0  0  0  0  0  0  0
  -29.1151   -7.8900   18.8896 C   0  0  0  0  0  0  0  0  0  0  0  0
  -29.4786  -23.1798   21.9504 C   0  0  0  0  0  0  0  0  0  0  0  0
  -31.2318  -23.3869   23.5997 C   0  0  0  0  0  0  0  0  0  0  0  0
  -27.2432  -28.8352   20.4185 C   0  0  0  0  0  0  0  0  0  0  0  0
  -29.8522  -21.4043   23.5456 C   0  0  0  0  0  0  0  0  0  0  0  0
  -30.0322   -8.2428   16.6825 C   0  0  0  0  0  0  0  0  0  0  0  0
  -27.9795  -13.9753   20.0838 C   0  0  0  0  0  0  0  0  0  0  0  0
  -30.5228  -23.9097   22.5182 C   0  0  0  0  0  0  0  0  0  0  0  0
  -25.9426  -14.7284   21.4223 C   0  0  0  0  0  0  0  0  0  0  0  0
  -18.8667  -31.5290   18.0341 C   0  0  0  0  0  0  0  0  0  0  0  0
  -24.8959  -28.4322   20.8518 C   0  0  0  0  0  0  0  0  0  0  0  0
  -20.1110  -30.8730   17.9731 C   0  0  0  0  0  0  0  0  0  0  0  0
  -26.0061  -29.2872   20.9026 C   0  0  0  0  0  0  0  0  0  0  0  0
  -29.1433  -21.9271   22.4641 C   0  0  0  0  0  0  0  0  0  0  0  0
  -29.8467  -12.0977   19.2058 C   0  0  0  0  0  0  0  0  0  0  0  0
  -27.3771  -27.5463   19.9028 C   0  0  0  0  0  0  0  0  0  0  0  0
  -30.2861   -9.9413   18.3818 C   0  0  0  0  0  0  0  0  0  0  0  0
  -29.3361   -7.4415   17.5875 C   0  0  0  0  0  0  0  0  0  0  0  0
  -30.8965  -22.1342   24.1135 C   0  0  0  0  0  0  0  0  0  0  0  0
  -30.5072   -9.4928   17.0797 C   0  0  0  0  0  0  0  0  0  0  0  0
  -27.0158  -14.9456   20.5374 C   0  0  0  0  0  0  0  0  0  0  0  0
  -25.3330  -15.9544   21.5302 C   0  0  0  0  0  0  0  0  0  0  0  0
  -30.8787  -25.2452   21.9731 C   0  0  0  0  0  0  0  0  0  0  0  0
  -25.5334  -13.5258   22.0872 C   0  0  0  0  0  0  0  0  0  0  0  0
  -23.1725  -30.9765   20.0394 C   0  0  0  0  0  0  0  0  0  0  0  0
  -24.3865  -32.1923   22.7908 C   0  0  0  0  0  0  0  0  0  0  0  0
  -26.8654  -32.1402   25.1358 C   0  0  0  0  0  0  0  0  0  0  0  0
  -27.2786  -21.5582   20.8108 C   0  0  0  0  0  0  0  0  0  0  0  0
  -18.7511  -32.9736   18.4518 C   0  0  0  0  0  0  0  0  0  0  0  0
  -23.5635  -28.8814   21.3860 C   0  0  0  0  0  0  0  0  0  0  0  0
  -25.9063  -30.6844   21.4561 C   0  0  0  0  0  0  0  0  0  0  0  0
  -19.9787  -33.4926   19.1960 C   0  0  0  0  0  0  0  0  0  0  0  0
  -24.5917  -19.9973   19.0726 C   0  0  0  0  0  0  0  0  0  0  0  0
  -21.2559  -33.0842   18.4688 C   0  0  0  0  0  0  0  0  0  0  0  0
  -24.8073  -18.5053   19.3366 C   0  0  0  0  0  0  0  0  0  0  0  0
  -25.9156  -20.7399   18.9009 C   0  0  0  0  0  0  0  0  0  0  0  0
  -27.0976  -19.0538   20.2533 C   0  0  0  0  0  0  0  0  0  0  0  0
  -21.3898  -31.5580   18.4039 C   0  0  1  0  0  0  0  0  0  0  0  0
  -23.4087  -30.3989   21.4062 C   0  0  1  0  0  0  0  0  0  0  0  0
  -25.7946  -18.2753   20.4976 C   0  0  2  0  0  0  0  0  0  0  0  0
  -27.6036  -33.2771   27.2476 C   0  0  0  0  0  0  0  0  0  0  0  0
  -25.3390  -34.5912   21.1636 C   0  0  0  0  0  0  0  0  0  0  0  0
  -26.8471  -35.1962   23.0683 C   0  0  0  0  0  0  0  0  0  0  0  0
  -24.3748  -35.1636   23.3990 C   0  0  0  0  0  0  0  0  0  0  0  0
  -26.6962  -29.6250   26.6863 C   0  0  0  0  0  0  0  0  0  0  0  0
  -30.8912  -26.6868   19.9538 C   0  0  0  0  0  0  0  0  0  0  0  0
  -29.7472  -27.6808   20.0448 C   0  0  0  0  0  0  0  0  0  1  0  0
  -25.6221  -32.9776   23.1591 C   0  0  1  0  0  0  0  0  0  0  0  0
  -26.8166  -32.1196   26.6529 C   0  0  2  0  0  0  0  0  0  0  0  0
  -25.5475  -34.4565   22.6852 C   0  0  0  0  0  0  0  0  0  0  0  0
  -27.0864  -16.2102   20.1133 N   0  0  0  0  0  0  0  0  0  0  0  0
  -26.0499  -16.7985   20.7342 N   0  0  0  0  0  0  0  0  0  0  0  0
  -24.5808  -31.0793   21.9606 N   0  0  0  0  0  0  0  0  0  0  0  0
  -26.7982  -20.4784   20.0400 N   0  0  0  0  0  0  0  0  0  0  0  0
  -24.2590  -16.3820   22.2274 N   0  0  0  0  0  0  0  0  0  0  0  0
  -26.2714  -12.3552   21.8650 N   0  0  0  0  0  0  0  0  0  0  0  0
  -28.0827  -21.1853   21.8874 N   0  0  0  0  0  0  0  0  0  0  0  0
  -30.5848  -25.4551   20.6317 N   0  0  0  0  0  0  0  0  0  0  0  0
  -21.8406  -31.0356   19.6760 N   0  0  0  0  0  0  0  0  0  0  0  0
  -25.7920  -32.8194   24.5994 N   0  0  0  0  0  0  0  0  0  0  0  0
  -27.3895  -30.8457   27.1724 N   0  3  0  0  0  0  0  0  0  0  0  0
  -31.4187  -26.0684   22.7074 O   0  0  0  0  0  0  0  0  0  0  0  0
  -24.5330  -13.4867   22.8429 O   0  0  0  0  0  0  0  0  0  0  0  0
  -24.1278  -31.3430   19.3650 O   0  0  0  0  0  0  0  0  0  0  0  0
  -23.2902  -32.5490   23.2297 O   0  0  0  0  0  0  0  0  0  0  0  0
  -27.7677  -31.6101   24.4911 O   0  0  0  0  0  0  0  0  0  0  0  0
  -26.9753  -22.7257   20.5523 O   0  0  0  0  0  0  0  0  0  0  0  0
  -30.7578  -11.1816   18.7779 O   0  0  0  0  0  0  0  0  0  0  0  0
  -28.5833  -27.1206   19.4383 O   0  0  0  0  0  0  0  0  0  1  0  0
  -28.8812   -6.2405   17.2067 F   0  0  0  0  0  0  0  0  0  0  0  0
  -31.5752  -21.6334   25.1539 F   0  0  0  0  0  0  0  0  0  0  0  0
  -31.1762  -10.2577   16.2061 F   0  0  0  0  0  0  0  0  0  0  0  0
  1  2  1  0  0  0  0
  1  5  2  0  0  0  0
  2  6  2  0  0  0  0
  3  8  2  0  0  0  0
  3 18  1  0  0  0  0
  4  9  1  0  0  0  0
  4 18  2  0  0  0  0
  5 21  1  0  0  0  0
  6 23  1  0  0  0  0
  7 10  2  0  0  0  0
  7 22  1  0  0  0  0
  8 26  1  0  0  0  0
  9 26  2  0  0  0  0
 10 27  1  0  0  0  0
 11 12  2  0  0  0  0
 11 28  1  0  0  0  0
 12 29  1  0  0  0  0
 13 19  2  0  0  0  0
 13 25  1  0  0  0  0
 14 19  1  0  0  0  0
 14 30  2  0  0  0  0
 15 24  1  0  0  0  0
 15 27  2  0  0  0  0
 16 25  2  0  0  0  0
 16 30  1  0  0  0  0
 17 29  2  0  0  0  0
 17 31  1  0  0  0  0
 18 32  1  0  0  0  0
 19 34  1  0  0  0  0
 20 32  1  0  0  0  0
 20 33  2  0  0  0  0
 20 35  1  0  0  0  0
 21 23  2  0  0  0  0
 21 40  1  0  0  0  0
 22 24  2  0  0  0  0
 22 41  1  0  0  0  0
 23 49  1  0  0  0  0
 24 42  1  0  0  0  0
 25 68  1  0  0  0  0
 26 79  1  0  0  0  0
 27 80  1  0  0  0  0
 28 31  2  0  0  0  0
 28 79  1  0  0  0  0
 29 81  1  0  0  0  0
 30 82  1  0  0  0  0
 31 83  1  0  0  0  0
 32 62  2  0  0  0  0
 33 63  1  0  0  0  0
 33 66  1  0  0  0  0
 34 69  1  0  0  0  0
 34 73  2  0  0  0  0
 35 67  1  0  0  0  0
 35 74  2  0  0  0  0
 36 50  1  0  0  0  0
 36 70  1  0  0  0  0
 36 75  2  0  0  0  0
 37 59  1  0  0  0  0
 37 64  1  0  0  0  0
 37 76  2  0  0  0  0
 38 60  1  0  0  0  0
 38 71  1  0  0  0  0
 38 77  2  0  0  0  0
 39 65  1  0  0  0  0
 39 68  1  0  0  0  0
 39 78  2  0  0  0  0
 40 43  1  0  0  0  0
 41 50  1  0  0  0  0
 42 64  1  0  0  0  0
 43 45  1  0  0  0  0
 44 46  1  0  0  0  0
 44 47  1  0  0  0  0
 45 49  1  0  0  0  0
 46 51  1  0  0  0  0
 47 65  1  0  0  0  0
 48 51  1  0  0  0  0
 48 65  1  0  0  0  0
 49 70  1  0  0  0  0
 50 64  1  0  0  0  0
 51 63  1  0  0  0  0
 52 60  1  0  0  0  0
 53 61  1  0  0  0  0
 54 61  1  0  0  0  0
 55 61  1  0  0  0  0
 56 72  1  0  0  0  0
 57 58  1  0  0  0  0
 57 69  1  0  0  0  0
 58 80  1  0  0  0  0
 59 61  1  0  0  0  0
 59 71  1  0  0  0  0
 60 72  1  0  0  0  0
 62 63  1  0  0  0  0
M  CHG  1  72   1
M  ISO  4  39 100  58 101  68 100  80 101
M  END
> <Batch ID>
0050

> <Smiles>
CNC(C)C(=O)NC(C(=O)N1Cc2cc([101O:1][101CH2:1]CNC(=O)c3cc(F)cc([100NH:0][100C:0](=O)N4CCCC(n5nc(-c6ccc(Oc7ccc(F)cc7F)cc6)c(C(N)=O)c5N)C4)c3)ccc2CC1C(=O)NC1CCCc2ccccc21)C(C)(C)C

> <Shape>
0.243

> <Color>
0.078

> <Negative vol penalty>
0.000

$$$$

  -OEChem-04042322353D

 87 96  0     1  0  0  0  0  0999 V2000
  -24.0764  -35.6210   15.6031 C   0  0  0  0  0  0  0  0  0  0  0  0
  -24.4107  -34.2706   15.6175 C   0  0  0  0  0  0  0  0  0  0  0  0
  -23.9356   -8.2882   20.2844 C   0  0  0  0  0  0  0  0  0  0  0  0
  -23.5969  -10.5935   20.9234 C   0  0  0  0  0  0  0  0  0  0  0  0
  -24.3700  -36.4224   16.7056 C   0  0  0  0  0  0  0  0  0  0  0  0
  -25.0399  -33.7211   16.7340 C   0  0  0  0  0  0  0  0  0  0  0  0
  -24.2975  -28.0673   18.9675 C   0  0  0  0  0  0  0  0  0  0  0  0
  -29.4437  -18.7599   21.3115 C   0  0  0  0  0  0  0  0  0  0  0  0
  -29.6809  -17.4345   20.9473 C   0  0  0  0  0  0  0  0  0  0  0  0
  -22.8796   -7.9040   21.1107 C   0  0  0  0  0  0  0  0  0  0  0  0
  -22.5408  -10.2093   21.7497 C   0  0  0  0  0  0  0  0  0  0  0  0
  -25.0448  -26.8984   18.8291 C   0  0  0  0  0  0  0  0  0  0  0  0
  -19.5002   -7.9082   20.9985 C   0  0  0  0  0  0  0  0  0  0  0  0
  -18.5734   -7.0003   20.4861 C   0  0  0  0  0  0  0  0  0  0  0  0
  -26.1673  -27.3769   20.9101 C   0  0  0  0  0  0  0  0  0  0  0  0
  -27.5573  -17.3705   19.7969 C   0  0  0  0  0  0  0  0  0  0  0  0
  -19.1107   -5.4507   22.2602 C   0  0  0  0  0  0  0  0  0  0  0  0
  -24.2943   -9.6330   20.1908 C   0  0  0  0  0  0  0  0  0  0  0  0
  -25.4885   -9.8435   17.9464 C   0  0  0  0  0  0  0  0  0  0  0  0
  -24.9944  -35.8803   17.8400 C   0  0  0  0  0  0  0  0  0  0  0  0
  -24.4875  -28.9067   20.0746 C   0  0  0  0  0  0  0  0  0  0  0  0
  -25.3433  -34.5163   17.8522 C   0  0  0  0  0  0  0  0  0  0  0  0
  -25.4193  -28.5545   21.0615 C   0  0  0  0  0  0  0  0  0  0  0  0
  -28.2632  -19.3906   20.9185 C   0  0  0  0  0  0  0  0  0  0  0  0
  -28.7378  -16.7398   20.1900 C   0  0  0  0  0  0  0  0  0  0  0  0
  -22.1822   -8.8645   21.8433 C   0  0  0  0  0  0  0  0  0  0  0  0
  -25.9819  -26.5546   19.7990 C   0  0  0  0  0  0  0  0  0  0  0  0
  -20.2323   -7.5873   22.1416 C   0  0  0  0  0  0  0  0  0  0  0  0
  -18.3787   -5.7716   21.1170 C   0  0  0  0  0  0  0  0  0  0  0  0
  -27.3200  -18.6959   20.1612 C   0  0  0  0  0  0  0  0  0  0  0  0
  -20.0375   -6.3586   22.7725 C   0  0  0  0  0  0  0  0  0  0  0  0
  -25.3855  -10.0304   19.3379 C   0  0  0  0  0  0  0  0  0  0  0  0
  -26.7033  -10.3920   17.6152 C   0  0  0  0  0  0  0  0  0  0  0  0
  -27.1516  -22.5577   19.7912 C   0  0  0  0  0  0  0  0  0  0  0  0
  -24.5682   -9.2290   17.0347 C   0  0  0  0  0  0  0  0  0  0  0  0
  -25.4391  -31.9133   20.4728 C   0  0  0  0  0  0  0  0  0  0  0  0
  -24.6562  -31.3406   23.5682 C   0  0  0  0  0  0  0  0  0  0  0  0
  -24.1853  -29.0604   26.0634 C   0  0  0  0  0  0  0  0  0  0  0  0
  -30.0958  -14.6189   20.1312 C   0  0  0  0  0  0  0  0  0  0  0  0
  -25.3344  -36.7964   18.9889 C   0  0  0  0  0  0  0  0  0  0  0  0
  -23.6544  -30.1502   20.2227 C   0  0  0  0  0  0  0  0  0  0  0  0
  -25.6467  -29.4112   22.2792 C   0  0  0  0  0  0  0  0  0  0  0  0
  -25.6642  -36.0551   20.2820 C   0  0  0  0  0  0  0  0  0  0  0  0
  -29.7373  -22.6122   18.4135 C   0  0  0  0  0  0  0  0  0  0  0  0
  -31.0447  -11.2569   19.4425 C   0  0  0  0  0  0  0  0  0  0  0  0
  -26.6281  -34.9052   20.0071 C   0  0  0  0  0  0  0  0  0  0  0  0
  -28.8452  -23.8378   18.3860 C   0  0  0  0  0  0  0  0  0  0  0  0
  -29.7108  -10.5452   19.2049 C   0  0  0  0  0  0  0  0  0  0  0  0
  -29.5869  -21.9012   19.7444 C   0  0  0  0  0  0  0  0  0  0  0  0
  -30.9352  -12.3157   20.5383 C   0  0  0  0  0  0  0  0  0  0  0  0
  -28.5236  -12.5834   20.1123 C   0  0  0  0  0  0  0  0  0  0  0  0
  -26.0042  -33.8780   19.0547 C   0  0  1  0  0  0  0  0  0  0  0  0
  -27.3932  -23.4007   18.5369 C   0  0  2  0  0  0  0  0  0  0  0  0
  -24.2958  -31.1944   21.1314 C   0  0  1  0  0  0  0  0  0  0  0  0
  -28.5680  -11.5528   18.9722 C   0  0  2  0  0  0  0  0  0  0  0  0
  -23.5860  -28.8964   28.4947 C   0  0  0  0  0  0  0  0  0  0  0  0
  -27.4612  -32.2769   24.3203 C   0  0  0  0  0  0  0  0  0  0  0  0
  -27.1386  -31.2146   26.5643 C   0  0  0  0  0  0  0  0  0  0  0  0
  -25.6491  -33.0816   25.8445 C   0  0  0  0  0  0  0  0  0  0  0  0
  -21.7709  -27.4515   25.4791 C   0  0  0  0  0  0  0  0  0  0  0  0
  -28.0126  -20.8180   21.3110 C   0  0  0  0  0  0  0  0  0  0  0  0
  -26.4688  -24.6176   18.5079 C   0  0  0  0  0  0  0  0  0  1  0  0
  -25.3888  -30.8056   24.7749 C   0  0  1  0  0  0  0  0  0  0  0  0
  -23.0606  -28.8840   27.0676 C   0  0  2  0  0  0  0  0  0  0  0  0
  -26.4068  -31.8293   25.3522 C   0  0  0  0  0  0  0  0  0  0  0  0
  -26.4502  -10.6492   19.8552 N   0  0  0  0  0  0  0  0  0  0  0  0
  -27.2337  -10.8558   18.7830 N   0  0  0  0  0  0  0  0  0  0  0  0
  -28.2049  -21.7327   20.1931 N   0  0  0  0  0  0  0  0  0  0  0  0
  -24.8122  -30.6203   22.3755 N   0  0  0  0  0  0  0  0  0  0  0  0
  -29.8345  -13.2373   20.2485 N   0  0  0  0  0  0  0  0  0  0  0  0
  -27.3590  -10.5180   16.4419 N   0  0  0  0  0  0  0  0  0  0  0  0
  -23.3662   -8.7171   17.5422 N   0  0  0  0  0  0  0  0  0  0  0  0
  -28.9779  -15.3928   19.8217 N   0  0  0  0  0  0  0  0  0  0  0  0
  -25.0629  -33.0379   19.7636 N   0  0  0  0  0  0  0  0  0  0  0  0
  -24.3623  -30.3846   25.7222 N   0  0  0  0  0  0  0  0  0  0  0  0
  -22.3581  -27.5901   26.8366 N   0  3  0  0  0  0  0  0  0  0  0  0
  -26.0443  -22.5592   20.3364 O   0  0  0  0  0  0  0  0  0  0  0  0
  -24.8121   -9.1218   15.8089 O   0  0  0  0  0  0  0  0  0  0  0  0
  -26.5785  -31.4805   20.6001 O   0  0  0  0  0  0  0  0  0  0  0  0
  -23.9651  -32.3560   23.6815 O   0  0  0  0  0  0  0  0  0  0  0  0
  -24.8436  -28.1182   25.6282 O   0  0  0  0  0  0  0  0  0  0  0  0
  -31.2328  -15.0781   20.2664 O   0  0  0  0  0  0  0  0  0  0  0  0
  -21.1514   -8.4900   22.6495 O   0  0  0  0  0  0  0  0  0  0  0  0
  -26.7132  -25.4147   19.6661 O   0  0  0  0  0  0  0  0  0  1  0  0
  -17.4876   -4.9005   20.6258 F   0  0  0  0  0  0  0  0  0  0  0  0
  -26.1829  -19.2934   19.7787 F   0  0  0  0  0  0  0  0  0  0  0  0
  -20.7371   -6.0452   23.8717 F   0  0  0  0  0  0  0  0  0  0  0  0
  1  2  1  0  0  0  0
  1  5  2  0  0  0  0
  2  6  2  0  0  0  0
  3 10  2  0  0  0  0
  3 18  1  0  0  0  0
  4 11  1  0  0  0  0
  4 18  2  0  0  0  0
  5 20  1  0  0  0  0
  6 22  1  0  0  0  0
  7 12  2  0  0  0  0
  7 21  1  0  0  0  0
  8  9  2  0  0  0  0
  8 24  1  0  0  0  0
  9 25  1  0  0  0  0
 10 26  1  0  0  0  0
 11 26  2  0  0  0  0
 12 27  1  0  0  0  0
 13 14  2  0  0  0  0
 13 28  1  0  0  0  0
 14 29  1  0  0  0  0
 15 23  1  0  0  0  0
 15 27  2  0  0  0  0
 16 25  2  0  0  0  0
 16 30  1  0  0  0  0
 17 29  2  0  0  0  0
 17 31  1  0  0  0  0
 18 32  1  0  0  0  0
 19 32  1  0  0  0  0
 19 33  2  0  0  0  0
 19 35  1  0  0  0  0
 20 22  2  0  0  0  0
 20 40  1  0  0  0  0
 21 23  2  0  0  0  0
 21 41  1  0  0  0  0
 22 52  1  0  0  0  0
 23 42  1  0  0  0  0
 24 30  2  0  0  0  0
 24 61  1  0  0  0  0
 25 73  1  0  0  0  0
 26 83  1  0  0  0  0
 27 84  1  0  0  0  0
 28 31  2  0  0  0  0
 28 83  1  0  0  0  0
 29 85  1  0  0  0  0
 30 86  1  0  0  0  0
 31 87  1  0  0  0  0
 32 66  2  0  0  0  0
 33 67  1  0  0  0  0
 33 71  1  0  0  0  0
 34 53  1  0  0  0  0
 34 68  1  0  0  0  0
 34 77  2  0  0  0  0
 35 72  1  0  0  0  0
 35 78  2  0  0  0  0
 36 54  1  0  0  0  0
 36 74  1  0  0  0  0
 36 79  2  0  0  0  0
 37 63  1  0  0  0  0
 37 69  1  0  0  0  0
 37 80  2  0  0  0  0
 38 64  1  0  0  0  0
 38 75  1  0  0  0  0
 38 81  2  0  0  0  0
 39 70  1  0  0  0  0
 39 73  1  0  0  0  0
 39 82  2  0  0  0  0
 40 43  1  0  0  0  0
 41 54  1  0  0  0  0
 42 69  1  0  0  0  0
 43 46  1  0  0  0  0
 44 47  1  0  0  0  0
 44 49  1  0  0  0  0
 45 48  1  0  0  0  0
 45 50  1  0  0  0  0
 46 52  1  0  0  0  0
 47 53  1  0  0  0  0
 48 55  1  0  0  0  0
 49 68  1  0  0  0  0
 50 70  1  0  0  0  0
 51 55  1  0  0  0  0
 51 70  1  0  0  0  0
 52 74  1  0  0  0  0
 53 62  1  0  0  0  0
 54 69  1  0  0  0  0
 55 67  1  0  0  0  0
 56 64  1  0  0  0  0
 57 65  1  0  0  0  0
 58 65  1  0  0  0  0
 59 65  1  0  0  0  0
 60 76  1  0  0  0  0
 61 68  1  0  0  0  0
 62 84  1  0  0  0  0
 63 65  1  0  0  0  0
 63 75  1  0  0  0  0
 64 76  1  0  0  0  0
 66 67  1  0  0  0  0
M  CHG  1  76   1
M  ISO  4  39 100  62 101  73 100  84 101
M  END
> <Batch ID>
0050

> <Smiles>
CNC(C)C(=O)NC(C(=O)N1Cc2cc([101O:1][101CH2:1]C3CCCN(Cc4ccc([100NH:0][100C:0](=O)N5CCCC(n6nc(-c7ccc(Oc8ccc(F)cc8F)cc7)c(C(N)=O)c6N)C5)cc4F)C3=O)ccc2CC1C(=O)NC1CCCc2ccccc21)C(C)(C)C

> <Shape>
0.257

> <Color>
0.091

> <Negative vol penalty>
0.000

$$$$

  -OEChem-04042322353D

 84 92  0     1  0  0  0  0  0999 V2000
  -27.9314  -19.7398   15.3984 C   0  0  0  0  0  0  0  0  0  0  0  0
  -28.5156  -18.7988   16.2388 C   0  0  0  0  0  0  0  0  0  0  0  0
  -22.8719  -29.2801   21.1830 C   0  0  0  0  0  0  0  0  0  0  0  0
  -24.0801  -28.4288   23.0942 C   0  0  0  0  0  0  0  0  0  0  0  0
  -29.3774  -20.9686   23.3570 C   0  0  0  0  0  0  0  0  0  0  0  0
  -26.5576  -19.9637   15.4574 C   0  0  0  0  0  0  0  0  0  0  0  0
  -27.7244  -18.0730   17.1300 C   0  0  0  0  0  0  0  0  0  0  0  0
  -29.9195  -14.4428   19.6214 C   0  0  0  0  0  0  0  0  0  0  0  0
  -29.0335  -22.0062   22.4906 C   0  0  0  0  0  0  0  0  0  0  0  0
  -21.7768  -29.5604   22.0002 C   0  0  0  0  0  0  0  0  0  0  0  0
  -22.9851  -28.7092   23.9114 C   0  0  0  0  0  0  0  0  0  0  0  0
  -30.8285  -14.6782   20.6519 C   0  0  0  0  0  0  0  0  0  0  0  0
  -19.2260  -27.8552   23.4178 C   0  0  0  0  0  0  0  0  0  0  0  0
  -17.9617  -27.4937   22.9525 C   0  0  0  0  0  0  0  0  0  0  0  0
  -29.1265  -14.1286   22.2706 C   0  0  0  0  0  0  0  0  0  0  0  0
  -28.5314  -20.3955   20.7612 C   0  0  0  0  0  0  0  0  0  0  0  0
  -17.2638  -29.8045   23.0535 C   0  0  0  0  0  0  0  0  0  0  0  0
  -24.0236  -28.7142   21.7300 C   0  0  0  0  0  0  0  0  0  0  0  0
  -29.2984  -19.6445   22.9256 C   0  0  0  0  0  0  0  0  0  0  0  0
  -26.2327  -29.2781   20.5857 C   0  0  0  0  0  0  0  0  0  0  0  0
  -25.7517  -19.2488   16.3587 C   0  0  0  0  0  0  0  0  0  0  0  0
  -28.6018  -14.0584   19.9085 C   0  0  0  0  0  0  0  0  0  0  0  0
  -26.3325  -18.2675   17.1877 C   0  0  0  0  0  0  0  0  0  0  0  0
  -28.2034  -13.8864   21.2419 C   0  0  0  0  0  0  0  0  0  0  0  0
  -28.8754  -19.3580   21.6277 C   0  0  0  0  0  0  0  0  0  0  0  0
  -28.6105  -21.7197   21.1926 C   0  0  0  0  0  0  0  0  0  0  0  0
  -21.8334  -29.2750   23.3643 C   0  0  0  0  0  0  0  0  0  0  0  0
  -30.4312  -14.5240   21.9769 C   0  0  0  0  0  0  0  0  0  0  0  0
  -19.5092  -29.1913   23.7010 C   0  0  0  0  0  0  0  0  0  0  0  0
  -16.9806  -28.4683   22.7703 C   0  0  0  0  0  0  0  0  0  0  0  0
  -18.5281  -30.1660   23.5188 C   0  0  0  0  0  0  0  0  0  0  0  0
  -25.1549  -28.4238   20.8863 C   0  0  0  0  0  0  0  0  0  0  0  0
  -27.0343  -28.5387   19.7506 C   0  0  0  0  0  0  0  0  0  0  0  0
  -29.6714  -18.5596   23.8694 C   0  0  0  0  0  0  0  0  0  0  0  0
  -26.4866  -30.6199   21.0223 C   0  0  0  0  0  0  0  0  0  0  0  0
  -25.7318  -15.3179   19.3790 C   0  0  0  0  0  0  0  0  0  0  0  0
  -24.6982  -12.4966   20.6014 C   0  0  0  0  0  0  0  0  0  0  0  0
  -25.3425   -9.7795   22.5634 C   0  0  0  0  0  0  0  0  0  0  0  0
  -27.8224  -22.6641   18.9941 C   0  0  0  0  0  0  0  0  0  0  0  0
  -24.2690  -19.5255   16.3752 C   0  0  0  0  0  0  0  0  0  0  0  0
  -27.6410  -13.7823   18.7847 C   0  0  0  0  0  0  0  0  0  0  0  0
  -26.8060  -13.4557   21.6027 C   0  0  0  0  0  0  0  0  0  0  0  0
  -23.5868  -19.0348   17.6480 C   0  0  0  0  0  0  0  0  0  0  0  0
  -26.8288  -25.0162   16.5127 C   0  0  0  0  0  0  0  0  0  0  0  0
  -23.9877  -17.5947   17.9305 C   0  0  0  0  0  0  0  0  0  0  0  0
  -26.3906  -26.2369   17.3251 C   0  0  0  0  0  0  0  0  0  0  0  0
  -26.4498  -23.7083   17.2052 C   0  0  0  0  0  0  0  0  0  0  0  0
  -26.4651  -24.8091   19.4091 C   0  0  0  0  0  0  0  0  0  0  0  0
  -25.4964  -17.4880   18.1865 C   0  0  1  0  0  0  0  0  0  0  0  0
  -26.1793  -13.8938   19.2073 C   0  0  1  0  0  0  0  0  0  0  0  0
  -26.8828  -26.1498   18.7831 C   0  0  2  0  0  0  0  0  0  0  0  0
  -28.7830  -17.9489   21.1399 C   0  0  0  0  0  0  0  0  0  0  0  0
  -24.2911   -7.6600   23.3999 C   0  0  0  0  0  0  0  0  0  0  0  0
  -23.0258  -14.1095   22.5792 C   0  0  0  0  0  0  0  0  0  0  0  0
  -22.7690  -12.0306   23.9504 C   0  0  0  0  0  0  0  0  0  0  0  0
  -21.8698  -12.1077   21.6248 C   0  0  0  0  0  0  0  0  0  0  0  0
  -27.4133   -8.1057   21.2716 C   0  0  0  0  0  0  0  0  0  0  0  0
  -32.6948  -16.3951   24.0637 C   0  0  0  0  0  0  0  0  0  0  0  0
  -31.5155  -17.1207   24.6972 C   0  0  0  0  0  0  0  0  0  0  0  0
  -32.3373  -15.7214   22.7444 C   0  0  0  0  0  0  0  0  0  1  0  0
  -24.3695  -11.9868   21.9838 C   0  0  1  0  0  0  0  0  0  0  0  0
  -25.1536   -8.2932   22.3192 C   0  0  2  0  0  0  0  0  0  0  0  0
  -23.0344  -12.5687   22.5281 C   0  0  0  0  0  0  0  0  0  0  0  0
  -25.2592  -27.2329   20.2905 N   0  0  0  0  0  0  0  0  0  0  0  0
  -26.4120  -27.3336   19.6071 N   0  0  0  0  0  0  0  0  0  0  0  0
  -25.9015  -13.2039   20.4687 N   0  0  0  0  0  0  0  0  0  0  0  0
  -26.9528  -23.6953   18.5805 N   0  0  0  0  0  0  0  0  0  0  0  0
  -28.2037  -28.8084   19.1324 N   0  0  0  0  0  0  0  0  0  0  0  0
  -25.5603  -31.2304   21.8788 N   0  0  0  0  0  0  0  0  0  0  0  0
  -28.2613  -22.7743   20.3131 N   0  0  0  0  0  0  0  0  0  0  0  0
  -31.0066  -18.1716   23.8600 N   0  0  0  0  0  0  0  0  0  0  0  0
  -25.8682  -16.0914   18.2421 N   0  0  0  0  0  0  0  0  0  0  0  0
  -24.3961  -10.5306   21.8989 N   0  0  0  0  0  0  0  0  0  0  0  0
  -26.4723   -7.5992   22.3036 N   0  3  0  0  0  0  0  0  0  0  0  0
  -28.8039  -18.0566   24.5785 O   0  0  0  0  0  0  0  0  0  0  0  0
  -27.4964  -31.2645   20.6504 O   0  0  0  0  0  0  0  0  0  0  0  0
  -25.2938  -15.6871   20.4622 O   0  0  0  0  0  0  0  0  0  0  0  0
  -23.9196  -12.2692   19.6720 O   0  0  0  0  0  0  0  0  0  0  0  0
  -26.2375  -10.2291   23.2756 O   0  0  0  0  0  0  0  0  0  0  0  0
  -28.1749  -21.7653   18.2260 O   0  0  0  0  0  0  0  0  0  0  0  0
  -20.7651  -29.5487   24.1621 O   0  0  0  0  0  0  0  0  0  0  0  0
  -31.3163  -14.7538   22.9847 O   0  0  0  0  0  0  0  0  0  1  0  0
  -15.7671  -28.1212   22.3220 F   0  0  0  0  0  0  0  0  0  0  0  0
  -18.7946  -31.4514   23.7880 F   0  0  0  0  0  0  0  0  0  0  0  0
  1  2  1  0  0  0  0
  1  6  2  0  0  0  0
  2  7  2  0  0  0  0
  3 10  2  0  0  0  0
  3 18  1  0  0  0  0
  4 11  1  0  0  0  0
  4 18  2  0  0  0  0
  5  9  2  0  0  0  0
  5 19  1  0  0  0  0
  6 21  1  0  0  0  0
  7 23  1  0  0  0  0
  8 12  2  0  0  0  0
  8 22  1  0  0  0  0
  9 26  1  0  0  0  0
 10 27  1  0  0  0  0
 11 27  2  0  0  0  0
 12 28  1  0  0  0  0
 13 14  2  0  0  0  0
 13 29  1  0  0  0  0
 14 30  1  0  0  0  0
 15 24  1  0  0  0  0
 15 28  2  0  0  0  0
 16 25  1  0  0  0  0
 16 26  2  0  0  0  0
 17 30  2  0  0  0  0
 17 31  1  0  0  0  0
 18 32  1  0  0  0  0
 19 25  2  0  0  0  0
 19 34  1  0  0  0  0
 20 32  1  0  0  0  0
 20 33  2  0  0  0  0
 20 35  1  0  0  0  0
 21 23  2  0  0  0  0
 21 40  1  0  0  0  0
 22 24  2  0  0  0  0
 22 41  1  0  0  0  0
 23 49  1  0  0  0  0
 24 42  1  0  0  0  0
 25 52  1  0  0  0  0
 26 70  1  0  0  0  0
 27 81  1  0  0  0  0
 28 82  1  0  0  0  0
 29 31  2  0  0  0  0
 29 81  1  0  0  0  0
 30 83  1  0  0  0  0
 31 84  1  0  0  0  0
 32 64  2  0  0  0  0
 33 65  1  0  0  0  0
 33 68  1  0  0  0  0
 34 71  1  0  0  0  0
 34 75  2  0  0  0  0
 35 69  1  0  0  0  0
 35 76  2  0  0  0  0
 36 50  1  0  0  0  0
 36 72  1  0  0  0  0
 36 77  2  0  0  0  0
 37 61  1  0  0  0  0
 37 66  1  0  0  0  0
 37 78  2  0  0  0  0
 38 62  1  0  0  0  0
 38 73  1  0  0  0  0
 38 79  2  0  0  0  0
 39 67  1  0  0  0  0
 39 70  1  0  0  0  0
 39 80  2  0  0  0  0
 40 43  1  0  0  0  0
 41 50  1  0  0  0  0
 42 66  1  0  0  0  0
 43 45  1  0  0  0  0
 44 46  1  0  0  0  0
 44 47  1  0  0  0  0
 45 49  1  0  0  0  0
 46 51  1  0  0  0  0
 47 67  1  0  0  0  0
 48 51  1  0  0  0  0
 48 67  1  0  0  0  0
 49 72  1  0  0  0  0
 50 66  1  0  0  0  0
 51 65  1  0  0  0  0
 53 62  1  0  0  0  0
 54 63  1  0  0  0  0
 55 63  1  0  0  0  0
 56 63  1  0  0  0  0
 57 74  1  0  0  0  0
 58 59  1  0  0  0  0
 58 60  1  0  0  0  0
 59 71  1  0  0  0  0
 60 82  1  0  0  0  0
 61 63  1  0  0  0  0
 61 73  1  0  0  0  0
 62 74  1  0  0  0  0
 64 65  1  0  0  0  0
M  CHG  1  74   1
M  ISO  4  39 100  60 101  70 100  82 101
M  END
> <Batch ID>
0050

> <Smiles>
CNC(C)C(=O)NC(C(=O)N1Cc2cc([101O:1][101CH2:1]CCNC(=O)c3ccc([100NH:0][100C:0](=O)N4CCCC(n5nc(-c6ccc(Oc7ccc(F)cc7F)cc6)c(C(N)=O)c5N)C4)cc3C)ccc2CC1C(=O)NC1CCCc2ccccc21)C(C)(C)C

> <Shape>
0.270

> <Color>
0.047

> <Negative vol penalty>
0.000

$$$$

  -OEChem-04042322353D

 88 96  0     1  0  0  0  0  0999 V2000
  -29.6206  -36.8983   23.0811 C   0  0  0  0  0  0  0  0  0  0  0  0
  -29.8364  -35.6461   22.5146 C   0  0  0  0  0  0  0  0  0  0  0  0
  -26.1474   -8.5617   22.0783 C   0  0  0  0  0  0  0  0  0  0  0  0
  -25.9850  -10.3798   23.6611 C   0  0  0  0  0  0  0  0  0  0  0  0
  -28.6353  -37.0615   24.0539 C   0  0  0  0  0  0  0  0  0  0  0  0
  -29.0677  -34.5561   22.9214 C   0  0  0  0  0  0  0  0  0  0  0  0
  -27.1825  -29.8786   19.4468 C   0  0  0  0  0  0  0  0  0  0  0  0
  -29.2540  -19.8651   21.5561 C   0  0  0  0  0  0  0  0  0  0  0  0
  -26.6466   -7.7322   23.0824 C   0  0  0  0  0  0  0  0  0  0  0  0
  -26.4841   -9.5502   24.6653 C   0  0  0  0  0  0  0  0  0  0  0  0
  -27.6736  -28.5863   19.2669 C   0  0  0  0  0  0  0  0  0  0  0  0
  -25.4197   -5.9536   25.6833 C   0  0  0  0  0  0  0  0  0  0  0  0
  -24.8955   -4.6646   25.7794 C   0  0  0  0  0  0  0  0  0  0  0  0
  -28.1995  -19.1791   22.1585 C   0  0  0  0  0  0  0  0  0  0  0  0
  -26.1012  -27.7676   20.9029 C   0  0  0  0  0  0  0  0  0  0  0  0
  -29.1566  -18.3587   19.6698 C   0  0  0  0  0  0  0  0  0  0  0  0
  -27.0974   -3.7416   25.4098 C   0  0  0  0  0  0  0  0  0  0  0  0
  -25.8167   -9.8856   22.3677 C   0  0  0  0  0  0  0  0  0  0  0  0
  -23.9524  -10.9319   20.9758 C   0  0  0  0  0  0  0  0  0  0  0  0
  -27.8476  -35.9751   24.4660 C   0  0  0  0  0  0  0  0  0  0  0  0
  -26.1528  -30.1273   20.3656 C   0  0  0  0  0  0  0  0  0  0  0  0
  -28.0718  -34.7047   23.9017 C   0  0  0  0  0  0  0  0  0  0  0  0
  -25.5971  -29.0636   21.0907 C   0  0  0  0  0  0  0  0  0  0  0  0
  -29.7326  -19.4549   20.3117 C   0  0  0  0  0  0  0  0  0  0  0  0
  -28.1020  -17.6726   20.2721 C   0  0  0  0  0  0  0  0  0  0  0  0
  -26.8149   -8.2264   24.3759 C   0  0  0  0  0  0  0  0  0  0  0  0
  -27.1349  -27.5309   19.9971 C   0  0  0  0  0  0  0  0  0  0  0  0
  -26.7827   -6.1367   25.4503 C   0  0  0  0  0  0  0  0  0  0  0  0
  -25.7343   -3.5586   25.6427 C   0  0  0  0  0  0  0  0  0  0  0  0
  -27.6216   -5.0307   25.3137 C   0  0  0  0  0  0  0  0  0  0  0  0
  -27.6235  -18.0828   21.5165 C   0  0  0  0  0  0  0  0  0  0  0  0
  -25.3015  -10.7432   21.3307 C   0  0  0  0  0  0  0  0  0  0  0  0
  -23.9923  -11.8361   19.9427 C   0  0  0  0  0  0  0  0  0  0  0  0
  -31.4173  -20.7557   15.8598 C   0  0  0  0  0  0  0  0  0  0  0  0
  -30.0355  -23.8841   19.2498 C   0  0  0  0  0  0  0  0  0  0  0  0
  -31.0266  -21.6447   16.7800 C   0  0  0  0  0  0  0  0  0  0  0  0
  -29.5141  -24.8571   20.0102 C   0  0  0  0  0  0  0  0  0  0  0  0
  -22.7688  -10.3427   21.5305 C   0  0  0  0  0  0  0  0  0  0  0  0
  -30.5235  -22.6250   19.8831 C   0  0  0  0  0  0  0  0  0  0  0  0
  -25.8795  -31.8666   23.0121 C   0  0  0  0  0  0  0  0  0  0  0  0
  -22.7663  -30.9783   22.8080 C   0  0  0  0  0  0  0  0  0  0  0  0
  -20.4616  -28.7402   21.6566 C   0  0  0  0  0  0  0  0  0  0  0  0
  -27.9211  -16.0489   18.3546 C   0  0  0  0  0  0  0  0  0  0  0  0
  -26.8265  -36.1904   25.5549 C   0  0  0  0  0  0  0  0  0  0  0  0
  -25.6159  -31.5229   20.5285 C   0  0  0  0  0  0  0  0  0  0  0  0
  -24.4764  -29.2745   22.0747 C   0  0  0  0  0  0  0  0  0  0  0  0
  -25.8019  -35.0637   25.6605 C   0  0  0  0  0  0  0  0  0  0  0  0
  -26.8131  -13.3119   16.3650 C   0  0  0  0  0  0  0  0  0  0  0  0
  -26.4959  -33.7058   25.6235 C   0  0  0  0  0  0  0  0  0  0  0  0
  -26.1715  -12.3625   17.3795 C   0  0  0  0  0  0  0  0  0  0  0  0
  -28.0445  -14.0091   16.9406 C   0  0  0  0  0  0  0  0  0  0  0  0
  -27.1860  -13.7467   19.2348 C   0  0  0  0  0  0  0  0  0  0  0  0
  -27.2417  -33.5034   24.2990 C   0  0  1  0  0  0  0  0  0  0  0  0
  -24.9157  -31.7414   21.8661 C   0  0  1  0  0  0  0  0  0  0  0  0
  -25.9041  -13.0700   18.7225 C   0  0  2  0  0  0  0  0  0  0  0  0
  -17.9988  -28.2594   21.6823 C   0  0  0  0  0  0  0  0  0  0  0  0
  -22.9954  -29.9711   25.6791 C   0  0  0  0  0  0  0  0  0  0  0  0
  -20.8787  -28.6825   25.3222 C   0  0  0  0  0  0  0  0  0  0  0  0
  -20.8635  -31.1718   25.1618 C   0  0  0  0  0  0  0  0  0  0  0  0
  -20.2709  -28.9562   18.7111 C   0  0  0  0  0  0  0  0  0  0  0  0
  -30.8674  -20.1939   19.6634 C   0  0  0  0  0  0  0  0  0  0  0  0
  -29.9080  -21.4111   17.7417 C   0  0  0  0  0  0  0  0  0  0  0  0
  -28.9845  -26.1387   19.4524 C   0  0  0  0  0  0  0  0  0  1  0  0
  -21.9497  -29.8180   23.3235 C   0  0  1  0  0  0  0  0  0  0  0  0
  -19.1390  -28.9361   20.9376 C   0  0  2  0  0  0  0  0  0  0  0  0
  -21.6943  -29.9069   24.8546 C   0  0  0  0  0  0  0  0  0  0  0  0
  -26.1376  -11.4690   20.5836 N   0  0  0  0  0  0  0  0  0  0  0  0
  -25.3116  -12.1225   19.7489 N   0  0  0  0  0  0  0  0  0  0  0  0
  -23.9900  -30.6581   22.2031 N   0  0  0  0  0  0  0  0  0  0  0  0
  -27.7145  -14.6606   18.2101 N   0  0  0  0  0  0  0  0  0  0  0  0
  -23.0273  -12.4060   19.1901 N   0  0  0  0  0  0  0  0  0  0  0  0
  -22.9077   -9.4335   22.5880 N   0  0  0  0  0  0  0  0  0  0  0  0
  -27.5403  -16.5626   19.5938 N   0  0  0  0  0  0  0  0  0  0  0  0
  -26.3133  -33.1579   23.2439 N   0  0  0  0  0  0  0  0  0  0  0  0
  -20.7350  -29.7832   22.5161 N   0  0  0  0  0  0  0  0  0  0  0  0
  -30.4385  -21.4686   19.1025 N   0  0  0  0  0  0  0  0  0  0  0  0
  -19.2072  -28.3646   19.5629 N   0  3  0  0  0  0  0  0  0  0  0  0
  -21.6232  -10.6019   21.0902 O   0  0  0  0  0  0  0  0  0  0  0  0
  -30.9452  -22.6465   21.0404 O   0  0  0  0  0  0  0  0  0  0  0  0
  -26.2042  -30.8659   23.6405 O   0  0  0  0  0  0  0  0  0  0  0  0
  -22.3312  -32.1260   22.9310 O   0  0  0  0  0  0  0  0  0  0  0  0
  -21.1785  -27.7583   21.4768 O   0  0  0  0  0  0  0  0  0  0  0  0
  -28.3752  -16.7364   17.4363 O   0  0  0  0  0  0  0  0  0  0  0  0
  -27.3018   -7.4171   25.3560 O   0  0  0  0  0  0  0  0  0  0  0  0
  -27.6128  -26.2686   19.8240 O   0  0  0  0  0  0  0  0  0  1  0  0
  -25.2311   -2.3208   25.7365 F   0  0  0  0  0  0  0  0  0  0  0  0
  -28.9321   -5.2003   25.0910 F   0  0  0  0  0  0  0  0  0  0  0  0
  -26.3199  -17.2620   22.2986 Cl  0  0  0  0  0  0  0  0  0  0  0  0
  1  2  1  0  0  0  0
  1  5  2  0  0  0  0
  2  6  2  0  0  0  0
  3  9  2  0  0  0  0
  3 18  1  0  0  0  0
  4 10  1  0  0  0  0
  4 18  2  0  0  0  0
  5 20  1  0  0  0  0
  6 22  1  0  0  0  0
  7 11  2  0  0  0  0
  7 21  1  0  0  0  0
  8 14  2  0  0  0  0
  8 24  1  0  0  0  0
  9 26  1  0  0  0  0
 10 26  2  0  0  0  0
 11 27  1  0  0  0  0
 12 13  2  0  0  0  0
 12 28  1  0  0  0  0
 13 29  1  0  0  0  0
 14 31  1  0  0  0  0
 15 23  1  0  0  0  0
 15 27  2  0  0  0  0
 16 24  2  0  0  0  0
 16 25  1  0  0  0  0
 17 29  2  0  0  0  0
 17 30  1  0  0  0  0
 18 32  1  0  0  0  0
 19 32  1  0  0  0  0
 19 33  2  0  0  0  0
 19 38  1  0  0  0  0
 20 22  2  0  0  0  0
 20 44  1  0  0  0  0
 21 23  2  0  0  0  0
 21 45  1  0  0  0  0
 22 53  1  0  0  0  0
 23 46  1  0  0  0  0
 24 61  1  0  0  0  0
 25 31  2  0  0  0  0
 25 73  1  0  0  0  0
 26 84  1  0  0  0  0
 27 85  1  0  0  0  0
 28 30  2  0  0  0  0
 28 84  1  0  0  0  0
 29 86  1  0  0  0  0
 30 87  1  0  0  0  0
 31 88  1  0  0  0  0
 32 67  2  0  0  0  0
 33 68  1  0  0  0  0
 33 71  1  0  0  0  0
 34 36  2  0  0  0  0
 35 37  2  0  0  0  0
 35 39  1  0  0  0  0
 36 62  1  0  0  0  0
 37 63  1  0  0  0  0
 38 72  1  0  0  0  0
 38 78  2  0  0  0  0
 39 76  1  0  0  0  0
 39 79  2  0  0  0  0
 40 54  1  0  0  0  0
 40 74  1  0  0  0  0
 40 80  2  0  0  0  0
 41 64  1  0  0  0  0
 41 69  1  0  0  0  0
 41 81  2  0  0  0  0
 42 65  1  0  0  0  0
 42 75  1  0  0  0  0
 42 82  2  0  0  0  0
 43 70  1  0  0  0  0
 43 73  1  0  0  0  0
 43 83  2  0  0  0  0
 44 47  1  0  0  0  0
 45 54  1  0  0  0  0
 46 69  1  0  0  0  0
 47 49  1  0  0  0  0
 48 50  1  0  0  0  0
 48 51  1  0  0  0  0
 49 53  1  0  0  0  0
 50 55  1  0  0  0  0
 51 70  1  0  0  0  0
 52 55  1  0  0  0  0
 52 70  1  0  0  0  0
 53 74  1  0  0  0  0
 54 69  1  0  0  0  0
 55 68  1  0  0  0  0
 56 65  1  0  0  0  0
 57 66  1  0  0  0  0
 58 66  1  0  0  0  0
 59 66  1  0  0  0  0
 60 77  1  0  0  0  0
 61 76  1  0  0  0  0
 62 76  1  0  0  0  0
 63 85  1  0  0  0  0
 64 66  1  0  0  0  0
 64 75  1  0  0  0  0
 65 77  1  0  0  0  0
 67 68  1  0  0  0  0
M  CHG  1  77   1
M  ISO  4  43 100  63 101  73 100  85 101
M  END
> <Batch ID>
0050

> <Smiles>
C=CCN(Cc1ccc(Cl)c([100NH:0][100C:0](=O)N2CCCC(n3nc(-c4ccc(Oc5ccc(F)cc5F)cc4)c(C(N)=O)c3N)C2)c1)C(=O)C=C[101CH2:1][101O:1]c1ccc2c(c1)CN(C(=O)C(NC(=O)C(C)NC)C(C)(C)C)C(C(=O)NC1CCCc3ccccc31)C2

> <Shape>
0.250

> <Color>
0.067

> <Negative vol penalty>
0.000

$$$$

  -OEChem-04042322353D

 89 97  0     1  0  0  0  0  0999 V2000
  -18.4826  -28.3187   22.4528 C   0  0  0  0  0  0  0  0  0  0  0  0
  -18.6890  -27.3127   21.5143 C   0  0  0  0  0  0  0  0  0  0  0  0
  -29.6437  -23.6838   19.2573 C   0  0  0  0  0  0  0  0  0  0  0  0
  -28.4997  -22.5315   17.4683 C   0  0  0  0  0  0  0  0  0  0  0  0
  -19.3007  -28.3983   23.5790 C   0  0  0  0  0  0  0  0  0  0  0  0
  -19.7144  -26.3864   21.7008 C   0  0  0  0  0  0  0  0  0  0  0  0
  -19.6602  -20.4678   20.1283 C   0  0  0  0  0  0  0  0  0  0  0  0
  -29.9904  -24.7079   18.3760 C   0  0  0  0  0  0  0  0  0  0  0  0
  -28.8463  -23.5556   16.5870 C   0  0  0  0  0  0  0  0  0  0  0  0
  -20.1775  -19.7848   19.0284 C   0  0  0  0  0  0  0  0  0  0  0  0
  -30.8684  -27.8016   16.6809 C   0  0  0  0  0  0  0  0  0  0  0  0
  -30.7067  -29.1161   17.1184 C   0  0  0  0  0  0  0  0  0  0  0  0
  -24.5828  -11.8759   20.8756 C   0  0  0  0  0  0  0  0  0  0  0  0
  -22.1522  -19.2407   20.3026 C   0  0  0  0  0  0  0  0  0  0  0  0
  -26.8747  -12.6333   20.9780 C   0  0  0  0  0  0  0  0  0  0  0  0
  -28.3423  -28.7237   17.4232 C   0  0  0  0  0  0  0  0  0  0  0  0
  -28.8984  -22.5956   18.8034 C   0  0  0  0  0  0  0  0  0  0  0  0
  -24.1417  -13.1821   21.0877 C   0  0  0  0  0  0  0  0  0  0  0  0
  -27.3812  -21.4546   20.5075 C   0  0  0  0  0  0  0  0  0  0  0  0
  -20.3305  -27.4667   23.7843 C   0  0  0  0  0  0  0  0  0  0  0  0
  -20.3911  -20.5519   21.3220 C   0  0  0  0  0  0  0  0  0  0  0  0
  -20.5480  -26.4545   22.8301 C   0  0  0  0  0  0  0  0  0  0  0  0
  -21.6409  -19.9232   21.4170 C   0  0  0  0  0  0  0  0  0  0  0  0
  -25.0671  -14.2139   21.2449 C   0  0  0  0  0  0  0  0  0  0  0  0
  -26.4336  -13.9395   21.1901 C   0  0  0  0  0  0  0  0  0  0  0  0
  -29.5916  -24.6438   17.0409 C   0  0  0  0  0  0  0  0  0  0  0  0
  -21.4249  -19.1735   19.1145 C   0  0  0  0  0  0  0  0  0  0  0  0
  -29.7671  -26.9481   16.6145 C   0  0  0  0  0  0  0  0  0  0  0  0
  -29.4436  -29.5772   17.4896 C   0  0  0  0  0  0  0  0  0  0  0  0
  -25.9493  -11.6015   20.8208 C   0  0  0  0  0  0  0  0  0  0  0  0
  -28.5041  -27.4092   16.9857 C   0  0  0  0  0  0  0  0  0  0  0  0
  -28.5406  -21.5371   19.7132 C   0  0  0  0  0  0  0  0  0  0  0  0
  -27.5137  -20.2678   21.1861 C   0  0  0  0  0  0  0  0  0  0  0  0
  -22.6777  -13.4422   21.1406 C   0  0  0  0  0  0  0  0  0  0  0  0
  -26.2827  -22.3689   20.6216 C   0  0  0  0  0  0  0  0  0  0  0  0
  -21.7010  -13.8452   19.0920 C   0  0  0  0  0  0  0  0  0  0  0  0
  -21.0905  -14.7161   18.0322 C   0  0  0  0  0  0  0  0  0  0  0  0
  -21.6334  -22.9281   23.0291 C   0  0  0  0  0  0  0  0  0  0  0  0
  -22.2993  -20.5499   25.1321 C   0  0  0  0  0  0  0  0  0  0  0  0
  -22.8475  -17.2241   25.6663 C   0  0  0  0  0  0  0  0  0  0  0  0
  -28.7801  -14.8473   21.3178 C   0  0  0  0  0  0  0  0  0  0  0  0
  -21.2192  -27.6216   24.9930 C   0  0  0  0  0  0  0  0  0  0  0  0
  -19.8075  -21.2697   22.5080 C   0  0  0  0  0  0  0  0  0  0  0  0
  -22.4565  -19.9669   22.6825 C   0  0  0  0  0  0  0  0  0  0  0  0
  -22.0449  -26.3763   25.3056 C   0  0  0  0  0  0  0  0  0  0  0  0
  -31.4773  -17.1507   21.6280 C   0  0  0  0  0  0  0  0  0  0  0  0
  -22.6940  -25.8337   24.0363 C   0  0  0  0  0  0  0  0  0  0  0  0
  -30.8584  -18.4905   21.2228 C   0  0  0  0  0  0  0  0  0  0  0  0
  -30.9218  -15.9951   20.7976 C   0  0  0  0  0  0  0  0  0  0  0  0
  -28.8379  -17.2365   20.3671 C   0  0  0  0  0  0  0  0  0  0  0  0
  -21.6342  -25.4162   23.0097 C   0  0  1  0  0  0  0  0  0  0  0  0
  -20.8642  -21.7294   23.5077 C   0  0  1  0  0  0  0  0  0  0  0  0
  -29.3186  -18.4220   21.2199 C   0  0  2  0  0  0  0  0  0  0  0  0
  -24.5924  -15.6155   21.4720 C   0  0  0  0  0  0  0  0  0  0  0  0
  -21.7846  -12.3812   18.7784 C   0  0  0  0  0  0  0  0  0  0  0  0
  -23.4050  -15.5866   27.4843 C   0  0  0  0  0  0  0  0  0  0  0  0
  -25.1997  -21.4964   25.0919 C   0  0  0  0  0  0  0  0  0  0  0  0
  -25.8536  -19.3131   26.1280 C   0  0  0  0  0  0  0  0  0  0  0  0
  -24.3382  -20.8694   27.3545 C   0  0  0  0  0  0  0  0  0  0  0  0
  -20.3218  -15.7359   25.2600 C   0  0  0  0  0  0  0  0  0  0  0  0
  -21.6062  -16.6415   16.5607 C   0  0  0  0  0  0  0  0  0  0  0  0
  -20.9964  -17.8996   17.1525 C   0  0  0  0  0  0  0  0  0  1  0  0
  -23.4586  -19.6073   25.3482 C   0  0  1  0  0  0  0  0  0  0  0  0
  -22.2906  -16.2652   26.7030 C   0  0  2  0  0  0  0  0  0  0  0  0
  -24.6983  -20.3222   25.9560 C   0  0  0  0  0  0  0  0  0  0  0  0
  -29.3500  -20.4865   19.8716 N   0  0  0  0  0  0  0  0  0  0  0  0
  -22.1320  -14.3084   20.2246 N   0  0  0  0  0  0  0  0  0  0  0  0
  -28.6983  -19.7326   20.7733 N   0  0  0  0  0  0  0  0  0  0  0  0
  -21.8456  -20.6862   23.8125 N   0  0  0  0  0  0  0  0  0  0  0  0
  -29.4581  -15.9908   20.8451 N   0  0  0  0  0  0  0  0  0  0  0  0
  -26.7313  -19.6403   22.0897 N   0  0  0  0  0  0  0  0  0  0  0  0
  -26.3061  -23.5406   19.8530 N   0  0  0  0  0  0  0  0  0  0  0  0
  -27.3915  -14.9716   21.3480 N   0  0  0  0  0  0  0  0  0  0  0  0
  -21.9574  -15.6874   17.5789 N   0  0  0  0  0  0  0  0  0  0  0  0
  -21.0586  -24.1379   23.3690 N   0  0  0  0  0  0  0  0  0  0  0  0
  -22.9454  -18.5083   26.1588 N   0  0  0  0  0  0  0  0  0  0  0  0
  -21.9203  -12.9235   22.0413 N   0  3  0  0  0  0  0  0  0  0  0  0
  -21.4687  -15.2107   26.0447 N   0  3  0  0  0  0  0  0  0  0  0  0
  -25.3172  -22.1611   21.3950 O   0  0  0  0  0  0  0  0  0  0  0  0
  -19.9419  -14.4867   17.6898 O   0  0  0  0  0  0  0  0  0  0  0  0
  -22.6723  -22.7674   22.3993 O   0  0  0  0  0  0  0  0  0  0  0  0
  -21.8096  -21.1379   26.0996 O   0  0  0  0  0  0  0  0  0  0  0  0
  -23.1674  -16.8687   24.5341 O   0  0  0  0  0  0  0  0  0  0  0  0
  -29.3879  -13.8424   21.6956 O   0  0  0  0  0  0  0  0  0  0  0  0
  -29.9295  -25.6431   16.1807 O   0  0  0  0  0  0  0  0  0  0  0  0
  -21.9324  -18.5067   18.0423 O   0  0  0  0  0  0  0  0  0  1  0  0
  -29.2887  -30.8391   17.9112 F   0  0  0  0  0  0  0  0  0  0  0  0
  -26.3730  -10.3469   20.6186 F   0  0  0  0  0  0  0  0  0  0  0  0
  -27.4425  -26.5936   16.9251 F   0  0  0  0  0  0  0  0  0  0  0  0
  1  2  1  0  0  0  0
  1  5  2  0  0  0  0
  2  6  2  0  0  0  0
  3  8  2  0  0  0  0
  3 17  1  0  0  0  0
  4  9  1  0  0  0  0
  4 17  2  0  0  0  0
  5 20  1  0  0  0  0
  6 22  1  0  0  0  0
  7 10  2  0  0  0  0
  7 21  1  0  0  0  0
  8 26  1  0  0  0  0
  9 26  2  0  0  0  0
 10 27  1  0  0  0  0
 11 12  2  0  0  0  0
 11 28  1  0  0  0  0
 12 29  1  0  0  0  0
 13 18  1  0  0  0  0
 13 30  2  0  0  0  0
 14 23  1  0  0  0  0
 14 27  2  0  0  0  0
 15 25  2  0  0  0  0
 15 30  1  0  0  0  0
 16 29  2  0  0  0  0
 16 31  1  0  0  0  0
 17 32  1  0  0  0  0
 18 24  2  0  0  0  0
 18 34  1  0  0  0  0
 19 32  1  0  0  0  0
 19 33  2  0  0  0  0
 19 35  1  0  0  0  0
 20 22  2  0  0  0  0
 20 42  1  0  0  0  0
 21 23  2  0  0  0  0
 21 43  1  0  0  0  0
 22 51  1  0  0  0  0
 23 44  1  0  0  0  0
 24 25  1  0  0  0  0
 24 54  1  0  0  0  0
 25 73  1  0  0  0  0
 26 85  1  0  0  0  0
 27 86  1  0  0  0  0
 28 31  2  0  0  0  0
 28 85  1  0  0  0  0
 29 87  1  0  0  0  0
 30 88  1  0  0  0  0
 31 89  1  0  0  0  0
 32 66  2  0  0  0  0
 33 68  1  0  0  0  0
 33 71  1  0  0  0  0
 34 67  1  0  0  0  0
 34 77  2  0  0  0  0
 35 72  1  0  0  0  0
 35 79  2  0  0  0  0
 36 37  1  0  0  0  0
 36 55  1  0  0  0  0
 36 67  2  0  0  0  0
 37 74  1  0  0  0  0
 37 80  2  0  0  0  0
 38 52  1  0  0  0  0
 38 75  1  0  0  0  0
 38 81  2  0  0  0  0
 39 63  1  0  0  0  0
 39 69  1  0  0  0  0
 39 82  2  0  0  0  0
 40 64  1  0  0  0  0
 40 76  1  0  0  0  0
 40 83  2  0  0  0  0
 41 70  1  0  0  0  0
 41 73  1  0  0  0  0
 41 84  2  0  0  0  0
 42 45  1  0  0  0  0
 43 52  1  0  0  0  0
 44 69  1  0  0  0  0
 45 47  1  0  0  0  0
 46 48  1  0  0  0  0
 46 49  1  0  0  0  0
 47 51  1  0  0  0  0
 48 53  1  0  0  0  0
 49 70  1  0  0  0  0
 50 53  1  0  0  0  0
 50 70  1  0  0  0  0
 51 75  1  0  0  0  0
 52 69  1  0  0  0  0
 53 68  1  0  0  0  0
 56 64  1  0  0  0  0
 57 65  1  0  0  0  0
 58 65  1  0  0  0  0
 59 65  1  0  0  0  0
 60 78  1  0  0  0  0
 61 62  1  0  0  0  0
 61 74  1  0  0  0  0
 62 86  1  0  0  0  0
 63 65  1  0  0  0  0
 63 76  1  0  0  0  0
 64 78  1  0  0  0  0
 66 68  1  0  0  0  0
M  CHG  2  77   1  78   1
M  ISO  4  41 100  62 101  73 100  86 101
M  END
> <Batch ID>
0050

> <Smiles>
CNC(C)C(=O)NC(C(=O)N1Cc2cc([101O:1][101CH2:1]CNC(=O)C(C)=NC(=N)c3cc(F)cc([100NH:0][100C:0](=O)N4CCCC(n5nc(-c6ccc(Oc7ccc(F)cc7F)cc6)c(C(N)=O)c5N)C4)c3C)ccc2CC1C(=O)NC1CCCc2ccccc21)C(C)(C)C

> <Shape>
0.180

> <Color>
0.080

> <Negative vol penalty>
0.000

$$$$

  -OEChem-04042322353D

 88 96  0     1  0  0  0  0  0999 V2000
  -21.0302  -21.6106   31.6714 C   0  0  0  0  0  0  0  0  0  0  0  0
  -22.0170  -21.5444   30.6931 C   0  0  0  0  0  0  0  0  0  0  0  0
  -23.0749   -9.8934   19.9260 C   0  0  0  0  0  0  0  0  0  0  0  0
  -23.8549   -9.8628   22.2124 C   0  0  0  0  0  0  0  0  0  0  0  0
  -19.7552  -22.0702   31.3439 C   0  0  0  0  0  0  0  0  0  0  0  0
  -21.7292  -21.9367   29.3863 C   0  0  0  0  0  0  0  0  0  0  0  0
  -25.3648  -24.8374   27.3831 C   0  0  0  0  0  0  0  0  0  0  0  0
  -29.6507  -19.2922   22.4802 C   0  0  0  0  0  0  0  0  0  0  0  0
  -29.4896  -17.9071   22.4474 C   0  0  0  0  0  0  0  0  0  0  0  0
  -22.3405   -8.7311   20.1609 C   0  0  0  0  0  0  0  0  0  0  0  0
  -23.1205   -8.7004   22.4474 C   0  0  0  0  0  0  0  0  0  0  0  0
  -26.5150  -24.1937   26.9288 C   0  0  0  0  0  0  0  0  0  0  0  0
  -19.9028   -7.8709   23.0630 C   0  0  0  0  0  0  0  0  0  0  0  0
  -19.1565   -7.8044   24.2394 C   0  0  0  0  0  0  0  0  0  0  0  0
  -25.6837  -24.3172   24.6676 C   0  0  0  0  0  0  0  0  0  0  0  0
  -31.1076  -17.7612   20.6591 C   0  0  0  0  0  0  0  0  0  0  0  0
  -20.4164   -5.8616   24.9289 C   0  0  0  0  0  0  0  0  0  0  0  0
  -23.8322  -10.4593   20.9517 C   0  0  0  0  0  0  0  0  0  0  0  0
  -24.1571  -12.9884   20.8757 C   0  0  0  0  0  0  0  0  0  0  0  0
  -19.4543  -22.4774   30.0346 C   0  0  0  0  0  0  0  0  0  0  0  0
  -24.3588  -25.2168   26.4829 C   0  0  0  0  0  0  0  0  0  0  0  0
  -20.4486  -22.4009   29.0407 C   0  0  0  0  0  0  0  0  0  0  0  0
  -24.5229  -24.9680   25.1127 C   0  0  0  0  0  0  0  0  0  0  0  0
  -30.5401  -19.9119   21.6023 C   0  0  0  0  0  0  0  0  0  0  0  0
  -31.2686  -19.1464   20.6918 C   0  0  0  0  0  0  0  0  0  0  0  0
  -30.2181  -17.1416   21.5369 C   0  0  0  0  0  0  0  0  0  0  0  0
  -22.3633   -8.1346   21.4216 C   0  0  0  0  0  0  0  0  0  0  0  0
  -26.6733  -23.9309   25.5712 C   0  0  0  0  0  0  0  0  0  0  0  0
  -20.9059   -6.9327   22.8194 C   0  0  0  0  0  0  0  0  0  0  0  0
  -19.4133   -6.7998   25.1724 C   0  0  0  0  0  0  0  0  0  0  0  0
  -21.1627   -5.9281   23.7524 C   0  0  0  0  0  0  0  0  0  0  0  0
  -24.5915  -11.6596   20.7095 C   0  0  0  0  0  0  0  0  0  0  0  0
  -25.2413  -13.7514   20.5170 C   0  0  0  0  0  0  0  0  0  0  0  0
  -27.9872  -24.7763   20.4854 C   0  0  0  0  0  0  0  0  0  0  0  0
  -28.8557  -23.7588   20.4867 C   0  0  0  0  0  0  0  0  0  0  0  0
  -22.8872  -13.4881   21.3152 C   0  0  0  0  0  0  0  0  0  0  0  0
  -21.2963  -24.4604   26.0923 C   0  0  0  0  0  0  0  0  0  0  0  0
  -21.4111  -26.7905   23.8386 C   0  0  0  0  0  0  0  0  0  0  0  0
  -29.1990  -22.3664   23.4125 C   0  0  0  0  0  0  0  0  0  0  0  0
  -23.2940  -28.6305   21.6669 C   0  0  0  0  0  0  0  0  0  0  0  0
  -30.7022  -14.8287   20.6636 C   0  0  0  0  0  0  0  0  0  0  0  0
  -18.0485  -22.9224   29.7178 C   0  0  0  0  0  0  0  0  0  0  0  0
  -23.1362  -25.9343   26.9857 C   0  0  0  0  0  0  0  0  0  0  0  0
  -23.4816  -25.3732   24.1029 C   0  0  0  0  0  0  0  0  0  0  0  0
  -17.9310  -23.6727   28.3936 C   0  0  0  0  0  0  0  0  0  0  0  0
  -29.5821  -12.4521   18.2606 C   0  0  0  0  0  0  0  0  0  0  0  0
  -18.6862  -22.9346   27.2929 C   0  0  0  0  0  0  0  0  0  0  0  0
  -28.1482  -12.1434   18.6972 C   0  0  0  0  0  0  0  0  0  0  0  0
  -30.5063  -12.6645   19.4583 C   0  0  0  0  0  0  0  0  0  0  0  0
  -28.6071  -13.3510   20.8693 C   0  0  0  0  0  0  0  0  0  0  0  0
  -20.1820  -22.8408   27.6175 C   0  0  1  0  0  0  0  0  0  0  0  0
  -21.9433  -25.8155   26.0421 C   0  0  1  0  0  0  0  0  0  0  0  0
  -27.6250  -13.1933   19.6970 C   0  0  2  0  0  0  0  0  0  0  0  0
  -23.1015  -30.4322   19.9308 C   0  0  0  0  0  0  0  0  0  0  0  0
  -20.2757  -24.7617   21.8625 C   0  0  0  0  0  0  0  0  0  0  0  0
  -20.9897  -26.2780   20.0026 C   0  0  0  0  0  0  0  0  0  0  0  0
  -19.3074  -27.0596   21.6705 C   0  0  0  0  0  0  0  0  0  0  0  0
  -25.0546  -30.4530   23.1959 C   0  0  0  0  0  0  0  0  0  0  0  0
  -30.6958  -21.4042   21.6558 C   0  0  0  0  0  0  0  0  0  0  0  0
  -28.5371  -22.3923   20.9987 C   0  0  0  0  0  0  0  0  0  0  0  0
  -27.8913  -23.0644   23.7214 C   0  0  0  0  0  0  0  0  0  1  0  0
  -32.2281  -19.7878   19.7439 C   0  0  0  0  0  0  0  0  0  0  0  0
  -21.7286  -26.8364   22.3634 C   0  0  1  0  0  0  0  0  0  0  0  0
  -23.3515  -30.1235   21.3987 C   0  0  2  0  0  0  0  0  0  0  0  0
  -20.5943  -26.2244   21.4938 C   0  0  0  0  0  0  0  0  0  0  0  0
  -25.8532  -11.5797   20.2785 N   0  0  0  0  0  0  0  0  0  0  0  0
  -26.2209  -12.8678   20.1708 N   0  0  0  0  0  0  0  0  0  0  0  0
  -22.3010  -26.0664   24.6445 N   0  0  0  0  0  0  0  0  0  0  0  0
  -29.9486  -13.6753   20.3596 N   0  0  0  0  0  0  0  0  0  0  0  0
  -25.4427  -15.0854   20.4669 N   0  0  0  0  0  0  0  0  0  0  0  0
  -21.8840  -12.5664   21.6442 N   0  0  0  0  0  0  0  0  0  0  0  0
  -30.0563  -15.7343   21.5047 N   0  0  0  0  0  0  0  0  0  0  0  0
  -20.8381  -24.1018   27.3457 N   0  0  0  0  0  0  0  0  0  0  0  0
  -22.0330  -28.2293   22.0545 N   0  0  0  0  0  0  0  0  0  0  0  0
  -29.4672  -22.0661   22.0767 N   0  0  0  0  0  0  0  0  0  0  0  0
  -24.6886  -30.6657   21.7719 N   0  3  0  0  0  0  0  0  0  0  0  0
  -22.6437  -14.7159   21.3974 O   0  0  0  0  0  0  0  0  0  0  0  0
  -21.2172  -23.7903   25.0693 O   0  0  0  0  0  0  0  0  0  0  0  0
  -20.4144  -27.3816   24.2613 O   0  0  0  0  0  0  0  0  0  0  0  0
  -29.9653  -22.1030   24.3443 O   0  0  0  0  0  0  0  0  0  0  0  0
  -24.2693  -27.8931   21.5412 O   0  0  0  0  0  0  0  0  0  0  0  0
  -31.8260  -15.0133   20.1894 O   0  0  0  0  0  0  0  0  0  0  0  0
  -21.6466   -7.0005   21.6513 O   0  0  0  0  0  0  0  0  0  0  0  0
  -27.7947  -23.3021   25.1252 O   0  0  0  0  0  0  0  0  0  1  0  0
  -18.6975   -6.7370   26.3029 F   0  0  0  0  0  0  0  0  0  0  0  0
  -22.1260   -5.0247   23.5245 F   0  0  0  0  0  0  0  0  0  0  0  0
  -32.8397  -18.8528   18.9716 F   0  0  0  0  0  0  0  0  0  0  0  0
  -33.2123  -20.4348   20.4203 F   0  0  0  0  0  0  0  0  0  0  0  0
  1  2  1  0  0  0  0
  1  5  2  0  0  0  0
  2  6  2  0  0  0  0
  3 10  2  0  0  0  0
  3 18  1  0  0  0  0
  4 11  1  0  0  0  0
  4 18  2  0  0  0  0
  5 20  1  0  0  0  0
  6 22  1  0  0  0  0
  7 12  2  0  0  0  0
  7 21  1  0  0  0  0
  8  9  2  0  0  0  0
  8 24  1  0  0  0  0
  9 26  1  0  0  0  0
 10 27  1  0  0  0  0
 11 27  2  0  0  0  0
 12 28  1  0  0  0  0
 13 14  2  0  0  0  0
 13 29  1  0  0  0  0
 14 30  1  0  0  0  0
 15 23  1  0  0  0  0
 15 28  2  0  0  0  0
 16 25  1  0  0  0  0
 16 26  2  0  0  0  0
 17 30  2  0  0  0  0
 17 31  1  0  0  0  0
 18 32  1  0  0  0  0
 19 32  1  0  0  0  0
 19 33  2  0  0  0  0
 19 36  1  0  0  0  0
 20 22  2  0  0  0  0
 20 42  1  0  0  0  0
 21 23  2  0  0  0  0
 21 43  1  0  0  0  0
 22 51  1  0  0  0  0
 23 44  1  0  0  0  0
 24 25  2  0  0  0  0
 24 59  1  0  0  0  0
 25 62  1  0  0  0  0
 26 72  1  0  0  0  0
 27 83  1  0  0  0  0
 28 84  1  0  0  0  0
 29 31  2  0  0  0  0
 29 83  1  0  0  0  0
 30 85  1  0  0  0  0
 31 86  1  0  0  0  0
 32 66  2  0  0  0  0
 33 67  1  0  0  0  0
 33 70  1  0  0  0  0
 34 35  2  0  0  0  0
 35 60  1  0  0  0  0
 36 71  1  0  0  0  0
 36 77  2  0  0  0  0
 37 52  1  0  0  0  0
 37 73  1  0  0  0  0
 37 78  2  0  0  0  0
 38 63  1  0  0  0  0
 38 68  1  0  0  0  0
 38 79  2  0  0  0  0
 39 61  1  0  0  0  0
 39 75  1  0  0  0  0
 39 80  2  0  0  0  0
 40 64  1  0  0  0  0
 40 74  1  0  0  0  0
 40 81  2  0  0  0  0
 41 69  1  0  0  0  0
 41 72  1  0  0  0  0
 41 82  2  0  0  0  0
 42 45  1  0  0  0  0
 43 52  1  0  0  0  0
 44 68  1  0  0  0  0
 45 47  1  0  0  0  0
 46 48  1  0  0  0  0
 46 49  1  0  0  0  0
 47 51  1  0  0  0  0
 48 53  1  0  0  0  0
 49 69  1  0  0  0  0
 50 53  1  0  0  0  0
 50 69  1  0  0  0  0
 51 73  1  0  0  0  0
 52 68  1  0  0  0  0
 53 67  1  0  0  0  0
 54 64  1  0  0  0  0
 55 65  1  0  0  0  0
 56 65  1  0  0  0  0
 57 65  1  0  0  0  0
 58 76  1  0  0  0  0
 59 75  1  0  0  0  0
 60 75  1  0  0  0  0
 61 84  1  0  0  0  0
 62 87  1  0  0  0  0
 62 88  1  0  0  0  0
 63 65  1  0  0  0  0
 63 74  1  0  0  0  0
 64 76  1  0  0  0  0
 66 67  1  0  0  0  0
M  CHG  1  76   1
M  ISO  4  41 100  61 101  72 100  84 101
M  END
> <Batch ID>
0050

> <Smiles>
C=CCN(Cc1ccc([100NH:0][100C:0](=O)N2CCCC(n3nc(-c4ccc(Oc5ccc(F)cc5F)cc4)c(C(N)=O)c3N)C2)cc1C(F)F)C(=O)[101CH2:1][101O:1]c1ccc2c(c1)CN(C(=O)C(NC(=O)C(C)NC)C(C)(C)C)C(C(=O)NC1CCCc3ccccc31)C2

> <Shape>
0.269

> <Color>
0.196

> <Negative vol penalty>
0.000

$$$$

  -OEChem-04042322353D

 88 97  0     1  0  0  0  0  0999 V2000
  -17.4429  -26.8033   23.5767 C   0  0  0  0  0  0  0  0  0  0  0  0
  -18.5982  -26.0298   23.5276 C   0  0  0  0  0  0  0  0  0  0  0  0
  -24.5511  -14.4491   21.0743 C   0  0  0  0  0  0  0  0  0  0  0  0
  -26.6555  -13.9982   19.9765 C   0  0  0  0  0  0  0  0  0  0  0  0
  -17.4034  -28.0373   22.9289 C   0  0  0  0  0  0  0  0  0  0  0  0
  -19.7144  -26.4895   22.8296 C   0  0  0  0  0  0  0  0  0  0  0  0
  -26.8733  -26.2905   22.9944 C   0  0  0  0  0  0  0  0  0  0  0  0
  -24.0688  -13.2078   20.6596 C   0  0  0  0  0  0  0  0  0  0  0  0
  -26.1732  -12.7568   19.5618 C   0  0  0  0  0  0  0  0  0  0  0  0
  -27.9614  -25.9852   22.1779 C   0  0  0  0  0  0  0  0  0  0  0  0
  -24.3799   -9.9743   21.5982 C   0  0  0  0  0  0  0  0  0  0  0  0
  -23.7016   -9.1961   22.5362 C   0  0  0  0  0  0  0  0  0  0  0  0
  -27.8050  -28.1682   21.1633 C   0  0  0  0  0  0  0  0  0  0  0  0
  -31.6874  -23.3430   19.4158 C   0  0  0  0  0  0  0  0  0  0  0  0
  -33.5384  -22.3874   21.2715 C   0  0  0  0  0  0  0  0  0  0  0  0
  -21.7325   -9.2255   21.1366 C   0  0  0  0  0  0  0  0  0  0  0  0
  -25.8445  -14.8444   20.7327 C   0  0  0  0  0  0  0  0  0  0  0  0
  -27.0288  -16.4169   22.3551 C   0  0  0  0  0  0  0  0  0  0  0  0
  -18.5230  -28.5166   22.2308 C   0  0  0  0  0  0  0  0  0  0  0  0
  -26.2350  -27.5351   22.8937 C   0  0  0  0  0  0  0  0  0  0  0  0
  -19.6895  -27.7304   22.1708 C   0  0  0  0  0  0  0  0  0  0  0  0
  -26.7106  -28.4878   21.9814 C   0  0  0  0  0  0  0  0  0  0  0  0
  -32.9932  -23.8333   19.4142 C   0  0  0  0  0  0  0  0  0  0  0  0
  -32.2325  -21.8972   21.2731 C   0  0  0  0  0  0  0  0  0  0  0  0
  -31.3070  -22.3750   20.3453 C   0  0  0  0  0  0  0  0  0  0  0  0
  -24.8798  -12.3616   19.9034 C   0  0  0  0  0  0  0  0  0  0  0  0
  -28.4256  -26.9230   21.2602 C   0  0  0  0  0  0  0  0  0  0  0  0
  -23.7345  -10.3782   20.4294 C   0  0  0  0  0  0  0  0  0  0  0  0
  -22.3779   -8.8217   22.3054 C   0  0  0  0  0  0  0  0  0  0  0  0
  -22.4108  -10.0038   20.1986 C   0  0  0  0  0  0  0  0  0  0  0  0
  -33.9187  -23.3555   20.3420 C   0  0  0  0  0  0  0  0  0  0  0  0
  -26.3431  -16.1268   21.1603 C   0  0  0  0  0  0  0  0  0  0  0  0
  -27.2829  -17.7649   22.2865 C   0  0  0  0  0  0  0  0  0  0  0  0
  -33.8706  -27.2062   17.9755 C   0  0  0  0  0  0  0  0  0  0  0  0
  -35.1445  -27.6266   17.9696 C   0  0  0  0  0  0  0  0  0  0  0  0
  -27.4028  -15.5457   23.4307 C   0  0  0  0  0  0  0  0  0  0  0  0
  -23.3038  -28.4972   22.1281 C   0  0  0  0  0  0  0  0  0  0  0  0
  -24.4530  -31.4045   22.9937 C   0  0  0  0  0  0  0  0  0  0  0  0
  -27.1592  -33.4375   23.4295 C   0  0  0  0  0  0  0  0  0  0  0  0
  -28.9469  -22.2709   19.4704 C   0  0  0  0  0  0  0  0  0  0  0  0
  -18.4170  -29.8353   21.5065 C   0  0  0  0  0  0  0  0  0  0  0  0
  -25.0793  -27.8590   23.8003 C   0  0  0  0  0  0  0  0  0  0  0  0
  -26.0731  -29.8459   21.8485 C   0  0  0  0  0  0  0  0  0  0  0  0
  -32.8371  -27.7078   17.0057 C   0  0  0  0  0  0  0  0  0  0  0  0
  -19.7686  -30.4190   21.1031 C   0  0  0  0  0  0  0  0  0  0  0  0
  -31.5898  -28.1743   17.7504 C   0  0  0  0  0  0  0  0  0  0  0  0
  -25.5465  -21.2857   19.0910 C   0  0  0  0  0  0  0  0  0  0  0  0
  -20.6429  -29.3467   20.4607 C   0  0  0  0  0  0  0  0  0  0  0  0
  -25.5071  -19.8796   19.6938 C   0  0  0  0  0  0  0  0  0  0  0  0
  -26.8536  -21.5462   18.3444 C   0  0  0  0  0  0  0  0  0  0  0  0
  -28.0342  -19.8794   19.7218 C   0  0  0  0  0  0  0  0  0  0  0  0
  -32.2470  -26.7315   19.7172 C   0  0  0  0  0  0  0  0  0  0  0  0
  -20.9291  -28.2059   21.4446 C   0  0  1  0  0  0  0  0  0  0  0  0
  -24.1826  -28.9654   23.2533 C   0  0  1  0  0  0  0  0  0  0  0  0
  -31.1141  -27.1180   18.7573 C   0  0  1  0  0  0  0  0  0  0  0  0
  -26.7637  -19.5933   20.5390 C   0  0  2  0  0  0  0  0  0  0  0  0
  -31.8527  -20.8606   22.2804 C   0  0  0  0  0  0  0  0  0  0  0  0
  -27.7801  -35.7718   24.1098 C   0  0  0  0  0  0  0  0  0  0  0  0
  -23.5294  -32.4396   20.2761 C   0  0  0  0  0  0  0  0  0  0  0  0
  -24.9867  -34.4456   20.6228 C   0  0  0  0  0  0  0  0  0  0  0  0
  -23.0964  -33.9942   22.1866 C   0  0  0  0  0  0  0  0  0  0  0  0
  -28.7547  -32.4681   25.7259 C   0  0  0  0  0  0  0  0  0  0  0  0
  -33.3627  -24.8742   18.3988 C   0  0  0  0  0  0  0  0  0  0  0  0
  -29.9099  -27.6348   19.5438 C   0  0  0  0  0  0  0  0  0  1  0  0
  -25.1570  -32.5321   22.2782 C   0  0  1  0  0  0  0  0  0  0  0  0
  -27.5651  -34.3415   24.5795 C   0  0  2  0  0  0  0  0  0  0  0  0
  -24.2034  -33.3266   21.3418 C   0  0  0  0  0  0  0  0  0  0  0  0
  -26.1723  -17.2039   20.3892 N   0  0  0  0  0  0  0  0  0  0  0  0
  -26.7542  -18.1841   21.1012 N   0  0  0  0  0  0  0  0  0  0  0  0
  -24.9423  -30.1128   22.7526 N   0  0  0  0  0  0  0  0  0  0  0  0
  -28.0004  -21.2579   19.2085 N   0  0  0  0  0  0  0  0  0  0  0  0
  -27.9046  -18.6208   23.1251 N   0  0  0  0  0  0  0  0  0  0  0  0
  -27.0639  -14.1888   23.3401 N   0  0  0  0  0  0  0  0  0  0  0  0
  -29.9757  -21.8901   20.3313 N   0  0  0  0  0  0  0  0  0  0  0  0
  -21.9510  -28.5991   22.3910 N   0  0  0  0  0  0  0  0  0  0  0  0
  -25.7885  -33.3419   23.3144 N   0  0  0  0  0  0  0  0  0  0  0  0
  -33.4813  -26.2537   18.9854 N   0  3  1  0  0  0  0  0  0  0  0  0
  -28.8303  -33.8551   25.1990 N   0  3  0  0  0  0  0  0  0  0  0  0
  -28.0047  -15.9615   24.4497 O   0  0  0  0  0  0  0  0  0  0  0  0
  -23.8151  -28.0760   21.0971 O   0  0  0  0  0  0  0  0  0  0  0  0
  -23.5085  -31.6610   23.7445 O   0  0  0  0  0  0  0  0  0  0  0  0
  -27.9763  -32.8757   22.7034 O   0  0  0  0  0  0  0  0  0  0  0  0
  -28.8371  -23.4017   18.9896 O   0  0  0  0  0  0  0  0  0  0  0  0
  -24.4095  -11.1501   19.4987 O   0  0  0  0  0  0  0  0  0  0  0  0
  -29.4870  -26.6272   20.4616 O   0  0  0  0  0  0  0  0  0  1  0  0
  -21.7272   -8.0731   23.2056 F   0  0  0  0  0  0  0  0  0  0  0  0
  -21.7858  -10.3877   19.0771 F   0  0  0  0  0  0  0  0  0  0  0  0
  -35.5430  -23.9392   20.3701 Cl  0  0  0  0  0  0  0  0  0  0  0  0
  1  2  1  0  0  0  0
  1  5  2  0  0  0  0
  2  6  2  0  0  0  0
  3  8  2  0  0  0  0
  3 17  1  0  0  0  0
  4  9  1  0  0  0  0
  4 17  2  0  0  0  0
  5 19  1  0  0  0  0
  6 21  1  0  0  0  0
  7 10  2  0  0  0  0
  7 20  1  0  0  0  0
  8 26  1  0  0  0  0
  9 26  2  0  0  0  0
 10 27  1  0  0  0  0
 11 12  2  0  0  0  0
 11 28  1  0  0  0  0
 12 29  1  0  0  0  0
 13 22  1  0  0  0  0
 13 27  2  0  0  0  0
 14 23  1  0  0  0  0
 14 25  2  0  0  0  0
 15 24  2  0  0  0  0
 15 31  1  0  0  0  0
 16 29  2  0  0  0  0
 16 30  1  0  0  0  0
 17 32  1  0  0  0  0
 18 32  1  0  0  0  0
 18 33  2  0  0  0  0
 18 36  1  0  0  0  0
 19 21  2  0  0  0  0
 19 41  1  0  0  0  0
 20 22  2  0  0  0  0
 20 42  1  0  0  0  0
 21 53  1  0  0  0  0
 22 43  1  0  0  0  0
 23 31  2  0  0  0  0
 23 63  1  0  0  0  0
 24 25  1  0  0  0  0
 24 57  1  0  0  0  0
 25 74  1  0  0  0  0
 26 84  1  0  0  0  0
 27 85  1  0  0  0  0
 28 30  2  0  0  0  0
 28 84  1  0  0  0  0
 29 86  1  0  0  0  0
 30 87  1  0  0  0  0
 31 88  1  0  0  0  0
 32 68  2  0  0  0  0
 33 69  1  0  0  0  0
 33 72  1  0  0  0  0
 34 35  2  0  0  0  0
 34 44  1  0  0  0  0
 34 77  1  0  0  0  0
 36 73  1  0  0  0  0
 36 79  2  0  0  0  0
 37 54  1  0  0  0  0
 37 75  1  0  0  0  0
 37 80  2  0  0  0  0
 38 65  1  0  0  0  0
 38 70  1  0  0  0  0
 38 81  2  0  0  0  0
 39 66  1  0  0  0  0
 39 76  1  0  0  0  0
 39 82  2  0  0  0  0
 40 71  1  0  0  0  0
 40 74  1  0  0  0  0
 40 83  2  0  0  0  0
 41 45  1  0  0  0  0
 42 54  1  0  0  0  0
 43 70  1  0  0  0  0
 44 46  1  0  0  0  0
 45 48  1  0  0  0  0
 46 55  1  0  0  0  0
 47 49  1  0  0  0  0
 47 50  1  0  0  0  0
 48 53  1  0  0  0  0
 49 56  1  0  0  0  0
 50 71  1  0  0  0  0
 51 56  1  0  0  0  0
 51 71  1  0  0  0  0
 52 55  1  0  0  0  0
 52 77  1  0  0  0  0
 53 75  1  0  0  0  0
 54 70  1  0  0  0  0
 55 64  1  0  0  0  0
 56 69  1  0  0  0  0
 58 66  1  0  0  0  0
 59 67  1  0  0  0  0
 60 67  1  0  0  0  0
 61 67  1  0  0  0  0
 62 78  1  0  0  0  0
 63 77  1  0  0  0  0
 64 85  1  0  0  0  0
 65 67  1  0  0  0  0
 65 76  1  0  0  0  0
 66 78  1  0  0  0  0
 68 69  1  0  0  0  0
M  CHG  2  77   1  78   1
M  ISO  4  40 100  64 101  74 100  85 101
M  END
> <Batch ID>
0050

> <Smiles>
C=C1CCC([101CH2:1][101O:1]c2ccc3c(c2)CN(C(=O)C(NC(=O)C(C)NC)C(C)(C)C)C(C(=O)NC2CCCc4ccccc42)C3)CN1Cc1cc([100NH:0][100C:0](=O)N2CCCC(n3nc(-c4ccc(Oc5ccc(F)cc5F)cc4)c(C(N)=O)c3N)C2)c(C)cc1Cl

> <Shape>
0.263

> <Color>
0.082

> <Negative vol penalty>
0.000

$$$$

  -OEChem-04042322353D

 84 92  0     1  0  0  0  0  0999 V2000
  -28.7165  -20.6234   29.6423 C   0  0  0  0  0  0  0  0  0  0  0  0
  -28.2684  -21.8707   29.2195 C   0  0  0  0  0  0  0  0  0  0  0  0
  -29.6172  -17.4996   19.3253 C   0  0  0  0  0  0  0  0  0  0  0  0
  -27.9479  -18.1460   20.9479 C   0  0  0  0  0  0  0  0  0  0  0  0
  -28.7026  -19.5433   28.7608 C   0  0  0  0  0  0  0  0  0  0  0  0
  -27.8072  -22.0389   27.9143 C   0  0  0  0  0  0  0  0  0  0  0  0
  -23.2912  -25.7332   26.0530 C   0  0  0  0  0  0  0  0  0  0  0  0
  -24.9650  -28.5267   19.4449 C   0  0  0  0  0  0  0  0  0  0  0  0
  -25.9110  -27.5185   19.2600 C   0  0  0  0  0  0  0  0  0  0  0  0
  -29.6610  -16.2205   19.8798 C   0  0  0  0  0  0  0  0  0  0  0  0
  -27.9917  -16.8668   21.5024 C   0  0  0  0  0  0  0  0  0  0  0  0
  -23.2950  -27.0048   25.4816 C   0  0  0  0  0  0  0  0  0  0  0  0
  -27.8102  -13.3929   19.7693 C   0  0  0  0  0  0  0  0  0  0  0  0
  -27.8011  -12.3065   18.8946 C   0  0  0  0  0  0  0  0  0  0  0  0
  -23.1421  -26.0130   23.2879 C   0  0  0  0  0  0  0  0  0  0  0  0
  -27.4997  -28.7661   20.5854 C   0  0  0  0  0  0  0  0  0  0  0  0
  -29.9380  -11.5887   19.7638 C   0  0  0  0  0  0  0  0  0  0  0  0
  -28.7607  -18.4624   19.8593 C   0  0  0  0  0  0  0  0  0  0  0  0
  -27.8784  -20.2323   18.2479 C   0  0  0  0  0  0  0  0  0  0  0  0
  -28.2319  -19.6961   27.4471 C   0  0  0  0  0  0  0  0  0  0  0  0
  -23.2237  -24.5896   25.2442 C   0  0  0  0  0  0  0  0  0  0  0  0
  -27.7882  -20.9602   27.0139 C   0  0  0  0  0  0  0  0  0  0  0  0
  -23.1350  -24.7280   23.8517 C   0  0  0  0  0  0  0  0  0  0  0  0
  -25.2864  -29.6547   20.2000 C   0  0  0  0  0  0  0  0  0  0  0  0
  -26.5537  -29.7743   20.7702 C   0  0  0  0  0  0  0  0  0  0  0  0
  -27.1783  -27.6382   19.8302 C   0  0  0  0  0  0  0  0  0  0  0  0
  -28.8482  -15.9041   20.9684 C   0  0  0  0  0  0  0  0  0  0  0  0
  -23.2233  -27.1448   24.0987 C   0  0  0  0  0  0  0  0  0  0  0  0
  -28.8833  -13.5773   20.6412 C   0  0  0  0  0  0  0  0  0  0  0  0
  -28.8649  -11.4043   18.8918 C   0  0  0  0  0  0  0  0  0  0  0  0
  -29.9471  -12.6751   20.6385 C   0  0  0  0  0  0  0  0  0  0  0  0
  -28.7154  -19.7841   19.2873 C   0  0  0  0  0  0  0  0  0  0  0  0
  -28.2207  -21.5513   18.0760 C   0  0  0  0  0  0  0  0  0  0  0  0
  -23.2268  -30.3262   21.4094 C   0  0  0  0  0  0  0  0  0  0  0  0
  -26.8805  -19.5201   17.5044 C   0  0  0  0  0  0  0  0  0  0  0  0
  -25.1277  -22.0995   24.7169 C   0  0  0  0  0  0  0  0  0  0  0  0
  -22.6143  -21.0459   22.9576 C   0  0  0  0  0  0  0  0  0  0  0  0
  -19.8000  -21.8040   21.1823 C   0  0  0  0  0  0  0  0  0  0  0  0
  -29.4413  -26.5759   20.1414 C   0  0  0  0  0  0  0  0  0  0  0  0
  -28.2803  -18.5105   26.5162 C   0  0  0  0  0  0  0  0  0  0  0  0
  -23.1936  -23.2256   25.8776 C   0  0  0  0  0  0  0  0  0  0  0  0
  -23.0404  -23.5326   22.9404 C   0  0  0  0  0  0  0  0  0  0  0  0
  -27.4257  -18.6845   25.2633 C   0  0  0  0  0  0  0  0  0  0  0  0
  -32.1004  -24.2170   19.9371 C   0  0  0  0  0  0  0  0  0  0  0  0
  -27.6598  -20.0587   24.6440 C   0  0  0  0  0  0  0  0  0  0  0  0
  -31.3879  -22.8903   19.6643 C   0  0  0  0  0  0  0  0  0  0  0  0
  -31.3002  -25.1054   20.8879 C   0  0  0  0  0  0  0  0  0  0  0  0
  -29.1943  -24.0168   20.2174 C   0  0  0  0  0  0  0  0  0  0  0  0
  -27.2573  -21.1766   25.6134 C   0  0  1  0  0  0  0  0  0  0  0  0
  -23.6404  -22.1168   24.9299 C   0  0  1  0  0  0  0  0  0  0  0  0
  -29.9312  -23.1151   19.2137 C   0  0  2  0  0  0  0  0  0  0  0  0
  -26.9194  -30.9719   21.5842 C   0  0  0  0  0  0  0  0  0  0  0  0
  -17.9772  -20.7351   19.8287 C   0  0  0  0  0  0  0  0  0  0  0  0
  -21.4214  -31.6300   24.1307 C   0  0  0  0  0  0  0  0  0  0  0  0
  -24.5524  -20.6987   20.6267 C   0  0  0  0  0  0  0  0  0  0  0  0
  -22.5765  -20.5591   19.0955 C   0  0  0  0  0  0  0  0  0  0  0  0
  -22.8889  -18.8492   20.8846 C   0  0  0  0  0  0  0  0  0  0  0  0
  -17.7014  -22.7659   23.0343 C   0  0  0  0  0  0  0  0  0  0  0  0
  -24.2497  -30.7292   20.3847 C   0  0  0  0  0  0  0  0  0  0  0  0
  -22.6628  -29.4467   24.3064 C   0  0  0  0  0  0  0  0  0  1  0  0
  -22.1803  -21.1917   21.5191 C   0  0  1  0  0  0  0  0  0  0  0  0
  -18.4024  -21.2119   21.2087 C   0  0  2  0  0  0  0  0  0  0  0  0
  -22.0384  -30.4696   23.3642 C   0  0  2  0  0  0  0  0  0  0  0  0
  -23.0532  -20.3473   20.5482 C   0  0  0  0  0  0  0  0  0  0  0  0
  -29.5284  -20.7406   19.7434 N   0  0  0  0  0  0  0  0  0  0  0  0
  -23.0885  -31.0080   22.4893 N   0  0  0  0  0  0  0  0  0  0  0  0
  -29.2039  -21.8030   18.9871 N   0  0  0  0  0  0  0  0  0  0  0  0
  -23.0208  -22.2201   23.6071 N   0  0  0  0  0  0  0  0  0  0  0  0
  -29.9320  -25.2775   20.3946 N   0  0  0  0  0  0  0  0  0  0  0  0
  -27.7737  -22.5087   17.2358 N   0  0  0  0  0  0  0  0  0  0  0  0
  -26.6560  -18.1708   17.8098 N   0  0  0  0  0  0  0  0  0  0  0  0
  -28.1390  -26.6133   19.6443 N   0  0  0  0  0  0  0  0  0  0  0  0
  -25.8187  -21.3326   25.6356 N   0  0  0  0  0  0  0  0  0  0  0  0
  -20.7597  -20.8616   21.4858 N   0  0  0  0  0  0  0  0  0  0  0  0
  -17.4184  -22.2276   21.6788 N   0  3  0  0  0  0  0  0  0  0  0  0
  -26.2194  -20.0597   16.5850 O   0  0  0  0  0  0  0  0  0  0  0  0
  -25.6123  -22.7337   23.7871 O   0  0  0  0  0  0  0  0  0  0  0  0
  -22.5866  -19.9324   23.4877 O   0  0  0  0  0  0  0  0  0  0  0  0
  -20.0188  -22.9835   20.9153 O   0  0  0  0  0  0  0  0  0  0  0  0
  -30.1355  -27.5792   20.3245 O   0  0  0  0  0  0  0  0  0  0  0  0
  -28.8905  -14.6560   21.5096 O   0  0  0  0  0  0  0  0  0  0  0  0
  -23.2275  -28.3849   23.5383 O   0  0  0  0  0  0  0  0  0  1  0  0
  -28.8553  -10.3602   18.0528 F   0  0  0  0  0  0  0  0  0  0  0  0
  -30.9802  -12.8464   21.4747 F   0  0  0  0  0  0  0  0  0  0  0  0
  1  2  1  0  0  0  0
  1  5  2  0  0  0  0
  2  6  2  0  0  0  0
  3 10  2  0  0  0  0
  3 18  1  0  0  0  0
  4 11  1  0  0  0  0
  4 18  2  0  0  0  0
  5 20  1  0  0  0  0
  6 22  1  0  0  0  0
  7 12  2  0  0  0  0
  7 21  1  0  0  0  0
  8  9  2  0  0  0  0
  8 24  1  0  0  0  0
  9 26  1  0  0  0  0
 10 27  1  0  0  0  0
 11 27  2  0  0  0  0
 12 28  1  0  0  0  0
 13 14  2  0  0  0  0
 13 29  1  0  0  0  0
 14 30  1  0  0  0  0
 15 23  1  0  0  0  0
 15 28  2  0  0  0  0
 16 25  1  0  0  0  0
 16 26  2  0  0  0  0
 17 30  2  0  0  0  0
 17 31  1  0  0  0  0
 18 32  1  0  0  0  0
 19 32  1  0  0  0  0
 19 33  2  0  0  0  0
 19 35  1  0  0  0  0
 20 22  2  0  0  0  0
 20 40  1  0  0  0  0
 21 23  2  0  0  0  0
 21 41  1  0  0  0  0
 22 49  1  0  0  0  0
 23 42  1  0  0  0  0
 24 25  2  0  0  0  0
 24 59  1  0  0  0  0
 25 52  1  0  0  0  0
 26 72  1  0  0  0  0
 27 81  1  0  0  0  0
 28 82  1  0  0  0  0
 29 31  2  0  0  0  0
 29 81  1  0  0  0  0
 30 83  1  0  0  0  0
 31 84  1  0  0  0  0
 32 65  2  0  0  0  0
 33 67  1  0  0  0  0
 33 70  1  0  0  0  0
 34 59  1  0  0  0  0
 34 66  2  0  0  0  0
 35 71  1  0  0  0  0
 35 76  2  0  0  0  0
 36 50  1  0  0  0  0
 36 73  1  0  0  0  0
 36 77  2  0  0  0  0
 37 61  1  0  0  0  0
 37 68  1  0  0  0  0
 37 78  2  0  0  0  0
 38 62  1  0  0  0  0
 38 74  1  0  0  0  0
 38 79  2  0  0  0  0
 39 69  1  0  0  0  0
 39 72  1  0  0  0  0
 39 80  2  0  0  0  0
 40 43  1  0  0  0  0
 41 50  1  0  0  0  0
 42 68  1  0  0  0  0
 43 45  1  0  0  0  0
 44 46  1  0  0  0  0
 44 47  1  0  0  0  0
 45 49  1  0  0  0  0
 46 51  1  0  0  0  0
 47 69  1  0  0  0  0
 48 51  1  0  0  0  0
 48 69  1  0  0  0  0
 49 73  1  0  0  0  0
 50 68  1  0  0  0  0
 51 67  1  0  0  0  0
 53 62  1  0  0  0  0
 54 63  1  0  0  0  0
 55 64  1  0  0  0  0
 56 64  1  0  0  0  0
 57 64  1  0  0  0  0
 58 75  1  0  0  0  0
 60 63  1  0  0  0  0
 60 82  1  0  0  0  0
 61 64  1  0  0  0  0
 61 74  1  0  0  0  0
 62 75  1  0  0  0  0
 63 66  1  0  0  0  0
 65 67  1  0  0  0  0
M  CHG  1  75   1
M  ISO  4  39 100  60 101  72 100  82 101
M  END
> <Batch ID>
0050

> <Smiles>
CNC(C)C(=O)NC(C(=O)N1Cc2cc([101O:1][101CH2:1]C(C)NC=Cc3ccc([100NH:0][100C:0](=O)N4CCCC(n5nc(-c6ccc(Oc7ccc(F)cc7F)cc6)c(C(N)=O)c5N)C4)cc3C)ccc2CC1C(=O)NC1CCCc2ccccc21)C(C)(C)C

> <Shape>
0.196

> <Color>
0.065

> <Negative vol penalty>
0.000

$$$$

  -OEChem-04042322353D

 87 96  0     1  0  0  0  0  0999 V2000
  -17.7809  -25.6217   22.5724 C   0  0  0  0  0  0  0  0  0  0  0  0
  -19.0968  -25.1849   22.4588 C   0  0  0  0  0  0  0  0  0  0  0  0
  -25.8938  -15.7648   22.1157 C   0  0  0  0  0  0  0  0  0  0  0  0
  -23.5919  -15.4533   21.4514 C   0  0  0  0  0  0  0  0  0  0  0  0
  -17.4546  -26.9387   22.2514 C   0  0  0  0  0  0  0  0  0  0  0  0
  -20.0872  -26.0645   22.0232 C   0  0  0  0  0  0  0  0  0  0  0  0
  -25.9330  -26.2196   23.8419 C   0  0  0  0  0  0  0  0  0  0  0  0
  -26.6244  -24.8887   16.3087 C   0  0  0  0  0  0  0  0  0  0  0  0
  -25.6739  -24.3921   17.2006 C   0  0  0  0  0  0  0  0  0  0  0  0
  -26.1946  -14.4749   21.6783 C   0  0  0  0  0  0  0  0  0  0  0  0
  -23.8927  -14.1634   21.0139 C   0  0  0  0  0  0  0  0  0  0  0  0
  -27.1039  -25.7122   23.2802 C   0  0  0  0  0  0  0  0  0  0  0  0
  -24.3766  -11.1146   22.3928 C   0  0  0  0  0  0  0  0  0  0  0  0
  -23.4984  -10.0897   22.7447 C   0  0  0  0  0  0  0  0  0  0  0  0
  -27.5480  -27.8617   22.2793 C   0  0  0  0  0  0  0  0  0  0  0  0
  -27.4297  -23.3469   18.4897 C   0  0  0  0  0  0  0  0  0  0  0  0
  -23.0959   -9.6319   20.4068 C   0  0  0  0  0  0  0  0  0  0  0  0
  -24.5924  -16.2540   22.0023 C   0  0  0  0  0  0  0  0  0  0  0  0
  -24.4238  -18.0963   23.7588 C   0  0  0  0  0  0  0  0  0  0  0  0
  -18.4432  -27.8376   21.8208 C   0  0  0  0  0  0  0  0  0  0  0  0
  -25.5546  -27.5510   23.6171 C   0  0  0  0  0  0  0  0  0  0  0  0
  -19.7736  -27.3944   21.6948 C   0  0  0  0  0  0  0  0  0  0  0  0
  -26.3732  -28.3842   22.8414 C   0  0  0  0  0  0  0  0  0  0  0  0
  -27.9776  -24.6144   16.5072 C   0  0  0  0  0  0  0  0  0  0  0  0
  -28.3802  -23.8435   17.5978 C   0  0  0  0  0  0  0  0  0  0  0  0
  -26.0766  -23.6212   18.2911 C   0  0  0  0  0  0  0  0  0  0  0  0
  -25.1941  -13.6743   21.1274 C   0  0  0  0  0  0  0  0  0  0  0  0
  -27.9101  -26.5325   22.4964 C   0  0  0  0  0  0  0  0  0  0  0  0
  -24.6145  -11.3983   21.0479 C   0  0  0  0  0  0  0  0  0  0  0  0
  -22.8581   -9.3483   21.7517 C   0  0  0  0  0  0  0  0  0  0  0  0
  -23.9742  -10.6569   20.0550 C   0  0  0  0  0  0  0  0  0  0  0  0
  -24.2810  -17.5862   22.4545 C   0  0  0  0  0  0  0  0  0  0  0  0
  -23.9959  -19.3982   23.6670 C   0  0  0  0  0  0  0  0  0  0  0  0
  -30.4743  -24.5119   20.0003 C   0  0  0  0  0  0  0  0  0  0  0  0
  -24.9007  -17.4510   24.9470 C   0  0  0  0  0  0  0  0  0  0  0  0
  -23.0691  -28.9745   22.2387 C   0  0  0  0  0  0  0  0  0  0  0  0
  -24.4830  -31.6676   23.3659 C   0  0  0  0  0  0  0  0  0  0  0  0
  -27.3367  -33.2240   24.4053 C   0  0  0  0  0  0  0  0  0  0  0  0
  -23.7297  -23.2988   19.1482 C   0  0  0  0  0  0  0  0  0  0  0  0
  -18.0343  -29.2385   21.4399 C   0  0  0  0  0  0  0  0  0  0  0  0
  -24.3024  -28.0906   24.2522 C   0  0  0  0  0  0  0  0  0  0  0  0
  -26.0220  -29.8265   22.5866 C   0  0  0  0  0  0  0  0  0  0  0  0
  -19.2073  -30.2106   21.3443 C   0  0  0  0  0  0  0  0  0  0  0  0
  -30.2993  -21.8481   21.2228 C   0  0  0  0  0  0  0  0  0  0  0  0
  -21.0151  -22.1931   21.1695 C   0  0  0  0  0  0  0  0  0  0  0  0
  -20.3542  -29.5874   20.5549 C   0  0  0  0  0  0  0  0  0  0  0  0
  -31.1624  -22.9161   21.8659 C   0  0  0  0  0  0  0  0  0  0  0  0
  -21.5596  -20.9361   21.8518 C   0  0  0  0  0  0  0  0  0  0  0  0
  -30.3223  -22.0136   19.7154 C   0  0  0  0  0  0  0  0  0  0  0  0
  -21.5205  -22.3233   19.7337 C   0  0  0  0  0  0  0  0  0  0  0  0
  -23.5234  -20.9895   20.2619 C   0  0  0  0  0  0  0  0  0  0  0  0
  -20.8803  -28.3255   21.2495 C   0  0  1  0  0  0  0  0  0  0  0  0
  -30.6689  -24.3114   21.4992 C   0  0  2  0  0  0  0  0  0  0  0  0
  -23.7491  -29.3175   23.5340 C   0  0  1  0  0  0  0  0  0  0  0  0
  -23.0937  -20.8492   21.7313 C   0  0  2  0  0  0  0  0  0  0  0  0
  -28.9767  -25.1563   15.5384 C   0  0  0  0  0  0  0  0  0  0  0  0
  -28.1851  -35.4371   25.2299 C   0  0  0  0  0  0  0  0  0  0  0  0
  -24.3637  -32.7698   20.5232 C   0  0  0  0  0  0  0  0  0  0  0  0
  -26.0322  -34.5087   21.2019 C   0  0  0  0  0  0  0  0  0  0  0  0
  -23.7983  -34.4267   22.3091 C   0  0  0  0  0  0  0  0  0  0  0  0
  -28.2045  -32.0613   26.9848 C   0  0  0  0  0  0  0  0  0  0  0  0
  -29.8311  -23.5372   17.8328 C   0  0  0  0  0  0  0  0  0  0  0  0
  -29.3656  -24.6731   22.2136 C   0  0  0  0  0  0  0  0  0  1  0  0
  -25.5081  -32.6398   22.8339 C   0  0  1  0  0  0  0  0  0  0  0  0
  -27.6315  -34.0771   25.6258 C   0  0  2  0  0  0  0  0  0  0  0  0
  -24.9315  -33.5586   21.7201 C   0  0  0  0  0  0  0  0  0  0  0  0
  -23.7998  -18.4902   21.5970 N   0  0  0  0  0  0  0  0  0  0  0  0
  -23.6364  -19.5815   22.3642 N   0  0  0  0  0  0  0  0  0  0  0  0
  -30.1340  -23.3870   19.2499 N   0  0  0  0  0  0  0  0  0  0  0  0
  -24.7844  -30.3057   23.2240 N   0  0  0  0  0  0  0  0  0  0  0  0
  -22.9820  -22.2361   19.6980 N   0  0  0  0  0  0  0  0  0  0  0  0
  -23.8957  -20.3926   24.5745 N   0  0  0  0  0  0  0  0  0  0  0  0
  -25.3005  -16.1103   24.8646 N   0  0  0  0  0  0  0  0  0  0  0  0
  -25.1115  -23.1182   19.1985 N   0  0  0  0  0  0  0  0  0  0  0  0
  -21.7254  -28.6802   22.3695 N   0  0  0  0  0  0  0  0  0  0  0  0
  -26.0282  -33.3588   23.9919 N   0  0  0  0  0  0  0  0  0  0  0  0
  -28.6292  -33.4005   26.5020 N   0  3  0  0  0  0  0  0  0  0  0  0
  -30.5388  -25.6545   19.5362 O   0  0  0  0  0  0  0  0  0  0  0  0
  -24.9548  -18.0410   26.0527 O   0  0  0  0  0  0  0  0  0  0  0  0
  -23.7154  -28.9780   21.1976 O   0  0  0  0  0  0  0  0  0  0  0  0
  -23.4560  -32.1007   23.8944 O   0  0  0  0  0  0  0  0  0  0  0  0
  -28.1836  -32.5124   23.8697 O   0  0  0  0  0  0  0  0  0  0  0  0
  -23.1852  -24.3079   18.6929 O   0  0  0  0  0  0  0  0  0  0  0  0
  -25.4873  -12.4156   20.7002 O   0  0  0  0  0  0  0  0  0  0  0  0
  -29.0531  -26.0396   21.9464 O   0  0  0  0  0  0  0  0  0  1  0  0
  -22.0159   -8.3631   22.0897 F   0  0  0  0  0  0  0  0  0  0  0  0
  -24.1996  -10.9240   18.7613 F   0  0  0  0  0  0  0  0  0  0  0  0
  1  2  1  0  0  0  0
  1  5  2  0  0  0  0
  2  6  2  0  0  0  0
  3 10  2  0  0  0  0
  3 18  1  0  0  0  0
  4 11  1  0  0  0  0
  4 18  2  0  0  0  0
  5 20  1  0  0  0  0
  6 22  1  0  0  0  0
  7 12  2  0  0  0  0
  7 21  1  0  0  0  0
  8  9  2  0  0  0  0
  8 24  1  0  0  0  0
  9 26  1  0  0  0  0
 10 27  1  0  0  0  0
 11 27  2  0  0  0  0
 12 28  1  0  0  0  0
 13 14  2  0  0  0  0
 13 29  1  0  0  0  0
 14 30  1  0  0  0  0
 15 23  1  0  0  0  0
 15 28  2  0  0  0  0
 16 25  1  0  0  0  0
 16 26  2  0  0  0  0
 17 30  2  0  0  0  0
 17 31  1  0  0  0  0
 18 32  1  0  0  0  0
 19 32  1  0  0  0  0
 19 33  2  0  0  0  0
 19 35  1  0  0  0  0
 20 22  2  0  0  0  0
 20 40  1  0  0  0  0
 21 23  2  0  0  0  0
 21 41  1  0  0  0  0
 22 52  1  0  0  0  0
 23 42  1  0  0  0  0
 24 25  2  0  0  0  0
 24 56  1  0  0  0  0
 25 62  1  0  0  0  0
 26 74  1  0  0  0  0
 27 84  1  0  0  0  0
 28 85  1  0  0  0  0
 29 31  2  0  0  0  0
 29 84  1  0  0  0  0
 30 86  1  0  0  0  0
 31 87  1  0  0  0  0
 32 67  2  0  0  0  0
 33 68  1  0  0  0  0
 33 72  1  0  0  0  0
 34 53  1  0  0  0  0
 34 69  1  0  0  0  0
 34 78  2  0  0  0  0
 35 73  1  0  0  0  0
 35 79  2  0  0  0  0
 36 54  1  0  0  0  0
 36 75  1  0  0  0  0
 36 80  2  0  0  0  0
 37 64  1  0  0  0  0
 37 70  1  0  0  0  0
 37 81  2  0  0  0  0
 38 65  1  0  0  0  0
 38 76  1  0  0  0  0
 38 82  2  0  0  0  0
 39 71  1  0  0  0  0
 39 74  1  0  0  0  0
 39 83  2  0  0  0  0
 40 43  1  0  0  0  0
 41 54  1  0  0  0  0
 42 70  1  0  0  0  0
 43 46  1  0  0  0  0
 44 47  1  0  0  0  0
 44 49  1  0  0  0  0
 45 48  1  0  0  0  0
 45 50  1  0  0  0  0
 46 52  1  0  0  0  0
 47 53  1  0  0  0  0
 48 55  1  0  0  0  0
 49 69  1  0  0  0  0
 50 71  1  0  0  0  0
 51 55  1  0  0  0  0
 51 71  1  0  0  0  0
 52 75  1  0  0  0  0
 53 63  1  0  0  0  0
 54 70  1  0  0  0  0
 55 68  1  0  0  0  0
 57 65  1  0  0  0  0
 58 66  1  0  0  0  0
 59 66  1  0  0  0  0
 60 66  1  0  0  0  0
 61 77  1  0  0  0  0
 62 69  1  0  0  0  0
 63 85  1  0  0  0  0
 64 66  1  0  0  0  0
 64 76  1  0  0  0  0
 65 77  1  0  0  0  0
 67 68  1  0  0  0  0
M  CHG  1  77   1
M  ISO  4  39 100  63 101  74 100  85 101
M  END
> <Batch ID>
0050

> <Smiles>
CNC(C)C(=O)NC(C(=O)N1Cc2cc([101O:1][101CH2:1]C3CCCN(Cc4cc([100NH:0][100C:0](=O)N5CCCC(n6nc(-c7ccc(Oc8ccc(F)cc8F)cc7)c(C(N)=O)c6N)C5)ccc4C)C3=O)ccc2CC1C(=O)NC1CCCc2ccccc21)C(C)(C)C

> <Shape>
0.218

> <Color>
0.075

> <Negative vol penalty>
0.000

$$$$

  -OEChem-04042322353D

 87 96  0     1  0  0  0  0  0999 V2000
  -20.0547  -20.8890   11.4851 C   0  0  0  0  0  0  0  0  0  0  0  0
  -20.5580  -19.7711   12.1427 C   0  0  0  0  0  0  0  0  0  0  0  0
  -27.0519  -25.4464   20.3799 C   0  0  0  0  0  0  0  0  0  0  0  0
  -27.7176  -25.8660   18.0956 C   0  0  0  0  0  0  0  0  0  0  0  0
  -20.3012  -22.1642   11.9920 C   0  0  0  0  0  0  0  0  0  0  0  0
  -21.3090  -19.9278   13.3071 C   0  0  0  0  0  0  0  0  0  0  0  0
  -21.4073  -16.1882   18.1560 C   0  0  0  0  0  0  0  0  0  0  0  0
  -29.4882  -13.4391   18.4295 C   0  0  0  0  0  0  0  0  0  0  0  0
  -28.5782  -12.5455   18.9942 C   0  0  0  0  0  0  0  0  0  0  0  0
  -26.0941  -26.4560   20.2862 C   0  0  0  0  0  0  0  0  0  0  0  0
  -26.7598  -26.8757   18.0020 C   0  0  0  0  0  0  0  0  0  0  0  0
  -22.2887  -15.1808   18.5459 C   0  0  0  0  0  0  0  0  0  0  0  0
  -26.0148  -29.8328   20.4112 C   0  0  0  0  0  0  0  0  0  0  0  0
  -25.9180  -30.7336   21.4717 C   0  0  0  0  0  0  0  0  0  0  0  0
  -23.4480  -16.7518   19.9627 C   0  0  0  0  0  0  0  0  0  0  0  0
  -30.1638  -14.1472   20.6384 C   0  0  0  0  0  0  0  0  0  0  0  0
  -23.6224  -30.0692   21.8264 C   0  0  0  0  0  0  0  0  0  0  0  0
  -27.8637  -25.1513   19.2846 C   0  0  0  0  0  0  0  0  0  0  0  0
  -29.9369  -24.0454   20.2777 C   0  0  0  0  0  0  0  0  0  0  0  0
  -21.0474  -22.3361   13.1686 C   0  0  0  0  0  0  0  0  0  0  0  0
  -21.5465  -17.4898   18.6590 C   0  0  0  0  0  0  0  0  0  0  0  0
  -21.5668  -21.2067   13.8295 C   0  0  0  0  0  0  0  0  0  0  0  0
  -22.5654  -17.7733   19.5796 C   0  0  0  0  0  0  0  0  0  0  0  0
  -30.2810  -14.2399   19.2516 C   0  0  0  0  0  0  0  0  0  0  0  0
  -28.4609  -12.4528   20.3811 C   0  0  0  0  0  0  0  0  0  0  0  0
  -25.9480  -27.1707   19.0973 C   0  0  0  0  0  0  0  0  0  0  0  0
  -23.3110  -15.4632   19.4471 C   0  0  0  0  0  0  0  0  0  0  0  0
  -24.9154  -29.0502   20.0582 C   0  0  0  0  0  0  0  0  0  0  0  0
  -24.7218  -30.8518   22.1794 C   0  0  0  0  0  0  0  0  0  0  0  0
  -23.7192  -29.1684   20.7658 C   0  0  0  0  0  0  0  0  0  0  0  0
  -29.2537  -13.2536   21.2032 C   0  0  0  0  0  0  0  0  0  0  0  0
  -28.8536  -24.1088   19.3809 C   0  0  0  0  0  0  0  0  0  0  0  0
  -30.5721  -22.8681   19.9662 C   0  0  0  0  0  0  0  0  0  0  0  0
  -25.3472  -11.6168   19.7055 C   0  0  0  0  0  0  0  0  0  0  0  0
  -30.3334  -24.9681   21.3010 C   0  0  0  0  0  0  0  0  0  0  0  0
  -22.1283  -20.3397   17.3772 C   0  0  0  0  0  0  0  0  0  0  0  0
  -21.5863  -21.3779   20.4023 C   0  0  0  0  0  0  0  0  0  0  0  0
  -21.5389  -20.6754   23.7416 C   0  0  0  0  0  0  0  0  0  0  0  0
  -30.3882  -17.5107   18.8656 C   0  0  0  0  0  0  0  0  0  0  0  0
  -21.3277  -23.7369   13.6522 C   0  0  0  0  0  0  0  0  0  0  0  0
  -20.5712  -18.5589   18.2491 C   0  0  0  0  0  0  0  0  0  0  0  0
  -22.7453  -19.1495   20.1645 C   0  0  0  0  0  0  0  0  0  0  0  0
  -23.9036  -12.0892   19.6686 C   0  0  0  0  0  0  0  0  0  0  0  0
  -21.8157  -23.7961   15.0974 C   0  0  0  0  0  0  0  0  0  0  0  0
  -29.9631  -19.7342   16.0420 C   0  0  0  0  0  0  0  0  0  0  0  0
  -22.9021  -22.7525   15.3372 C   0  0  0  0  0  0  0  0  0  0  0  0
  -29.7248  -21.0732   16.7425 C   0  0  0  0  0  0  0  0  0  0  0  0
  -24.1935  -13.2057   21.8689 C   0  0  0  0  0  0  0  0  0  0  0  0
  -29.3036  -18.5875   16.8024 C   0  0  0  0  0  0  0  0  0  0  0  0
  -25.6927  -12.9722   21.7997 C   0  0  0  0  0  0  0  0  0  0  0  0
  -29.4779  -19.8149   18.9324 C   0  0  0  0  0  0  0  0  0  0  0  0
  -22.3649  -21.3345   15.1089 C   0  0  1  0  0  0  0  0  0  0  0  0
  -21.1212  -19.9704   18.4294 C   0  0  1  0  0  0  0  0  0  0  0  0
  -30.1389  -21.0117   18.2247 C   0  0  2  0  0  0  0  0  0  0  0  0
  -23.6134  -13.3423   20.4743 C   0  0  1  0  0  0  0  0  0  1  0  0
  -21.0925  -21.7361   25.9716 C   0  0  0  0  0  0  0  0  0  0  0  0
  -24.2851  -22.7950   20.2657 C   0  0  0  0  0  0  0  0  0  0  0  0
  -24.2170  -23.0153   22.7587 C   0  0  0  0  0  0  0  0  0  0  0  0
  -22.4672  -24.1164   21.3629 C   0  0  0  0  0  0  0  0  0  0  0  0
  -19.3212  -18.8025   24.3186 C   0  0  0  0  0  0  0  0  0  0  0  0
  -27.4690  -11.4793   20.9491 C   0  0  0  0  0  0  0  0  0  0  0  0
  -31.2540  -15.1955   18.6478 C   0  0  0  0  0  0  0  0  0  0  0  0
  -22.4426  -21.6019   21.6252 C   0  0  1  0  0  0  0  0  0  0  0  0
  -20.4995  -20.9484   24.8137 C   0  0  2  0  0  0  0  0  0  0  0  0
  -23.3510  -22.8566   21.4908 C   0  0  0  0  0  0  0  0  0  0  0  0
  -28.8007  -23.0558   18.5610 N   0  0  0  0  0  0  0  0  0  0  0  0
  -29.8587  -22.3195   18.9414 N   0  0  0  0  0  0  0  0  0  0  0  0
  -26.0997  -11.9615   20.8255 N   0  0  0  0  0  0  0  0  0  0  0  0
  -21.7703  -20.1625   19.7278 N   0  0  0  0  0  0  0  0  0  0  0  0
  -29.7541  -18.5738   18.2013 N   0  0  0  0  0  0  0  0  0  0  0  0
  -31.6657  -22.2591   20.4716 N   0  0  0  0  0  0  0  0  0  0  0  0
  -31.2261  -25.9951   20.9652 N   0  0  0  0  0  0  0  0  0  0  0  0
  -21.5760  -20.9042   16.2433 N   0  0  0  0  0  0  0  0  0  0  0  0
  -21.5285  -21.6450   22.7613 N   0  0  0  0  0  0  0  0  0  0  0  0
  -30.6069  -16.3690   18.1044 N   0  0  0  0  0  0  0  0  0  0  0  0
  -19.9558  -19.6672   25.3464 N   0  3  0  0  0  0  0  0  0  0  0  0
  -25.7598  -10.8952   18.7927 O   0  0  0  0  0  0  0  0  0  0  0  0
  -29.9216  -24.8745   22.4822 O   0  0  0  0  0  0  0  0  0  0  0  0
  -23.3184  -20.1296   17.5798 O   0  0  0  0  0  0  0  0  0  0  0  0
  -20.7788  -22.2461   20.0622 O   0  0  0  0  0  0  0  0  0  0  0  0
  -22.2879  -19.7014   23.7727 O   0  0  0  0  0  0  0  0  0  0  0  0
  -30.7387  -17.5760   20.0488 O   0  0  0  0  0  0  0  0  0  0  0  0
  -25.0133  -28.1558   19.0055 O   0  0  0  0  0  0  0  0  0  0  0  0
  -24.1731  -14.4819   19.8288 O   0  0  0  0  0  0  0  0  0  1  0  0
  -24.6295  -31.7157   23.1988 F   0  0  0  0  0  0  0  0  0  0  0  0
  -22.6600  -28.4185   20.4321 F   0  0  0  0  0  0  0  0  0  0  0  0
  -29.1351  -13.1666   22.9230 Cl  0  0  0  0  0  0  0  0  0  0  0  0
  1  2  1  0  0  0  0
  1  5  2  0  0  0  0
  2  6  2  0  0  0  0
  3 10  2  0  0  0  0
  3 18  1  0  0  0  0
  4 11  1  0  0  0  0
  4 18  2  0  0  0  0
  5 20  1  0  0  0  0
  6 22  1  0  0  0  0
  7 12  2  0  0  0  0
  7 21  1  0  0  0  0
  8  9  2  0  0  0  0
  8 24  1  0  0  0  0
  9 25  1  0  0  0  0
 10 26  1  0  0  0  0
 11 26  2  0  0  0  0
 12 27  1  0  0  0  0
 13 14  2  0  0  0  0
 13 28  1  0  0  0  0
 14 29  1  0  0  0  0
 15 23  1  0  0  0  0
 15 27  2  0  0  0  0
 16 24  2  0  0  0  0
 16 31  1  0  0  0  0
 17 29  2  0  0  0  0
 17 30  1  0  0  0  0
 18 32  1  0  0  0  0
 19 32  1  0  0  0  0
 19 33  2  0  0  0  0
 19 35  1  0  0  0  0
 20 22  2  0  0  0  0
 20 40  1  0  0  0  0
 21 23  2  0  0  0  0
 21 41  1  0  0  0  0
 22 52  1  0  0  0  0
 23 42  1  0  0  0  0
 24 62  1  0  0  0  0
 25 31  2  0  0  0  0
 25 61  1  0  0  0  0
 26 83  1  0  0  0  0
 27 84  1  0  0  0  0
 28 30  2  0  0  0  0
 28 83  1  0  0  0  0
 29 85  1  0  0  0  0
 30 86  1  0  0  0  0
 31 87  1  0  0  0  0
 32 66  2  0  0  0  0
 33 67  1  0  0  0  0
 33 71  1  0  0  0  0
 34 43  1  0  0  0  0
 34 68  1  0  0  0  0
 34 77  2  0  0  0  0
 35 72  1  0  0  0  0
 35 78  2  0  0  0  0
 36 53  1  0  0  0  0
 36 73  1  0  0  0  0
 36 79  2  0  0  0  0
 37 63  1  0  0  0  0
 37 69  1  0  0  0  0
 37 80  2  0  0  0  0
 38 64  1  0  0  0  0
 38 74  1  0  0  0  0
 38 81  2  0  0  0  0
 39 70  1  0  0  0  0
 39 75  1  0  0  0  0
 39 82  2  0  0  0  0
 40 44  1  0  0  0  0
 41 53  1  0  0  0  0
 42 69  1  0  0  0  0
 43 55  1  0  0  0  0
 44 46  1  0  0  0  0
 45 47  1  0  0  0  0
 45 49  1  0  0  0  0
 46 52  1  0  0  0  0
 47 54  1  0  0  0  0
 48 50  1  0  0  0  0
 48 55  1  0  0  0  0
 49 70  1  0  0  0  0
 50 68  1  0  0  0  0
 51 54  1  0  0  0  0
 51 70  1  0  0  0  0
 52 73  1  0  0  0  0
 53 69  1  0  0  0  0
 54 67  1  0  0  0  0
 55 84  1  0  0  0  0
 56 64  1  0  0  0  0
 57 65  1  0  0  0  0
 58 65  1  0  0  0  0
 59 65  1  0  0  0  0
 60 76  1  0  0  0  0
 61 68  1  0  0  0  0
 62 75  1  0  0  0  0
 63 65  1  0  0  0  0
 63 74  1  0  0  0  0
 64 76  1  0  0  0  0
 66 67  1  0  0  0  0
M  CHG  1  76   1
M  ISO  4  39 100  55 101  75 100  84 101
M  END
> <Batch ID>
0050

> <Smiles>
CNC(C)C(=O)NC(C(=O)N1Cc2cc([101O:1][101CH:1]3CCN(Cc4ccc(C[100NH:0][100C:0](=O)N5CCCC(n6nc(-c7ccc(Oc8ccc(F)cc8F)cc7)c(C(N)=O)c6N)C5)cc4Cl)C(=O)C3)ccc2CC1C(=O)NC1CCCc2ccccc21)C(C)(C)C

> <Shape>
0.191

> <Color>
0.082

> <Negative vol penalty>
0.000

$$$$

  -OEChem-04042322353D

 87 95  0     1  0  0  0  0  0999 V2000
  -30.1479  -11.8936   20.0087 C   0  0  0  0  0  0  0  0  0  0  0  0
  -30.0433  -13.0541   20.7689 C   0  0  0  0  0  0  0  0  0  0  0  0
  -26.8846  -29.3034   20.4410 C   0  0  0  0  0  0  0  0  0  0  0  0
  -25.7069  -27.2784   21.0324 C   0  0  0  0  0  0  0  0  0  0  0  0
  -30.8640  -18.6601   20.1676 C   0  0  0  0  0  0  0  0  0  0  0  0
  -29.2352  -11.6484   18.9837 C   0  0  0  0  0  0  0  0  0  0  0  0
  -29.0264  -13.9706   20.5036 C   0  0  0  0  0  0  0  0  0  0  0  0
  -26.0292  -17.4252   24.5765 C   0  0  0  0  0  0  0  0  0  0  0  0
  -25.6806  -30.0076   20.4548 C   0  0  0  0  0  0  0  0  0  0  0  0
  -24.5030  -27.9827   21.0463 C   0  0  0  0  0  0  0  0  0  0  0  0
  -26.1811  -18.7534   24.9721 C   0  0  0  0  0  0  0  0  0  0  0  0
  -21.1672  -29.3221   21.5907 C   0  0  0  0  0  0  0  0  0  0  0  0
  -20.2959  -29.0976   22.6566 C   0  0  0  0  0  0  0  0  0  0  0  0
  -31.9625  -18.0486   19.5636 C   0  0  0  0  0  0  0  0  0  0  0  0
  -24.4545  -19.4070   23.4195 C   0  0  0  0  0  0  0  0  0  0  0  0
  -31.2877  -18.9480   17.4253 C   0  0  0  0  0  0  0  0  0  0  0  0
  -21.9929  -29.8511   24.2024 C   0  0  0  0  0  0  0  0  0  0  0  0
  -26.8977  -27.9388   20.7298 C   0  0  0  0  0  0  0  0  0  0  0  0
  -29.9772  -19.4155   19.4004 C   0  0  0  0  0  0  0  0  0  0  0  0
  -29.0230  -27.0127   21.7943 C   0  0  0  0  0  0  0  0  0  0  0  0
  -28.2009  -12.5578   18.7120 C   0  0  0  0  0  0  0  0  0  0  0  0
  -25.0948  -17.0788   23.5900 C   0  0  0  0  0  0  0  0  0  0  0  0
  -28.0998  -13.7380   19.4730 C   0  0  0  0  0  0  0  0  0  0  0  0
  -24.2909  -18.0733   23.0150 C   0  0  0  0  0  0  0  0  0  0  0  0
  -30.1890  -19.5595   18.0292 C   0  0  0  0  0  0  0  0  0  0  0  0
  -24.4898  -29.3473   20.7575 C   0  0  0  0  0  0  0  0  0  0  0  0
  -25.3958  -19.7450   24.3916 C   0  0  0  0  0  0  0  0  0  0  0  0
  -22.4513  -29.8111   21.8307 C   0  0  0  0  0  0  0  0  0  0  0  0
  -20.7087  -29.3621   23.9624 C   0  0  0  0  0  0  0  0  0  0  0  0
  -22.8642  -30.0756   23.1365 C   0  0  0  0  0  0  0  0  0  0  0  0
  -32.1744  -18.1926   18.1925 C   0  0  0  0  0  0  0  0  0  0  0  0
  -28.1410  -27.2107   20.7151 C   0  0  0  0  0  0  0  0  0  0  0  0
  -30.0464  -26.2628   21.2682 C   0  0  0  0  0  0  0  0  0  0  0  0
  -28.8264  -20.0491   20.0681 C   0  0  0  0  0  0  0  0  0  0  0  0
  -28.9219  -20.9646   21.0435 C   0  0  0  0  0  0  0  0  0  0  0  0
  -28.9258  -27.4660   23.1510 C   0  0  0  0  0  0  0  0  0  0  0  0
  -27.6861  -21.5462   21.6410 C   0  0  0  0  0  0  0  0  0  0  0  0
  -25.2666  -15.7684   20.6991 C   0  0  0  0  0  0  0  0  0  0  0  0
  -22.0301  -15.8161   20.9121 C   0  0  0  0  0  0  0  0  0  0  0  0
  -19.2381  -17.2035   22.3001 C   0  0  0  0  0  0  0  0  0  0  0  0
  -30.3752  -22.5059   16.6175 C   0  0  0  0  0  0  0  0  0  0  0  0
  -27.2666  -12.2724   17.5629 C   0  0  0  0  0  0  0  0  0  0  0  0
  -24.9244  -15.6379   23.1935 C   0  0  0  0  0  0  0  0  0  0  0  0
  -23.2591  -17.7510   21.9662 C   0  0  0  0  0  0  0  0  0  0  0  0
  -25.9927  -13.1131   17.5904 C   0  0  0  0  0  0  0  0  0  0  0  0
  -32.3429  -25.4240   17.1555 C   0  0  0  0  0  0  0  0  0  0  0  0
  -26.3248  -14.5767   17.8632 C   0  0  0  0  0  0  0  0  0  0  0  0
  -31.5687  -26.1949   18.2262 C   0  0  0  0  0  0  0  0  0  0  0  0
  -31.4047  -24.7163   16.1804 C   0  0  0  0  0  0  0  0  0  0  0  0
  -29.6261  -24.6115   17.8832 C   0  0  0  0  0  0  0  0  0  0  0  0
  -26.9956  -14.7443   19.2319 C   0  0  1  0  0  0  0  0  0  0  0  0
  -24.3017  -15.4682   21.8111 C   0  0  1  0  0  0  0  0  0  0  0  0
  -30.5295  -25.2962   18.9231 C   0  0  2  0  0  0  0  0  0  0  0  0
  -16.7333  -17.0588   22.2498 C   0  0  0  0  0  0  0  0  0  0  0  0
  -22.0010  -17.2909   18.2412 C   0  0  0  0  0  0  0  0  0  0  0  0
  -19.6290  -17.9431   18.7065 C   0  0  0  0  0  0  0  0  0  0  0  0
  -20.2372  -15.5343   18.4822 C   0  0  0  0  0  0  0  0  0  0  0  0
  -19.1064  -16.4828   25.1675 C   0  0  0  0  0  0  0  0  0  0  0  0
  -29.2587  -20.3611   17.1763 C   0  0  0  0  0  0  0  0  0  0  0  0
  -27.0395  -22.9155   24.8664 C   0  0  0  0  0  0  0  0  0  0  0  0
  -26.9615  -23.1833   23.3694 C   0  0  0  0  0  0  0  0  0  0  0  0
  -26.8378  -21.4464   25.2172 C   0  0  0  0  0  0  0  0  0  1  0  0
  -20.9492  -16.8052   20.5485 C   0  0  1  0  0  0  0  0  0  0  0  0
  -18.0064  -16.5755   22.9269 C   0  0  2  0  0  0  0  0  0  0  0  0
  -20.7248  -16.9000   19.0129 C   0  0  0  0  0  0  0  0  0  0  0  0
  -28.5669  -26.6333   19.5884 N   0  0  0  0  0  0  0  0  0  0  0  0
  -29.7278  -26.0653   19.9568 N   0  0  0  0  0  0  0  0  0  0  0  0
  -23.1345  -16.3285   21.6075 N   0  0  0  0  0  0  0  0  0  0  0  0
  -30.4454  -23.8791   16.9049 N   0  0  0  0  0  0  0  0  0  0  0  0
  -31.1789  -25.7599   21.8039 N   0  0  0  0  0  0  0  0  0  0  0  0
  -27.8083  -28.2255   23.5233 N   0  0  0  0  0  0  0  0  0  0  0  0
  -27.9725  -22.4752   22.6340 N   0  0  0  0  0  0  0  0  0  0  0  0
  -26.0099  -14.6779   20.2894 N   0  0  0  0  0  0  0  0  0  0  0  0
  -19.7642  -16.4104   21.3024 N   0  0  0  0  0  0  0  0  0  0  0  0
  -29.4437  -21.7841   17.3538 N   0  0  0  0  0  0  0  0  0  0  0  0
  -17.9288  -16.9206   24.3746 N   0  3  0  0  0  0  0  0  0  0  0  0
  -29.8121  -27.2192   24.0038 O   0  0  0  0  0  0  0  0  0  0  0  0
  -26.5610  -21.2213   21.2759 O   0  0  0  0  0  0  0  0  0  0  0  0
  -25.3308  -16.9049   20.2453 O   0  0  0  0  0  0  0  0  0  0  0  0
  -21.8961  -14.6309   20.5972 O   0  0  0  0  0  0  0  0  0  0  0  0
  -19.6864  -18.2908   22.6571 O   0  0  0  0  0  0  0  0  0  0  0  0
  -31.0934  -21.9624   15.7715 O   0  0  0  0  0  0  0  0  0  0  0  0
  -23.3149  -30.0342   20.7714 O   0  0  0  0  0  0  0  0  0  0  0  0
  -25.5425  -21.0423   24.7754 O   0  0  0  0  0  0  0  0  0  1  0  0
  -19.8714  -29.1480   24.9858 F   0  0  0  0  0  0  0  0  0  0  0  0
  -24.0962  -30.5466   23.3732 F   0  0  0  0  0  0  0  0  0  0  0  0
  -33.5303  -17.4377   17.4479 Cl  0  0  0  0  0  0  0  0  0  0  0  0
  1  2  1  0  0  0  0
  1  6  2  0  0  0  0
  2  7  2  0  0  0  0
  3  9  2  0  0  0  0
  3 18  1  0  0  0  0
  4 10  1  0  0  0  0
  4 18  2  0  0  0  0
  5 14  2  0  0  0  0
  5 19  1  0  0  0  0
  6 21  1  0  0  0  0
  7 23  1  0  0  0  0
  8 11  2  0  0  0  0
  8 22  1  0  0  0  0
  9 26  1  0  0  0  0
 10 26  2  0  0  0  0
 11 27  1  0  0  0  0
 12 13  2  0  0  0  0
 12 28  1  0  0  0  0
 13 29  1  0  0  0  0
 14 31  1  0  0  0  0
 15 24  1  0  0  0  0
 15 27  2  0  0  0  0
 16 25  1  0  0  0  0
 16 31  2  0  0  0  0
 17 29  2  0  0  0  0
 17 30  1  0  0  0  0
 18 32  1  0  0  0  0
 19 25  2  0  0  0  0
 19 34  1  0  0  0  0
 20 32  1  0  0  0  0
 20 33  2  0  0  0  0
 20 36  1  0  0  0  0
 21 23  2  0  0  0  0
 21 42  1  0  0  0  0
 22 24  2  0  0  0  0
 22 43  1  0  0  0  0
 23 51  1  0  0  0  0
 24 44  1  0  0  0  0
 25 59  1  0  0  0  0
 26 83  1  0  0  0  0
 27 84  1  0  0  0  0
 28 30  2  0  0  0  0
 28 83  1  0  0  0  0
 29 85  1  0  0  0  0
 30 86  1  0  0  0  0
 31 87  1  0  0  0  0
 32 66  2  0  0  0  0
 33 67  1  0  0  0  0
 33 70  1  0  0  0  0
 34 35  2  0  0  0  0
 35 37  1  0  0  0  0
 36 71  1  0  0  0  0
 36 77  2  0  0  0  0
 37 72  1  0  0  0  0
 37 78  2  0  0  0  0
 38 52  1  0  0  0  0
 38 73  1  0  0  0  0
 38 79  2  0  0  0  0
 39 63  1  0  0  0  0
 39 68  1  0  0  0  0
 39 80  2  0  0  0  0
 40 64  1  0  0  0  0
 40 74  1  0  0  0  0
 40 81  2  0  0  0  0
 41 69  1  0  0  0  0
 41 75  1  0  0  0  0
 41 82  2  0  0  0  0
 42 45  1  0  0  0  0
 43 52  1  0  0  0  0
 44 68  1  0  0  0  0
 45 47  1  0  0  0  0
 46 48  1  0  0  0  0
 46 49  1  0  0  0  0
 47 51  1  0  0  0  0
 48 53  1  0  0  0  0
 49 69  1  0  0  0  0
 50 53  1  0  0  0  0
 50 69  1  0  0  0  0
 51 73  1  0  0  0  0
 52 68  1  0  0  0  0
 53 67  1  0  0  0  0
 54 64  1  0  0  0  0
 55 65  1  0  0  0  0
 56 65  1  0  0  0  0
 57 65  1  0  0  0  0
 58 76  1  0  0  0  0
 59 75  1  0  0  0  0
 60 61  1  0  0  0  0
 60 62  1  0  0  0  0
 61 72  1  0  0  0  0
 62 84  1  0  0  0  0
 63 65  1  0  0  0  0
 63 74  1  0  0  0  0
 64 76  1  0  0  0  0
 66 67  1  0  0  0  0
M  CHG  1  76   1
M  ISO  4  41 100  62 101  75 100  84 101
M  END
> <Batch ID>
0050

> <Smiles>
CNC(C)C(=O)NC(C(=O)N1Cc2cc([101O:1][101CH2:1]CCNC(=O)C=Cc3ccc(Cl)cc3C[100NH:0][100C:0](=O)N3CCCC(n4nc(-c5ccc(Oc6ccc(F)cc6F)cc5)c(C(N)=O)c4N)C3)ccc2CC1C(=O)NC1CCCc2ccccc21)C(C)(C)C

> <Shape>
0.225

> <Color>
0.071

> <Negative vol penalty>
0.000

$$$$
