
  -OEChem-04042322373D

 86 94  0     1  0  0  0  0  0999 V2000
  -20.5853  -25.4754   18.5872 C   0  0  0  0  0  0  0  0  0  0  0  0
  -21.3115  -24.3114   18.3567 C   0  0  0  0  0  0  0  0  0  0  0  0
  -25.9615  -25.7192   19.8940 C   0  0  0  0  0  0  0  0  0  0  0  0
  -26.7462  -25.0472   22.0779 C   0  0  0  0  0  0  0  0  0  0  0  0
  -20.2111  -25.8164   19.8863 C   0  0  0  0  0  0  0  0  0  0  0  0
  -21.6648  -23.4882   19.4253 C   0  0  0  0  0  0  0  0  0  0  0  0
  -22.0739  -17.3778   19.3869 C   0  0  0  0  0  0  0  0  0  0  0  0
  -25.1482  -26.6867   20.4839 C   0  0  0  0  0  0  0  0  0  0  0  0
  -25.9329  -26.0148   22.6679 C   0  0  0  0  0  0  0  0  0  0  0  0
  -23.1582  -16.5111   19.2572 C   0  0  0  0  0  0  0  0  0  0  0  0
  -25.5109  -29.7797   21.8008 C   0  0  0  0  0  0  0  0  0  0  0  0
  -25.5012  -31.0531   21.2317 C   0  0  0  0  0  0  0  0  0  0  0  0
  -23.2874  -16.3231   21.6587 C   0  0  0  0  0  0  0  0  0  0  0  0
  -28.7926  -11.1494   20.1477 C   0  0  0  0  0  0  0  0  0  0  0  0
  -30.0130  -13.1520   20.7282 C   0  0  0  0  0  0  0  0  0  0  0  0
  -23.1286  -30.8521   20.8224 C   0  0  0  0  0  0  0  0  0  0  0  0
  -26.7605  -24.8994   20.6910 C   0  0  0  0  0  0  0  0  0  0  0  0
  -28.9318  -24.0547   19.6519 C   0  0  0  0  0  0  0  0  0  0  0  0
  -20.5516  -24.9920   20.9703 C   0  0  0  0  0  0  0  0  0  0  0  0
  -21.5943  -17.7328   20.6559 C   0  0  0  0  0  0  0  0  0  0  0  0
  -21.2959  -23.8192   20.7402 C   0  0  0  0  0  0  0  0  0  0  0  0
  -22.1953  -17.1925   21.8017 C   0  0  0  0  0  0  0  0  0  0  0  0
  -29.5542  -11.8776   21.0616 C   0  0  0  0  0  0  0  0  0  0  0  0
  -28.4897  -11.6955   18.9004 C   0  0  0  0  0  0  0  0  0  0  0  0
  -29.7101  -13.6982   19.4810 C   0  0  0  0  0  0  0  0  0  0  0  0
  -28.9485  -12.9699   18.5671 C   0  0  0  0  0  0  0  0  0  0  0  0
  -25.1339  -26.8345   21.8708 C   0  0  0  0  0  0  0  0  0  0  0  0
  -23.7670  -15.9859   20.3933 C   0  0  0  0  0  0  0  0  0  0  0  0
  -24.3295  -29.0425   21.8807 C   0  0  0  0  0  0  0  0  0  0  0  0
  -24.3101  -31.5894   20.7425 C   0  0  0  0  0  0  0  0  0  0  0  0
  -23.1383  -29.5787   21.3915 C   0  0  0  0  0  0  0  0  0  0  0  0
  -27.6004  -23.8993   20.0823 C   0  0  0  0  0  0  0  0  0  0  0  0
  -29.2763  -22.8234   19.1502 C   0  0  0  0  0  0  0  0  0  0  0  0
  -29.7811  -25.2088   19.7013 C   0  0  0  0  0  0  0  0  0  0  0  0
  -21.3291  -20.4569   22.2723 C   0  0  0  0  0  0  0  0  0  0  0  0
  -19.7696  -18.5826   24.4117 C   0  0  0  0  0  0  0  0  0  0  0  0
  -25.5485  -13.0033   19.3945 C   0  0  0  0  0  0  0  0  0  0  0  0
  -19.2408  -15.4602   25.6835 C   0  0  0  0  0  0  0  0  0  0  0  0
  -29.4247  -17.3722   19.6082 C   0  0  0  0  0  0  0  0  0  0  0  0
  -20.1656  -25.4264   22.3620 C   0  0  0  0  0  0  0  0  0  0  0  0
  -20.4068  -18.6479   20.7781 C   0  0  0  0  0  0  0  0  0  0  0  0
  -21.7056  -17.5262   23.1864 C   0  0  0  0  0  0  0  0  0  0  0  0
  -20.2563  -24.3075   23.3965 C   0  0  0  0  0  0  0  0  0  0  0  0
  -26.4302  -18.7674   18.1304 C   0  0  0  0  0  0  0  0  0  0  0  0
  -21.5722  -23.5501   23.2496 C   0  0  0  0  0  0  0  0  0  0  0  0
  -26.5830  -20.2499   18.4756 C   0  0  0  0  0  0  0  0  0  0  0  0
  -26.9312  -17.8808   19.2666 C   0  0  0  0  0  0  0  0  0  0  0  0
  -28.4917  -19.6295   20.0286 C   0  0  0  0  0  0  0  0  0  0  0  0
  -21.6766  -22.8877   21.8705 C   0  0  1  0  0  0  0  0  0  0  0  0
  -20.3272  -19.3460   22.1323 C   0  0  1  0  0  0  0  0  0  0  0  0
  -28.0235  -20.5784   18.9103 C   0  0  2  0  0  0  0  0  0  0  0  0
  -29.8786  -11.2934   22.3948 C   0  0  0  0  0  0  0  0  0  0  0  0
  -28.6232  -13.5554   17.2298 C   0  0  0  0  0  0  0  0  0  0  0  0
  -17.9374  -14.2485   27.4528 C   0  0  0  0  0  0  0  0  0  0  0  0
  -21.6893  -19.6300   26.5396 C   0  0  0  0  0  0  0  0  0  0  0  0
  -20.9839  -17.7312   28.0110 C   0  0  0  0  0  0  0  0  0  0  0  0
  -19.3106  -19.4334   27.2864 C   0  0  0  0  0  0  0  0  0  0  0  0
  -17.8262  -13.8097   23.6751 C   0  0  0  0  0  0  0  0  0  0  0  0
  -27.6632  -10.8874   17.9305 C   0  0  0  0  0  0  0  0  0  0  0  0
  -30.2133  -15.0649   19.1484 C   0  0  0  0  0  0  0  0  0  0  0  0
  -24.8732  -14.3254   19.0990 C   0  0  0  0  0  0  0  0  0  1  0  0
  -26.1784  -10.8682   18.2854 C   0  0  0  0  0  0  0  0  0  0  0  0
  -20.1790  -17.7555   25.6064 C   0  0  1  0  0  0  0  0  0  0  0  0
  -17.9628  -14.7057   26.0026 C   0  0  2  0  0  0  0  0  0  0  0  0
  -20.5514  -18.6326   26.8350 C   0  0  0  0  0  0  0  0  0  0  0  0
  -27.1311  -22.6666   19.8722 N   0  0  0  0  0  0  0  0  0  0  0  0
  -28.1732  -22.0362   19.3042 N   0  0  0  0  0  0  0  0  0  0  0  0
  -20.5455  -18.4303   23.2539 N   0  0  0  0  0  0  0  0  0  0  0  0
  -28.3140  -18.2322   19.6197 N   0  0  0  0  0  0  0  0  0  0  0  0
  -30.4121  -22.3482   18.5966 N   0  0  0  0  0  0  0  0  0  0  0  0
  -29.2684  -26.3926   20.2489 N   0  0  0  0  0  0  0  0  0  0  0  0
  -20.8751  -21.6835   21.8263 N   0  0  0  0  0  0  0  0  0  0  0  0
  -25.5888  -12.1870   18.2750 N   0  0  0  0  0  0  0  0  0  0  0  0
  -19.0859  -16.8203   25.8492 N   0  0  0  0  0  0  0  0  0  0  0  0
  -29.1700  -16.0639   19.2156 N   0  0  0  0  0  0  0  0  0  0  0  0
  -17.8384  -13.5047   25.1290 N   0  3  0  0  0  0  0  0  0  0  0  0
  -30.9543  -25.1953   19.2575 O   0  0  0  0  0  0  0  0  0  0  0  0
  -22.4319  -20.2192   22.7509 O   0  0  0  0  0  0  0  0  0  0  0  0
  -18.7930  -19.3309   24.5003 O   0  0  0  0  0  0  0  0  0  0  0  0
  -25.9947  -12.7182   20.5025 O   0  0  0  0  0  0  0  0  0  0  0  0
  -20.2743  -14.8988   25.3267 O   0  0  0  0  0  0  0  0  0  0  0  0
  -30.5612  -17.7442   19.9198 O   0  0  0  0  0  0  0  0  0  0  0  0
  -24.3406  -27.7787   22.4468 O   0  0  0  0  0  0  0  0  0  0  0  0
  -24.8260  -15.1402   20.2695 O   0  0  0  0  0  0  0  0  0  1  0  0
  -24.3006  -32.8128   20.1974 F   0  0  0  0  0  0  0  0  0  0  0  0
  -21.9999  -28.8757   21.4666 F   0  0  0  0  0  0  0  0  0  0  0  0
  1  2  1  0  0  0  0
  1  5  2  0  0  0  0
  2  6  2  0  0  0  0
  3  8  2  0  0  0  0
  3 17  1  0  0  0  0
  4  9  1  0  0  0  0
  4 17  2  0  0  0  0
  5 19  1  0  0  0  0
  6 21  1  0  0  0  0
  7 10  2  0  0  0  0
  7 20  1  0  0  0  0
  8 27  1  0  0  0  0
  9 27  2  0  0  0  0
 10 28  1  0  0  0  0
 11 12  2  0  0  0  0
 11 29  1  0  0  0  0
 12 30  1  0  0  0  0
 13 22  1  0  0  0  0
 13 28  2  0  0  0  0
 14 23  2  0  0  0  0
 14 24  1  0  0  0  0
 15 23  1  0  0  0  0
 15 25  2  0  0  0  0
 16 30  2  0  0  0  0
 16 31  1  0  0  0  0
 17 32  1  0  0  0  0
 18 32  1  0  0  0  0
 18 33  2  0  0  0  0
 18 34  1  0  0  0  0
 19 21  2  0  0  0  0
 19 40  1  0  0  0  0
 20 22  2  0  0  0  0
 20 41  1  0  0  0  0
 21 49  1  0  0  0  0
 22 42  1  0  0  0  0
 23 52  1  0  0  0  0
 24 26  2  0  0  0  0
 24 59  1  0  0  0  0
 25 26  1  0  0  0  0
 25 60  1  0  0  0  0
 26 53  1  0  0  0  0
 27 83  1  0  0  0  0
 28 84  1  0  0  0  0
 29 31  2  0  0  0  0
 29 83  1  0  0  0  0
 30 85  1  0  0  0  0
 31 86  1  0  0  0  0
 32 66  2  0  0  0  0
 33 67  1  0  0  0  0
 33 70  1  0  0  0  0
 34 71  1  0  0  0  0
 34 77  2  0  0  0  0
 35 50  1  0  0  0  0
 35 72  1  0  0  0  0
 35 78  2  0  0  0  0
 36 63  1  0  0  0  0
 36 68  1  0  0  0  0
 36 79  2  0  0  0  0
 37 61  1  0  0  0  0
 37 73  1  0  0  0  0
 37 80  2  0  0  0  0
 38 64  1  0  0  0  0
 38 74  1  0  0  0  0
 38 81  2  0  0  0  0
 39 69  1  0  0  0  0
 39 75  1  0  0  0  0
 39 82  2  0  0  0  0
 40 43  1  0  0  0  0
 41 50  1  0  0  0  0
 42 68  1  0  0  0  0
 43 45  1  0  0  0  0
 44 46  1  0  0  0  0
 44 47  1  0  0  0  0
 45 49  1  0  0  0  0
 46 51  1  0  0  0  0
 47 69  1  0  0  0  0
 48 51  1  0  0  0  0
 48 69  1  0  0  0  0
 49 72  1  0  0  0  0
 50 68  1  0  0  0  0
 51 67  1  0  0  0  0
 54 64  1  0  0  0  0
 55 65  1  0  0  0  0
 56 65  1  0  0  0  0
 57 65  1  0  0  0  0
 58 76  1  0  0  0  0
 59 62  1  0  0  0  0
 60 75  1  0  0  0  0
 61 84  1  0  0  0  0
 62 73  1  0  0  0  0
 63 65  1  0  0  0  0
 63 74  1  0  0  0  0
 64 76  1  0  0  0  0
 66 67  1  0  0  0  0
M  CHG  1  76   1
M  ISO  4  39 100  61 101  75 100  84 101
M  END
> <Batch ID>
0051

> <Smiles>
CNC(C)C(=O)NC(C(=O)N1Cc2cc([101O:1][101CH2:1]C(=O)NCCc3cc(C)cc(C[100NH:0][100C:0](=O)N4CCCC(n5nc(-c6ccc(Oc7ccc(F)cc7F)cc6)c(C(N)=O)c5N)C4)c3C)ccc2CC1C(=O)NC1CCCc2ccccc21)C(C)(C)C

> <Shape>
0.191

> <Color>
0.090

> <Negative vol penalty>
0.000

$$$$

  -OEChem-04042322373D

 84 92  0     1  0  0  0  0  0999 V2000
  -29.6768  -11.6863   20.0052 C   0  0  0  0  0  0  0  0  0  0  0  0
  -29.7312  -13.0513   19.7422 C   0  0  0  0  0  0  0  0  0  0  0  0
  -20.6159  -26.5872   23.0308 C   0  0  0  0  0  0  0  0  0  0  0  0
  -19.9269  -28.9028   23.0346 C   0  0  0  0  0  0  0  0  0  0  0  0
  -28.4475  -11.0285   20.0185 C   0  0  0  0  0  0  0  0  0  0  0  0
  -28.5563  -13.7592   19.4912 C   0  0  0  0  0  0  0  0  0  0  0  0
  -28.3766  -18.1685   21.9753 C   0  0  0  0  0  0  0  0  0  0  0  0
  -30.7306  -26.8224   19.0021 C   0  0  0  0  0  0  0  0  0  0  0  0
  -19.3290  -26.2048   22.6523 C   0  0  0  0  0  0  0  0  0  0  0  0
  -18.6399  -28.5205   22.6561 C   0  0  0  0  0  0  0  0  0  0  0  0
  -29.1176  -19.2260   21.4497 C   0  0  0  0  0  0  0  0  0  0  0  0
  -16.3221  -25.7735   24.1344 C   0  0  0  0  0  0  0  0  0  0  0  0
  -30.8260  -27.9227   19.8540 C   0  0  0  0  0  0  0  0  0  0  0  0
  -15.7468  -24.6904   24.7989 C   0  0  0  0  0  0  0  0  0  0  0  0
  -27.1135  -20.1279   20.4549 C   0  0  0  0  0  0  0  0  0  0  0  0
  -15.5539  -23.5062   22.7019 C   0  0  0  0  0  0  0  0  0  0  0  0
  -20.9149  -27.9362   23.2220 C   0  0  0  0  0  0  0  0  0  0  0  0
  -22.9355  -27.9508   24.7790 C   0  0  0  0  0  0  0  0  0  0  0  0
  -27.2561  -11.7306   19.7771 C   0  0  0  0  0  0  0  0  0  0  0  0
  -26.9980  -18.0766   21.7351 C   0  0  0  0  0  0  0  0  0  0  0  0
  -27.3101  -13.1099   19.4999 C   0  0  0  0  0  0  0  0  0  0  0  0
  -26.3568  -19.0696   20.9807 C   0  0  0  0  0  0  0  0  0  0  0  0
  -29.5138  -26.5152   18.3932 C   0  0  0  0  0  0  0  0  0  0  0  0
  -28.3923  -27.3082   18.6364 C   0  0  0  0  0  0  0  0  0  0  0  0
  -28.4877  -28.4085   19.4884 C   0  0  0  0  0  0  0  0  0  0  0  0
  -18.3410  -27.1714   22.4649 C   0  0  0  0  0  0  0  0  0  0  0  0
  -28.4866  -20.2044   20.6870 C   0  0  0  0  0  0  0  0  0  0  0  0
  -16.5132  -25.7230   22.7535 C   0  0  0  0  0  0  0  0  0  0  0  0
  -15.3628  -23.5568   24.0827 C   0  0  0  0  0  0  0  0  0  0  0  0
  -29.7045  -28.7158   20.0972 C   0  0  0  0  0  0  0  0  0  0  0  0
  -16.1292  -24.5893   22.0373 C   0  0  0  0  0  0  0  0  0  0  0  0
  -22.2439  -28.3317   23.6135 C   0  0  0  0  0  0  0  0  0  0  0  0
  -24.1482  -28.5884   24.6825 C   0  0  0  0  0  0  0  0  0  0  0  0
  -22.5191  -27.0970   25.8529 C   0  0  0  0  0  0  0  0  0  0  0  0
  -25.1098  -15.9740   20.2800 C   0  0  0  0  0  0  0  0  0  0  0  0
  -22.7519  -17.8766   21.4388 C   0  0  0  0  0  0  0  0  0  0  0  0
  -29.4391  -23.2655   18.8733 C   0  0  0  0  0  0  0  0  0  0  0  0
  -21.8015  -20.9582   22.5556 C   0  0  0  0  0  0  0  0  0  0  0  0
  -27.3527  -30.5859   20.0514 C   0  0  0  0  0  0  0  0  0  0  0  0
  -25.9555  -10.9673   19.7552 C   0  0  0  0  0  0  0  0  0  0  0  0
  -26.2082  -16.9440   22.3315 C   0  0  0  0  0  0  0  0  0  0  0  0
  -24.8756  -19.0279   20.7109 C   0  0  0  0  0  0  0  0  0  0  0  0
  -24.7224  -11.8623   19.8494 C   0  0  0  0  0  0  0  0  0  0  0  0
  -26.1839  -32.5009   22.8162 C   0  0  0  0  0  0  0  0  0  0  0  0
  -24.8459  -13.0437   18.8924 C   0  0  0  0  0  0  0  0  0  0  0  0
  -25.1081  -31.6118   23.4441 C   0  0  0  0  0  0  0  0  0  0  0  0
  -26.1875  -32.3965   21.2921 C   0  0  0  0  0  0  0  0  0  0  0  0
  -25.2031  -30.1403   21.3916 C   0  0  0  0  0  0  0  0  0  0  0  0
  -26.0552  -13.9172   19.2474 C   0  0  1  0  0  0  0  0  0  0  0  0
  -24.9008  -16.6735   21.5933 C   0  0  1  0  0  0  0  0  0  0  0  0
  -25.2036  -30.1623   22.9289 C   0  0  2  0  0  0  0  0  0  0  0  0
  -27.0895  -26.9752   17.9794 C   0  0  0  0  0  0  0  0  0  0  0  0
  -19.8009  -22.2178   23.3971 C   0  0  0  0  0  0  0  0  0  0  0  0
  -21.6749  -18.0644   18.5901 C   0  0  0  0  0  0  0  0  0  0  0  0
  -20.3073  -20.0336   19.3113 C   0  0  0  0  0  0  0  0  0  0  0  0
  -19.9210  -17.8002   20.3531 C   0  0  0  0  0  0  0  0  0  0  0  0
  -23.0930  -21.4977   25.1633 C   0  0  0  0  0  0  0  0  0  0  0  0
  -29.4393  -25.3257   17.4801 C   0  0  0  0  0  0  0  0  0  0  0  0
  -28.4968  -22.2044   19.4002 C   0  0  0  0  0  0  0  0  0  1  0  0
  -22.0146  -19.0933   20.9336 C   0  0  1  0  0  0  0  0  0  0  0  0
  -21.0153  -21.3871   23.7814 C   0  0  2  0  0  0  0  0  0  0  0  0
  -21.0077  -18.7479   19.8003 C   0  0  0  0  0  0  0  0  0  0  0  0
  -22.9578  -29.1482   22.8339 N   0  0  0  0  0  0  0  0  0  0  0  0
  -24.1106  -29.2856   23.5108 N   0  0  0  0  0  0  0  0  0  0  0  0
  -24.1479  -17.8971   21.3104 N   0  0  0  0  0  0  0  0  0  0  0  0
  -26.2846  -30.9952   20.8775 N   0  0  0  0  0  0  0  0  0  0  0  0
  -25.2324  -28.6152   25.4864 N   0  0  0  0  0  0  0  0  0  0  0  0
  -22.7899  -25.7250   25.7591 N   0  0  0  0  0  0  0  0  0  0  0  0
  -27.3591  -29.2246   19.7493 N   0  0  0  0  0  0  0  0  0  0  0  0
  -25.7550  -14.7568   20.3873 N   0  0  0  0  0  0  0  0  0  0  0  0
  -28.7726  -24.2062   18.1038 N   0  0  0  0  0  0  0  0  0  0  0  0
  -21.4062  -19.7169   22.1038 N   0  0  0  0  0  0  0  0  0  0  0  0
  -21.8733  -22.2006   24.6886 N   0  3  0  0  0  0  0  0  0  0  0  0
  -21.9098  -27.5352   26.8580 O   0  0  0  0  0  0  0  0  0  0  0  0
  -24.7136  -16.4991   19.2461 O   0  0  0  0  0  0  0  0  0  0  0  0
  -22.1133  -16.9456   21.9357 O   0  0  0  0  0  0  0  0  0  0  0  0
  -30.6431  -23.2642   19.1150 O   0  0  0  0  0  0  0  0  0  0  0  0
  -22.6761  -21.6563   22.0474 O   0  0  0  0  0  0  0  0  0  0  0  0
  -28.2147  -31.3792   19.6645 O   0  0  0  0  0  0  0  0  0  0  0  0
  -17.0852  -26.7987   22.0954 O   0  0  0  0  0  0  0  0  0  0  0  0
  -29.2076  -21.2374   20.1722 O   0  0  0  0  0  0  0  0  0  1  0  0
  -14.8118  -22.5162   24.7212 F   0  0  0  0  0  0  0  0  0  0  0  0
  -29.8085  -29.7693   20.9199 F   0  0  0  0  0  0  0  0  0  0  0  0
  -16.3114  -24.5345   20.7108 F   0  0  0  0  0  0  0  0  0  0  0  0
  1  2  1  0  0  0  0
  1  5  2  0  0  0  0
  2  6  2  0  0  0  0
  3  9  2  0  0  0  0
  3 17  1  0  0  0  0
  4 10  1  0  0  0  0
  4 17  2  0  0  0  0
  5 19  1  0  0  0  0
  6 21  1  0  0  0  0
  7 11  2  0  0  0  0
  7 20  1  0  0  0  0
  8 13  2  0  0  0  0
  8 23  1  0  0  0  0
  9 26  1  0  0  0  0
 10 26  2  0  0  0  0
 11 27  1  0  0  0  0
 12 14  2  0  0  0  0
 12 28  1  0  0  0  0
 13 30  1  0  0  0  0
 14 29  1  0  0  0  0
 15 22  1  0  0  0  0
 15 27  2  0  0  0  0
 16 29  2  0  0  0  0
 16 31  1  0  0  0  0
 17 32  1  0  0  0  0
 18 32  1  0  0  0  0
 18 33  2  0  0  0  0
 18 34  1  0  0  0  0
 19 21  2  0  0  0  0
 19 40  1  0  0  0  0
 20 22  2  0  0  0  0
 20 41  1  0  0  0  0
 21 49  1  0  0  0  0
 22 42  1  0  0  0  0
 23 24  2  0  0  0  0
 23 58  1  0  0  0  0
 24 25  1  0  0  0  0
 24 52  1  0  0  0  0
 25 30  2  0  0  0  0
 25 69  1  0  0  0  0
 26 80  1  0  0  0  0
 27 81  1  0  0  0  0
 28 31  2  0  0  0  0
 28 80  1  0  0  0  0
 29 82  1  0  0  0  0
 30 83  1  0  0  0  0
 31 84  1  0  0  0  0
 32 63  2  0  0  0  0
 33 64  1  0  0  0  0
 33 67  1  0  0  0  0
 34 68  1  0  0  0  0
 34 74  2  0  0  0  0
 35 50  1  0  0  0  0
 35 70  1  0  0  0  0
 35 75  2  0  0  0  0
 36 60  1  0  0  0  0
 36 65  1  0  0  0  0
 36 76  2  0  0  0  0
 37 59  1  0  0  0  0
 37 71  1  0  0  0  0
 37 77  2  0  0  0  0
 38 61  1  0  0  0  0
 38 72  1  0  0  0  0
 38 78  2  0  0  0  0
 39 66  1  0  0  0  0
 39 69  1  0  0  0  0
 39 79  2  0  0  0  0
 40 43  1  0  0  0  0
 41 50  1  0  0  0  0
 42 65  1  0  0  0  0
 43 45  1  0  0  0  0
 44 46  1  0  0  0  0
 44 47  1  0  0  0  0
 45 49  1  0  0  0  0
 46 51  1  0  0  0  0
 47 66  1  0  0  0  0
 48 51  1  0  0  0  0
 48 66  1  0  0  0  0
 49 70  1  0  0  0  0
 50 65  1  0  0  0  0
 51 64  1  0  0  0  0
 53 61  1  0  0  0  0
 54 62  1  0  0  0  0
 55 62  1  0  0  0  0
 56 62  1  0  0  0  0
 57 73  1  0  0  0  0
 58 71  1  0  0  0  0
 59 81  1  0  0  0  0
 60 62  1  0  0  0  0
 60 72  1  0  0  0  0
 61 73  1  0  0  0  0
 63 64  1  0  0  0  0
M  CHG  1  73   1
M  ISO  4  39 100  59 101  69 100  81 101
M  END
> <Batch ID>
0051

> <Smiles>
CNC(C)C(=O)NC(C(=O)N1Cc2cc([101O:1][101CH2:1]C(=O)NCc3ccc(F)c([100NH:0][100C:0](=O)N4CCCC(n5nc(-c6ccc(Oc7ccc(F)cc7F)cc6)c(C(N)=O)c5N)C4)c3C)ccc2CC1C(=O)NC1CCCc2ccccc21)C(C)(C)C

> <Shape>
0.239

> <Color>
0.068

> <Negative vol penalty>
0.000

$$$$

  -OEChem-04042322373D

 88 97  0     1  0  0  0  0  0999 V2000
  -18.9113  -29.0824   23.1099 C   0  0  0  0  0  0  0  0  0  0  0  0
  -18.8569  -28.1279   24.1193 C   0  0  0  0  0  0  0  0  0  0  0  0
  -31.0442  -19.5132   19.0566 C   0  0  0  0  0  0  0  0  0  0  0  0
  -28.9663  -19.1536   20.2356 C   0  0  0  0  0  0  0  0  0  0  0  0
  -19.2424  -28.7004   21.8117 C   0  0  0  0  0  0  0  0  0  0  0  0
  -19.1452  -26.7930   23.8332 C   0  0  0  0  0  0  0  0  0  0  0  0
  -20.1260  -19.0224   25.2038 C   0  0  0  0  0  0  0  0  0  0  0  0
  -30.5777  -20.7500   18.6115 C   0  0  0  0  0  0  0  0  0  0  0  0
  -28.4997  -20.3905   19.7905 C   0  0  0  0  0  0  0  0  0  0  0  0
  -20.1838  -17.7801   24.5736 C   0  0  0  0  0  0  0  0  0  0  0  0
  -30.0743  -24.1615   17.4611 C   0  0  0  0  0  0  0  0  0  0  0  0
  -30.9453  -25.2483   17.5360 C   0  0  0  0  0  0  0  0  0  0  0  0
  -21.9443  -18.5958   23.1402 C   0  0  0  0  0  0  0  0  0  0  0  0
  -24.0713  -10.6499   22.1643 C   0  0  0  0  0  0  0  0  0  0  0  0
  -24.4679   -9.0954   20.3579 C   0  0  0  0  0  0  0  0  0  0  0  0
  -31.0964  -24.9622   19.9303 C   0  0  0  0  0  0  0  0  0  0  0  0
  -30.2385  -18.7149   19.8686 C   0  0  0  0  0  0  0  0  0  0  0  0
  -31.8608  -17.1911   21.1151 C   0  0  0  0  0  0  0  0  0  0  0  0
  -19.5226  -27.3579   21.5078 C   0  0  0  0  0  0  0  0  0  0  0  0
  -20.9708  -20.0658   24.7989 C   0  0  0  0  0  0  0  0  0  0  0  0
  -19.5048  -26.3914   22.5340 C   0  0  0  0  0  0  0  0  0  0  0  0
  -21.8970  -19.8496   23.7686 C   0  0  0  0  0  0  0  0  0  0  0  0
  -24.9397   -9.8256   21.4488 C   0  0  0  0  0  0  0  0  0  0  0  0
  -22.7311  -10.7439   21.7892 C   0  0  0  0  0  0  0  0  0  0  0  0
  -22.2593  -10.0137   20.6983 C   0  0  0  0  0  0  0  0  0  0  0  0
  -29.3055  -21.1887   18.9785 C   0  0  0  0  0  0  0  0  0  0  0  0
  -21.0910  -17.5675   23.5397 C   0  0  0  0  0  0  0  0  0  0  0  0
  -29.7142  -23.4750   18.6207 C   0  0  0  0  0  0  0  0  0  0  0  0
  -31.4564  -25.6487   18.7706 C   0  0  0  0  0  0  0  0  0  0  0  0
  -30.2253  -23.8753   19.8553 C   0  0  0  0  0  0  0  0  0  0  0  0
  -23.1277   -9.1894   19.9827 C   0  0  0  0  0  0  0  0  0  0  0  0
  -30.7197  -17.4369   20.3282 C   0  0  0  0  0  0  0  0  0  0  0  0
  -31.8795  -15.8272   21.2762 C   0  0  0  0  0  0  0  0  0  0  0  0
  -20.2723  -13.4930   22.3867 C   0  0  0  0  0  0  0  0  0  0  0  0
  -19.1577  -13.3749   21.6493 C   0  0  0  0  0  0  0  0  0  0  0  0
  -32.8182  -18.1131   21.6525 C   0  0  0  0  0  0  0  0  0  0  0  0
  -20.5261  -22.9660   23.5761 C   0  0  0  0  0  0  0  0  0  0  0  0
  -23.7386  -23.1961   23.9630 C   0  0  0  0  0  0  0  0  0  0  0  0
  -26.6102  -21.0699   23.4627 C   0  0  0  0  0  0  0  0  0  0  0  0
  -27.5675  -11.7956   21.1805 C   0  0  0  0  0  0  0  0  0  0  0  0
  -19.8831  -27.0010   20.0873 C   0  0  0  0  0  0  0  0  0  0  0  0
  -20.9146  -21.3918   25.5067 C   0  0  0  0  0  0  0  0  0  0  0  0
  -22.8399  -20.9308   23.3100 C   0  0  0  0  0  0  0  0  0  0  0  0
  -20.3119  -14.2257   23.7029 C   0  0  0  0  0  0  0  0  0  0  0  0
  -19.7369  -25.5115   19.7932 C   0  0  0  0  0  0  0  0  0  0  0  0
  -30.5315  -11.7810   19.1039 C   0  0  0  0  0  0  0  0  0  0  0  0
  -20.4371  -24.6977   20.8712 C   0  0  0  0  0  0  0  0  0  0  0  0
  -31.0222  -13.2210   19.2641 C   0  0  0  0  0  0  0  0  0  0  0  0
  -22.7680  -14.6048   23.2304 C   0  0  0  0  0  0  0  0  0  0  0  0
  -29.0077  -11.7183   19.0562 C   0  0  0  0  0  0  0  0  0  0  0  0
  -28.8173  -13.7835   20.3875 C   0  0  0  0  0  0  0  0  0  0  0  0
  -22.5980  -13.9415   21.8644 C   0  0  0  0  0  0  0  0  0  0  0  0
  -19.7847  -24.9287   22.2401 C   0  0  1  0  0  0  0  0  0  0  0  0
  -21.4664  -22.5406   24.6682 C   0  0  1  0  0  0  0  0  0  0  0  0
  -30.3495  -13.9119   20.4651 C   0  0  2  0  0  0  0  0  0  0  0  0
  -21.4666  -15.2272   23.7359 C   0  0  1  0  0  0  0  0  0  1  0  0
  -20.8181  -10.1254   20.3092 C   0  0  0  0  0  0  0  0  0  0  0  0
  -28.8527  -21.0651   24.5890 C   0  0  0  0  0  0  0  0  0  0  0  0
  -24.5965  -24.9510   21.6189 C   0  0  0  0  0  0  0  0  0  0  0  0
  -26.7914  -23.7465   21.6109 C   0  0  0  0  0  0  0  0  0  0  0  0
  -26.1015  -25.0649   23.6130 C   0  0  0  0  0  0  0  0  0  0  0  0
  -26.3453  -18.2253   24.2356 C   0  0  0  0  0  0  0  0  0  0  0  0
  -26.3728   -9.7265   21.8499 C   0  0  0  0  0  0  0  0  0  0  0  0
  -21.8196  -11.6371   22.5780 C   0  0  0  0  0  0  0  0  0  0  0  0
  -24.9436  -22.8738   23.1126 C   0  0  1  0  0  0  0  0  0  0  0  0
  -27.4695  -20.4348   24.5410 C   0  0  2  0  0  0  0  0  0  0  0  0
  -25.5838  -24.1447   22.4862 C   0  0  0  0  0  0  0  0  0  0  0  0
  -30.0613  -16.3188   20.0112 N   0  0  0  0  0  0  0  0  0  0  0  0
  -30.7911  -15.3572   20.6019 N   0  0  0  0  0  0  0  0  0  0  0  0
  -22.7422  -22.2118   24.0290 N   0  0  0  0  0  0  0  0  0  0  0  0
  -28.4303  -12.3769   20.2365 N   0  0  0  0  0  0  0  0  0  0  0  0
  -32.7207  -14.9960   21.9273 N   0  0  0  0  0  0  0  0  0  0  0  0
  -32.5841  -18.6540   22.9241 N   0  0  0  0  0  0  0  0  0  0  0  0
  -20.5998  -24.3096   23.2620 N   0  0  0  0  0  0  0  0  0  0  0  0
  -25.8480  -22.1053   23.9610 N   0  0  0  0  0  0  0  0  0  0  0  0
  -27.2445  -10.4621   20.9612 N   0  0  0  0  0  0  0  0  0  0  0  0
  -21.4868  -12.9179   21.8638 N   0  3  1  0  0  0  0  0  0  0  0  0
  -27.6269  -18.9751   24.2850 N   0  3  0  0  0  0  0  0  0  0  0  0
  -33.8424  -18.4602   21.0168 O   0  0  0  0  0  0  0  0  0  0  0  0
  -19.7894  -22.1363   23.0560 O   0  0  0  0  0  0  0  0  0  0  0  0
  -23.6866  -24.2783   24.5527 O   0  0  0  0  0  0  0  0  0  0  0  0
  -26.6172  -20.6882   22.2945 O   0  0  0  0  0  0  0  0  0  0  0  0
  -27.1220  -12.4178   22.1509 O   0  0  0  0  0  0  0  0  0  0  0  0
  -28.8500  -22.3957   18.5446 O   0  0  0  0  0  0  0  0  0  0  0  0
  -21.1490  -16.3561   22.9225 O   0  0  0  0  0  0  0  0  0  1  0  0
  -32.2940  -26.6915   18.8422 F   0  0  0  0  0  0  0  0  0  0  0  0
  -29.8839  -23.2190   20.9727 F   0  0  0  0  0  0  0  0  0  0  0  0
  -22.5829   -8.2711   18.6258 Cl  0  0  0  0  0  0  0  0  0  0  0  0
  1  2  1  0  0  0  0
  1  5  2  0  0  0  0
  2  6  2  0  0  0  0
  3  8  2  0  0  0  0
  3 17  1  0  0  0  0
  4  9  1  0  0  0  0
  4 17  2  0  0  0  0
  5 19  1  0  0  0  0
  6 21  1  0  0  0  0
  7 10  2  0  0  0  0
  7 20  1  0  0  0  0
  8 26  1  0  0  0  0
  9 26  2  0  0  0  0
 10 27  1  0  0  0  0
 11 12  2  0  0  0  0
 11 28  1  0  0  0  0
 12 29  1  0  0  0  0
 13 22  1  0  0  0  0
 13 27  2  0  0  0  0
 14 23  2  0  0  0  0
 14 24  1  0  0  0  0
 15 23  1  0  0  0  0
 15 31  2  0  0  0  0
 16 29  2  0  0  0  0
 16 30  1  0  0  0  0
 17 32  1  0  0  0  0
 18 32  1  0  0  0  0
 18 33  2  0  0  0  0
 18 36  1  0  0  0  0
 19 21  2  0  0  0  0
 19 41  1  0  0  0  0
 20 22  2  0  0  0  0
 20 42  1  0  0  0  0
 21 53  1  0  0  0  0
 22 43  1  0  0  0  0
 23 63  1  0  0  0  0
 24 25  2  0  0  0  0
 24 64  1  0  0  0  0
 25 31  1  0  0  0  0
 25 57  1  0  0  0  0
 26 84  1  0  0  0  0
 27 85  1  0  0  0  0
 28 30  2  0  0  0  0
 28 84  1  0  0  0  0
 29 86  1  0  0  0  0
 30 87  1  0  0  0  0
 31 88  1  0  0  0  0
 32 68  2  0  0  0  0
 33 69  1  0  0  0  0
 33 72  1  0  0  0  0
 34 35  2  0  0  0  0
 34 44  1  0  0  0  0
 34 77  1  0  0  0  0
 36 73  1  0  0  0  0
 36 79  2  0  0  0  0
 37 54  1  0  0  0  0
 37 74  1  0  0  0  0
 37 80  2  0  0  0  0
 38 65  1  0  0  0  0
 38 70  1  0  0  0  0
 38 81  2  0  0  0  0
 39 66  1  0  0  0  0
 39 75  1  0  0  0  0
 39 82  2  0  0  0  0
 40 71  1  0  0  0  0
 40 76  1  0  0  0  0
 40 83  2  0  0  0  0
 41 45  1  0  0  0  0
 42 54  1  0  0  0  0
 43 70  1  0  0  0  0
 44 56  1  0  0  0  0
 45 47  1  0  0  0  0
 46 48  1  0  0  0  0
 46 50  1  0  0  0  0
 47 53  1  0  0  0  0
 48 55  1  0  0  0  0
 49 52  1  0  0  0  0
 49 56  1  0  0  0  0
 50 71  1  0  0  0  0
 51 55  1  0  0  0  0
 51 71  1  0  0  0  0
 52 77  1  0  0  0  0
 53 74  1  0  0  0  0
 54 70  1  0  0  0  0
 55 69  1  0  0  0  0
 56 85  1  0  0  0  0
 58 66  1  0  0  0  0
 59 67  1  0  0  0  0
 60 67  1  0  0  0  0
 61 67  1  0  0  0  0
 62 78  1  0  0  0  0
 63 76  1  0  0  0  0
 64 77  1  0  0  0  0
 65 67  1  0  0  0  0
 65 75  1  0  0  0  0
 66 78  1  0  0  0  0
 68 69  1  0  0  0  0
M  CHG  2  77   1  78   1
M  ISO  4  40 100  56 101  76 100  85 101
M  END
> <Batch ID>
0051

> <Smiles>
C=C1C[101CH:1]([101O:1]c2ccc3c(c2)CN(C(=O)C(NC(=O)C(C)NC)C(C)(C)C)C(C(=O)NC2CCCc4ccccc42)C3)CCN1Cc1cc(C[100NH:0][100C:0](=O)N2CCCC(n3nc(-c4ccc(Oc5ccc(F)cc5F)cc4)c(C(N)=O)c3N)C2)cc(Cl)c1C

> <Shape>
0.220

> <Color>
0.066

> <Negative vol penalty>
0.000

$$$$

  -OEChem-04042322373D

 87 96  0     1  0  0  0  0  0999 V2000
  -18.3137  -30.8649   15.0675 C   0  0  0  0  0  0  0  0  0  0  0  0
  -19.2340  -29.8766   14.7334 C   0  0  0  0  0  0  0  0  0  0  0  0
  -22.6675  -10.1985   20.1652 C   0  0  0  0  0  0  0  0  0  0  0  0
  -24.3239   -9.4129   21.7388 C   0  0  0  0  0  0  0  0  0  0  0  0
  -18.3835  -31.4886   16.3125 C   0  0  0  0  0  0  0  0  0  0  0  0
  -20.2255  -29.5122   15.6437 C   0  0  0  0  0  0  0  0  0  0  0  0
  -21.9448  -22.4995   18.6256 C   0  0  0  0  0  0  0  0  0  0  0  0
  -30.4854  -17.8198   24.2808 C   0  0  0  0  0  0  0  0  0  0  0  0
  -21.9333   -9.0276   20.3534 C   0  0  0  0  0  0  0  0  0  0  0  0
  -23.5897   -8.2419   21.9270 C   0  0  0  0  0  0  0  0  0  0  0  0
  -22.2429  -21.3396   19.3411 C   0  0  0  0  0  0  0  0  0  0  0  0
  -20.8466   -7.2731   23.6466 C   0  0  0  0  0  0  0  0  0  0  0  0
  -20.6652   -6.8271   24.9557 C   0  0  0  0  0  0  0  0  0  0  0  0
  -29.7167  -18.5659   25.1740 C   0  0  0  0  0  0  0  0  0  0  0  0
  -23.0893  -22.6737   21.1719 C   0  0  0  0  0  0  0  0  0  0  0  0
  -21.7870   -4.7590   24.4065 C   0  0  0  0  0  0  0  0  0  0  0  0
  -23.8628  -10.3912   20.8579 C   0  0  0  0  0  0  0  0  0  0  0  0
  -24.1967  -12.9198   20.9087 C   0  0  0  0  0  0  0  0  0  0  0  0
  -19.3704  -31.1249   17.2423 C   0  0  0  0  0  0  0  0  0  0  0  0
  -22.2039  -23.7526   19.1876 C   0  0  0  0  0  0  0  0  0  0  0  0
  -20.3094  -30.1326   16.9018 C   0  0  0  0  0  0  0  0  0  0  0  0
  -22.7813  -23.8391   20.4651 C   0  0  0  0  0  0  0  0  0  0  0  0
  -30.0164  -17.5789   22.9893 C   0  0  0  0  0  0  0  0  0  0  0  0
  -28.7787  -18.0840   22.5912 C   0  0  0  0  0  0  0  0  0  0  0  0
  -28.0100  -18.8302   23.4845 C   0  0  0  0  0  0  0  0  0  0  0  0
  -22.3944   -8.0493   21.2343 C   0  0  0  0  0  0  0  0  0  0  0  0
  -22.8140  -21.4265   20.6110 C   0  0  0  0  0  0  0  0  0  0  0  0
  -21.4981   -6.4621   22.7174 C   0  0  0  0  0  0  0  0  0  0  0  0
  -21.1354   -5.5700   25.3356 C   0  0  0  0  0  0  0  0  0  0  0  0
  -21.9683   -5.2050   23.0974 C   0  0  0  0  0  0  0  0  0  0  0  0
  -28.4790  -19.0711   24.7759 C   0  0  0  0  0  0  0  0  0  0  0  0
  -24.6220  -11.6004   20.6635 C   0  0  0  0  0  0  0  0  0  0  0  0
  -25.2764  -13.6974   20.5681 C   0  0  0  0  0  0  0  0  0  0  0  0
  -22.9383  -13.3995   21.4006 C   0  0  0  0  0  0  0  0  0  0  0  0
  -22.0464  -27.4811   18.8005 C   0  0  0  0  0  0  0  0  0  0  0  0
  -21.2602  -26.8521   21.6982 C   0  0  0  0  0  0  0  0  0  0  0  0
  -20.0455  -25.7116   24.6749 C   0  0  0  0  0  0  0  0  0  0  0  0
  -30.7616  -14.7212   20.6677 C   0  0  0  0  0  0  0  0  0  0  0  0
  -19.4351  -31.8605   18.5573 C   0  0  0  0  0  0  0  0  0  0  0  0
  -21.9560  -25.0275   18.4280 C   0  0  0  0  0  0  0  0  0  0  0  0
  -23.0745  -25.2080   21.0156 C   0  0  0  0  0  0  0  0  0  0  0  0
  -20.2855  -31.1534   19.6096 C   0  0  0  0  0  0  0  0  0  0  0  0
  -29.5579  -12.5090   18.1510 C   0  0  0  0  0  0  0  0  0  0  0  0
  -21.6108  -30.6982   19.0071 C   0  0  0  0  0  0  0  0  0  0  0  0
  -28.1344  -12.1796   18.6038 C   0  0  0  0  0  0  0  0  0  0  0  0
  -24.3305  -18.9894   22.8933 C   0  0  0  0  0  0  0  0  0  0  0  0
  -25.4764  -20.6651   21.4407 C   0  0  0  0  0  0  0  0  0  0  0  0
  -30.5098  -12.6469   19.3371 C   0  0  0  0  0  0  0  0  0  0  0  0
  -25.5576  -18.9224   23.7966 C   0  0  0  0  0  0  0  0  0  0  0  0
  -28.6486  -13.2698   20.8277 C   0  0  0  0  0  0  0  0  0  0  0  0
  -21.3842  -29.6924   17.8719 C   0  0  1  0  0  0  0  0  0  0  0  0
  -21.4991  -26.1882   19.3299 C   0  0  1  0  0  0  0  0  0  0  0  0
  -27.6404  -13.1761   19.6697 C   0  0  2  0  0  0  0  0  0  0  0  0
  -24.1985  -20.3417   22.2078 C   0  0  1  0  0  0  0  0  0  1  0  0
  -26.7351  -20.6005   22.3166 C   0  0  1  0  0  0  0  0  0  0  0  0
  -28.2834  -17.8212   21.2031 C   0  0  0  0  0  0  0  0  0  0  0  0
  -26.8261  -21.7953   23.2720 C   0  0  0  0  0  0  0  0  0  0  0  0
  -19.1202  -26.5182   26.8637 C   0  0  0  0  0  0  0  0  0  0  0  0
  -24.0725  -27.6111   22.6033 C   0  0  0  0  0  0  0  0  0  0  0  0
  -23.2682  -27.4838   24.9708 C   0  0  0  0  0  0  0  0  0  0  0  0
  -22.2684  -29.1472   23.4035 C   0  0  0  0  0  0  0  0  0  0  0  0
  -17.4626  -24.3402   24.2208 C   0  0  0  0  0  0  0  0  0  0  0  0
  -30.8604  -16.7781   22.0528 C   0  0  0  0  0  0  0  0  0  0  0  0
  -21.7158  -26.6956   23.1269 C   0  0  1  0  0  0  0  0  0  0  0  0
  -18.7890  -26.0623   25.4511 C   0  0  2  0  0  0  0  0  0  0  0  0
  -22.8287  -27.7120   23.5088 C   0  0  0  0  0  0  0  0  0  0  0  0
  -25.8741  -11.5394   20.2024 N   0  0  0  0  0  0  0  0  0  0  0  0
  -26.2448  -12.8303   20.1552 N   0  0  0  0  0  0  0  0  0  0  0  0
  -26.7685  -19.3327   23.0745 N   0  0  1  0  0  0  0  0  0  0  0  0
  -21.9525  -26.1156   20.7292 N   0  0  0  0  0  0  0  0  0  0  0  0
  -29.9839  -13.6074   20.3102 N   0  0  0  0  0  0  0  0  0  0  0  0
  -25.4823  -15.0315   20.5843 N   0  0  0  0  0  0  0  0  0  0  0  0
  -22.7733  -13.5442   22.7849 N   0  0  0  0  0  0  0  0  0  0  0  0
  -21.0766  -28.3844   18.4094 N   0  0  0  0  0  0  0  0  0  0  0  0
  -20.5151  -26.7868   23.9506 N   0  0  0  0  0  0  0  0  0  0  0  0
  -30.1860  -15.5852   21.5913 N   0  0  0  0  0  0  0  0  0  0  0  0
  -17.8870  -24.8792   25.5385 N   0  3  0  0  0  0  0  0  0  0  0  0
  -21.9828  -13.6757   20.6362 O   0  0  0  0  0  0  0  0  0  0  0  0
  -23.2593  -27.6487   18.7513 O   0  0  0  0  0  0  0  0  0  0  0  0
  -20.3201  -27.6105   21.4445 O   0  0  0  0  0  0  0  0  0  0  0  0
  -20.5612  -24.5966   24.7108 O   0  0  0  0  0  0  0  0  0  0  0  0
  -31.8833  -14.9329   20.1947 O   0  0  0  0  0  0  0  0  0  0  0  0
  -21.6782   -6.9066   21.4183 O   0  0  0  0  0  0  0  0  0  0  0  0
  -23.0983  -20.2903   21.3059 O   0  0  0  0  0  0  0  0  0  1  0  0
  -20.9625   -5.1425   26.5932 F   0  0  0  0  0  0  0  0  0  0  0  0
  -22.5961   -4.4218   22.2094 F   0  0  0  0  0  0  0  0  0  0  0  0
  -27.5616  -19.9895   25.9164 Cl  0  0  0  0  0  0  0  0  0  0  0  0
  1  2  1  0  0  0  0
  1  5  2  0  0  0  0
  2  6  2  0  0  0  0
  3  9  2  0  0  0  0
  3 17  1  0  0  0  0
  4 10  1  0  0  0  0
  4 17  2  0  0  0  0
  5 19  1  0  0  0  0
  6 21  1  0  0  0  0
  7 11  2  0  0  0  0
  7 20  1  0  0  0  0
  8 14  1  0  0  0  0
  8 23  2  0  0  0  0
  9 26  1  0  0  0  0
 10 26  2  0  0  0  0
 11 27  1  0  0  0  0
 12 13  2  0  0  0  0
 12 28  1  0  0  0  0
 13 29  1  0  0  0  0
 14 31  2  0  0  0  0
 15 22  1  0  0  0  0
 15 27  2  0  0  0  0
 16 29  2  0  0  0  0
 16 30  1  0  0  0  0
 17 32  1  0  0  0  0
 18 32  1  0  0  0  0
 18 33  2  0  0  0  0
 18 34  1  0  0  0  0
 19 21  2  0  0  0  0
 19 39  1  0  0  0  0
 20 22  2  0  0  0  0
 20 40  1  0  0  0  0
 21 51  1  0  0  0  0
 22 41  1  0  0  0  0
 23 24  1  0  0  0  0
 23 63  1  0  0  0  0
 24 25  2  0  0  0  0
 24 56  1  0  0  0  0
 25 31  1  0  0  0  0
 25 69  1  0  0  0  0
 26 83  1  0  0  0  0
 27 84  1  0  0  0  0
 28 30  2  0  0  0  0
 28 83  1  0  0  0  0
 29 85  1  0  0  0  0
 30 86  1  0  0  0  0
 31 87  1  0  0  0  0
 32 67  2  0  0  0  0
 33 68  1  0  0  0  0
 33 72  1  0  0  0  0
 34 73  1  0  0  0  0
 34 78  2  0  0  0  0
 35 52  1  0  0  0  0
 35 74  1  0  0  0  0
 35 79  2  0  0  0  0
 36 64  1  0  0  0  0
 36 70  1  0  0  0  0
 36 80  2  0  0  0  0
 37 65  1  0  0  0  0
 37 75  1  0  0  0  0
 37 81  2  0  0  0  0
 38 71  1  0  0  0  0
 38 76  1  0  0  0  0
 38 82  2  0  0  0  0
 39 42  1  0  0  0  0
 40 52  1  0  0  0  0
 41 70  1  0  0  0  0
 42 44  1  0  0  0  0
 43 45  1  0  0  0  0
 43 48  1  0  0  0  0
 44 51  1  0  0  0  0
 45 53  1  0  0  0  0
 46 49  1  0  0  0  0
 46 54  1  0  0  0  0
 47 54  1  0  0  0  0
 47 55  1  0  0  0  0
 48 71  1  0  0  0  0
 49 69  1  0  0  0  0
 50 53  1  0  0  0  0
 50 71  1  0  0  0  0
 51 74  1  0  0  0  0
 52 70  1  0  0  0  0
 53 68  1  0  0  0  0
 54 84  1  0  0  0  0
 55 57  1  0  0  0  0
 55 69  1  0  0  0  0
 58 65  1  0  0  0  0
 59 66  1  0  0  0  0
 60 66  1  0  0  0  0
 61 66  1  0  0  0  0
 62 77  1  0  0  0  0
 63 76  1  0  0  0  0
 64 66  1  0  0  0  0
 64 75  1  0  0  0  0
 65 77  1  0  0  0  0
 67 68  1  0  0  0  0
M  CHG  1  77   1
M  ISO  4  38 100  54 101  76 100  84 101
M  END
> <Batch ID>
0051

> <Smiles>
CNC(C)C(=O)NC(C(=O)N1Cc2cc([101O:1][101CH:1]3CCN(c4c(Cl)ccc(C[100NH:0][100C:0](=O)N5CCCC(n6nc(-c7ccc(Oc8ccc(F)cc8F)cc7)c(C(N)=O)c6N)C5)c4C)C(C)C3)ccc2CC1C(=O)NC1CCCc2ccccc21)C(C)(C)C

> <Shape>
0.231

> <Color>
0.183

> <Negative vol penalty>
0.000

$$$$

  -OEChem-04042322373D

 89 97  0     1  0  0  0  0  0999 V2000
  -25.2547  -28.5462   21.2217 C   0  0  0  0  0  0  0  0  0  0  0  0
  -24.9333  -27.3284   20.6308 C   0  0  0  0  0  0  0  0  0  0  0  0
  -21.1214  -23.8868   23.6521 C   0  0  0  0  0  0  0  0  0  0  0  0
  -21.0427  -22.8546   21.4691 C   0  0  0  0  0  0  0  0  0  0  0  0
  -26.5773  -28.9874   21.2315 C   0  0  0  0  0  0  0  0  0  0  0  0
  -25.9342  -26.5516   20.0484 C   0  0  0  0  0  0  0  0  0  0  0  0
  -25.5579  -21.6545   21.2820 C   0  0  0  0  0  0  0  0  0  0  0  0
  -25.9455  -12.3835   22.0310 C   0  0  0  0  0  0  0  0  0  0  0  0
  -20.8312  -25.1242   23.0775 C   0  0  0  0  0  0  0  0  0  0  0  0
  -20.7524  -24.0920   20.8945 C   0  0  0  0  0  0  0  0  0  0  0  0
  -24.5941  -20.9015   20.6127 C   0  0  0  0  0  0  0  0  0  0  0  0
  -18.1064  -26.7511   21.9106 C   0  0  0  0  0  0  0  0  0  0  0  0
  -26.2339  -11.8118   20.7919 C   0  0  0  0  0  0  0  0  0  0  0  0
  -17.1448  -27.5459   22.5344 C   0  0  0  0  0  0  0  0  0  0  0  0
  -26.3026  -20.0219   19.1545 C   0  0  0  0  0  0  0  0  0  0  0  0
  -24.3159  -12.9242   19.8322 C   0  0  0  0  0  0  0  0  0  0  0  0
  -18.7897  -29.2866   22.8525 C   0  0  0  0  0  0  0  0  0  0  0  0
  -21.2272  -22.7519   22.8479 C   0  0  0  0  0  0  0  0  0  0  0  0
  -20.6079  -20.5231   23.9232 C   0  0  0  0  0  0  0  0  0  0  0  0
  -27.5963  -28.2111   20.6574 C   0  0  0  0  0  0  0  0  0  0  0  0
  -26.9019  -21.6051   20.8848 C   0  0  0  0  0  0  0  0  0  0  0  0
  -27.2714  -26.9835   20.0493 C   0  0  0  0  0  0  0  0  0  0  0  0
  -27.2819  -20.7732   19.8219 C   0  0  0  0  0  0  0  0  0  0  0  0
  -24.8422  -13.2255   22.1709 C   0  0  0  0  0  0  0  0  0  0  0  0
  -24.0274  -13.4959   21.0714 C   0  0  0  0  0  0  0  0  0  0  0  0
  -20.6467  -25.2268   21.6987 C   0  0  0  0  0  0  0  0  0  0  0  0
  -24.9659  -20.0873   19.5469 C   0  0  0  0  0  0  0  0  0  0  0  0
  -19.4098  -27.2240   21.7579 C   0  0  0  0  0  0  0  0  0  0  0  0
  -25.4191  -12.0822   19.6925 C   0  0  0  0  0  0  0  0  0  0  0  0
  -17.4864  -28.8137   23.0053 C   0  0  0  0  0  0  0  0  0  0  0  0
  -19.7514  -28.4918   22.2287 C   0  0  0  0  0  0  0  0  0  0  0  0
  -21.5276  -21.4735   23.4408 C   0  0  0  0  0  0  0  0  0  0  0  0
  -21.3895  -19.4911   24.3820 C   0  0  0  0  0  0  0  0  0  0  0  0
  -19.1198  -13.6619   21.9902 C   0  0  0  0  0  0  0  0  0  0  0  0
  -23.3312  -15.9944   18.9869 C   0  0  0  0  0  0  0  0  0  0  0  0
  -19.6790  -14.0284   20.8315 C   0  0  0  0  0  0  0  0  0  0  0  0
  -23.3083  -17.1599   18.3252 C   0  0  0  0  0  0  0  0  0  0  0  0
  -19.1752  -20.5689   23.9537 C   0  0  0  0  0  0  0  0  0  0  0  0
  -22.1521  -15.0826   18.9300 C   0  0  0  0  0  0  0  0  0  0  0  0
  -28.9893  -23.7245   19.7648 C   0  0  0  0  0  0  0  0  0  0  0  0
  -31.0686  -21.2529   20.0651 C   0  0  0  0  0  0  0  0  0  0  0  0
  -31.5551  -17.8786   20.2205 C   0  0  0  0  0  0  0  0  0  0  0  0
  -25.7058  -16.0079   23.7633 C   0  0  0  0  0  0  0  0  0  0  0  0
  -29.0043  -28.7517   20.6505 C   0  0  0  0  0  0  0  0  0  0  0  0
  -27.9336  -22.4029   21.6342 C   0  0  0  0  0  0  0  0  0  0  0  0
  -28.7147  -20.6692   19.3695 C   0  0  0  0  0  0  0  0  0  0  0  0
  -30.0613  -27.6941   20.3430 C   0  0  0  0  0  0  0  0  0  0  0  0
  -26.3854  -19.2252   25.1286 C   0  0  0  0  0  0  0  0  0  0  0  0
  -29.6397  -26.8508   19.1440 C   0  0  0  0  0  0  0  0  0  0  0  0
  -25.1092  -20.0197   24.8455 C   0  0  0  0  0  0  0  0  0  0  0  0
  -26.7129  -18.2596   23.9918 C   0  0  0  0  0  0  0  0  0  0  0  0
  -24.3401  -18.1408   23.3365 C   0  0  0  0  0  0  0  0  0  0  0  0
  -28.3328  -26.1009   19.4291 C   0  0  1  0  0  0  0  0  0  0  0  0
  -29.1929  -22.6699   20.8155 C   0  0  1  0  0  0  0  0  0  0  0  0
  -23.9381  -19.0880   24.4800 C   0  0  2  0  0  0  0  0  0  0  0  0
  -33.3694  -16.1575   20.4297 C   0  0  0  0  0  0  0  0  0  0  0  0
  -31.8219  -21.6950   17.1415 C   0  0  0  0  0  0  0  0  0  0  0  0
  -32.8782  -19.4251   17.1429 C   0  0  0  0  0  0  0  0  0  0  0  0
  -33.7528  -21.2068   18.6539 C   0  0  0  0  0  0  0  0  0  0  0  0
  -30.4394  -16.8425   22.7583 C   0  0  0  0  0  0  0  0  0  0  0  0
  -24.5530  -13.8250   23.5078 C   0  0  0  0  0  0  0  0  0  0  0  0
  -22.8335  -14.3974   21.1978 C   0  0  0  0  0  0  0  0  0  0  0  0
  -20.8409  -13.3265   20.2086 C   0  0  0  0  0  0  0  0  0  0  0  0
  -24.4547  -18.1189   18.3140 C   0  0  0  0  0  0  0  0  0  1  0  0
  -31.5263  -20.1262   19.1707 C   0  0  1  0  0  0  0  0  0  0  0  0
  -32.3641  -17.0205   21.1763 C   0  0  2  0  0  0  0  0  0  0  0  0
  -32.4674  -20.6165   18.0343 C   0  0  0  0  0  0  0  0  0  0  0  0
  -22.7964  -21.0804   23.5804 N   0  0  0  0  0  0  0  0  0  0  0  0
  -22.6796  -19.8715   24.1557 N   0  0  0  0  0  0  0  0  0  0  0  0
  -29.6855  -21.4735   20.1299 N   0  0  0  0  0  0  0  0  0  0  0  0
  -25.5617  -17.4035   23.6957 N   0  0  0  0  0  0  0  0  0  0  0  0
  -21.0923  -18.3045   24.9530 N   0  0  0  0  0  0  0  0  0  0  0  0
  -18.5320  -21.7037   23.4411 N   0  0  0  0  0  0  0  0  0  0  0  0
  -28.5844  -24.9470   20.2657 N   0  0  0  0  0  0  0  0  0  0  0  0
  -32.1212  -19.1242   20.0485 N   0  0  0  0  0  0  0  0  0  0  0  0
  -24.5641  -15.2706   23.4741 N   0  0  0  0  0  0  0  0  0  0  0  0
  -21.9381  -14.2800   20.0541 N   0  0  0  0  0  0  0  0  0  0  0  0
  -31.4641  -16.1251   21.9568 N   0  3  0  0  0  0  0  0  0  0  0  0
  -18.4864  -19.6384   24.4366 O   0  0  0  0  0  0  0  0  0  0  0  0
  -21.4498  -15.0542   17.9182 O   0  0  0  0  0  0  0  0  0  0  0  0
  -29.1865  -23.4498   18.5869 O   0  0  0  0  0  0  0  0  0  0  0  0
  -31.9069  -21.9085   20.6889 O   0  0  0  0  0  0  0  0  0  0  0  0
  -30.5262  -17.4823   19.6776 O   0  0  0  0  0  0  0  0  0  0  0  0
  -26.7715  -15.4597   24.0646 O   0  0  0  0  0  0  0  0  0  0  0  0
  -20.3632  -26.4341   21.1377 O   0  0  0  0  0  0  0  0  0  0  0  0
  -24.0271  -19.3518   18.8915 O   0  0  0  0  0  0  0  0  0  1  0  0
  -25.6963  -11.5338   18.5023 F   0  0  0  0  0  0  0  0  0  0  0  0
  -16.5624  -29.5774   23.6028 F   0  0  0  0  0  0  0  0  0  0  0  0
  -21.0016  -28.9520   22.0838 F   0  0  0  0  0  0  0  0  0  0  0  0
  1  2  1  0  0  0  0
  1  5  2  0  0  0  0
  2  6  2  0  0  0  0
  3  9  2  0  0  0  0
  3 18  1  0  0  0  0
  4 10  1  0  0  0  0
  4 18  2  0  0  0  0
  5 20  1  0  0  0  0
  6 22  1  0  0  0  0
  7 11  2  0  0  0  0
  7 21  1  0  0  0  0
  8 13  2  0  0  0  0
  8 24  1  0  0  0  0
  9 26  1  0  0  0  0
 10 26  2  0  0  0  0
 11 27  1  0  0  0  0
 12 14  2  0  0  0  0
 12 28  1  0  0  0  0
 13 29  1  0  0  0  0
 14 30  1  0  0  0  0
 15 23  1  0  0  0  0
 15 27  2  0  0  0  0
 16 25  1  0  0  0  0
 16 29  2  0  0  0  0
 17 30  2  0  0  0  0
 17 31  1  0  0  0  0
 18 32  1  0  0  0  0
 19 32  1  0  0  0  0
 19 33  2  0  0  0  0
 19 38  1  0  0  0  0
 20 22  2  0  0  0  0
 20 44  1  0  0  0  0
 21 23  2  0  0  0  0
 21 45  1  0  0  0  0
 22 53  1  0  0  0  0
 23 46  1  0  0  0  0
 24 25  2  0  0  0  0
 24 61  1  0  0  0  0
 25 62  1  0  0  0  0
 26 85  1  0  0  0  0
 27 86  1  0  0  0  0
 28 31  2  0  0  0  0
 28 85  1  0  0  0  0
 29 87  1  0  0  0  0
 30 88  1  0  0  0  0
 31 89  1  0  0  0  0
 32 68  2  0  0  0  0
 33 69  1  0  0  0  0
 33 72  1  0  0  0  0
 34 36  2  0  0  0  0
 35 37  2  0  0  0  0
 35 39  1  0  0  0  0
 36 63  1  0  0  0  0
 37 64  1  0  0  0  0
 38 73  1  0  0  0  0
 38 79  2  0  0  0  0
 39 77  1  0  0  0  0
 39 80  2  0  0  0  0
 40 54  1  0  0  0  0
 40 74  1  0  0  0  0
 40 81  2  0  0  0  0
 41 65  1  0  0  0  0
 41 70  1  0  0  0  0
 41 82  2  0  0  0  0
 42 66  1  0  0  0  0
 42 75  1  0  0  0  0
 42 83  2  0  0  0  0
 43 71  1  0  0  0  0
 43 76  1  0  0  0  0
 43 84  2  0  0  0  0
 44 47  1  0  0  0  0
 45 54  1  0  0  0  0
 46 70  1  0  0  0  0
 47 49  1  0  0  0  0
 48 50  1  0  0  0  0
 48 51  1  0  0  0  0
 49 53  1  0  0  0  0
 50 55  1  0  0  0  0
 51 71  1  0  0  0  0
 52 55  1  0  0  0  0
 52 71  1  0  0  0  0
 53 74  1  0  0  0  0
 54 70  1  0  0  0  0
 55 69  1  0  0  0  0
 56 66  1  0  0  0  0
 57 67  1  0  0  0  0
 58 67  1  0  0  0  0
 59 67  1  0  0  0  0
 60 78  1  0  0  0  0
 61 76  1  0  0  0  0
 62 77  1  0  0  0  0
 63 77  1  0  0  0  0
 64 86  1  0  0  0  0
 65 67  1  0  0  0  0
 65 75  1  0  0  0  0
 66 78  1  0  0  0  0
 68 69  1  0  0  0  0
M  CHG  1  78   1
M  ISO  4  43 100  64 101  76 100  86 101
M  END
> <Batch ID>
0051

> <Smiles>
C=CCN(Cc1cc(F)ccc1C[100NH:0][100C:0](=O)N1CCCC(n2nc(-c3ccc(Oc4ccc(F)cc4F)cc3)c(C(N)=O)c2N)C1)C(=O)C=C[101CH2:1][101O:1]c1ccc2c(c1)CN(C(=O)C(NC(=O)C(C)NC)C(C)(C)C)C(C(=O)NC1CCCc3ccccc31)C2

> <Shape>
0.204

> <Color>
0.066

> <Negative vol penalty>
0.000

$$$$

  -OEChem-04042322373D

 92102  0     1  0  0  0  0  0999 V2000
  -16.7715  -26.8907   21.7742 C   0  0  0  0  0  0  0  0  0  0  0  0
  -17.9774  -26.8150   21.0846 C   0  0  0  0  0  0  0  0  0  0  0  0
  -25.1894  -14.5744   21.8993 C   0  0  0  0  0  0  0  0  0  0  0  0
  -25.6032  -13.5494   19.7510 C   0  0  0  0  0  0  0  0  0  0  0  0
  -16.6556  -27.7270   22.8837 C   0  0  0  0  0  0  0  0  0  0  0  0
  -19.0678  -27.5765   21.5036 C   0  0  0  0  0  0  0  0  0  0  0  0
  -23.3802  -24.9224   21.5697 C   0  0  0  0  0  0  0  0  0  0  0  0
  -29.1915  -24.5511   19.7236 C   0  0  0  0  0  0  0  0  0  0  0  0
  -33.9519  -21.1838   18.2272 C   0  0  0  0  0  0  0  0  0  0  0  0
  -33.9800  -22.5751   18.1318 C   0  0  0  0  0  0  0  0  0  0  0  0
  -24.2207  -13.6090   22.1734 C   0  0  0  0  0  0  0  0  0  0  0  0
  -24.6345  -12.5839   20.0251 C   0  0  0  0  0  0  0  0  0  0  0  0
  -24.0121  -24.7038   20.3463 C   0  0  0  0  0  0  0  0  0  0  0  0
  -27.7972  -24.5725   19.7426 C   0  0  0  0  0  0  0  0  0  0  0  0
  -24.3960   -9.7411   21.8367 C   0  0  0  0  0  0  0  0  0  0  0  0
  -24.7077   -8.4124   21.5486 C   0  0  0  0  0  0  0  0  0  0  0  0
  -27.7873  -25.9564   17.7618 C   0  0  0  0  0  0  0  0  0  0  0  0
  -25.5454  -26.5039   20.8235 C   0  0  0  0  0  0  0  0  0  0  0  0
  -22.8392   -8.3054   20.0208 C   0  0  0  0  0  0  0  0  0  0  0  0
  -25.8807  -14.5446   20.6881 C   0  0  0  0  0  0  0  0  0  0  0  0
  -28.2558  -15.4755   20.7005 C   0  0  0  0  0  0  0  0  0  0  0  0
  -17.7480  -28.4918   23.3223 C   0  0  0  0  0  0  0  0  0  0  0  0
  -23.8200  -25.9423   22.4258 C   0  0  0  0  0  0  0  0  0  0  0  0
  -29.8885  -25.2205   18.7128 C   0  0  0  0  0  0  0  0  0  0  0  0
  -18.9660  -28.4248   22.6192 C   0  0  0  0  0  0  0  0  0  0  0  0
  -29.1856  -25.9258   17.7279 C   0  0  0  0  0  0  0  0  0  0  0  0
  -24.9189  -26.7318   22.0583 C   0  0  0  0  0  0  0  0  0  0  0  0
  -33.1318  -20.4428   17.3764 C   0  0  0  0  0  0  0  0  0  0  0  0
  -33.1878  -23.2254   17.1856 C   0  0  0  0  0  0  0  0  0  0  0  0
  -32.3396  -21.0931   16.4302 C   0  0  0  0  0  0  0  0  0  0  0  0
  -23.9432  -12.6137   21.2363 C   0  0  0  0  0  0  0  0  0  0  0  0
  -25.0930  -25.4965   19.9717 C   0  0  0  0  0  0  0  0  0  0  0  0
  -27.0960  -25.2740   18.7629 C   0  0  0  0  0  0  0  0  0  1  0  0
  -23.3058  -10.3520   21.2169 C   0  0  0  0  0  0  0  0  0  0  0  0
  -23.9293   -7.6946   20.6407 C   0  0  0  0  0  0  0  0  0  0  0  0
  -22.5274   -9.6341   20.3089 C   0  0  0  0  0  0  0  0  0  0  0  0
  -32.3676  -22.4844   16.3348 C   0  0  0  0  0  0  0  0  0  0  0  0
  -26.8811  -15.5419   20.4042 C   0  0  0  0  0  0  0  0  0  0  0  0
  -28.7657  -16.6616   20.2319 C   0  0  0  0  0  0  0  0  0  0  0  0
  -31.2811  -26.0501   16.3112 C   0  0  0  0  0  0  0  0  0  0  0  0
  -29.0048  -14.4346   21.3419 C   0  0  0  0  0  0  0  0  0  0  0  0
  -22.5198  -28.5865   23.6178 C   0  0  0  0  0  0  0  0  0  0  0  0
  -25.2873  -28.7201   25.3047 C   0  0  0  0  0  0  0  0  0  0  0  0
  -28.5750  -27.8390   25.5519 C   0  0  0  0  0  0  0  0  0  0  0  0
  -29.1106  -20.5879   16.2809 C   0  0  0  0  0  0  0  0  0  0  0  0
  -29.9589  -26.6910   16.6928 C   0  0  0  0  0  0  0  0  0  0  0  0
  -17.5607  -29.4172   24.4984 C   0  0  0  0  0  0  0  0  0  0  0  0
  -23.1445  -26.1478   23.7539 C   0  0  0  0  0  0  0  0  0  0  0  0
  -31.3870  -25.2568   18.6814 C   0  0  0  0  0  0  0  0  0  0  0  0
  -25.4427  -27.8264   22.9505 C   0  0  0  0  0  0  0  0  0  0  0  0
  -18.8740  -29.9075   25.1027 C   0  0  0  0  0  0  0  0  0  0  0  0
  -26.4224  -20.8375   18.6020 C   0  0  0  0  0  0  0  0  0  0  0  0
  -19.8269  -30.3700   24.0051 C   0  0  0  0  0  0  0  0  0  0  0  0
  -26.4117  -19.4750   19.2973 C   0  0  0  0  0  0  0  0  0  0  0  0
  -26.7846  -20.7139   17.1237 C   0  0  0  0  0  0  0  0  0  0  0  0
  -28.0322  -18.6312   17.5478 C   0  0  0  0  0  0  0  0  0  0  0  0
  -20.1788  -29.2165   23.0579 C   0  0  1  0  0  0  0  0  0  0  0  0
  -23.3514  -27.5498   24.3188 C   0  0  1  0  0  0  0  0  0  0  0  0
  -27.7268  -18.7107   19.0533 C   0  0  2  0  0  0  0  0  0  0  0  0
  -33.1192  -18.9542   17.4977 C   0  0  0  0  0  0  0  0  0  0  0  0
  -30.5868  -28.1286   27.0237 C   0  0  0  0  0  0  0  0  0  0  0  0
  -25.6474  -31.5602   24.2493 C   0  0  0  0  0  0  0  0  0  0  0  0
  -28.0488  -31.4405   24.9471 C   0  0  0  0  0  0  0  0  0  0  0  0
  -26.2438  -31.2595   26.6593 C   0  0  0  0  0  0  0  0  0  0  0  0
  -28.7758  -24.9281   26.0474 C   0  0  0  0  0  0  0  0  0  0  0  0
  -33.2204  -24.7232   17.0866 C   0  0  0  0  0  0  0  0  0  0  0  0
  -31.4543  -20.3168   15.5110 C   0  0  0  0  0  0  0  0  0  0  0  0
  -26.6496  -29.3295   25.0773 C   0  0  1  0  0  0  0  0  0  0  0  0
  -29.3793  -27.2616   26.7026 C   0  0  2  0  0  0  0  0  0  0  0  0
  -26.6366  -30.8782   25.2154 C   0  0  0  0  0  0  0  0  0  0  0  0
  -26.5395  -16.6802   19.7947 N   0  0  0  0  0  0  0  0  0  0  0  0
  -27.7067  -17.3401   19.7043 N   0  0  0  0  0  0  0  0  0  0  0  0
  -31.9095  -25.3128   17.3153 N   0  0  0  0  0  0  0  0  0  0  0  0
  -24.7447  -27.9926   24.2360 N   0  0  0  0  0  0  0  0  0  0  0  0
  -28.0423  -19.9806   16.9614 N   0  0  0  0  0  0  0  0  0  0  0  0
  -30.0122  -17.1799   20.2238 N   0  0  0  0  0  0  0  0  0  0  0  0
  -28.3246  -13.2831   21.7611 N   0  0  0  0  0  0  0  0  0  0  0  0
  -21.1602  -28.3443   23.6664 N   0  0  0  0  0  0  0  0  0  0  0  0
  -27.5575  -28.6551   25.9988 N   0  0  0  0  0  0  0  0  0  0  0  0
  -30.2683  -19.8265   16.1772 N   0  0  0  0  0  0  0  0  0  0  0  0
  -29.8607  -25.8928   26.3627 N   0  3  0  0  0  0  0  0  0  0  0  0
  -31.7462  -26.2325   15.1842 O   0  0  0  0  0  0  0  0  0  0  0  0
  -30.2377  -14.5301   21.5522 O   0  0  0  0  0  0  0  0  0  0  0  0
  -23.0708  -29.5368   23.0745 O   0  0  0  0  0  0  0  0  0  0  0  0
  -24.7284  -28.8776   26.3931 O   0  0  0  0  0  0  0  0  0  0  0  0
  -28.8267  -27.5937   24.3742 O   0  0  0  0  0  0  0  0  0  0  0  0
  -29.0398  -21.7264   15.8059 O   0  0  0  0  0  0  0  0  0  0  0  0
  -22.9981  -11.6714   21.5034 O   0  0  0  0  0  0  0  0  0  0  0  0
  -25.7112  -25.2856   18.7779 O   0  0  0  0  0  0  0  0  0  1  0  0
  -24.2297   -6.4191   20.3629 F   0  0  0  0  0  0  0  0  0  0  0  0
  -21.4796  -10.2159   19.7095 F   0  0  0  0  0  0  0  0  0  0  0  0
  -31.6056  -23.1105   15.4256 F   0  0  0  0  0  0  0  0  0  0  0  0
  1  2  1  0  0  0  0
  1  5  2  0  0  0  0
  2  6  2  0  0  0  0
  3 11  2  0  0  0  0
  3 20  1  0  0  0  0
  4 12  1  0  0  0  0
  4 20  2  0  0  0  0
  5 22  1  0  0  0  0
  6 25  1  0  0  0  0
  7 13  2  0  0  0  0
  7 23  1  0  0  0  0
  8 14  2  0  0  0  0
  8 24  1  0  0  0  0
  9 10  2  0  0  0  0
  9 28  1  0  0  0  0
 10 29  1  0  0  0  0
 11 31  1  0  0  0  0
 12 31  2  0  0  0  0
 13 32  1  0  0  0  0
 14 33  1  0  0  0  0
 15 16  2  0  0  0  0
 15 34  1  0  0  0  0
 16 35  1  0  0  0  0
 17 26  1  0  0  0  0
 17 33  2  0  0  0  0
 18 27  1  0  0  0  0
 18 32  2  0  0  0  0
 19 35  2  0  0  0  0
 19 36  1  0  0  0  0
 20 38  1  0  0  0  0
 21 38  1  0  0  0  0
 21 39  2  0  0  0  0
 21 41  1  0  0  0  0
 22 25  2  0  0  0  0
 22 47  1  0  0  0  0
 23 27  2  0  0  0  0
 23 48  1  0  0  0  0
 24 26  2  0  0  0  0
 24 49  1  0  0  0  0
 25 57  1  0  0  0  0
 26 46  1  0  0  0  0
 27 50  1  0  0  0  0
 28 30  2  0  0  0  0
 28 60  1  0  0  0  0
 29 37  2  0  0  0  0
 29 66  1  0  0  0  0
 30 37  1  0  0  0  0
 30 67  1  0  0  0  0
 31 88  1  0  0  0  0
 32 89  1  0  0  0  0
 33 89  1  0  0  0  0
 34 36  2  0  0  0  0
 34 88  1  0  0  0  0
 35 90  1  0  0  0  0
 36 91  1  0  0  0  0
 37 92  1  0  0  0  0
 38 71  2  0  0  0  0
 39 72  1  0  0  0  0
 39 76  1  0  0  0  0
 40 46  1  0  0  0  0
 40 73  1  0  0  0  0
 40 82  2  0  0  0  0
 41 77  1  0  0  0  0
 41 83  2  0  0  0  0
 42 58  1  0  0  0  0
 42 78  1  0  0  0  0
 42 84  2  0  0  0  0
 43 68  1  0  0  0  0
 43 74  1  0  0  0  0
 43 85  2  0  0  0  0
 44 69  1  0  0  0  0
 44 79  1  0  0  0  0
 44 86  2  0  0  0  0
 45 75  1  0  0  0  0
 45 80  1  0  0  0  0
 45 87  2  0  0  0  0
 47 51  1  0  0  0  0
 48 58  1  0  0  0  0
 49 73  1  0  0  0  0
 50 74  1  0  0  0  0
 51 53  1  0  0  0  0
 52 54  1  0  0  0  0
 52 55  1  0  0  0  0
 53 57  1  0  0  0  0
 54 59  1  0  0  0  0
 55 75  1  0  0  0  0
 56 59  1  0  0  0  0
 56 75  1  0  0  0  0
 57 78  1  0  0  0  0
 58 74  1  0  0  0  0
 59 72  1  0  0  0  0
 61 69  1  0  0  0  0
 62 70  1  0  0  0  0
 63 70  1  0  0  0  0
 64 70  1  0  0  0  0
 65 81  1  0  0  0  0
 66 73  1  0  0  0  0
 67 80  1  0  0  0  0
 68 70  1  0  0  0  0
 68 79  1  0  0  0  0
 69 81  1  0  0  0  0
 71 72  1  0  0  0  0
M  CHG  1  81   1
M  ISO  4  33 101  45 100  80 100  89 101
M  END
> <Batch ID>
0051

> <Smiles>
CNC(C)C(=O)NC(C(=O)N1Cc2cc([101O:1][101c:1]3ccc4c(c3)CC(=O)N(Cc3ccc(C)c(C[100NH:0][100C:0](=O)N5CCCC(n6nc(-c7ccc(Oc8ccc(F)cc8F)cc7)c(C(N)=O)c6N)C5)c3F)C4)ccc2CC1C(=O)NC1CCCc2ccccc21)C(C)(C)C

> <Shape>
0.244

> <Color>
0.070

> <Negative vol penalty>
0.000

$$$$

  -OEChem-04042322373D

 86 95  0     1  0  0  0  0  0999 V2000
  -29.5005  -35.2796   23.5267 C   0  0  0  0  0  0  0  0  0  0  0  0
  -29.4770  -33.9079   23.2956 C   0  0  0  0  0  0  0  0  0  0  0  0
  -22.5853  -11.8923   22.6130 C   0  0  0  0  0  0  0  0  0  0  0  0
  -22.2330  -13.9560   21.4070 C   0  0  0  0  0  0  0  0  0  0  0  0
  -28.3514  -35.9295   23.9753 C   0  0  0  0  0  0  0  0  0  0  0  0
  -28.3048  -33.1851   23.5142 C   0  0  0  0  0  0  0  0  0  0  0  0
  -27.3030  -29.9290   19.7673 C   0  0  0  0  0  0  0  0  0  0  0  0
  -21.3135  -12.0035   23.1748 C   0  0  0  0  0  0  0  0  0  0  0  0
  -20.9611  -14.0671   21.9688 C   0  0  0  0  0  0  0  0  0  0  0  0
  -28.0260  -28.7370   19.7493 C   0  0  0  0  0  0  0  0  0  0  0  0
  -17.8960  -12.7327   21.4737 C   0  0  0  0  0  0  0  0  0  0  0  0
  -16.8435  -13.0807   20.6271 C   0  0  0  0  0  0  0  0  0  0  0  0
  -26.1519  -27.5922   20.7473 C   0  0  0  0  0  0  0  0  0  0  0  0
  -28.4992  -19.8844   18.3403 C   0  0  0  0  0  0  0  0  0  0  0  0
  -27.2878  -21.0877   16.6311 C   0  0  0  0  0  0  0  0  0  0  0  0
  -26.7971  -18.7589   17.0468 C   0  0  0  0  0  0  0  0  0  0  0  0
  -16.4276  -15.0552   21.9559 C   0  0  0  0  0  0  0  0  0  0  0  0
  -23.0451  -12.8686   21.7291 C   0  0  0  0  0  0  0  0  0  0  0  0
  -24.8438  -11.7087   20.3410 C   0  0  0  0  0  0  0  0  0  0  0  0
  -27.1618  -35.2159   24.1903 C   0  0  0  0  0  0  0  0  0  0  0  0
  -26.0008  -29.9638   20.2864 C   0  0  0  0  0  0  0  0  0  0  0  0
  -27.1391  -33.8259   23.9674 C   0  0  0  0  0  0  0  0  0  0  0  0
  -25.4135  -28.7853   20.7685 C   0  0  0  0  0  0  0  0  0  0  0  0
  -28.2590  -21.0617   17.6320 C   0  0  0  0  0  0  0  0  0  0  0  0
  -27.7683  -18.7329   18.0477 C   0  0  0  0  0  0  0  0  0  0  0  0
  -20.5014  -13.0908   22.8526 C   0  0  0  0  0  0  0  0  0  0  0  0
  -27.4515  -27.5690   20.2420 C   0  0  0  0  0  0  0  0  0  0  0  0
  -18.2144  -13.5459   22.5614 C   0  0  0  0  0  0  0  0  0  0  0  0
  -16.1093  -14.2419   20.8682 C   0  0  0  0  0  0  0  0  0  0  0  0
  -17.4802  -14.7072   22.8024 C   0  0  0  0  0  0  0  0  0  0  0  0
  -26.5569  -19.9363   16.3385 C   0  0  0  0  0  0  0  0  0  0  0  0
  -24.3591  -12.7547   21.1489 C   0  0  0  0  0  0  0  0  0  0  0  0
  -26.1366  -12.0703   20.0502 C   0  0  0  0  0  0  0  0  0  0  0  0
  -29.6637  -23.8079   19.7405 C   0  0  0  0  0  0  0  0  0  0  0  0
  -30.3659  -23.3604   20.7924 C   0  0  0  0  0  0  0  0  0  0  0  0
  -24.1845  -10.5168   19.8933 C   0  0  0  0  0  0  0  0  0  0  0  0
  -24.5893  -31.4688   22.7043 C   0  0  0  0  0  0  0  0  0  0  0  0
  -21.9054  -30.1485   21.4489 C   0  0  0  0  0  0  0  0  0  0  0  0
  -20.9452  -26.9676   20.0429 C   0  0  0  0  0  0  0  0  0  0  0  0
  -28.9409  -17.3403   19.7889 C   0  0  0  0  0  0  0  0  0  0  0  0
  -25.9583  -35.9540   24.7208 C   0  0  0  0  0  0  0  0  0  0  0  0
  -25.2243  -31.2520   20.2741 C   0  0  0  0  0  0  0  0  0  0  0  0
  -24.0112  -28.7652   21.3177 C   0  0  0  0  0  0  0  0  0  0  0  0
  -29.8997  -25.1560   19.1096 C   0  0  0  0  0  0  0  0  0  0  0  0
  -24.6524  -35.1781   24.5694 C   0  0  0  0  0  0  0  0  0  0  0  0
  -29.8197  -14.5595   21.8315 C   0  0  0  0  0  0  0  0  0  0  0  0
  -24.8334  -33.7340   25.0262 C   0  0  0  0  0  0  0  0  0  0  0  0
  -28.5654  -13.6829   21.8098 C   0  0  0  0  0  0  0  0  0  0  0  0
  -27.4864  -25.0441   18.3593 C   0  0  0  0  0  0  0  0  0  0  0  0
  -29.4720  -16.0470   21.8433 C   0  0  0  0  0  0  0  0  0  0  0  0
  -27.3073  -15.6037   20.7539 C   0  0  0  0  0  0  0  0  0  0  0  0
  -27.3188  -23.7327   19.1253 C   0  0  0  0  0  0  0  0  0  0  0  0
  -25.8798  -33.0114   24.1692 C   0  0  1  0  0  0  0  0  0  0  0  0
  -24.0942  -31.2782   21.2985 C   0  0  1  0  0  0  0  0  0  0  0  0
  -27.6074  -14.0979   20.6758 C   0  0  2  0  0  0  0  0  0  0  0  0
  -28.5866  -25.9233   18.9536 C   0  0  1  0  0  0  0  0  0  1  0  0
  -19.1630  -26.3935   18.3721 C   0  0  0  0  0  0  0  0  0  0  0  0
  -20.1796  -29.6126   23.9075 C   0  0  0  0  0  0  0  0  0  0  0  0
  -19.1835  -27.6607   22.6966 C   0  0  0  0  0  0  0  0  0  0  0  0
  -18.8972  -29.9669   21.7898 C   0  0  0  0  0  0  0  0  0  0  0  0
  -22.8885  -25.6301   18.2559 C   0  0  0  0  0  0  0  0  0  0  0  0
  -29.0457  -22.3000   17.9463 C   0  0  0  0  0  0  0  0  0  0  0  0
  -21.1607  -28.8499   21.6443 C   0  0  1  0  0  0  0  0  0  0  0  0
  -20.6427  -26.6726   18.5848 C   0  0  2  0  0  0  0  0  0  0  0  0
  -19.8834  -29.0243   22.5135 C   0  0  0  0  0  0  0  0  0  0  0  0
  -25.2698  -13.7091   21.3581 N   0  0  0  0  0  0  0  0  0  0  0  0
  -26.3398  -13.2642   20.6775 N   0  0  0  0  0  0  0  0  0  0  0  0
  -23.2950  -30.0512   21.2900 N   0  0  0  0  0  0  0  0  0  0  0  0
  -28.5649  -16.3672   20.7389 N   0  0  0  0  0  0  0  0  0  0  0  0
  -27.1080  -11.4802   19.3217 N   0  0  0  0  0  0  0  0  0  0  0  0
  -22.8560  -10.3012   20.2843 N   0  0  0  0  0  0  0  0  0  0  0  0
  -28.0131  -17.5367   18.7666 N   0  0  0  0  0  0  0  0  0  0  0  0
  -25.3126  -32.6309   22.8932 N   0  0  0  0  0  0  0  0  0  0  0  0
  -20.9070  -28.3200   20.3090 N   0  0  0  0  0  0  0  0  0  0  0  0
  -28.6149  -22.9630   19.2254 N   0  3  1  0  0  0  0  0  0  0  0  0
  -21.4159  -25.4842   18.1256 N   0  3  0  0  0  0  0  0  0  0  0  0
  -24.7618   -9.6602   19.1816 O   0  0  0  0  0  0  0  0  0  0  0  0
  -24.3327  -30.6248   23.5549 O   0  0  0  0  0  0  0  0  0  0  0  0
  -21.2764  -31.2095   21.4307 O   0  0  0  0  0  0  0  0  0  0  0  0
  -21.1872  -26.0861   20.8645 O   0  0  0  0  0  0  0  0  0  0  0  0
  -30.0196  -17.9347   19.8608 O   0  0  0  0  0  0  0  0  0  0  0  0
  -19.2601  -13.1995   23.4004 O   0  0  0  0  0  0  0  0  0  0  0  0
  -28.1553  -26.4044   20.2262 O   0  0  0  0  0  0  0  0  0  1  0  0
  -15.0996  -14.5768   20.0543 F   0  0  0  0  0  0  0  0  0  0  0  0
  -17.7821  -15.4930   23.8451 F   0  0  0  0  0  0  0  0  0  0  0  0
  -25.3598  -19.9675   15.1023 Cl  0  0  0  0  0  0  0  0  0  0  0  0
  1  2  1  0  0  0  0
  1  5  2  0  0  0  0
  2  6  2  0  0  0  0
  3  8  2  0  0  0  0
  3 18  1  0  0  0  0
  4  9  1  0  0  0  0
  4 18  2  0  0  0  0
  5 20  1  0  0  0  0
  6 22  1  0  0  0  0
  7 10  2  0  0  0  0
  7 21  1  0  0  0  0
  8 26  1  0  0  0  0
  9 26  2  0  0  0  0
 10 27  1  0  0  0  0
 11 12  2  0  0  0  0
 11 28  1  0  0  0  0
 12 29  1  0  0  0  0
 13 23  1  0  0  0  0
 13 27  2  0  0  0  0
 14 24  2  0  0  0  0
 14 25  1  0  0  0  0
 15 24  1  0  0  0  0
 15 31  2  0  0  0  0
 16 25  2  0  0  0  0
 16 31  1  0  0  0  0
 17 29  2  0  0  0  0
 17 30  1  0  0  0  0
 18 32  1  0  0  0  0
 19 32  1  0  0  0  0
 19 33  2  0  0  0  0
 19 36  1  0  0  0  0
 20 22  2  0  0  0  0
 20 41  1  0  0  0  0
 21 23  2  0  0  0  0
 21 42  1  0  0  0  0
 22 53  1  0  0  0  0
 23 43  1  0  0  0  0
 24 62  1  0  0  0  0
 25 72  1  0  0  0  0
 26 82  1  0  0  0  0
 27 83  1  0  0  0  0
 28 30  2  0  0  0  0
 28 82  1  0  0  0  0
 29 84  1  0  0  0  0
 30 85  1  0  0  0  0
 31 86  1  0  0  0  0
 32 66  2  0  0  0  0
 33 67  1  0  0  0  0
 33 70  1  0  0  0  0
 34 35  2  0  0  0  0
 34 44  1  0  0  0  0
 34 75  1  0  0  0  0
 36 71  1  0  0  0  0
 36 77  2  0  0  0  0
 37 54  1  0  0  0  0
 37 73  1  0  0  0  0
 37 78  2  0  0  0  0
 38 63  1  0  0  0  0
 38 68  1  0  0  0  0
 38 79  2  0  0  0  0
 39 64  1  0  0  0  0
 39 74  1  0  0  0  0
 39 80  2  0  0  0  0
 40 69  1  0  0  0  0
 40 72  1  0  0  0  0
 40 81  2  0  0  0  0
 41 45  1  0  0  0  0
 42 54  1  0  0  0  0
 43 68  1  0  0  0  0
 44 56  1  0  0  0  0
 45 47  1  0  0  0  0
 46 48  1  0  0  0  0
 46 50  1  0  0  0  0
 47 53  1  0  0  0  0
 48 55  1  0  0  0  0
 49 52  1  0  0  0  0
 49 56  1  0  0  0  0
 50 69  1  0  0  0  0
 51 55  1  0  0  0  0
 51 69  1  0  0  0  0
 52 75  1  0  0  0  0
 53 73  1  0  0  0  0
 54 68  1  0  0  0  0
 55 67  1  0  0  0  0
 56 83  1  0  0  0  0
 57 64  1  0  0  0  0
 58 65  1  0  0  0  0
 59 65  1  0  0  0  0
 60 65  1  0  0  0  0
 61 76  1  0  0  0  0
 62 75  1  0  0  0  0
 63 65  1  0  0  0  0
 63 74  1  0  0  0  0
 64 76  1  0  0  0  0
 66 67  1  0  0  0  0
M  CHG  2  75   1  76   1
M  ISO  4  40 100  56 101  72 100  83 101
M  END
> <Batch ID>
0051

> <Smiles>
C=C1C[101CH:1]([101O:1]c2ccc3c(c2)CN(C(=O)C(NC(=O)C(C)NC)C(C)(C)C)C(C(=O)NC2CCCc4ccccc42)C3)CCN1Cc1cc(Cl)cc([100NH:0][100C:0](=O)N2CCCC(n3nc(-c4ccc(Oc5ccc(F)cc5F)cc4)c(C(N)=O)c3N)C2)c1

> <Shape>
0.303

> <Color>
0.081

> <Negative vol penalty>
0.000

$$$$

  -OEChem-04042322373D

 87 95  0     1  0  0  0  0  0999 V2000
  -16.6707  -28.9651   23.6532 C   0  0  0  0  0  0  0  0  0  0  0  0
  -17.3111  -28.3374   22.5895 C   0  0  0  0  0  0  0  0  0  0  0  0
  -25.0585  -16.6472   21.3086 C   0  0  0  0  0  0  0  0  0  0  0  0
  -25.1872  -15.8810   19.0209 C   0  0  0  0  0  0  0  0  0  0  0  0
  -17.2596  -30.0705   24.2657 C   0  0  0  0  0  0  0  0  0  0  0  0
  -18.5404  -28.8156   22.1370 C   0  0  0  0  0  0  0  0  0  0  0  0
  -21.8821  -25.1027   21.3047 C   0  0  0  0  0  0  0  0  0  0  0  0
  -23.8719  -23.1412   11.7462 C   0  0  0  0  0  0  0  0  0  0  0  0
  -25.0270  -23.8157   11.3510 C   0  0  0  0  0  0  0  0  0  0  0  0
  -23.9684  -15.8054   21.5292 C   0  0  0  0  0  0  0  0  0  0  0  0
  -24.0971  -15.0392   19.2415 C   0  0  0  0  0  0  0  0  0  0  0  0
  -21.7409  -24.3714   20.1262 C   0  0  0  0  0  0  0  0  0  0  0  0
  -21.5745  -12.4218   19.3038 C   0  0  0  0  0  0  0  0  0  0  0  0
  -21.6557  -11.1149   18.8232 C   0  0  0  0  0  0  0  0  0  0  0  0
  -23.4977  -25.6773   19.1125 C   0  0  0  0  0  0  0  0  0  0  0  0
  -25.1447  -21.9354   13.4085 C   0  0  0  0  0  0  0  0  0  0  0  0
  -23.6010  -10.7285   20.2030 C   0  0  0  0  0  0  0  0  0  0  0  0
  -25.6679  -16.6850   20.0544 C   0  0  0  0  0  0  0  0  0  0  0  0
  -28.1557  -17.2473   20.0052 C   0  0  0  0  0  0  0  0  0  0  0  0
  -18.5013  -30.5565   23.8268 C   0  0  0  0  0  0  0  0  0  0  0  0
  -22.8262  -26.1358   21.3926 C   0  0  0  0  0  0  0  0  0  0  0  0
  -19.1458  -29.9294   22.7434 C   0  0  0  0  0  0  0  0  0  0  0  0
  -23.6506  -26.4185   20.2942 C   0  0  0  0  0  0  0  0  0  0  0  0
  -23.9307  -22.2011   12.7750 C   0  0  0  0  0  0  0  0  0  0  0  0
  -26.2410  -23.5501   11.9844 C   0  0  0  0  0  0  0  0  0  0  0  0
  -26.2999  -22.6099   13.0132 C   0  0  0  0  0  0  0  0  0  0  0  0
  -23.4877  -15.0014   20.4956 C   0  0  0  0  0  0  0  0  0  0  0  0
  -22.5467  -24.6605   19.0289 C   0  0  0  0  0  0  0  0  0  0  0  0
  -22.5066  -12.8822   20.2339 C   0  0  0  0  0  0  0  0  0  0  0  0
  -22.6690  -10.2682   19.2729 C   0  0  0  0  0  0  0  0  0  0  0  0
  -23.5198  -12.0355   20.6835 C   0  0  0  0  0  0  0  0  0  0  0  0
  -26.7937  -17.5548   19.8258 C   0  0  0  0  0  0  0  0  0  0  0  0
  -28.8167  -18.3994   19.6557 C   0  0  0  0  0  0  0  0  0  0  0  0
  -28.7686  -16.0292   20.4482 C   0  0  0  0  0  0  0  0  0  0  0  0
  -22.6800  -29.2720   21.8891 C   0  0  0  0  0  0  0  0  0  0  0  0
  -25.9134  -29.0195   21.9503 C   0  0  0  0  0  0  0  0  0  0  0  0
  -21.9217  -22.4334   15.3865 C   0  0  0  0  0  0  0  0  0  0  0  0
  -28.7020  -27.2843   21.0233 C   0  0  0  0  0  0  0  0  0  0  0  0
  -27.3977  -22.9910   16.0842 C   0  0  0  0  0  0  0  0  0  0  0  0
  -19.0761  -31.7833   24.4896 C   0  0  0  0  0  0  0  0  0  0  0  0
  -22.9845  -26.8976   22.6798 C   0  0  0  0  0  0  0  0  0  0  0  0
  -24.6934  -27.5042   20.3439 C   0  0  0  0  0  0  0  0  0  0  0  0
  -20.5580  -31.9980   24.1929 C   0  0  0  0  0  0  0  0  0  0  0  0
  -28.2551  -23.1493   19.5363 C   0  0  0  0  0  0  0  0  0  0  0  0
  -20.8348  -31.8244   22.7029 C   0  0  0  0  0  0  0  0  0  0  0  0
  -28.1007  -21.7057   20.0181 C   0  0  0  0  0  0  0  0  0  0  0  0
  -27.1969  -23.5137   18.4973 C   0  0  0  0  0  0  0  0  0  0  0  0
  -26.9652  -21.1537   17.8261 C   0  0  0  0  0  0  0  0  0  0  0  0
  -20.4919  -30.4033   22.2400 C   0  0  1  0  0  0  0  0  0  0  0  0
  -23.6250  -28.2688   22.4878 C   0  0  1  0  0  0  0  0  0  0  0  0
  -28.0445  -20.7222   18.8337 C   0  0  2  0  0  0  0  0  0  0  0  0
  -27.4647  -24.2839   11.5432 C   0  0  0  0  0  0  0  0  0  0  0  0
  -28.3770  -21.1792   13.0291 C   0  0  0  0  0  0  0  0  0  0  0  0
  -31.1323  -26.6682   20.9151 C   0  0  0  0  0  0  0  0  0  0  0  0
  -25.9993  -31.2046   19.8224 C   0  0  0  0  0  0  0  0  0  0  0  0
  -28.3722  -30.5580   19.3538 C   0  0  0  0  0  0  0  0  0  0  0  0
  -27.7376  -31.4181   21.6077 C   0  0  0  0  0  0  0  0  0  0  0  0
  -20.7903  -23.0467   13.2383 C   0  0  0  0  0  0  0  0  0  0  0  0
  -28.4885  -25.5513   23.4130 C   0  0  0  0  0  0  0  0  0  0  0  0
  -22.6873  -21.4748   13.2000 C   0  0  0  0  0  0  0  0  0  0  0  0
  -20.9246  -23.3606   16.0737 C   0  0  0  0  0  0  0  0  0  0  0  0
  -21.1141  -23.4295   17.5839 C   0  0  0  0  0  0  0  0  0  1  0  0
  -27.5885  -22.3088   13.7057 C   0  0  2  0  0  0  0  0  0  0  0  0
  -27.0116  -29.0969   20.9174 C   0  0  1  0  0  0  0  0  0  0  0  0
  -29.9167  -26.8329   21.8140 C   0  0  2  0  0  0  0  0  0  0  0  0
  -27.2593  -30.5502   20.4234 C   0  0  0  0  0  0  0  0  0  0  0  0
  -26.5994  -18.8044   19.3959 N   0  0  0  0  0  0  0  0  0  0  0  0
  -27.8481  -19.2923   19.3023 N   0  0  0  0  0  0  0  0  0  0  0  0
  -24.8056  -28.2251   21.6227 N   0  0  0  0  0  0  0  0  0  0  0  0
  -27.1967  -22.5429   17.4003 N   0  0  0  0  0  0  0  0  0  0  0  0
  -30.1261  -18.7258   19.6194 N   0  0  0  0  0  0  0  0  0  0  0  0
  -27.9423  -14.9427   20.7663 N   0  0  0  0  0  0  0  0  0  0  0  0
  -21.5338  -29.4787   22.6326 N   0  0  0  0  0  0  0  0  0  0  0  0
  -28.1806  -28.4618   21.5160 N   0  0  0  0  0  0  0  0  0  0  0  0
  -27.3892  -22.0049   15.1052 N   0  0  0  0  0  0  0  0  0  0  0  0
  -21.8037  -22.3232   13.9965 N   0  0  0  0  0  0  0  0  0  0  0  0
  -29.6451  -25.5281   22.4809 N   0  3  0  0  0  0  0  0  0  0  0  0
  -30.0112  -15.9130   20.5742 O   0  0  0  0  0  0  0  0  0  0  0  0
  -22.9702  -29.8192   20.8317 O   0  0  0  0  0  0  0  0  0  0  0  0
  -26.0373  -29.6354   23.0119 O   0  0  0  0  0  0  0  0  0  0  0  0
  -22.7727  -21.8291   16.0445 O   0  0  0  0  0  0  0  0  0  0  0  0
  -28.2621  -26.6571   20.0623 O   0  0  0  0  0  0  0  0  0  0  0  0
  -27.5770  -24.1808   15.8032 O   0  0  0  0  0  0  0  0  0  0  0  0
  -22.4241  -14.1797   20.7106 O   0  0  0  0  0  0  0  0  0  0  0  0
  -22.4106  -23.9487   17.8771 O   0  0  0  0  0  0  0  0  0  1  0  0
  -22.7459   -9.0127   18.8125 F   0  0  0  0  0  0  0  0  0  0  0  0
  -24.4174  -12.4717   21.5778 F   0  0  0  0  0  0  0  0  0  0  0  0
  1  2  1  0  0  0  0
  1  5  2  0  0  0  0
  2  6  2  0  0  0  0
  3 10  2  0  0  0  0
  3 18  1  0  0  0  0
  4 11  1  0  0  0  0
  4 18  2  0  0  0  0
  5 20  1  0  0  0  0
  6 22  1  0  0  0  0
  7 12  2  0  0  0  0
  7 21  1  0  0  0  0
  8  9  2  0  0  0  0
  8 24  1  0  0  0  0
  9 25  1  0  0  0  0
 10 27  1  0  0  0  0
 11 27  2  0  0  0  0
 12 28  1  0  0  0  0
 13 14  2  0  0  0  0
 13 29  1  0  0  0  0
 14 30  1  0  0  0  0
 15 23  1  0  0  0  0
 15 28  2  0  0  0  0
 16 24  2  0  0  0  0
 16 26  1  0  0  0  0
 17 30  2  0  0  0  0
 17 31  1  0  0  0  0
 18 32  1  0  0  0  0
 19 32  1  0  0  0  0
 19 33  2  0  0  0  0
 19 34  1  0  0  0  0
 20 22  2  0  0  0  0
 20 40  1  0  0  0  0
 21 23  2  0  0  0  0
 21 41  1  0  0  0  0
 22 49  1  0  0  0  0
 23 42  1  0  0  0  0
 24 60  1  0  0  0  0
 25 26  2  0  0  0  0
 25 52  1  0  0  0  0
 26 63  1  0  0  0  0
 27 84  1  0  0  0  0
 28 85  1  0  0  0  0
 29 31  2  0  0  0  0
 29 84  1  0  0  0  0
 30 86  1  0  0  0  0
 31 87  1  0  0  0  0
 32 67  2  0  0  0  0
 33 68  1  0  0  0  0
 33 71  1  0  0  0  0
 34 72  1  0  0  0  0
 34 78  2  0  0  0  0
 35 50  1  0  0  0  0
 35 73  1  0  0  0  0
 35 79  2  0  0  0  0
 36 64  1  0  0  0  0
 36 69  1  0  0  0  0
 36 80  2  0  0  0  0
 37 61  1  0  0  0  0
 37 76  1  0  0  0  0
 37 81  2  0  0  0  0
 38 65  1  0  0  0  0
 38 74  1  0  0  0  0
 38 82  2  0  0  0  0
 39 70  1  0  0  0  0
 39 75  1  0  0  0  0
 39 83  2  0  0  0  0
 40 43  1  0  0  0  0
 41 50  1  0  0  0  0
 42 69  1  0  0  0  0
 43 45  1  0  0  0  0
 44 46  1  0  0  0  0
 44 47  1  0  0  0  0
 45 49  1  0  0  0  0
 46 51  1  0  0  0  0
 47 70  1  0  0  0  0
 48 51  1  0  0  0  0
 48 70  1  0  0  0  0
 49 73  1  0  0  0  0
 50 69  1  0  0  0  0
 51 68  1  0  0  0  0
 53 63  1  0  0  0  0
 54 65  1  0  0  0  0
 55 66  1  0  0  0  0
 56 66  1  0  0  0  0
 57 66  1  0  0  0  0
 58 76  1  0  0  0  0
 59 77  1  0  0  0  0
 60 76  1  0  0  0  0
 61 62  1  0  0  0  0
 62 85  1  0  0  0  0
 63 75  1  0  0  0  0
 64 66  1  0  0  0  0
 64 74  1  0  0  0  0
 65 77  1  0  0  0  0
 67 68  1  0  0  0  0
M  CHG  1  77   1
M  ISO  4  39 100  62 101  75 100  85 101
M  END
> <Batch ID>
0051

> <Smiles>
CNC(C)C(=O)NC(C(=O)N1Cc2cc([101O:1][101CH2:1]CC(=O)N(C)Cc3ccc(C)c(C(C)[100NH:0][100C:0](=O)N4CCCC(n5nc(-c6ccc(Oc7ccc(F)cc7F)cc6)c(C(N)=O)c5N)C4)c3)ccc2CC1C(=O)NC1CCCc2ccccc21)C(C)(C)C

> <Shape>
0.216

> <Color>
0.079

> <Negative vol penalty>
0.000

$$$$

  -OEChem-04042322373D

 84 92  0     1  0  0  0  0  0999 V2000
  -21.1667  -26.9638   14.6628 C   0  0  0  0  0  0  0  0  0  0  0  0
  -21.2372  -26.0864   15.7402 C   0  0  0  0  0  0  0  0  0  0  0  0
  -23.0728   -9.8694   19.9434 C   0  0  0  0  0  0  0  0  0  0  0  0
  -23.8349   -9.8783   22.2360 C   0  0  0  0  0  0  0  0  0  0  0  0
  -20.9508  -26.4706   13.3767 C   0  0  0  0  0  0  0  0  0  0  0  0
  -21.0907  -24.7154   15.5321 C   0  0  0  0  0  0  0  0  0  0  0  0
  -24.5305  -21.9888   18.0577 C   0  0  0  0  0  0  0  0  0  0  0  0
  -22.3295   -8.7162   20.1949 C   0  0  0  0  0  0  0  0  0  0  0  0
  -23.0916   -8.7251   22.4875 C   0  0  0  0  0  0  0  0  0  0  0  0
  -24.3147  -21.7975   19.4218 C   0  0  0  0  0  0  0  0  0  0  0  0
  -19.3829   -7.9197   21.6495 C   0  0  0  0  0  0  0  0  0  0  0  0
  -18.0756   -7.8727   21.1656 C   0  0  0  0  0  0  0  0  0  0  0  0
  -23.4432  -19.5942   18.9689 C   0  0  0  0  0  0  0  0  0  0  0  0
  -28.9064  -18.4961   22.1739 C   0  0  0  0  0  0  0  0  0  0  0  0
  -30.4922  -18.8698   20.3900 C   0  0  0  0  0  0  0  0  0  0  0  0
  -28.6400  -20.3902   20.6980 C   0  0  0  0  0  0  0  0  0  0  0  0
  -18.6347   -5.9289   19.8442 C   0  0  0  0  0  0  0  0  0  0  0  0
  -23.8255  -10.4505   20.9639 C   0  0  0  0  0  0  0  0  0  0  0  0
  -24.1664  -12.9756   20.8417 C   0  0  0  0  0  0  0  0  0  0  0  0
  -20.8113  -25.0921   13.1515 C   0  0  0  0  0  0  0  0  0  0  0  0
  -24.1935  -20.9867   17.1364 C   0  0  0  0  0  0  0  0  0  0  0  0
  -20.8714  -24.2035   14.2420 C   0  0  0  0  0  0  0  0  0  0  0  0
  -23.6580  -19.7742   17.5939 C   0  0  0  0  0  0  0  0  0  0  0  0
  -30.0524  -18.1139   21.4767 C   0  0  0  0  0  0  0  0  0  0  0  0
  -28.2002  -19.6343   21.7846 C   0  0  0  0  0  0  0  0  0  0  0  0
  -22.3389   -8.1441   21.4669 C   0  0  0  0  0  0  0  0  0  0  0  0
  -23.7683  -20.6013   19.8773 C   0  0  0  0  0  0  0  0  0  0  0  0
  -20.3162   -6.9714   21.2308 C   0  0  0  0  0  0  0  0  0  0  0  0
  -17.7015   -6.8773   20.2629 C   0  0  0  0  0  0  0  0  0  0  0  0
  -19.9421   -5.9759   20.3282 C   0  0  0  0  0  0  0  0  0  0  0  0
  -29.7860  -20.0080   20.0007 C   0  0  0  0  0  0  0  0  0  0  0  0
  -24.5940  -11.6414   20.7046 C   0  0  0  0  0  0  0  0  0  0  0  0
  -25.2580  -13.7252   20.4769 C   0  0  0  0  0  0  0  0  0  0  0  0
  -22.8962  -13.4913   21.2615 C   0  0  0  0  0  0  0  0  0  0  0  0
  -22.1729  -20.7747   14.6919 C   0  0  0  0  0  0  0  0  0  0  0  0
  -23.6051  -17.8960   14.2625 C   0  0  0  0  0  0  0  0  0  0  0  0
  -25.3593  -15.3018   15.6189 C   0  0  0  0  0  0  0  0  0  0  0  0
  -30.7416  -14.7462   20.6592 C   0  0  0  0  0  0  0  0  0  0  0  0
  -24.5745  -20.4566   22.0978 C   0  0  0  0  0  0  0  0  0  1  0  0
  -20.5321  -24.6101   11.7499 C   0  0  0  0  0  0  0  0  0  0  0  0
  -24.4572  -21.1981   15.6708 C   0  0  0  0  0  0  0  0  0  0  0  0
  -23.2980  -18.6591   16.6476 C   0  0  0  0  0  0  0  0  0  0  0  0
  -20.7611  -23.1123   11.5639 C   0  0  0  0  0  0  0  0  0  0  0  0
  -29.6025  -12.3595   18.2753 C   0  0  0  0  0  0  0  0  0  0  0  0
  -20.1193  -22.3285   12.7043 C   0  0  0  0  0  0  0  0  0  0  0  0
  -28.1655  -12.0657   18.7098 C   0  0  0  0  0  0  0  0  0  0  0  0
  -30.5207  -12.5815   19.4752 C   0  0  0  0  0  0  0  0  0  0  0  0
  -28.6200  -13.3130   20.8630 C   0  0  0  0  0  0  0  0  0  0  0  0
  -20.7421  -22.7075   14.0533 C   0  0  1  0  0  0  0  0  0  0  0  0
  -23.5993  -20.3099   14.7750 C   0  0  1  0  0  0  0  0  0  0  0  0
  -27.6448  -13.1372   19.6865 C   0  0  2  0  0  0  0  0  0  0  0  0
  -26.3533  -13.0743   15.0294 C   0  0  0  0  0  0  0  0  0  0  0  0
  -20.8223  -16.6455   14.3053 C   0  0  0  0  0  0  0  0  0  0  0  0
  -21.9050  -14.4178   14.6701 C   0  0  0  0  0  0  0  0  0  0  0  0
  -22.3650  -15.6987   12.5796 C   0  0  0  0  0  0  0  0  0  0  0  0
  -22.9603  -21.2444   23.7904 C   0  0  0  0  0  0  0  0  0  0  0  0
  -28.0930  -16.2128   16.2941 C   0  0  0  0  0  0  0  0  0  0  0  0
  -30.8079  -16.8976   21.8945 C   0  0  0  0  0  0  0  0  0  0  0  0
  -26.9678  -20.0456   22.5370 C   0  0  0  0  0  0  0  0  0  0  0  0
  -23.3584  -16.4937   14.7643 C   0  0  1  0  0  0  0  0  0  0  0  0
  -26.6024  -14.5700   15.1460 C   0  0  2  0  0  0  0  0  0  0  0  0
  -22.1175  -15.8355   14.0977 C   0  0  0  0  0  0  0  0  0  0  0  0
  -25.8585  -11.5457   20.2852 N   0  0  0  0  0  0  0  0  0  0  0  0
  -26.2348  -12.8293   20.1555 N   0  0  0  0  0  0  0  0  0  0  0  0
  -23.5688  -18.9163   15.2236 N   0  0  0  0  0  0  0  0  0  0  0  0
  -29.9706  -13.6105   20.3609 N   0  0  0  0  0  0  0  0  0  0  0  0
  -25.4679  -15.0567   20.4027 N   0  0  0  0  0  0  0  0  0  0  0  0
  -21.8849  -12.5821   21.6004 N   0  0  0  0  0  0  0  0  0  0  0  0
  -22.0280  -22.0635   14.2151 N   0  0  0  0  0  0  0  0  0  0  0  0
  -24.6043  -15.7624   14.5610 N   0  0  0  0  0  0  0  0  0  0  0  0
  -30.1429  -15.6754   21.5012 N   0  0  0  0  0  0  0  0  0  0  0  0
  -25.7844  -20.0828   21.6729 N   0  0  0  0  0  0  0  0  0  0  0  0
  -24.2951  -20.8386   23.3475 N   0  3  0  0  0  0  0  0  0  0  0  0
  -27.7257  -14.7863   16.1012 N   0  3  0  0  0  0  0  0  0  0  0  0
  -22.6596  -14.7219   21.3182 O   0  0  0  0  0  0  0  0  0  0  0  0
  -21.2704  -20.0193   15.0335 O   0  0  0  0  0  0  0  0  0  0  0  0
  -23.8290  -18.0785   13.0633 O   0  0  0  0  0  0  0  0  0  0  0  0
  -25.0835  -15.4468   16.8078 O   0  0  0  0  0  0  0  0  0  0  0  0
  -31.8770  -14.9217   20.2044 O   0  0  0  0  0  0  0  0  0  0  0  0
  -21.6135   -7.0189   21.7128 O   0  0  0  0  0  0  0  0  0  0  0  0
  -23.5561  -20.4122   21.2081 O   0  0  0  0  0  0  0  0  0  1  0  0
  -16.4456   -6.8313   19.7994 F   0  0  0  0  0  0  0  0  0  0  0  0
  -20.8339   -5.0614   19.9231 F   0  0  0  0  0  0  0  0  0  0  0  0
  -30.3280  -20.9400   18.6591 Cl  0  0  0  0  0  0  0  0  0  0  0  0
  1  2  1  0  0  0  0
  1  5  2  0  0  0  0
  2  6  2  0  0  0  0
  3  8  2  0  0  0  0
  3 18  1  0  0  0  0
  4  9  1  0  0  0  0
  4 18  2  0  0  0  0
  5 20  1  0  0  0  0
  6 22  1  0  0  0  0
  7 10  2  0  0  0  0
  7 21  1  0  0  0  0
  8 26  1  0  0  0  0
  9 26  2  0  0  0  0
 10 27  1  0  0  0  0
 11 12  2  0  0  0  0
 11 28  1  0  0  0  0
 12 29  1  0  0  0  0
 13 23  1  0  0  0  0
 13 27  2  0  0  0  0
 14 24  1  0  0  0  0
 14 25  2  0  0  0  0
 15 24  2  0  0  0  0
 15 31  1  0  0  0  0
 16 25  1  0  0  0  0
 16 31  2  0  0  0  0
 17 29  2  0  0  0  0
 17 30  1  0  0  0  0
 18 32  1  0  0  0  0
 19 32  1  0  0  0  0
 19 33  2  0  0  0  0
 19 34  1  0  0  0  0
 20 22  2  0  0  0  0
 20 40  1  0  0  0  0
 21 23  2  0  0  0  0
 21 41  1  0  0  0  0
 22 49  1  0  0  0  0
 23 42  1  0  0  0  0
 24 58  1  0  0  0  0
 25 59  1  0  0  0  0
 26 80  1  0  0  0  0
 27 81  1  0  0  0  0
 28 30  2  0  0  0  0
 28 80  1  0  0  0  0
 29 82  1  0  0  0  0
 30 83  1  0  0  0  0
 31 84  1  0  0  0  0
 32 63  2  0  0  0  0
 33 64  1  0  0  0  0
 33 67  1  0  0  0  0
 34 68  1  0  0  0  0
 34 75  2  0  0  0  0
 35 50  1  0  0  0  0
 35 69  1  0  0  0  0
 35 76  2  0  0  0  0
 36 60  1  0  0  0  0
 36 65  1  0  0  0  0
 36 77  2  0  0  0  0
 37 61  1  0  0  0  0
 37 70  1  0  0  0  0
 37 78  2  0  0  0  0
 38 66  1  0  0  0  0
 38 71  1  0  0  0  0
 38 79  2  0  0  0  0
 39 72  1  0  0  0  0
 39 73  2  0  0  0  0
 39 81  1  0  0  0  0
 40 43  1  0  0  0  0
 41 50  1  0  0  0  0
 42 65  1  0  0  0  0
 43 45  1  0  0  0  0
 44 46  1  0  0  0  0
 44 47  1  0  0  0  0
 45 49  1  0  0  0  0
 46 51  1  0  0  0  0
 47 66  1  0  0  0  0
 48 51  1  0  0  0  0
 48 66  1  0  0  0  0
 49 69  1  0  0  0  0
 50 65  1  0  0  0  0
 51 64  1  0  0  0  0
 52 61  1  0  0  0  0
 53 62  1  0  0  0  0
 54 62  1  0  0  0  0
 55 62  1  0  0  0  0
 56 73  1  0  0  0  0
 57 74  1  0  0  0  0
 58 71  1  0  0  0  0
 59 72  1  0  0  0  0
 60 62  1  0  0  0  0
 60 70  1  0  0  0  0
 61 74  1  0  0  0  0
 63 64  1  0  0  0  0
M  CHG  2  73   1  74   1
M  ISO  4  38 100  39 101  71 100  81 101
M  END
> <Batch ID>
0051

> <Smiles>
CNC(C)C(=O)NC(C(=O)N1Cc2cc([101O:1][101C:1](=NCc3cc(Cl)cc(C[100NH:0][100C:0](=O)N4CCCC(n5nc(-c6ccc(Oc7ccc(F)cc7F)cc6)c(C(N)=O)c5N)C4)c3)NC)ccc2CC1C(=O)NC1CCCc2ccccc21)C(C)(C)C

> <Shape>
0.170

> <Color>
0.191

> <Negative vol penalty>
0.000

$$$$

  -OEChem-04042322373D

 88 96  0     1  0  0  0  0  0999 V2000
  -25.9380  -35.2584   23.4974 C   0  0  0  0  0  0  0  0  0  0  0  0
  -26.5102  -34.0255   23.2011 C   0  0  0  0  0  0  0  0  0  0  0  0
  -27.8499  -21.1097   17.8395 C   0  0  0  0  0  0  0  0  0  0  0  0
  -28.1778  -11.0483   20.7064 C   0  0  0  0  0  0  0  0  0  0  0  0
  -29.0764  -12.6904   19.1790 C   0  0  0  0  0  0  0  0  0  0  0  0
  -24.6436  -35.3193   24.0120 C   0  0  0  0  0  0  0  0  0  0  0  0
  -25.7888  -32.8525   23.4203 C   0  0  0  0  0  0  0  0  0  0  0  0
  -26.1428  -29.6026   19.5527 C   0  0  0  0  0  0  0  0  0  0  0  0
  -28.5660  -21.8078   18.8119 C   0  0  0  0  0  0  0  0  0  0  0  0
  -26.5954  -20.5806   18.1428 C   0  0  0  0  0  0  0  0  0  0  0  0
  -28.4438  -10.0405   19.7794 C   0  0  0  0  0  0  0  0  0  0  0  0
  -29.3424  -11.6827   18.2520 C   0  0  0  0  0  0  0  0  0  0  0  0
  -27.3153  -28.8547   19.4549 C   0  0  0  0  0  0  0  0  0  0  0  0
  -31.6880   -9.2976   17.7725 C   0  0  0  0  0  0  0  0  0  0  0  0
  -32.9306   -9.3133   17.1391 C   0  0  0  0  0  0  0  0  0  0  0  0
  -26.1889  -26.9696   20.4534 C   0  0  0  0  0  0  0  0  0  0  0  0
  -31.8351   -9.5131   14.9950 C   0  0  0  0  0  0  0  0  0  0  0  0
  -28.4941  -12.3733   20.4062 C   0  0  0  0  0  0  0  0  0  0  0  0
  -29.0760  -13.8874   22.3750 C   0  0  0  0  0  0  0  0  0  0  0  0
  -23.9024  -34.1470   24.2286 C   0  0  0  0  0  0  0  0  0  0  0  0
  -24.9857  -29.0422   20.1126 C   0  0  0  0  0  0  0  0  0  0  0  0
  -24.4838  -32.8976   23.9395 C   0  0  0  0  0  0  0  0  0  0  0  0
  -25.0023  -27.7117   20.5548 C   0  0  0  0  0  0  0  0  0  0  0  0
  -28.0277  -21.9768   20.0875 C   0  0  0  0  0  0  0  0  0  0  0  0
  -26.0571  -20.7495   19.4184 C   0  0  0  0  0  0  0  0  0  0  0  0
  -26.7732  -21.4476   20.3908 C   0  0  0  0  0  0  0  0  0  0  0  0
  -29.0261  -10.3577   18.5522 C   0  0  0  0  0  0  0  0  0  0  0  0
  -27.3393  -27.5389   19.9079 C   0  0  0  0  0  0  0  0  0  0  0  0
  -30.5189   -9.3895   17.0172 C   0  0  0  0  0  0  0  0  0  0  0  0
  -33.0042   -9.4211   15.7504 C   0  0  0  0  0  0  0  0  0  0  0  0
  -30.5925   -9.4974   15.6284 C   0  0  0  0  0  0  0  0  0  0  0  0
  -28.2190  -13.4148   21.3631 C   0  0  0  0  0  0  0  0  0  0  0  0
  -28.3533  -14.8705   23.0056 C   0  0  0  0  0  0  0  0  0  0  0  0
  -30.4064  -13.4746   22.7146 C   0  0  0  0  0  0  0  0  0  0  0  0
  -23.1754  -29.6947   22.6426 C   0  0  0  0  0  0  0  0  0  0  0  0
  -21.2904  -27.3614   21.4077 C   0  0  0  0  0  0  0  0  0  0  0  0
  -29.7873  -24.8086   20.1073 C   0  0  0  0  0  0  0  0  0  0  0  0
  -21.0315  -24.5814   19.4453 C   0  0  0  0  0  0  0  0  0  0  0  0
  -23.8553  -18.4003   21.2281 C   0  0  0  0  0  0  0  0  0  0  0  0
  -22.5243  -34.2603   24.8309 C   0  0  0  0  0  0  0  0  0  0  0  0
  -23.7214  -29.8538   20.1865 C   0  0  0  0  0  0  0  0  0  0  0  0
  -23.7812  -27.0570   21.1452 C   0  0  0  0  0  0  0  0  0  0  0  0
  -21.6884  -32.9917   24.6822 C   0  0  0  0  0  0  0  0  0  0  0  0
  -23.8531  -16.1591   23.9946 C   0  0  0  0  0  0  0  0  0  0  0  0
  -22.5094  -31.7637   25.0628 C   0  0  0  0  0  0  0  0  0  0  0  0
  -25.0491  -15.2443   23.7252 C   0  0  0  0  0  0  0  0  0  0  0  0
  -23.1354  -16.5449   22.7031 C   0  0  0  0  0  0  0  0  0  0  0  0
  -25.1984  -16.2175   21.3951 C   0  0  0  0  0  0  0  0  0  0  0  0
  -23.7239  -31.6044   24.1402 C   0  0  1  0  0  0  0  0  0  0  0  0
  -22.7470  -29.3467   21.2451 C   0  0  1  0  0  0  0  0  0  0  0  0
  -25.9876  -15.8467   22.6624 C   0  0  2  0  0  0  0  0  0  0  0  0
  -26.1959  -21.6287   21.7587 C   0  0  0  0  0  0  0  0  0  0  0  0
  -19.3703  -22.8724   18.6598 C   0  0  0  0  0  0  0  0  0  0  0  0
  -21.4116  -25.9945   24.1330 C   0  0  0  0  0  0  0  0  0  0  0  0
  -20.5743  -23.9019   23.0429 C   0  0  0  0  0  0  0  0  0  0  0  0
  -19.1596  -25.9565   23.0461 C   0  0  0  0  0  0  0  0  0  0  0  0
  -31.1683  -22.7414   20.3754 C   0  0  0  0  0  0  0  0  0  0  0  0
  -21.4143  -25.3423   16.6110 C   0  0  0  0  0  0  0  0  0  0  0  0
  -28.8188  -22.7325   21.1157 C   0  0  0  0  0  0  0  0  0  0  0  0
  -28.4362  -25.4650   20.2978 C   0  0  0  0  0  0  0  0  0  1  0  0
  -24.7116  -20.1733   19.7173 C   0  0  1  0  0  0  0  0  0  0  0  0
  -21.2048  -25.8622   21.5628 C   0  0  1  0  0  0  0  0  0  0  0  0
  -20.0406  -24.2039   18.3590 C   0  0  2  0  0  0  0  0  0  0  0  0
  -23.8000  -20.1280   18.4872 C   0  0  0  0  0  0  0  0  0  0  0  0
  -20.6113  -25.4414   22.9369 C   0  0  0  0  0  0  0  0  0  0  0  0
  -27.0418  -14.0456   21.3481 N   0  0  0  0  0  0  0  0  0  0  0  0
  -27.1539  -14.9247   22.3584 N   0  0  0  0  0  0  0  0  0  0  0  0
  -22.5711  -27.8936   21.2017 N   0  0  0  0  0  0  0  0  0  0  0  0
  -24.0810  -17.1111   21.7381 N   0  0  0  0  0  0  0  0  0  0  0  0
  -28.6330  -15.6853   24.0450 N   0  0  0  0  0  0  0  0  0  0  0  0
  -31.0003  -12.4507   21.9643 N   0  0  0  0  0  0  0  0  0  0  0  0
  -23.3208  -31.0507   22.8653 N   0  0  0  0  0  0  0  0  0  0  0  0
  -20.4516  -25.3751   20.4122 N   0  0  0  0  0  0  0  0  0  0  0  0
  -24.8029  -18.8638   20.3237 N   0  0  0  0  0  0  0  0  0  0  0  0
  -29.9202  -23.4813   20.5160 N   0  0  0  0  0  0  0  0  0  0  0  0
  -20.7311  -24.0958   17.0428 N   0  3  0  0  0  0  0  0  0  0  0  0
  -31.0433  -13.9871   23.6661 O   0  0  0  0  0  0  0  0  0  0  0  0
  -23.3590  -28.7993   23.4588 O   0  0  0  0  0  0  0  0  0  0  0  0
  -20.2582  -28.0347   21.4601 O   0  0  0  0  0  0  0  0  0  0  0  0
  -30.6997  -25.4665   19.5978 O   0  0  0  0  0  0  0  0  0  0  0  0
  -22.2019  -24.2062   19.4388 O   0  0  0  0  0  0  0  0  0  0  0  0
  -22.8843  -19.0895   21.5586 O   0  0  0  0  0  0  0  0  0  0  0  0
  -29.2860   -9.3746   17.6476 O   0  0  0  0  0  0  0  0  0  0  0  0
  -28.4826  -26.8068   19.8142 O   0  0  0  0  0  0  0  0  0  1  0  0
  -34.1976   -9.4378   15.1423 F   0  0  0  0  0  0  0  0  0  0  0  0
  -29.4729   -9.5872   14.8976 F   0  0  0  0  0  0  0  0  0  0  0  0
  -22.5027  -20.0102   18.8712 F   0  0  0  0  0  0  0  0  0  0  0  0
  -24.0780  -19.0415   17.7250 F   0  0  0  0  0  0  0  0  0  0  0  0
  1  2  1  0  0  0  0
  1  6  2  0  0  0  0
  2  7  2  0  0  0  0
  3  9  2  0  0  0  0
  3 10  1  0  0  0  0
  4 11  2  0  0  0  0
  4 18  1  0  0  0  0
  5 12  1  0  0  0  0
  5 18  2  0  0  0  0
  6 20  1  0  0  0  0
  7 22  1  0  0  0  0
  8 13  2  0  0  0  0
  8 21  1  0  0  0  0
  9 24  1  0  0  0  0
 10 25  2  0  0  0  0
 11 27  1  0  0  0  0
 12 27  2  0  0  0  0
 13 28  1  0  0  0  0
 14 15  2  0  0  0  0
 14 29  1  0  0  0  0
 15 30  1  0  0  0  0
 16 23  1  0  0  0  0
 16 28  2  0  0  0  0
 17 30  2  0  0  0  0
 17 31  1  0  0  0  0
 18 32  1  0  0  0  0
 19 32  1  0  0  0  0
 19 33  2  0  0  0  0
 19 34  1  0  0  0  0
 20 22  2  0  0  0  0
 20 40  1  0  0  0  0
 21 23  2  0  0  0  0
 21 41  1  0  0  0  0
 22 49  1  0  0  0  0
 23 42  1  0  0  0  0
 24 26  2  0  0  0  0
 24 59  1  0  0  0  0
 25 26  1  0  0  0  0
 25 61  1  0  0  0  0
 26 52  1  0  0  0  0
 27 83  1  0  0  0  0
 28 84  1  0  0  0  0
 29 31  2  0  0  0  0
 29 83  1  0  0  0  0
 30 85  1  0  0  0  0
 31 86  1  0  0  0  0
 32 66  2  0  0  0  0
 33 67  1  0  0  0  0
 33 70  1  0  0  0  0
 34 71  1  0  0  0  0
 34 77  2  0  0  0  0
 35 50  1  0  0  0  0
 35 72  1  0  0  0  0
 35 78  2  0  0  0  0
 36 62  1  0  0  0  0
 36 68  1  0  0  0  0
 36 79  2  0  0  0  0
 37 60  1  0  0  0  0
 37 75  1  0  0  0  0
 37 80  2  0  0  0  0
 38 63  1  0  0  0  0
 38 73  1  0  0  0  0
 38 81  2  0  0  0  0
 39 69  1  0  0  0  0
 39 74  1  0  0  0  0
 39 82  2  0  0  0  0
 40 43  1  0  0  0  0
 41 50  1  0  0  0  0
 42 68  1  0  0  0  0
 43 45  1  0  0  0  0
 44 46  1  0  0  0  0
 44 47  1  0  0  0  0
 45 49  1  0  0  0  0
 46 51  1  0  0  0  0
 47 69  1  0  0  0  0
 48 51  1  0  0  0  0
 48 69  1  0  0  0  0
 49 72  1  0  0  0  0
 50 68  1  0  0  0  0
 51 67  1  0  0  0  0
 53 63  1  0  0  0  0
 54 65  1  0  0  0  0
 55 65  1  0  0  0  0
 56 65  1  0  0  0  0
 57 75  1  0  0  0  0
 58 76  1  0  0  0  0
 59 75  1  0  0  0  0
 60 84  1  0  0  0  0
 61 64  1  0  0  0  0
 61 74  1  0  0  0  0
 62 65  1  0  0  0  0
 62 73  1  0  0  0  0
 63 76  1  0  0  0  0
 64 87  1  0  0  0  0
 64 88  1  0  0  0  0
 66 67  1  0  0  0  0
M  CHG  1  76   1
M  ISO  4  39 100  60 101  74 100  84 101
M  END
> <Batch ID>
0051

> <Smiles>
CNC(C)C(=O)NC(C(=O)N1Cc2cc([101O:1][101CH2:1]C(=O)N(C)Cc3cccc(C([100NH:0][100C:0](=O)N4CCCC(n5nc(-c6ccc(Oc7ccc(F)cc7F)cc6)c(C(N)=O)c5N)C4)C(F)F)c3C)ccc2CC1C(=O)NC1CCCc2ccccc21)C(C)(C)C

> <Shape>
0.213

> <Color>
0.079

> <Negative vol penalty>
0.000

$$$$

  -OEChem-04042322373D

 90 99  0     1  0  0  0  0  0999 V2000
  -27.7443  -37.7652   22.6635 C   0  0  0  0  0  0  0  0  0  0  0  0
  -28.2157  -36.7475   21.8403 C   0  0  0  0  0  0  0  0  0  0  0  0
  -30.1500   -8.1161   18.9887 C   0  0  0  0  0  0  0  0  0  0  0  0
  -28.4639   -7.0781   20.3731 C   0  0  0  0  0  0  0  0  0  0  0  0
  -27.0042  -37.4522   23.8029 C   0  0  0  0  0  0  0  0  0  0  0  0
  -27.9482  -35.4160   22.1568 C   0  0  0  0  0  0  0  0  0  0  0  0
  -26.7050  -29.0811   19.0521 C   0  0  0  0  0  0  0  0  0  0  0  0
  -30.4526   -6.8757   18.4271 C   0  0  0  0  0  0  0  0  0  0  0  0
  -28.7664   -5.8377   19.8114 C   0  0  0  0  0  0  0  0  0  0  0  0
  -27.1555  -27.7619   19.0782 C   0  0  0  0  0  0  0  0  0  0  0  0
  -31.1487   -3.4629   20.1520 C   0  0  0  0  0  0  0  0  0  0  0  0
  -31.2775   -2.3748   21.0151 C   0  0  0  0  0  0  0  0  0  0  0  0
  -25.7994  -27.3437   21.0289 C   0  0  0  0  0  0  0  0  0  0  0  0
  -28.4161  -18.9698   19.5043 C   0  0  0  0  0  0  0  0  0  0  0  0
  -25.7946  -18.0349   19.3128 C   0  0  0  0  0  0  0  0  0  0  0  0
  -29.4723   -1.2512   19.8679 C   0  0  0  0  0  0  0  0  0  0  0  0
  -29.1557   -8.2173   19.9618 C   0  0  0  0  0  0  0  0  0  0  0  0
  -29.7136  -10.3426   21.2579 C   0  0  0  0  0  0  0  0  0  0  0  0
  -26.7193  -36.1166   24.1282 C   0  0  0  0  0  0  0  0  0  0  0  0
  -25.8052  -29.5452   20.0224 C   0  0  0  0  0  0  0  0  0  0  0  0
  -27.2047  -35.0848   23.3023 C   0  0  0  0  0  0  0  0  0  0  0  0
  -25.3370  -28.6685   21.0114 C   0  0  0  0  0  0  0  0  0  0  0  0
  -27.4239  -19.7830   18.9567 C   0  0  0  0  0  0  0  0  0  0  0  0
  -28.0976  -17.6891   19.9560 C   0  0  0  0  0  0  0  0  0  0  0  0
  -26.1131  -19.3156   18.8610 C   0  0  0  0  0  0  0  0  0  0  0  0
  -26.7869  -17.2217   19.8603 C   0  0  0  0  0  0  0  0  0  0  0  0
  -29.7607   -5.7365   18.8383 C   0  0  0  0  0  0  0  0  0  0  0  0
  -26.7050  -26.8938   20.0684 C   0  0  0  0  0  0  0  0  0  0  0  0
  -30.1816   -3.4453   19.1469 C   0  0  0  0  0  0  0  0  0  0  0  0
  -30.4394   -1.2689   20.8730 C   0  0  0  0  0  0  0  0  0  0  0  0
  -29.3435   -2.3394   19.0048 C   0  0  0  0  0  0  0  0  0  0  0  0
  -28.8432   -9.4983   20.5428 C   0  0  0  0  0  0  0  0  0  0  0  0
  -28.9411  -11.4276   21.5931 C   0  0  0  0  0  0  0  0  0  0  0  0
  -28.8158  -23.2446   19.1581 C   0  0  0  0  0  0  0  0  0  0  0  0
  -30.1002  -23.2763   19.5443 C   0  0  0  0  0  0  0  0  0  0  0  0
  -31.0968  -10.1622   21.5893 C   0  0  0  0  0  0  0  0  0  0  0  0
  -30.6690  -22.1779   20.3653 C   0  0  0  0  0  0  0  0  0  0  0  0
  -25.8939  -31.7867   22.2744 C   0  0  0  0  0  0  0  0  0  0  0  0
  -22.7716  -30.9884   22.6439 C   0  0  0  0  0  0  0  0  0  0  0  0
  -20.8185  -27.9554   22.7059 C   0  0  0  0  0  0  0  0  0  0  0  0
  -25.1851  -15.3239   20.2836 C   0  0  0  0  0  0  0  0  0  0  0  0
  -25.9557  -35.8253   25.3958 C   0  0  0  0  0  0  0  0  0  0  0  0
  -25.3081  -30.9636   19.9645 C   0  0  0  0  0  0  0  0  0  0  0  0
  -24.3552  -29.1119   22.0640 C   0  0  0  0  0  0  0  0  0  0  0  0
  -28.1822  -24.3288   18.3250 C   0  0  0  0  0  0  0  0  0  0  0  0
  -25.3967  -34.4062   25.4576 C   0  0  0  0  0  0  0  0  0  0  0  0
  -23.9398  -12.1369   21.2680 C   0  0  0  0  0  0  0  0  0  0  0  0
  -26.4611  -33.3946   25.0447 C   0  0  0  0  0  0  0  0  0  0  0  0
  -25.1761  -11.2358   21.2259 C   0  0  0  0  0  0  0  0  0  0  0  0
  -25.9897  -23.6244   19.3721 C   0  0  0  0  0  0  0  0  0  0  0  0
  -23.9529  -13.1705   20.1433 C   0  0  0  0  0  0  0  0  0  0  0  0
  -26.4114  -13.0788   20.0160 C   0  0  0  0  0  0  0  0  0  0  0  0
  -26.7417  -22.6289   20.2544 C   0  0  0  0  0  0  0  0  0  0  0  0
  -26.9141  -33.6295   23.5987 C   0  0  1  0  0  0  0  0  0  0  0  0
  -24.7889  -31.4700   21.3067 C   0  0  1  0  0  0  0  0  0  0  0  0
  -26.4750  -12.0634   21.1686 C   0  0  2  0  0  0  0  0  0  0  0  0
  -26.8695  -24.8011   18.9503 C   0  0  1  0  0  0  0  0  0  1  0  0
  -29.1805  -16.8398   20.5381 C   0  0  0  0  0  0  0  0  0  0  0  0
  -25.0343  -20.1682   18.2783 C   0  0  0  0  0  0  0  0  0  0  0  0
  -31.8296  -21.4257   19.7697 C   0  0  0  0  0  0  0  0  0  0  0  0
  -18.4070  -27.5559   22.1381 C   0  0  0  0  0  0  0  0  0  0  0  0
  -22.3028  -31.3827   25.6330 C   0  0  0  0  0  0  0  0  0  0  0  0
  -20.5884  -29.5609   25.5336 C   0  0  0  0  0  0  0  0  0  0  0  0
  -20.2621  -31.6517   24.2126 C   0  0  0  0  0  0  0  0  0  0  0  0
  -21.5094  -25.8544   20.7394 C   0  0  0  0  0  0  0  0  0  0  0  0
  -27.7902  -21.1567   18.4772 C   0  0  0  0  0  0  0  0  0  0  0  0
  -22.0166  -29.9846   23.4814 C   0  0  1  0  0  0  0  0  0  0  0  0
  -19.8433  -27.4806   21.6439 C   0  0  2  0  0  0  0  0  0  0  0  0
  -21.3192  -30.6402   24.7066 C   0  0  0  0  0  0  0  0  0  0  0  0
  -27.6119  -10.0035   20.4300 N   0  0  0  0  0  0  0  0  0  0  0  0
  -27.7030  -11.1769   21.0788 N   0  0  0  0  0  0  0  0  0  0  0  0
  -23.9035  -30.5099   21.9689 N   0  0  0  0  0  0  0  0  0  0  0  0
  -25.2116  -13.9192   20.1536 N   0  0  0  0  0  0  0  0  0  0  0  0
  -29.2068  -12.5621   22.2748 N   0  0  0  0  0  0  0  0  0  0  0  0
  -31.7377   -8.9895   21.1670 N   0  0  0  0  0  0  0  0  0  0  0  0
  -26.4436  -15.9239   20.3138 N   0  0  0  0  0  0  0  0  0  0  0  0
  -25.9326  -33.1098   22.6708 N   0  0  0  0  0  0  0  0  0  0  0  0
  -21.1057  -29.2974   22.5723 N   0  0  0  0  0  0  0  0  0  0  0  0
  -28.0097  -22.1334   19.5993 N   0  3  1  0  0  0  0  0  0  0  0  0
  -20.1366  -26.0695   21.2649 N   0  3  0  0  0  0  0  0  0  0  0  0
  -31.7409  -11.0082   22.2549 O   0  0  0  0  0  0  0  0  0  0  0  0
  -30.2403  -21.9034   21.4838 O   0  0  0  0  0  0  0  0  0  0  0  0
  -26.6541  -30.8961   22.6359 O   0  0  0  0  0  0  0  0  0  0  0  0
  -22.3677  -32.1525   22.5849 O   0  0  0  0  0  0  0  0  0  0  0  0
  -21.2767  -27.2111   23.5700 O   0  0  0  0  0  0  0  0  0  0  0  0
  -24.1251  -15.9460   20.3896 O   0  0  0  0  0  0  0  0  0  0  0  0
  -30.0555   -4.5260   18.2903 O   0  0  0  0  0  0  0  0  0  0  0  0
  -27.1437  -25.6059   20.0966 O   0  0  0  0  0  0  0  0  0  1  0  0
  -30.5642   -0.2234   21.7009 F   0  0  0  0  0  0  0  0  0  0  0  0
  -28.4134   -2.3161   18.0404 F   0  0  0  0  0  0  0  0  0  0  0  0
  1  2  1  0  0  0  0
  1  5  2  0  0  0  0
  2  6  2  0  0  0  0
  3  8  2  0  0  0  0
  3 17  1  0  0  0  0
  4  9  1  0  0  0  0
  4 17  2  0  0  0  0
  5 19  1  0  0  0  0
  6 21  1  0  0  0  0
  7 10  2  0  0  0  0
  7 20  1  0  0  0  0
  8 27  1  0  0  0  0
  9 27  2  0  0  0  0
 10 28  1  0  0  0  0
 11 12  2  0  0  0  0
 11 29  1  0  0  0  0
 12 30  1  0  0  0  0
 13 22  1  0  0  0  0
 13 28  2  0  0  0  0
 14 23  1  0  0  0  0
 14 24  2  0  0  0  0
 15 25  1  0  0  0  0
 15 26  2  0  0  0  0
 16 30  2  0  0  0  0
 16 31  1  0  0  0  0
 17 32  1  0  0  0  0
 18 32  1  0  0  0  0
 18 33  2  0  0  0  0
 18 36  1  0  0  0  0
 19 21  2  0  0  0  0
 19 42  1  0  0  0  0
 20 22  2  0  0  0  0
 20 43  1  0  0  0  0
 21 54  1  0  0  0  0
 22 44  1  0  0  0  0
 23 25  2  0  0  0  0
 23 66  1  0  0  0  0
 24 26  1  0  0  0  0
 24 58  1  0  0  0  0
 25 59  1  0  0  0  0
 26 76  1  0  0  0  0
 27 87  1  0  0  0  0
 28 88  1  0  0  0  0
 29 31  2  0  0  0  0
 29 87  1  0  0  0  0
 30 89  1  0  0  0  0
 31 90  1  0  0  0  0
 32 70  2  0  0  0  0
 33 71  1  0  0  0  0
 33 74  1  0  0  0  0
 34 35  2  0  0  0  0
 34 45  1  0  0  0  0
 34 79  1  0  0  0  0
 35 37  1  0  0  0  0
 36 75  1  0  0  0  0
 36 81  2  0  0  0  0
 37 60  1  0  0  0  0
 37 82  2  0  0  0  0
 38 55  1  0  0  0  0
 38 77  1  0  0  0  0
 38 83  2  0  0  0  0
 39 67  1  0  0  0  0
 39 72  1  0  0  0  0
 39 84  2  0  0  0  0
 40 68  1  0  0  0  0
 40 78  1  0  0  0  0
 40 85  2  0  0  0  0
 41 73  1  0  0  0  0
 41 76  1  0  0  0  0
 41 86  2  0  0  0  0
 42 46  1  0  0  0  0
 43 55  1  0  0  0  0
 44 72  1  0  0  0  0
 45 57  1  0  0  0  0
 46 48  1  0  0  0  0
 47 49  1  0  0  0  0
 47 51  1  0  0  0  0
 48 54  1  0  0  0  0
 49 56  1  0  0  0  0
 50 53  1  0  0  0  0
 50 57  1  0  0  0  0
 51 73  1  0  0  0  0
 52 56  1  0  0  0  0
 52 73  1  0  0  0  0
 53 79  1  0  0  0  0
 54 77  1  0  0  0  0
 55 72  1  0  0  0  0
 56 71  1  0  0  0  0
 57 88  1  0  0  0  0
 61 68  1  0  0  0  0
 62 69  1  0  0  0  0
 63 69  1  0  0  0  0
 64 69  1  0  0  0  0
 65 80  1  0  0  0  0
 66 79  1  0  0  0  0
 67 69  1  0  0  0  0
 67 78  1  0  0  0  0
 68 80  1  0  0  0  0
 70 71  1  0  0  0  0
M  CHG  2  79   1  80   1
M  ISO  4  41 100  57 101  76 100  88 101
M  END
> <Batch ID>
0051

> <Smiles>
CNC(C)C(=O)NC(C(=O)N1Cc2cc([101O:1][101CH:1]3CCN(Cc4cc(C)c([100NH:0][100C:0](=O)N5CCCC(n6nc(-c7ccc(Oc8ccc(F)cc8F)cc7)c(C(N)=O)c6N)C5)cc4C)C(=CC(C)=O)C3)ccc2CC1C(=O)NC1CCCc2ccccc21)C(C)(C)C

> <Shape>
0.269

> <Color>
0.079

> <Negative vol penalty>
0.000

$$$$

  -OEChem-04042322373D

 88 96  0     1  0  0  0  0  0999 V2000
  -15.7337  -25.3733   23.5994 C   0  0  0  0  0  0  0  0  0  0  0  0
  -16.5679  -24.7170   22.7001 C   0  0  0  0  0  0  0  0  0  0  0  0
  -25.7568  -13.4345   20.9077 C   0  0  0  0  0  0  0  0  0  0  0  0
  -24.5247  -14.2138   18.9811 C   0  0  0  0  0  0  0  0  0  0  0  0
  -15.9191  -26.7309   23.8573 C   0  0  0  0  0  0  0  0  0  0  0  0
  -17.5874  -25.4183   22.0572 C   0  0  0  0  0  0  0  0  0  0  0  0
  -23.1073  -23.2777   20.4905 C   0  0  0  0  0  0  0  0  0  0  0  0
  -32.6459  -22.3322   15.2224 C   0  0  0  0  0  0  0  0  0  0  0  0
  -24.7317  -12.5346   21.1993 C   0  0  0  0  0  0  0  0  0  0  0  0
  -23.4996  -13.3139   19.2727 C   0  0  0  0  0  0  0  0  0  0  0  0
  -23.6194  -22.7957   19.2867 C   0  0  0  0  0  0  0  0  0  0  0  0
  -23.6749   -9.5191   20.0935 C   0  0  0  0  0  0  0  0  0  0  0  0
  -24.0342   -8.2137   20.4289 C   0  0  0  0  0  0  0  0  0  0  0  0
  -32.7376  -21.7939   16.5059 C   0  0  0  0  0  0  0  0  0  0  0  0
  -24.5305  -24.9774   18.8077 C   0  0  0  0  0  0  0  0  0  0  0  0
  -22.9625   -8.4713   22.5789 C   0  0  0  0  0  0  0  0  0  0  0  0
  -25.6533  -14.2741   19.7986 C   0  0  0  0  0  0  0  0  0  0  0  0
  -27.8380  -14.9762   18.6843 C   0  0  0  0  0  0  0  0  0  0  0  0
  -16.9475  -27.4470   23.2245 C   0  0  0  0  0  0  0  0  0  0  0  0
  -23.2939  -24.6182   20.8575 C   0  0  0  0  0  0  0  0  0  0  0  0
  -17.7859  -26.7871   22.3058 C   0  0  0  0  0  0  0  0  0  0  0  0
  -24.0220  -25.4733   20.0179 C   0  0  0  0  0  0  0  0  0  0  0  0
  -31.3968  -22.5032   14.6255 C   0  0  0  0  0  0  0  0  0  0  0  0
  -30.2395  -22.1359   15.3121 C   0  0  0  0  0  0  0  0  0  0  0  0
  -30.3313  -21.5975   16.5956 C   0  0  0  0  0  0  0  0  0  0  0  0
  -23.6032  -12.4743   20.3818 C   0  0  0  0  0  0  0  0  0  0  0  0
  -24.3286  -23.6463   18.4437 C   0  0  0  0  0  0  0  0  0  0  0  0
  -22.9595  -10.3006   21.0007 C   0  0  0  0  0  0  0  0  0  0  0  0
  -23.6780   -7.6898   21.6716 C   0  0  0  0  0  0  0  0  0  0  0  0
  -22.6032   -9.7767   22.2434 C   0  0  0  0  0  0  0  0  0  0  0  0
  -31.5804  -21.4265   17.1925 C   0  0  0  0  0  0  0  0  0  0  0  0
  -26.7115  -15.2043   19.4972 C   0  0  0  0  0  0  0  0  0  0  0  0
  -28.5319  -16.1609   18.7187 C   0  0  0  0  0  0  0  0  0  0  0  0
  -28.2226  -13.7985   17.9625 C   0  0  0  0  0  0  0  0  0  0  0  0
  -21.3626  -27.0782   21.4252 C   0  0  0  0  0  0  0  0  0  0  0  0
  -24.1225  -28.5417   22.2990 C   0  0  0  0  0  0  0  0  0  0  0  0
  -26.8234  -22.7823   15.9849 C   0  0  0  0  0  0  0  0  0  0  0  0
  -27.5219  -28.7040   22.0454 C   0  0  0  0  0  0  0  0  0  0  0  0
  -28.6879  -21.7225   18.5009 C   0  0  0  0  0  0  0  0  0  0  0  0
  -17.0792  -28.9240   23.4995 C   0  0  0  0  0  0  0  0  0  0  0  0
  -22.7582  -25.1159   22.1719 C   0  0  0  0  0  0  0  0  0  0  0  0
  -24.2674  -26.9157   20.3753 C   0  0  0  0  0  0  0  0  0  0  0  0
  -18.4191  -29.5084   23.0597 C   0  0  0  0  0  0  0  0  0  0  0  0
  -27.9358  -20.2435   21.6511 C   0  0  0  0  0  0  0  0  0  0  0  0
  -18.7729  -29.0335   21.6539 C   0  0  0  0  0  0  0  0  0  0  0  0
  -27.6429  -18.7819   21.3047 C   0  0  0  0  0  0  0  0  0  0  0  0
  -27.4215  -21.1959   20.5731 C   0  0  0  0  0  0  0  0  0  0  0  0
  -27.5797  -19.4298   18.8627 C   0  0  0  0  0  0  0  0  0  0  0  0
  -18.9186  -27.5077   21.6074 C   0  0  1  0  0  0  0  0  0  0  0  0
  -22.5661  -26.6290   22.2045 C   0  0  1  0  0  0  0  0  0  0  0  0
  -28.1366  -18.4286   19.8880 C   0  0  2  0  0  0  0  0  0  0  0  0
  -29.4959  -30.0303   22.8464 C   0  0  0  0  0  0  0  0  0  0  0  0
  -23.4058  -30.7793   20.3524 C   0  0  0  0  0  0  0  0  0  0  0  0
  -25.7825  -31.5562   20.4791 C   0  0  0  0  0  0  0  0  0  0  0  0
  -24.3611  -31.5564   22.5291 C   0  0  0  0  0  0  0  0  0  0  0  0
  -28.5301  -24.5703   15.6072 C   0  0  0  0  0  0  0  0  0  0  0  0
  -28.7182  -26.3428   23.3692 C   0  0  0  0  0  0  0  0  0  0  0  0
  -28.8991  -22.3252   14.6628 C   0  0  0  0  0  0  0  0  0  0  0  0
  -26.0219  -23.7913   16.7800 C   0  0  0  0  0  0  0  0  0  1  0  0
  -25.1733  -29.3565   21.5842 C   0  0  1  0  0  0  0  0  0  0  0  0
  -28.6062  -28.8236   23.1011 C   0  0  2  0  0  0  0  0  0  0  0  0
  -31.3273  -23.0812   13.2499 C   0  0  0  0  0  0  0  0  0  0  0  0
  -24.6745  -30.7854   21.2283 C   0  0  0  0  0  0  0  0  0  0  0  0
  -26.6874  -16.4371   20.0107 N   0  0  0  0  0  0  0  0  0  0  0  0
  -27.8074  -16.9942   19.5192 N   0  0  0  0  0  0  0  0  0  0  0  0
  -23.7181  -27.3566   21.6681 N   0  0  0  0  0  0  0  0  0  0  0  0
  -27.9334  -20.8020   19.2586 N   0  0  0  0  0  0  0  0  0  0  0  0
  -29.6851  -16.5608   18.1420 N   0  0  0  0  0  0  0  0  0  0  0  0
  -27.3951  -12.6697   18.0360 N   0  0  0  0  0  0  0  0  0  0  0  0
  -29.1492  -21.2252   17.2825 N   0  0  0  0  0  0  0  0  0  0  0  0
  -20.1934  -27.1046   22.1612 N   0  0  0  0  0  0  0  0  0  0  0  0
  -26.3579  -29.3318   22.4355 N   0  0  0  0  0  0  0  0  0  0  0  0
  -28.0350  -23.2094   15.4407 N   0  0  0  0  0  0  0  0  0  0  0  0
  -29.4606  -27.6025   23.1067 N   0  3  0  0  0  0  0  0  0  0  0  0
  -29.2775  -13.7434   17.2860 O   0  0  0  0  0  0  0  0  0  0  0  0
  -21.4859  -27.3800   20.2439 O   0  0  0  0  0  0  0  0  0  0  0  0
  -23.6820  -28.9383   23.3808 O   0  0  0  0  0  0  0  0  0  0  0  0
  -26.3788  -21.6370   15.8605 O   0  0  0  0  0  0  0  0  0  0  0  0
  -27.6919  -28.1159   20.9796 O   0  0  0  0  0  0  0  0  0  0  0  0
  -28.9316  -22.8587   18.9153 O   0  0  0  0  0  0  0  0  0  0  0  0
  -22.6028  -11.5961   20.6659 O   0  0  0  0  0  0  0  0  0  0  0  0
  -24.8290  -23.1786   17.2678 O   0  0  0  0  0  0  0  0  0  1  0  0
  -24.0218   -6.4357   21.9930 F   0  0  0  0  0  0  0  0  0  0  0  0
  -21.9148  -10.5222   23.1187 F   0  0  0  0  0  0  0  0  0  0  0  0
  -32.5498  -23.3841   12.7234 F   0  0  0  0  0  0  0  0  0  0  0  0
  -30.7413  -22.2503   12.3392 F   0  0  0  0  0  0  0  0  0  0  0  0
  -30.6101  -24.2405   13.2055 F   0  0  0  0  0  0  0  0  0  0  0  0
  -31.7440  -20.7683   18.7821 Cl  0  0  0  0  0  0  0  0  0  0  0  0
  1  2  1  0  0  0  0
  1  5  2  0  0  0  0
  2  6  2  0  0  0  0
  3  9  2  0  0  0  0
  3 17  1  0  0  0  0
  4 10  1  0  0  0  0
  4 17  2  0  0  0  0
  5 19  1  0  0  0  0
  6 21  1  0  0  0  0
  7 11  2  0  0  0  0
  7 20  1  0  0  0  0
  8 14  1  0  0  0  0
  8 23  2  0  0  0  0
  9 26  1  0  0  0  0
 10 26  2  0  0  0  0
 11 27  1  0  0  0  0
 12 13  2  0  0  0  0
 12 28  1  0  0  0  0
 13 29  1  0  0  0  0
 14 31  2  0  0  0  0
 15 22  1  0  0  0  0
 15 27  2  0  0  0  0
 16 29  2  0  0  0  0
 16 30  1  0  0  0  0
 17 32  1  0  0  0  0
 18 32  1  0  0  0  0
 18 33  2  0  0  0  0
 18 34  1  0  0  0  0
 19 21  2  0  0  0  0
 19 40  1  0  0  0  0
 20 22  2  0  0  0  0
 20 41  1  0  0  0  0
 21 49  1  0  0  0  0
 22 42  1  0  0  0  0
 23 24  1  0  0  0  0
 23 62  1  0  0  0  0
 24 25  2  0  0  0  0
 24 58  1  0  0  0  0
 25 31  1  0  0  0  0
 25 70  1  0  0  0  0
 26 81  1  0  0  0  0
 27 82  1  0  0  0  0
 28 30  2  0  0  0  0
 28 81  1  0  0  0  0
 29 83  1  0  0  0  0
 30 84  1  0  0  0  0
 31 88  1  0  0  0  0
 32 64  2  0  0  0  0
 33 65  1  0  0  0  0
 33 68  1  0  0  0  0
 34 69  1  0  0  0  0
 34 75  2  0  0  0  0
 35 50  1  0  0  0  0
 35 71  1  0  0  0  0
 35 76  2  0  0  0  0
 36 60  1  0  0  0  0
 36 66  1  0  0  0  0
 36 77  2  0  0  0  0
 37 59  1  0  0  0  0
 37 73  1  0  0  0  0
 37 78  2  0  0  0  0
 38 61  1  0  0  0  0
 38 72  1  0  0  0  0
 38 79  2  0  0  0  0
 39 67  1  0  0  0  0
 39 70  1  0  0  0  0
 39 80  2  0  0  0  0
 40 43  1  0  0  0  0
 41 50  1  0  0  0  0
 42 66  1  0  0  0  0
 43 45  1  0  0  0  0
 44 46  1  0  0  0  0
 44 47  1  0  0  0  0
 45 49  1  0  0  0  0
 46 51  1  0  0  0  0
 47 67  1  0  0  0  0
 48 51  1  0  0  0  0
 48 67  1  0  0  0  0
 49 71  1  0  0  0  0
 50 66  1  0  0  0  0
 51 65  1  0  0  0  0
 52 61  1  0  0  0  0
 53 63  1  0  0  0  0
 54 63  1  0  0  0  0
 55 63  1  0  0  0  0
 56 73  1  0  0  0  0
 57 74  1  0  0  0  0
 58 73  1  0  0  0  0
 59 82  1  0  0  0  0
 60 63  1  0  0  0  0
 60 72  1  0  0  0  0
 61 74  1  0  0  0  0
 62 85  1  0  0  0  0
 62 86  1  0  0  0  0
 62 87  1  0  0  0  0
 64 65  1  0  0  0  0
M  CHG  1  74   1
M  ISO  4  39 100  59 101  70 100  82 101
M  END
> <Batch ID>
0051

> <Smiles>
CNC(C)C(=O)NC(C(=O)N1Cc2cc([101O:1][101CH2:1]C(=O)N(C)Cc3c(C(F)(F)F)ccc(Cl)c3[100NH:0][100C:0](=O)N3CCCC(n4nc(-c5ccc(Oc6ccc(F)cc6F)cc5)c(C(N)=O)c4N)C3)ccc2CC1C(=O)NC1CCCc2ccccc21)C(C)(C)C

> <Shape>
0.227

> <Color>
0.066

> <Negative vol penalty>
0.000

$$$$

  -OEChem-04042322373D

 83 91  0     1  0  0  0  0  0999 V2000
  -29.6828  -33.8889   17.9950 C   0  0  0  0  0  0  0  0  0  0  0  0
  -30.0943  -32.8662   18.8437 C   0  0  0  0  0  0  0  0  0  0  0  0
  -32.7068  -17.4221   23.4390 C   0  0  0  0  0  0  0  0  0  0  0  0
  -23.0665   -9.8799   19.9380 C   0  0  0  0  0  0  0  0  0  0  0  0
  -23.8332   -9.8721   22.2291 C   0  0  0  0  0  0  0  0  0  0  0  0
  -28.3967  -33.8715   17.4569 C   0  0  0  0  0  0  0  0  0  0  0  0
  -29.2195  -31.8261   19.1557 C   0  0  0  0  0  0  0  0  0  0  0  0
  -30.6742  -25.9555   20.1176 C   0  0  0  0  0  0  0  0  0  0  0  0
  -31.9335  -18.2968   24.2021 C   0  0  0  0  0  0  0  0  0  0  0  0
  -32.0922  -16.5528   22.5377 C   0  0  0  0  0  0  0  0  0  0  0  0
  -22.3184   -8.7287   20.1844 C   0  0  0  0  0  0  0  0  0  0  0  0
  -23.0851   -8.7210   22.4756 C   0  0  0  0  0  0  0  0  0  0  0  0
  -30.8727  -25.2172   21.2835 C   0  0  0  0  0  0  0  0  0  0  0  0
  -19.8553   -7.9341   23.0837 C   0  0  0  0  0  0  0  0  0  0  0  0
  -19.1016   -7.8916   24.2566 C   0  0  0  0  0  0  0  0  0  0  0  0
  -28.5898  -24.4450   21.1758 C   0  0  0  0  0  0  0  0  0  0  0  0
  -20.3368   -5.9451   24.9797 C   0  0  0  0  0  0  0  0  0  0  0  0
  -23.8240  -10.4516   20.9603 C   0  0  0  0  0  0  0  0  0  0  0  0
  -24.1764  -12.9758   20.8519 C   0  0  0  0  0  0  0  0  0  0  0  0
  -27.5090  -32.8256   17.7547 C   0  0  0  0  0  0  0  0  0  0  0  0
  -29.4268  -25.9527   19.4770 C   0  0  0  0  0  0  0  0  0  0  0  0
  -27.9199  -31.7955   18.6221 C   0  0  0  0  0  0  0  0  0  0  0  0
  -28.3789  -25.1820   20.0005 C   0  0  0  0  0  0  0  0  0  0  0  0
  -30.5455  -18.3022   24.0640 C   0  0  0  0  0  0  0  0  0  0  0  0
  -29.9308  -17.4329   23.1628 C   0  0  0  0  0  0  0  0  0  0  0  0
  -30.7042  -16.5582   22.3996 C   0  0  0  0  0  0  0  0  0  0  0  0
  -22.3276   -8.1493   21.4532 C   0  0  0  0  0  0  0  0  0  0  0  0
  -29.8296  -24.4641   21.8144 C   0  0  0  0  0  0  0  0  0  0  0  0
  -20.8496   -6.9821   22.8587 C   0  0  0  0  0  0  0  0  0  0  0  0
  -19.3424   -6.8971   25.2046 C   0  0  0  0  0  0  0  0  0  0  0  0
  -21.0904   -5.9876   23.8067 C   0  0  0  0  0  0  0  0  0  0  0  0
  -24.5975  -11.6404   20.7063 C   0  0  0  0  0  0  0  0  0  0  0  0
  -25.2708  -13.7223   20.4891 C   0  0  0  0  0  0  0  0  0  0  0  0
  -22.9095  -13.4950   21.2772 C   0  0  0  0  0  0  0  0  0  0  0  0
  -27.2489  -28.1662   18.7980 C   0  0  0  0  0  0  0  0  0  0  0  0
  -25.8334  -25.7251   17.1981 C   0  0  0  0  0  0  0  0  0  0  0  0
  -29.9947  -21.5396   23.9517 C   0  0  0  0  0  0  0  0  0  0  0  0
  -25.4252  -22.3577   16.8230 C   0  0  0  0  0  0  0  0  0  0  0  0
  -30.7419  -14.7434   20.6528 C   0  0  0  0  0  0  0  0  0  0  0  0
  -26.1127  -32.8747   17.1868 C   0  0  0  0  0  0  0  0  0  0  0  0
  -29.2367  -26.7332   18.2054 C   0  0  0  0  0  0  0  0  0  0  0  0
  -27.0265  -25.1292   19.3397 C   0  0  0  0  0  0  0  0  0  0  0  0
  -25.3744  -31.5411   17.2690 C   0  0  0  0  0  0  0  0  0  0  0  0
  -29.6101  -12.3463   18.2758 C   0  0  0  0  0  0  0  0  0  0  0  0
  -25.5344  -30.9271   18.6561 C   0  0  0  0  0  0  0  0  0  0  0  0
  -28.1705  -12.0588   18.7082 C   0  0  0  0  0  0  0  0  0  0  0  0
  -30.5297  -12.5651   19.4759 C   0  0  0  0  0  0  0  0  0  0  0  0
  -28.6300  -13.2909   20.8664 C   0  0  0  0  0  0  0  0  0  0  0  0
  -27.0083  -30.6371   18.9645 C   0  0  1  0  0  0  0  0  0  0  0  0
  -27.7751  -27.0654   17.9210 C   0  0  1  0  0  0  0  0  0  0  0  0
  -27.6530  -13.1278   19.6906 C   0  0  2  0  0  0  0  0  0  0  0  0
  -28.4412  -17.4425   23.0180 C   0  0  0  0  0  0  0  0  0  0  0  0
  -24.1749  -20.6651   15.4558 C   0  0  0  0  0  0  0  0  0  0  0  0
  -23.2947  -26.3256   18.7806 C   0  0  0  0  0  0  0  0  0  0  0  0
  -22.4221  -24.0801   18.0991 C   0  0  0  0  0  0  0  0  0  0  0  0
  -22.9184  -25.8024   16.3641 C   0  0  0  0  0  0  0  0  0  0  0  0
  -27.9310  -21.1757   15.7826 C   0  0  0  0  0  0  0  0  0  0  0  0
  -29.7369  -19.2539   24.8976 C   0  0  0  0  0  0  0  0  0  0  0  0
  -29.2534  -22.5490   23.1013 C   0  0  0  0  0  0  0  0  0  1  0  0
  -24.8312  -24.6532   17.5526 C   0  0  1  0  0  0  0  0  0  0  0  0
  -25.4580  -21.4700   15.5920 C   0  0  2  0  0  0  0  0  0  0  0  0
  -23.3914  -25.2177   17.7129 C   0  0  0  0  0  0  0  0  0  0  0  0
  -25.8607  -11.5412   20.2837 N   0  0  0  0  0  0  0  0  0  0  0  0
  -26.2428  -12.8237   20.1607 N   0  0  0  0  0  0  0  0  0  0  0  0
  -26.8883  -25.9144   18.1021 N   0  0  0  0  0  0  0  0  0  0  0  0
  -29.9778  -13.5940   20.3601 N   0  0  0  0  0  0  0  0  0  0  0  0
  -25.4867  -15.0532   20.4221 N   0  0  0  0  0  0  0  0  0  0  0  0
  -21.8946  -12.5885   21.6129 N   0  0  0  0  0  0  0  0  0  0  0  0
  -30.1010  -15.6671   21.4777 N   0  0  0  0  0  0  0  0  0  0  0  0
  -27.4398  -29.4347   18.2843 N   0  0  0  0  0  0  0  0  0  0  0  0
  -29.2594  -20.3775   24.1253 N   0  0  0  0  0  0  0  0  0  0  0  0
  -24.9580  -23.6213   16.5291 N   0  0  0  0  0  0  0  0  0  0  0  0
  -26.6031  -20.5193   15.6694 N   0  3  0  0  0  0  0  0  0  0  0  0
  -22.6787  -14.7263   21.3413 O   0  0  0  0  0  0  0  0  0  0  0  0
  -26.7083  -27.8853   19.8613 O   0  0  0  0  0  0  0  0  0  0  0  0
  -25.6896  -26.3658   16.1538 O   0  0  0  0  0  0  0  0  0  0  0  0
  -31.1103  -21.7549   24.4175 O   0  0  0  0  0  0  0  0  0  0  0  0
  -25.7752  -21.9680   17.9348 O   0  0  0  0  0  0  0  0  0  0  0  0
  -31.8704  -14.9096   20.1827 O   0  0  0  0  0  0  0  0  0  0  0  0
  -21.5975   -7.0261   21.6941 O   0  0  0  0  0  0  0  0  0  0  0  0
  -30.0204  -23.7431   22.9526 O   0  0  0  0  0  0  0  0  0  1  0  0
  -18.6196   -6.8574   26.3317 F   0  0  0  0  0  0  0  0  0  0  0  0
  -22.0452   -5.0710   23.5967 F   0  0  0  0  0  0  0  0  0  0  0  0
  1  2  1  0  0  0  0
  1  6  2  0  0  0  0
  2  7  2  0  0  0  0
  3  9  2  0  0  0  0
  3 10  1  0  0  0  0
  4 11  2  0  0  0  0
  4 18  1  0  0  0  0
  5 12  1  0  0  0  0
  5 18  2  0  0  0  0
  6 20  1  0  0  0  0
  7 22  1  0  0  0  0
  8 13  2  0  0  0  0
  8 21  1  0  0  0  0
  9 24  1  0  0  0  0
 10 26  2  0  0  0  0
 11 27  1  0  0  0  0
 12 27  2  0  0  0  0
 13 28  1  0  0  0  0
 14 15  2  0  0  0  0
 14 29  1  0  0  0  0
 15 30  1  0  0  0  0
 16 23  1  0  0  0  0
 16 28  2  0  0  0  0
 17 30  2  0  0  0  0
 17 31  1  0  0  0  0
 18 32  1  0  0  0  0
 19 32  1  0  0  0  0
 19 33  2  0  0  0  0
 19 34  1  0  0  0  0
 20 22  2  0  0  0  0
 20 40  1  0  0  0  0
 21 23  2  0  0  0  0
 21 41  1  0  0  0  0
 22 49  1  0  0  0  0
 23 42  1  0  0  0  0
 24 25  2  0  0  0  0
 24 58  1  0  0  0  0
 25 26  1  0  0  0  0
 25 52  1  0  0  0  0
 26 69  1  0  0  0  0
 27 80  1  0  0  0  0
 28 81  1  0  0  0  0
 29 31  2  0  0  0  0
 29 80  1  0  0  0  0
 30 82  1  0  0  0  0
 31 83  1  0  0  0  0
 32 63  2  0  0  0  0
 33 64  1  0  0  0  0
 33 67  1  0  0  0  0
 34 68  1  0  0  0  0
 34 74  2  0  0  0  0
 35 50  1  0  0  0  0
 35 70  1  0  0  0  0
 35 75  2  0  0  0  0
 36 60  1  0  0  0  0
 36 65  1  0  0  0  0
 36 76  2  0  0  0  0
 37 59  1  0  0  0  0
 37 71  1  0  0  0  0
 37 77  2  0  0  0  0
 38 61  1  0  0  0  0
 38 72  1  0  0  0  0
 38 78  2  0  0  0  0
 39 66  1  0  0  0  0
 39 69  1  0  0  0  0
 39 79  2  0  0  0  0
 40 43  1  0  0  0  0
 41 50  1  0  0  0  0
 42 65  1  0  0  0  0
 43 45  1  0  0  0  0
 44 46  1  0  0  0  0
 44 47  1  0  0  0  0
 45 49  1  0  0  0  0
 46 51  1  0  0  0  0
 47 66  1  0  0  0  0
 48 51  1  0  0  0  0
 48 66  1  0  0  0  0
 49 70  1  0  0  0  0
 50 65  1  0  0  0  0
 51 64  1  0  0  0  0
 53 61  1  0  0  0  0
 54 62  1  0  0  0  0
 55 62  1  0  0  0  0
 56 62  1  0  0  0  0
 57 73  1  0  0  0  0
 58 71  1  0  0  0  0
 59 81  1  0  0  0  0
 60 62  1  0  0  0  0
 60 72  1  0  0  0  0
 61 73  1  0  0  0  0
 63 64  1  0  0  0  0
M  CHG  1  73   1
M  ISO  4  39 100  59 101  69 100  81 101
M  END
> <Batch ID>
0051

> <Smiles>
CNC(C)C(=O)NC(C(=O)N1Cc2cc([101O:1][101CH2:1]C(=O)NCc3cccc([100NH:0][100C:0](=O)N4CCCC(n5nc(-c6ccc(Oc7ccc(F)cc7F)cc6)c(C(N)=O)c5N)C4)c3C)ccc2CC1C(=O)NC1CCCc2ccccc21)C(C)(C)C

> <Shape>
0.219

> <Color>
0.192

> <Negative vol penalty>
0.000

$$$$

  -OEChem-04042322373D

 85 93  0     1  0  0  0  0  0999 V2000
  -32.2877  -32.0118   20.6149 C   0  0  0  0  0  0  0  0  0  0  0  0
  -31.4369  -31.0736   20.0393 C   0  0  0  0  0  0  0  0  0  0  0  0
  -26.6889  -12.4555   21.8593 C   0  0  0  0  0  0  0  0  0  0  0  0
  -25.9973  -13.9424   20.0850 C   0  0  0  0  0  0  0  0  0  0  0  0
  -32.0556  -32.4561   21.9159 C   0  0  0  0  0  0  0  0  0  0  0  0
  -30.3540  -30.5784   20.7649 C   0  0  0  0  0  0  0  0  0  0  0  0
  -26.0960  -30.4102   18.0288 C   0  0  0  0  0  0  0  0  0  0  0  0
  -29.0866  -22.7116   21.8894 C   0  0  0  0  0  0  0  0  0  0  0  0
  -25.4229  -11.8700   21.8621 C   0  0  0  0  0  0  0  0  0  0  0  0
  -24.7313  -13.3569   20.0877 C   0  0  0  0  0  0  0  0  0  0  0  0
  -25.9617  -29.3580   17.1240 C   0  0  0  0  0  0  0  0  0  0  0  0
  -23.7222   -9.6043   20.0162 C   0  0  0  0  0  0  0  0  0  0  0  0
  -28.5100  -23.9095   21.4673 C   0  0  0  0  0  0  0  0  0  0  0  0
  -23.6520   -8.2121   20.0640 C   0  0  0  0  0  0  0  0  0  0  0  0
  -24.5571  -28.1902   18.6997 C   0  0  0  0  0  0  0  0  0  0  0  0
  -22.4150   -8.3455   22.1350 C   0  0  0  0  0  0  0  0  0  0  0  0
  -26.9761  -13.4918   20.9707 C   0  0  0  0  0  0  0  0  0  0  0  0
  -27.9374  -22.8892   19.3535 C   0  0  0  0  0  0  0  0  0  0  0  0
  -29.3998  -13.7062   20.2045 C   0  0  0  0  0  0  0  0  0  0  0  0
  -30.9638  -31.9732   22.6543 C   0  0  0  0  0  0  0  0  0  0  0  0
  -25.4697  -30.3553   19.2823 C   0  0  0  0  0  0  0  0  0  0  0  0
  -30.1078  -31.0156   22.0775 C   0  0  0  0  0  0  0  0  0  0  0  0
  -24.6830  -29.2442   19.6176 C   0  0  0  0  0  0  0  0  0  0  0  0
  -28.5141  -21.6913   19.7755 C   0  0  0  0  0  0  0  0  0  0  0  0
  -29.0887  -21.6025   21.0434 C   0  0  0  0  0  0  0  0  0  0  0  0
  -24.4441  -12.3207   20.9763 C   0  0  0  0  0  0  0  0  0  0  0  0
  -25.1946  -28.2465   17.4605 C   0  0  0  0  0  0  0  0  0  0  0  0
  -23.1388  -10.3672   21.0279 C   0  0  0  0  0  0  0  0  0  0  0  0
  -22.9984   -7.5827   21.1233 C   0  0  0  0  0  0  0  0  0  0  0  0
  -27.9354  -23.9983   20.1994 C   0  0  0  0  0  0  0  0  0  0  0  0
  -22.4852   -9.7378   22.0872 C   0  0  0  0  0  0  0  0  0  0  0  0
  -28.2835  -14.0974   20.9677 C   0  0  0  0  0  0  0  0  0  0  0  0
  -30.3870  -14.5921   20.5610 C   0  0  0  0  0  0  0  0  0  0  0  0
  -27.3247  -23.0046   18.0149 C   0  0  0  0  0  0  0  0  0  0  0  0
  -29.5326  -12.6376   19.2579 C   0  0  0  0  0  0  0  0  0  0  0  0
  -26.4797  -30.3510   22.2962 C   0  0  0  0  0  0  0  0  0  0  0  0
  -23.3070  -30.5206   22.9501 C   0  0  0  0  0  0  0  0  0  0  0  0
  -20.1032  -29.9371   21.9293 C   0  0  0  0  0  0  0  0  0  0  0  0
  -30.2875  -20.1607   22.7258 C   0  0  0  0  0  0  0  0  0  0  0  0
  -30.7808  -32.4478   24.0742 C   0  0  0  0  0  0  0  0  0  0  0  0
  -25.6026  -31.5104   20.2365 C   0  0  0  0  0  0  0  0  0  0  0  0
  -23.9735  -29.1456   20.9425 C   0  0  0  0  0  0  0  0  0  0  0  0
  -29.3944  -32.1531   24.6411 C   0  0  0  0  0  0  0  0  0  0  0  0
  -31.8256  -17.3206   24.2243 C   0  0  0  0  0  0  0  0  0  0  0  0
  -28.9875  -30.7151   24.3359 C   0  0  0  0  0  0  0  0  0  0  0  0
  -31.1979  -16.1364   23.4856 C   0  0  0  0  0  0  0  0  0  0  0  0
  -30.8194  -18.4484   24.4464 C   0  0  0  0  0  0  0  0  0  0  0  0
  -29.4972  -17.7236   22.4981 C   0  0  0  0  0  0  0  0  0  0  0  0
  -28.9082  -30.4732   22.8237 C   0  0  1  0  0  0  0  0  0  0  0  0
  -25.3410  -31.1197   21.6878 C   0  0  1  0  0  0  0  0  0  0  0  0
  -30.4895  -16.5894   22.1939 C   0  0  2  0  0  0  0  0  0  0  0  0
  -28.5155  -20.5036   18.8647 C   0  0  0  0  0  0  0  0  0  0  0  0
  -17.7228  -30.1450   22.6957 C   0  0  0  0  0  0  0  0  0  0  0  0
  -23.6735  -28.0789   24.7429 C   0  0  0  0  0  0  0  0  0  0  0  0
  -21.1894  -27.7685   24.7098 C   0  0  0  0  0  0  0  0  0  0  0  0
  -22.1722  -29.8457   25.6805 C   0  0  0  0  0  0  0  0  0  0  0  0
  -19.4289  -31.7794   19.7134 C   0  0  0  0  0  0  0  0  0  0  0  0
  -25.4472  -24.8869   16.1587 C   0  0  0  0  0  0  0  0  0  0  0  0
  -25.3074  -23.4615   16.6664 C   0  0  0  0  0  0  0  0  0  0  0  0
  -24.8740  -25.9137   17.1273 C   0  0  0  0  0  0  0  0  0  1  0  0
  -22.2063  -29.5121   23.1746 C   0  0  1  0  0  0  0  0  0  0  0  0
  -18.8647  -30.8147   21.9472 C   0  0  2  0  0  0  0  0  0  0  0  0
  -22.3252  -28.8020   24.5527 C   0  0  0  0  0  0  0  0  0  0  0  0
  -28.5370  -15.1498   21.7502 N   0  0  0  0  0  0  0  0  0  0  0  0
  -29.8240  -15.4274   21.4805 N   0  0  0  0  0  0  0  0  0  0  0  0
  -24.1392  -30.2977   21.8440 N   0  0  0  0  0  0  0  0  0  0  0  0
  -30.1913  -18.8279   23.1790 N   0  0  0  0  0  0  0  0  0  0  0  0
  -31.6731  -14.7303   20.1746 N   0  0  0  0  0  0  0  0  0  0  0  0
  -28.0969  -22.7887   16.9500 N   0  0  0  0  0  0  0  0  0  0  0  0
  -28.4196  -11.8227   19.0098 N   0  0  0  0  0  0  0  0  0  0  0  0
  -29.6799  -20.3957   21.4929 N   0  0  0  0  0  0  0  0  0  0  0  0
  -27.6842  -31.0281   22.2866 N   0  0  0  0  0  0  0  0  0  0  0  0
  -20.9505  -30.2279   22.9776 N   0  0  0  0  0  0  0  0  0  0  0  0
  -26.0261  -23.3222   17.9332 N   0  3  0  0  0  0  0  0  0  0  0  0
  -18.4117  -31.0998   20.5564 N   0  3  0  0  0  0  0  0  0  0  0  0
  -30.6111  -12.4019   18.6622 O   0  0  0  0  0  0  0  0  0  0  0  0
  -26.2799  -29.2274   22.7426 O   0  0  0  0  0  0  0  0  0  0  0  0
  -23.4197  -31.4750   23.7235 O   0  0  0  0  0  0  0  0  0  0  0  0
  -20.2978  -29.0769   21.0733 O   0  0  0  0  0  0  0  0  0  0  0  0
  -30.8897  -21.0233   23.3702 O   0  0  0  0  0  0  0  0  0  0  0  0
  -23.2087  -11.7494   20.9786 O   0  0  0  0  0  0  0  0  0  0  0  0
  -25.0624  -27.2178   16.5795 O   0  0  0  0  0  0  0  0  0  1  0  0
  -22.9297   -6.2457   21.1683 F   0  0  0  0  0  0  0  0  0  0  0  0
  -27.3854  -25.1550   19.8036 F   0  0  0  0  0  0  0  0  0  0  0  0
  -21.9218  -10.4654   23.0614 F   0  0  0  0  0  0  0  0  0  0  0  0
  1  2  1  0  0  0  0
  1  5  2  0  0  0  0
  2  6  2  0  0  0  0
  3  9  2  0  0  0  0
  3 17  1  0  0  0  0
  4 10  1  0  0  0  0
  4 17  2  0  0  0  0
  5 20  1  0  0  0  0
  6 22  1  0  0  0  0
  7 11  2  0  0  0  0
  7 21  1  0  0  0  0
  8 13  1  0  0  0  0
  8 25  2  0  0  0  0
  9 26  1  0  0  0  0
 10 26  2  0  0  0  0
 11 27  1  0  0  0  0
 12 14  2  0  0  0  0
 12 28  1  0  0  0  0
 13 30  2  0  0  0  0
 14 29  1  0  0  0  0
 15 23  1  0  0  0  0
 15 27  2  0  0  0  0
 16 29  2  0  0  0  0
 16 31  1  0  0  0  0
 17 32  1  0  0  0  0
 18 24  2  0  0  0  0
 18 30  1  0  0  0  0
 18 34  1  0  0  0  0
 19 32  1  0  0  0  0
 19 33  2  0  0  0  0
 19 35  1  0  0  0  0
 20 22  2  0  0  0  0
 20 40  1  0  0  0  0
 21 23  2  0  0  0  0
 21 41  1  0  0  0  0
 22 49  1  0  0  0  0
 23 42  1  0  0  0  0
 24 25  1  0  0  0  0
 24 52  1  0  0  0  0
 25 71  1  0  0  0  0
 26 81  1  0  0  0  0
 27 82  1  0  0  0  0
 28 31  2  0  0  0  0
 28 81  1  0  0  0  0
 29 83  1  0  0  0  0
 30 84  1  0  0  0  0
 31 85  1  0  0  0  0
 32 64  2  0  0  0  0
 33 65  1  0  0  0  0
 33 68  1  0  0  0  0
 34 69  1  0  0  0  0
 34 74  2  0  0  0  0
 35 70  1  0  0  0  0
 35 76  2  0  0  0  0
 36 50  1  0  0  0  0
 36 72  1  0  0  0  0
 36 77  2  0  0  0  0
 37 61  1  0  0  0  0
 37 66  1  0  0  0  0
 37 78  2  0  0  0  0
 38 62  1  0  0  0  0
 38 73  1  0  0  0  0
 38 79  2  0  0  0  0
 39 67  1  0  0  0  0
 39 71  1  0  0  0  0
 39 80  2  0  0  0  0
 40 43  1  0  0  0  0
 41 50  1  0  0  0  0
 42 66  1  0  0  0  0
 43 45  1  0  0  0  0
 44 46  1  0  0  0  0
 44 47  1  0  0  0  0
 45 49  1  0  0  0  0
 46 51  1  0  0  0  0
 47 67  1  0  0  0  0
 48 51  1  0  0  0  0
 48 67  1  0  0  0  0
 49 72  1  0  0  0  0
 50 66  1  0  0  0  0
 51 65  1  0  0  0  0
 53 62  1  0  0  0  0
 54 63  1  0  0  0  0
 55 63  1  0  0  0  0
 56 63  1  0  0  0  0
 57 75  1  0  0  0  0
 58 59  1  0  0  0  0
 58 60  1  0  0  0  0
 59 74  1  0  0  0  0
 60 82  1  0  0  0  0
 61 63  1  0  0  0  0
 61 73  1  0  0  0  0
 62 75  1  0  0  0  0
 64 65  1  0  0  0  0
M  CHG  2  74   1  75   1
M  ISO  4  39 100  60 101  71 100  82 101
M  END
> <Batch ID>
0051

> <Smiles>
CNC(C)C(=O)NC(C(=O)N1Cc2cc([101O:1][101CH2:1]CCNC(=N)c3c(F)ccc([100NH:0][100C:0](=O)N4CCCC(n5nc(-c6ccc(Oc7ccc(F)cc7F)cc6)c(C(N)=O)c5N)C4)c3C)ccc2CC1C(=O)NC1CCCc2ccccc21)C(C)(C)C

> <Shape>
0.262

> <Color>
0.082

> <Negative vol penalty>
0.000

$$$$

  -OEChem-04042322373D

 84 92  0     1  0  0  0  0  0999 V2000
  -17.3733  -24.7748   24.4376 C   0  0  0  0  0  0  0  0  0  0  0  0
  -18.1879  -23.9839   23.6337 C   0  0  0  0  0  0  0  0  0  0  0  0
  -34.0044  -20.7833   16.7170 C   0  0  0  0  0  0  0  0  0  0  0  0
  -26.3315  -12.5721   21.0614 C   0  0  0  0  0  0  0  0  0  0  0  0
  -24.9348  -13.9423   19.6441 C   0  0  0  0  0  0  0  0  0  0  0  0
  -17.4579  -26.1644   24.3604 C   0  0  0  0  0  0  0  0  0  0  0  0
  -19.0867  -24.5820   22.7513 C   0  0  0  0  0  0  0  0  0  0  0  0
  -24.6316  -22.5116   21.1786 C   0  0  0  0  0  0  0  0  0  0  0  0
  -33.7668  -21.0006   15.3598 C   0  0  0  0  0  0  0  0  0  0  0  0
  -32.9402  -20.5101   17.5763 C   0  0  0  0  0  0  0  0  0  0  0  0
  -25.2128  -11.8369   21.4533 C   0  0  0  0  0  0  0  0  0  0  0  0
  -23.8160  -13.2071   20.0359 C   0  0  0  0  0  0  0  0  0  0  0  0
  -25.0866  -21.7965   20.0717 C   0  0  0  0  0  0  0  0  0  0  0  0
  -22.7795   -9.3688   22.5498 C   0  0  0  0  0  0  0  0  0  0  0  0
  -22.8955   -7.9792   22.5825 C   0  0  0  0  0  0  0  0  0  0  0  0
  -25.7600  -23.8614   19.0220 C   0  0  0  0  0  0  0  0  0  0  0  0
  -23.4088   -7.9666   20.2216 C   0  0  0  0  0  0  0  0  0  0  0  0
  -26.1925  -13.6248   20.1569 C   0  0  0  0  0  0  0  0  0  0  0  0
  -28.1980  -14.1234   18.6611 C   0  0  0  0  0  0  0  0  0  0  0  0
  -18.3651  -26.7799   23.4836 C   0  0  0  0  0  0  0  0  0  0  0  0
  -24.7276  -23.9103   21.2109 C   0  0  0  0  0  0  0  0  0  0  0  0
  -19.1826  -25.9811   22.6614 C   0  0  0  0  0  0  0  0  0  0  0  0
  -25.3078  -24.5918   20.1316 C   0  0  0  0  0  0  0  0  0  0  0  0
  -32.4650  -20.9448   14.8620 C   0  0  0  0  0  0  0  0  0  0  0  0
  -31.4008  -20.6716   15.7213 C   0  0  0  0  0  0  0  0  0  0  0  0
  -31.6384  -20.4543   17.0785 C   0  0  0  0  0  0  0  0  0  0  0  0
  -23.9551  -12.1544   20.9405 C   0  0  0  0  0  0  0  0  0  0  0  0
  -25.6483  -22.4716   18.9919 C   0  0  0  0  0  0  0  0  0  0  0  0
  -22.9780  -10.0574   21.3530 C   0  0  0  0  0  0  0  0  0  0  0  0
  -23.2102   -7.2781   21.4184 C   0  0  0  0  0  0  0  0  0  0  0  0
  -23.2927   -9.3563   20.1890 C   0  0  0  0  0  0  0  0  0  0  0  0
  -27.3477  -14.3850   19.7522 C   0  0  0  0  0  0  0  0  0  0  0  0
  -29.1344  -15.1271   18.7071 C   0  0  0  0  0  0  0  0  0  0  0  0
  -28.1459  -13.0675   17.6925 C   0  0  0  0  0  0  0  0  0  0  0  0
  -22.6377  -26.2985   21.3909 C   0  0  0  0  0  0  0  0  0  0  0  0
  -25.3182  -28.1091   21.6338 C   0  0  0  0  0  0  0  0  0  0  0  0
  -28.0055  -21.2256   16.5614 C   0  0  0  0  0  0  0  0  0  0  0  0
  -28.6589  -28.4367   21.0176 C   0  0  0  0  0  0  0  0  0  0  0  0
  -30.5007  -20.4893   19.3259 C   0  0  0  0  0  0  0  0  0  0  0  0
  -18.3871  -28.2856   23.4011 C   0  0  0  0  0  0  0  0  0  0  0  0
  -24.2566  -24.6650   22.4238 C   0  0  0  0  0  0  0  0  0  0  0  0
  -25.4524  -26.0909   20.1257 C   0  0  0  0  0  0  0  0  0  0  0  0
  -19.6307  -28.8397   22.7106 C   0  0  0  0  0  0  0  0  0  0  0  0
  -30.1061  -18.5634   22.2945 C   0  0  0  0  0  0  0  0  0  0  0  0
  -19.9118  -28.0734   21.4220 C   0  0  0  0  0  0  0  0  0  0  0  0
  -29.4232  -17.2832   21.8080 C   0  0  0  0  0  0  0  0  0  0  0  0
  -29.6084  -19.7941   21.5385 C   0  0  0  0  0  0  0  0  0  0  0  0
  -29.0012  -18.4162   19.5887 C   0  0  0  0  0  0  0  0  0  0  0  0
  -20.1877  -26.5927   21.7096 C   0  0  1  0  0  0  0  0  0  0  0  0
  -23.9346  -26.1270   22.1300 C   0  0  1  0  0  0  0  0  0  0  0  0
  -29.5173  -17.1415   20.2761 C   0  0  2  0  0  0  0  0  0  0  0  0
  -32.2386  -21.1813   13.4046 C   0  0  0  0  0  0  0  0  0  0  0  0
  -30.5654  -30.0441   21.2981 C   0  0  0  0  0  0  0  0  0  0  0  0
  -24.2533  -29.7742   19.3093 C   0  0  0  0  0  0  0  0  0  0  0  0
  -26.5545  -30.7178   19.0221 C   0  0  0  0  0  0  0  0  0  0  0  0
  -25.3068  -31.1027   21.1476 C   0  0  0  0  0  0  0  0  0  0  0  0
  -29.5117  -22.9862   15.6214 C   0  0  0  0  0  0  0  0  0  0  0  0
  -30.1612  -26.5381   22.7198 C   0  0  0  0  0  0  0  0  0  0  0  0
  -30.0013  -20.6125   15.1808 C   0  0  0  0  0  0  0  0  0  0  0  0
  -27.1839  -22.3364   17.1809 C   0  0  0  0  0  0  0  0  0  1  0  0
  -26.2324  -28.8026   20.6528 C   0  0  1  0  0  0  0  0  0  0  0  0
  -29.8091  -28.8735   21.9067 C   0  0  2  0  0  0  0  0  0  0  0  0
  -25.5824  -30.0712   20.0319 C   0  0  0  0  0  0  0  0  0  0  0  0
  -27.7119  -15.4698   20.4411 N   0  0  0  0  0  0  0  0  0  0  0  0
  -28.8013  -15.8986   19.7814 N   0  0  0  0  0  0  0  0  0  0  0  0
  -24.9712  -26.7846   21.3318 N   0  0  0  0  0  0  0  0  0  0  0  0
  -29.7319  -19.5892   20.0936 N   0  0  0  0  0  0  0  0  0  0  0  0
  -30.2020  -15.4161   17.9332 N   0  0  0  0  0  0  0  0  0  0  0  0
  -27.1176  -12.1203   17.7914 N   0  0  0  0  0  0  0  0  0  0  0  0
  -30.5725  -20.1747   17.9693 N   0  0  0  0  0  0  0  0  0  0  0  0
  -21.5333  -26.4177   22.2128 N   0  0  0  0  0  0  0  0  0  0  0  0
  -27.4787  -29.0583   21.3669 N   0  0  0  0  0  0  0  0  0  0  0  0
  -29.1273  -21.5940   15.8181 N   0  0  0  0  0  0  0  0  0  0  0  0
  -30.7659  -27.7484   22.1061 N   0  3  0  0  0  0  0  0  0  0  0  0
  -28.9958  -12.9577   16.7765 O   0  0  0  0  0  0  0  0  0  0  0  0
  -22.6392  -26.3225   20.1657 O   0  0  0  0  0  0  0  0  0  0  0  0
  -24.9322  -28.7177   22.6349 O   0  0  0  0  0  0  0  0  0  0  0  0
  -27.6554  -20.0557   16.7451 O   0  0  0  0  0  0  0  0  0  0  0  0
  -28.7945  -27.6280   20.1021 O   0  0  0  0  0  0  0  0  0  0  0  0
  -31.0770  -21.4519   19.8390 O   0  0  0  0  0  0  0  0  0  0  0  0
  -22.8632  -11.4371   21.3224 O   0  0  0  0  0  0  0  0  0  0  0  0
  -26.0926  -21.7760   17.9099 O   0  0  0  0  0  0  0  0  0  1  0  0
  -23.3232   -5.9438   21.4503 F   0  0  0  0  0  0  0  0  0  0  0  0
  -23.4858  -10.0123   19.0365 F   0  0  0  0  0  0  0  0  0  0  0  0
  1  2  1  0  0  0  0
  1  6  2  0  0  0  0
  2  7  2  0  0  0  0
  3  9  1  0  0  0  0
  3 10  2  0  0  0  0
  4 11  2  0  0  0  0
  4 18  1  0  0  0  0
  5 12  1  0  0  0  0
  5 18  2  0  0  0  0
  6 20  1  0  0  0  0
  7 22  1  0  0  0  0
  8 13  2  0  0  0  0
  8 21  1  0  0  0  0
  9 24  2  0  0  0  0
 10 26  1  0  0  0  0
 11 27  1  0  0  0  0
 12 27  2  0  0  0  0
 13 28  1  0  0  0  0
 14 15  2  0  0  0  0
 14 29  1  0  0  0  0
 15 30  1  0  0  0  0
 16 23  1  0  0  0  0
 16 28  2  0  0  0  0
 17 30  2  0  0  0  0
 17 31  1  0  0  0  0
 18 32  1  0  0  0  0
 19 32  1  0  0  0  0
 19 33  2  0  0  0  0
 19 34  1  0  0  0  0
 20 22  2  0  0  0  0
 20 40  1  0  0  0  0
 21 23  2  0  0  0  0
 21 41  1  0  0  0  0
 22 49  1  0  0  0  0
 23 42  1  0  0  0  0
 24 25  1  0  0  0  0
 24 52  1  0  0  0  0
 25 26  2  0  0  0  0
 25 59  1  0  0  0  0
 26 70  1  0  0  0  0
 27 81  1  0  0  0  0
 28 82  1  0  0  0  0
 29 31  2  0  0  0  0
 29 81  1  0  0  0  0
 30 83  1  0  0  0  0
 31 84  1  0  0  0  0
 32 64  2  0  0  0  0
 33 65  1  0  0  0  0
 33 68  1  0  0  0  0
 34 69  1  0  0  0  0
 34 75  2  0  0  0  0
 35 50  1  0  0  0  0
 35 71  1  0  0  0  0
 35 76  2  0  0  0  0
 36 61  1  0  0  0  0
 36 66  1  0  0  0  0
 36 77  2  0  0  0  0
 37 60  1  0  0  0  0
 37 73  1  0  0  0  0
 37 78  2  0  0  0  0
 38 62  1  0  0  0  0
 38 72  1  0  0  0  0
 38 79  2  0  0  0  0
 39 67  1  0  0  0  0
 39 70  1  0  0  0  0
 39 80  2  0  0  0  0
 40 43  1  0  0  0  0
 41 50  1  0  0  0  0
 42 66  1  0  0  0  0
 43 45  1  0  0  0  0
 44 46  1  0  0  0  0
 44 47  1  0  0  0  0
 45 49  1  0  0  0  0
 46 51  1  0  0  0  0
 47 67  1  0  0  0  0
 48 51  1  0  0  0  0
 48 67  1  0  0  0  0
 49 71  1  0  0  0  0
 50 66  1  0  0  0  0
 51 65  1  0  0  0  0
 53 62  1  0  0  0  0
 54 63  1  0  0  0  0
 55 63  1  0  0  0  0
 56 63  1  0  0  0  0
 57 73  1  0  0  0  0
 58 74  1  0  0  0  0
 59 73  1  0  0  0  0
 60 82  1  0  0  0  0
 61 63  1  0  0  0  0
 61 72  1  0  0  0  0
 62 74  1  0  0  0  0
 64 65  1  0  0  0  0
M  CHG  1  74   1
M  ISO  4  39 100  60 101  70 100  82 101
M  END
> <Batch ID>
0051

> <Smiles>
CNC(C)C(=O)NC(C(=O)N1Cc2cc([101O:1][101CH2:1]C(=O)N(C)Cc3c(C)cccc3[100NH:0][100C:0](=O)N3CCCC(n4nc(-c5ccc(Oc6ccc(F)cc6F)cc5)c(C(N)=O)c4N)C3)ccc2CC1C(=O)NC1CCCc2ccccc21)C(C)(C)C

> <Shape>
0.231

> <Color>
0.058

> <Negative vol penalty>
0.000

$$$$

  -OEChem-04042322373D

 86 94  0     1  0  0  0  0  0999 V2000
  -23.7252  -10.4860   20.8579 C   0  0  0  0  0  0  0  0  0  0  0  0
  -23.2256  -11.5628   21.5834 C   0  0  0  0  0  0  0  0  0  0  0  0
  -30.7490  -24.7077   19.5241 C   0  0  0  0  0  0  0  0  0  0  0  0
  -31.1009  -25.8966   21.5977 C   0  0  0  0  0  0  0  0  0  0  0  0
  -24.9666  -10.5852   20.2309 C   0  0  0  0  0  0  0  0  0  0  0  0
  -23.9676  -12.7392   21.6832 C   0  0  0  0  0  0  0  0  0  0  0  0
  -21.7883  -18.4575   21.9204 C   0  0  0  0  0  0  0  0  0  0  0  0
  -19.8216  -29.0060   22.2053 C   0  0  0  0  0  0  0  0  0  0  0  0
  -32.1277  -24.5553   19.3775 C   0  0  0  0  0  0  0  0  0  0  0  0
  -32.4796  -25.7442   21.4511 C   0  0  0  0  0  0  0  0  0  0  0  0
  -21.5548  -19.3290   22.9834 C   0  0  0  0  0  0  0  0  0  0  0  0
  -35.5391  -23.5384   18.6405 C   0  0  0  0  0  0  0  0  0  0  0  0
  -36.0161  -22.2841   18.2600 C   0  0  0  0  0  0  0  0  0  0  0  0
  -18.7588  -28.2269   21.7483 C   0  0  0  0  0  0  0  0  0  0  0  0
  -23.7036  -20.3576   22.6042 C   0  0  0  0  0  0  0  0  0  0  0  0
  -19.7477  -26.2759   22.7744 C   0  0  0  0  0  0  0  0  0  0  0  0
  -35.0387  -21.3108   20.2436 C   0  0  0  0  0  0  0  0  0  0  0  0
  -30.2356  -25.3784   20.6342 C   0  0  0  0  0  0  0  0  0  0  0  0
  -27.9236  -24.6609   21.4389 C   0  0  0  0  0  0  0  0  0  0  0  0
  -25.7199  -11.7668   20.3150 C   0  0  0  0  0  0  0  0  0  0  0  0
  -22.9879  -18.5225   21.1971 C   0  0  0  0  0  0  0  0  0  0  0  0
  -25.2208  -12.8538   21.0578 C   0  0  0  0  0  0  0  0  0  0  0  0
  -23.9488  -19.4876   21.5309 C   0  0  0  0  0  0  0  0  0  0  0  0
  -20.8476  -28.4201   22.9468 C   0  0  0  0  0  0  0  0  0  0  0  0
  -20.8106  -27.0551   23.2314 C   0  0  0  0  0  0  0  0  0  0  0  0
  -32.9930  -25.0735   20.3410 C   0  0  0  0  0  0  0  0  0  0  0  0
  -22.5137  -20.2773   23.3272 C   0  0  0  0  0  0  0  0  0  0  0  0
  -34.8120  -23.6789   19.8225 C   0  0  0  0  0  0  0  0  0  0  0  0
  -35.7659  -21.1702   19.0615 C   0  0  0  0  0  0  0  0  0  0  0  0
  -34.5618  -22.5651   20.6240 C   0  0  0  0  0  0  0  0  0  0  0  0
  -18.7218  -26.8619   22.0329 C   0  0  0  0  0  0  0  0  0  0  0  0
  -28.8115  -25.5367   20.7859 C   0  0  0  0  0  0  0  0  0  0  0  0
  -26.6935  -25.2574   21.3066 C   0  0  0  0  0  0  0  0  0  0  0  0
  -28.1872  -23.4192   22.1057 C   0  0  0  0  0  0  0  0  0  0  0  0
  -25.4048  -16.5245   20.6773 C   0  0  0  0  0  0  0  0  0  0  0  0
  -26.3906  -18.8610   18.6546 C   0  0  0  0  0  0  0  0  0  0  0  0
  -21.4292  -23.9565   24.3066 C   0  0  0  0  0  0  0  0  0  0  0  0
  -26.3204  -22.1605   17.7854 C   0  0  0  0  0  0  0  0  0  0  0  0
  -23.4361  -29.7854   21.4844 C   0  0  0  0  0  0  0  0  0  0  0  0
  -27.0776  -11.8103   19.6599 C   0  0  0  0  0  0  0  0  0  0  0  0
  -23.2131  -17.5930   20.0362 C   0  0  0  0  0  0  0  0  0  0  0  0
  -25.2444  -19.6119   20.7730 C   0  0  0  0  0  0  0  0  0  0  0  0
  -27.6327  -13.2235   19.5018 C   0  0  0  0  0  0  0  0  0  0  0  0
  -25.2232  -29.1759   18.4659 C   0  0  0  0  0  0  0  0  0  0  0  0
  -27.4658  -14.0106   20.7978 C   0  0  0  0  0  0  0  0  0  0  0  0
  -26.2463  -28.1077   18.8559 C   0  0  0  0  0  0  0  0  0  0  0  0
  -24.9922  -30.1757   19.5969 C   0  0  0  0  0  0  0  0  0  0  0  0
  -25.6526  -28.5036   21.2827 C   0  0  0  0  0  0  0  0  0  0  0  0
  -25.9849  -14.1554   21.1685 C   0  0  1  0  0  0  0  0  0  0  0  0
  -24.6888  -17.4088   19.6959 C   0  0  1  0  0  0  0  0  0  0  0  0
  -25.8774  -27.4400   20.1943 C   0  0  2  0  0  0  0  0  0  0  0  0
  -27.2561  -23.7762   16.1087 C   0  0  0  0  0  0  0  0  0  0  0  0
  -29.0681  -18.8246   20.1173 C   0  0  0  0  0  0  0  0  0  0  0  0
  -29.5922  -21.0366   19.0682 C   0  0  0  0  0  0  0  0  0  0  0  0
  -29.2405  -19.0284   17.6307 C   0  0  0  0  0  0  0  0  0  0  0  0
  -20.9039  -25.5932   26.1276 C   0  0  0  0  0  0  0  0  0  0  0  0
  -23.6260  -22.8515   16.7746 C   0  0  0  0  0  0  0  0  0  0  0  0
  -21.9758  -29.2739   23.4249 C   0  0  0  0  0  0  0  0  0  0  0  0
  -21.9042  -26.4022   24.0263 C   0  0  0  0  0  0  0  0  0  0  0  0
  -20.8821  -22.8795   25.2378 C   0  0  0  0  0  0  0  0  0  0  0  0
  -20.9322  -21.4826   24.6319 C   0  0  0  0  0  0  0  0  0  1  0  0
  -27.2566  -20.0909   18.7828 C   0  0  1  0  0  0  0  0  0  0  0  0
  -26.1023  -22.8455   16.4483 C   0  0  2  0  0  0  0  0  0  0  0  0
  -28.7659  -19.7418   18.9154 C   0  0  0  0  0  0  0  0  0  0  0  0
  -28.1976  -26.6079   20.2764 N   0  0  0  0  0  0  0  0  0  0  0  0
  -26.9108  -26.4091   20.6092 N   0  0  0  0  0  0  0  0  0  0  0  0
  -25.4208  -18.6762   19.6501 N   0  0  0  0  0  0  0  0  0  0  0  0
  -24.6444  -29.4783   20.8374 N   0  0  0  0  0  0  0  0  0  0  0  0
  -25.4580  -24.9037   21.7199 N   0  0  0  0  0  0  0  0  0  0  0  0
  -29.5077  -22.9514   22.1490 N   0  0  0  0  0  0  0  0  0  0  0  0
  -25.3595  -15.1803   20.3606 N   0  0  0  0  0  0  0  0  0  0  0  0
  -26.9373  -20.9362   17.6374 N   0  0  0  0  0  0  0  0  0  0  0  0
  -23.1805  -29.0742   22.6504 N   0  0  0  0  0  0  0  0  0  0  0  0
  -21.4127  -25.2653   24.8015 N   0  0  0  0  0  0  0  0  0  0  0  0
  -24.8453  -23.6456   16.4752 N   0  3  0  0  0  0  0  0  0  0  0  0
  -27.2764  -22.7365   22.6327 O   0  0  0  0  0  0  0  0  0  0  0  0
  -25.9587  -17.0250   21.6491 O   0  0  0  0  0  0  0  0  0  0  0  0
  -26.5634  -18.0964   17.7021 O   0  0  0  0  0  0  0  0  0  0  0  0
  -21.8558  -23.6603   23.1874 O   0  0  0  0  0  0  0  0  0  0  0  0
  -25.9811  -22.6630   18.8544 O   0  0  0  0  0  0  0  0  0  0  0  0
  -22.6412  -30.6269   21.0519 O   0  0  0  0  0  0  0  0  0  0  0  0
  -34.3384  -24.9248   20.1984 O   0  0  0  0  0  0  0  0  0  0  0  0
  -22.2886  -21.1287   24.3647 O   0  0  0  0  0  0  0  0  0  1  0  0
  -36.2227  -19.9655   18.6953 F   0  0  0  0  0  0  0  0  0  0  0  0
  -33.8628  -22.6937   21.7601 F   0  0  0  0  0  0  0  0  0  0  0  0
  -17.4114  -25.9008   21.4674 Cl  0  0  0  0  0  0  0  0  0  0  0  0
  1  2  1  0  0  0  0
  1  5  2  0  0  0  0
  2  6  2  0  0  0  0
  3  9  2  0  0  0  0
  3 18  1  0  0  0  0
  4 10  1  0  0  0  0
  4 18  2  0  0  0  0
  5 20  1  0  0  0  0
  6 22  1  0  0  0  0
  7 11  2  0  0  0  0
  7 21  1  0  0  0  0
  8 14  2  0  0  0  0
  8 24  1  0  0  0  0
  9 26  1  0  0  0  0
 10 26  2  0  0  0  0
 11 27  1  0  0  0  0
 12 13  2  0  0  0  0
 12 28  1  0  0  0  0
 13 29  1  0  0  0  0
 14 31  1  0  0  0  0
 15 23  1  0  0  0  0
 15 27  2  0  0  0  0
 16 25  1  0  0  0  0
 16 31  2  0  0  0  0
 17 29  2  0  0  0  0
 17 30  1  0  0  0  0
 18 32  1  0  0  0  0
 19 32  1  0  0  0  0
 19 33  2  0  0  0  0
 19 34  1  0  0  0  0
 20 22  2  0  0  0  0
 20 40  1  0  0  0  0
 21 23  2  0  0  0  0
 21 41  1  0  0  0  0
 22 49  1  0  0  0  0
 23 42  1  0  0  0  0
 24 25  2  0  0  0  0
 24 58  1  0  0  0  0
 25 59  1  0  0  0  0
 26 82  1  0  0  0  0
 27 83  1  0  0  0  0
 28 30  2  0  0  0  0
 28 82  1  0  0  0  0
 29 84  1  0  0  0  0
 30 85  1  0  0  0  0
 31 86  1  0  0  0  0
 32 65  2  0  0  0  0
 33 66  1  0  0  0  0
 33 69  1  0  0  0  0
 34 70  1  0  0  0  0
 34 76  2  0  0  0  0
 35 50  1  0  0  0  0
 35 71  1  0  0  0  0
 35 77  2  0  0  0  0
 36 62  1  0  0  0  0
 36 67  1  0  0  0  0
 36 78  2  0  0  0  0
 37 60  1  0  0  0  0
 37 74  1  0  0  0  0
 37 79  2  0  0  0  0
 38 63  1  0  0  0  0
 38 72  1  0  0  0  0
 38 80  2  0  0  0  0
 39 68  1  0  0  0  0
 39 73  1  0  0  0  0
 39 81  2  0  0  0  0
 40 43  1  0  0  0  0
 41 50  1  0  0  0  0
 42 67  1  0  0  0  0
 43 45  1  0  0  0  0
 44 46  1  0  0  0  0
 44 47  1  0  0  0  0
 45 49  1  0  0  0  0
 46 51  1  0  0  0  0
 47 68  1  0  0  0  0
 48 51  1  0  0  0  0
 48 68  1  0  0  0  0
 49 71  1  0  0  0  0
 50 67  1  0  0  0  0
 51 66  1  0  0  0  0
 52 63  1  0  0  0  0
 53 64  1  0  0  0  0
 54 64  1  0  0  0  0
 55 64  1  0  0  0  0
 56 74  1  0  0  0  0
 57 75  1  0  0  0  0
 58 73  1  0  0  0  0
 59 74  1  0  0  0  0
 60 61  1  0  0  0  0
 61 83  1  0  0  0  0
 62 64  1  0  0  0  0
 62 72  1  0  0  0  0
 63 75  1  0  0  0  0
 65 66  1  0  0  0  0
M  CHG  1  75   1
M  ISO  4  39 100  61 101  73 100  83 101
M  END
> <Batch ID>
0051

> <Smiles>
CNC(C)C(=O)NC(C(=O)N1Cc2cc([101O:1][101CH2:1]CC(=O)N(C)Cc3cc(Cl)ccc3C[100NH:0][100C:0](=O)N3CCCC(n4nc(-c5ccc(Oc6ccc(F)cc6F)cc5)c(C(N)=O)c4N)C3)ccc2CC1C(=O)NC1CCCc2ccccc21)C(C)(C)C

> <Shape>
0.206

> <Color>
0.070

> <Negative vol penalty>
0.000

$$$$

  -OEChem-04042322373D

 86 94  0     1  0  0  0  0  0999 V2000
  -33.6275  -30.4645   19.2773 C   0  0  0  0  0  0  0  0  0  0  0  0
  -32.6507  -29.7026   19.9105 C   0  0  0  0  0  0  0  0  0  0  0  0
  -23.0719   -9.8712   19.9426 C   0  0  0  0  0  0  0  0  0  0  0  0
  -23.8303   -9.8788   22.2365 C   0  0  0  0  0  0  0  0  0  0  0  0
  -33.4023  -30.9559   17.9921 C   0  0  0  0  0  0  0  0  0  0  0  0
  -31.4477  -29.4326   19.2592 C   0  0  0  0  0  0  0  0  0  0  0  0
  -30.0364  -24.5904   19.7139 C   0  0  0  0  0  0  0  0  0  0  0  0
  -22.3260   -8.7194   20.1930 C   0  0  0  0  0  0  0  0  0  0  0  0
  -23.0844   -8.7270   22.4869 C   0  0  0  0  0  0  0  0  0  0  0  0
  -29.4594  -24.2063   20.9236 C   0  0  0  0  0  0  0  0  0  0  0  0
  -22.8929   -5.4003   20.4870 C   0  0  0  0  0  0  0  0  0  0  0  0
  -22.9587   -4.3698   19.5493 C   0  0  0  0  0  0  0  0  0  0  0  0
  -31.9005  -18.3358   24.1906 C   0  0  0  0  0  0  0  0  0  0  0  0
  -27.2703  -24.3650   19.9228 C   0  0  0  0  0  0  0  0  0  0  0  0
  -32.0699  -16.5837   22.5358 C   0  0  0  0  0  0  0  0  0  0  0  0
  -20.5747   -4.5391   19.1959 C   0  0  0  0  0  0  0  0  0  0  0  0
  -23.8241  -10.4509   20.9643 C   0  0  0  0  0  0  0  0  0  0  0  0
  -30.5130  -18.3368   24.0476 C   0  0  0  0  0  0  0  0  0  0  0  0
  -24.1700  -12.9754   20.8425 C   0  0  0  0  0  0  0  0  0  0  0  0
  -32.1998  -30.6837   17.3209 C   0  0  0  0  0  0  0  0  0  0  0  0
  -29.2327  -24.8758   18.6008 C   0  0  0  0  0  0  0  0  0  0  0  0
  -31.2057  -29.9220   17.9643 C   0  0  0  0  0  0  0  0  0  0  0  0
  -27.8397  -24.7501   18.6994 C   0  0  0  0  0  0  0  0  0  0  0  0
  -29.9039  -17.4612   23.1488 C   0  0  0  0  0  0  0  0  0  0  0  0
  -30.6824  -16.5846   22.3928 C   0  0  0  0  0  0  0  0  0  0  0  0
  -22.3322   -8.1474   21.4652 C   0  0  0  0  0  0  0  0  0  0  0  0
  -28.0760  -24.0964   21.0290 C   0  0  0  0  0  0  0  0  0  0  0  0
  -21.6679   -6.0001   20.7793 C   0  0  0  0  0  0  0  0  0  0  0  0
  -21.7996   -3.9392   18.9037 C   0  0  0  0  0  0  0  0  0  0  0  0
  -32.6790  -17.4593   23.4347 C   0  0  0  0  0  0  0  0  0  0  0  0
  -20.5089   -5.5696   20.1337 C   0  0  0  0  0  0  0  0  0  0  0  0
  -24.5952  -11.6403   20.7061 C   0  0  0  0  0  0  0  0  0  0  0  0
  -25.2636  -13.7228   20.4793 C   0  0  0  0  0  0  0  0  0  0  0  0
  -29.7103  -19.2744   24.8583 C   0  0  0  0  0  0  0  0  0  0  0  0
  -22.9001  -13.4935   21.2601 C   0  0  0  0  0  0  0  0  0  0  0  0
  -28.7151  -27.4493   16.8084 C   0  0  0  0  0  0  0  0  0  0  0  0
  -26.9621  -25.3788   15.0302 C   0  0  0  0  0  0  0  0  0  0  0  0
  -25.1853  -22.4686   14.8853 C   0  0  0  0  0  0  0  0  0  0  0  0
  -30.7313  -14.7598   20.6567 C   0  0  0  0  0  0  0  0  0  0  0  0
  -31.9828  -31.2762   15.9511 C   0  0  0  0  0  0  0  0  0  0  0  0
  -29.8721  -25.2630   17.2955 C   0  0  0  0  0  0  0  0  0  0  0  0
  -26.9337  -25.0255   17.5282 C   0  0  0  0  0  0  0  0  0  0  0  0
  -30.8322  -30.6304   15.1834 C   0  0  0  0  0  0  0  0  0  0  0  0
  -29.6146  -12.3458   18.2897 C   0  0  0  0  0  0  0  0  0  0  0  0
  -29.6046  -30.4920   16.0782 C   0  0  0  0  0  0  0  0  0  0  0  0
  -28.1743  -12.0569   18.7186 C   0  0  0  0  0  0  0  0  0  0  0  0
  -30.5293  -12.5742   19.4918 C   0  0  0  0  0  0  0  0  0  0  0  0
  -28.6226  -13.3028   20.8712 C   0  0  0  0  0  0  0  0  0  0  0  0
  -29.8977  -29.5869   17.2808 C   0  0  1  0  0  0  0  0  0  0  0  0
  -28.9290  -26.0276   16.3718 C   0  0  1  0  0  0  0  0  0  0  0  0
  -27.6503  -13.1301   19.6929 C   0  0  2  0  0  0  0  0  0  0  0  0
  -28.4147  -17.4656   22.9978 C   0  0  0  0  0  0  0  0  0  0  0  0
  -23.8375  -21.0601   13.3052 C   0  0  0  0  0  0  0  0  0  0  0  0
  -26.4177  -21.1400   23.0365 C   0  0  0  0  0  0  0  0  0  0  0  0
  -24.6314  -27.3320   15.2809 C   0  0  0  0  0  0  0  0  0  0  0  0
  -23.1021  -25.4941   14.5383 C   0  0  0  0  0  0  0  0  0  0  0  0
  -24.8985  -26.3122   13.0131 C   0  0  0  0  0  0  0  0  0  0  0  0
  -27.0343  -20.1752   15.1689 C   0  0  0  0  0  0  0  0  0  0  0  0
  -28.1110  -21.1547   24.9164 C   0  0  0  0  0  0  0  0  0  0  0  0
  -28.2740  -22.8598   23.0508 C   0  0  0  0  0  0  0  0  0  1  0  0
  -25.5232  -24.9220   15.0303 C   0  0  1  0  0  0  0  0  0  0  0  0
  -25.2152  -21.3184   13.8951 C   0  0  2  0  0  0  0  0  0  0  0  0
  -27.3341  -22.0046   23.9083 C   0  0  1  0  0  0  0  0  0  0  0  0
  -24.5555  -26.0117   14.4885 C   0  0  0  0  0  0  0  0  0  0  0  0
  -25.8602  -11.5421   20.2887 N   0  0  0  0  0  0  0  0  0  0  0  0
  -26.2393  -12.8250   20.1596 N   0  0  0  0  0  0  0  0  0  0  0  0
  -27.6062  -25.4070   16.2753 N   0  0  0  0  0  0  0  0  0  0  0  0
  -29.9714  -13.6066   20.3679 N   0  0  0  0  0  0  0  0  0  0  0  0
  -25.4762  -15.0539   20.4053 N   0  0  0  0  0  0  0  0  0  0  0  0
  -29.7841  -19.1789   26.1858 N   0  0  0  0  0  0  0  0  0  0  0  0
  -21.8865  -12.5863   21.5975 N   0  0  0  0  0  0  0  0  0  0  0  0
  -30.0849  -15.6866   21.4740 N   0  0  0  0  0  0  0  0  0  0  0  0
  -29.8758  -28.1954   16.8834 N   0  0  0  0  0  0  0  0  0  0  0  0
  -25.4923  -23.6700   14.2822 N   0  0  0  0  0  0  0  0  0  0  0  0
  -28.9466  -20.1721   24.2233 N   0  3  0  0  0  0  0  0  0  0  0  0
  -25.6815  -20.0710   14.5640 N   0  3  0  0  0  0  0  0  0  0  0  0
  -22.6658  -14.7246   21.3163 O   0  0  0  0  0  0  0  0  0  0  0  0
  -27.5809  -27.8408   17.0573 O   0  0  0  0  0  0  0  0  0  0  0  0
  -27.4971  -25.6919   13.9637 O   0  0  0  0  0  0  0  0  0  0  0  0
  -24.9129  -22.3171   16.0742 O   0  0  0  0  0  0  0  0  0  0  0  0
  -31.8610  -14.9264   20.1897 O   0  0  0  0  0  0  0  0  0  0  0  0
  -21.6043   -7.0236   21.7099 O   0  0  0  0  0  0  0  0  0  0  0  0
  -27.5102  -23.7222   22.2087 O   0  0  0  0  0  0  0  0  0  1  0  0
  -21.8632   -2.9507   18.0020 F   0  0  0  0  0  0  0  0  0  0  0  0
  -34.0113  -17.4579   23.5725 F   0  0  0  0  0  0  0  0  0  0  0  0
  -19.3294   -6.1428   20.4094 F   0  0  0  0  0  0  0  0  0  0  0  0
  1  2  1  0  0  0  0
  1  5  2  0  0  0  0
  2  6  2  0  0  0  0
  3  8  2  0  0  0  0
  3 17  1  0  0  0  0
  4  9  1  0  0  0  0
  4 17  2  0  0  0  0
  5 20  1  0  0  0  0
  6 22  1  0  0  0  0
  7 10  2  0  0  0  0
  7 21  1  0  0  0  0
  8 26  1  0  0  0  0
  9 26  2  0  0  0  0
 10 27  1  0  0  0  0
 11 12  2  0  0  0  0
 11 28  1  0  0  0  0
 12 29  1  0  0  0  0
 13 18  1  0  0  0  0
 13 30  2  0  0  0  0
 14 23  1  0  0  0  0
 14 27  2  0  0  0  0
 15 25  2  0  0  0  0
 15 30  1  0  0  0  0
 16 29  2  0  0  0  0
 16 31  1  0  0  0  0
 17 32  1  0  0  0  0
 18 24  2  0  0  0  0
 18 34  1  0  0  0  0
 19 32  1  0  0  0  0
 19 33  2  0  0  0  0
 19 35  1  0  0  0  0
 20 22  2  0  0  0  0
 20 40  1  0  0  0  0
 21 23  2  0  0  0  0
 21 41  1  0  0  0  0
 22 49  1  0  0  0  0
 23 42  1  0  0  0  0
 24 25  1  0  0  0  0
 24 52  1  0  0  0  0
 25 72  1  0  0  0  0
 26 82  1  0  0  0  0
 27 83  1  0  0  0  0
 28 31  2  0  0  0  0
 28 82  1  0  0  0  0
 29 84  1  0  0  0  0
 30 85  1  0  0  0  0
 31 86  1  0  0  0  0
 32 65  2  0  0  0  0
 33 66  1  0  0  0  0
 33 69  1  0  0  0  0
 34 70  1  0  0  0  0
 34 75  2  0  0  0  0
 35 71  1  0  0  0  0
 35 77  2  0  0  0  0
 36 50  1  0  0  0  0
 36 73  1  0  0  0  0
 36 78  2  0  0  0  0
 37 61  1  0  0  0  0
 37 67  1  0  0  0  0
 37 79  2  0  0  0  0
 38 62  1  0  0  0  0
 38 74  1  0  0  0  0
 38 80  2  0  0  0  0
 39 68  1  0  0  0  0
 39 72  1  0  0  0  0
 39 81  2  0  0  0  0
 40 43  1  0  0  0  0
 41 50  1  0  0  0  0
 42 67  1  0  0  0  0
 43 45  1  0  0  0  0
 44 46  1  0  0  0  0
 44 47  1  0  0  0  0
 45 49  1  0  0  0  0
 46 51  1  0  0  0  0
 47 68  1  0  0  0  0
 48 51  1  0  0  0  0
 48 68  1  0  0  0  0
 49 73  1  0  0  0  0
 50 67  1  0  0  0  0
 51 66  1  0  0  0  0
 53 62  1  0  0  0  0
 54 63  1  0  0  0  0
 55 64  1  0  0  0  0
 56 64  1  0  0  0  0
 57 64  1  0  0  0  0
 58 76  1  0  0  0  0
 59 63  1  0  0  0  0
 59 75  1  0  0  0  0
 60 63  1  0  0  0  0
 60 83  1  0  0  0  0
 61 64  1  0  0  0  0
 61 74  1  0  0  0  0
 62 76  1  0  0  0  0
 65 66  1  0  0  0  0
M  CHG  2  75   1  76   1
M  ISO  4  39 100  60 101  72 100  83 101
M  END
> <Batch ID>
0051

> <Smiles>
CNC(C)C(=O)NC(C(=O)N1Cc2cc([101O:1][101CH2:1]C(C)CNC(=N)c3cc(F)cc([100NH:0][100C:0](=O)N4CCCC(n5nc(-c6ccc(Oc7ccc(F)cc7F)cc6)c(C(N)=O)c5N)C4)c3C)ccc2CC1C(=O)NC1CCCc2ccccc21)C(C)(C)C

> <Shape>
0.183

> <Color>
0.184

> <Negative vol penalty>
0.000

$$$$

  -OEChem-04042322373D

 86 94  0     1  0  0  0  0  0999 V2000
  -29.0600  -18.9603   25.6789 C   0  0  0  0  0  0  0  0  0  0  0  0
  -27.7305  -18.6292   25.4424 C   0  0  0  0  0  0  0  0  0  0  0  0
  -18.6145  -28.3028   23.8943 C   0  0  0  0  0  0  0  0  0  0  0  0
  -29.1466  -25.1934   20.1424 C   0  0  0  0  0  0  0  0  0  0  0  0
  -27.1348  -23.8649   19.9852 C   0  0  0  0  0  0  0  0  0  0  0  0
  -30.0481  -18.5360   24.7931 C   0  0  0  0  0  0  0  0  0  0  0  0
  -27.3902  -17.8638   24.3265 C   0  0  0  0  0  0  0  0  0  0  0  0
  -22.7137  -16.3764   23.9784 C   0  0  0  0  0  0  0  0  0  0  0  0
  -18.0463  -27.1303   23.3964 C   0  0  0  0  0  0  0  0  0  0  0  0
  -19.7792  -28.8120   23.3200 C   0  0  0  0  0  0  0  0  0  0  0  0
  -29.8434  -24.0822   20.6170 C   0  0  0  0  0  0  0  0  0  0  0  0
  -27.8316  -22.7536   20.4597 C   0  0  0  0  0  0  0  0  0  0  0  0
  -21.6668  -17.2459   23.6758 C   0  0  0  0  0  0  0  0  0  0  0  0
  -32.0648  -21.6847   22.2108 C   0  0  0  0  0  0  0  0  0  0  0  0
  -32.9085  -21.8657   23.3067 C   0  0  0  0  0  0  0  0  0  0  0  0
  -21.6165  -16.3908   21.4207 C   0  0  0  0  0  0  0  0  0  0  0  0
  -31.0267  -22.5946   24.6351 C   0  0  0  0  0  0  0  0  0  0  0  0
  -27.7922  -25.0848   19.8266 C   0  0  0  0  0  0  0  0  0  0  0  0
  -26.9147  -26.6287   17.9952 C   0  0  0  0  0  0  0  0  0  0  0  0
  -29.7175  -17.7756   23.6594 C   0  0  0  0  0  0  0  0  0  0  0  0
  -23.2280  -15.5138   22.9998 C   0  0  0  0  0  0  0  0  0  0  0  0
  -28.3759  -17.4058   23.4336 C   0  0  0  0  0  0  0  0  0  0  0  0
  -22.6682  -15.5095   21.7142 C   0  0  0  0  0  0  0  0  0  0  0  0
  -18.6429  -26.4668   22.3243 C   0  0  0  0  0  0  0  0  0  0  0  0
  -19.8076  -26.9759   21.7500 C   0  0  0  0  0  0  0  0  0  0  0  0
  -20.3758  -28.1485   22.2478 C   0  0  0  0  0  0  0  0  0  0  0  0
  -29.1859  -22.8623   20.7756 C   0  0  0  0  0  0  0  0  0  0  0  0
  -21.1199  -17.2553   22.3960 C   0  0  0  0  0  0  0  0  0  0  0  0
  -30.7020  -21.9587   22.3270 C   0  0  0  0  0  0  0  0  0  0  0  0
  -32.3895  -22.3207   24.5188 C   0  0  0  0  0  0  0  0  0  0  0  0
  -30.1830  -22.4136   23.5392 C   0  0  0  0  0  0  0  0  0  0  0  0
  -27.0718  -26.2325   19.3369 C   0  0  0  0  0  0  0  0  0  0  0  0
  -26.1544  -27.7707   18.0612 C   0  0  0  0  0  0  0  0  0  0  0  0
  -27.4116  -26.0190   16.7965 C   0  0  0  0  0  0  0  0  0  0  0  0
  -26.0567  -15.1446   21.5976 C   0  0  0  0  0  0  0  0  0  0  0  0
  -24.6223  -12.5582   20.2651 C   0  0  0  0  0  0  0  0  0  0  0  0
  -18.6711  -22.8085   21.7553 C   0  0  0  0  0  0  0  0  0  0  0  0
  -21.7272  -11.0108   19.3322 C   0  0  0  0  0  0  0  0  0  0  0  0
  -22.2346  -29.8393   22.0688 C   0  0  0  0  0  0  0  0  0  0  0  0
  -30.8278  -17.3361   22.7378 C   0  0  0  0  0  0  0  0  0  0  0  0
  -24.3397  -14.5630   23.3497 C   0  0  0  0  0  0  0  0  0  0  0  0
  -23.1709  -14.5887   20.6334 C   0  0  0  0  0  0  0  0  0  0  0  0
  -30.3257  -16.9146   21.3607 C   0  0  0  0  0  0  0  0  0  0  0  0
  -25.1951  -31.4693   20.9481 C   0  0  0  0  0  0  0  0  0  0  0  0
  -29.1692  -15.9369   21.5060 C   0  0  0  0  0  0  0  0  0  0  0  0
  -25.9953  -30.3486   20.2803 C   0  0  0  0  0  0  0  0  0  0  0  0
  -24.4436  -30.9720   22.1817 C   0  0  0  0  0  0  0  0  0  0  0  0
  -24.3924  -28.6760   21.2901 C   0  0  0  0  0  0  0  0  0  0  0  0
  -27.9786  -16.6000   22.2101 C   0  0  1  0  0  0  0  0  0  0  0  0
  -25.1279  -14.0911   22.1317 C   0  0  1  0  0  0  0  0  0  0  0  0
  -25.1147  -29.1139   20.0056 C   0  0  2  0  0  0  0  0  0  0  0  0
  -20.4440  -26.2605   20.5997 C   0  0  0  0  0  0  0  0  0  0  0  0
  -16.4884  -25.1892   21.9807 C   0  0  0  0  0  0  0  0  0  0  0  0
  -20.8760   -8.9218   18.2328 C   0  0  0  0  0  0  0  0  0  0  0  0
  -25.4604  -13.6523   17.5428 C   0  0  0  0  0  0  0  0  0  0  0  0
  -23.8113  -12.0927   16.4862 C   0  0  0  0  0  0  0  0  0  0  0  0
  -25.7251  -11.1787   17.7995 C   0  0  0  0  0  0  0  0  0  0  0  0
  -20.2172  -10.2148   21.7499 C   0  0  0  0  0  0  0  0  0  0  0  0
  -19.3336  -21.7486   22.6172 C   0  0  0  0  0  0  0  0  0  0  0  0
  -19.4290  -20.4001   21.9125 C   0  0  0  0  0  0  0  0  0  0  0  0
  -20.0521  -19.3399   22.8088 C   0  0  0  0  0  0  0  0  0  1  0  0
  -18.0054  -25.1966   21.8039 C   0  0  2  0  0  0  0  0  0  0  0  0
  -23.8168  -12.3093   19.0129 C   0  0  1  0  0  0  0  0  0  0  0  0
  -21.2263   -9.5946   19.5509 C   0  0  2  0  0  0  0  0  0  0  0  0
  -24.6950  -12.3271   17.7300 C   0  0  0  0  0  0  0  0  0  0  0  0
  -26.4605  -27.0560   20.1927 N   0  0  0  0  0  0  0  0  0  0  0  0
  -25.9120  -27.9811   19.3867 N   0  0  0  0  0  0  0  0  0  0  0  0
  -24.2635  -13.6820   21.0228 N   0  0  0  0  0  0  0  0  0  0  0  0
  -23.6272  -29.8038   21.8445 N   0  0  0  0  0  0  0  0  0  0  0  0
  -25.6764  -28.6054   17.1140 N   0  0  0  0  0  0  0  0  0  0  0  0
  -28.1759  -24.8496   16.9090 N   0  0  0  0  0  0  0  0  0  0  0  0
  -21.5582  -28.6837   21.6794 N   0  0  0  0  0  0  0  0  0  0  0  0
  -26.9886  -15.5907   22.5152 N   0  0  0  0  0  0  0  0  0  0  0  0
  -18.5936  -24.0274   22.4132 N   0  0  0  0  0  0  0  0  0  0  0  0
  -23.1015  -11.0564   19.2300 N   0  0  0  0  0  0  0  0  0  0  0  0
  -20.0103   -9.6024   20.4123 N   0  3  0  0  0  0  0  0  0  0  0  0
  -27.1983  -26.5061   15.6604 O   0  0  0  0  0  0  0  0  0  0  0  0
  -25.9376  -15.5237   20.4383 O   0  0  0  0  0  0  0  0  0  0  0  0
  -25.5317  -11.7801   20.5639 O   0  0  0  0  0  0  0  0  0  0  0  0
  -18.2614  -22.5939   20.6177 O   0  0  0  0  0  0  0  0  0  0  0  0
  -20.9743  -11.9792   19.2556 O   0  0  0  0  0  0  0  0  0  0  0  0
  -21.6790  -30.8330   22.5442 O   0  0  0  0  0  0  0  0  0  0  0  0
  -29.8656  -21.7776   21.2384 O   0  0  0  0  0  0  0  0  0  0  0  0
  -20.0984  -18.1035   22.0977 O   0  0  0  0  0  0  0  0  0  1  0  0
  -33.1996  -22.4930   25.5716 F   0  0  0  0  0  0  0  0  0  0  0  0
  -28.8745  -22.6774   23.6572 F   0  0  0  0  0  0  0  0  0  0  0  0
  1  2  1  0  0  0  0
  1  6  2  0  0  0  0
  2  7  2  0  0  0  0
  3  9  2  0  0  0  0
  3 10  1  0  0  0  0
  4 11  2  0  0  0  0
  4 18  1  0  0  0  0
  5 12  1  0  0  0  0
  5 18  2  0  0  0  0
  6 20  1  0  0  0  0
  7 22  1  0  0  0  0
  8 13  2  0  0  0  0
  8 21  1  0  0  0  0
  9 24  1  0  0  0  0
 10 26  2  0  0  0  0
 11 27  1  0  0  0  0
 12 27  2  0  0  0  0
 13 28  1  0  0  0  0
 14 15  2  0  0  0  0
 14 29  1  0  0  0  0
 15 30  1  0  0  0  0
 16 23  1  0  0  0  0
 16 28  2  0  0  0  0
 17 30  2  0  0  0  0
 17 31  1  0  0  0  0
 18 32  1  0  0  0  0
 19 32  1  0  0  0  0
 19 33  2  0  0  0  0
 19 34  1  0  0  0  0
 20 22  2  0  0  0  0
 20 40  1  0  0  0  0
 21 23  2  0  0  0  0
 21 41  1  0  0  0  0
 22 49  1  0  0  0  0
 23 42  1  0  0  0  0
 24 25  2  0  0  0  0
 24 62  1  0  0  0  0
 25 26  1  0  0  0  0
 25 52  1  0  0  0  0
 26 72  1  0  0  0  0
 27 83  1  0  0  0  0
 28 84  1  0  0  0  0
 29 31  2  0  0  0  0
 29 83  1  0  0  0  0
 30 85  1  0  0  0  0
 31 86  1  0  0  0  0
 32 66  2  0  0  0  0
 33 67  1  0  0  0  0
 33 70  1  0  0  0  0
 34 71  1  0  0  0  0
 34 77  2  0  0  0  0
 35 50  1  0  0  0  0
 35 73  1  0  0  0  0
 35 78  2  0  0  0  0
 36 63  1  0  0  0  0
 36 68  1  0  0  0  0
 36 79  2  0  0  0  0
 37 59  1  0  0  0  0
 37 74  1  0  0  0  0
 37 80  2  0  0  0  0
 38 64  1  0  0  0  0
 38 75  1  0  0  0  0
 38 81  2  0  0  0  0
 39 69  1  0  0  0  0
 39 72  1  0  0  0  0
 39 82  2  0  0  0  0
 40 43  1  0  0  0  0
 41 50  1  0  0  0  0
 42 68  1  0  0  0  0
 43 45  1  0  0  0  0
 44 46  1  0  0  0  0
 44 47  1  0  0  0  0
 45 49  1  0  0  0  0
 46 51  1  0  0  0  0
 47 69  1  0  0  0  0
 48 51  1  0  0  0  0
 48 69  1  0  0  0  0
 49 73  1  0  0  0  0
 50 68  1  0  0  0  0
 51 67  1  0  0  0  0
 53 62  1  0  0  0  0
 54 64  1  0  0  0  0
 55 65  1  0  0  0  0
 56 65  1  0  0  0  0
 57 65  1  0  0  0  0
 58 76  1  0  0  0  0
 59 60  1  0  0  0  0
 60 61  1  0  0  0  0
 61 84  1  0  0  0  0
 62 74  1  0  0  0  0
 63 65  1  0  0  0  0
 63 75  1  0  0  0  0
 64 76  1  0  0  0  0
 66 67  1  0  0  0  0
M  CHG  1  76   1
M  ISO  4  39 100  61 101  72 100  84 101
M  END
> <Batch ID>
0051

> <Smiles>
CNC(C)C(=O)NC(C(=O)N1Cc2cc([101O:1][101CH2:1]CCC(=O)NC(C)c3cccc([100NH:0][100C:0](=O)N4CCCC(n5nc(-c6ccc(Oc7ccc(F)cc7F)cc6)c(C(N)=O)c5N)C4)c3C)ccc2CC1C(=O)NC1CCCc2ccccc21)C(C)(C)C

> <Shape>
0.205

> <Color>
0.076

> <Negative vol penalty>
0.000

$$$$

  -OEChem-04042322373D

 86 94  0     1  0  0  0  0  0999 V2000
  -35.4073  -31.4397   20.6731 C   0  0  0  0  0  0  0  0  0  0  0  0
  -34.4601  -30.4254   20.5755 C   0  0  0  0  0  0  0  0  0  0  0  0
  -23.0017   -9.8932   19.9824 C   0  0  0  0  0  0  0  0  0  0  0  0
  -23.7311   -9.9450   22.2851 C   0  0  0  0  0  0  0  0  0  0  0  0
  -36.6897  -31.2460   20.1614 C   0  0  0  0  0  0  0  0  0  0  0  0
  -34.7946  -29.2171   19.9652 C   0  0  0  0  0  0  0  0  0  0  0  0
  -33.1709  -25.2009   22.5879 C   0  0  0  0  0  0  0  0  0  0  0  0
  -22.2372   -8.7577   20.2502 C   0  0  0  0  0  0  0  0  0  0  0  0
  -22.9665   -8.8095   22.5529 C   0  0  0  0  0  0  0  0  0  0  0  0
  -31.8200  -24.8735   22.4796 C   0  0  0  0  0  0  0  0  0  0  0  0
  -23.2143   -5.4709   22.0805 C   0  0  0  0  0  0  0  0  0  0  0  0
  -23.8046   -4.4545   22.8315 C   0  0  0  0  0  0  0  0  0  0  0  0
  -32.3724  -23.1465   20.8885 C   0  0  0  0  0  0  0  0  0  0  0  0
  -29.3437  -18.6181   20.9078 C   0  0  0  0  0  0  0  0  0  0  0  0
  -31.5654  -18.3232   20.0056 C   0  0  0  0  0  0  0  0  0  0  0  0
  -22.0835   -4.6951   24.5099 C   0  0  0  0  0  0  0  0  0  0  0  0
  -23.7488  -10.4868   20.9999 C   0  0  0  0  0  0  0  0  0  0  0  0
  -24.1305  -13.0029   20.8232 C   0  0  0  0  0  0  0  0  0  0  0  0
  -37.0429  -30.0312   19.5531 C   0  0  0  0  0  0  0  0  0  0  0  0
  -34.1332  -24.5097   21.8378 C   0  0  0  0  0  0  0  0  0  0  0  0
  -36.0825  -29.0074   19.4436 C   0  0  0  0  0  0  0  0  0  0  0  0
  -33.7351  -23.4654   20.9910 C   0  0  0  0  0  0  0  0  0  0  0  0
  -30.5699  -17.9533   20.9099 C   0  0  0  0  0  0  0  0  0  0  0  0
  -29.1129  -19.6528   20.0013 C   0  0  0  0  0  0  0  0  0  0  0  0
  -30.1083  -20.0228   19.0969 C   0  0  0  0  0  0  0  0  0  0  0  0
  -22.2195   -8.2159   21.5354 C   0  0  0  0  0  0  0  0  0  0  0  0
  -31.4203  -23.8481   21.6276 C   0  0  0  0  0  0  0  0  0  0  0  0
  -22.0587   -6.0996   22.5442 C   0  0  0  0  0  0  0  0  0  0  0  0
  -23.2392   -4.0666   24.0462 C   0  0  0  0  0  0  0  0  0  0  0  0
  -21.4932   -5.7116   23.7589 C   0  0  0  0  0  0  0  0  0  0  0  0
  -31.3346  -19.3580   19.0990 C   0  0  0  0  0  0  0  0  0  0  0  0
  -24.5392  -11.6595   20.7238 C   0  0  0  0  0  0  0  0  0  0  0  0
  -25.2386  -13.7270   20.4568 C   0  0  0  0  0  0  0  0  0  0  0  0
  -22.8625  -13.5477   21.2121 C   0  0  0  0  0  0  0  0  0  0  0  0
  -36.2329  -25.3185   19.5927 C   0  0  0  0  0  0  0  0  0  0  0  0
  -37.2048  -22.2437   19.9436 C   0  0  0  0  0  0  0  0  0  0  0  0
  -27.7170  -21.8646   21.9982 C   0  0  0  0  0  0  0  0  0  0  0  0
  -36.4446  -19.0555   20.8946 C   0  0  0  0  0  0  0  0  0  0  0  0
  -30.7342  -14.6687   20.6952 C   0  0  0  0  0  0  0  0  0  0  0  0
  -38.4272  -29.8856   18.9725 C   0  0  0  0  0  0  0  0  0  0  0  0
  -35.5891  -24.8573   21.9861 C   0  0  0  0  0  0  0  0  0  0  0  0
  -34.7309  -22.6792   20.1794 C   0  0  0  0  0  0  0  0  0  0  0  0
  -38.8140  -28.4391   18.6753 C   0  0  0  0  0  0  0  0  0  0  0  0
  -29.5924  -12.2436   18.3518 C   0  0  0  0  0  0  0  0  0  0  0  0
  -37.6812  -27.7223   17.9475 C   0  0  0  0  0  0  0  0  0  0  0  0
  -28.1450  -11.9820   18.7720 C   0  0  0  0  0  0  0  0  0  0  0  0
  -30.4967  -12.4801   19.5593 C   0  0  0  0  0  0  0  0  0  0  0  0
  -28.5880  -13.2731   20.9017 C   0  0  0  0  0  0  0  0  0  0  0  0
  -36.4147  -27.6736   18.8107 C   0  0  1  0  0  0  0  0  0  0  0  0
  -36.4306  -24.4295   20.7877 C   0  0  1  0  0  0  0  0  0  0  0  0
  -27.6270  -13.0842   19.7154 C   0  0  2  0  0  0  0  0  0  0  0  0
  -29.8442  -21.1349   18.1302 C   0  0  0  0  0  0  0  0  0  0  0  0
  -37.4309  -16.7520   21.0295 C   0  0  0  0  0  0  0  0  0  0  0  0
  -36.8599  -21.9221   16.9290 C   0  0  0  0  0  0  0  0  0  0  0  0
  -36.9242  -19.4408   17.2566 C   0  0  0  0  0  0  0  0  0  0  0  0
  -38.9044  -20.8295   17.8675 C   0  0  0  0  0  0  0  0  0  0  0  0
  -36.1156  -18.9609   23.8343 C   0  0  0  0  0  0  0  0  0  0  0  0
  -30.8163  -16.8477   21.8802 C   0  0  0  0  0  0  0  0  0  0  0  0
  -27.7832  -20.3497   20.0207 C   0  0  0  0  0  0  0  0  0  0  0  0
  -27.8534  -23.3368   22.3539 C   0  0  0  0  0  0  0  0  0  0  0  0
  -29.2851  -23.7415   22.6694 C   0  0  0  0  0  0  0  0  0  1  0  0
  -36.8306  -20.9253   19.3105 C   0  0  1  0  0  0  0  0  0  0  0  0
  -37.1885  -18.0600   21.7665 C   0  0  2  0  0  0  0  0  0  0  0  0
  -37.3605  -20.7954   17.8546 C   0  0  0  0  0  0  0  0  0  0  0  0
  -25.8079  -11.5346   20.3253 N   0  0  0  0  0  0  0  0  0  0  0  0
  -26.2059  -12.8089   20.1710 N   0  0  0  0  0  0  0  0  0  0  0  0
  -36.1420  -23.0609   20.3541 N   0  0  0  0  0  0  0  0  0  0  0  0
  -29.9501  -13.5381   20.4125 N   0  0  0  0  0  0  0  0  0  0  0  0
  -25.4702  -15.0530   20.3543 N   0  0  0  0  0  0  0  0  0  0  0  0
  -21.8325  -12.6622   21.5575 N   0  0  0  0  0  0  0  0  0  0  0  0
  -36.5330  -26.6474   19.8242 N   0  0  0  0  0  0  0  0  0  0  0  0
  -27.8658  -21.6554   20.6347 N   0  0  0  0  0  0  0  0  0  0  0  0
  -37.3104  -19.8869   20.2160 N   0  0  0  0  0  0  0  0  0  0  0  0
  -30.1381  -15.6267   21.5061 N   0  0  0  0  0  0  0  0  0  0  0  0
  -36.4062  -17.7662   23.0004 N   0  3  0  0  0  0  0  0  0  0  0  0
  -22.6443  -14.7827   21.2363 O   0  0  0  0  0  0  0  0  0  0  0  0
  -35.8388  -24.8345   18.5381 O   0  0  0  0  0  0  0  0  0  0  0  0
  -38.3963  -22.5345   20.0757 O   0  0  0  0  0  0  0  0  0  0  0  0
  -27.5021  -20.9876   22.8305 O   0  0  0  0  0  0  0  0  0  0  0  0
  -35.2183  -19.0896   20.8200 O   0  0  0  0  0  0  0  0  0  0  0  0
  -31.8786  -14.8161   20.2530 O   0  0  0  0  0  0  0  0  0  0  0  0
  -21.4734   -7.1080   21.7971 O   0  0  0  0  0  0  0  0  0  0  0  0
  -30.1024  -23.5268   21.5195 O   0  0  0  0  0  0  0  0  0  1  0  0
  -23.8052   -3.0894   24.7665 F   0  0  0  0  0  0  0  0  0  0  0  0
  -20.3824   -6.3110   24.2090 F   0  0  0  0  0  0  0  0  0  0  0  0
  -32.5925  -19.7872   17.9969 Cl  0  0  0  0  0  0  0  0  0  0  0  0
  1  2  1  0  0  0  0
  1  5  2  0  0  0  0
  2  6  2  0  0  0  0
  3  8  2  0  0  0  0
  3 17  1  0  0  0  0
  4  9  1  0  0  0  0
  4 17  2  0  0  0  0
  5 19  1  0  0  0  0
  6 21  1  0  0  0  0
  7 10  2  0  0  0  0
  7 20  1  0  0  0  0
  8 26  1  0  0  0  0
  9 26  2  0  0  0  0
 10 27  1  0  0  0  0
 11 12  2  0  0  0  0
 11 28  1  0  0  0  0
 12 29  1  0  0  0  0
 13 22  1  0  0  0  0
 13 27  2  0  0  0  0
 14 23  2  0  0  0  0
 14 24  1  0  0  0  0
 15 23  1  0  0  0  0
 15 31  2  0  0  0  0
 16 29  2  0  0  0  0
 16 30  1  0  0  0  0
 17 32  1  0  0  0  0
 18 32  1  0  0  0  0
 18 33  2  0  0  0  0
 18 34  1  0  0  0  0
 19 21  2  0  0  0  0
 19 40  1  0  0  0  0
 20 22  2  0  0  0  0
 20 41  1  0  0  0  0
 21 49  1  0  0  0  0
 22 42  1  0  0  0  0
 23 58  1  0  0  0  0
 24 25  2  0  0  0  0
 24 59  1  0  0  0  0
 25 31  1  0  0  0  0
 25 52  1  0  0  0  0
 26 82  1  0  0  0  0
 27 83  1  0  0  0  0
 28 30  2  0  0  0  0
 28 82  1  0  0  0  0
 29 84  1  0  0  0  0
 30 85  1  0  0  0  0
 31 86  1  0  0  0  0
 32 65  2  0  0  0  0
 33 66  1  0  0  0  0
 33 69  1  0  0  0  0
 34 70  1  0  0  0  0
 34 76  2  0  0  0  0
 35 50  1  0  0  0  0
 35 71  1  0  0  0  0
 35 77  2  0  0  0  0
 36 62  1  0  0  0  0
 36 67  1  0  0  0  0
 36 78  2  0  0  0  0
 37 60  1  0  0  0  0
 37 72  1  0  0  0  0
 37 79  2  0  0  0  0
 38 63  1  0  0  0  0
 38 73  1  0  0  0  0
 38 80  2  0  0  0  0
 39 68  1  0  0  0  0
 39 74  1  0  0  0  0
 39 81  2  0  0  0  0
 40 43  1  0  0  0  0
 41 50  1  0  0  0  0
 42 67  1  0  0  0  0
 43 45  1  0  0  0  0
 44 46  1  0  0  0  0
 44 47  1  0  0  0  0
 45 49  1  0  0  0  0
 46 51  1  0  0  0  0
 47 68  1  0  0  0  0
 48 51  1  0  0  0  0
 48 68  1  0  0  0  0
 49 71  1  0  0  0  0
 50 67  1  0  0  0  0
 51 66  1  0  0  0  0
 53 63  1  0  0  0  0
 54 64  1  0  0  0  0
 55 64  1  0  0  0  0
 56 64  1  0  0  0  0
 57 75  1  0  0  0  0
 58 74  1  0  0  0  0
 59 72  1  0  0  0  0
 60 61  1  0  0  0  0
 61 83  1  0  0  0  0
 62 64  1  0  0  0  0
 62 73  1  0  0  0  0
 63 75  1  0  0  0  0
 65 66  1  0  0  0  0
M  CHG  1  75   1
M  ISO  4  39 100  61 101  74 100  83 101
M  END
> <Batch ID>
0051

> <Smiles>
CNC(C)C(=O)NC(C(=O)N1Cc2cc([101O:1][101CH2:1]CC(=O)NCc3cc(C[100NH:0][100C:0](=O)N4CCCC(n5nc(-c6ccc(Oc7ccc(F)cc7F)cc6)c(C(N)=O)c5N)C4)cc(Cl)c3C)ccc2CC1C(=O)NC1CCCc2ccccc21)C(C)(C)C

> <Shape>
0.214

> <Color>
0.197

> <Negative vol penalty>
0.000

$$$$

  -OEChem-04042322373D

 83 91  0     1  0  0  0  0  0999 V2000
  -21.5398  -12.2603   20.7681 C   0  0  0  0  0  0  0  0  0  0  0  0
  -21.5868  -13.5743   21.2226 C   0  0  0  0  0  0  0  0  0  0  0  0
  -29.7416  -29.6704   21.0495 C   0  0  0  0  0  0  0  0  0  0  0  0
  -28.8757  -27.9712   22.5327 C   0  0  0  0  0  0  0  0  0  0  0  0
  -22.7224  -11.5830   20.4737 C   0  0  0  0  0  0  0  0  0  0  0  0
  -22.8166  -14.2114   21.3841 C   0  0  0  0  0  0  0  0  0  0  0  0
  -22.8191  -18.9264   19.5362 C   0  0  0  0  0  0  0  0  0  0  0  0
  -30.8987  -29.7566   21.8237 C   0  0  0  0  0  0  0  0  0  0  0  0
  -30.0328  -28.0574   23.3069 C   0  0  0  0  0  0  0  0  0  0  0  0
  -22.2136  -19.9144   20.3114 C   0  0  0  0  0  0  0  0  0  0  0  0
  -31.2996  -30.1131   25.6733 C   0  0  0  0  0  0  0  0  0  0  0  0
  -31.1500  -30.1592   27.0593 C   0  0  0  0  0  0  0  0  0  0  0  0
  -24.3826  -20.6175   21.0988 C   0  0  0  0  0  0  0  0  0  0  0  0
  -20.0086  -26.4389   22.3810 C   0  0  0  0  0  0  0  0  0  0  0  0
  -18.2648  -28.0814   22.0679 C   0  0  0  0  0  0  0  0  0  0  0  0
  -18.0513  -25.8889   21.0759 C   0  0  0  0  0  0  0  0  0  0  0  0
  -32.4514  -28.1342   27.2670 C   0  0  0  0  0  0  0  0  0  0  0  0
  -28.7301  -28.7777   21.4040 C   0  0  0  0  0  0  0  0  0  0  0  0
  -27.3092  -27.8416   19.5034 C   0  0  0  0  0  0  0  0  0  0  0  0
  -23.9669  -12.2154   20.6224 C   0  0  0  0  0  0  0  0  0  0  0  0
  -24.2125  -18.7692   19.5449 C   0  0  0  0  0  0  0  0  0  0  0  0
  -24.0170  -13.5416   21.0927 C   0  0  0  0  0  0  0  0  0  0  0  0
  -25.0036  -19.6284   20.3209 C   0  0  0  0  0  0  0  0  0  0  0  0
  -19.4985  -27.7173   22.6073 C   0  0  0  0  0  0  0  0  0  0  0  0
  -19.2850  -25.5247   21.6153 C   0  0  0  0  0  0  0  0  0  0  0  0
  -31.0443  -28.9501   22.9524 C   0  0  0  0  0  0  0  0  0  0  0  0
  -22.9951  -20.7583   21.0951 C   0  0  0  0  0  0  0  0  0  0  0  0
  -32.0250  -29.0776   25.0841 C   0  0  0  0  0  0  0  0  0  0  0  0
  -31.7259  -29.1697   27.8562 C   0  0  0  0  0  0  0  0  0  0  0  0
  -32.6009  -28.0881   25.8810 C   0  0  0  0  0  0  0  0  0  0  0  0
  -17.5411  -27.1672   21.3022 C   0  0  0  0  0  0  0  0  0  0  0  0
  -27.5344  -28.6887   20.6050 C   0  0  0  0  0  0  0  0  0  0  0  0
  -26.0308  -28.1380   19.0980 C   0  0  0  0  0  0  0  0  0  0  0  0
  -28.1779  -26.8733   18.9006 C   0  0  0  0  0  0  0  0  0  0  0  0
  -26.2015  -16.4364   20.3850 C   0  0  0  0  0  0  0  0  0  0  0  0
  -28.4418  -18.4306   19.1494 C   0  0  0  0  0  0  0  0  0  0  0  0
  -21.0065  -23.7030   21.8432 C   0  0  0  0  0  0  0  0  0  0  0  0
  -29.3510  -21.6178   18.3360 C   0  0  0  0  0  0  0  0  0  0  0  0
  -21.2759  -30.4111   21.9396 C   0  0  0  0  0  0  0  0  0  0  0  0
  -25.2205  -11.4271   20.3367 C   0  0  0  0  0  0  0  0  0  0  0  0
  -24.8523  -17.7159   18.6825 C   0  0  0  0  0  0  0  0  0  0  0  0
  -26.5051  -19.5142   20.3496 C   0  0  0  0  0  0  0  0  0  0  0  0
  -26.4644  -12.2976   20.1774 C   0  0  0  0  0  0  0  0  0  0  0  0
  -22.8594  -31.7196   19.0315 C   0  0  0  0  0  0  0  0  0  0  0  0
  -26.5390  -13.3318   21.2961 C   0  0  0  0  0  0  0  0  0  0  0  0
  -24.2167  -31.0148   19.0056 C   0  0  0  0  0  0  0  0  0  0  0  0
  -22.4152  -32.0367   20.4578 C   0  0  0  0  0  0  0  0  0  0  0  0
  -23.7645  -30.1770   21.3492 C   0  0  0  0  0  0  0  0  0  0  0  0
  -25.3305  -14.2750   21.2570 C   0  0  1  0  0  0  0  0  0  0  0  0
  -26.2422  -17.3121   19.1647 C   0  0  1  0  0  0  0  0  0  0  0  0
  -24.2286  -29.7866   19.9355 C   0  0  2  0  0  0  0  0  0  0  0  0
  -31.2572  -22.9386   17.3771 C   0  0  0  0  0  0  0  0  0  0  0  0
  -29.9413  -18.1825   21.7952 C   0  0  0  0  0  0  0  0  0  0  0  0
  -31.2722  -20.2026   21.1502 C   0  0  0  0  0  0  0  0  0  0  0  0
  -31.3972  -18.1336   19.7623 C   0  0  0  0  0  0  0  0  0  0  0  0
  -27.7084  -22.5558   16.0598 C   0  0  0  0  0  0  0  0  0  0  0  0
  -20.2726  -28.6950   23.4254 C   0  0  0  0  0  0  0  0  0  0  0  0
  -21.1817  -22.2723   21.3692 C   0  0  0  0  0  0  0  0  0  1  0  0
  -29.3004  -19.5447   19.6976 C   0  0  1  0  0  0  0  0  0  0  0  0
  -29.9628  -22.1999   17.0745 C   0  0  2  0  0  0  0  0  0  0  0  0
  -30.4494  -19.0170   20.6025 C   0  0  0  0  0  0  0  0  0  0  0  0
  -26.4834  -29.4651   20.8817 N   0  0  0  0  0  0  0  0  0  0  0  0
  -25.5855  -29.1071   19.9480 N   0  0  0  0  0  0  0  0  0  0  0  0
  -27.0832  -18.4647   19.4941 N   0  0  0  0  0  0  0  0  0  0  0  0
  -22.4474  -30.8297   21.2873 N   0  0  0  0  0  0  0  0  0  0  0  0
  -25.2555  -27.6616   18.1008 N   0  0  0  0  0  0  0  0  0  0  0  0
  -29.4581  -26.6950   19.4426 N   0  0  0  0  0  0  0  0  0  0  0  0
  -19.8030  -24.2281   21.3850 N   0  0  0  0  0  0  0  0  0  0  0  0
  -25.4936  -15.2624   20.2116 N   0  0  0  0  0  0  0  0  0  0  0  0
  -29.7536  -20.3157   18.5450 N   0  0  0  0  0  0  0  0  0  0  0  0
  -21.3918  -29.2541   22.7004 N   0  0  0  0  0  0  0  0  0  0  0  0
  -29.0158  -23.1548   16.4325 N   0  3  0  0  0  0  0  0  0  0  0  0
  -27.8352  -26.1981   17.9004 O   0  0  0  0  0  0  0  0  0  0  0  0
  -26.7716  -16.7983   21.4076 O   0  0  0  0  0  0  0  0  0  0  0  0
  -28.9562  -17.5660   18.4356 O   0  0  0  0  0  0  0  0  0  0  0  0
  -21.8533  -24.2590   22.5349 O   0  0  0  0  0  0  0  0  0  0  0  0
  -28.5948  -22.2557   19.0651 O   0  0  0  0  0  0  0  0  0  0  0  0
  -20.2048  -31.0201   21.8464 O   0  0  0  0  0  0  0  0  0  0  0  0
  -32.1733  -29.0337   23.7079 O   0  0  0  0  0  0  0  0  0  0  0  0
  -22.4066  -21.7230   21.8532 O   0  0  0  0  0  0  0  0  0  1  0  0
  -31.5835  -29.2149   29.1873 F   0  0  0  0  0  0  0  0  0  0  0  0
  -33.2999  -27.0915   25.3207 F   0  0  0  0  0  0  0  0  0  0  0  0
  -16.0198  -27.6170   20.6349 Cl  0  0  0  0  0  0  0  0  0  0  0  0
  1  2  1  0  0  0  0
  1  5  2  0  0  0  0
  2  6  2  0  0  0  0
  3  8  2  0  0  0  0
  3 18  1  0  0  0  0
  4  9  1  0  0  0  0
  4 18  2  0  0  0  0
  5 20  1  0  0  0  0
  6 22  1  0  0  0  0
  7 10  2  0  0  0  0
  7 21  1  0  0  0  0
  8 26  1  0  0  0  0
  9 26  2  0  0  0  0
 10 27  1  0  0  0  0
 11 12  2  0  0  0  0
 11 28  1  0  0  0  0
 12 29  1  0  0  0  0
 13 23  1  0  0  0  0
 13 27  2  0  0  0  0
 14 24  1  0  0  0  0
 14 25  2  0  0  0  0
 15 24  2  0  0  0  0
 15 31  1  0  0  0  0
 16 25  1  0  0  0  0
 16 31  2  0  0  0  0
 17 29  2  0  0  0  0
 17 30  1  0  0  0  0
 18 32  1  0  0  0  0
 19 32  1  0  0  0  0
 19 33  2  0  0  0  0
 19 34  1  0  0  0  0
 20 22  2  0  0  0  0
 20 40  1  0  0  0  0
 21 23  2  0  0  0  0
 21 41  1  0  0  0  0
 22 49  1  0  0  0  0
 23 42  1  0  0  0  0
 24 57  1  0  0  0  0
 25 68  1  0  0  0  0
 26 79  1  0  0  0  0
 27 80  1  0  0  0  0
 28 30  2  0  0  0  0
 28 79  1  0  0  0  0
 29 81  1  0  0  0  0
 30 82  1  0  0  0  0
 31 83  1  0  0  0  0
 32 62  2  0  0  0  0
 33 63  1  0  0  0  0
 33 66  1  0  0  0  0
 34 67  1  0  0  0  0
 34 73  2  0  0  0  0
 35 50  1  0  0  0  0
 35 69  1  0  0  0  0
 35 74  2  0  0  0  0
 36 59  1  0  0  0  0
 36 64  1  0  0  0  0
 36 75  2  0  0  0  0
 37 58  1  0  0  0  0
 37 68  1  0  0  0  0
 37 76  2  0  0  0  0
 38 60  1  0  0  0  0
 38 70  1  0  0  0  0
 38 77  2  0  0  0  0
 39 65  1  0  0  0  0
 39 71  1  0  0  0  0
 39 78  2  0  0  0  0
 40 43  1  0  0  0  0
 41 50  1  0  0  0  0
 42 64  1  0  0  0  0
 43 45  1  0  0  0  0
 44 46  1  0  0  0  0
 44 47  1  0  0  0  0
 45 49  1  0  0  0  0
 46 51  1  0  0  0  0
 47 65  1  0  0  0  0
 48 51  1  0  0  0  0
 48 65  1  0  0  0  0
 49 69  1  0  0  0  0
 50 64  1  0  0  0  0
 51 63  1  0  0  0  0
 52 60  1  0  0  0  0
 53 61  1  0  0  0  0
 54 61  1  0  0  0  0
 55 61  1  0  0  0  0
 56 72  1  0  0  0  0
 57 71  1  0  0  0  0
 58 80  1  0  0  0  0
 59 61  1  0  0  0  0
 59 70  1  0  0  0  0
 60 72  1  0  0  0  0
 62 63  1  0  0  0  0
M  CHG  1  72   1
M  ISO  4  39 100  58 101  71 100  80 101
M  END
> <Batch ID>
0051

> <Smiles>
CNC(C)C(=O)NC(C(=O)N1Cc2cc([101O:1][101CH2:1]C(=O)Nc3cc(Cl)cc(C[100NH:0][100C:0](=O)N4CCCC(n5nc(-c6ccc(Oc7ccc(F)cc7F)cc6)c(C(N)=O)c5N)C4)c3)ccc2CC1C(=O)NC1CCCc2ccccc21)C(C)(C)C

> <Shape>
0.241

> <Color>
0.080

> <Negative vol penalty>
0.000

$$$$

  -OEChem-04042322373D

 87 95  0     1  0  0  0  0  0999 V2000
  -17.3877  -11.1526   22.8049 C   0  0  0  0  0  0  0  0  0  0  0  0
  -17.7316  -12.3639   22.2134 C   0  0  0  0  0  0  0  0  0  0  0  0
  -21.9728  -27.6602   16.6148 C   0  0  0  0  0  0  0  0  0  0  0  0
  -29.5866  -22.1031   21.3791 C   0  0  0  0  0  0  0  0  0  0  0  0
  -28.1644  -22.3933   19.4478 C   0  0  0  0  0  0  0  0  0  0  0  0
  -18.3389  -10.4384   23.5322 C   0  0  0  0  0  0  0  0  0  0  0  0
  -19.0268  -12.8623   22.3500 C   0  0  0  0  0  0  0  0  0  0  0  0
  -22.1977  -16.0596   18.1993 C   0  0  0  0  0  0  0  0  0  0  0  0
  -21.6098  -26.7702   17.6256 C   0  0  0  0  0  0  0  0  0  0  0  0
  -29.6101  -20.7266   21.1550 C   0  0  0  0  0  0  0  0  0  0  0  0
  -28.1880  -21.0168   19.2236 C   0  0  0  0  0  0  0  0  0  0  0  0
  -22.4281  -17.4258   18.0438 C   0  0  0  0  0  0  0  0  0  0  0  0
  -31.2005  -18.5644   19.0986 C   0  0  0  0  0  0  0  0  0  0  0  0
  -32.4316  -17.9145   19.1849 C   0  0  0  0  0  0  0  0  0  0  0  0
  -22.4828  -28.9167   16.9419 C   0  0  0  0  0  0  0  0  0  0  0  0
  -24.5295  -17.1977   19.2062 C   0  0  0  0  0  0  0  0  0  0  0  0
  -31.5732  -16.5248   20.9651 C   0  0  0  0  0  0  0  0  0  0  0  0
  -28.8637  -22.9365   20.5255 C   0  0  0  0  0  0  0  0  0  0  0  0
  -29.7308  -25.3190   20.2440 C   0  0  0  0  0  0  0  0  0  0  0  0
  -19.6490  -10.9235   23.6696 C   0  0  0  0  0  0  0  0  0  0  0  0
  -23.1280  -15.2528   18.8702 C   0  0  0  0  0  0  0  0  0  0  0  0
  -19.9960  -12.1545   23.0810 C   0  0  0  0  0  0  0  0  0  0  0  0
  -24.3098  -15.8211   19.3667 C   0  0  0  0  0  0  0  0  0  0  0  0
  -21.7567  -27.1365   18.9634 C   0  0  0  0  0  0  0  0  0  0  0  0
  -22.2668  -28.3930   19.2905 C   0  0  0  0  0  0  0  0  0  0  0  0
  -28.9108  -20.1834   20.0772 C   0  0  0  0  0  0  0  0  0  0  0  0
  -23.5928  -17.9956   18.5497 C   0  0  0  0  0  0  0  0  0  0  0  0
  -30.1557  -18.1946   19.9456 C   0  0  0  0  0  0  0  0  0  0  0  0
  -32.6180  -16.8947   20.1181 C   0  0  0  0  0  0  0  0  0  0  0  0
  -30.3420  -17.1748   20.8788 C   0  0  0  0  0  0  0  0  0  0  0  0
  -22.6298  -29.2830   18.2798 C   0  0  0  0  0  0  0  0  0  0  0  0
  -28.8386  -24.3584   20.7569 C   0  0  0  0  0  0  0  0  0  0  0  0
  -29.2807  -26.5124   20.7537 C   0  0  0  0  0  0  0  0  0  0  0  0
  -30.8649  -25.1479   19.3837 C   0  0  0  0  0  0  0  0  0  0  0  0
  -23.0662  -13.4709   21.5017 C   0  0  0  0  0  0  0  0  0  0  0  0
  -26.0337  -12.6066   20.5172 C   0  0  0  0  0  0  0  0  0  0  0  0
  -22.2142  -23.8728   19.4720 C   0  0  0  0  0  0  0  0  0  0  0  0
  -28.8208  -13.3703   18.7019 C   0  0  0  0  0  0  0  0  0  0  0  0
  -23.9181  -28.3656   22.6666 C   0  0  0  0  0  0  0  0  0  0  0  0
  -20.6296  -10.1392   24.5051 C   0  0  0  0  0  0  0  0  0  0  0  0
  -22.8772  -13.7760   19.0062 C   0  0  0  0  0  0  0  0  0  0  0  0
  -25.3496  -14.9948   20.0770 C   0  0  0  0  0  0  0  0  0  0  0  0
  -22.0828  -10.5530   24.2875 C   0  0  0  0  0  0  0  0  0  0  0  0
  -26.9594  -28.3389   24.5176 C   0  0  0  0  0  0  0  0  0  0  0  0
  -22.2146  -12.0725   24.3126 C   0  0  0  0  0  0  0  0  0  0  0  0
  -27.8664  -27.4024   23.7174 C   0  0  0  0  0  0  0  0  0  0  0  0
  -25.5068  -27.8681   24.5009 C   0  0  0  0  0  0  0  0  0  0  0  0
  -25.8519  -26.7041   22.3562 C   0  0  0  0  0  0  0  0  0  0  0  0
  -21.3975  -12.7159   23.1858 C   0  0  1  0  0  0  0  0  0  0  0  0
  -23.6517  -13.1420   20.1576 C   0  0  1  0  0  0  0  0  0  0  0  0
  -27.3173  -27.1682   22.2972 C   0  0  2  0  0  0  0  0  0  0  0  0
  -31.0966  -12.4866   18.1209 C   0  0  0  0  0  0  0  0  0  0  0  0
  -27.0477  -13.4075   23.2812 C   0  0  0  0  0  0  0  0  0  0  0  0
  -29.3717  -13.4147   22.3499 C   0  0  0  0  0  0  0  0  0  0  0  0
  -28.0460  -11.3017   22.3736 C   0  0  0  0  0  0  0  0  0  0  0  0
  -19.8395  -24.5183   18.9935 C   0  0  0  0  0  0  0  0  0  0  0  0
  -28.1712  -13.2662   15.8164 C   0  0  0  0  0  0  0  0  0  0  0  0
  -21.3579  -26.1585   20.0304 C   0  0  0  0  0  0  0  0  0  0  0  0
  -22.4181  -28.7703   20.7313 C   0  0  0  0  0  0  0  0  0  0  0  0
  -21.8697  -22.5105   18.8842 C   0  0  0  0  0  0  0  0  0  0  0  0
  -23.0560  -21.5488   18.8956 C   0  0  0  0  0  0  0  0  0  0  0  0
  -22.6760  -20.1807   18.3477 C   0  0  0  0  0  0  0  0  0  1  0  0
  -27.4304  -13.1330   20.7427 C   0  0  1  0  0  0  0  0  0  0  0  0
  -29.6332  -12.5546   17.7124 C   0  0  2  0  0  0  0  0  0  0  0  0
  -27.9537  -12.8304   22.1752 C   0  0  0  0  0  0  0  0  0  0  0  0
  -27.8933  -24.8951   21.5330 N   0  0  0  0  0  0  0  0  0  0  0  0
  -28.1890  -26.2059   21.5117 N   0  0  0  0  0  0  0  0  0  0  0  0
  -25.0557  -13.5567   20.1904 N   0  0  0  0  0  0  0  0  0  0  0  0
  -25.0468  -27.6663   23.1249 N   0  0  0  0  0  0  0  0  0  0  0  0
  -29.7163  -27.7834   20.6231 N   0  0  0  0  0  0  0  0  0  0  0  0
  -31.1874  -23.8539   18.9527 N   0  0  0  0  0  0  0  0  0  0  0  0
  -22.0905  -12.5871   21.9219 N   0  0  0  0  0  0  0  0  0  0  0  0
  -28.2541  -12.5752   19.6755 N   0  0  0  0  0  0  0  0  0  0  0  0
  -23.5534  -28.1213   21.3483 N   0  0  0  0  0  0  0  0  0  0  0  0
  -21.1787  -24.8133   19.4980 N   0  0  0  0  0  0  0  0  0  0  0  0
  -29.5524  -13.1595   16.3528 N   0  3  0  0  0  0  0  0  0  0  0  0
  -31.5812  -26.1120   19.0216 O   0  0  0  0  0  0  0  0  0  0  0  0
  -23.4707  -14.4529   22.1130 O   0  0  0  0  0  0  0  0  0  0  0  0
  -25.8197  -11.3961   20.6198 O   0  0  0  0  0  0  0  0  0  0  0  0
  -23.3509  -24.1029   19.8930 O   0  0  0  0  0  0  0  0  0  0  0  0
  -28.7039  -14.5911   18.6215 O   0  0  0  0  0  0  0  0  0  0  0  0
  -23.2857  -29.1538   23.3778 O   0  0  0  0  0  0  0  0  0  0  0  0
  -28.9337  -18.8403   19.8581 O   0  0  0  0  0  0  0  0  0  0  0  0
  -23.8198  -19.3290   18.3998 O   0  0  0  0  0  0  0  0  0  1  0  0
  -33.7998  -16.2697   20.1999 F   0  0  0  0  0  0  0  0  0  0  0  0
  -29.3416  -16.8143   21.6943 F   0  0  0  0  0  0  0  0  0  0  0  0
  -23.2648  -30.8471   18.6422 Cl  0  0  0  0  0  0  0  0  0  0  0  0
  1  2  1  0  0  0  0
  1  6  2  0  0  0  0
  2  7  2  0  0  0  0
  3  9  2  0  0  0  0
  3 15  1  0  0  0  0
  4 10  2  0  0  0  0
  4 18  1  0  0  0  0
  5 11  1  0  0  0  0
  5 18  2  0  0  0  0
  6 20  1  0  0  0  0
  7 22  1  0  0  0  0
  8 12  2  0  0  0  0
  8 21  1  0  0  0  0
  9 24  1  0  0  0  0
 10 26  1  0  0  0  0
 11 26  2  0  0  0  0
 12 27  1  0  0  0  0
 13 14  2  0  0  0  0
 13 28  1  0  0  0  0
 14 29  1  0  0  0  0
 15 31  2  0  0  0  0
 16 23  1  0  0  0  0
 16 27  2  0  0  0  0
 17 29  2  0  0  0  0
 17 30  1  0  0  0  0
 18 32  1  0  0  0  0
 19 32  1  0  0  0  0
 19 33  2  0  0  0  0
 19 34  1  0  0  0  0
 20 22  2  0  0  0  0
 20 40  1  0  0  0  0
 21 23  2  0  0  0  0
 21 41  1  0  0  0  0
 22 49  1  0  0  0  0
 23 42  1  0  0  0  0
 24 25  2  0  0  0  0
 24 58  1  0  0  0  0
 25 31  1  0  0  0  0
 25 59  1  0  0  0  0
 26 83  1  0  0  0  0
 27 84  1  0  0  0  0
 28 30  2  0  0  0  0
 28 83  1  0  0  0  0
 29 85  1  0  0  0  0
 30 86  1  0  0  0  0
 31 87  1  0  0  0  0
 32 66  2  0  0  0  0
 33 67  1  0  0  0  0
 33 70  1  0  0  0  0
 34 71  1  0  0  0  0
 34 77  2  0  0  0  0
 35 50  1  0  0  0  0
 35 72  1  0  0  0  0
 35 78  2  0  0  0  0
 36 63  1  0  0  0  0
 36 68  1  0  0  0  0
 36 79  2  0  0  0  0
 37 60  1  0  0  0  0
 37 75  1  0  0  0  0
 37 80  2  0  0  0  0
 38 64  1  0  0  0  0
 38 73  1  0  0  0  0
 38 81  2  0  0  0  0
 39 69  1  0  0  0  0
 39 74  1  0  0  0  0
 39 82  2  0  0  0  0
 40 43  1  0  0  0  0
 41 50  1  0  0  0  0
 42 68  1  0  0  0  0
 43 45  1  0  0  0  0
 44 46  1  0  0  0  0
 44 47  1  0  0  0  0
 45 49  1  0  0  0  0
 46 51  1  0  0  0  0
 47 69  1  0  0  0  0
 48 51  1  0  0  0  0
 48 69  1  0  0  0  0
 49 72  1  0  0  0  0
 50 68  1  0  0  0  0
 51 67  1  0  0  0  0
 52 64  1  0  0  0  0
 53 65  1  0  0  0  0
 54 65  1  0  0  0  0
 55 65  1  0  0  0  0
 56 75  1  0  0  0  0
 57 76  1  0  0  0  0
 58 75  1  0  0  0  0
 59 74  1  0  0  0  0
 60 61  1  0  0  0  0
 61 62  1  0  0  0  0
 62 84  1  0  0  0  0
 63 65  1  0  0  0  0
 63 73  1  0  0  0  0
 64 76  1  0  0  0  0
 66 67  1  0  0  0  0
M  CHG  1  76   1
M  ISO  4  39 100  62 101  74 100  84 101
M  END
> <Batch ID>
0051

> <Smiles>
CNC(C)C(=O)NC(C(=O)N1Cc2cc([101O:1][101CH2:1]CCC(=O)N(C)Cc3cccc(Cl)c3C[100NH:0][100C:0](=O)N3CCCC(n4nc(-c5ccc(Oc6ccc(F)cc6F)cc5)c(C(N)=O)c4N)C3)ccc2CC1C(=O)NC1CCCc2ccccc21)C(C)(C)C

> <Shape>
0.220

> <Color>
0.061

> <Negative vol penalty>
0.000

$$$$

  -OEChem-04042322373D

 86 94  0     1  0  0  0  0  0999 V2000
  -29.9680  -30.4924   12.7209 C   0  0  0  0  0  0  0  0  0  0  0  0
  -31.1064  -30.2967   13.4964 C   0  0  0  0  0  0  0  0  0  0  0  0
  -23.0587   -9.8270   20.0203 C   0  0  0  0  0  0  0  0  0  0  0  0
  -23.7836   -9.9407   22.3222 C   0  0  0  0  0  0  0  0  0  0  0  0
  -28.7345  -30.7022   13.3361 C   0  0  0  0  0  0  0  0  0  0  0  0
  -31.0120  -30.3117   14.8875 C   0  0  0  0  0  0  0  0  0  0  0  0
  -33.0317  -24.6126   18.8031 C   0  0  0  0  0  0  0  0  0  0  0  0
  -32.6727  -17.5094   23.2969 C   0  0  0  0  0  0  0  0  0  0  0  0
  -32.0885  -16.5861   22.4298 C   0  0  0  0  0  0  0  0  0  0  0  0
  -22.2968   -8.6967   20.3160 C   0  0  0  0  0  0  0  0  0  0  0  0
  -23.0216   -8.8104   22.6180 C   0  0  0  0  0  0  0  0  0  0  0  0
  -33.5942  -23.6432   19.6338 C   0  0  0  0  0  0  0  0  0  0  0  0
  -22.8230   -5.3907   20.7822 C   0  0  0  0  0  0  0  0  0  0  0  0
  -22.8913   -4.3144   19.8977 C   0  0  0  0  0  0  0  0  0  0  0  0
  -32.8456  -24.8634   21.5828 C   0  0  0  0  0  0  0  0  0  0  0  0
  -29.9062  -17.4891   22.9386 C   0  0  0  0  0  0  0  0  0  0  0  0
  -20.5147   -4.4902   19.5003 C   0  0  0  0  0  0  0  0  0  0  0  0
  -23.8022  -10.4490   21.0234 C   0  0  0  0  0  0  0  0  0  0  0  0
  -24.1773  -12.9607   20.7822 C   0  0  0  0  0  0  0  0  0  0  0  0
  -28.6234  -30.7102   14.7355 C   0  0  0  0  0  0  0  0  0  0  0  0
  -32.3598  -25.7045   19.3597 C   0  0  0  0  0  0  0  0  0  0  0  0
  -29.7761  -30.5231   15.5220 C   0  0  0  0  0  0  0  0  0  0  0  0
  -32.2694  -25.8312   20.7556 C   0  0  0  0  0  0  0  0  0  0  0  0
  -31.8736  -18.4225   23.9850 C   0  0  0  0  0  0  0  0  0  0  0  0
  -30.4904  -18.4124   23.8058 C   0  0  0  0  0  0  0  0  0  0  0  0
  -30.7053  -16.5760   22.2506 C   0  0  0  0  0  0  0  0  0  0  0  0
  -22.2781   -8.1884   21.6148 C   0  0  0  0  0  0  0  0  0  0  0  0
  -33.5016  -23.7684   21.0201 C   0  0  0  0  0  0  0  0  0  0  0  0
  -21.6005   -6.0167   21.0259 C   0  0  0  0  0  0  0  0  0  0  0  0
  -21.7372   -3.8641   19.2567 C   0  0  0  0  0  0  0  0  0  0  0  0
  -20.4464   -5.5665   20.3849 C   0  0  0  0  0  0  0  0  0  0  0  0
  -24.5899  -11.6162   20.7184 C   0  0  0  0  0  0  0  0  0  0  0  0
  -25.2842  -13.6780   20.3991 C   0  0  0  0  0  0  0  0  0  0  0  0
  -22.9072  -13.5118   21.1545 C   0  0  0  0  0  0  0  0  0  0  0  0
  -30.4354  -28.8687   18.7594 C   0  0  0  0  0  0  0  0  0  0  0  0
  -29.0638  -27.4200   21.0897 C   0  0  0  0  0  0  0  0  0  0  0  0
  -33.6247  -21.1677   23.5447 C   0  0  0  0  0  0  0  0  0  0  0  0
  -27.6030  -25.3105   23.3376 C   0  0  0  0  0  0  0  0  0  0  0  0
  -30.7597  -14.6670   20.6078 C   0  0  0  0  0  0  0  0  0  0  0  0
  -27.2767  -30.9880   15.3552 C   0  0  0  0  0  0  0  0  0  0  0  0
  -31.7921  -26.8045   18.5044 C   0  0  0  0  0  0  0  0  0  0  0  0
  -31.5673  -27.0404   21.3103 C   0  0  0  0  0  0  0  0  0  0  0  0
  -27.1982  -30.6161   16.8336 C   0  0  0  0  0  0  0  0  0  0  0  0
  -29.6515  -12.1501   18.3463 C   0  0  0  0  0  0  0  0  0  0  0  0
  -28.4224  -31.1359   17.5806 C   0  0  0  0  0  0  0  0  0  0  0  0
  -28.2019  -11.8974   18.7671 C   0  0  0  0  0  0  0  0  0  0  0  0
  -30.5509  -12.4284   19.5493 C   0  0  0  0  0  0  0  0  0  0  0  0
  -28.6324  -13.2439   20.8620 C   0  0  0  0  0  0  0  0  0  0  0  0
  -29.7101  -30.5079   17.0338 C   0  0  1  0  0  0  0  0  0  0  0  0
  -30.4935  -27.4028   19.0742 C   0  0  1  0  0  0  0  0  0  0  0  0
  -27.6755  -13.0229   19.6791 C   0  0  2  0  0  0  0  0  0  0  0  0
  -25.6433  -25.1428   24.8961 C   0  0  0  0  0  0  0  0  0  0  0  0
  -29.1481  -18.8319   25.8750 C   0  0  0  0  0  0  0  0  0  0  0  0
  -30.4673  -29.2890   23.0496 C   0  0  0  0  0  0  0  0  0  0  0  0
  -29.0208  -28.3543   24.8668 C   0  0  0  0  0  0  0  0  0  0  0  0
  -27.9834  -29.5604   22.9454 C   0  0  0  0  0  0  0  0  0  0  0  0
  -26.5235  -22.9518   21.9127 C   0  0  0  0  0  0  0  0  0  0  0  0
  -32.5252  -19.4061   24.9135 C   0  0  0  0  0  0  0  0  0  0  0  0
  -33.4232  -22.5970   23.0887 C   0  0  0  0  0  0  0  0  0  1  0  0
  -28.9501  -27.2525   22.5838 C   0  0  1  0  0  0  0  0  0  0  0  0
  -26.1661  -24.8479   23.4988 C   0  0  2  0  0  0  0  0  0  0  0  0
  -29.6152  -19.3818   24.5302 C   0  0  0  0  0  0  0  0  0  0  0  0
  -29.1218  -28.5969   23.3457 C   0  0  0  0  0  0  0  0  0  0  0  0
  -25.8597  -11.4846   20.3256 N   0  0  0  0  0  0  0  0  0  0  0  0
  -26.2546  -12.7556   20.1390 N   0  0  0  0  0  0  0  0  0  0  0  0
  -30.3454  -27.3109   20.5366 N   0  0  0  0  0  0  0  0  0  0  0  0
  -29.9916  -13.5086   20.3649 N   0  0  0  0  0  0  0  0  0  0  0  0
  -25.5123  -15.0016   20.2627 N   0  0  0  0  0  0  0  0  0  0  0  0
  -21.8789  -12.6327   21.5209 N   0  0  0  0  0  0  0  0  0  0  0  0
  -30.1116  -15.6396   21.3683 N   0  0  0  0  0  0  0  0  0  0  0  0
  -29.8665  -29.1589   17.5341 N   0  0  0  0  0  0  0  0  0  0  0  0
  -32.5794  -20.7327   24.3443 N   0  0  0  0  0  0  0  0  0  0  0  0
  -27.6737  -26.5882   22.8242 N   0  0  0  0  0  0  0  0  0  0  0  0
  -26.0643  -23.3806   23.2589 N   0  3  0  0  0  0  0  0  0  0  0  0
  -22.6855  -14.7464   21.1462 O   0  0  0  0  0  0  0  0  0  0  0  0
  -30.8729  -29.6783   19.5687 O   0  0  0  0  0  0  0  0  0  0  0  0
  -28.0462  -27.6473   20.4292 O   0  0  0  0  0  0  0  0  0  0  0  0
  -34.6068  -20.5017   23.2286 O   0  0  0  0  0  0  0  0  0  0  0  0
  -28.5662  -24.6098   23.6406 O   0  0  0  0  0  0  0  0  0  0  0  0
  -31.8978  -14.7987   20.1502 O   0  0  0  0  0  0  0  0  0  0  0  0
  -21.5345   -7.0856   21.9038 O   0  0  0  0  0  0  0  0  0  0  0  0
  -34.0490  -22.8161   21.8251 O   0  0  0  0  0  0  0  0  0  1  0  0
  -21.8032   -2.8315   18.4061 F   0  0  0  0  0  0  0  0  0  0  0  0
  -19.2693   -6.1646   20.6141 F   0  0  0  0  0  0  0  0  0  0  0  0
  -28.4915  -19.7202   23.8214 F   0  0  0  0  0  0  0  0  0  0  0  0
  -30.2351  -20.5792   24.7782 F   0  0  0  0  0  0  0  0  0  0  0  0
  1  2  1  0  0  0  0
  1  5  2  0  0  0  0
  2  6  2  0  0  0  0
  3 10  2  0  0  0  0
  3 18  1  0  0  0  0
  4 11  1  0  0  0  0
  4 18  2  0  0  0  0
  5 20  1  0  0  0  0
  6 22  1  0  0  0  0
  7 12  2  0  0  0  0
  7 21  1  0  0  0  0
  8  9  2  0  0  0  0
  8 24  1  0  0  0  0
  9 26  1  0  0  0  0
 10 27  1  0  0  0  0
 11 27  2  0  0  0  0
 12 28  1  0  0  0  0
 13 14  2  0  0  0  0
 13 29  1  0  0  0  0
 14 30  1  0  0  0  0
 15 23  1  0  0  0  0
 15 28  2  0  0  0  0
 16 25  1  0  0  0  0
 16 26  2  0  0  0  0
 17 30  2  0  0  0  0
 17 31  1  0  0  0  0
 18 32  1  0  0  0  0
 19 32  1  0  0  0  0
 19 33  2  0  0  0  0
 19 34  1  0  0  0  0
 20 22  2  0  0  0  0
 20 40  1  0  0  0  0
 21 23  2  0  0  0  0
 21 41  1  0  0  0  0
 22 49  1  0  0  0  0
 23 42  1  0  0  0  0
 24 25  2  0  0  0  0
 24 58  1  0  0  0  0
 25 62  1  0  0  0  0
 26 70  1  0  0  0  0
 27 81  1  0  0  0  0
 28 82  1  0  0  0  0
 29 31  2  0  0  0  0
 29 81  1  0  0  0  0
 30 83  1  0  0  0  0
 31 84  1  0  0  0  0
 32 64  2  0  0  0  0
 33 65  1  0  0  0  0
 33 68  1  0  0  0  0
 34 69  1  0  0  0  0
 34 75  2  0  0  0  0
 35 50  1  0  0  0  0
 35 71  1  0  0  0  0
 35 76  2  0  0  0  0
 36 60  1  0  0  0  0
 36 66  1  0  0  0  0
 36 77  2  0  0  0  0
 37 59  1  0  0  0  0
 37 72  1  0  0  0  0
 37 78  2  0  0  0  0
 38 61  1  0  0  0  0
 38 73  1  0  0  0  0
 38 79  2  0  0  0  0
 39 67  1  0  0  0  0
 39 70  1  0  0  0  0
 39 80  2  0  0  0  0
 40 43  1  0  0  0  0
 41 50  1  0  0  0  0
 42 66  1  0  0  0  0
 43 45  1  0  0  0  0
 44 46  1  0  0  0  0
 44 47  1  0  0  0  0
 45 49  1  0  0  0  0
 46 51  1  0  0  0  0
 47 67  1  0  0  0  0
 48 51  1  0  0  0  0
 48 67  1  0  0  0  0
 49 71  1  0  0  0  0
 50 66  1  0  0  0  0
 51 65  1  0  0  0  0
 52 61  1  0  0  0  0
 53 62  1  0  0  0  0
 54 63  1  0  0  0  0
 55 63  1  0  0  0  0
 56 63  1  0  0  0  0
 57 74  1  0  0  0  0
 58 72  1  0  0  0  0
 59 82  1  0  0  0  0
 60 63  1  0  0  0  0
 60 73  1  0  0  0  0
 61 74  1  0  0  0  0
 62 85  1  0  0  0  0
 62 86  1  0  0  0  0
 64 65  1  0  0  0  0
M  CHG  1  74   1
M  ISO  4  39 100  59 101  70 100  82 101
M  END
> <Batch ID>
0051

> <Smiles>
CNC(C)C(=O)NC(C(=O)N1Cc2cc([101O:1][101CH2:1]C(=O)NCc3ccc([100NH:0][100C:0](=O)N4CCCC(n5nc(-c6ccc(Oc7ccc(F)cc7F)cc6)c(C(N)=O)c5N)C4)cc3C(C)(F)F)ccc2CC1C(=O)NC1CCCc2ccccc21)C(C)(C)C

> <Shape>
0.199

> <Color>
0.196

> <Negative vol penalty>
0.000

$$$$

  -OEChem-04042322373D

 84 92  0     1  0  0  0  0  0999 V2000
  -28.7847  -13.6154   18.6144 C   0  0  0  0  0  0  0  0  0  0  0  0
  -28.1390  -14.8218   18.3634 C   0  0  0  0  0  0  0  0  0  0  0  0
  -30.2981  -23.9694   20.1096 C   0  0  0  0  0  0  0  0  0  0  0  0
  -28.6849  -23.5821   18.3532 C   0  0  0  0  0  0  0  0  0  0  0  0
  -28.1456  -12.6261   19.3606 C   0  0  0  0  0  0  0  0  0  0  0  0
  -26.8533  -15.0392   18.8575 C   0  0  0  0  0  0  0  0  0  0  0  0
  -24.5140  -20.3458   20.8257 C   0  0  0  0  0  0  0  0  0  0  0  0
  -19.6858  -28.4731   23.4485 C   0  0  0  0  0  0  0  0  0  0  0  0
  -30.6901  -22.6324   20.0444 C   0  0  0  0  0  0  0  0  0  0  0  0
  -29.0770  -22.2451   18.2880 C   0  0  0  0  0  0  0  0  0  0  0  0
  -23.6943  -21.2936   20.2145 C   0  0  0  0  0  0  0  0  0  0  0  0
  -31.8648  -19.2342   20.5884 C   0  0  0  0  0  0  0  0  0  0  0  0
  -32.0296  -18.5457   21.7902 C   0  0  0  0  0  0  0  0  0  0  0  0
  -18.7813  -27.5080   23.8912 C   0  0  0  0  0  0  0  0  0  0  0  0
  -21.7621  -20.2722   21.2357 C   0  0  0  0  0  0  0  0  0  0  0  0
  -19.5585  -27.5668   21.2126 C   0  0  0  0  0  0  0  0  0  0  0  0
  -29.7134  -18.9548   22.3422 C   0  0  0  0  0  0  0  0  0  0  0  0
  -29.2955  -24.4443   19.2640 C   0  0  0  0  0  0  0  0  0  0  0  0
  -29.4239  -26.9047   18.6024 C   0  0  0  0  0  0  0  0  0  0  0  0
  -26.8553  -12.8351   19.8723 C   0  0  0  0  0  0  0  0  0  0  0  0
  -23.9619  -19.3458   21.6390 C   0  0  0  0  0  0  0  0  0  0  0  0
  -26.1958  -14.0512   19.6101 C   0  0  0  0  0  0  0  0  0  0  0  0
  -22.5773  -19.3144   21.8581 C   0  0  0  0  0  0  0  0  0  0  0  0
  -20.0744  -28.5026   22.1092 C   0  0  0  0  0  0  0  0  0  0  0  0
  -18.6540  -26.6017   21.6553 C   0  0  0  0  0  0  0  0  0  0  0  0
  -30.0796  -21.7702   19.1336 C   0  0  0  0  0  0  0  0  0  0  0  0
  -22.3178  -21.2551   20.4172 C   0  0  0  0  0  0  0  0  0  0  0  0
  -30.6243  -19.7830   20.2635 C   0  0  0  0  0  0  0  0  0  0  0  0
  -30.9539  -18.4060   22.6672 C   0  0  0  0  0  0  0  0  0  0  0  0
  -29.5486  -19.6433   21.1404 C   0  0  0  0  0  0  0  0  0  0  0  0
  -18.2654  -26.5723   22.9946 C   0  0  0  0  0  0  0  0  0  0  0  0
  -28.8897  -25.8252   19.3313 C   0  0  0  0  0  0  0  0  0  0  0  0
  -28.7019  -27.9944   19.0241 C   0  0  0  0  0  0  0  0  0  0  0  0
  -30.4783  -26.9209   17.6310 C   0  0  0  0  0  0  0  0  0  0  0  0
  -23.8574  -16.1707   21.5316 C   0  0  0  0  0  0  0  0  0  0  0  0
  -22.4868  -16.5057   24.4526 C   0  0  0  0  0  0  0  0  0  0  0  0
  -19.9066  -23.9520   20.1698 C   0  0  0  0  0  0  0  0  0  0  0  0
  -20.7446  -18.4769   26.6265 C   0  0  0  0  0  0  0  0  0  0  0  0
  -23.2557  -28.4825   21.2503 C   0  0  0  0  0  0  0  0  0  0  0  0
  -26.1863  -11.7180   20.6333 C   0  0  0  0  0  0  0  0  0  0  0  0
  -24.8625  -18.3469   22.3126 C   0  0  0  0  0  0  0  0  0  0  0  0
  -21.9371  -18.2736   22.7386 C   0  0  0  0  0  0  0  0  0  0  0  0
  -24.9713  -12.1716   21.4383 C   0  0  0  0  0  0  0  0  0  0  0  0
  -26.3002  -29.6560   22.8160 C   0  0  0  0  0  0  0  0  0  0  0  0
  -24.0716  -13.0644   20.5896 C   0  0  0  0  0  0  0  0  0  0  0  0
  -27.3637  -28.8989   22.0185 C   0  0  0  0  0  0  0  0  0  0  0  0
  -25.0636  -28.7925   23.0470 C   0  0  0  0  0  0  0  0  0  0  0  0
  -25.5131  -27.4896   21.0040 C   0  0  0  0  0  0  0  0  0  0  0  0
  -24.8107  -14.3340   20.1501 C   0  0  1  0  0  0  0  0  0  0  0  0
  -24.1404  -17.0624   22.7074 C   0  0  1  0  0  0  0  0  0  0  0  0
  -26.7797  -28.3166   20.7177 C   0  0  2  0  0  0  0  0  0  0  0  0
  -19.7372  -18.4623   28.9248 C   0  0  0  0  0  0  0  0  0  0  0  0
  -20.1780  -14.7948   23.4270 C   0  0  0  0  0  0  0  0  0  0  0  0
  -18.8143  -15.5952   25.3682 C   0  0  0  0  0  0  0  0  0  0  0  0
  -20.8974  -14.2819   25.7666 C   0  0  0  0  0  0  0  0  0  0  0  0
  -22.4677  -20.7102   27.5222 C   0  0  0  0  0  0  0  0  0  0  0  0
  -21.0419  -29.5347   21.6362 C   0  0  0  0  0  0  0  0  0  0  0  0
  -18.1214  -25.6131   20.6586 C   0  0  0  0  0  0  0  0  0  0  0  0
  -20.3142  -22.5332   20.5052 C   0  0  0  0  0  0  0  0  0  1  0  0
  -21.0739  -16.6708   24.9579 C   0  0  1  0  0  0  0  0  0  0  0  0
  -20.9657  -18.7981   28.0936 C   0  0  2  0  0  0  0  0  0  0  0  0
  -20.2525  -15.3542   24.8617 C   0  0  0  0  0  0  0  0  0  0  0  0
  -27.9046  -26.1956   20.1538 N   0  0  0  0  0  0  0  0  0  0  0  0
  -27.8141  -27.5199   19.9443 N   0  0  0  0  0  0  0  0  0  0  0  0
  -22.8591  -17.3150   23.3698 N   0  0  0  0  0  0  0  0  0  0  0  0
  -24.5465  -28.2850   21.7683 N   0  0  0  0  0  0  0  0  0  0  0  0
  -28.7464  -29.3026   18.6938 N   0  0  0  0  0  0  0  0  0  0  0  0
  -31.1139  -25.7125   17.3147 N   0  0  0  0  0  0  0  0  0  0  0  0
  -24.8761  -15.2838   21.2401 N   0  0  0  0  0  0  0  0  0  0  0  0
  -18.7307  -24.3120   20.8092 N   0  0  0  0  0  0  0  0  0  0  0  0
  -21.1841  -17.2089   26.3095 N   0  0  0  0  0  0  0  0  0  0  0  0
  -22.3993  -29.2411   22.0389 N   0  0  0  0  0  0  0  0  0  0  0  0
  -21.2684  -20.2470   28.2667 N   0  3  0  0  0  0  0  0  0  0  0  0
  -30.8569  -27.9784   17.0725 O   0  0  0  0  0  0  0  0  0  0  0  0
  -22.7929  -16.2783   20.9341 O   0  0  0  0  0  0  0  0  0  0  0  0
  -23.2349  -15.6938   25.0029 O   0  0  0  0  0  0  0  0  0  0  0  0
  -20.5595  -24.6706   19.4179 O   0  0  0  0  0  0  0  0  0  0  0  0
  -20.2300  -19.2699   25.8411 O   0  0  0  0  0  0  0  0  0  0  0  0
  -22.8944  -28.0213   20.1622 O   0  0  0  0  0  0  0  0  0  0  0  0
  -30.4620  -20.4655   19.0695 O   0  0  0  0  0  0  0  0  0  0  0  0
  -21.5154  -22.1787   19.8213 O   0  0  0  0  0  0  0  0  0  1  0  0
  -31.1120  -17.7436   23.8206 F   0  0  0  0  0  0  0  0  0  0  0  0
  -28.3541  -20.1674   20.8331 F   0  0  0  0  0  0  0  0  0  0  0  0
  -17.1483  -25.3929   23.5779 Cl  0  0  0  0  0  0  0  0  0  0  0  0
  1  2  1  0  0  0  0
  1  5  2  0  0  0  0
  2  6  2  0  0  0  0
  3  9  2  0  0  0  0
  3 18  1  0  0  0  0
  4 10  1  0  0  0  0
  4 18  2  0  0  0  0
  5 20  1  0  0  0  0
  6 22  1  0  0  0  0
  7 11  2  0  0  0  0
  7 21  1  0  0  0  0
  8 14  2  0  0  0  0
  8 24  1  0  0  0  0
  9 26  1  0  0  0  0
 10 26  2  0  0  0  0
 11 27  1  0  0  0  0
 12 13  2  0  0  0  0
 12 28  1  0  0  0  0
 13 29  1  0  0  0  0
 14 31  1  0  0  0  0
 15 23  1  0  0  0  0
 15 27  2  0  0  0  0
 16 24  2  0  0  0  0
 16 25  1  0  0  0  0
 17 29  2  0  0  0  0
 17 30  1  0  0  0  0
 18 32  1  0  0  0  0
 19 32  1  0  0  0  0
 19 33  2  0  0  0  0
 19 34  1  0  0  0  0
 20 22  2  0  0  0  0
 20 40  1  0  0  0  0
 21 23  2  0  0  0  0
 21 41  1  0  0  0  0
 22 49  1  0  0  0  0
 23 42  1  0  0  0  0
 24 57  1  0  0  0  0
 25 31  2  0  0  0  0
 25 58  1  0  0  0  0
 26 80  1  0  0  0  0
 27 81  1  0  0  0  0
 28 30  2  0  0  0  0
 28 80  1  0  0  0  0
 29 82  1  0  0  0  0
 30 83  1  0  0  0  0
 31 84  1  0  0  0  0
 32 63  2  0  0  0  0
 33 64  1  0  0  0  0
 33 67  1  0  0  0  0
 34 68  1  0  0  0  0
 34 74  2  0  0  0  0
 35 50  1  0  0  0  0
 35 69  1  0  0  0  0
 35 75  2  0  0  0  0
 36 60  1  0  0  0  0
 36 65  1  0  0  0  0
 36 76  2  0  0  0  0
 37 59  1  0  0  0  0
 37 70  1  0  0  0  0
 37 77  2  0  0  0  0
 38 61  1  0  0  0  0
 38 71  1  0  0  0  0
 38 78  2  0  0  0  0
 39 66  1  0  0  0  0
 39 72  1  0  0  0  0
 39 79  2  0  0  0  0
 40 43  1  0  0  0  0
 41 50  1  0  0  0  0
 42 65  1  0  0  0  0
 43 45  1  0  0  0  0
 44 46  1  0  0  0  0
 44 47  1  0  0  0  0
 45 49  1  0  0  0  0
 46 51  1  0  0  0  0
 47 66  1  0  0  0  0
 48 51  1  0  0  0  0
 48 66  1  0  0  0  0
 49 69  1  0  0  0  0
 50 65  1  0  0  0  0
 51 64  1  0  0  0  0
 52 61  1  0  0  0  0
 53 62  1  0  0  0  0
 54 62  1  0  0  0  0
 55 62  1  0  0  0  0
 56 73  1  0  0  0  0
 57 72  1  0  0  0  0
 58 70  1  0  0  0  0
 59 81  1  0  0  0  0
 60 62  1  0  0  0  0
 60 71  1  0  0  0  0
 61 73  1  0  0  0  0
 63 64  1  0  0  0  0
M  CHG  1  73   1
M  ISO  4  39 100  59 101  72 100  81 101
M  END
> <Batch ID>
0051

> <Smiles>
CNC(C)C(=O)NC(C(=O)N1Cc2cc([101O:1][101CH2:1]C(=O)NCc3cc(C[100NH:0][100C:0](=O)N4CCCC(n5nc(-c6ccc(Oc7ccc(F)cc7F)cc6)c(C(N)=O)c5N)C4)ccc3Cl)ccc2CC1C(=O)NC1CCCc2ccccc21)C(C)(C)C

> <Shape>
0.208

> <Color>
0.061

> <Negative vol penalty>
0.000

$$$$

  -OEChem-04042322373D

 94103  0     1  0  0  0  0  0999 V2000
  -22.2612  -31.7199   26.7808 C   0  0  0  0  0  0  0  0  0  0  0  0
  -23.2602  -31.2988   25.9089 C   0  0  0  0  0  0  0  0  0  0  0  0
  -26.8011  -22.7749   20.6381 C   0  0  0  0  0  0  0  0  0  0  0  0
  -32.5643  -17.6393   23.1985 C   0  0  0  0  0  0  0  0  0  0  0  0
  -23.0967   -9.7278   20.0604 C   0  0  0  0  0  0  0  0  0  0  0  0
  -23.7764   -9.9393   22.3692 C   0  0  0  0  0  0  0  0  0  0  0  0
  -27.4653  -21.8762   21.4728 C   0  0  0  0  0  0  0  0  0  0  0  0
  -31.7590  -18.5752   23.8475 C   0  0  0  0  0  0  0  0  0  0  0  0
  -21.8768  -33.0599   26.8035 C   0  0  0  0  0  0  0  0  0  0  0  0
  -23.8744  -32.2173   25.0583 C   0  0  0  0  0  0  0  0  0  0  0  0
  -28.9095  -31.6893   24.9395 C   0  0  0  0  0  0  0  0  0  0  0  0
  -27.4342  -23.9505   20.2346 C   0  0  0  0  0  0  0  0  0  0  0  0
  -31.9879  -16.6851   22.3601 C   0  0  0  0  0  0  0  0  0  0  0  0
  -22.3450   -8.5986   20.3851 C   0  0  0  0  0  0  0  0  0  0  0  0
  -23.0246   -8.8101   22.6939 C   0  0  0  0  0  0  0  0  0  0  0  0
  -29.4223  -30.6454   24.1707 C   0  0  0  0  0  0  0  0  0  0  0  0
  -19.7777   -8.0575   23.2523 C   0  0  0  0  0  0  0  0  0  0  0  0
  -18.9805   -8.1183   24.3952 C   0  0  0  0  0  0  0  0  0  0  0  0
  -29.9143  -32.2026   22.3953 C   0  0  0  0  0  0  0  0  0  0  0  0
  -20.1961   -6.2574   25.3421 C   0  0  0  0  0  0  0  0  0  0  0  0
  -23.8125  -10.3981   21.0525 C   0  0  0  0  0  0  0  0  0  0  0  0
  -28.7625  -22.1532   21.9042 C   0  0  0  0  0  0  0  0  0  0  0  0
  -30.3772  -18.5569   23.6581 C   0  0  0  0  0  0  0  0  0  0  0  0
  -24.1574  -12.9040   20.7223 C   0  0  0  0  0  0  0  0  0  0  0  0
  -22.4933  -33.9971   25.9597 C   0  0  0  0  0  0  0  0  0  0  0  0
  -28.8852  -32.9981   24.4368 C   0  0  0  0  0  0  0  0  0  0  0  0
  -23.4969  -33.5708   25.0688 C   0  0  0  0  0  0  0  0  0  0  0  0
  -29.4030  -33.2618   23.1607 C   0  0  0  0  0  0  0  0  0  0  0  0
  -28.7314  -24.2275   20.6660 C   0  0  0  0  0  0  0  0  0  0  0  0
  -29.3956  -23.3289   21.5008 C   0  0  0  0  0  0  0  0  0  0  0  0
  -29.8007  -17.6027   22.8198 C   0  0  0  0  0  0  0  0  0  0  0  0
  -30.6060  -16.6668   22.1707 C   0  0  0  0  0  0  0  0  0  0  0  0
  -22.3089   -8.1398   21.7019 C   0  0  0  0  0  0  0  0  0  0  0  0
  -29.9221  -30.9015   22.8972 C   0  0  0  0  0  0  0  0  0  0  0  0
  -20.7841   -7.0967   23.1542 C   0  0  0  0  0  0  0  0  0  0  0  0
  -19.1897   -7.2183   25.4402 C   0  0  0  0  0  0  0  0  0  0  0  0
  -20.9933   -6.1967   24.1991 C   0  0  0  0  0  0  0  0  0  0  0  0
  -24.5897  -11.5643   20.7176 C   0  0  0  0  0  0  0  0  0  0  0  0
  -25.2613  -13.6223   20.3324 C   0  0  0  0  0  0  0  0  0  0  0  0
  -29.4313  -21.1950   22.7746 C   0  0  0  0  0  0  0  0  0  0  0  0
  -29.5450  -19.5696   24.3641 C   0  0  0  0  0  0  0  0  0  0  0  0
  -22.8730  -13.4504   21.0499 C   0  0  0  0  0  0  0  0  0  0  0  0
  -26.5985  -35.1032   23.7709 C   0  0  0  0  0  0  0  0  0  0  0  0
  -29.1143  -37.0751   23.2189 C   0  0  0  0  0  0  0  0  0  0  0  0
  -29.9500  -27.7612   21.0845 C   0  0  0  0  0  0  0  0  0  0  0  0
  -32.4135  -37.4058   22.4108 C   0  0  0  0  0  0  0  0  0  0  0  0
  -30.7178  -14.6977   20.6034 C   0  0  0  0  0  0  0  0  0  0  0  0
  -22.0111  -35.4259   25.9866 C   0  0  0  0  0  0  0  0  0  0  0  0
  -28.3533  -34.1175   25.2892 C   0  0  0  0  0  0  0  0  0  0  0  0
  -29.4185  -34.6526   22.5830 C   0  0  0  0  0  0  0  0  0  0  0  0
  -22.9724  -36.4058   25.3188 C   0  0  0  0  0  0  0  0  0  0  0  0
  -29.6872  -12.0810   18.4199 C   0  0  0  0  0  0  0  0  0  0  0  0
  -23.4414  -35.8606   23.9736 C   0  0  0  0  0  0  0  0  0  0  0  0
  -28.2336  -11.8235   18.8234 C   0  0  0  0  0  0  0  0  0  0  0  0
  -30.5599  -12.4178   19.6277 C   0  0  0  0  0  0  0  0  0  0  0  0
  -28.6058  -13.2546   20.8729 C   0  0  0  0  0  0  0  0  0  0  0  0
  -24.2041  -34.5418   24.1485 C   0  0  1  0  0  0  0  0  0  0  0  0
  -27.9066  -35.3280   24.4752 C   0  0  1  0  0  0  0  0  0  0  0  0
  -27.6746  -12.9750   19.6819 C   0  0  2  0  0  0  0  0  0  0  0  0
  -30.7874  -23.6290   21.9613 C   0  0  0  0  0  0  0  0  0  0  0  0
  -28.3173  -17.5839   22.6177 C   0  0  0  0  0  0  0  0  0  0  0  0
  -34.1756  -39.1439   21.9969 C   0  0  0  0  0  0  0  0  0  0  0  0
  -27.9065  -37.6427   20.4749 C   0  0  0  0  0  0  0  0  0  0  0  0
  -30.1178  -38.5844   19.7736 C   0  0  0  0  0  0  0  0  0  0  0  0
  -28.8454  -39.6486   21.6367 C   0  0  0  0  0  0  0  0  0  0  0  0
  -34.0759  -36.4210   24.6525 C   0  0  0  0  0  0  0  0  0  0  0  0
  -29.3909  -25.4989   20.2156 C   0  0  0  0  0  0  0  0  0  0  0  0
  -29.8623  -28.5879   22.3495 C   0  0  0  0  0  0  0  0  0  1  0  0
  -29.9640  -37.4135   22.0178 C   0  0  1  0  0  0  0  0  0  0  0  0
  -33.5235  -38.2367   23.0287 C   0  0  2  0  0  0  0  0  0  0  0  0
  -29.2065  -38.2957   20.9856 C   0  0  0  0  0  0  0  0  0  0  0  0
  -25.8683  -11.4362   20.3534 N   0  0  0  0  0  0  0  0  0  0  0  0
  -28.7849  -20.4311   23.6102 N   0  0  0  0  0  0  0  0  0  0  0  0
  -26.2491  -12.7048   20.1256 N   0  0  0  0  0  0  0  0  0  0  0  0
  -28.8816  -35.7124   23.4526 N   0  0  0  0  0  0  0  0  0  0  0  0
  -29.9704  -13.5200   20.3909 N   0  0  0  0  0  0  0  0  0  0  0  0
  -25.4737  -14.9429   20.1497 N   0  0  0  0  0  0  0  0  0  0  0  0
  -21.8503  -12.5711   21.4307 N   0  0  0  0  0  0  0  0  0  0  0  0
  -30.0421  -15.6890   21.3142 N   0  0  0  0  0  0  0  0  0  0  0  0
  -25.5501  -34.7946   24.6165 N   0  0  0  0  0  0  0  0  0  0  0  0
  -29.4281  -26.4901   21.2660 N   0  0  0  0  0  0  0  0  0  0  0  0
  -31.1849  -38.0186   22.5390 N   0  0  0  0  0  0  0  0  0  0  0  0
  -29.4823  -19.6400   25.6468 N   0  3  0  0  0  0  0  0  0  0  0  0
  -34.5736  -37.3508   23.6061 N   0  3  0  0  0  0  0  0  0  0  0  0
  -22.6345  -14.6805   20.9903 O   0  0  0  0  0  0  0  0  0  0  0  0
  -26.5442  -35.2038   22.5508 O   0  0  0  0  0  0  0  0  0  0  0  0
  -28.6792  -37.9860   23.9278 O   0  0  0  0  0  0  0  0  0  0  0  0
  -30.4320  -28.1929   20.0408 O   0  0  0  0  0  0  0  0  0  0  0  0
  -32.6164  -36.3232   21.8654 O   0  0  0  0  0  0  0  0  0  0  0  0
  -31.8624  -14.8284   20.1621 O   0  0  0  0  0  0  0  0  0  0  0  0
  -21.5752   -7.0381   22.0191 O   0  0  0  0  0  0  0  0  0  0  0  0
  -30.4226  -29.8843   22.1444 O   0  0  0  0  0  0  0  0  0  1  0  0
  -18.4251   -7.2778   26.5383 F   0  0  0  0  0  0  0  0  0  0  0  0
  -21.9594   -5.2721   24.1111 F   0  0  0  0  0  0  0  0  0  0  0  0
  1  2  1  0  0  0  0
  1  9  2  0  0  0  0
  2 10  2  0  0  0  0
  3  7  1  0  0  0  0
  3 12  2  0  0  0  0
  4  8  2  0  0  0  0
  4 13  1  0  0  0  0
  5 14  2  0  0  0  0
  5 21  1  0  0  0  0
  6 15  1  0  0  0  0
  6 21  2  0  0  0  0
  7 22  2  0  0  0  0
  8 23  1  0  0  0  0
  9 25  1  0  0  0  0
 10 27  1  0  0  0  0
 11 16  2  0  0  0  0
 11 26  1  0  0  0  0
 12 29  1  0  0  0  0
 13 32  2  0  0  0  0
 14 33  1  0  0  0  0
 15 33  2  0  0  0  0
 16 34  1  0  0  0  0
 17 18  2  0  0  0  0
 17 35  1  0  0  0  0
 18 36  1  0  0  0  0
 19 28  1  0  0  0  0
 19 34  2  0  0  0  0
 20 36  2  0  0  0  0
 20 37  1  0  0  0  0
 21 38  1  0  0  0  0
 22 30  1  0  0  0  0
 22 40  1  0  0  0  0
 23 31  2  0  0  0  0
 23 41  1  0  0  0  0
 24 38  1  0  0  0  0
 24 39  2  0  0  0  0
 24 42  1  0  0  0  0
 25 27  2  0  0  0  0
 25 48  1  0  0  0  0
 26 28  2  0  0  0  0
 26 49  1  0  0  0  0
 27 57  1  0  0  0  0
 28 50  1  0  0  0  0
 29 30  2  0  0  0  0
 29 67  1  0  0  0  0
 30 60  1  0  0  0  0
 31 32  1  0  0  0  0
 31 61  1  0  0  0  0
 32 79  1  0  0  0  0
 33 91  1  0  0  0  0
 34 92  1  0  0  0  0
 35 37  2  0  0  0  0
 35 91  1  0  0  0  0
 36 93  1  0  0  0  0
 37 94  1  0  0  0  0
 38 72  2  0  0  0  0
 39 74  1  0  0  0  0
 39 77  1  0  0  0  0
 40 73  2  0  0  0  0
 41 73  1  0  0  0  0
 41 83  2  0  0  0  0
 42 78  1  0  0  0  0
 42 85  2  0  0  0  0
 43 58  1  0  0  0  0
 43 80  1  0  0  0  0
 43 86  2  0  0  0  0
 44 69  1  0  0  0  0
 44 75  1  0  0  0  0
 44 87  2  0  0  0  0
 45 68  1  0  0  0  0
 45 81  1  0  0  0  0
 45 88  2  0  0  0  0
 46 70  1  0  0  0  0
 46 82  1  0  0  0  0
 46 89  2  0  0  0  0
 47 76  1  0  0  0  0
 47 79  1  0  0  0  0
 47 90  2  0  0  0  0
 48 51  1  0  0  0  0
 49 58  1  0  0  0  0
 50 75  1  0  0  0  0
 51 53  1  0  0  0  0
 52 54  1  0  0  0  0
 52 55  1  0  0  0  0
 53 57  1  0  0  0  0
 54 59  1  0  0  0  0
 55 76  1  0  0  0  0
 56 59  1  0  0  0  0
 56 76  1  0  0  0  0
 57 80  1  0  0  0  0
 58 75  1  0  0  0  0
 59 74  1  0  0  0  0
 62 70  1  0  0  0  0
 63 71  1  0  0  0  0
 64 71  1  0  0  0  0
 65 71  1  0  0  0  0
 66 84  1  0  0  0  0
 67 81  1  0  0  0  0
 68 92  1  0  0  0  0
 69 71  1  0  0  0  0
 69 82  1  0  0  0  0
 70 84  1  0  0  0  0
 72 74  1  0  0  0  0
M  CHG  2  83   1  84   1
M  ISO  4  47 100  68 101  79 100  92 101
M  END
> <Batch ID>
0051

> <Smiles>
CNC(C)C(=O)NC(C(=O)N1Cc2cc([101O:1][101CH2:1]C(=O)NCc3cccc(C=NC(=N)c4cccc([100NH:0][100C:0](=O)N5CCCC(n6nc(-c7ccc(Oc8ccc(F)cc8F)cc7)c(C(N)=O)c6N)C5)c4C)c3C)ccc2CC1C(=O)NC1CCCc2ccccc21)C(C)(C)C

> <Shape>
0.266

> <Color>
0.199

> <Negative vol penalty>
0.000

$$$$

  -OEChem-04042322373D

 86 94  0     1  0  0  0  0  0999 V2000
  -35.7395  -34.2561   16.8897 C   0  0  0  0  0  0  0  0  0  0  0  0
  -36.2558  -32.9709   17.0206 C   0  0  0  0  0  0  0  0  0  0  0  0
  -23.0966   -9.8369   19.9878 C   0  0  0  0  0  0  0  0  0  0  0  0
  -23.8231   -9.9305   22.2901 C   0  0  0  0  0  0  0  0  0  0  0  0
  -34.7468  -34.6995   17.7625 C   0  0  0  0  0  0  0  0  0  0  0  0
  -35.7804  -32.1287   18.0252 C   0  0  0  0  0  0  0  0  0  0  0  0
  -34.5133  -25.2082   19.3734 C   0  0  0  0  0  0  0  0  0  0  0  0
  -32.5814  -17.6375   23.3602 C   0  0  0  0  0  0  0  0  0  0  0  0
  -32.0119  -16.7167   22.4808 C   0  0  0  0  0  0  0  0  0  0  0  0
  -22.3548   -8.6895   20.2685 C   0  0  0  0  0  0  0  0  0  0  0  0
  -23.0812   -8.7831   22.5708 C   0  0  0  0  0  0  0  0  0  0  0  0
  -34.7976  -24.2259   20.3211 C   0  0  0  0  0  0  0  0  0  0  0  0
  -19.8485   -7.9901   23.1553 C   0  0  0  0  0  0  0  0  0  0  0  0
  -19.0749   -7.9883   24.3159 C   0  0  0  0  0  0  0  0  0  0  0  0
  -33.0247  -25.0720   21.7212 C   0  0  0  0  0  0  0  0  0  0  0  0
  -29.8151  -17.5745   23.0053 C   0  0  0  0  0  0  0  0  0  0  0  0
  -20.3148   -6.0853   25.1395 C   0  0  0  0  0  0  0  0  0  0  0  0
  -23.8308  -10.4574   20.9986 C   0  0  0  0  0  0  0  0  0  0  0  0
  -24.1621  -12.9784   20.7926 C   0  0  0  0  0  0  0  0  0  0  0  0
  -34.2522  -33.8591   18.7722 C   0  0  0  0  0  0  0  0  0  0  0  0
  -33.4880  -26.1382   19.5979 C   0  0  0  0  0  0  0  0  0  0  0  0
  -34.7811  -32.5619   18.9132 C   0  0  0  0  0  0  0  0  0  0  0  0
  -32.7277  -26.0635   20.7737 C   0  0  0  0  0  0  0  0  0  0  0  0
  -31.7678  -18.5268   24.0622 C   0  0  0  0  0  0  0  0  0  0  0  0
  -30.3846  -18.4953   23.8847 C   0  0  0  0  0  0  0  0  0  0  0  0
  -30.6288  -16.6851   22.3034 C   0  0  0  0  0  0  0  0  0  0  0  0
  -22.3471   -8.1626   21.5600 C   0  0  0  0  0  0  0  0  0  0  0  0
  -34.0552  -24.1594   21.4964 C   0  0  0  0  0  0  0  0  0  0  0  0
  -20.8553   -7.0395   22.9867 C   0  0  0  0  0  0  0  0  0  0  0  0
  -19.3080   -7.0359   25.3080 C   0  0  0  0  0  0  0  0  0  0  0  0
  -21.0885   -6.0871   23.9788 C   0  0  0  0  0  0  0  0  0  0  0  0
  -24.5978  -11.6423   20.7092 C   0  0  0  0  0  0  0  0  0  0  0  0
  -25.2557  -13.7202   20.4182 C   0  0  0  0  0  0  0  0  0  0  0  0
  -22.8831  -13.5021   21.1743 C   0  0  0  0  0  0  0  0  0  0  0  0
  -33.3535  -29.2996   19.8995 C   0  0  0  0  0  0  0  0  0  0  0  0
  -30.1538  -28.7687   19.9460 C   0  0  0  0  0  0  0  0  0  0  0  0
  -33.4704  -21.3079   23.6586 C   0  0  0  0  0  0  0  0  0  0  0  0
  -27.5843  -26.6057   20.5513 C   0  0  0  0  0  0  0  0  0  0  0  0
  -30.7136  -14.8008   20.6335 C   0  0  0  0  0  0  0  0  0  0  0  0
  -33.2122  -34.3992   19.7217 C   0  0  0  0  0  0  0  0  0  0  0  0
  -33.1762  -27.1751   18.5538 C   0  0  0  0  0  0  0  0  0  0  0  0
  -31.6031  -27.0256   21.0534 C   0  0  0  0  0  0  0  0  0  0  0  0
  -32.4972  -33.3145   20.5231 C   0  0  0  0  0  0  0  0  0  0  0  0
  -29.6455  -12.2974   18.3381 C   0  0  0  0  0  0  0  0  0  0  0  0
  -33.5043  -32.3215   21.0944 C   0  0  0  0  0  0  0  0  0  0  0  0
  -28.2012  -12.0137   18.7572 C   0  0  0  0  0  0  0  0  0  0  0  0
  -30.5420  -12.5742   19.5437 C   0  0  0  0  0  0  0  0  0  0  0  0
  -28.6116  -13.3376   20.8704 C   0  0  0  0  0  0  0  0  0  0  0  0
  -34.2736  -31.6102   19.9747 C   0  0  1  0  0  0  0  0  0  0  0  0
  -32.4474  -28.3908   19.1180 C   0  0  1  0  0  0  0  0  0  0  0  0
  -27.6569  -13.1168   19.6858 C   0  0  2  0  0  0  0  0  0  0  0  0
  -25.0786  -26.4704   20.5374 C   0  0  0  0  0  0  0  0  0  0  0  0
  -30.0565  -30.3450   22.5567 C   0  0  0  0  0  0  0  0  0  0  0  0
  -27.7821  -29.3840   22.9711 C   0  0  0  0  0  0  0  0  0  0  0  0
  -28.1796  -30.8278   20.9761 C   0  0  0  0  0  0  0  0  0  0  0  0
  -27.5952  -24.4714   18.5011 C   0  0  0  0  0  0  0  0  0  0  0  0
  -32.4037  -19.5083   25.0037 C   0  0  0  0  0  0  0  0  0  0  0  0
  -33.2434  -22.7399   23.2232 C   0  0  0  0  0  0  0  0  0  1  0  0
  -29.1324  -28.4864   21.0213 C   0  0  1  0  0  0  0  0  0  0  0  0
  -26.3531  -26.2512   19.7372 C   0  0  2  0  0  0  0  0  0  0  0  0
  -29.4939  -19.4391   24.6240 C   0  0  0  0  0  0  0  0  0  0  0  0
  -28.8101  -29.7437   21.8772 C   0  0  0  0  0  0  0  0  0  0  0  0
  -25.8690  -11.5383   20.3128 N   0  0  0  0  0  0  0  0  0  0  0  0
  -26.2415  -12.8185   20.1437 N   0  0  0  0  0  0  0  0  0  0  0  0
  -31.3410  -28.0253   20.0048 N   0  0  0  0  0  0  0  0  0  0  0  0
  -29.9653  -13.6329   20.3752 N   0  0  0  0  0  0  0  0  0  0  0  0
  -25.4607  -15.0493   20.3003 N   0  0  0  0  0  0  0  0  0  0  0  0
  -21.8709  -12.6002   21.5296 N   0  0  0  0  0  0  0  0  0  0  0  0
  -30.0500  -15.7512   21.4087 N   0  0  0  0  0  0  0  0  0  0  0  0
  -33.4563  -30.5753   19.3784 N   0  0  0  0  0  0  0  0  0  0  0  0
  -32.4339  -20.8437   24.4533 N   0  0  0  0  0  0  0  0  0  0  0  0
  -27.9750  -27.9118   20.3441 N   0  0  0  0  0  0  0  0  0  0  0  0
  -26.4040  -24.8225   19.3164 N   0  3  0  0  0  0  0  0  0  0  0  0
  -22.6401  -14.7327   21.1839 O   0  0  0  0  0  0  0  0  0  0  0  0
  -33.9164  -28.8754   20.9019 O   0  0  0  0  0  0  0  0  0  0  0  0
  -29.9042  -29.6125   19.0815 O   0  0  0  0  0  0  0  0  0  0  0  0
  -34.4633  -20.6636   23.3317 O   0  0  0  0  0  0  0  0  0  0  0  0
  -28.1414  -25.8053   21.2993 O   0  0  0  0  0  0  0  0  0  0  0  0
  -31.8486  -14.9587   20.1764 O   0  0  0  0  0  0  0  0  0  0  0  0
  -21.6231   -7.0432   21.8343 O   0  0  0  0  0  0  0  0  0  0  0  0
  -34.3310  -23.2020   22.4233 O   0  0  0  0  0  0  0  0  0  1  0  0
  -18.5660   -7.0352   26.4231 F   0  0  0  0  0  0  0  0  0  0  0  0
  -22.0551   -5.1721   23.8230 F   0  0  0  0  0  0  0  0  0  0  0  0
  -28.1693  -19.2781   24.3356 F   0  0  0  0  0  0  0  0  0  0  0  0
  -29.5816  -19.3207   25.9811 F   0  0  0  0  0  0  0  0  0  0  0  0
  -29.7738  -20.7457   24.3498 F   0  0  0  0  0  0  0  0  0  0  0  0
  1  2  1  0  0  0  0
  1  5  2  0  0  0  0
  2  6  2  0  0  0  0
  3 10  2  0  0  0  0
  3 18  1  0  0  0  0
  4 11  1  0  0  0  0
  4 18  2  0  0  0  0
  5 20  1  0  0  0  0
  6 22  1  0  0  0  0
  7 12  2  0  0  0  0
  7 21  1  0  0  0  0
  8  9  2  0  0  0  0
  8 24  1  0  0  0  0
  9 26  1  0  0  0  0
 10 27  1  0  0  0  0
 11 27  2  0  0  0  0
 12 28  1  0  0  0  0
 13 14  2  0  0  0  0
 13 29  1  0  0  0  0
 14 30  1  0  0  0  0
 15 23  1  0  0  0  0
 15 28  2  0  0  0  0
 16 25  1  0  0  0  0
 16 26  2  0  0  0  0
 17 30  2  0  0  0  0
 17 31  1  0  0  0  0
 18 32  1  0  0  0  0
 19 32  1  0  0  0  0
 19 33  2  0  0  0  0
 19 34  1  0  0  0  0
 20 22  2  0  0  0  0
 20 40  1  0  0  0  0
 21 23  2  0  0  0  0
 21 41  1  0  0  0  0
 22 49  1  0  0  0  0
 23 42  1  0  0  0  0
 24 25  2  0  0  0  0
 24 57  1  0  0  0  0
 25 61  1  0  0  0  0
 26 69  1  0  0  0  0
 27 80  1  0  0  0  0
 28 81  1  0  0  0  0
 29 31  2  0  0  0  0
 29 80  1  0  0  0  0
 30 82  1  0  0  0  0
 31 83  1  0  0  0  0
 32 63  2  0  0  0  0
 33 64  1  0  0  0  0
 33 67  1  0  0  0  0
 34 68  1  0  0  0  0
 34 74  2  0  0  0  0
 35 50  1  0  0  0  0
 35 70  1  0  0  0  0
 35 75  2  0  0  0  0
 36 59  1  0  0  0  0
 36 65  1  0  0  0  0
 36 76  2  0  0  0  0
 37 58  1  0  0  0  0
 37 71  1  0  0  0  0
 37 77  2  0  0  0  0
 38 60  1  0  0  0  0
 38 72  1  0  0  0  0
 38 78  2  0  0  0  0
 39 66  1  0  0  0  0
 39 69  1  0  0  0  0
 39 79  2  0  0  0  0
 40 43  1  0  0  0  0
 41 50  1  0  0  0  0
 42 65  1  0  0  0  0
 43 45  1  0  0  0  0
 44 46  1  0  0  0  0
 44 47  1  0  0  0  0
 45 49  1  0  0  0  0
 46 51  1  0  0  0  0
 47 66  1  0  0  0  0
 48 51  1  0  0  0  0
 48 66  1  0  0  0  0
 49 70  1  0  0  0  0
 50 65  1  0  0  0  0
 51 64  1  0  0  0  0
 52 60  1  0  0  0  0
 53 62  1  0  0  0  0
 54 62  1  0  0  0  0
 55 62  1  0  0  0  0
 56 73  1  0  0  0  0
 57 71  1  0  0  0  0
 58 81  1  0  0  0  0
 59 62  1  0  0  0  0
 59 72  1  0  0  0  0
 60 73  1  0  0  0  0
 61 84  1  0  0  0  0
 61 85  1  0  0  0  0
 61 86  1  0  0  0  0
 63 64  1  0  0  0  0
M  CHG  1  73   1
M  ISO  4  39 100  58 101  69 100  81 101
M  END
> <Batch ID>
0051

> <Smiles>
CNC(C)C(=O)NC(C(=O)N1Cc2cc([101O:1][101CH2:1]C(=O)NCc3ccc([100NH:0][100C:0](=O)N4CCCC(n5nc(-c6ccc(Oc7ccc(F)cc7F)cc6)c(C(N)=O)c5N)C4)cc3C(F)(F)F)ccc2CC1C(=O)NC1CCCc2ccccc21)C(C)(C)C

> <Shape>
0.219

> <Color>
0.192

> <Negative vol penalty>
0.000

$$$$

  -OEChem-04042322373D

 98108  0     1  0  0  0  0  0999 V2000
  -21.6035  -27.7516   30.1088 C   0  0  0  0  0  0  0  0  0  0  0  0
  -21.5852  -26.8854   29.0203 C   0  0  0  0  0  0  0  0  0  0  0  0
  -29.3950  -18.9733   20.8533 C   0  0  0  0  0  0  0  0  0  0  0  0
  -23.0225  -10.2299   21.4012 C   0  0  0  0  0  0  0  0  0  0  0  0
  -24.2389  -11.1881   23.2558 C   0  0  0  0  0  0  0  0  0  0  0  0
  -25.9474  -17.1376   21.3125 C   0  0  0  0  0  0  0  0  0  0  0  0
  -21.8935  -29.1021   29.9188 C   0  0  0  0  0  0  0  0  0  0  0  0
  -21.8559  -27.3695   27.7409 C   0  0  0  0  0  0  0  0  0  0  0  0
  -25.0113  -24.3685   25.1558 C   0  0  0  0  0  0  0  0  0  0  0  0
  -30.0760  -17.7641   20.9939 C   0  0  0  0  0  0  0  0  0  0  0  0
  -24.7468  -17.6654   20.8375 C   0  0  0  0  0  0  0  0  0  0  0  0
  -22.3506   -9.3809   22.2805 C   0  0  0  0  0  0  0  0  0  0  0  0
  -23.5669  -10.3391   24.1351 C   0  0  0  0  0  0  0  0  0  0  0  0
  -24.4733  -23.2106   24.5960 C   0  0  0  0  0  0  0  0  0  0  0  0
  -20.5755   -6.7112   23.9967 C   0  0  0  0  0  0  0  0  0  0  0  0
  -29.1380  -19.7634   21.9737 C   0  0  0  0  0  0  0  0  0  0  0  0
  -20.4480   -5.3700   23.6354 C   0  0  0  0  0  0  0  0  0  0  0  0
  -24.3536  -24.3099   22.4520 C   0  0  0  0  0  0  0  0  0  0  0  0
  -23.5695  -16.6537   22.6889 C   0  0  0  0  0  0  0  0  0  0  0  0
  -22.8539   -5.1579   23.5736 C   0  0  0  0  0  0  0  0  0  0  0  0
  -23.9667  -11.1335   21.8888 C   0  0  0  0  0  0  0  0  0  0  0  0
  -25.9590  -16.3678   22.4757 C   0  0  0  0  0  0  0  0  0  0  0  0
  -24.0923  -12.9733   20.1262 C   0  0  0  0  0  0  0  0  0  0  0  0
  -22.1774  -29.6010   28.6377 C   0  0  0  0  0  0  0  0  0  0  0  0
  -25.2147  -25.5114   24.3690 C   0  0  0  0  0  0  0  0  0  0  0  0
  -22.1487  -28.7281   27.5334 C   0  0  0  0  0  0  0  0  0  0  0  0
  -24.8967  -25.4802   23.0037 C   0  0  0  0  0  0  0  0  0  0  0  0
  -23.5579  -17.4234   21.5257 C   0  0  0  0  0  0  0  0  0  0  0  0
  -30.5000  -17.3451   22.2550 C   0  0  0  0  0  0  0  0  0  0  0  0
  -24.7701  -16.1259   23.1639 C   0  0  0  0  0  0  0  0  0  0  0  0
  -22.6228   -9.4354   23.6475 C   0  0  0  0  0  0  0  0  0  0  0  0
  -24.1416  -23.1820   23.2446 C   0  0  0  0  0  0  0  0  0  0  0  0
  -21.8422   -7.2758   24.1464 C   0  0  0  0  0  0  0  0  0  0  0  0
  -21.5872   -4.5933   23.4239 C   0  0  0  0  0  0  0  0  0  0  0  0
  -29.5620  -19.3444   23.2348 C   0  0  0  0  0  0  0  0  0  0  0  0
  -22.9814   -6.4992   23.9349 C   0  0  0  0  0  0  0  0  0  0  0  0
  -30.2430  -18.1352   23.3754 C   0  0  0  0  0  0  0  0  0  0  0  0
  -24.6616  -12.0104   20.9809 C   0  0  0  0  0  0  0  0  0  0  0  0
  -25.1655  -13.5346   19.4782 C   0  0  0  0  0  0  0  0  0  0  0  0
  -22.5904  -20.3359   20.3289 C   0  0  0  0  0  0  0  0  0  0  0  0
  -27.2290  -15.8304   22.9460 C   0  0  0  0  0  0  0  0  0  0  0  0
  -28.0438  -15.0062   22.2509 C   0  0  0  0  0  0  0  0  0  0  0  0
  -22.7165  -13.3287   19.9350 C   0  0  0  0  0  0  0  0  0  0  0  0
  -24.0930  -28.4853   24.4007 C   0  0  0  0  0  0  0  0  0  0  0  0
  -26.2684  -28.9161   22.0334 C   0  0  0  0  0  0  0  0  0  0  0  0
  -27.4156  -27.0824   19.1456 C   0  0  0  0  0  0  0  0  0  0  0  0
  -30.8725  -14.1843   20.7759 C   0  0  0  0  0  0  0  0  0  0  0  0
  -22.4389  -31.0775   28.4753 C   0  0  0  0  0  0  0  0  0  0  0  0
  -25.8209  -26.7439   24.9820 C   0  0  0  0  0  0  0  0  0  0  0  0
  -25.1145  -26.6738   22.1113 C   0  0  0  0  0  0  0  0  0  0  0  0
  -22.3823  -21.8092   20.6360 C   0  0  0  0  0  0  0  0  0  0  0  0
  -23.0827  -31.4387   27.1391 C   0  0  0  0  0  0  0  0  0  0  0  0
  -29.5972  -12.5422   18.0005 C   0  0  0  0  0  0  0  0  0  0  0  0
  -22.3641  -30.7345   25.9926 C   0  0  0  0  0  0  0  0  0  0  0  0
  -28.1303  -12.3041   18.3563 C   0  0  0  0  0  0  0  0  0  0  0  0
  -21.3590  -21.2275   22.8238 C   0  0  0  0  0  0  0  0  0  0  0  0
  -30.4956  -12.3060   19.2087 C   0  0  0  0  0  0  0  0  0  0  0  0
  -21.7949  -19.7826   22.6535 C   0  0  0  0  0  0  0  0  0  0  0  0
  -28.6728  -12.9168   20.7661 C   0  0  0  0  0  0  0  0  0  0  0  0
  -22.4614  -29.2106   26.1335 C   0  0  1  0  0  0  0  0  0  0  0  0
  -25.5064  -28.0161   24.2010 C   0  0  1  0  0  0  0  0  0  0  0  0
  -27.7161  -13.1435   19.5775 C   0  0  2  0  0  0  0  0  0  0  0  0
  -22.3210  -22.1589   22.1117 C   0  0  1  0  0  0  0  0  0  1  0  0
  -24.7448  -15.3052   24.4133 C   0  0  0  0  0  0  0  0  0  0  0  0
  -29.6257  -27.1257   17.9578 C   0  0  0  0  0  0  0  0  0  0  0  0
  -24.9287  -30.9768   20.2255 C   0  0  0  0  0  0  0  0  0  0  0  0
  -26.1304  -29.9514   18.2832 C   0  0  0  0  0  0  0  0  0  0  0  0
  -27.4282  -30.9867   20.1450 C   0  0  0  0  0  0  0  0  0  0  0  0
  -27.7642  -24.1586   19.4435 C   0  0  0  0  0  0  0  0  0  0  0  0
  -22.2656  -17.9927   21.0157 C   0  0  0  0  0  0  0  0  0  0  0  0
  -31.2291  -16.0369   22.3629 C   0  0  0  0  0  0  0  0  0  0  0  0
  -29.3480  -14.4939   22.7722 C   0  0  0  0  0  0  0  0  0  0  0  0
  -26.2530  -28.7815   20.5298 C   0  0  1  0  0  0  0  0  0  0  0  0
  -28.7616  -26.4007   18.9778 C   0  0  2  0  0  0  0  0  0  0  0  0
  -26.1682  -30.1583   19.8124 C   0  0  0  0  0  0  0  0  0  0  0  0
  -25.9930  -11.9600   20.8867 N   0  0  0  0  0  0  0  0  0  0  0  0
  -26.2692  -12.8983   19.9650 N   0  0  0  0  0  0  0  0  0  0  0  0
  -22.1552  -19.4205   21.2840 N   0  0  0  0  0  0  0  0  0  0  0  0
  -25.7039  -27.8574   22.7588 N   0  0  0  0  0  0  0  0  0  0  0  0
  -30.0701  -13.1149   20.3512 N   0  0  0  0  0  0  0  0  0  0  0  0
  -25.2632  -14.5053   18.5452 N   0  0  0  0  0  0  0  0  0  0  0  0
  -21.9804  -12.6479   18.9557 N   0  0  0  0  0  0  0  0  0  0  0  0
  -23.7679  -28.7471   25.7180 N   0  0  0  0  0  0  0  0  0  0  0  0
  -27.4311  -27.9961   20.1782 N   0  0  0  0  0  0  0  0  0  0  0  0
  -30.4243  -14.9233   21.8812 N   0  0  0  0  0  0  0  0  0  0  0  0
  -28.5764  -24.9940   18.5219 N   0  3  0  0  0  0  0  0  0  0  0  0
  -23.0578  -20.0179   19.2314 O   0  0  0  0  0  0  0  0  0  0  0  0
  -22.1610  -14.2348   20.6013 O   0  0  0  0  0  0  0  0  0  0  0  0
  -23.3527  -28.6027   23.4313 O   0  0  0  0  0  0  0  0  0  0  0  0
  -26.7695  -29.9202   22.5455 O   0  0  0  0  0  0  0  0  0  0  0  0
  -26.4484  -26.8324   18.4298 O   0  0  0  0  0  0  0  0  0  0  0  0
  -31.9354  -14.4601   20.2046 O   0  0  0  0  0  0  0  0  0  0  0  0
  -21.9671   -8.6073   24.5059 O   0  0  0  0  0  0  0  0  0  0  0  0
  -23.6157  -22.0533   22.6958 O   0  0  0  0  0  0  0  0  0  1  0  0
  -21.4646   -3.3050   23.0785 F   0  0  0  0  0  0  0  0  0  0  0  0
  -29.3037  -20.1146   24.3016 F   0  0  0  0  0  0  0  0  0  0  0  0
  -24.2010   -7.0357   24.0783 F   0  0  0  0  0  0  0  0  0  0  0  0
  -30.7517  -17.6413   24.9497 Cl  0  0  0  0  0  0  0  0  0  0  0  0
  1  2  1  0  0  0  0
  1  7  2  0  0  0  0
  2  8  2  0  0  0  0
  3 10  2  0  0  0  0
  3 16  1  0  0  0  0
  4 12  2  0  0  0  0
  4 21  1  0  0  0  0
  5 13  1  0  0  0  0
  5 21  2  0  0  0  0
  6 11  2  0  0  0  0
  6 22  1  0  0  0  0
  7 24  1  0  0  0  0
  8 26  1  0  0  0  0
  9 14  2  0  0  0  0
  9 25  1  0  0  0  0
 10 29  1  0  0  0  0
 11 28  1  0  0  0  0
 12 31  1  0  0  0  0
 13 31  2  0  0  0  0
 14 32  1  0  0  0  0
 15 17  2  0  0  0  0
 15 33  1  0  0  0  0
 16 35  2  0  0  0  0
 17 34  1  0  0  0  0
 18 27  1  0  0  0  0
 18 32  2  0  0  0  0
 19 28  2  0  0  0  0
 19 30  1  0  0  0  0
 20 34  2  0  0  0  0
 20 36  1  0  0  0  0
 21 38  1  0  0  0  0
 22 30  2  0  0  0  0
 22 41  1  0  0  0  0
 23 38  1  0  0  0  0
 23 39  2  0  0  0  0
 23 43  1  0  0  0  0
 24 26  2  0  0  0  0
 24 48  1  0  0  0  0
 25 27  2  0  0  0  0
 25 49  1  0  0  0  0
 26 60  1  0  0  0  0
 27 50  1  0  0  0  0
 28 70  1  0  0  0  0
 29 37  2  0  0  0  0
 29 71  1  0  0  0  0
 30 64  1  0  0  0  0
 31 93  1  0  0  0  0
 32 94  1  0  0  0  0
 33 36  2  0  0  0  0
 33 93  1  0  0  0  0
 34 95  1  0  0  0  0
 35 37  1  0  0  0  0
 35 96  1  0  0  0  0
 36 97  1  0  0  0  0
 37 98  1  0  0  0  0
 38 76  2  0  0  0  0
 39 77  1  0  0  0  0
 39 81  1  0  0  0  0
 40 51  1  0  0  0  0
 40 78  1  0  0  0  0
 40 87  2  0  0  0  0
 41 42  2  0  0  0  0
 42 72  1  0  0  0  0
 43 82  1  0  0  0  0
 43 88  2  0  0  0  0
 44 61  1  0  0  0  0
 44 83  1  0  0  0  0
 44 89  2  0  0  0  0
 45 73  1  0  0  0  0
 45 79  1  0  0  0  0
 45 90  2  0  0  0  0
 46 74  1  0  0  0  0
 46 84  1  0  0  0  0
 46 91  2  0  0  0  0
 47 80  1  0  0  0  0
 47 85  1  0  0  0  0
 47 92  2  0  0  0  0
 48 52  1  0  0  0  0
 49 61  1  0  0  0  0
 50 79  1  0  0  0  0
 51 63  1  0  0  0  0
 52 54  1  0  0  0  0
 53 55  1  0  0  0  0
 53 57  1  0  0  0  0
 54 60  1  0  0  0  0
 55 62  1  0  0  0  0
 56 58  1  0  0  0  0
 56 63  1  0  0  0  0
 57 80  1  0  0  0  0
 58 78  1  0  0  0  0
 59 62  1  0  0  0  0
 59 80  1  0  0  0  0
 60 83  1  0  0  0  0
 61 79  1  0  0  0  0
 62 77  1  0  0  0  0
 63 94  1  0  0  0  0
 65 74  1  0  0  0  0
 66 75  1  0  0  0  0
 67 75  1  0  0  0  0
 68 75  1  0  0  0  0
 69 86  1  0  0  0  0
 70 78  1  0  0  0  0
 71 85  1  0  0  0  0
 72 85  1  0  0  0  0
 73 75  1  0  0  0  0
 73 84  1  0  0  0  0
 74 86  1  0  0  0  0
 76 77  1  0  0  0  0
M  CHG  1  86   1
M  ISO  4  47 100  63 101  85 100  94 101
M  END
> <Batch ID>
0051

> <Smiles>
CNC(C)C(=O)NC(C(=O)N1Cc2cc([101O:1][101CH:1]3CCN(Cc4ccc(C=CC[100N:0](Cc5cccc(F)c5Cl)[100C:0](=O)N5CCCC(n6nc(-c7ccc(Oc8ccc(F)cc8F)cc7)c(C(N)=O)c6N)C5)c(C)c4)C(=O)C3)ccc2CC1C(=O)NC1CCCc2ccccc21)C(C)(C)C

> <Shape>
0.221

> <Color>
0.119

> <Negative vol penalty>
0.000

$$$$

  -OEChem-04042322373D

 88 97  0     1  0  0  0  0  0999 V2000
  -25.9272  -26.4800   14.8207 C   0  0  0  0  0  0  0  0  0  0  0  0
  -24.8808  -26.6827   15.7149 C   0  0  0  0  0  0  0  0  0  0  0  0
  -28.9998  -18.8364   20.0791 C   0  0  0  0  0  0  0  0  0  0  0  0
  -27.0856  -17.4975   20.6959 C   0  0  0  0  0  0  0  0  0  0  0  0
  -27.2462  -26.6241   15.2488 C   0  0  0  0  0  0  0  0  0  0  0  0
  -25.1530  -27.0284   17.0380 C   0  0  0  0  0  0  0  0  0  0  0  0
  -22.1933  -30.7803   18.7138 C   0  0  0  0  0  0  0  0  0  0  0  0
  -29.8303  -17.7294   20.2535 C   0  0  0  0  0  0  0  0  0  0  0  0
  -27.9161  -16.3905   20.8703 C   0  0  0  0  0  0  0  0  0  0  0  0
  -20.8886  -30.4486   19.0764 C   0  0  0  0  0  0  0  0  0  0  0  0
  -29.4524  -14.0991   18.9183 C   0  0  0  0  0  0  0  0  0  0  0  0
  -29.0288  -12.8825   18.3836 C   0  0  0  0  0  0  0  0  0  0  0  0
  -21.5456  -30.4275   21.3974 C   0  0  0  0  0  0  0  0  0  0  0  0
  -19.5514  -23.8710   24.6248 C   0  0  0  0  0  0  0  0  0  0  0  0
  -19.6524  -21.8311   23.3343 C   0  0  0  0  0  0  0  0  0  0  0  0
  -17.9694  -23.4920   22.8385 C   0  0  0  0  0  0  0  0  0  0  0  0
  -29.0580  -11.9019   20.5915 C   0  0  0  0  0  0  0  0  0  0  0  0
  -27.6275  -18.7205   20.3003 C   0  0  0  0  0  0  0  0  0  0  0  0
  -26.1130  -20.2571   18.9391 C   0  0  0  0  0  0  0  0  0  0  0  0
  -27.5345  -26.9812   16.5755 C   0  0  0  0  0  0  0  0  0  0  0  0
  -23.1881  -30.9277   19.6911 C   0  0  0  0  0  0  0  0  0  0  0  0
  -26.4772  -27.1761   17.4846 C   0  0  0  0  0  0  0  0  0  0  0  0
  -22.8615  -30.7636   21.0448 C   0  0  0  0  0  0  0  0  0  0  0  0
  -20.1460  -22.6374   24.3599 C   0  0  0  0  0  0  0  0  0  0  0  0
  -18.4630  -24.2983   23.8641 C   0  0  0  0  0  0  0  0  0  0  0  0
  -29.2885  -16.5064   20.6491 C   0  0  0  0  0  0  0  0  0  0  0  0
  -20.5652  -30.2692   20.4182 C   0  0  0  0  0  0  0  0  0  0  0  0
  -29.6788  -14.2172   20.2897 C   0  0  0  0  0  0  0  0  0  0  0  0
  -28.8316  -11.7839   19.2202 C   0  0  0  0  0  0  0  0  0  0  0  0
  -29.4816  -13.1186   21.1262 C   0  0  0  0  0  0  0  0  0  0  0  0
  -18.5641  -22.2584   22.5736 C   0  0  0  0  0  0  0  0  0  0  0  0
  -26.7691  -19.8638   20.1209 C   0  0  0  0  0  0  0  0  0  0  0  0
  -25.4285  -21.3953   19.2889 C   0  0  0  0  0  0  0  0  0  0  0  0
  -26.1214  -19.6479   17.6412 C   0  0  0  0  0  0  0  0  0  0  0  0
  -25.9320  -29.4593   20.3381 C   0  0  0  0  0  0  0  0  0  0  0  0
  -26.2155  -31.8077   22.5578 C   0  0  0  0  0  0  0  0  0  0  0  0
  -24.6767  -34.1090   24.5535 C   0  0  0  0  0  0  0  0  0  0  0  0
  -23.3357  -23.4531   24.5078 C   0  0  0  0  0  0  0  0  0  0  0  0
  -28.9773  -27.0790   17.0038 C   0  0  0  0  0  0  0  0  0  0  0  0
  -24.5846  -31.3121   19.2855 C   0  0  0  0  0  0  0  0  0  0  0  0
  -23.8882  -30.9304   22.1341 C   0  0  0  0  0  0  0  0  0  0  0  0
  -29.1711  -27.8138   18.3277 C   0  0  0  0  0  0  0  0  0  0  0  0
  -25.6137  -25.0940   22.3181 C   0  0  0  0  0  0  0  0  0  0  0  0
  -28.1746  -27.3120   19.3678 C   0  0  0  0  0  0  0  0  0  0  0  0
  -26.1089  -23.9752   21.4001 C   0  0  0  0  0  0  0  0  0  0  0  0
  -17.6449  -28.9129   22.2002 C   0  0  0  0  0  0  0  0  0  0  0  0
  -19.8841  -27.8476   21.7729 C   0  0  0  0  0  0  0  0  0  0  0  0
  -25.3962  -24.5979   23.7459 C   0  0  0  0  0  0  0  0  0  0  0  0
  -25.0161  -22.2978   22.9464 C   0  0  0  0  0  0  0  0  0  0  0  0
  -17.4061  -27.9600   23.3602 C   0  0  0  0  0  0  0  0  0  0  0  0
  -26.7314  -27.5764   18.9217 C   0  0  1  0  0  0  0  0  0  0  0  0
  -25.6346  -30.9321   20.3250 C   0  0  1  0  0  0  0  0  0  0  0  0
  -25.1966  -22.7366   21.4831 C   0  0  2  0  0  0  0  0  0  0  0  0
  -19.1294  -29.1624   21.9537 C   0  0  1  0  0  0  0  0  0  1  0  0
  -19.6723  -26.8692   22.9321 C   0  0  1  0  0  0  0  0  0  0  0  0
  -21.8460  -27.4282   24.0324 C   0  0  0  0  0  0  0  0  0  0  0  0
  -25.1683  -35.8562   26.2865 C   0  0  0  0  0  0  0  0  0  0  0  0
  -26.6616  -29.6180   24.6353 C   0  0  0  0  0  0  0  0  0  0  0  0
  -26.1976  -31.3125   26.4190 C   0  0  0  0  0  0  0  0  0  0  0  0
  -28.1450  -31.6153   24.8898 C   0  0  0  0  0  0  0  0  0  0  0  0
  -23.5410  -36.2631   22.8715 C   0  0  0  0  0  0  0  0  0  0  0  0
  -21.3107  -22.1818   25.1727 C   0  0  0  0  0  0  0  0  0  0  0  0
  -17.8253  -25.6262   24.1489 C   0  0  0  0  0  0  0  0  0  0  0  0
  -20.3684  -27.3154   24.2166 C   0  0  0  0  0  0  0  0  0  0  0  0
  -25.8046  -31.9696   24.0014 C   0  0  1  0  0  0  0  0  0  0  0  0
  -24.9658  -35.5779   24.8052 C   0  0  2  0  0  0  0  0  0  0  0  0
  -26.6831  -31.1237   24.9659 C   0  0  0  0  0  0  0  0  0  0  0  0
  -26.5237  -20.6855   21.1449 N   0  0  0  0  0  0  0  0  0  0  0  0
  -25.7058  -21.6066   20.6075 N   0  0  0  0  0  0  0  0  0  0  0  0
  -25.2411  -31.3004   21.6866 N   0  0  0  0  0  0  0  0  0  0  0  0
  -24.5212  -23.4230   23.7549 N   0  0  0  0  0  0  0  0  0  0  0  0
  -24.6227  -22.2261   18.5941 N   0  0  0  0  0  0  0  0  0  0  0  0
  -26.8775  -18.4825   17.4550 N   0  0  0  0  0  0  0  0  0  0  0  0
  -26.3848  -28.9661   19.1294 N   0  0  0  0  0  0  0  0  0  0  0  0
  -25.8274  -33.4026   24.2741 N   0  0  0  0  0  0  0  0  0  0  0  0
  -22.5611  -22.3007   24.4563 N   0  0  0  0  0  0  0  0  0  0  0  0
  -18.1744  -26.6787   23.1307 N   0  3  1  0  0  0  0  0  0  0  0  0
  -23.8356  -36.4189   24.3192 N   0  3  0  0  0  0  0  0  0  0  0  0
  -25.4907  -20.1321   16.6710 O   0  0  0  0  0  0  0  0  0  0  0  0
  -25.7644  -28.8183   21.3690 O   0  0  0  0  0  0  0  0  0  0  0  0
  -27.3565  -32.1266   22.2144 O   0  0  0  0  0  0  0  0  0  0  0  0
  -23.5439  -33.6350   24.6038 O   0  0  0  0  0  0  0  0  0  0  0  0
  -22.9905  -24.4362   25.1721 O   0  0  0  0  0  0  0  0  0  0  0  0
  -30.0986  -15.4260   20.8191 O   0  0  0  0  0  0  0  0  0  0  0  0
  -19.2927  -29.9447   20.7749 O   0  0  0  0  0  0  0  0  0  1  0  0
  -28.4234  -10.6160   18.7067 F   0  0  0  0  0  0  0  0  0  0  0  0
  -29.6964  -13.2263   22.4446 F   0  0  0  0  0  0  0  0  0  0  0  0
  -17.9543  -21.2630   21.3089 Cl  0  0  0  0  0  0  0  0  0  0  0  0
  1  2  1  0  0  0  0
  1  5  2  0  0  0  0
  2  6  2  0  0  0  0
  3  8  2  0  0  0  0
  3 18  1  0  0  0  0
  4  9  1  0  0  0  0
  4 18  2  0  0  0  0
  5 20  1  0  0  0  0
  6 22  1  0  0  0  0
  7 10  2  0  0  0  0
  7 21  1  0  0  0  0
  8 26  1  0  0  0  0
  9 26  2  0  0  0  0
 10 27  1  0  0  0  0
 11 12  2  0  0  0  0
 11 28  1  0  0  0  0
 12 29  1  0  0  0  0
 13 23  1  0  0  0  0
 13 27  2  0  0  0  0
 14 24  1  0  0  0  0
 14 25  2  0  0  0  0
 15 24  2  0  0  0  0
 15 31  1  0  0  0  0
 16 25  1  0  0  0  0
 16 31  2  0  0  0  0
 17 29  2  0  0  0  0
 17 30  1  0  0  0  0
 18 32  1  0  0  0  0
 19 32  1  0  0  0  0
 19 33  2  0  0  0  0
 19 34  1  0  0  0  0
 20 22  2  0  0  0  0
 20 39  1  0  0  0  0
 21 23  2  0  0  0  0
 21 40  1  0  0  0  0
 22 51  1  0  0  0  0
 23 41  1  0  0  0  0
 24 62  1  0  0  0  0
 25 63  1  0  0  0  0
 26 84  1  0  0  0  0
 27 85  1  0  0  0  0
 28 30  2  0  0  0  0
 28 84  1  0  0  0  0
 29 86  1  0  0  0  0
 30 87  1  0  0  0  0
 31 88  1  0  0  0  0
 32 68  2  0  0  0  0
 33 69  1  0  0  0  0
 33 72  1  0  0  0  0
 34 73  1  0  0  0  0
 34 79  2  0  0  0  0
 35 52  1  0  0  0  0
 35 74  1  0  0  0  0
 35 80  2  0  0  0  0
 36 65  1  0  0  0  0
 36 70  1  0  0  0  0
 36 81  2  0  0  0  0
 37 66  1  0  0  0  0
 37 75  1  0  0  0  0
 37 82  2  0  0  0  0
 38 71  1  0  0  0  0
 38 76  1  0  0  0  0
 38 83  2  0  0  0  0
 39 42  1  0  0  0  0
 40 52  1  0  0  0  0
 41 70  1  0  0  0  0
 42 44  1  0  0  0  0
 43 45  1  0  0  0  0
 43 48  1  0  0  0  0
 44 51  1  0  0  0  0
 45 53  1  0  0  0  0
 46 50  1  0  0  0  0
 46 54  1  0  0  0  0
 47 54  1  0  0  0  0
 47 55  1  0  0  0  0
 48 71  1  0  0  0  0
 49 53  1  0  0  0  0
 49 71  1  0  0  0  0
 50 77  1  0  0  0  0
 51 74  1  0  0  0  0
 52 70  1  0  0  0  0
 53 69  1  0  0  0  0
 54 85  1  0  0  0  0
 55 64  1  0  0  0  0
 55 77  1  0  0  0  0
 56 64  1  0  0  0  0
 57 66  1  0  0  0  0
 58 67  1  0  0  0  0
 59 67  1  0  0  0  0
 60 67  1  0  0  0  0
 61 78  1  0  0  0  0
 62 76  1  0  0  0  0
 63 77  1  0  0  0  0
 65 67  1  0  0  0  0
 65 75  1  0  0  0  0
 66 78  1  0  0  0  0
 68 69  1  0  0  0  0
M  CHG  2  77   1  78   1
M  ISO  4  38 100  54 101  76 100  85 101
M  END
> <Batch ID>
0051

> <Smiles>
CCC1C[101CH:1]([101O:1]c2ccc3c(c2)CN(C(=O)C(NC(=O)C(C)NC)C(C)(C)C)C(C(=O)NC2CCCc4ccccc42)C3)CCN1Cc1cc(Cl)cc(C[100NH:0][100C:0](=O)N2CCCC(n3nc(-c4ccc(Oc5ccc(F)cc5F)cc4)c(C(N)=O)c3N)C2)c1

> <Shape>
0.257

> <Color>
0.060

> <Negative vol penalty>
0.000

$$$$

  -OEChem-04042322373D

 89 98  0     1  0  0  0  0  0999 V2000
  -25.4780  -29.4284   20.5080 C   0  0  0  0  0  0  0  0  0  0  0  0
  -26.2802  -28.7376   21.4092 C   0  0  0  0  0  0  0  0  0  0  0  0
  -21.6041  -22.8389   21.8213 C   0  0  0  0  0  0  0  0  0  0  0  0
  -19.2330  -22.5280   21.4775 C   0  0  0  0  0  0  0  0  0  0  0  0
  -25.0474  -28.8009   19.3409 C   0  0  0  0  0  0  0  0  0  0  0  0
  -26.6619  -27.4232   21.1380 C   0  0  0  0  0  0  0  0  0  0  0  0
  -30.1727  -20.3888   22.3273 C   0  0  0  0  0  0  0  0  0  0  0  0
  -21.3530  -24.0579   22.4509 C   0  0  0  0  0  0  0  0  0  0  0  0
  -18.9819  -23.7471   22.1071 C   0  0  0  0  0  0  0  0  0  0  0  0
  -30.1498  -19.0526   21.9301 C   0  0  0  0  0  0  0  0  0  0  0  0
  -20.6150  -27.2273   21.5371 C   0  0  0  0  0  0  0  0  0  0  0  0
  -21.4131  -28.3151   21.1833 C   0  0  0  0  0  0  0  0  0  0  0  0
  -30.4257  -19.7369   19.6334 C   0  0  0  0  0  0  0  0  0  0  0  0
  -25.2169  -13.9239   19.8460 C   0  0  0  0  0  0  0  0  0  0  0  0
  -24.1378  -12.3071   21.2809 C   0  0  0  0  0  0  0  0  0  0  0  0
  -22.1592  -28.5124   23.4727 C   0  0  0  0  0  0  0  0  0  0  0  0
  -20.5441  -22.0739   21.3345 C   0  0  0  0  0  0  0  0  0  0  0  0
  -21.5704  -20.5996   19.5232 C   0  0  0  0  0  0  0  0  0  0  0  0
  -25.4143  -27.4740   19.0620 C   0  0  0  0  0  0  0  0  0  0  0  0
  -30.3116  -21.4113   21.3778 C   0  0  0  0  0  0  0  0  0  0  0  0
  -26.2573  -26.7805   19.9540 C   0  0  0  0  0  0  0  0  0  0  0  0
  -30.4527  -21.0851   20.0214 C   0  0  0  0  0  0  0  0  0  0  0  0
  -26.3784  -13.1516   19.8493 C   0  0  0  0  0  0  0  0  0  0  0  0
  -26.4196  -11.9571   20.5683 C   0  0  0  0  0  0  0  0  0  0  0  0
  -24.0966  -13.5017   20.5619 C   0  0  0  0  0  0  0  0  0  0  0  0
  -20.0419  -24.5120   22.5938 C   0  0  0  0  0  0  0  0  0  0  0  0
  -30.2734  -18.7266   20.5827 C   0  0  0  0  0  0  0  0  0  0  0  0
  -20.5888  -26.7820   22.8588 C   0  0  0  0  0  0  0  0  0  0  0  0
  -22.1852  -28.9576   22.1511 C   0  0  0  0  0  0  0  0  0  0  0  0
  -21.3610  -27.4246   23.8266 C   0  0  0  0  0  0  0  0  0  0  0  0
  -25.2993  -11.5348   21.2841 C   0  0  0  0  0  0  0  0  0  0  0  0
  -20.8029  -20.8148   20.6835 C   0  0  0  0  0  0  0  0  0  0  0  0
  -21.5081  -19.2432   19.3169 C   0  0  0  0  0  0  0  0  0  0  0  0
  -29.7875  -14.6028   19.1510 C   0  0  0  0  0  0  0  0  0  0  0  0
  -32.0313  -11.7901   19.8847 C   0  0  0  0  0  0  0  0  0  0  0  0
  -30.8744  -13.8164   19.1551 C   0  0  0  0  0  0  0  0  0  0  0  0
  -30.9472  -12.5738   19.8811 C   0  0  0  0  0  0  0  0  0  0  0  0
  -22.2767  -21.5417   18.7050 C   0  0  0  0  0  0  0  0  0  0  0  0
  -28.5153  -23.8601   20.4393 C   0  0  0  0  0  0  0  0  0  0  0  0
  -31.1326  -24.5983   18.6711 C   0  0  0  0  0  0  0  0  0  0  0  0
  -33.5486  -22.8144   16.6716 C   0  0  0  0  0  0  0  0  0  0  0  0
  -21.7179  -14.0129   21.2152 C   0  0  0  0  0  0  0  0  0  0  0  0
  -24.9265  -26.8461   17.7802 C   0  0  0  0  0  0  0  0  0  0  0  0
  -30.3613  -22.8465   21.8253 C   0  0  0  0  0  0  0  0  0  0  0  0
  -30.6246  -22.1446   18.9648 C   0  0  0  0  0  0  0  0  0  0  0  0
  -29.7170  -15.9016   18.3899 C   0  0  0  0  0  0  0  0  0  0  0  0
  -25.0116  -25.3233   17.7942 C   0  0  0  0  0  0  0  0  0  0  0  0
  -18.6005  -15.7119   21.4844 C   0  0  0  0  0  0  0  0  0  0  0  0
  -26.3936  -24.8842   18.2545 C   0  0  0  0  0  0  0  0  0  0  0  0
  -18.9587  -17.1732   21.2046 C   0  0  0  0  0  0  0  0  0  0  0  0
  -27.9878  -16.6154   20.0929 C   0  0  0  0  0  0  0  0  0  0  0  0
  -19.6979  -15.0001   22.2736 C   0  0  0  0  0  0  0  0  0  0  0  0
  -21.4011  -16.5578   21.4122 C   0  0  0  0  0  0  0  0  0  0  0  0
  -28.2141  -15.3109   20.8557 C   0  0  0  0  0  0  0  0  0  0  0  0
  -26.6600  -25.3400   19.6948 C   0  0  1  0  0  0  0  0  0  0  0  0
  -29.9912  -23.8303   20.7196 C   0  0  1  0  0  0  0  0  0  0  0  0
  -20.3548  -17.2985   20.5635 C   0  0  2  0  0  0  0  0  0  0  0  0
  -29.2177  -17.0340   19.2875 C   0  0  1  0  0  0  0  0  0  1  0  0
  -27.6745  -11.1405   20.5624 C   0  0  0  0  0  0  0  0  0  0  0  0
  -35.9302  -23.3705   16.1091 C   0  0  0  0  0  0  0  0  0  0  0  0
  -29.9416  -25.8547   16.1585 C   0  0  0  0  0  0  0  0  0  0  0  0
  -31.9073  -24.9838   14.8756 C   0  0  0  0  0  0  0  0  0  0  0  0
  -32.2526  -26.6301   16.7176 C   0  0  0  0  0  0  0  0  0  0  0  0
  -34.5218  -20.2199   17.7112 C   0  0  0  0  0  0  0  0  0  0  0  0
  -27.5690  -13.6298   19.0717 C   0  0  0  0  0  0  0  0  0  0  0  0
  -31.6202  -24.2491   17.2857 C   0  0  1  0  0  0  0  0  0  0  0  0
  -35.0071  -22.5686   17.0134 C   0  0  2  0  0  0  0  0  0  0  0  0
  -31.4138  -25.4117   16.2742 C   0  0  0  0  0  0  0  0  0  0  0  0
  -20.2904  -19.6855   21.1795 N   0  0  0  0  0  0  0  0  0  0  0  0
  -20.7367  -18.7476   20.3267 N   0  0  0  0  0  0  0  0  0  0  0  0
  -30.6607  -23.5335   19.4516 N   0  0  0  0  0  0  0  0  0  0  0  0
  -20.9910  -15.1579   21.6044 N   0  0  0  0  0  0  0  0  0  0  0  0
  -22.0383  -18.4379   18.3720 N   0  0  0  0  0  0  0  0  0  0  0  0
  -21.5992  -22.1326   17.6298 N   0  0  0  0  0  0  0  0  0  0  0  0
  -22.9171  -14.2869   20.5584 N   0  0  0  0  0  0  0  0  0  0  0  0
  -28.0470  -25.0906   20.0200 N   0  0  0  0  0  0  0  0  0  0  0  0
  -33.0086  -23.8271   17.4359 N   0  0  0  0  0  0  0  0  0  0  0  0
  -28.6573  -14.1896   19.9454 N   0  3  1  0  0  0  0  0  0  0  0  0
  -35.3386  -21.1237   16.8608 N   0  3  0  0  0  0  0  0  0  0  0  0
  -23.4780  -21.8380   18.9112 O   0  0  0  0  0  0  0  0  0  0  0  0
  -27.8509  -22.8416   20.5908 O   0  0  0  0  0  0  0  0  0  0  0  0
  -31.1758  -25.7716   19.0494 O   0  0  0  0  0  0  0  0  0  0  0  0
  -32.9494  -22.1747   15.8101 O   0  0  0  0  0  0  0  0  0  0  0  0
  -21.2937  -12.8732   21.4231 O   0  0  0  0  0  0  0  0  0  0  0  0
  -19.7965  -25.7014   23.2084 O   0  0  0  0  0  0  0  0  0  0  0  0
  -30.2507  -17.4232   20.1922 O   0  0  0  0  0  0  0  0  0  1  0  0
  -22.9529  -30.0013   21.8108 F   0  0  0  0  0  0  0  0  0  0  0  0
  -21.3409  -27.0007   25.0977 F   0  0  0  0  0  0  0  0  0  0  0  0
  -25.3090  -10.0616   22.1845 Cl  0  0  0  0  0  0  0  0  0  0  0  0
  1  2  1  0  0  0  0
  1  5  2  0  0  0  0
  2  6  2  0  0  0  0
  3  8  2  0  0  0  0
  3 17  1  0  0  0  0
  4  9  1  0  0  0  0
  4 17  2  0  0  0  0
  5 19  1  0  0  0  0
  6 21  1  0  0  0  0
  7 10  2  0  0  0  0
  7 20  1  0  0  0  0
  8 26  1  0  0  0  0
  9 26  2  0  0  0  0
 10 27  1  0  0  0  0
 11 12  2  0  0  0  0
 11 28  1  0  0  0  0
 12 29  1  0  0  0  0
 13 22  1  0  0  0  0
 13 27  2  0  0  0  0
 14 23  1  0  0  0  0
 14 25  2  0  0  0  0
 15 25  1  0  0  0  0
 15 31  2  0  0  0  0
 16 29  2  0  0  0  0
 16 30  1  0  0  0  0
 17 32  1  0  0  0  0
 18 32  1  0  0  0  0
 18 33  2  0  0  0  0
 18 38  1  0  0  0  0
 19 21  2  0  0  0  0
 19 43  1  0  0  0  0
 20 22  2  0  0  0  0
 20 44  1  0  0  0  0
 21 55  1  0  0  0  0
 22 45  1  0  0  0  0
 23 24  2  0  0  0  0
 23 65  1  0  0  0  0
 24 31  1  0  0  0  0
 24 59  1  0  0  0  0
 25 75  1  0  0  0  0
 26 85  1  0  0  0  0
 27 86  1  0  0  0  0
 28 30  2  0  0  0  0
 28 85  1  0  0  0  0
 29 87  1  0  0  0  0
 30 88  1  0  0  0  0
 31 89  1  0  0  0  0
 32 69  2  0  0  0  0
 33 70  1  0  0  0  0
 33 73  1  0  0  0  0
 34 36  2  0  0  0  0
 34 46  1  0  0  0  0
 34 78  1  0  0  0  0
 35 37  2  0  0  0  0
 36 37  1  0  0  0  0
 38 74  1  0  0  0  0
 38 80  2  0  0  0  0
 39 56  1  0  0  0  0
 39 76  1  0  0  0  0
 39 81  2  0  0  0  0
 40 66  1  0  0  0  0
 40 71  1  0  0  0  0
 40 82  2  0  0  0  0
 41 67  1  0  0  0  0
 41 77  1  0  0  0  0
 41 83  2  0  0  0  0
 42 72  1  0  0  0  0
 42 75  1  0  0  0  0
 42 84  2  0  0  0  0
 43 47  1  0  0  0  0
 44 56  1  0  0  0  0
 45 71  1  0  0  0  0
 46 58  1  0  0  0  0
 47 49  1  0  0  0  0
 48 50  1  0  0  0  0
 48 52  1  0  0  0  0
 49 55  1  0  0  0  0
 50 57  1  0  0  0  0
 51 54  1  0  0  0  0
 51 58  1  0  0  0  0
 52 72  1  0  0  0  0
 53 57  1  0  0  0  0
 53 72  1  0  0  0  0
 54 78  1  0  0  0  0
 55 76  1  0  0  0  0
 56 71  1  0  0  0  0
 57 70  1  0  0  0  0
 58 86  1  0  0  0  0
 60 67  1  0  0  0  0
 61 68  1  0  0  0  0
 62 68  1  0  0  0  0
 63 68  1  0  0  0  0
 64 79  1  0  0  0  0
 65 78  1  0  0  0  0
 66 68  1  0  0  0  0
 66 77  1  0  0  0  0
 67 79  1  0  0  0  0
 69 70  1  0  0  0  0
M  CHG  2  78   1  79   1
M  ISO  4  42 100  58 101  75 100  86 101
M  END
> <Batch ID>
0051

> <Smiles>
C=CC=C1C[101CH:1]([101O:1]c2ccc3c(c2)CN(C(=O)C(NC(=O)C(C)NC)C(C)(C)C)C(C(=O)NC2CCCc4ccccc42)C3)CCN1Cc1cc([100NH:0][100C:0](=O)N2CCCC(n3nc(-c4ccc(Oc5ccc(F)cc5F)cc4)c(C(N)=O)c3N)C2)cc(Cl)c1C

> <Shape>
0.235

> <Color>
0.063

> <Negative vol penalty>
0.000

$$$$

  -OEChem-04042322373D

 89 98  0     1  0  0  0  0  0999 V2000
  -18.8062  -24.5710   21.7303 C   0  0  0  0  0  0  0  0  0  0  0  0
  -20.0485  -24.8103   21.1516 C   0  0  0  0  0  0  0  0  0  0  0  0
  -24.2799   -9.1210   22.1992 C   0  0  0  0  0  0  0  0  0  0  0  0
  -23.8676  -10.3895   20.1848 C   0  0  0  0  0  0  0  0  0  0  0  0
  -18.0435  -25.6364   22.2067 C   0  0  0  0  0  0  0  0  0  0  0  0
  -20.5283  -26.1155   21.0480 C   0  0  0  0  0  0  0  0  0  0  0  0
  -25.3928  -26.5100   22.3992 C   0  0  0  0  0  0  0  0  0  0  0  0
  -23.0801   -8.4346   22.0126 C   0  0  0  0  0  0  0  0  0  0  0  0
  -22.6678   -9.7031   19.9981 C   0  0  0  0  0  0  0  0  0  0  0  0
  -26.3470  -26.0933   21.4720 C   0  0  0  0  0  0  0  0  0  0  0  0
  -21.9384   -5.8871   20.1047 C   0  0  0  0  0  0  0  0  0  0  0  0
  -21.9500   -4.5029   20.2763 C   0  0  0  0  0  0  0  0  0  0  0  0
  -26.7214  -28.3896   20.8345 C   0  0  0  0  0  0  0  0  0  0  0  0
  -27.2929  -19.3012   18.2357 C   0  0  0  0  0  0  0  0  0  0  0  0
  -28.1342  -20.7110   20.0082 C   0  0  0  0  0  0  0  0  0  0  0  0
  -20.3131   -4.7080   22.0414 C   0  0  0  0  0  0  0  0  0  0  0  0
  -24.6736  -10.0985   21.2854 C   0  0  0  0  0  0  0  0  0  0  0  0
  -27.2070  -10.2580   21.5391 C   0  0  0  0  0  0  0  0  0  0  0  0
  -18.5184  -26.9544   22.1177 C   0  0  0  0  0  0  0  0  0  0  0  0
  -25.0874  -27.8710   22.5436 C   0  0  0  0  0  0  0  0  0  0  0  0
  -19.7706  -27.1997   21.5225 C   0  0  0  0  0  0  0  0  0  0  0  0
  -25.7648  -28.8211   21.7661 C   0  0  0  0  0  0  0  0  0  0  0  0
  -27.3828  -20.3695   17.3433 C   0  0  0  0  0  0  0  0  0  0  0  0
  -27.8485  -21.6085   17.7833 C   0  0  0  0  0  0  0  0  0  0  0  0
  -28.2242  -21.7793   19.1158 C   0  0  0  0  0  0  0  0  0  0  0  0
  -27.6686  -19.4720   19.5682 C   0  0  0  0  0  0  0  0  0  0  0  0
  -22.2740   -8.7256   20.9120 C   0  0  0  0  0  0  0  0  0  0  0  0
  -27.0093  -27.0329   20.6875 C   0  0  0  0  0  0  0  0  0  0  0  0
  -21.1142   -6.6818   20.9015 C   0  0  0  0  0  0  0  0  0  0  0  0
  -21.1374   -3.9133   21.2446 C   0  0  0  0  0  0  0  0  0  0  0  0
  -20.3016   -6.0922   21.8698 C   0  0  0  0  0  0  0  0  0  0  0  0
  -25.9127  -10.8083   21.4779 C   0  0  0  0  0  0  0  0  0  0  0  0
  -28.0311  -11.3395   21.7331 C   0  0  0  0  0  0  0  0  0  0  0  0
  -27.9281  -24.2263   19.5322 C   0  0  0  0  0  0  0  0  0  0  0  0
  -27.6268   -8.8914   21.4303 C   0  0  0  0  0  0  0  0  0  0  0  0
  -22.4759  -29.6385   22.1443 C   0  0  0  0  0  0  0  0  0  0  0  0
  -24.3445  -31.9816   23.3855 C   0  0  0  0  0  0  0  0  0  0  0  0
  -27.4870  -33.1837   23.9569 C   0  0  0  0  0  0  0  0  0  0  0  0
  -27.1353  -17.0875   20.2116 C   0  0  0  0  0  0  0  0  0  0  0  0
  -17.6374  -28.0779   22.6038 C   0  0  0  0  0  0  0  0  0  0  0  0
  -24.0748  -28.3063   23.5672 C   0  0  0  0  0  0  0  0  0  0  0  0
  -25.4880  -30.2958   21.8969 C   0  0  0  0  0  0  0  0  0  0  0  0
  -18.3821  -29.3966   22.7956 C   0  0  0  0  0  0  0  0  0  0  0  0
  -30.8600  -24.2687   19.6181 C   0  0  0  0  0  0  0  0  0  0  0  0
  -27.2237  -15.6539   23.7699 C   0  0  0  0  0  0  0  0  0  0  0  0
  -19.2707  -29.6879   21.5905 C   0  0  0  0  0  0  0  0  0  0  0  0
  -30.0414  -25.5457   19.4370 C   0  0  0  0  0  0  0  0  0  0  0  0
  -27.7277  -14.2456   23.4634 C   0  0  0  0  0  0  0  0  0  0  0  0
  -30.0335  -23.1335   20.2123 C   0  0  0  0  0  0  0  0  0  0  0  0
  -27.5981  -16.6511   22.6806 C   0  0  0  0  0  0  0  0  0  0  0  0
  -26.7092  -14.8440   21.1974 C   0  0  0  0  0  0  0  0  0  0  0  0
  -20.3362  -28.5992   21.4146 C   0  0  1  0  0  0  0  0  0  0  0  0
  -28.6632  -25.4482   20.0820 C   0  0  1  0  0  0  0  0  0  1  0  0
  -23.4732  -29.6759   23.2675 C   0  0  1  0  0  0  0  0  0  0  0  0
  -27.6209  -13.8781   21.9701 C   0  0  2  0  0  0  0  0  0  0  0  0
  -27.9432  -22.7515   16.8214 C   0  0  0  0  0  0  0  0  0  0  0  0
  -28.6951  -35.1414   24.9595 C   0  0  0  0  0  0  0  0  0  0  0  0
  -23.6429  -33.6645   20.9390 C   0  0  0  0  0  0  0  0  0  0  0  0
  -25.5684  -35.1619   21.5034 C   0  0  0  0  0  0  0  0  0  0  0  0
  -23.6663  -34.9238   23.0996 C   0  0  0  0  0  0  0  0  0  0  0  0
  -28.8442  -31.4718   25.9534 C   0  0  0  0  0  0  0  0  0  0  0  0
  -25.2920  -33.0087   22.8142 C   0  0  1  0  0  0  0  0  0  0  0  0
  -28.1377  -33.7482   25.2068 C   0  0  2  0  0  0  0  0  0  0  0  0
  -26.9747  -20.1598   15.9215 C   0  0  0  0  0  0  0  0  0  0  0  0
  -24.5464  -34.1618   22.0850 C   0  0  0  0  0  0  0  0  0  0  0  0
  -25.9096  -12.1362   21.6216 N   0  0  0  0  0  0  0  0  0  0  0  0
  -27.2122  -12.4294   21.7750 N   0  0  0  0  0  0  0  0  0  0  0  0
  -28.7058  -23.0482   19.5911 N   0  0  0  0  0  0  0  0  0  0  0  0
  -24.4850  -30.6711   22.9072 N   0  0  0  0  0  0  0  0  0  0  0  0
  -27.1637  -16.2320   21.3402 N   0  0  0  0  0  0  0  0  0  0  0  0
  -29.3691  -11.4551   21.8703 N   0  0  0  0  0  0  0  0  0  0  0  0
  -27.9363   -8.3867   20.1599 N   0  0  0  0  0  0  0  0  0  0  0  0
  -27.5763  -18.3870   20.4754 N   0  0  0  0  0  0  0  0  0  0  0  0
  -21.4112  -28.7858   22.3654 N   0  0  0  0  0  0  0  0  0  0  0  0
  -26.1341  -33.4478   23.9216 N   0  0  0  0  0  0  0  0  0  0  0  0
  -29.2543  -32.8675   25.6523 N   0  3  0  0  0  0  0  0  0  0  0  0
  -26.7960  -24.3385   19.0651 O   0  0  0  0  0  0  0  0  0  0  0  0
  -27.7088   -8.1354   22.4280 O   0  0  0  0  0  0  0  0  0  0  0  0
  -22.6580  -30.3331   21.1513 O   0  0  0  0  0  0  0  0  0  0  0  0
  -23.5151  -32.3278   24.2305 O   0  0  0  0  0  0  0  0  0  0  0  0
  -28.1166  -32.5731   23.0959 O   0  0  0  0  0  0  0  0  0  0  0  0
  -26.7625  -16.6893   19.1061 O   0  0  0  0  0  0  0  0  0  0  0  0
  -21.1033   -8.0558   20.7295 O   0  0  0  0  0  0  0  0  0  0  0  0
  -27.9407  -26.6289   19.7812 O   0  0  0  0  0  0  0  0  0  1  0  0
  -21.1474   -2.5839   21.4082 F   0  0  0  0  0  0  0  0  0  0  0  0
  -19.5068   -6.8504   22.6375 F   0  0  0  0  0  0  0  0  0  0  0  0
  -26.5446  -18.8911   15.6595 F   0  0  0  0  0  0  0  0  0  0  0  0
  -25.9541  -20.9736   15.5227 F   0  0  0  0  0  0  0  0  0  0  0  0
  -27.9942  -20.3913   15.0456 F   0  0  0  0  0  0  0  0  0  0  0  0
  1  2  1  0  0  0  0
  1  5  2  0  0  0  0
  2  6  2  0  0  0  0
  3  8  2  0  0  0  0
  3 17  1  0  0  0  0
  4  9  1  0  0  0  0
  4 17  2  0  0  0  0
  5 19  1  0  0  0  0
  6 21  1  0  0  0  0
  7 10  2  0  0  0  0
  7 20  1  0  0  0  0
  8 27  1  0  0  0  0
  9 27  2  0  0  0  0
 10 28  1  0  0  0  0
 11 12  2  0  0  0  0
 11 29  1  0  0  0  0
 12 30  1  0  0  0  0
 13 22  1  0  0  0  0
 13 28  2  0  0  0  0
 14 23  2  0  0  0  0
 14 26  1  0  0  0  0
 15 25  1  0  0  0  0
 15 26  2  0  0  0  0
 16 30  2  0  0  0  0
 16 31  1  0  0  0  0
 17 32  1  0  0  0  0
 18 32  1  0  0  0  0
 18 33  2  0  0  0  0
 18 35  1  0  0  0  0
 19 21  2  0  0  0  0
 19 40  1  0  0  0  0
 20 22  2  0  0  0  0
 20 41  1  0  0  0  0
 21 52  1  0  0  0  0
 22 42  1  0  0  0  0
 23 24  1  0  0  0  0
 23 64  1  0  0  0  0
 24 25  2  0  0  0  0
 24 56  1  0  0  0  0
 25 68  1  0  0  0  0
 26 73  1  0  0  0  0
 27 83  1  0  0  0  0
 28 84  1  0  0  0  0
 29 31  2  0  0  0  0
 29 83  1  0  0  0  0
 30 85  1  0  0  0  0
 31 86  1  0  0  0  0
 32 66  2  0  0  0  0
 33 67  1  0  0  0  0
 33 71  1  0  0  0  0
 34 53  1  0  0  0  0
 34 68  1  0  0  0  0
 34 77  2  0  0  0  0
 35 72  1  0  0  0  0
 35 78  2  0  0  0  0
 36 54  1  0  0  0  0
 36 74  1  0  0  0  0
 36 79  2  0  0  0  0
 37 62  1  0  0  0  0
 37 69  1  0  0  0  0
 37 80  2  0  0  0  0
 38 63  1  0  0  0  0
 38 75  1  0  0  0  0
 38 81  2  0  0  0  0
 39 70  1  0  0  0  0
 39 73  1  0  0  0  0
 39 82  2  0  0  0  0
 40 43  1  0  0  0  0
 41 54  1  0  0  0  0
 42 69  1  0  0  0  0
 43 46  1  0  0  0  0
 44 47  1  0  0  0  0
 44 49  1  0  0  0  0
 45 48  1  0  0  0  0
 45 50  1  0  0  0  0
 46 52  1  0  0  0  0
 47 53  1  0  0  0  0
 48 55  1  0  0  0  0
 49 68  1  0  0  0  0
 50 70  1  0  0  0  0
 51 55  1  0  0  0  0
 51 70  1  0  0  0  0
 52 74  1  0  0  0  0
 53 84  1  0  0  0  0
 54 69  1  0  0  0  0
 55 67  1  0  0  0  0
 57 63  1  0  0  0  0
 58 65  1  0  0  0  0
 59 65  1  0  0  0  0
 60 65  1  0  0  0  0
 61 76  1  0  0  0  0
 62 65  1  0  0  0  0
 62 75  1  0  0  0  0
 63 76  1  0  0  0  0
 64 87  1  0  0  0  0
 64 88  1  0  0  0  0
 64 89  1  0  0  0  0
 66 67  1  0  0  0  0
M  CHG  1  76   1
M  ISO  4  39 100  53 101  73 100  84 101
M  END
> <Batch ID>
0051

> <Smiles>
CNC(C)C(=O)NC(C(=O)N1Cc2cc([101O:1][101CH:1]3CCCN(c4cc([100NH:0][100C:0](=O)N5CCCC(n6nc(-c7ccc(Oc8ccc(F)cc8F)cc7)c(C(N)=O)c6N)C5)cc(C(F)(F)F)c4C)C3=O)ccc2CC1C(=O)NC1CCCc2ccccc21)C(C)(C)C

> <Shape>
0.285

> <Color>
0.090

> <Negative vol penalty>
0.000

$$$$

  -OEChem-04042322373D

 85 93  0     1  0  0  0  0  0999 V2000
  -24.0659  -29.6424   22.4355 C   0  0  0  0  0  0  0  0  0  0  0  0
  -23.9165  -28.2597   22.4674 C   0  0  0  0  0  0  0  0  0  0  0  0
  -20.8500  -23.2871   23.9802 C   0  0  0  0  0  0  0  0  0  0  0  0
  -21.5696  -22.7562   21.7358 C   0  0  0  0  0  0  0  0  0  0  0  0
  -24.8882  -30.2316   21.4760 C   0  0  0  0  0  0  0  0  0  0  0  0
  -24.5883  -27.4653   21.5390 C   0  0  0  0  0  0  0  0  0  0  0  0
  -26.9016  -21.8717   22.4697 C   0  0  0  0  0  0  0  0  0  0  0  0
  -20.8027  -24.6402   23.6450 C   0  0  0  0  0  0  0  0  0  0  0  0
  -21.5223  -24.1093   21.4005 C   0  0  0  0  0  0  0  0  0  0  0  0
  -26.4184  -20.5966   22.1792 C   0  0  0  0  0  0  0  0  0  0  0  0
  -20.1447  -28.1965   23.2776 C   0  0  0  0  0  0  0  0  0  0  0  0
  -19.0303  -28.9278   23.6885 C   0  0  0  0  0  0  0  0  0  0  0  0
  -27.6950  -20.5857   20.1324 C   0  0  0  0  0  0  0  0  0  0  0  0
  -23.3966  -10.9780   23.2897 C   0  0  0  0  0  0  0  0  0  0  0  0
  -23.6346  -11.5996   20.9673 C   0  0  0  0  0  0  0  0  0  0  0  0
  -17.5968  -27.4604   22.4123 C   0  0  0  0  0  0  0  0  0  0  0  0
  -21.2335  -22.3451   23.0256 C   0  0  0  0  0  0  0  0  0  0  0  0
  -20.2419  -20.0064   23.2600 C   0  0  0  0  0  0  0  0  0  0  0  0
  -25.5780  -29.4434   20.5414 C   0  0  0  0  0  0  0  0  0  0  0  0
  -27.7781  -22.5189   21.5869 C   0  0  0  0  0  0  0  0  0  0  0  0
  -25.4195  -28.0446   20.5652 C   0  0  0  0  0  0  0  0  0  0  0  0
  -28.1899  -21.8679   20.4153 C   0  0  0  0  0  0  0  0  0  0  0  0
  -23.4256  -10.6231   21.9411 C   0  0  0  0  0  0  0  0  0  0  0  0
  -23.5765  -12.3095   23.6646 C   0  0  0  0  0  0  0  0  0  0  0  0
  -23.8146  -12.9311   21.3421 C   0  0  0  0  0  0  0  0  0  0  0  0
  -23.7855  -13.2861   22.6907 C   0  0  0  0  0  0  0  0  0  0  0  0
  -21.1388  -25.0514   22.3552 C   0  0  0  0  0  0  0  0  0  0  0  0
  -26.8128  -19.9545   21.0091 C   0  0  0  0  0  0  0  0  0  0  0  0
  -19.9852  -27.0971   22.4340 C   0  0  0  0  0  0  0  0  0  0  0  0
  -17.7563  -28.5598   23.2558 C   0  0  0  0  0  0  0  0  0  0  0  0
  -18.7112  -26.7291   22.0014 C   0  0  0  0  0  0  0  0  0  0  0  0
  -21.2831  -20.9472   23.3715 C   0  0  0  0  0  0  0  0  0  0  0  0
  -20.7906  -18.8316   23.7129 C   0  0  0  0  0  0  0  0  0  0  0  0
  -18.8987  -20.1790   22.7890 C   0  0  0  0  0  0  0  0  0  0  0  0
  -27.6655  -25.1934   19.8728 C   0  0  0  0  0  0  0  0  0  0  0  0
  -30.7526  -24.4425   19.2185 C   0  0  0  0  0  0  0  0  0  0  0  0
  -25.5051  -15.9629   20.0640 C   0  0  0  0  0  0  0  0  0  0  0  0
  -33.1634  -22.0379   18.9894 C   0  0  0  0  0  0  0  0  0  0  0  0
  -24.9709  -15.1578   23.8898 C   0  0  0  0  0  0  0  0  0  0  0  0
  -26.4183  -30.1288   19.4932 C   0  0  0  0  0  0  0  0  0  0  0  0
  -28.3113  -23.8834   21.9278 C   0  0  0  0  0  0  0  0  0  0  0  0
  -29.1450  -22.5112   19.4445 C   0  0  0  0  0  0  0  0  0  0  0  0
  -27.3897  -29.1903   18.7818 C   0  0  0  0  0  0  0  0  0  0  0  0
  -25.1661  -17.9439   26.0981 C   0  0  0  0  0  0  0  0  0  0  0  0
  -26.6822  -27.9041   18.3671 C   0  0  0  0  0  0  0  0  0  0  0  0
  -24.0876  -18.8962   25.5764 C   0  0  0  0  0  0  0  0  0  0  0  0
  -25.8738  -17.2106   24.9601 C   0  0  0  0  0  0  0  0  0  0  0  0
  -23.9057  -17.4663   23.5005 C   0  0  0  0  0  0  0  0  0  0  0  0
  -26.1512  -27.1474   19.5906 C   0  0  1  0  0  0  0  0  0  0  0  0
  -28.7955  -24.6581   20.7060 C   0  0  1  0  0  0  0  0  0  0  0  0
  -23.1207  -18.1795   24.6136 C   0  0  2  0  0  0  0  0  0  0  0  0
  -23.2330   -9.1997   21.5404 C   0  0  0  0  0  0  0  0  0  0  0  0
  -23.5396  -12.6589   25.1173 C   0  0  0  0  0  0  0  0  0  0  0  0
  -35.5807  -21.7223   18.3938 C   0  0  0  0  0  0  0  0  0  0  0  0
  -30.0515  -24.6784   16.2583 C   0  0  0  0  0  0  0  0  0  0  0  0
  -32.1708  -23.4544   15.7303 C   0  0  0  0  0  0  0  0  0  0  0  0
  -32.2629  -25.6620   16.8882 C   0  0  0  0  0  0  0  0  0  0  0  0
  -33.8220  -21.0478   21.6996 C   0  0  0  0  0  0  0  0  0  0  0  0
  -24.0379  -13.9594   20.2711 C   0  0  0  0  0  0  0  0  0  0  0  0
  -26.9314  -16.4075   20.3476 C   0  0  0  0  0  0  0  0  0  0  0  0
  -27.1910  -17.8547   19.9585 C   0  0  0  0  0  0  0  0  0  1  0  0
  -31.4532  -23.6302   18.1563 C   0  0  1  0  0  0  0  0  0  0  0  0
  -34.5868  -21.9853   19.5145 C   0  0  2  0  0  0  0  0  0  0  0  0
  -31.4651  -24.3447   16.7754 C   0  0  0  0  0  0  0  0  0  0  0  0
  -22.4082  -20.4160   23.8573 N   0  0  0  0  0  0  0  0  0  0  0  0
  -22.0770  -19.1286   24.0552 N   0  0  0  0  0  0  0  0  0  0  0  0
  -29.6336  -23.8486   19.8192 N   0  0  0  0  0  0  0  0  0  0  0  0
  -24.8955  -16.5522   24.0917 N   0  0  0  0  0  0  0  0  0  0  0  0
  -20.2934  -17.5838   23.8479 N   0  0  0  0  0  0  0  0  0  0  0  0
  -18.4994  -21.4523   22.3605 N   0  0  0  0  0  0  0  0  0  0  0  0
  -23.9684  -14.6387   23.0712 N   0  0  0  0  0  0  0  0  0  0  0  0
  -27.2274  -26.4463   20.2574 N   0  0  0  0  0  0  0  0  0  0  0  0
  -25.3029  -14.6400   20.4302 N   0  0  0  0  0  0  0  0  0  0  0  0
  -32.7793  -23.3262   18.6832 N   0  0  0  0  0  0  0  0  0  0  0  0
  -34.7251  -20.9025   20.5290 N   0  3  0  0  0  0  0  0  0  0  0  0
  -18.0721  -19.2358   22.7646 O   0  0  0  0  0  0  0  0  0  0  0  0
  -27.2248  -24.5203   18.9485 O   0  0  0  0  0  0  0  0  0  0  0  0
  -31.1866  -25.5599   19.5096 O   0  0  0  0  0  0  0  0  0  0  0  0
  -24.6551  -16.7000   19.5719 O   0  0  0  0  0  0  0  0  0  0  0  0
  -32.4638  -21.0358   18.8601 O   0  0  0  0  0  0  0  0  0  0  0  0
  -25.8432  -14.4705   24.4271 O   0  0  0  0  0  0  0  0  0  0  0  0
  -21.0925  -26.3716   22.0276 O   0  0  0  0  0  0  0  0  0  0  0  0
  -26.3422  -18.7102   20.7228 O   0  0  0  0  0  0  0  0  0  1  0  0
  -16.6861  -29.2612   23.6517 F   0  0  0  0  0  0  0  0  0  0  0  0
  -18.5516  -25.6732   21.1918 F   0  0  0  0  0  0  0  0  0  0  0  0
  1  2  1  0  0  0  0
  1  5  2  0  0  0  0
  2  6  2  0  0  0  0
  3  8  2  0  0  0  0
  3 17  1  0  0  0  0
  4  9  1  0  0  0  0
  4 17  2  0  0  0  0
  5 19  1  0  0  0  0
  6 21  1  0  0  0  0
  7 10  2  0  0  0  0
  7 20  1  0  0  0  0
  8 27  1  0  0  0  0
  9 27  2  0  0  0  0
 10 28  1  0  0  0  0
 11 12  2  0  0  0  0
 11 29  1  0  0  0  0
 12 30  1  0  0  0  0
 13 22  1  0  0  0  0
 13 28  2  0  0  0  0
 14 23  1  0  0  0  0
 14 24  2  0  0  0  0
 15 23  2  0  0  0  0
 15 25  1  0  0  0  0
 16 30  2  0  0  0  0
 16 31  1  0  0  0  0
 17 32  1  0  0  0  0
 18 32  1  0  0  0  0
 18 33  2  0  0  0  0
 18 34  1  0  0  0  0
 19 21  2  0  0  0  0
 19 40  1  0  0  0  0
 20 22  2  0  0  0  0
 20 41  1  0  0  0  0
 21 49  1  0  0  0  0
 22 42  1  0  0  0  0
 23 52  1  0  0  0  0
 24 26  1  0  0  0  0
 24 53  1  0  0  0  0
 25 26  2  0  0  0  0
 25 59  1  0  0  0  0
 26 71  1  0  0  0  0
 27 82  1  0  0  0  0
 28 83  1  0  0  0  0
 29 31  2  0  0  0  0
 29 82  1  0  0  0  0
 30 84  1  0  0  0  0
 31 85  1  0  0  0  0
 32 65  2  0  0  0  0
 33 66  1  0  0  0  0
 33 69  1  0  0  0  0
 34 70  1  0  0  0  0
 34 76  2  0  0  0  0
 35 50  1  0  0  0  0
 35 72  1  0  0  0  0
 35 77  2  0  0  0  0
 36 62  1  0  0  0  0
 36 67  1  0  0  0  0
 36 78  2  0  0  0  0
 37 60  1  0  0  0  0
 37 73  1  0  0  0  0
 37 79  2  0  0  0  0
 38 63  1  0  0  0  0
 38 74  1  0  0  0  0
 38 80  2  0  0  0  0
 39 68  1  0  0  0  0
 39 71  1  0  0  0  0
 39 81  2  0  0  0  0
 40 43  1  0  0  0  0
 41 50  1  0  0  0  0
 42 67  1  0  0  0  0
 43 45  1  0  0  0  0
 44 46  1  0  0  0  0
 44 47  1  0  0  0  0
 45 49  1  0  0  0  0
 46 51  1  0  0  0  0
 47 68  1  0  0  0  0
 48 51  1  0  0  0  0
 48 68  1  0  0  0  0
 49 72  1  0  0  0  0
 50 67  1  0  0  0  0
 51 66  1  0  0  0  0
 54 63  1  0  0  0  0
 55 64  1  0  0  0  0
 56 64  1  0  0  0  0
 57 64  1  0  0  0  0
 58 75  1  0  0  0  0
 59 73  1  0  0  0  0
 60 61  1  0  0  0  0
 61 83  1  0  0  0  0
 62 64  1  0  0  0  0
 62 74  1  0  0  0  0
 63 75  1  0  0  0  0
 65 66  1  0  0  0  0
M  CHG  1  75   1
M  ISO  4  39 100  61 101  71 100  83 101
M  END
> <Batch ID>
0051

> <Smiles>
CNC(C)C(=O)NC(C(=O)N1Cc2cc([101O:1][101CH2:1]CC(=O)NCc3cc(C)cc(C)c3[100NH:0][100C:0](=O)N3CCCC(n4nc(-c5ccc(Oc6ccc(F)cc6F)cc5)c(C(N)=O)c4N)C3)ccc2CC1C(=O)NC1CCCc2ccccc21)C(C)(C)C

> <Shape>
0.202

> <Color>
0.058

> <Negative vol penalty>
0.000

$$$$

  -OEChem-04042322373D

 85 93  0     1  0  0  0  0  0999 V2000
  -21.1752  -35.2561   21.6408 C   0  0  0  0  0  0  0  0  0  0  0  0
  -22.3063  -34.5599   21.2268 C   0  0  0  0  0  0  0  0  0  0  0  0
  -24.1942  -12.4880   21.5231 C   0  0  0  0  0  0  0  0  0  0  0  0
  -25.1747  -12.0681   19.3554 C   0  0  0  0  0  0  0  0  0  0  0  0
  -20.3707  -34.7371   22.6544 C   0  0  0  0  0  0  0  0  0  0  0  0
  -22.6342  -33.3448   21.8271 C   0  0  0  0  0  0  0  0  0  0  0  0
  -25.2193  -28.4885   19.1364 C   0  0  0  0  0  0  0  0  0  0  0  0
  -32.2511  -19.6406   20.4565 C   0  0  0  0  0  0  0  0  0  0  0  0
  -23.3055  -11.4313   21.3259 C   0  0  0  0  0  0  0  0  0  0  0  0
  -24.2860  -11.0113   19.1581 C   0  0  0  0  0  0  0  0  0  0  0  0
  -26.5359  -28.0324   19.0897 C   0  0  0  0  0  0  0  0  0  0  0  0
  -23.3694   -8.0556   21.5094 C   0  0  0  0  0  0  0  0  0  0  0  0
  -32.8199  -20.1161   21.6380 C   0  0  0  0  0  0  0  0  0  0  0  0
  -23.1757   -7.1656   22.5658 C   0  0  0  0  0  0  0  0  0  0  0  0
  -26.0781  -26.5408   20.9296 C   0  0  0  0  0  0  0  0  0  0  0  0
  -31.5179  -21.8768   19.9096 C   0  0  0  0  0  0  0  0  0  0  0  0
  -20.8250   -7.7220   22.6036 C   0  0  0  0  0  0  0  0  0  0  0  0
  -25.1288  -12.8065   20.5378 C   0  0  0  0  0  0  0  0  0  0  0  0
  -27.3238  -13.8372   21.3300 C   0  0  0  0  0  0  0  0  0  0  0  0
  -20.6836  -33.5103   23.2607 C   0  0  0  0  0  0  0  0  0  0  0  0
  -24.3237  -27.9812   20.0888 C   0  0  0  0  0  0  0  0  0  0  0  0
  -21.8339  -32.8095   22.8507 C   0  0  0  0  0  0  0  0  0  0  0  0
  -24.7500  -26.9903   20.9846 C   0  0  0  0  0  0  0  0  0  0  0  0
  -31.6001  -20.5210   19.5922 C   0  0  0  0  0  0  0  0  0  0  0  0
  -32.0866  -22.3523   21.0911 C   0  0  0  0  0  0  0  0  0  0  0  0
  -23.3514  -10.6928   20.1434 C   0  0  0  0  0  0  0  0  0  0  0  0
  -26.9663  -27.0605   19.9882 C   0  0  0  0  0  0  0  0  0  0  0  0
  -22.2908   -8.7788   21.0001 C   0  0  0  0  0  0  0  0  0  0  0  0
  -21.9036   -6.9988   23.1129 C   0  0  0  0  0  0  0  0  0  0  0  0
  -32.7377  -21.4719   21.9554 C   0  0  0  0  0  0  0  0  0  0  0  0
  -21.0186   -8.6120   21.5472 C   0  0  0  0  0  0  0  0  0  0  0  0
  -26.0467  -13.8985   20.7408 C   0  0  0  0  0  0  0  0  0  0  0  0
  -27.7843  -15.1304   21.2869 C   0  0  0  0  0  0  0  0  0  0  0  0
  -28.0306  -12.7118   21.8682 C   0  0  0  0  0  0  0  0  0  0  0  0
  -22.6703  -29.2275   22.5006 C   0  0  0  0  0  0  0  0  0  0  0  0
  -21.3836  -26.2532   22.6438 C   0  0  0  0  0  0  0  0  0  0  0  0
  -30.0773  -25.2411   20.6943 C   0  0  0  0  0  0  0  0  0  0  0  0
  -21.7006  -22.9237   21.9653 C   0  0  0  0  0  0  0  0  0  0  0  0
  -28.5226  -19.9453   18.5633 C   0  0  0  0  0  0  0  0  0  0  0  0
  -19.8101  -33.0125   24.3849 C   0  0  0  0  0  0  0  0  0  0  0  0
  -22.8994  -28.4644   20.1087 C   0  0  0  0  0  0  0  0  0  0  0  0
  -23.8221  -26.3988   22.0130 C   0  0  0  0  0  0  0  0  0  0  0  0
  -20.0195  -31.5360   24.7110 C   0  0  0  0  0  0  0  0  0  0  0  0
  -25.3871  -19.4433   20.1738 C   0  0  0  0  0  0  0  0  0  0  0  0
  -21.5080  -31.2146   24.7990 C   0  0  0  0  0  0  0  0  0  0  0  0
  -25.3821  -17.9505   20.5076 C   0  0  0  0  0  0  0  0  0  0  0  0
  -26.0708  -19.7204   18.8367 C   0  0  0  0  0  0  0  0  0  0  0  0
  -27.4265  -17.6728   19.0440 C   0  0  0  0  0  0  0  0  0  0  0  0
  -22.2090  -31.4762   23.4604 C   0  0  1  0  0  0  0  0  0  0  0  0
  -22.2144  -28.2497   21.4548 C   0  0  1  0  0  0  0  0  0  0  0  0
  -26.7972  -17.3494   20.4099 C   0  0  2  0  0  0  0  0  0  0  0  0
  -20.5020  -20.7355   22.2349 C   0  0  0  0  0  0  0  0  0  0  0  0
  -22.1515  -26.1991   25.5963 C   0  0  0  0  0  0  0  0  0  0  0  0
  -21.8152  -23.7183   25.5665 C   0  0  0  0  0  0  0  0  0  0  0  0
  -19.8984  -25.2410   25.0866 C   0  0  0  0  0  0  0  0  0  0  0  0
  -29.8255  -23.6191   22.5805 C   0  0  0  0  0  0  0  0  0  0  0  0
  -21.5700  -22.5021   19.0388 C   0  0  0  0  0  0  0  0  0  0  0  0
  -30.9923  -20.0125   18.3289 C   0  0  0  0  0  0  0  0  0  0  0  0
  -31.9956  -23.8119   21.4308 C   0  0  0  0  0  0  0  0  0  0  0  0
  -28.6244  -25.6170   20.8955 C   0  0  0  0  0  0  0  0  0  1  0  0
  -21.7294  -24.9724   23.3640 C   0  0  1  0  0  0  0  0  0  0  0  0
  -20.7466  -21.9305   21.3266 C   0  0  2  0  0  0  0  0  0  0  0  0
  -21.4169  -25.0450   24.8854 C   0  0  0  0  0  0  0  0  0  0  0  0
  -25.7170  -15.1330   20.3519 N   0  0  0  0  0  0  0  0  0  0  0  0
  -26.7935  -15.8594   20.6977 N   0  0  0  0  0  0  0  0  0  0  0  0
  -22.4410  -26.9083   21.9967 N   0  0  0  0  0  0  0  0  0  0  0  0
  -27.4090  -19.1252   18.8097 N   0  0  0  0  0  0  0  0  0  0  0  0
  -28.9359  -15.7038   21.6959 N   0  0  0  0  0  0  0  0  0  0  0  0
  -27.4117  -11.4548   21.8326 N   0  0  0  0  0  0  0  0  0  0  0  0
  -21.9403  -30.4004   22.5305 N   0  0  0  0  0  0  0  0  0  0  0  0
  -21.0263  -23.9055   22.6599 N   0  0  0  0  0  0  0  0  0  0  0  0
  -29.7544  -19.3023   18.5613 N   0  0  0  0  0  0  0  0  0  0  0  0
  -30.6105  -24.2635   21.5349 N   0  0  0  0  0  0  0  0  0  0  0  0
  -21.3030  -21.4341   20.0363 N   0  3  0  0  0  0  0  0  0  0  0  0
  -29.1703  -12.8206   22.3809 O   0  0  0  0  0  0  0  0  0  0  0  0
  -23.6135  -28.9386   23.2276 O   0  0  0  0  0  0  0  0  0  0  0  0
  -20.2170  -26.6539   22.6488 O   0  0  0  0  0  0  0  0  0  0  0  0
  -30.7173  -25.8040   19.8007 O   0  0  0  0  0  0  0  0  0  0  0  0
  -22.9221  -22.8351   21.8617 O   0  0  0  0  0  0  0  0  0  0  0  0
  -28.4266  -21.1612   18.3655 O   0  0  0  0  0  0  0  0  0  0  0  0
  -22.4845   -9.6614   19.9507 O   0  0  0  0  0  0  0  0  0  0  0  0
  -28.2511  -26.6140   19.9452 O   0  0  0  0  0  0  0  0  0  1  0  0
  -21.7175   -6.1430   24.1264 F   0  0  0  0  0  0  0  0  0  0  0  0
  -33.2859  -21.9192   23.0938 F   0  0  0  0  0  0  0  0  0  0  0  0
  -19.9783   -9.3031   21.0614 F   0  0  0  0  0  0  0  0  0  0  0  0
  1  2  1  0  0  0  0
  1  5  2  0  0  0  0
  2  6  2  0  0  0  0
  3  9  2  0  0  0  0
  3 18  1  0  0  0  0
  4 10  1  0  0  0  0
  4 18  2  0  0  0  0
  5 20  1  0  0  0  0
  6 22  1  0  0  0  0
  7 11  2  0  0  0  0
  7 21  1  0  0  0  0
  8 13  2  0  0  0  0
  8 24  1  0  0  0  0
  9 26  1  0  0  0  0
 10 26  2  0  0  0  0
 11 27  1  0  0  0  0
 12 14  2  0  0  0  0
 12 28  1  0  0  0  0
 13 30  1  0  0  0  0
 14 29  1  0  0  0  0
 15 23  1  0  0  0  0
 15 27  2  0  0  0  0
 16 24  2  0  0  0  0
 16 25  1  0  0  0  0
 17 29  2  0  0  0  0
 17 31  1  0  0  0  0
 18 32  1  0  0  0  0
 19 32  1  0  0  0  0
 19 33  2  0  0  0  0
 19 34  1  0  0  0  0
 20 22  2  0  0  0  0
 20 40  1  0  0  0  0
 21 23  2  0  0  0  0
 21 41  1  0  0  0  0
 22 49  1  0  0  0  0
 23 42  1  0  0  0  0
 24 58  1  0  0  0  0
 25 30  2  0  0  0  0
 25 59  1  0  0  0  0
 26 81  1  0  0  0  0
 27 82  1  0  0  0  0
 28 31  2  0  0  0  0
 28 81  1  0  0  0  0
 29 83  1  0  0  0  0
 30 84  1  0  0  0  0
 31 85  1  0  0  0  0
 32 64  2  0  0  0  0
 33 65  1  0  0  0  0
 33 68  1  0  0  0  0
 34 69  1  0  0  0  0
 34 75  2  0  0  0  0
 35 50  1  0  0  0  0
 35 70  1  0  0  0  0
 35 76  2  0  0  0  0
 36 61  1  0  0  0  0
 36 66  1  0  0  0  0
 36 77  2  0  0  0  0
 37 60  1  0  0  0  0
 37 73  1  0  0  0  0
 37 78  2  0  0  0  0
 38 62  1  0  0  0  0
 38 71  1  0  0  0  0
 38 79  2  0  0  0  0
 39 67  1  0  0  0  0
 39 72  1  0  0  0  0
 39 80  2  0  0  0  0
 40 43  1  0  0  0  0
 41 50  1  0  0  0  0
 42 66  1  0  0  0  0
 43 45  1  0  0  0  0
 44 46  1  0  0  0  0
 44 47  1  0  0  0  0
 45 49  1  0  0  0  0
 46 51  1  0  0  0  0
 47 67  1  0  0  0  0
 48 51  1  0  0  0  0
 48 67  1  0  0  0  0
 49 70  1  0  0  0  0
 50 66  1  0  0  0  0
 51 65  1  0  0  0  0
 52 62  1  0  0  0  0
 53 63  1  0  0  0  0
 54 63  1  0  0  0  0
 55 63  1  0  0  0  0
 56 73  1  0  0  0  0
 57 74  1  0  0  0  0
 58 72  1  0  0  0  0
 59 73  1  0  0  0  0
 60 82  1  0  0  0  0
 61 63  1  0  0  0  0
 61 71  1  0  0  0  0
 62 74  1  0  0  0  0
 64 65  1  0  0  0  0
M  CHG  1  74   1
M  ISO  4  39 100  60 101  72 100  82 101
M  END
> <Batch ID>
0051

> <Smiles>
CNC(C)C(=O)NC(C(=O)N1Cc2cc([101O:1][101CH2:1]C(=O)N(C)Cc3cc(C[100NH:0][100C:0](=O)N4CCCC(n5nc(-c6ccc(Oc7ccc(F)cc7F)cc6)c(C(N)=O)c5N)C4)ccc3F)ccc2CC1C(=O)NC1CCCc2ccccc21)C(C)(C)C

> <Shape>
0.213

> <Color>
0.088

> <Negative vol penalty>
0.000

$$$$

  -OEChem-04042322373D

 89 97  0     1  0  0  0  0  0999 V2000
  -29.7616  -11.5827   13.6604 C   0  0  0  0  0  0  0  0  0  0  0  0
  -29.7548  -12.4765   14.7265 C   0  0  0  0  0  0  0  0  0  0  0  0
  -23.2982  -29.9518   20.7923 C   0  0  0  0  0  0  0  0  0  0  0  0
  -25.6612  -30.3061   21.1497 C   0  0  0  0  0  0  0  0  0  0  0  0
  -28.5588  -11.0809   13.1652 C   0  0  0  0  0  0  0  0  0  0  0  0
  -28.5449  -12.8698   15.2974 C   0  0  0  0  0  0  0  0  0  0  0  0
  -28.6797  -12.8247   20.3594 C   0  0  0  0  0  0  0  0  0  0  0  0
  -23.0085  -30.8318   21.8350 C   0  0  0  0  0  0  0  0  0  0  0  0
  -25.3715  -31.1862   22.1924 C   0  0  0  0  0  0  0  0  0  0  0  0
  -29.3160  -13.8937   20.9890 C   0  0  0  0  0  0  0  0  0  0  0  0
  -24.4534  -30.9846   25.4401 C   0  0  0  0  0  0  0  0  0  0  0  0
  -25.1860  -30.8551   26.6199 C   0  0  0  0  0  0  0  0  0  0  0  0
  -27.1704  -14.9069   21.4237 C   0  0  0  0  0  0  0  0  0  0  0  0
  -30.2462  -22.0233   20.7505 C   0  0  0  0  0  0  0  0  0  0  0  0
  -31.0478  -24.2656   20.3423 C   0  0  0  0  0  0  0  0  0  0  0  0
  -25.9948  -33.1175   26.3661 C   0  0  0  0  0  0  0  0  0  0  0  0
  -24.6246  -29.6889   20.4497 C   0  0  0  0  0  0  0  0  0  0  0  0
  -25.0830  -29.0976   18.0109 C   0  0  0  0  0  0  0  0  0  0  0  0
  -27.3341  -11.4608   13.7365 C   0  0  0  0  0  0  0  0  0  0  0  0
  -27.2823  -12.7941   20.2475 C   0  0  0  0  0  0  0  0  0  0  0  0
  -27.3245  -12.3736   14.8085 C   0  0  0  0  0  0  0  0  0  0  0  0
  -26.5187  -13.8352   20.7946 C   0  0  0  0  0  0  0  0  0  0  0  0
  -31.4469  -21.7099   21.3873 C   0  0  0  0  0  0  0  0  0  0  0  0
  -32.4481  -22.6744   21.5018 C   0  0  0  0  0  0  0  0  0  0  0  0
  -30.0467  -23.3011   20.2279 C   0  0  0  0  0  0  0  0  0  0  0  0
  -24.0452  -31.4490   22.5351 C   0  0  0  0  0  0  0  0  0  0  0  0
  -28.5615  -14.9364   21.5187 C   0  0  0  0  0  0  0  0  0  0  0  0
  -24.4914  -32.1806   24.7232 C   0  0  0  0  0  0  0  0  0  0  0  0
  -25.9567  -31.9215   27.0829 C   0  0  0  0  0  0  0  0  0  0  0  0
  -32.2486  -23.9523   20.9793 C   0  0  0  0  0  0  0  0  0  0  0  0
  -25.2621  -33.2471   25.1862 C   0  0  0  0  0  0  0  0  0  0  0  0
  -24.9245  -28.7795   19.3730 C   0  0  0  0  0  0  0  0  0  0  0  0
  -25.3557  -27.8946   17.4068 C   0  0  0  0  0  0  0  0  0  0  0  0
  -24.9921  -30.3670   17.3506 C   0  0  0  0  0  0  0  0  0  0  0  0
  -25.2260  -12.7718   17.8236 C   0  0  0  0  0  0  0  0  0  0  0  0
  -23.0440  -12.3564   20.1876 C   0  0  0  0  0  0  0  0  0  0  0  0
  -30.5441  -18.3121   20.9311 C   0  0  0  0  0  0  0  0  0  0  0  0
  -22.2289  -12.7442   23.4788 C   0  0  0  0  0  0  0  0  0  0  0  0
  -27.7313  -22.7802   19.3829 C   0  0  0  0  0  0  0  0  0  0  0  0
  -26.0569  -10.9284   13.1365 C   0  0  0  0  0  0  0  0  0  0  0  0
  -26.6097  -11.6208   19.5891 C   0  0  0  0  0  0  0  0  0  0  0  0
  -25.0145  -13.8399   20.7186 C   0  0  0  0  0  0  0  0  0  0  0  0
  -24.8393  -11.1054   14.0401 C   0  0  0  0  0  0  0  0  0  0  0  0
  -24.5346  -23.1995   17.8722 C   0  0  0  0  0  0  0  0  0  0  0  0
  -24.7977  -12.5202   14.6088 C   0  0  0  0  0  0  0  0  0  0  0  0
  -24.2889  -24.7077   17.9562 C   0  0  0  0  0  0  0  0  0  0  0  0
  -25.2639  -22.6740   19.1073 C   0  0  0  0  0  0  0  0  0  0  0  0
  -26.2628  -24.8871   19.5242 C   0  0  0  0  0  0  0  0  0  0  0  0
  -26.0338  -12.8049   15.4705 C   0  0  1  0  0  0  0  0  0  0  0  0
  -25.2092  -11.9445   19.0778 C   0  0  1  0  0  0  0  0  0  0  0  0
  -25.5884  -25.4735   18.2732 C   0  0  2  0  0  0  0  0  0  0  0  0
  -20.3612  -12.3431   25.1062 C   0  0  0  0  0  0  0  0  0  0  0  0
  -21.5427  -14.7582   19.0529 C   0  0  0  0  0  0  0  0  0  0  0  0
  -20.2716  -14.8925   21.2057 C   0  0  0  0  0  0  0  0  0  0  0  0
  -20.0822  -12.8598   19.7722 C   0  0  0  0  0  0  0  0  0  0  0  0
  -32.5283  -19.3875   19.8461 C   0  0  0  0  0  0  0  0  0  0  0  0
  -23.8945  -10.9319   25.1221 C   0  0  0  0  0  0  0  0  0  0  0  0
  -34.9383  -21.9683   24.3292 C   0  0  0  0  0  0  0  0  0  0  0  0
  -33.0139  -23.5464   24.2460 C   0  0  0  0  0  0  0  0  0  0  0  0
  -31.6388  -20.3282   21.9424 C   0  0  0  0  0  0  0  0  0  0  0  0
  -33.7404  -22.3594   22.1811 C   0  0  0  0  0  0  0  0  0  0  0  0
  -29.5757  -18.3580   22.1085 C   0  0  0  0  0  0  0  0  0  0  0  0
  -28.5306  -17.2502   22.0674 C   0  0  0  0  0  0  0  0  0  1  0  0
  -22.2201  -13.2765   21.0558 C   0  0  1  0  0  0  0  0  0  0  0  0
  -21.6324  -11.7809   24.4891 C   0  0  2  0  0  0  0  0  0  0  0  0
  -21.0576  -13.9479   20.2715 C   0  0  0  0  0  0  0  0  0  0  0  0
  -25.0831  -27.4765   19.6201 N   0  0  0  0  0  0  0  0  0  0  0  0
  -25.3440  -26.9652   18.4050 N   0  0  0  0  0  0  0  0  0  0  0  0
  -24.4037  -12.6737   20.0595 N   0  0  0  0  0  0  0  0  0  0  0  0
  -26.4870  -23.4443   19.3432 N   0  0  0  0  0  0  0  0  0  0  0  0
  -25.6018  -27.5516   16.1246 N   0  0  0  0  0  0  0  0  0  0  0  0
  -24.7046  -31.5019   18.1212 N   0  0  0  0  0  0  0  0  0  0  0  0
  -28.8269  -23.6198   19.5811 N   0  0  0  0  0  0  0  0  0  0  0  0
  -25.8983  -12.1825   16.7699 N   0  0  0  0  0  0  0  0  0  0  0  0
  -21.7880  -12.4802   22.1993 N   0  0  0  0  0  0  0  0  0  0  0  0
  -31.5318  -19.3031   20.9067 N   0  0  0  0  0  0  0  0  0  0  0  0
  -22.6063  -11.5099   25.5841 N   0  3  0  0  0  0  0  0  0  0  0  0
  -33.6267  -22.2984   23.6637 N   0  3  0  0  0  0  0  0  0  0  0  0
  -25.1445  -30.4888   16.1115 O   0  0  0  0  0  0  0  0  0  0  0  0
  -24.6690  -13.8632   17.8122 O   0  0  0  0  0  0  0  0  0  0  0  0
  -22.5027  -11.3877   19.6490 O   0  0  0  0  0  0  0  0  0  0  0  0
  -30.4385  -17.4390   20.0658 O   0  0  0  0  0  0  0  0  0  0  0  0
  -23.0052  -13.6435   23.7938 O   0  0  0  0  0  0  0  0  0  0  0  0
  -27.8211  -21.5601   19.2237 O   0  0  0  0  0  0  0  0  0  0  0  0
  -23.7628  -32.3079   23.5524 O   0  0  0  0  0  0  0  0  0  0  0  0
  -29.1800  -15.9813   22.1331 O   0  0  0  0  0  0  0  0  0  1  0  0
  -26.6590  -31.7975   28.2167 F   0  0  0  0  0  0  0  0  0  0  0  0
  -33.2033  -24.8871   21.0863 F   0  0  0  0  0  0  0  0  0  0  0  0
  -25.3017  -34.3989   24.5024 F   0  0  0  0  0  0  0  0  0  0  0  0
  1  2  1  0  0  0  0
  1  5  2  0  0  0  0
  2  6  2  0  0  0  0
  3  8  2  0  0  0  0
  3 17  1  0  0  0  0
  4  9  1  0  0  0  0
  4 17  2  0  0  0  0
  5 19  1  0  0  0  0
  6 21  1  0  0  0  0
  7 10  2  0  0  0  0
  7 20  1  0  0  0  0
  8 26  1  0  0  0  0
  9 26  2  0  0  0  0
 10 27  1  0  0  0  0
 11 12  2  0  0  0  0
 11 28  1  0  0  0  0
 12 29  1  0  0  0  0
 13 22  1  0  0  0  0
 13 27  2  0  0  0  0
 14 23  1  0  0  0  0
 14 25  2  0  0  0  0
 15 25  1  0  0  0  0
 15 30  2  0  0  0  0
 16 29  2  0  0  0  0
 16 31  1  0  0  0  0
 17 32  1  0  0  0  0
 18 32  1  0  0  0  0
 18 33  2  0  0  0  0
 18 34  1  0  0  0  0
 19 21  2  0  0  0  0
 19 40  1  0  0  0  0
 20 22  2  0  0  0  0
 20 41  1  0  0  0  0
 21 49  1  0  0  0  0
 22 42  1  0  0  0  0
 23 24  2  0  0  0  0
 23 60  1  0  0  0  0
 24 30  1  0  0  0  0
 24 61  1  0  0  0  0
 25 73  1  0  0  0  0
 26 85  1  0  0  0  0
 27 86  1  0  0  0  0
 28 31  2  0  0  0  0
 28 85  1  0  0  0  0
 29 87  1  0  0  0  0
 30 88  1  0  0  0  0
 31 89  1  0  0  0  0
 32 67  2  0  0  0  0
 33 68  1  0  0  0  0
 33 71  1  0  0  0  0
 34 72  1  0  0  0  0
 34 79  2  0  0  0  0
 35 50  1  0  0  0  0
 35 74  1  0  0  0  0
 35 80  2  0  0  0  0
 36 64  1  0  0  0  0
 36 69  1  0  0  0  0
 36 81  2  0  0  0  0
 37 62  1  0  0  0  0
 37 76  1  0  0  0  0
 37 82  2  0  0  0  0
 38 65  1  0  0  0  0
 38 75  1  0  0  0  0
 38 83  2  0  0  0  0
 39 70  1  0  0  0  0
 39 73  1  0  0  0  0
 39 84  2  0  0  0  0
 40 43  1  0  0  0  0
 41 50  1  0  0  0  0
 42 69  1  0  0  0  0
 43 45  1  0  0  0  0
 44 46  1  0  0  0  0
 44 47  1  0  0  0  0
 45 49  1  0  0  0  0
 46 51  1  0  0  0  0
 47 70  1  0  0  0  0
 48 51  1  0  0  0  0
 48 70  1  0  0  0  0
 49 74  1  0  0  0  0
 50 69  1  0  0  0  0
 51 68  1  0  0  0  0
 52 65  1  0  0  0  0
 53 66  1  0  0  0  0
 54 66  1  0  0  0  0
 55 66  1  0  0  0  0
 56 76  1  0  0  0  0
 57 77  1  0  0  0  0
 58 78  1  0  0  0  0
 59 78  1  0  0  0  0
 60 76  1  0  0  0  0
 61 78  1  0  0  0  0
 62 63  1  0  0  0  0
 63 86  1  0  0  0  0
 64 66  1  0  0  0  0
 64 75  1  0  0  0  0
 65 77  1  0  0  0  0
 67 68  1  0  0  0  0
M  CHG  2  77   1  78   1
M  ISO  4  39 100  63 101  73 100  86 101
M  END
> <Batch ID>
0051

> <Smiles>
CNC(C)C(=O)NC(C(=O)N1Cc2cc([101O:1][101CH2:1]CC(=O)N(C)Cc3cc([100NH:0][100C:0](=O)N4CCCC(n5nc(-c6ccc(Oc7ccc(F)cc7F)cc6)c(C(N)=O)c5N)C4)cc(F)c3CN(C)C)ccc2CC1C(=O)NC1CCCc2ccccc21)C(C)(C)C

> <Shape>
0.220

> <Color>
0.070

> <Negative vol penalty>
0.000

$$$$

  -OEChem-04042322373D

 88 97  0     1  0  0  0  0  0999 V2000
  -16.7743  -26.8001   21.5790 C   0  0  0  0  0  0  0  0  0  0  0  0
  -18.0174  -26.6368   20.9760 C   0  0  0  0  0  0  0  0  0  0  0  0
  -31.7135  -21.6650   16.0189 C   0  0  0  0  0  0  0  0  0  0  0  0
  -26.4280  -12.6099   21.2015 C   0  0  0  0  0  0  0  0  0  0  0  0
  -24.3020  -13.5772   20.5841 C   0  0  0  0  0  0  0  0  0  0  0  0
  -16.6199  -27.7170   22.6180 C   0  0  0  0  0  0  0  0  0  0  0  0
  -19.1065  -27.3912   21.4109 C   0  0  0  0  0  0  0  0  0  0  0  0
  -23.3069  -24.6125   21.9407 C   0  0  0  0  0  0  0  0  0  0  0  0
  -31.7029  -23.0225   15.6987 C   0  0  0  0  0  0  0  0  0  0  0  0
  -30.6992  -21.1273   16.8113 C   0  0  0  0  0  0  0  0  0  0  0  0
  -26.0237  -11.3840   20.6732 C   0  0  0  0  0  0  0  0  0  0  0  0
  -23.8977  -12.3513   20.0556 C   0  0  0  0  0  0  0  0  0  0  0  0
  -24.0056  -24.2868   20.7790 C   0  0  0  0  0  0  0  0  0  0  0  0
  -25.4134   -7.9048   19.8093 C   0  0  0  0  0  0  0  0  0  0  0  0
  -25.6655   -6.7577   20.5618 C   0  0  0  0  0  0  0  0  0  0  0  0
  -25.5706  -26.0666   21.2284 C   0  0  0  0  0  0  0  0  0  0  0  0
  -24.3183   -7.6424   22.3616 C   0  0  0  0  0  0  0  0  0  0  0  0
  -25.5671  -13.7065   21.1570 C   0  0  0  0  0  0  0  0  0  0  0  0
  -26.3577  -15.2436   23.0332 C   0  0  0  0  0  0  0  0  0  0  0  0
  -17.7099  -28.4760   23.0723 C   0  0  0  0  0  0  0  0  0  0  0  0
  -23.7292  -25.6765   22.7506 C   0  0  0  0  0  0  0  0  0  0  0  0
  -18.9662  -28.3201   22.4560 C   0  0  0  0  0  0  0  0  0  0  0  0
  -24.8770  -26.4022   22.4012 C   0  0  0  0  0  0  0  0  0  0  0  0
  -30.6780  -23.8424   16.1710 C   0  0  0  0  0  0  0  0  0  0  0  0
  -29.6637  -23.3048   16.9634 C   0  0  0  0  0  0  0  0  0  0  0  0
  -29.6744  -21.9472   17.2836 C   0  0  0  0  0  0  0  0  0  0  0  0
  -24.7586  -11.2546   20.1002 C   0  0  0  0  0  0  0  0  0  0  0  0
  -25.1359  -25.0157   20.4211 C   0  0  0  0  0  0  0  0  0  0  0  0
  -24.6138   -8.9207   20.3330 C   0  0  0  0  0  0  0  0  0  0  0  0
  -25.1179   -6.6265   21.8379 C   0  0  0  0  0  0  0  0  0  0  0  0
  -24.0662   -8.7895   21.6091 C   0  0  0  0  0  0  0  0  0  0  0  0
  -25.9840  -14.9730   21.7032 C   0  0  0  0  0  0  0  0  0  0  0  0
  -26.6642  -16.5825   23.0381 C   0  0  0  0  0  0  0  0  0  0  0  0
  -27.4276  -24.3443   16.7032 C   0  0  0  0  0  0  0  0  0  0  0  0
  -26.4222  -14.3634   24.1631 C   0  0  0  0  0  0  0  0  0  0  0  0
  -22.4542  -28.4394   23.6693 C   0  0  0  0  0  0  0  0  0  0  0  0
  -25.1140  -28.6051   25.5188 C   0  0  0  0  0  0  0  0  0  0  0  0
  -28.3457  -27.6395   26.0392 C   0  0  0  0  0  0  0  0  0  0  0  0
  -28.5320  -20.0430   18.4893 C   0  0  0  0  0  0  0  0  0  0  0  0
  -17.4834  -29.4888   24.1667 C   0  0  0  0  0  0  0  0  0  0  0  0
  -22.9800  -25.9981   24.0146 C   0  0  0  0  0  0  0  0  0  0  0  0
  -25.3835  -27.5406   23.2473 C   0  0  0  0  0  0  0  0  0  0  0  0
  -26.5136  -25.4813   17.1328 C   0  0  0  0  0  0  0  0  0  0  0  0
  -18.7734  -29.9790   24.8194 C   0  0  0  0  0  0  0  0  0  0  0  0
  -25.1282  -20.2277   20.2511 C   0  0  0  0  0  0  0  0  0  0  0  0
  -19.8092  -30.3310   23.7564 C   0  0  0  0  0  0  0  0  0  0  0  0
  -25.3991  -19.2895   21.4249 C   0  0  0  0  0  0  0  0  0  0  0  0
  -27.9121  -25.9064   19.1275 C   0  0  0  0  0  0  0  0  0  0  0  0
  -26.4099  -20.8145   19.6731 C   0  0  0  0  0  0  0  0  0  0  0  0
  -28.7124  -24.6463   18.8363 C   0  0  0  0  0  0  0  0  0  0  0  0
  -27.1419  -18.4248   19.7680 C   0  0  0  0  0  0  0  0  0  0  0  0
  -20.1772  -29.1021   22.9164 C   0  0  1  0  0  0  0  0  0  0  0  0
  -23.2021  -27.4296   24.4930 C   0  0  1  0  0  0  0  0  0  0  0  0
  -26.6585  -18.4229   21.2266 C   0  0  2  0  0  0  0  0  0  0  0  0
  -26.4928  -25.7625   18.6200 C   0  0  2  0  0  0  0  0  0  1  0  0
  -30.2709  -27.9696   27.6147 C   0  0  0  0  0  0  0  0  0  0  0  0
  -25.6425  -31.3495   24.2943 C   0  0  0  0  0  0  0  0  0  0  0  0
  -27.9897  -31.2034   25.1529 C   0  0  0  0  0  0  0  0  0  0  0  0
  -26.0760  -31.2032   26.7530 C   0  0  0  0  0  0  0  0  0  0  0  0
  -28.4091  -24.7667   26.7476 C   0  0  0  0  0  0  0  0  0  0  0  0
  -26.5092  -29.1529   25.3384 C   0  0  1  0  0  0  0  0  0  0  0  0
  -29.0551  -27.1207   27.2769 C   0  0  2  0  0  0  0  0  0  0  0  0
  -30.6945  -25.2928   15.8108 C   0  0  0  0  0  0  0  0  0  0  0  0
  -26.5439  -30.7071   25.3675 C   0  0  0  0  0  0  0  0  0  0  0  0
  -26.0465  -16.0533   20.9201 N   0  0  0  0  0  0  0  0  0  0  0  0
  -26.4629  -17.0156   21.7606 N   0  0  0  0  0  0  0  0  0  0  0  0
  -28.6021  -24.1590   17.4516 N   0  0  0  0  0  0  0  0  0  0  0  0
  -24.6131  -27.8206   24.4702 N   0  0  0  0  0  0  0  0  0  0  0  0
  -27.3941  -19.7905   19.2940 N   0  0  0  0  0  0  0  0  0  0  0  0
  -27.0835  -17.4197   24.0106 N   0  0  0  0  0  0  0  0  0  0  0  0
  -25.2812  -14.2202   24.9644 N   0  0  0  0  0  0  0  0  0  0  0  0
  -28.6562  -21.3755   18.0869 N   0  0  0  0  0  0  0  0  0  0  0  0
  -21.0864  -28.2448   23.6463 N   0  0  0  0  0  0  0  0  0  0  0  0
  -27.3326  -28.5176   26.3615 N   0  0  0  0  0  0  0  0  0  0  0  0
  -29.5066  -25.7164   27.0648 N   0  3  0  0  0  0  0  0  0  0  0  0
  -27.1114  -23.6989   15.6995 O   0  0  0  0  0  0  0  0  0  0  0  0
  -27.4658  -13.7355   24.4631 O   0  0  0  0  0  0  0  0  0  0  0  0
  -23.0723  -29.3303   23.0982 O   0  0  0  0  0  0  0  0  0  0  0  0
  -24.4944  -28.8579   26.5550 O   0  0  0  0  0  0  0  0  0  0  0  0
  -28.6613  -27.3026   24.9001 O   0  0  0  0  0  0  0  0  0  0  0  0
  -29.3303  -19.1500   18.1976 O   0  0  0  0  0  0  0  0  0  0  0  0
  -24.3638  -10.0586   19.5843 O   0  0  0  0  0  0  0  0  0  0  0  0
  -25.8193  -24.7003   19.2874 O   0  0  0  0  0  0  0  0  0  1  0  0
  -25.3588   -5.5242   22.5598 F   0  0  0  0  0  0  0  0  0  0  0  0
  -23.2963   -9.7616   22.1171 F   0  0  0  0  0  0  0  0  0  0  0  0
  -31.7567  -25.6480   15.0310 F   0  0  0  0  0  0  0  0  0  0  0  0
  -29.5900  -25.6931   15.1165 F   0  0  0  0  0  0  0  0  0  0  0  0
  -30.7547  -26.1022   16.9067 F   0  0  0  0  0  0  0  0  0  0  0  0
  1  2  1  0  0  0  0
  1  6  2  0  0  0  0
  2  7  2  0  0  0  0
  3  9  2  0  0  0  0
  3 10  1  0  0  0  0
  4 11  2  0  0  0  0
  4 18  1  0  0  0  0
  5 12  1  0  0  0  0
  5 18  2  0  0  0  0
  6 20  1  0  0  0  0
  7 22  1  0  0  0  0
  8 13  2  0  0  0  0
  8 21  1  0  0  0  0
  9 24  1  0  0  0  0
 10 26  2  0  0  0  0
 11 27  1  0  0  0  0
 12 27  2  0  0  0  0
 13 28  1  0  0  0  0
 14 15  2  0  0  0  0
 14 29  1  0  0  0  0
 15 30  1  0  0  0  0
 16 23  1  0  0  0  0
 16 28  2  0  0  0  0
 17 30  2  0  0  0  0
 17 31  1  0  0  0  0
 18 32  1  0  0  0  0
 19 32  1  0  0  0  0
 19 33  2  0  0  0  0
 19 35  1  0  0  0  0
 20 22  2  0  0  0  0
 20 40  1  0  0  0  0
 21 23  2  0  0  0  0
 21 41  1  0  0  0  0
 22 52  1  0  0  0  0
 23 42  1  0  0  0  0
 24 25  2  0  0  0  0
 24 63  1  0  0  0  0
 25 26  1  0  0  0  0
 25 67  1  0  0  0  0
 26 72  1  0  0  0  0
 27 82  1  0  0  0  0
 28 83  1  0  0  0  0
 29 31  2  0  0  0  0
 29 82  1  0  0  0  0
 30 84  1  0  0  0  0
 31 85  1  0  0  0  0
 32 65  2  0  0  0  0
 33 66  1  0  0  0  0
 33 70  1  0  0  0  0
 34 43  1  0  0  0  0
 34 67  1  0  0  0  0
 34 76  2  0  0  0  0
 35 71  1  0  0  0  0
 35 77  2  0  0  0  0
 36 53  1  0  0  0  0
 36 73  1  0  0  0  0
 36 78  2  0  0  0  0
 37 61  1  0  0  0  0
 37 68  1  0  0  0  0
 37 79  2  0  0  0  0
 38 62  1  0  0  0  0
 38 74  1  0  0  0  0
 38 80  2  0  0  0  0
 39 69  1  0  0  0  0
 39 72  1  0  0  0  0
 39 81  2  0  0  0  0
 40 44  1  0  0  0  0
 41 53  1  0  0  0  0
 42 68  1  0  0  0  0
 43 55  1  0  0  0  0
 44 46  1  0  0  0  0
 45 47  1  0  0  0  0
 45 49  1  0  0  0  0
 46 52  1  0  0  0  0
 47 54  1  0  0  0  0
 48 50  1  0  0  0  0
 48 55  1  0  0  0  0
 49 69  1  0  0  0  0
 50 67  1  0  0  0  0
 51 54  1  0  0  0  0
 51 69  1  0  0  0  0
 52 73  1  0  0  0  0
 53 68  1  0  0  0  0
 54 66  1  0  0  0  0
 55 83  1  0  0  0  0
 56 62  1  0  0  0  0
 57 64  1  0  0  0  0
 58 64  1  0  0  0  0
 59 64  1  0  0  0  0
 60 75  1  0  0  0  0
 61 64  1  0  0  0  0
 61 74  1  0  0  0  0
 62 75  1  0  0  0  0
 63 86  1  0  0  0  0
 63 87  1  0  0  0  0
 63 88  1  0  0  0  0
 65 66  1  0  0  0  0
M  CHG  1  75   1
M  ISO  4  39 100  55 101  72 100  83 101
M  END
> <Batch ID>
0051

> <Smiles>
CNC(C)C(=O)NC(C(=O)N1Cc2cc([101O:1][101CH:1]3CCN(c4c([100NH:0][100C:0](=O)N5CCCC(n6nc(-c7ccc(Oc8ccc(F)cc8F)cc7)c(C(N)=O)c6N)C5)cccc4C(F)(F)F)C(=O)C3)ccc2CC1C(=O)NC1CCCc2ccccc21)C(C)(C)C

> <Shape>
0.202

> <Color>
0.063

> <Negative vol penalty>
0.000

$$$$

  -OEChem-04042322373D

 90 99  0     1  0  0  0  0  0999 V2000
  -30.8766  -34.8545   16.5015 C   0  0  0  0  0  0  0  0  0  0  0  0
  -30.3664  -33.5604   16.4823 C   0  0  0  0  0  0  0  0  0  0  0  0
  -22.8146   -9.8274   20.1753 C   0  0  0  0  0  0  0  0  0  0  0  0
  -24.1920   -9.6079   22.1481 C   0  0  0  0  0  0  0  0  0  0  0  0
  -31.1071  -35.4937   17.7190 C   0  0  0  0  0  0  0  0  0  0  0  0
  -30.0872  -32.9044   17.6807 C   0  0  0  0  0  0  0  0  0  0  0  0
  -25.5296  -28.9531   18.7396 C   0  0  0  0  0  0  0  0  0  0  0  0
  -22.1017   -8.6873   20.5462 C   0  0  0  0  0  0  0  0  0  0  0  0
  -23.4790   -8.4678   22.5190 C   0  0  0  0  0  0  0  0  0  0  0  0
  -25.4831  -27.5599   18.7655 C   0  0  0  0  0  0  0  0  0  0  0  0
  -20.5106   -7.7493   23.9656 C   0  0  0  0  0  0  0  0  0  0  0  0
  -20.1153   -7.6390   25.2987 C   0  0  0  0  0  0  0  0  0  0  0  0
  -25.7607  -27.6011   21.1614 C   0  0  0  0  0  0  0  0  0  0  0  0
  -30.0173  -20.1303   20.5057 C   0  0  0  0  0  0  0  0  0  0  0  0
  -30.7888  -17.8666   20.1635 C   0  0  0  0  0  0  0  0  0  0  0  0
  -21.3913   -5.5982   25.5083 C   0  0  0  0  0  0  0  0  0  0  0  0
  -23.8598  -10.2877   20.9763 C   0  0  0  0  0  0  0  0  0  0  0  0
  -24.0873  -12.7639   20.4070 C   0  0  0  0  0  0  0  0  0  0  0  0
  -30.8215  -34.8488   18.9327 C   0  0  0  0  0  0  0  0  0  0  0  0
  -25.7033  -29.6816   19.9252 C   0  0  0  0  0  0  0  0  0  0  0  0
  -30.3153  -33.5351   18.9155 C   0  0  0  0  0  0  0  0  0  0  0  0
  -25.8065  -29.0035   21.1482 C   0  0  0  0  0  0  0  0  0  0  0  0
  -30.9003  -19.2328   19.9053 C   0  0  0  0  0  0  0  0  0  0  0  0
  -29.0229  -19.6616   21.3643 C   0  0  0  0  0  0  0  0  0  0  0  0
  -28.9114  -18.2954   21.6224 C   0  0  0  0  0  0  0  0  0  0  0  0
  -29.7943  -17.3979   21.0220 C   0  0  0  0  0  0  0  0  0  0  0  0
  -22.4339   -8.0075   21.7180 C   0  0  0  0  0  0  0  0  0  0  0  0
  -25.6015  -26.8836   19.9761 C   0  0  0  0  0  0  0  0  0  0  0  0
  -21.3461   -6.7839   23.4037 C   0  0  0  0  0  0  0  0  0  0  0  0
  -20.5557   -6.5635   26.0701 C   0  0  0  0  0  0  0  0  0  0  0  0
  -21.7865   -5.7084   24.1751 C   0  0  0  0  0  0  0  0  0  0  0  0
  -24.5970  -11.4650   20.5934 C   0  0  0  0  0  0  0  0  0  0  0  0
  -25.1814  -13.5144   20.0518 C   0  0  0  0  0  0  0  0  0  0  0  0
  -26.7150  -21.3714   20.1358 C   0  0  0  0  0  0  0  0  0  0  0  0
  -26.6803  -18.5187   17.8236 C   0  0  0  0  0  0  0  0  0  0  0  0
  -26.6923  -20.6641   18.9961 C   0  0  0  0  0  0  0  0  0  0  0  0
  -26.7030  -19.2235   18.9604 C   0  0  0  0  0  0  0  0  0  0  0  0
  -22.7449  -13.2488   20.5428 C   0  0  0  0  0  0  0  0  0  0  0  0
  -27.9167  -31.6795   21.0265 C   0  0  0  0  0  0  0  0  0  0  0  0
  -25.8155  -32.0420   23.4711 C   0  0  0  0  0  0  0  0  0  0  0  0
  -23.2291  -30.7496   25.2841 C   0  0  0  0  0  0  0  0  0  0  0  0
  -30.5038  -14.9967   20.7434 C   0  0  0  0  0  0  0  0  0  0  0  0
  -31.1316  -35.5626   20.2246 C   0  0  0  0  0  0  0  0  0  0  0  0
  -25.7246  -31.1850   19.8836 C   0  0  0  0  0  0  0  0  0  0  0  0
  -25.9741  -29.7397   22.4514 C   0  0  0  0  0  0  0  0  0  0  0  0
  -26.7037  -22.8758   20.1695 C   0  0  0  0  0  0  0  0  0  0  0  0
  -30.4573  -34.9373   21.4430 C   0  0  0  0  0  0  0  0  0  0  0  0
  -29.8701  -12.1010   18.7710 C   0  0  0  0  0  0  0  0  0  0  0  0
  -30.6334  -33.4222   21.4318 C   0  0  0  0  0  0  0  0  0  0  0  0
  -28.3998  -11.7842   19.0540 C   0  0  0  0  0  0  0  0  0  0  0  0
  -25.6588  -22.6640   22.4545 C   0  0  0  0  0  0  0  0  0  0  0  0
  -30.5875  -12.6224   20.0149 C   0  0  0  0  0  0  0  0  0  0  0  0
  -28.4654  -13.4431   20.9594 C   0  0  0  0  0  0  0  0  0  0  0  0
  -25.6200  -21.1467   22.2884 C   0  0  0  0  0  0  0  0  0  0  0  0
  -29.9766  -32.7996   20.1940 C   0  0  1  0  0  0  0  0  0  0  0  0
  -26.4209  -31.8063   21.0905 C   0  0  1  0  0  0  0  0  0  0  0  0
  -25.5945  -23.3821   21.0993 C   0  0  1  0  0  0  0  0  0  0  0  0
  -27.6847  -12.9760   19.7201 C   0  0  2  0  0  0  0  0  0  0  0  0
  -31.9644  -19.7340   18.9885 C   0  0  0  0  0  0  0  0  0  0  0  0
  -27.8432  -17.7979   22.5452 C   0  0  0  0  0  0  0  0  0  0  0  0
  -21.7490  -31.2608   27.2451 C   0  0  0  0  0  0  0  0  0  0  0  0
  -28.1015  -31.3564   25.3722 C   0  0  0  0  0  0  0  0  0  0  0  0
  -26.3986  -30.9512   27.1623 C   0  0  0  0  0  0  0  0  0  0  0  0
  -26.6231  -33.2187   26.1472 C   0  0  0  0  0  0  0  0  0  0  0  0
  -20.7909  -30.6873   23.6079 C   0  0  0  0  0  0  0  0  0  0  0  0
  -28.0875  -20.6485   21.9984 C   0  0  0  0  0  0  0  0  0  0  0  0
  -25.6847  -24.8958   21.2791 C   0  0  0  0  0  0  0  0  0  1  0  0
  -25.5852  -31.3522   24.7941 C   0  0  1  0  0  0  0  0  0  0  0  0
  -21.9134  -31.3570   25.7363 C   0  0  2  0  0  0  0  0  0  0  0  0
  -26.6759  -31.7054   25.8443 C   0  0  0  0  0  0  0  0  0  0  0  0
  -25.9126  -11.3909   20.3746 N   0  0  0  0  0  0  0  0  0  0  0  0
  -26.2387  -12.6528   20.0469 N   0  0  0  0  0  0  0  0  0  0  0  0
  -25.9955  -31.2089   22.3579 N   0  0  0  0  0  0  0  0  0  0  0  0
  -29.8552  -13.7532   20.5892 N   0  0  0  0  0  0  0  0  0  0  0  0
  -25.3326  -14.8206   19.7462 N   0  0  0  0  0  0  0  0  0  0  0  0
  -22.3310  -13.7282   21.7931 N   0  0  0  0  0  0  0  0  0  0  0  0
  -29.6980  -16.0060   21.2695 N   0  0  0  0  0  0  0  0  0  0  0  0
  -28.5420  -32.7213   20.3685 N   0  0  0  0  0  0  0  0  0  0  0  0
  -24.2279  -31.6968   25.2032 N   0  0  0  0  0  0  0  0  0  0  0  0
  -26.7168  -20.6424   21.3800 N   0  3  2  0  0  0  0  0  0  0  0  0
  -20.7691  -30.6517   25.0929 N   0  3  0  0  0  0  0  0  0  0  0  0
  -21.9313  -13.2415   19.5881 O   0  0  0  0  0  0  0  0  0  0  0  0
  -28.4632  -30.7090   21.5378 O   0  0  0  0  0  0  0  0  0  0  0  0
  -25.8280  -33.2747   23.4259 O   0  0  0  0  0  0  0  0  0  0  0  0
  -23.3589  -29.5537   25.0319 O   0  0  0  0  0  0  0  0  0  0  0  0
  -31.6790  -15.1619   20.4063 O   0  0  0  0  0  0  0  0  0  0  0  0
  -21.7382   -6.8951   22.0803 O   0  0  0  0  0  0  0  0  0  0  0  0
  -25.5570  -25.5238   20.0041 O   0  0  0  0  0  0  0  0  0  1  0  0
  -20.1773   -6.4586   27.3507 F   0  0  0  0  0  0  0  0  0  0  0  0
  -22.5903   -4.7785   23.6412 F   0  0  0  0  0  0  0  0  0  0  0  0
  1  2  1  0  0  0  0
  1  5  2  0  0  0  0
  2  6  2  0  0  0  0
  3  8  2  0  0  0  0
  3 17  1  0  0  0  0
  4  9  1  0  0  0  0
  4 17  2  0  0  0  0
  5 19  1  0  0  0  0
  6 21  1  0  0  0  0
  7 10  2  0  0  0  0
  7 20  1  0  0  0  0
  8 27  1  0  0  0  0
  9 27  2  0  0  0  0
 10 28  1  0  0  0  0
 11 12  2  0  0  0  0
 11 29  1  0  0  0  0
 12 30  1  0  0  0  0
 13 22  1  0  0  0  0
 13 28  2  0  0  0  0
 14 23  2  0  0  0  0
 14 24  1  0  0  0  0
 15 23  1  0  0  0  0
 15 26  2  0  0  0  0
 16 30  2  0  0  0  0
 16 31  1  0  0  0  0
 17 32  1  0  0  0  0
 18 32  1  0  0  0  0
 18 33  2  0  0  0  0
 18 38  1  0  0  0  0
 19 21  2  0  0  0  0
 19 43  1  0  0  0  0
 20 22  2  0  0  0  0
 20 44  1  0  0  0  0
 21 55  1  0  0  0  0
 22 45  1  0  0  0  0
 23 59  1  0  0  0  0
 24 25  2  0  0  0  0
 24 66  1  0  0  0  0
 25 26  1  0  0  0  0
 25 60  1  0  0  0  0
 26 77  1  0  0  0  0
 27 87  1  0  0  0  0
 28 88  1  0  0  0  0
 29 31  2  0  0  0  0
 29 87  1  0  0  0  0
 30 89  1  0  0  0  0
 31 90  1  0  0  0  0
 32 71  2  0  0  0  0
 33 72  1  0  0  0  0
 33 75  1  0  0  0  0
 34 36  2  0  0  0  0
 34 46  1  0  0  0  0
 34 80  1  0  0  0  0
 35 37  2  0  0  0  0
 36 37  1  0  0  0  0
 38 76  1  0  0  0  0
 38 82  2  0  0  0  0
 39 56  1  0  0  0  0
 39 78  1  0  0  0  0
 39 83  2  0  0  0  0
 40 68  1  0  0  0  0
 40 73  1  0  0  0  0
 40 84  2  0  0  0  0
 41 69  1  0  0  0  0
 41 79  1  0  0  0  0
 41 85  2  0  0  0  0
 42 74  1  0  0  0  0
 42 77  1  0  0  0  0
 42 86  2  0  0  0  0
 43 47  1  0  0  0  0
 44 56  1  0  0  0  0
 45 73  1  0  0  0  0
 46 57  1  0  0  0  0
 47 49  1  0  0  0  0
 48 50  1  0  0  0  0
 48 52  1  0  0  0  0
 49 55  1  0  0  0  0
 50 58  1  0  0  0  0
 51 54  1  0  0  0  0
 51 57  1  0  0  0  0
 52 74  1  0  0  0  0
 53 58  1  0  0  0  0
 53 74  1  0  0  0  0
 54 80  1  0  0  0  0
 55 78  1  0  0  0  0
 56 73  1  0  0  0  0
 57 67  1  0  0  0  0
 58 72  1  0  0  0  0
 61 69  1  0  0  0  0
 62 70  1  0  0  0  0
 63 70  1  0  0  0  0
 64 70  1  0  0  0  0
 65 81  1  0  0  0  0
 66 80  1  0  0  0  0
 67 88  1  0  0  0  0
 68 70  1  0  0  0  0
 68 79  1  0  0  0  0
 69 81  1  0  0  0  0
 71 72  1  0  0  0  0
M  CHG  2  80   1  81   1
M  ISO  4  42 100  67 101  77 100  88 101
M  END
> <Batch ID>
0051

> <Smiles>
C=CC=C1CC([101CH2:1][101O:1]c2ccc3c(c2)CN(C(=O)C(NC(=O)C(C)NC)C(C)(C)C)C(C(=O)NC2CCCc4ccccc42)C3)CCN1Cc1cc(C)cc([100NH:0][100C:0](=O)N2CCCC(n3nc(-c4ccc(Oc5ccc(F)cc5F)cc4)c(C(N)=O)c3N)C2)c1C

> <Shape>
0.323

> <Color>
0.161

> <Negative vol penalty>
0.000

$$$$

  -OEChem-04042322373D

 85 93  0     1  0  0  0  0  0999 V2000
  -24.4174  -35.3643   22.3258 C   0  0  0  0  0  0  0  0  0  0  0  0
  -25.2345  -34.2410   22.2491 C   0  0  0  0  0  0  0  0  0  0  0  0
  -31.9067  -19.7864   20.6607 C   0  0  0  0  0  0  0  0  0  0  0  0
  -23.5518  -12.2494   21.1160 C   0  0  0  0  0  0  0  0  0  0  0  0
  -25.9320  -11.8512   20.9997 C   0  0  0  0  0  0  0  0  0  0  0  0
  -23.1143  -35.2454   22.8071 C   0  0  0  0  0  0  0  0  0  0  0  0
  -24.7493  -32.9982   22.6547 C   0  0  0  0  0  0  0  0  0  0  0  0
  -25.9142  -29.3005   19.3967 C   0  0  0  0  0  0  0  0  0  0  0  0
  -31.2856  -18.9699   19.7158 C   0  0  0  0  0  0  0  0  0  0  0  0
  -31.9793  -21.1638   20.4523 C   0  0  0  0  0  0  0  0  0  0  0  0
  -23.3131  -10.9031   20.8403 C   0  0  0  0  0  0  0  0  0  0  0  0
  -25.6932  -10.5049   20.7241 C   0  0  0  0  0  0  0  0  0  0  0  0
  -27.2144  -28.7992   19.4408 C   0  0  0  0  0  0  0  0  0  0  0  0
  -23.3593   -7.9699   22.5217 C   0  0  0  0  0  0  0  0  0  0  0  0
  -22.4017   -7.3103   23.2920 C   0  0  0  0  0  0  0  0  0  0  0  0
  -26.4373  -26.9140   20.7299 C   0  0  0  0  0  0  0  0  0  0  0  0
  -30.8096  -20.9079   18.3539 C   0  0  0  0  0  0  0  0  0  0  0  0
  -21.1238   -6.8358   21.2973 C   0  0  0  0  0  0  0  0  0  0  0  0
  -24.8613  -12.7235   21.1956 C   0  0  0  0  0  0  0  0  0  0  0  0
  -25.2698  -14.7075   22.7463 C   0  0  0  0  0  0  0  0  0  0  0  0
  -22.6096  -33.9988   23.2097 C   0  0  0  0  0  0  0  0  0  0  0  0
  -24.8659  -28.6168   20.0292 C   0  0  0  0  0  0  0  0  0  0  0  0
  -23.4387  -32.8628   23.1430 C   0  0  0  0  0  0  0  0  0  0  0  0
  -25.1243  -27.4074   20.6901 C   0  0  0  0  0  0  0  0  0  0  0  0
  -30.7370  -19.5305   18.5623 C   0  0  0  0  0  0  0  0  0  0  0  0
  -31.4307  -21.7245   19.2989 C   0  0  0  0  0  0  0  0  0  0  0  0
  -24.3838  -10.0308   20.6443 C   0  0  0  0  0  0  0  0  0  0  0  0
  -27.4766  -27.6073   20.1100 C   0  0  0  0  0  0  0  0  0  0  0  0
  -23.1992   -8.0625   21.1391 C   0  0  0  0  0  0  0  0  0  0  0  0
  -21.2839   -6.7433   22.6799 C   0  0  0  0  0  0  0  0  0  0  0  0
  -22.0815   -7.4955   20.5269 C   0  0  0  0  0  0  0  0  0  0  0  0
  -25.1085  -14.1143   21.4798 C   0  0  0  0  0  0  0  0  0  0  0  0
  -25.4801  -16.0380   22.4779 C   0  0  0  0  0  0  0  0  0  0  0  0
  -25.2329  -14.1094   24.0488 C   0  0  0  0  0  0  0  0  0  0  0  0
  -22.8485  -29.2937   22.3905 C   0  0  0  0  0  0  0  0  0  0  0  0
  -21.5193  -26.4581   21.5451 C   0  0  0  0  0  0  0  0  0  0  0  0
  -30.1768  -25.2572   19.5678 C   0  0  0  0  0  0  0  0  0  0  0  0
  -21.9039  -23.4010   20.0778 C   0  0  0  0  0  0  0  0  0  0  0  0
  -27.6111  -18.9460   17.6973 C   0  0  0  0  0  0  0  0  0  0  0  0
  -21.2102  -33.9280   23.7675 C   0  0  0  0  0  0  0  0  0  0  0  0
  -23.4643  -29.1570   19.9496 C   0  0  0  0  0  0  0  0  0  0  0  0
  -24.0305  -26.6247   21.3679 C   0  0  0  0  0  0  0  0  0  0  0  0
  -20.6486  -32.5098   23.8254 C   0  0  0  0  0  0  0  0  0  0  0  0
  -24.4433  -19.4168   19.2530 C   0  0  0  0  0  0  0  0  0  0  0  0
  -21.6773  -31.5520   24.4179 C   0  0  0  0  0  0  0  0  0  0  0  0
  -24.2692  -18.1648   20.1144 C   0  0  0  0  0  0  0  0  0  0  0  0
  -25.1505  -19.1022   17.9366 C   0  0  0  0  0  0  0  0  0  0  0  0
  -26.2645  -17.1461   18.9397 C   0  0  0  0  0  0  0  0  0  0  0  0
  -22.9403  -31.4931   23.5502 C   0  0  1  0  0  0  0  0  0  0  0  0
  -22.5615  -28.6431   21.0668 C   0  0  1  0  0  0  0  0  0  0  0  0
  -25.6062  -17.4229   20.3022 C   0  0  2  0  0  0  0  0  0  0  0  0
  -20.6501  -21.2867   19.5724 C   0  0  0  0  0  0  0  0  0  0  0  0
  -21.7826  -25.6072   24.4634 C   0  0  0  0  0  0  0  0  0  0  0  0
  -21.4252  -23.2394   23.7327 C   0  0  0  0  0  0  0  0  0  0  0  0
  -19.6345  -24.9380   23.3714 C   0  0  0  0  0  0  0  0  0  0  0  0
  -22.2586  -23.7507   17.1605 C   0  0  0  0  0  0  0  0  0  0  0  0
  -30.0718  -18.6569   17.5532 C   0  0  0  0  0  0  0  0  0  0  0  0
  -28.8901  -25.6985   20.2309 C   0  0  0  0  0  0  0  0  0  1  0  0
  -21.7240  -25.0183   21.9503 C   0  0  1  0  0  0  0  0  0  0  0  0
  -21.0576  -22.6590   19.0590 C   0  0  2  0  0  0  0  0  0  0  0  0
  -31.5099  -23.2141   19.0733 C   0  0  0  0  0  0  0  0  0  0  0  0
  -21.1628  -24.7162   23.3684 C   0  0  0  0  0  0  0  0  0  0  0  0
  -25.2077  -14.9956   20.4811 N   0  0  0  0  0  0  0  0  0  0  0  0
  -25.4335  -16.1563   21.1199 N   0  0  0  0  0  0  0  0  0  0  0  0
  -22.6779  -27.1973   21.2675 N   0  0  0  0  0  0  0  0  0  0  0  0
  -26.4121  -18.4003   18.1848 N   0  0  0  0  0  0  0  0  0  0  0  0
  -25.6985  -17.1066   23.2733 N   0  0  0  0  0  0  0  0  0  0  0  0
  -25.0060  -12.7296   24.1442 N   0  0  0  0  0  0  0  0  0  0  0  0
  -22.7133  -30.6689   22.3825 N   0  0  0  0  0  0  0  0  0  0  0  0
  -21.1352  -24.2080   20.8895 N   0  0  0  0  0  0  0  0  0  0  0  0
  -30.3472  -23.8830   19.6402 N   0  0  0  0  0  0  0  0  0  0  0  0
  -28.7616  -18.2207   17.9821 N   0  0  0  0  0  0  0  0  0  0  0  0
  -21.8155  -22.4794   17.7885 N   0  3  0  0  0  0  0  0  0  0  0  0
  -25.3800  -14.7814   25.0977 O   0  0  0  0  0  0  0  0  0  0  0  0
  -23.1675  -28.5993   23.3485 O   0  0  0  0  0  0  0  0  0  0  0  0
  -20.3732  -26.9082   21.4704 O   0  0  0  0  0  0  0  0  0  0  0  0
  -30.9569  -26.0432   19.0370 O   0  0  0  0  0  0  0  0  0  0  0  0
  -23.1243  -23.2742   20.1490 O   0  0  0  0  0  0  0  0  0  0  0  0
  -27.6538  -20.0040   17.0604 O   0  0  0  0  0  0  0  0  0  0  0  0
  -24.1512   -8.7169   20.3755 O   0  0  0  0  0  0  0  0  0  0  0  0
  -28.7449  -27.1161   20.1551 O   0  0  0  0  0  0  0  0  0  1  0  0
  -20.3652   -6.1086   23.4196 F   0  0  0  0  0  0  0  0  0  0  0  0
  -21.9228   -7.5802   19.1989 F   0  0  0  0  0  0  0  0  0  0  0  0
  -32.6349  -23.7552   19.6275 F   0  0  0  0  0  0  0  0  0  0  0  0
  -31.5852  -23.5257   17.7456 F   0  0  0  0  0  0  0  0  0  0  0  0
  1  2  1  0  0  0  0
  1  6  2  0  0  0  0
  2  7  2  0  0  0  0
  3  9  1  0  0  0  0
  3 10  2  0  0  0  0
  4 11  2  0  0  0  0
  4 19  1  0  0  0  0
  5 12  1  0  0  0  0
  5 19  2  0  0  0  0
  6 21  1  0  0  0  0
  7 23  1  0  0  0  0
  8 13  2  0  0  0  0
  8 22  1  0  0  0  0
  9 25  2  0  0  0  0
 10 26  1  0  0  0  0
 11 27  1  0  0  0  0
 12 27  2  0  0  0  0
 13 28  1  0  0  0  0
 14 15  2  0  0  0  0
 14 29  1  0  0  0  0
 15 30  1  0  0  0  0
 16 24  1  0  0  0  0
 16 28  2  0  0  0  0
 17 25  1  0  0  0  0
 17 26  2  0  0  0  0
 18 30  2  0  0  0  0
 18 31  1  0  0  0  0
 19 32  1  0  0  0  0
 20 32  1  0  0  0  0
 20 33  2  0  0  0  0
 20 34  1  0  0  0  0
 21 23  2  0  0  0  0
 21 40  1  0  0  0  0
 22 24  2  0  0  0  0
 22 41  1  0  0  0  0
 23 49  1  0  0  0  0
 24 42  1  0  0  0  0
 25 57  1  0  0  0  0
 26 61  1  0  0  0  0
 27 80  1  0  0  0  0
 28 81  1  0  0  0  0
 29 31  2  0  0  0  0
 29 80  1  0  0  0  0
 30 82  1  0  0  0  0
 31 83  1  0  0  0  0
 32 63  2  0  0  0  0
 33 64  1  0  0  0  0
 33 67  1  0  0  0  0
 34 68  1  0  0  0  0
 34 74  2  0  0  0  0
 35 50  1  0  0  0  0
 35 69  1  0  0  0  0
 35 75  2  0  0  0  0
 36 59  1  0  0  0  0
 36 65  1  0  0  0  0
 36 76  2  0  0  0  0
 37 58  1  0  0  0  0
 37 71  1  0  0  0  0
 37 77  2  0  0  0  0
 38 60  1  0  0  0  0
 38 70  1  0  0  0  0
 38 78  2  0  0  0  0
 39 66  1  0  0  0  0
 39 72  1  0  0  0  0
 39 79  2  0  0  0  0
 40 43  1  0  0  0  0
 41 50  1  0  0  0  0
 42 65  1  0  0  0  0
 43 45  1  0  0  0  0
 44 46  1  0  0  0  0
 44 47  1  0  0  0  0
 45 49  1  0  0  0  0
 46 51  1  0  0  0  0
 47 66  1  0  0  0  0
 48 51  1  0  0  0  0
 48 66  1  0  0  0  0
 49 69  1  0  0  0  0
 50 65  1  0  0  0  0
 51 64  1  0  0  0  0
 52 60  1  0  0  0  0
 53 62  1  0  0  0  0
 54 62  1  0  0  0  0
 55 62  1  0  0  0  0
 56 73  1  0  0  0  0
 57 72  1  0  0  0  0
 58 81  1  0  0  0  0
 59 62  1  0  0  0  0
 59 70  1  0  0  0  0
 60 73  1  0  0  0  0
 61 71  1  0  0  0  0
 61 84  1  0  0  0  0
 61 85  1  0  0  0  0
 63 64  1  0  0  0  0
M  CHG  1  73   1
M  ISO  4  39 100  58 101  72 100  81 101
M  END
> <Batch ID>
0051

> <Smiles>
CNC(C)C(=O)NC(C(=O)N1Cc2cc([101O:1][101CH2:1]C(=O)NC(F)(F)c3cccc(C[100NH:0][100C:0](=O)N4CCCC(n5nc(-c6ccc(Oc7ccc(F)cc7F)cc6)c(C(N)=O)c5N)C4)c3)ccc2CC1C(=O)NC1CCCc2ccccc21)C(C)(C)C

> <Shape>
0.222

> <Color>
0.081

> <Negative vol penalty>
0.000

$$$$

  -OEChem-04042322373D

 85 93  0     1  0  0  0  0  0999 V2000
  -17.8438  -26.1028   31.0626 C   0  0  0  0  0  0  0  0  0  0  0  0
  -18.3086  -25.2505   30.0662 C   0  0  0  0  0  0  0  0  0  0  0  0
  -23.0742   -9.8684   19.9419 C   0  0  0  0  0  0  0  0  0  0  0  0
  -23.8381   -9.8747   22.2339 C   0  0  0  0  0  0  0  0  0  0  0  0
  -18.6429  -27.1556   31.5065 C   0  0  0  0  0  0  0  0  0  0  0  0
  -19.5725  -25.4510   29.5123 C   0  0  0  0  0  0  0  0  0  0  0  0
  -23.4668  -21.1421   27.5698 C   0  0  0  0  0  0  0  0  0  0  0  0
  -31.5057  -18.4288   20.0474 C   0  0  0  0  0  0  0  0  0  0  0  0
  -22.3316   -8.7147   20.1925 C   0  0  0  0  0  0  0  0  0  0  0  0
  -23.0954   -8.7209   22.4846 C   0  0  0  0  0  0  0  0  0  0  0  0
  -23.7495  -20.6360   26.3018 C   0  0  0  0  0  0  0  0  0  0  0  0
  -19.8688   -7.9206   23.0922 C   0  0  0  0  0  0  0  0  0  0  0  0
  -19.1139   -7.8795   24.2643 C   0  0  0  0  0  0  0  0  0  0  0  0
  -31.2457  -19.4811   19.1696 C   0  0  0  0  0  0  0  0  0  0  0  0
  -25.6190  -22.1498   26.1210 C   0  0  0  0  0  0  0  0  0  0  0  0
  -29.2939  -18.6682   20.9896 C   0  0  0  0  0  0  0  0  0  0  0  0
  -20.3578   -5.9425   24.9976 C   0  0  0  0  0  0  0  0  0  0  0  0
  -23.8275  -10.4485   20.9626 C   0  0  0  0  0  0  0  0  0  0  0  0
  -24.1674  -12.9739   20.8433 C   0  0  0  0  0  0  0  0  0  0  0  0
  -19.9211  -27.3633   30.9646 C   0  0  0  0  0  0  0  0  0  0  0  0
  -24.2529  -22.1651   28.1193 C   0  0  0  0  0  0  0  0  0  0  0  0
  -20.3889  -26.5084   29.9485 C   0  0  0  0  0  0  0  0  0  0  0  0
  -25.3458  -22.6653   27.3972 C   0  0  0  0  0  0  0  0  0  0  0  0
  -30.5298  -18.0223   20.9574 C   0  0  0  0  0  0  0  0  0  0  0  0
  -29.0339  -19.7206   20.1119 C   0  0  0  0  0  0  0  0  0  0  0  0
  -22.3421   -8.1409   21.4638 C   0  0  0  0  0  0  0  0  0  0  0  0
  -24.8239  -21.1418   25.5760 C   0  0  0  0  0  0  0  0  0  0  0  0
  -20.8682   -6.9726   22.8727 C   0  0  0  0  0  0  0  0  0  0  0  0
  -19.3584   -6.8905   25.2171 C   0  0  0  0  0  0  0  0  0  0  0  0
  -21.1127   -5.9836   23.8254 C   0  0  0  0  0  0  0  0  0  0  0  0
  -30.0098  -20.1271   19.2018 C   0  0  0  0  0  0  0  0  0  0  0  0
  -24.5954  -11.6400   20.7042 C   0  0  0  0  0  0  0  0  0  0  0  0
  -25.2585  -13.7243   20.4786 C   0  0  0  0  0  0  0  0  0  0  0  0
  -22.8973  -13.4886   21.2647 C   0  0  0  0  0  0  0  0  0  0  0  0
  -23.7093  -25.1524   29.0599 C   0  0  0  0  0  0  0  0  0  0  0  0
  -26.7811  -24.9749   30.0868 C   0  0  0  0  0  0  0  0  0  0  0  0
  -26.3755  -20.5443   22.3016 C   0  0  0  0  0  0  0  0  0  0  0  0
  -29.8506  -23.5103   29.8036 C   0  0  0  0  0  0  0  0  0  0  0  0
  -30.7418  -14.7470   20.6581 C   0  0  0  0  0  0  0  0  0  0  0  0
  -20.7295  -28.5432   31.4433 C   0  0  0  0  0  0  0  0  0  0  0  0
  -23.9511  -22.6817   29.4994 C   0  0  0  0  0  0  0  0  0  0  0  0
  -26.2328  -23.7495   27.9507 C   0  0  0  0  0  0  0  0  0  0  0  0
  -22.2071  -28.4614   31.0687 C   0  0  0  0  0  0  0  0  0  0  0  0
  -29.6018  -12.3630   18.2720 C   0  0  0  0  0  0  0  0  0  0  0  0
  -22.3654  -28.0643   29.6045 C   0  0  0  0  0  0  0  0  0  0  0  0
  -28.1653  -12.0681   18.7073 C   0  0  0  0  0  0  0  0  0  0  0  0
  -30.5208  -12.5838   19.4715 C   0  0  0  0  0  0  0  0  0  0  0  0
  -28.6209  -13.3129   20.8617 C   0  0  0  0  0  0  0  0  0  0  0  0
  -21.7643  -26.6785   29.3405 C   0  0  1  0  0  0  0  0  0  0  0  0
  -24.5062  -24.0807   29.7484 C   0  0  1  0  0  0  0  0  0  0  0  0
  -27.6449  -13.1382   19.6856 C   0  0  2  0  0  0  0  0  0  0  0  0
  -32.1722  -23.6025   30.7518 C   0  0  0  0  0  0  0  0  0  0  0  0
  -27.3308  -27.5147   28.4876 C   0  0  0  0  0  0  0  0  0  0  0  0
  -29.7783  -27.0253   28.6842 C   0  0  0  0  0  0  0  0  0  0  0  0
  -28.4225  -27.4411   30.7365 C   0  0  0  0  0  0  0  0  0  0  0  0
  -28.3575  -22.0159   21.9035 C   0  0  0  0  0  0  0  0  0  0  0  0
  -29.6954  -20.7143   30.7612 C   0  0  0  0  0  0  0  0  0  0  0  0
  -30.8083  -16.8970   21.8960 C   0  0  0  0  0  0  0  0  0  0  0  0
  -27.6912  -20.3891   20.1778 C   0  0  0  0  0  0  0  0  0  0  0  0
  -26.2174  -21.2144   23.6502 C   0  0  0  0  0  0  0  0  0  1  0  0
  -28.1307  -25.2682   29.4774 C   0  0  1  0  0  0  0  0  0  0  0  0
  -30.8007  -22.9525   30.8479 C   0  0  2  0  0  0  0  0  0  0  0  0
  -28.3979  -26.7932   29.3349 C   0  0  0  0  0  0  0  0  0  0  0  0
  -25.8596  -11.5453   20.2837 N   0  0  0  0  0  0  0  0  0  0  0  0
  -26.2354  -12.8292   20.1554 N   0  0  0  0  0  0  0  0  0  0  0  0
  -25.8930  -24.2262   29.3016 N   0  0  0  0  0  0  0  0  0  0  0  0
  -29.9710  -13.6115   20.3589 N   0  0  0  0  0  0  0  0  0  0  0  0
  -25.4678  -15.0560   20.4059 N   0  0  0  0  0  0  0  0  0  0  0  0
  -21.8866  -12.5786   21.6032 N   0  0  0  0  0  0  0  0  0  0  0  0
  -22.6579  -25.6420   29.8112 N   0  0  0  0  0  0  0  0  0  0  0  0
  -29.1106  -24.5639   30.2973 N   0  0  0  0  0  0  0  0  0  0  0  0
  -30.1435  -15.6750   21.5017 N   0  0  0  0  0  0  0  0  0  0  0  0
  -27.4322  -20.9666   21.4942 N   0  0  0  0  0  0  0  0  0  0  0  0
  -30.9637  -21.4822   30.6672 N   0  3  0  0  0  0  0  0  0  0  0  0
  -22.6603  -14.7191   21.3231 O   0  0  0  0  0  0  0  0  0  0  0  0
  -24.0257  -25.5097   27.9313 O   0  0  0  0  0  0  0  0  0  0  0  0
  -26.5269  -25.3886   31.2208 O   0  0  0  0  0  0  0  0  0  0  0  0
  -25.5765  -19.6588   21.9819 O   0  0  0  0  0  0  0  0  0  0  0  0
  -29.7752  -23.0591   28.6629 O   0  0  0  0  0  0  0  0  0  0  0  0
  -31.8769  -14.9235   20.2027 O   0  0  0  0  0  0  0  0  0  0  0  0
  -21.6174   -7.0152   21.7088 O   0  0  0  0  0  0  0  0  0  0  0  0
  -25.1016  -20.6501   24.3379 O   0  0  0  0  0  0  0  0  0  1  0  0
  -18.6344   -6.8521   26.3434 F   0  0  0  0  0  0  0  0  0  0  0  0
  -22.0723   -5.0709   23.6207 F   0  0  0  0  0  0  0  0  0  0  0  0
  -29.7235  -21.4250   18.1007 Cl  0  0  0  0  0  0  0  0  0  0  0  0
  1  2  1  0  0  0  0
  1  5  2  0  0  0  0
  2  6  2  0  0  0  0
  3  9  2  0  0  0  0
  3 18  1  0  0  0  0
  4 10  1  0  0  0  0
  4 18  2  0  0  0  0
  5 20  1  0  0  0  0
  6 22  1  0  0  0  0
  7 11  2  0  0  0  0
  7 21  1  0  0  0  0
  8 14  2  0  0  0  0
  8 24  1  0  0  0  0
  9 26  1  0  0  0  0
 10 26  2  0  0  0  0
 11 27  1  0  0  0  0
 12 13  2  0  0  0  0
 12 28  1  0  0  0  0
 13 29  1  0  0  0  0
 14 31  1  0  0  0  0
 15 23  1  0  0  0  0
 15 27  2  0  0  0  0
 16 24  2  0  0  0  0
 16 25  1  0  0  0  0
 17 29  2  0  0  0  0
 17 30  1  0  0  0  0
 18 32  1  0  0  0  0
 19 32  1  0  0  0  0
 19 33  2  0  0  0  0
 19 34  1  0  0  0  0
 20 22  2  0  0  0  0
 20 40  1  0  0  0  0
 21 23  2  0  0  0  0
 21 41  1  0  0  0  0
 22 49  1  0  0  0  0
 23 42  1  0  0  0  0
 24 58  1  0  0  0  0
 25 31  2  0  0  0  0
 25 59  1  0  0  0  0
 26 81  1  0  0  0  0
 27 82  1  0  0  0  0
 28 30  2  0  0  0  0
 28 81  1  0  0  0  0
 29 83  1  0  0  0  0
 30 84  1  0  0  0  0
 31 85  1  0  0  0  0
 32 64  2  0  0  0  0
 33 65  1  0  0  0  0
 33 68  1  0  0  0  0
 34 69  1  0  0  0  0
 34 75  2  0  0  0  0
 35 50  1  0  0  0  0
 35 70  1  0  0  0  0
 35 76  2  0  0  0  0
 36 61  1  0  0  0  0
 36 66  1  0  0  0  0
 36 77  2  0  0  0  0
 37 60  1  0  0  0  0
 37 73  1  0  0  0  0
 37 78  2  0  0  0  0
 38 62  1  0  0  0  0
 38 71  1  0  0  0  0
 38 79  2  0  0  0  0
 39 67  1  0  0  0  0
 39 72  1  0  0  0  0
 39 80  2  0  0  0  0
 40 43  1  0  0  0  0
 41 50  1  0  0  0  0
 42 66  1  0  0  0  0
 43 45  1  0  0  0  0
 44 46  1  0  0  0  0
 44 47  1  0  0  0  0
 45 49  1  0  0  0  0
 46 51  1  0  0  0  0
 47 67  1  0  0  0  0
 48 51  1  0  0  0  0
 48 67  1  0  0  0  0
 49 70  1  0  0  0  0
 50 66  1  0  0  0  0
 51 65  1  0  0  0  0
 52 62  1  0  0  0  0
 53 63  1  0  0  0  0
 54 63  1  0  0  0  0
 55 63  1  0  0  0  0
 56 73  1  0  0  0  0
 57 74  1  0  0  0  0
 58 72  1  0  0  0  0
 59 73  1  0  0  0  0
 60 82  1  0  0  0  0
 61 63  1  0  0  0  0
 61 71  1  0  0  0  0
 62 74  1  0  0  0  0
 64 65  1  0  0  0  0
M  CHG  1  74   1
M  ISO  4  39 100  60 101  72 100  82 101
M  END
> <Batch ID>
0051

> <Smiles>
CNC(C)C(=O)NC(C(=O)N1Cc2cc([101O:1][101CH2:1]C(=O)N(C)Cc3cc(C[100NH:0][100C:0](=O)N4CCCC(n5nc(-c6ccc(Oc7ccc(F)cc7F)cc6)c(C(N)=O)c5N)C4)ccc3Cl)ccc2CC1C(=O)NC1CCCc2ccccc21)C(C)(C)C

> <Shape>
0.201

> <Color>
0.196

> <Negative vol penalty>
0.000

$$$$

  -OEChem-04042322373D

 87 96  0     1  0  0  0  0  0999 V2000
  -22.3701  -31.8516   14.4201 C   0  0  0  0  0  0  0  0  0  0  0  0
  -23.4423  -31.1645   14.9802 C   0  0  0  0  0  0  0  0  0  0  0  0
  -22.7049  -14.1994   22.6685 C   0  0  0  0  0  0  0  0  0  0  0  0
  -24.1818  -12.8228   23.9955 C   0  0  0  0  0  0  0  0  0  0  0  0
  -21.8438  -32.9680   15.0686 C   0  0  0  0  0  0  0  0  0  0  0  0
  -23.9895  -31.5940   16.1887 C   0  0  0  0  0  0  0  0  0  0  0  0
  -24.8601  -27.7719   19.3947 C   0  0  0  0  0  0  0  0  0  0  0  0
  -21.9512  -14.4875   23.8063 C   0  0  0  0  0  0  0  0  0  0  0  0
  -23.4281  -13.1110   25.1333 C   0  0  0  0  0  0  0  0  0  0  0  0
  -25.9946  -26.9946   19.1656 C   0  0  0  0  0  0  0  0  0  0  0  0
  -22.1755  -16.5303   26.4914 C   0  0  0  0  0  0  0  0  0  0  0  0
  -21.7982  -17.8567   26.7002 C   0  0  0  0  0  0  0  0  0  0  0  0
  -27.1699  -28.2147   20.8830 C   0  0  0  0  0  0  0  0  0  0  0  0
  -28.4828  -18.9201   18.5068 C   0  0  0  0  0  0  0  0  0  0  0  0
  -30.8253  -18.5767   18.9885 C   0  0  0  0  0  0  0  0  0  0  0  0
  -19.4725  -17.2050   26.6376 C   0  0  0  0  0  0  0  0  0  0  0  0
  -23.8202  -13.3670   22.7631 C   0  0  0  0  0  0  0  0  0  0  0  0
  -24.1533  -12.4390   20.4104 C   0  0  0  0  0  0  0  0  0  0  0  0
  -22.3786  -33.4057   16.2905 C   0  0  0  0  0  0  0  0  0  0  0  0
  -24.8755  -28.7854   20.3637 C   0  0  0  0  0  0  0  0  0  0  0  0
  -23.4706  -32.7181   16.8535 C   0  0  0  0  0  0  0  0  0  0  0  0
  -26.0335  -29.0017   21.1242 C   0  0  0  0  0  0  0  0  0  0  0  0
  -28.7159  -20.2860   18.3471 C   0  0  0  0  0  0  0  0  0  0  0  0
  -31.0584  -19.9426   18.8288 C   0  0  0  0  0  0  0  0  0  0  0  0
  -30.0036  -20.7973   18.5081 C   0  0  0  0  0  0  0  0  0  0  0  0
  -29.5375  -18.0654   18.8276 C   0  0  0  0  0  0  0  0  0  0  0  0
  -22.3128  -13.9434   25.0387 C   0  0  0  0  0  0  0  0  0  0  0  0
  -27.1507  -27.2178   19.9078 C   0  0  0  0  0  0  0  0  0  0  0  0
  -21.2014  -15.5411   26.3556 C   0  0  0  0  0  0  0  0  0  0  0  0
  -20.4467  -18.1941   26.7733 C   0  0  0  0  0  0  0  0  0  0  0  0
  -19.8499  -15.8785   26.4287 C   0  0  0  0  0  0  0  0  0  0  0  0
  -24.5988  -13.0685   21.5881 C   0  0  0  0  0  0  0  0  0  0  0  0
  -25.2650  -12.3905   19.6053 C   0  0  0  0  0  0  0  0  0  0  0  0
  -29.0337  -24.3358   18.8870 C   0  0  0  0  0  0  0  0  0  0  0  0
  -22.8509  -11.9425   20.0741 C   0  0  0  0  0  0  0  0  0  0  0  0
  -24.5093  -31.9425   20.3136 C   0  0  0  0  0  0  0  0  0  0  0  0
  -24.6343  -31.6172   23.5387 C   0  0  0  0  0  0  0  0  0  0  0  0
  -26.5643  -29.7149   25.9206 C   0  0  0  0  0  0  0  0  0  0  0  0
  -30.2360  -15.6929   19.3066 C   0  0  0  0  0  0  0  0  0  0  0  0
  -21.8066  -34.6458   16.9306 C   0  0  0  0  0  0  0  0  0  0  0  0
  -23.6350  -29.5974   20.6172 C   0  0  0  0  0  0  0  0  0  0  0  0
  -26.0952  -30.0638   22.1903 C   0  0  0  0  0  0  0  0  0  0  0  0
  -22.2022  -34.8130   18.3954 C   0  0  0  0  0  0  0  0  0  0  0  0
  -28.3977  -23.2478   21.5326 C   0  0  0  0  0  0  0  0  0  0  0  0
  -30.0440  -12.1761   19.8289 C   0  0  0  0  0  0  0  0  0  0  0  0
  -23.6972  -34.5697   18.5757 C   0  0  0  0  0  0  0  0  0  0  0  0
  -28.4545  -24.7474   21.3290 C   0  0  0  0  0  0  0  0  0  0  0  0
  -28.5838  -11.9478   20.2262 C   0  0  0  0  0  0  0  0  0  0  0  0
  -29.4298  -22.5730   20.6470 C   0  0  0  0  0  0  0  0  0  0  0  0
  -30.5875  -13.4868   20.3950 C   0  0  0  0  0  0  0  0  0  0  0  0
  -28.3209  -14.4476   20.4888 C   0  0  0  0  0  0  0  0  0  0  0  0
  -24.0755  -33.1386   18.1754 C   0  0  1  0  0  0  0  0  0  0  0  0
  -28.1358  -25.0619   19.8806 C   0  0  1  0  0  0  0  0  0  1  0  0
  -23.9258  -30.9438   21.2728 C   0  0  1  0  0  0  0  0  0  0  0  0
  -27.7097  -13.1713   19.8877 C   0  0  2  0  0  0  0  0  0  0  0  0
  -27.5694  -21.1800   18.0043 C   0  0  0  0  0  0  0  0  0  0  0  0
  -32.4466  -20.4646   19.0065 C   0  0  0  0  0  0  0  0  0  0  0  0
  -25.9857  -28.9280   28.2322 C   0  0  0  0  0  0  0  0  0  0  0  0
  -26.0035  -34.1894   24.4437 C   0  0  0  0  0  0  0  0  0  0  0  0
  -26.9583  -32.9183   26.3778 C   0  0  0  0  0  0  0  0  0  0  0  0
  -24.4865  -33.1608   26.1451 C   0  0  0  0  0  0  0  0  0  0  0  0
  -27.1696  -26.8992   25.2391 C   0  0  0  0  0  0  0  0  0  0  0  0
  -30.2545  -22.2675   18.3356 C   0  0  0  0  0  0  0  0  0  0  0  0
  -25.7347  -31.6248   24.5721 C   0  0  1  0  0  0  0  0  0  0  0  0
  -26.0760  -28.5495   26.7621 C   0  0  2  0  0  0  0  0  0  0  0  0
  -25.8005  -32.9647   25.3580 C   0  0  0  0  0  0  0  0  0  0  0  0
  -25.8927  -13.3963   21.5397 N   0  0  0  0  0  0  0  0  0  0  0  0
  -26.2698  -12.9710   20.3219 N   0  0  0  0  0  0  0  0  0  0  0  0
  -29.4733  -23.0671   19.2697 N   0  0  0  0  0  0  0  0  0  0  0  0
  -24.8586  -30.8357   22.3964 N   0  0  0  0  0  0  0  0  0  0  0  0
  -29.7106  -14.6018   20.0308 N   0  0  0  0  0  0  0  0  0  0  0  0
  -25.4714  -11.9083   18.3614 N   0  0  0  0  0  0  0  0  0  0  0  0
  -21.8222  -12.0730   21.0170 N   0  0  0  0  0  0  0  0  0  0  0  0
  -29.3012  -16.6776   18.9888 N   0  0  0  0  0  0  0  0  0  0  0  0
  -23.7070  -32.2074   19.2201 N   0  0  0  0  0  0  0  0  0  0  0  0
  -25.5159  -30.4507   25.4100 N   0  0  0  0  0  0  0  0  0  0  0  0
  -27.0045  -27.3912   26.6311 N   0  3  0  0  0  0  0  0  0  0  0  0
  -29.2779  -24.8477   17.7914 O   0  0  0  0  0  0  0  0  0  0  0  0
  -22.6107  -11.3844   18.9767 O   0  0  0  0  0  0  0  0  0  0  0  0
  -25.6054  -32.4372   20.5490 O   0  0  0  0  0  0  0  0  0  0  0  0
  -23.6103  -32.2746   23.7408 O   0  0  0  0  0  0  0  0  0  0  0  0
  -27.7564  -29.9512   25.7379 O   0  0  0  0  0  0  0  0  0  0  0  0
  -31.4215  -15.7366   18.9681 O   0  0  0  0  0  0  0  0  0  0  0  0
  -21.5777  -14.2245   26.1491 O   0  0  0  0  0  0  0  0  0  0  0  0
  -28.2596  -26.4610   19.6858 O   0  0  0  0  0  0  0  0  0  1  0  0
  -20.0845  -19.4678   26.9754 F   0  0  0  0  0  0  0  0  0  0  0  0
  -18.9096  -14.9324   26.3002 F   0  0  0  0  0  0  0  0  0  0  0  0
  1  2  1  0  0  0  0
  1  5  2  0  0  0  0
  2  6  2  0  0  0  0
  3  8  2  0  0  0  0
  3 17  1  0  0  0  0
  4  9  1  0  0  0  0
  4 17  2  0  0  0  0
  5 19  1  0  0  0  0
  6 21  1  0  0  0  0
  7 10  2  0  0  0  0
  7 20  1  0  0  0  0
  8 27  1  0  0  0  0
  9 27  2  0  0  0  0
 10 28  1  0  0  0  0
 11 12  2  0  0  0  0
 11 29  1  0  0  0  0
 12 30  1  0  0  0  0
 13 22  1  0  0  0  0
 13 28  2  0  0  0  0
 14 23  2  0  0  0  0
 14 26  1  0  0  0  0
 15 24  1  0  0  0  0
 15 26  2  0  0  0  0
 16 30  2  0  0  0  0
 16 31  1  0  0  0  0
 17 32  1  0  0  0  0
 18 32  1  0  0  0  0
 18 33  2  0  0  0  0
 18 35  1  0  0  0  0
 19 21  2  0  0  0  0
 19 40  1  0  0  0  0
 20 22  2  0  0  0  0
 20 41  1  0  0  0  0
 21 52  1  0  0  0  0
 22 42  1  0  0  0  0
 23 25  1  0  0  0  0
 23 56  1  0  0  0  0
 24 25  2  0  0  0  0
 24 57  1  0  0  0  0
 25 63  1  0  0  0  0
 26 74  1  0  0  0  0
 27 84  1  0  0  0  0
 28 85  1  0  0  0  0
 29 31  2  0  0  0  0
 29 84  1  0  0  0  0
 30 86  1  0  0  0  0
 31 87  1  0  0  0  0
 32 67  2  0  0  0  0
 33 68  1  0  0  0  0
 33 72  1  0  0  0  0
 34 53  1  0  0  0  0
 34 69  1  0  0  0  0
 34 78  2  0  0  0  0
 35 73  1  0  0  0  0
 35 79  2  0  0  0  0
 36 54  1  0  0  0  0
 36 75  1  0  0  0  0
 36 80  2  0  0  0  0
 37 64  1  0  0  0  0
 37 70  1  0  0  0  0
 37 81  2  0  0  0  0
 38 65  1  0  0  0  0
 38 76  1  0  0  0  0
 38 82  2  0  0  0  0
 39 71  1  0  0  0  0
 39 74  1  0  0  0  0
 39 83  2  0  0  0  0
 40 43  1  0  0  0  0
 41 54  1  0  0  0  0
 42 70  1  0  0  0  0
 43 46  1  0  0  0  0
 44 47  1  0  0  0  0
 44 49  1  0  0  0  0
 45 48  1  0  0  0  0
 45 50  1  0  0  0  0
 46 52  1  0  0  0  0
 47 53  1  0  0  0  0
 48 55  1  0  0  0  0
 49 69  1  0  0  0  0
 50 71  1  0  0  0  0
 51 55  1  0  0  0  0
 51 71  1  0  0  0  0
 52 75  1  0  0  0  0
 53 85  1  0  0  0  0
 54 70  1  0  0  0  0
 55 68  1  0  0  0  0
 58 65  1  0  0  0  0
 59 66  1  0  0  0  0
 60 66  1  0  0  0  0
 61 66  1  0  0  0  0
 62 77  1  0  0  0  0
 63 69  1  0  0  0  0
 64 66  1  0  0  0  0
 64 76  1  0  0  0  0
 65 77  1  0  0  0  0
 67 68  1  0  0  0  0
M  CHG  1  77   1
M  ISO  4  39 100  53 101  74 100  85 101
M  END
> <Batch ID>
0051

> <Smiles>
CNC(C)C(=O)NC(C(=O)N1Cc2cc([101O:1][101CH:1]3CCCN(Cc4c(C)cc([100NH:0][100C:0](=O)N5CCCC(n6nc(-c7ccc(Oc8ccc(F)cc8F)cc7)c(C(N)=O)c6N)C5)cc4C)C3=O)ccc2CC1C(=O)NC1CCCc2ccccc21)C(C)(C)C

> <Shape>
0.264

> <Color>
0.107

> <Negative vol penalty>
0.000

$$$$

  -OEChem-04042322373D

 85 93  0     1  0  0  0  0  0999 V2000
  -17.8438  -26.1028   31.0626 C   0  0  0  0  0  0  0  0  0  0  0  0
  -18.3086  -25.2505   30.0662 C   0  0  0  0  0  0  0  0  0  0  0  0
  -23.0742   -9.8684   19.9419 C   0  0  0  0  0  0  0  0  0  0  0  0
  -23.8381   -9.8747   22.2339 C   0  0  0  0  0  0  0  0  0  0  0  0
  -18.6429  -27.1556   31.5065 C   0  0  0  0  0  0  0  0  0  0  0  0
  -19.5725  -25.4510   29.5123 C   0  0  0  0  0  0  0  0  0  0  0  0
  -23.4668  -21.1421   27.5698 C   0  0  0  0  0  0  0  0  0  0  0  0
  -31.5057  -18.4288   20.0474 C   0  0  0  0  0  0  0  0  0  0  0  0
  -22.3316   -8.7147   20.1925 C   0  0  0  0  0  0  0  0  0  0  0  0
  -23.0954   -8.7209   22.4846 C   0  0  0  0  0  0  0  0  0  0  0  0
  -23.7495  -20.6360   26.3018 C   0  0  0  0  0  0  0  0  0  0  0  0
  -19.8688   -7.9206   23.0922 C   0  0  0  0  0  0  0  0  0  0  0  0
  -19.1139   -7.8795   24.2643 C   0  0  0  0  0  0  0  0  0  0  0  0
  -31.2457  -19.4811   19.1696 C   0  0  0  0  0  0  0  0  0  0  0  0
  -25.6190  -22.1498   26.1210 C   0  0  0  0  0  0  0  0  0  0  0  0
  -29.2939  -18.6682   20.9896 C   0  0  0  0  0  0  0  0  0  0  0  0
  -20.3578   -5.9425   24.9976 C   0  0  0  0  0  0  0  0  0  0  0  0
  -23.8275  -10.4485   20.9626 C   0  0  0  0  0  0  0  0  0  0  0  0
  -24.1674  -12.9739   20.8433 C   0  0  0  0  0  0  0  0  0  0  0  0
  -19.9211  -27.3633   30.9646 C   0  0  0  0  0  0  0  0  0  0  0  0
  -24.2529  -22.1651   28.1193 C   0  0  0  0  0  0  0  0  0  0  0  0
  -20.3889  -26.5084   29.9485 C   0  0  0  0  0  0  0  0  0  0  0  0
  -25.3458  -22.6653   27.3972 C   0  0  0  0  0  0  0  0  0  0  0  0
  -30.5298  -18.0223   20.9574 C   0  0  0  0  0  0  0  0  0  0  0  0
  -29.0339  -19.7206   20.1119 C   0  0  0  0  0  0  0  0  0  0  0  0
  -22.3421   -8.1409   21.4638 C   0  0  0  0  0  0  0  0  0  0  0  0
  -24.8239  -21.1418   25.5760 C   0  0  0  0  0  0  0  0  0  0  0  0
  -20.8682   -6.9726   22.8727 C   0  0  0  0  0  0  0  0  0  0  0  0
  -19.3584   -6.8905   25.2171 C   0  0  0  0  0  0  0  0  0  0  0  0
  -21.1127   -5.9836   23.8254 C   0  0  0  0  0  0  0  0  0  0  0  0
  -30.0098  -20.1271   19.2018 C   0  0  0  0  0  0  0  0  0  0  0  0
  -24.5954  -11.6400   20.7042 C   0  0  0  0  0  0  0  0  0  0  0  0
  -25.2585  -13.7243   20.4786 C   0  0  0  0  0  0  0  0  0  0  0  0
  -22.8973  -13.4886   21.2647 C   0  0  0  0  0  0  0  0  0  0  0  0
  -23.7093  -25.1524   29.0599 C   0  0  0  0  0  0  0  0  0  0  0  0
  -26.7811  -24.9749   30.0868 C   0  0  0  0  0  0  0  0  0  0  0  0
  -26.3755  -20.5443   22.3016 C   0  0  0  0  0  0  0  0  0  0  0  0
  -29.8506  -23.5103   29.8036 C   0  0  0  0  0  0  0  0  0  0  0  0
  -30.7418  -14.7470   20.6581 C   0  0  0  0  0  0  0  0  0  0  0  0
  -20.7295  -28.5432   31.4433 C   0  0  0  0  0  0  0  0  0  0  0  0
  -23.9511  -22.6817   29.4994 C   0  0  0  0  0  0  0  0  0  0  0  0
  -26.2328  -23.7495   27.9507 C   0  0  0  0  0  0  0  0  0  0  0  0
  -22.2071  -28.4614   31.0687 C   0  0  0  0  0  0  0  0  0  0  0  0
  -29.6018  -12.3630   18.2720 C   0  0  0  0  0  0  0  0  0  0  0  0
  -22.3654  -28.0643   29.6045 C   0  0  0  0  0  0  0  0  0  0  0  0
  -28.1653  -12.0681   18.7073 C   0  0  0  0  0  0  0  0  0  0  0  0
  -30.5208  -12.5838   19.4715 C   0  0  0  0  0  0  0  0  0  0  0  0
  -28.6209  -13.3129   20.8617 C   0  0  0  0  0  0  0  0  0  0  0  0
  -21.7643  -26.6785   29.3405 C   0  0  1  0  0  0  0  0  0  0  0  0
  -24.5062  -24.0807   29.7484 C   0  0  1  0  0  0  0  0  0  0  0  0
  -27.6449  -13.1382   19.6856 C   0  0  2  0  0  0  0  0  0  0  0  0
  -32.1722  -23.6025   30.7518 C   0  0  0  0  0  0  0  0  0  0  0  0
  -27.3308  -27.5147   28.4876 C   0  0  0  0  0  0  0  0  0  0  0  0
  -29.7783  -27.0253   28.6842 C   0  0  0  0  0  0  0  0  0  0  0  0
  -28.4225  -27.4411   30.7365 C   0  0  0  0  0  0  0  0  0  0  0  0
  -28.3575  -22.0159   21.9035 C   0  0  0  0  0  0  0  0  0  0  0  0
  -29.6954  -20.7143   30.7612 C   0  0  0  0  0  0  0  0  0  0  0  0
  -30.8083  -16.8970   21.8960 C   0  0  0  0  0  0  0  0  0  0  0  0
  -27.6912  -20.3891   20.1778 C   0  0  0  0  0  0  0  0  0  0  0  0
  -26.2174  -21.2144   23.6502 C   0  0  0  0  0  0  0  0  0  1  0  0
  -28.1307  -25.2682   29.4774 C   0  0  1  0  0  0  0  0  0  0  0  0
  -30.8007  -22.9525   30.8479 C   0  0  2  0  0  0  0  0  0  0  0  0
  -28.3979  -26.7932   29.3349 C   0  0  0  0  0  0  0  0  0  0  0  0
  -25.8596  -11.5453   20.2837 N   0  0  0  0  0  0  0  0  0  0  0  0
  -26.2354  -12.8292   20.1554 N   0  0  0  0  0  0  0  0  0  0  0  0
  -25.8930  -24.2262   29.3016 N   0  0  0  0  0  0  0  0  0  0  0  0
  -29.9710  -13.6115   20.3589 N   0  0  0  0  0  0  0  0  0  0  0  0
  -25.4678  -15.0560   20.4059 N   0  0  0  0  0  0  0  0  0  0  0  0
  -21.8866  -12.5786   21.6032 N   0  0  0  0  0  0  0  0  0  0  0  0
  -22.6579  -25.6420   29.8112 N   0  0  0  0  0  0  0  0  0  0  0  0
  -29.1106  -24.5639   30.2973 N   0  0  0  0  0  0  0  0  0  0  0  0
  -30.1435  -15.6750   21.5017 N   0  0  0  0  0  0  0  0  0  0  0  0
  -27.4322  -20.9666   21.4942 N   0  0  0  0  0  0  0  0  0  0  0  0
  -30.9637  -21.4822   30.6672 N   0  3  0  0  0  0  0  0  0  0  0  0
  -22.6603  -14.7191   21.3231 O   0  0  0  0  0  0  0  0  0  0  0  0
  -24.0257  -25.5097   27.9313 O   0  0  0  0  0  0  0  0  0  0  0  0
  -26.5269  -25.3886   31.2208 O   0  0  0  0  0  0  0  0  0  0  0  0
  -25.5765  -19.6588   21.9819 O   0  0  0  0  0  0  0  0  0  0  0  0
  -29.7752  -23.0591   28.6629 O   0  0  0  0  0  0  0  0  0  0  0  0
  -31.8769  -14.9235   20.2027 O   0  0  0  0  0  0  0  0  0  0  0  0
  -21.6174   -7.0152   21.7088 O   0  0  0  0  0  0  0  0  0  0  0  0
  -25.1016  -20.6501   24.3379 O   0  0  0  0  0  0  0  0  0  1  0  0
  -18.6344   -6.8521   26.3434 F   0  0  0  0  0  0  0  0  0  0  0  0
  -22.0723   -5.0709   23.6207 F   0  0  0  0  0  0  0  0  0  0  0  0
  -29.7235  -21.4250   18.1007 Cl  0  0  0  0  0  0  0  0  0  0  0  0
  1  2  1  0  0  0  0
  1  5  2  0  0  0  0
  2  6  2  0  0  0  0
  3  9  2  0  0  0  0
  3 18  1  0  0  0  0
  4 10  1  0  0  0  0
  4 18  2  0  0  0  0
  5 20  1  0  0  0  0
  6 22  1  0  0  0  0
  7 11  2  0  0  0  0
  7 21  1  0  0  0  0
  8 14  2  0  0  0  0
  8 24  1  0  0  0  0
  9 26  1  0  0  0  0
 10 26  2  0  0  0  0
 11 27  1  0  0  0  0
 12 13  2  0  0  0  0
 12 28  1  0  0  0  0
 13 29  1  0  0  0  0
 14 31  1  0  0  0  0
 15 23  1  0  0  0  0
 15 27  2  0  0  0  0
 16 24  2  0  0  0  0
 16 25  1  0  0  0  0
 17 29  2  0  0  0  0
 17 30  1  0  0  0  0
 18 32  1  0  0  0  0
 19 32  1  0  0  0  0
 19 33  2  0  0  0  0
 19 34  1  0  0  0  0
 20 22  2  0  0  0  0
 20 40  1  0  0  0  0
 21 23  2  0  0  0  0
 21 41  1  0  0  0  0
 22 49  1  0  0  0  0
 23 42  1  0  0  0  0
 24 58  1  0  0  0  0
 25 31  2  0  0  0  0
 25 59  1  0  0  0  0
 26 81  1  0  0  0  0
 27 82  1  0  0  0  0
 28 30  2  0  0  0  0
 28 81  1  0  0  0  0
 29 83  1  0  0  0  0
 30 84  1  0  0  0  0
 31 85  1  0  0  0  0
 32 64  2  0  0  0  0
 33 65  1  0  0  0  0
 33 68  1  0  0  0  0
 34 69  1  0  0  0  0
 34 75  2  0  0  0  0
 35 50  1  0  0  0  0
 35 70  1  0  0  0  0
 35 76  2  0  0  0  0
 36 61  1  0  0  0  0
 36 66  1  0  0  0  0
 36 77  2  0  0  0  0
 37 60  1  0  0  0  0
 37 73  1  0  0  0  0
 37 78  2  0  0  0  0
 38 62  1  0  0  0  0
 38 71  1  0  0  0  0
 38 79  2  0  0  0  0
 39 67  1  0  0  0  0
 39 72  1  0  0  0  0
 39 80  2  0  0  0  0
 40 43  1  0  0  0  0
 41 50  1  0  0  0  0
 42 66  1  0  0  0  0
 43 45  1  0  0  0  0
 44 46  1  0  0  0  0
 44 47  1  0  0  0  0
 45 49  1  0  0  0  0
 46 51  1  0  0  0  0
 47 67  1  0  0  0  0
 48 51  1  0  0  0  0
 48 67  1  0  0  0  0
 49 70  1  0  0  0  0
 50 66  1  0  0  0  0
 51 65  1  0  0  0  0
 52 62  1  0  0  0  0
 53 63  1  0  0  0  0
 54 63  1  0  0  0  0
 55 63  1  0  0  0  0
 56 73  1  0  0  0  0
 57 74  1  0  0  0  0
 58 72  1  0  0  0  0
 59 73  1  0  0  0  0
 60 82  1  0  0  0  0
 61 63  1  0  0  0  0
 61 71  1  0  0  0  0
 62 74  1  0  0  0  0
 64 65  1  0  0  0  0
M  CHG  1  74   1
M  ISO  4  39 100  60 101  72 100  82 101
M  END
> <Batch ID>
0051

> <Smiles>
CNC(C)C(=O)NC(C(=O)N1Cc2cc([101O:1][101CH2:1]C(=O)N(C)Cc3cc(C[100NH:0][100C:0](=O)N4CCCC(n5nc(-c6ccc(Oc7ccc(F)cc7F)cc6)c(C(N)=O)c5N)C4)ccc3Cl)ccc2CC1C(=O)NC1CCCc2ccccc21)C(C)(C)C

> <Shape>
0.201

> <Color>
0.196

> <Negative vol penalty>
0.000

$$$$

  -OEChem-04042322373D

 89 98  0     1  0  0  0  0  0999 V2000
  -29.1528  -32.5057   26.0505 C   0  0  0  0  0  0  0  0  0  0  0  0
  -28.9569  -31.2777   25.4268 C   0  0  0  0  0  0  0  0  0  0  0  0
  -24.5317  -10.6944   23.8758 C   0  0  0  0  0  0  0  0  0  0  0  0
  -24.6414   -9.3041   21.9030 C   0  0  0  0  0  0  0  0  0  0  0  0
  -28.0567  -33.3031   26.3771 C   0  0  0  0  0  0  0  0  0  0  0  0
  -27.6646  -30.8459   25.1302 C   0  0  0  0  0  0  0  0  0  0  0  0
  -27.2842  -28.9154   20.4640 C   0  0  0  0  0  0  0  0  0  0  0  0
  -24.1524   -9.5874   24.6349 C   0  0  0  0  0  0  0  0  0  0  0  0
  -24.2622   -8.1970   22.6621 C   0  0  0  0  0  0  0  0  0  0  0  0
  -27.7544  -27.6171   20.2718 C   0  0  0  0  0  0  0  0  0  0  0  0
  -21.4098   -6.9194   23.9515 C   0  0  0  0  0  0  0  0  0  0  0  0
  -20.4325   -6.0757   23.4237 C   0  0  0  0  0  0  0  0  0  0  0  0
  -25.4935  -26.7858   20.4001 C   0  0  0  0  0  0  0  0  0  0  0  0
  -30.9400  -20.4554   21.1806 C   0  0  0  0  0  0  0  0  0  0  0  0
  -31.3056  -18.2950   20.1628 C   0  0  0  0  0  0  0  0  0  0  0  0
  -21.9932   -4.2323   23.4806 C   0  0  0  0  0  0  0  0  0  0  0  0
  -24.7762  -10.5528   22.5098 C   0  0  0  0  0  0  0  0  0  0  0  0
  -24.4385  -12.8850   21.5329 C   0  0  0  0  0  0  0  0  0  0  0  0
  -26.7509  -32.8852   26.0756 C   0  0  0  0  0  0  0  0  0  0  0  0
  -25.9139  -29.1579   20.6369 C   0  0  0  0  0  0  0  0  0  0  0  0
  -26.5499  -31.6379   25.4542 C   0  0  0  0  0  0  0  0  0  0  0  0
  -25.0082  -28.0885   20.5918 C   0  0  0  0  0  0  0  0  0  0  0  0
  -31.7959  -19.5327   20.5790 C   0  0  0  0  0  0  0  0  0  0  0  0
  -29.5939  -20.1402   21.3660 C   0  0  0  0  0  0  0  0  0  0  0  0
  -29.1037  -18.9025   20.9498 C   0  0  0  0  0  0  0  0  0  0  0  0
  -29.9595  -17.9798   20.3482 C   0  0  0  0  0  0  0  0  0  0  0  0
  -24.0177   -8.3387   24.0281 C   0  0  0  0  0  0  0  0  0  0  0  0
  -26.8593  -26.5517   20.2428 C   0  0  0  0  0  0  0  0  0  0  0  0
  -22.6789   -6.4195   24.2438 C   0  0  0  0  0  0  0  0  0  0  0  0
  -20.7242   -4.7321   23.1882 C   0  0  0  0  0  0  0  0  0  0  0  0
  -22.9705   -5.0760   24.0084 C   0  0  0  0  0  0  0  0  0  0  0  0
  -25.1674  -11.6961   21.7250 C   0  0  0  0  0  0  0  0  0  0  0  0
  -25.2355  -13.6480   20.7149 C   0  0  0  0  0  0  0  0  0  0  0  0
  -26.9184  -22.7722   21.7262 C   0  0  0  0  0  0  0  0  0  0  0  0
  -23.8250  -20.7939   21.6863 C   0  0  0  0  0  0  0  0  0  0  0  0
  -25.6379  -22.4182   21.9134 C   0  0  0  0  0  0  0  0  0  0  0  0
  -25.1018  -21.1464   21.4993 C   0  0  0  0  0  0  0  0  0  0  0  0
  -23.1558  -13.2658   22.0480 C   0  0  0  0  0  0  0  0  0  0  0  0
  -24.1268  -30.3665   22.9713 C   0  0  0  0  0  0  0  0  0  0  0  0
  -21.7604  -30.1007   20.7686 C   0  0  0  0  0  0  0  0  0  0  0  0
  -20.7221  -27.6854   18.2976 C   0  0  0  0  0  0  0  0  0  0  0  0
  -30.2147  -15.7018   19.3033 C   0  0  0  0  0  0  0  0  0  0  0  0
  -25.5947  -33.7603   26.4906 C   0  0  0  0  0  0  0  0  0  0  0  0
  -25.4201  -30.5673   20.8165 C   0  0  0  0  0  0  0  0  0  0  0  0
  -23.5253  -28.2978   20.7520 C   0  0  0  0  0  0  0  0  0  0  0  0
  -27.4738  -24.1039   22.1613 C   0  0  0  0  0  0  0  0  0  0  0  0
  -24.2801  -33.3987   25.8040 C   0  0  0  0  0  0  0  0  0  0  0  0
  -29.4139  -12.4381   18.1267 C   0  0  0  0  0  0  0  0  0  0  0  0
  -24.0540  -31.8907   25.8442 C   0  0  0  0  0  0  0  0  0  0  0  0
  -28.1778  -12.0519   18.9422 C   0  0  0  0  0  0  0  0  0  0  0  0
  -29.1901  -23.8016   20.3276 C   0  0  0  0  0  0  0  0  0  0  0  0
  -30.4090  -13.2491   18.9548 C   0  0  0  0  0  0  0  0  0  0  0  0
  -28.6089  -14.0433   20.4374 C   0  0  0  0  0  0  0  0  0  0  0  0
  -28.4861  -22.5169   19.8932 C   0  0  0  0  0  0  0  0  0  0  0  0
  -25.1649  -31.1460   25.0939 C   0  0  1  0  0  0  0  0  0  0  0  0
  -24.0560  -30.6405   21.4956 C   0  0  1  0  0  0  0  0  0  0  0  0
  -27.5480  -13.2807   19.6270 C   0  0  2  0  0  0  0  0  0  0  0  0
  -28.2375  -24.7761   21.0201 C   0  0  1  0  0  0  0  0  0  1  0  0
  -33.2354  -19.8691   20.3821 C   0  0  0  0  0  0  0  0  0  0  0  0
  -27.6587  -18.5689   21.1519 C   0  0  0  0  0  0  0  0  0  0  0  0
  -19.4586  -27.9879   16.1506 C   0  0  0  0  0  0  0  0  0  0  0  0
  -19.3035  -29.4636   22.4621 C   0  0  0  0  0  0  0  0  0  0  0  0
  -18.3911  -28.1659   20.5251 C   0  0  0  0  0  0  0  0  0  0  0  0
  -18.8087  -30.6147   20.2977 C   0  0  0  0  0  0  0  0  0  0  0  0
  -22.8455  -26.3523   16.7250 C   0  0  0  0  0  0  0  0  0  0  0  0
  -28.6954  -21.1499   22.0174 C   0  0  0  0  0  0  0  0  0  0  0  0
  -20.7729  -29.0252   20.3849 C   0  0  1  0  0  0  0  0  0  0  0  0
  -20.8289  -27.8247   16.7897 C   0  0  2  0  0  0  0  0  0  0  0  0
  -19.3445  -29.3109   20.9285 C   0  0  0  0  0  0  0  0  0  0  0  0
  -26.3374  -11.6988   21.0807 N   0  0  0  0  0  0  0  0  0  0  0  0
  -26.3498  -12.8987   20.4758 N   0  0  0  0  0  0  0  0  0  0  0  0
  -23.0921  -29.6934   20.9313 N   0  0  0  0  0  0  0  0  0  0  0  0
  -29.7426  -14.3991   19.5697 N   0  0  0  0  0  0  0  0  0  0  0  0
  -25.0849  -14.8800   20.1840 N   0  0  0  0  0  0  0  0  0  0  0  0
  -22.0143  -12.9501   21.2985 N   0  0  0  0  0  0  0  0  0  0  0  0
  -29.4821  -16.7173   19.9169 N   0  0  0  0  0  0  0  0  0  0  0  0
  -24.9534  -31.2299   23.6647 N   0  0  0  0  0  0  0  0  0  0  0  0
  -20.8463  -28.9028   18.9330 N   0  0  0  0  0  0  0  0  0  0  0  0
  -27.7797  -21.8387   21.0437 N   0  3  1  0  0  0  0  0  0  0  0  0
  -21.4805  -26.6196   16.2031 N   0  3  0  0  0  0  0  0  0  0  0  0
  -23.0268  -13.8827   23.1326 O   0  0  0  0  0  0  0  0  0  0  0  0
  -23.4784  -29.4414   23.4459 O   0  0  0  0  0  0  0  0  0  0  0  0
  -21.3660  -31.2607   20.9115 O   0  0  0  0  0  0  0  0  0  0  0  0
  -20.5425  -26.6053   18.8557 O   0  0  0  0  0  0  0  0  0  0  0  0
  -31.1800  -15.9032   18.5619 O   0  0  0  0  0  0  0  0  0  0  0  0
  -23.6478   -7.2582   24.7686 O   0  0  0  0  0  0  0  0  0  0  0  0
  -27.3156  -25.2833   20.0560 O   0  0  0  0  0  0  0  0  0  1  0  0
  -19.7851   -3.9217   22.6828 F   0  0  0  0  0  0  0  0  0  0  0  0
  -24.1875   -4.5898   24.2883 F   0  0  0  0  0  0  0  0  0  0  0  0
  1  2  1  0  0  0  0
  1  5  2  0  0  0  0
  2  6  2  0  0  0  0
  3  8  2  0  0  0  0
  3 17  1  0  0  0  0
  4  9  1  0  0  0  0
  4 17  2  0  0  0  0
  5 19  1  0  0  0  0
  6 21  1  0  0  0  0
  7 10  2  0  0  0  0
  7 20  1  0  0  0  0
  8 27  1  0  0  0  0
  9 27  2  0  0  0  0
 10 28  1  0  0  0  0
 11 12  2  0  0  0  0
 11 29  1  0  0  0  0
 12 30  1  0  0  0  0
 13 22  1  0  0  0  0
 13 28  2  0  0  0  0
 14 23  2  0  0  0  0
 14 24  1  0  0  0  0
 15 23  1  0  0  0  0
 15 26  2  0  0  0  0
 16 30  2  0  0  0  0
 16 31  1  0  0  0  0
 17 32  1  0  0  0  0
 18 32  1  0  0  0  0
 18 33  2  0  0  0  0
 18 38  1  0  0  0  0
 19 21  2  0  0  0  0
 19 43  1  0  0  0  0
 20 22  2  0  0  0  0
 20 44  1  0  0  0  0
 21 55  1  0  0  0  0
 22 45  1  0  0  0  0
 23 59  1  0  0  0  0
 24 25  2  0  0  0  0
 24 66  1  0  0  0  0
 25 26  1  0  0  0  0
 25 60  1  0  0  0  0
 26 76  1  0  0  0  0
 27 86  1  0  0  0  0
 28 87  1  0  0  0  0
 29 31  2  0  0  0  0
 29 86  1  0  0  0  0
 30 88  1  0  0  0  0
 31 89  1  0  0  0  0
 32 70  2  0  0  0  0
 33 71  1  0  0  0  0
 33 74  1  0  0  0  0
 34 36  2  0  0  0  0
 34 46  1  0  0  0  0
 34 79  1  0  0  0  0
 35 37  2  0  0  0  0
 36 37  1  0  0  0  0
 38 75  1  0  0  0  0
 38 81  2  0  0  0  0
 39 56  1  0  0  0  0
 39 77  1  0  0  0  0
 39 82  2  0  0  0  0
 40 67  1  0  0  0  0
 40 72  1  0  0  0  0
 40 83  2  0  0  0  0
 41 68  1  0  0  0  0
 41 78  1  0  0  0  0
 41 84  2  0  0  0  0
 42 73  1  0  0  0  0
 42 76  1  0  0  0  0
 42 85  2  0  0  0  0
 43 47  1  0  0  0  0
 44 56  1  0  0  0  0
 45 72  1  0  0  0  0
 46 58  1  0  0  0  0
 47 49  1  0  0  0  0
 48 50  1  0  0  0  0
 48 52  1  0  0  0  0
 49 55  1  0  0  0  0
 50 57  1  0  0  0  0
 51 54  1  0  0  0  0
 51 58  1  0  0  0  0
 52 73  1  0  0  0  0
 53 57  1  0  0  0  0
 53 73  1  0  0  0  0
 54 79  1  0  0  0  0
 55 77  1  0  0  0  0
 56 72  1  0  0  0  0
 57 71  1  0  0  0  0
 58 87  1  0  0  0  0
 61 68  1  0  0  0  0
 62 69  1  0  0  0  0
 63 69  1  0  0  0  0
 64 69  1  0  0  0  0
 65 80  1  0  0  0  0
 66 79  1  0  0  0  0
 67 69  1  0  0  0  0
 67 78  1  0  0  0  0
 68 80  1  0  0  0  0
 70 71  1  0  0  0  0
M  CHG  2  79   1  80   1
M  ISO  4  42 100  58 101  76 100  87 101
M  END
> <Batch ID>
0051

> <Smiles>
C=CC=C1C[101CH:1]([101O:1]c2ccc3c(c2)CN(C(=O)C(NC(=O)C(C)NC)C(C)(C)C)C(C(=O)NC2CCCc4ccccc42)C3)CCN1Cc1cc(C)cc([100NH:0][100C:0](=O)N2CCCC(n3nc(-c4ccc(Oc5ccc(F)cc5F)cc4)c(C(N)=O)c3N)C2)c1C

> <Shape>
0.326

> <Color>
0.141

> <Negative vol penalty>
0.000

$$$$

  -OEChem-04042322373D

 85 93  0     1  0  0  0  0  0999 V2000
  -22.0474  -12.4673   18.7575 C   0  0  0  0  0  0  0  0  0  0  0  0
  -21.9915  -13.7933   19.1745 C   0  0  0  0  0  0  0  0  0  0  0  0
  -29.4326  -27.3533   22.1006 C   0  0  0  0  0  0  0  0  0  0  0  0
  -27.4720  -27.3050   20.6896 C   0  0  0  0  0  0  0  0  0  0  0  0
  -23.1564  -11.6840   19.0748 C   0  0  0  0  0  0  0  0  0  0  0  0
  -23.0443  -14.3366   19.9100 C   0  0  0  0  0  0  0  0  0  0  0  0
  -24.3770  -18.9432   18.2828 C   0  0  0  0  0  0  0  0  0  0  0  0
  -30.0661  -26.4460   21.2514 C   0  0  0  0  0  0  0  0  0  0  0  0
  -28.1055  -26.3977   19.8404 C   0  0  0  0  0  0  0  0  0  0  0  0
  -23.5678  -20.0123   18.6649 C   0  0  0  0  0  0  0  0  0  0  0  0
  -30.4221  -26.4898   17.3816 C   0  0  0  0  0  0  0  0  0  0  0  0
  -30.3287  -26.7159   16.0084 C   0  0  0  0  0  0  0  0  0  0  0  0
  -25.1430  -20.5755   20.4029 C   0  0  0  0  0  0  0  0  0  0  0  0
  -19.8677  -26.8514   23.1931 C   0  0  0  0  0  0  0  0  0  0  0  0
  -18.9168  -28.0533   21.3255 C   0  0  0  0  0  0  0  0  0  0  0  0
  -19.2347  -29.1694   23.4446 C   0  0  0  0  0  0  0  0  0  0  0  0
  -29.2465  -24.5739   15.7293 C   0  0  0  0  0  0  0  0  0  0  0  0
  -28.1355  -27.7827   21.8197 C   0  0  0  0  0  0  0  0  0  0  0  0
  -27.5063  -30.1245   22.6122 C   0  0  0  0  0  0  0  0  0  0  0  0
  -24.2276  -12.2208   19.8063 C   0  0  0  0  0  0  0  0  0  0  0  0
  -25.5719  -18.6753   18.9660 C   0  0  0  0  0  0  0  0  0  0  0  0
  -24.1680  -13.5595   20.2385 C   0  0  0  0  0  0  0  0  0  0  0  0
  -25.9669  -19.5040   20.0258 C   0  0  0  0  0  0  0  0  0  0  0  0
  -19.4448  -26.8800   21.8643 C   0  0  0  0  0  0  0  0  0  0  0  0
  -19.7626  -27.9960   23.9833 C   0  0  0  0  0  0  0  0  0  0  0  0
  -29.4026  -25.9682   20.1213 C   0  0  0  0  0  0  0  0  0  0  0  0
  -23.9493  -20.8269   19.7270 C   0  0  0  0  0  0  0  0  0  0  0  0
  -29.9278  -25.3057   17.9287 C   0  0  0  0  0  0  0  0  0  0  0  0
  -29.7409  -25.7580   15.1822 C   0  0  0  0  0  0  0  0  0  0  0  0
  -18.8118  -29.1980   22.1157 C   0  0  0  0  0  0  0  0  0  0  0  0
  -29.3400  -24.3478   17.1026 C   0  0  0  0  0  0  0  0  0  0  0  0
  -27.4803  -28.7195   22.6968 C   0  0  0  0  0  0  0  0  0  0  0  0
  -26.7353  -30.5463   23.6677 C   0  0  0  0  0  0  0  0  0  0  0  0
  -28.1682  -30.9724   21.6643 C   0  0  0  0  0  0  0  0  0  0  0  0
  -26.6820  -16.2327   20.6705 C   0  0  0  0  0  0  0  0  0  0  0  0
  -29.4151  -17.9798   20.6701 C   0  0  0  0  0  0  0  0  0  0  0  0
  -21.6124  -24.2418   20.9159 C   0  0  0  0  0  0  0  0  0  0  0  0
  -30.8964  -21.0416   20.3909 C   0  0  0  0  0  0  0  0  0  0  0  0
  -22.2954  -27.9781   26.7568 C   0  0  0  0  0  0  0  0  0  0  0  0
  -25.3839  -11.3218   20.1658 C   0  0  0  0  0  0  0  0  0  0  0  0
  -26.4469  -17.5343   18.5243 C   0  0  0  0  0  0  0  0  0  0  0  0
  -27.2503  -19.2711   20.7788 C   0  0  0  0  0  0  0  0  0  0  0  0
  -26.6253  -12.0810   20.6269 C   0  0  0  0  0  0  0  0  0  0  0  0
  -25.3605  -29.2371   28.0594 C   0  0  0  0  0  0  0  0  0  0  0  0
  -26.2472  -13.1578   21.6390 C   0  0  0  0  0  0  0  0  0  0  0  0
  -26.2537  -29.3740   26.8251 C   0  0  0  0  0  0  0  0  0  0  0  0
  -24.4560  -28.0101   27.9682 C   0  0  0  0  0  0  0  0  0  0  0  0
  -24.5367  -28.0665   25.5056 C   0  0  0  0  0  0  0  0  0  0  0  0
  -25.3013  -14.1920   21.0169 C   0  0  1  0  0  0  0  0  0  0  0  0
  -27.3875  -17.0435   19.6205 C   0  0  1  0  0  0  0  0  0  0  0  0
  -25.4272  -29.3206   25.5261 C   0  0  2  0  0  0  0  0  0  0  0  0
  -32.7500  -22.7248   20.2222 C   0  0  0  0  0  0  0  0  0  0  0  0
  -29.4223  -17.7378   23.7117 C   0  0  0  0  0  0  0  0  0  0  0  0
  -31.0809  -19.6118   23.7873 C   0  0  0  0  0  0  0  0  0  0  0  0
  -31.6663  -17.4760   22.6391 C   0  0  0  0  0  0  0  0  0  0  0  0
  -31.0285  -20.7734   17.4465 C   0  0  0  0  0  0  0  0  0  0  0  0
  -19.5573  -25.6478   21.0139 C   0  0  0  0  0  0  0  0  0  0  0  0
  -20.2146  -27.9657   25.4043 C   0  0  0  0  0  0  0  0  0  0  0  0
  -23.0212  -24.2608   20.3437 C   0  0  0  0  0  0  0  0  0  0  0  0
  -23.8129  -23.0046   20.6730 C   0  0  0  0  0  0  0  0  0  1  0  0
  -30.0025  -19.0462   21.5629 C   0  0  1  0  0  0  0  0  0  0  0  0
  -32.0919  -21.5123   19.5824 C   0  0  2  0  0  0  0  0  0  0  0  0
  -30.5178  -18.4714   22.9125 C   0  0  0  0  0  0  0  0  0  0  0  0
  -26.7507  -28.2783   23.7249 N   0  0  0  0  0  0  0  0  0  0  0  0
  -26.3111  -29.4126   24.2961 N   0  0  0  0  0  0  0  0  0  0  0  0
  -28.0686  -18.1392   20.3132 N   0  0  0  0  0  0  0  0  0  0  0  0
  -23.6988  -28.0208   26.7142 N   0  0  0  0  0  0  0  0  0  0  0  0
  -26.3856  -31.7728   24.1104 N   0  0  0  0  0  0  0  0  0  0  0  0
  -28.9189  -30.3744   20.6430 N   0  0  0  0  0  0  0  0  0  0  0  0
  -26.0395  -15.1125   20.1789 N   0  0  0  0  0  0  0  0  0  0  0  0
  -20.9190  -25.4006   20.5974 N   0  0  0  0  0  0  0  0  0  0  0  0
  -31.0250  -19.7228   20.7722 N   0  0  0  0  0  0  0  0  0  0  0  0
  -21.6553  -27.9982   25.5237 N   0  0  0  0  0  0  0  0  0  0  0  0
  -31.6706  -21.8803   18.2011 N   0  3  0  0  0  0  0  0  0  0  0  0
  -28.1096  -32.2237   21.7310 O   0  0  0  0  0  0  0  0  0  0  0  0
  -26.7191  -16.5958   21.8404 O   0  0  0  0  0  0  0  0  0  0  0  0
  -30.1268  -17.0439   20.2972 O   0  0  0  0  0  0  0  0  0  0  0  0
  -21.1654  -23.3068   21.5745 O   0  0  0  0  0  0  0  0  0  0  0  0
  -29.9455  -21.7721   20.6607 O   0  0  0  0  0  0  0  0  0  0  0  0
  -21.6599  -27.9312   27.8155 O   0  0  0  0  0  0  0  0  0  0  0  0
  -30.0206  -25.0831   19.2923 O   0  0  0  0  0  0  0  0  0  0  0  0
  -23.1610  -21.8706   20.1025 O   0  0  0  0  0  0  0  0  0  1  0  0
  -29.6498  -25.9759   13.8638 F   0  0  0  0  0  0  0  0  0  0  0  0
  -18.3038  -30.3242   21.5985 F   0  0  0  0  0  0  0  0  0  0  0  0
  -28.8623  -23.2088   17.6226 F   0  0  0  0  0  0  0  0  0  0  0  0
  1  2  1  0  0  0  0
  1  5  2  0  0  0  0
  2  6  2  0  0  0  0
  3  8  2  0  0  0  0
  3 18  1  0  0  0  0
  4  9  1  0  0  0  0
  4 18  2  0  0  0  0
  5 20  1  0  0  0  0
  6 22  1  0  0  0  0
  7 10  2  0  0  0  0
  7 21  1  0  0  0  0
  8 26  1  0  0  0  0
  9 26  2  0  0  0  0
 10 27  1  0  0  0  0
 11 12  2  0  0  0  0
 11 28  1  0  0  0  0
 12 29  1  0  0  0  0
 13 23  1  0  0  0  0
 13 27  2  0  0  0  0
 14 24  2  0  0  0  0
 14 25  1  0  0  0  0
 15 24  1  0  0  0  0
 15 30  2  0  0  0  0
 16 25  2  0  0  0  0
 16 30  1  0  0  0  0
 17 29  2  0  0  0  0
 17 31  1  0  0  0  0
 18 32  1  0  0  0  0
 19 32  1  0  0  0  0
 19 33  2  0  0  0  0
 19 34  1  0  0  0  0
 20 22  2  0  0  0  0
 20 40  1  0  0  0  0
 21 23  2  0  0  0  0
 21 41  1  0  0  0  0
 22 49  1  0  0  0  0
 23 42  1  0  0  0  0
 24 57  1  0  0  0  0
 25 58  1  0  0  0  0
 26 81  1  0  0  0  0
 27 82  1  0  0  0  0
 28 31  2  0  0  0  0
 28 81  1  0  0  0  0
 29 83  1  0  0  0  0
 30 84  1  0  0  0  0
 31 85  1  0  0  0  0
 32 64  2  0  0  0  0
 33 65  1  0  0  0  0
 33 68  1  0  0  0  0
 34 69  1  0  0  0  0
 34 75  2  0  0  0  0
 35 50  1  0  0  0  0
 35 70  1  0  0  0  0
 35 76  2  0  0  0  0
 36 61  1  0  0  0  0
 36 66  1  0  0  0  0
 36 77  2  0  0  0  0
 37 59  1  0  0  0  0
 37 71  1  0  0  0  0
 37 78  2  0  0  0  0
 38 62  1  0  0  0  0
 38 72  1  0  0  0  0
 38 79  2  0  0  0  0
 39 67  1  0  0  0  0
 39 73  1  0  0  0  0
 39 80  2  0  0  0  0
 40 43  1  0  0  0  0
 41 50  1  0  0  0  0
 42 66  1  0  0  0  0
 43 45  1  0  0  0  0
 44 46  1  0  0  0  0
 44 47  1  0  0  0  0
 45 49  1  0  0  0  0
 46 51  1  0  0  0  0
 47 67  1  0  0  0  0
 48 51  1  0  0  0  0
 48 67  1  0  0  0  0
 49 70  1  0  0  0  0
 50 66  1  0  0  0  0
 51 65  1  0  0  0  0
 52 62  1  0  0  0  0
 53 63  1  0  0  0  0
 54 63  1  0  0  0  0
 55 63  1  0  0  0  0
 56 74  1  0  0  0  0
 57 71  1  0  0  0  0
 58 73  1  0  0  0  0
 59 60  1  0  0  0  0
 60 82  1  0  0  0  0
 61 63  1  0  0  0  0
 61 72  1  0  0  0  0
 62 74  1  0  0  0  0
 64 65  1  0  0  0  0
M  CHG  1  74   1
M  ISO  4  39 100  60 101  73 100  82 101
M  END
> <Batch ID>
0051

> <Smiles>
CNC(C)C(=O)NC(C(=O)N1Cc2cc([101O:1][101CH2:1]CC(=O)NCc3cc(F)cc(C[100NH:0][100C:0](=O)N4CCCC(n5nc(-c6ccc(Oc7ccc(F)cc7F)cc6)c(C(N)=O)c5N)C4)c3)ccc2CC1C(=O)NC1CCCc2ccccc21)C(C)(C)C

> <Shape>
0.219

> <Color>
0.070

> <Negative vol penalty>
0.000

$$$$

  -OEChem-04042322373D

 89 98  0     1  0  0  0  0  0999 V2000
  -29.0909  -32.4654   26.0742 C   0  0  0  0  0  0  0  0  0  0  0  0
  -28.9074  -31.2377   25.4462 C   0  0  0  0  0  0  0  0  0  0  0  0
  -24.5378  -10.7047   23.8791 C   0  0  0  0  0  0  0  0  0  0  0  0
  -24.6333   -9.3133   21.9063 C   0  0  0  0  0  0  0  0  0  0  0  0
  -27.9871  -33.2527   26.3994 C   0  0  0  0  0  0  0  0  0  0  0  0
  -27.6198  -30.7961   25.1439 C   0  0  0  0  0  0  0  0  0  0  0  0
  -27.2714  -28.8766   20.4706 C   0  0  0  0  0  0  0  0  0  0  0  0
  -31.8466  -19.4966   20.5592 C   0  0  0  0  0  0  0  0  0  0  0  0
  -31.3466  -18.2625   20.1439 C   0  0  0  0  0  0  0  0  0  0  0  0
  -24.1540   -9.6002   24.6396 C   0  0  0  0  0  0  0  0  0  0  0  0
  -24.2496   -8.2087   22.6668 C   0  0  0  0  0  0  0  0  0  0  0  0
  -27.7531  -27.5828   20.2762 C   0  0  0  0  0  0  0  0  0  0  0  0
  -21.3934   -6.9486   23.9649 C   0  0  0  0  0  0  0  0  0  0  0  0
  -20.4095   -6.1107   23.4402 C   0  0  0  0  0  0  0  0  0  0  0  0
  -25.4988  -26.7323   20.3943 C   0  0  0  0  0  0  0  0  0  0  0  0
  -21.9591   -4.2579   23.4930 C   0  0  0  0  0  0  0  0  0  0  0  0
  -24.7774  -10.5613   22.5124 C   0  0  0  0  0  0  0  0  0  0  0  0
  -24.4510  -12.8953   21.5359 C   0  0  0  0  0  0  0  0  0  0  0  0
  -26.6859  -32.8248   26.0923 C   0  0  0  0  0  0  0  0  0  0  0  0
  -25.8985  -29.1071   20.6396 C   0  0  0  0  0  0  0  0  0  0  0  0
  -26.4974  -31.5777   25.4665 C   0  0  0  0  0  0  0  0  0  0  0  0
  -25.0020  -28.0303   20.5882 C   0  0  0  0  0  0  0  0  0  0  0  0
  -30.9991  -20.4246   21.1644 C   0  0  0  0  0  0  0  0  0  0  0  0
  -29.6515  -20.1184   21.3542 C   0  0  0  0  0  0  0  0  0  0  0  0
  -29.1515  -18.8842   20.9388 C   0  0  0  0  0  0  0  0  0  0  0  0
  -29.9991  -17.9563   20.3336 C   0  0  0  0  0  0  0  0  0  0  0  0
  -24.0100   -8.3522   24.0335 C   0  0  0  0  0  0  0  0  0  0  0  0
  -26.8670  -26.5101   20.2409 C   0  0  0  0  0  0  0  0  0  0  0  0
  -22.6602   -6.4412   24.2537 C   0  0  0  0  0  0  0  0  0  0  0  0
  -20.6923   -4.7654   23.2042 C   0  0  0  0  0  0  0  0  0  0  0  0
  -22.9431   -5.0958   24.0177 C   0  0  0  0  0  0  0  0  0  0  0  0
  -25.1732  -11.7020   21.7261 C   0  0  0  0  0  0  0  0  0  0  0  0
  -25.2502  -13.6532   20.7153 C   0  0  0  0  0  0  0  0  0  0  0  0
  -26.9528  -22.7268   21.7131 C   0  0  0  0  0  0  0  0  0  0  0  0
  -23.8763  -20.7227   21.6568 C   0  0  0  0  0  0  0  0  0  0  0  0
  -25.6748  -22.3614   21.8949 C   0  0  0  0  0  0  0  0  0  0  0  0
  -25.1507  -21.0865   21.4753 C   0  0  0  0  0  0  0  0  0  0  0  0
  -23.1721  -13.2839   22.0545 C   0  0  0  0  0  0  0  0  0  0  0  0
  -24.0935  -30.2937   22.9715 C   0  0  0  0  0  0  0  0  0  0  0  0
  -21.7369  -30.0146   20.7600 C   0  0  0  0  0  0  0  0  0  0  0  0
  -20.7272  -27.5983   18.2782 C   0  0  0  0  0  0  0  0  0  0  0  0
  -30.2375  -15.6765   19.2886 C   0  0  0  0  0  0  0  0  0  0  0  0
  -25.5210  -33.6889   26.5059 C   0  0  0  0  0  0  0  0  0  0  0  0
  -25.3923  -30.5117   20.8217 C   0  0  0  0  0  0  0  0  0  0  0  0
  -23.5169  -28.2267   20.7440 C   0  0  0  0  0  0  0  0  0  0  0  0
  -27.4955  -24.0617   22.1541 C   0  0  0  0  0  0  0  0  0  0  0  0
  -24.2118  -33.3184   25.8137 C   0  0  0  0  0  0  0  0  0  0  0  0
  -29.4136  -12.4174   18.1152 C   0  0  0  0  0  0  0  0  0  0  0  0
  -23.9981  -31.8084   25.8487 C   0  0  0  0  0  0  0  0  0  0  0  0
  -28.1775  -12.0389   18.9344 C   0  0  0  0  0  0  0  0  0  0  0  0
  -29.2205  -23.7794   20.3254 C   0  0  0  0  0  0  0  0  0  0  0  0
  -30.4160  -13.2226   18.9403 C   0  0  0  0  0  0  0  0  0  0  0  0
  -28.6251  -14.0280   20.4278 C   0  0  0  0  0  0  0  0  0  0  0  0
  -28.5287  -22.4902   19.8847 C   0  0  0  0  0  0  0  0  0  0  0  0
  -25.1178  -31.0754   25.1000 C   0  0  1  0  0  0  0  0  0  0  0  0
  -24.0253  -30.5714   21.4964 C   0  0  1  0  0  0  0  0  0  0  0  0
  -27.5572  -13.2717   19.6208 C   0  0  2  0  0  0  0  0  0  0  0  0
  -28.2575  -24.7437   21.0176 C   0  0  1  0  0  0  0  0  0  1  0  0
  -31.5601  -21.7386   21.5999 C   0  0  0  0  0  0  0  0  0  0  0  0
  -27.7051  -18.5577   21.1435 C   0  0  0  0  0  0  0  0  0  0  0  0
  -19.4685  -27.8967   16.1278 C   0  0  0  0  0  0  0  0  0  0  0  0
  -19.2797  -29.3519   22.4431 C   0  0  0  0  0  0  0  0  0  0  0  0
  -18.3848  -28.0525   20.4992 C   0  0  0  0  0  0  0  0  0  0  0  0
  -18.7826  -30.5053   20.2806 C   0  0  0  0  0  0  0  0  0  0  0  0
  -22.8670  -26.2877   16.7089 C   0  0  0  0  0  0  0  0  0  0  0  0
  -28.7424  -21.1185   22.0056 C   0  0  0  0  0  0  0  0  0  0  0  0
  -20.7597  -28.9321   20.3697 C   0  0  1  0  0  0  0  0  0  0  0  0
  -20.8379  -27.7430   16.7711 C   0  0  2  0  0  0  0  0  0  0  0  0
  -19.3272  -29.2042   20.9092 C   0  0  0  0  0  0  0  0  0  0  0  0
  -26.3413  -11.6974   21.0785 N   0  0  0  0  0  0  0  0  0  0  0  0
  -26.3592  -12.8971   20.4731 N   0  0  0  0  0  0  0  0  0  0  0  0
  -23.0714  -29.6181   20.9260 N   0  0  0  0  0  0  0  0  0  0  0  0
  -29.7583  -14.3768   19.5567 N   0  0  0  0  0  0  0  0  0  0  0  0
  -25.1054  -14.8860   20.1845 N   0  0  0  0  0  0  0  0  0  0  0  0
  -22.0265  -12.9749   21.3085 N   0  0  0  0  0  0  0  0  0  0  0  0
  -29.5128  -16.6966   19.9041 N   0  0  0  0  0  0  0  0  0  0  0  0
  -24.9105  -31.1618   23.6703 N   0  0  0  0  0  0  0  0  0  0  0  0
  -20.8391  -28.8148   18.9176 N   0  0  0  0  0  0  0  0  0  0  0  0
  -27.8243  -21.8026   21.0308 N   0  3  1  0  0  0  0  0  0  0  0  0
  -21.5016  -26.5452   16.1831 N   0  3  0  0  0  0  0  0  0  0  0  0
  -23.0500  -13.9018   23.1393 O   0  0  0  0  0  0  0  0  0  0  0  0
  -23.4512  -29.3617   23.4411 O   0  0  0  0  0  0  0  0  0  0  0  0
  -21.3323  -31.1709   20.9050 O   0  0  0  0  0  0  0  0  0  0  0  0
  -20.5548  -26.5150   18.8325 O   0  0  0  0  0  0  0  0  0  0  0  0
  -31.2018  -15.8719   18.5443 O   0  0  0  0  0  0  0  0  0  0  0  0
  -23.6358   -7.2742   24.7753 O   0  0  0  0  0  0  0  0  0  0  0  0
  -27.3346  -25.2461   20.0518 O   0  0  0  0  0  0  0  0  0  1  0  0
  -19.7468   -3.9605   22.7017 F   0  0  0  0  0  0  0  0  0  0  0  0
  -24.1579   -4.6023   24.2942 F   0  0  0  0  0  0  0  0  0  0  0  0
  1  2  1  0  0  0  0
  1  5  2  0  0  0  0
  2  6  2  0  0  0  0
  3 10  2  0  0  0  0
  3 17  1  0  0  0  0
  4 11  1  0  0  0  0
  4 17  2  0  0  0  0
  5 19  1  0  0  0  0
  6 21  1  0  0  0  0
  7 12  2  0  0  0  0
  7 20  1  0  0  0  0
  8  9  1  0  0  0  0
  8 23  2  0  0  0  0
  9 26  2  0  0  0  0
 10 27  1  0  0  0  0
 11 27  2  0  0  0  0
 12 28  1  0  0  0  0
 13 14  2  0  0  0  0
 13 29  1  0  0  0  0
 14 30  1  0  0  0  0
 15 22  1  0  0  0  0
 15 28  2  0  0  0  0
 16 30  2  0  0  0  0
 16 31  1  0  0  0  0
 17 32  1  0  0  0  0
 18 32  1  0  0  0  0
 18 33  2  0  0  0  0
 18 38  1  0  0  0  0
 19 21  2  0  0  0  0
 19 43  1  0  0  0  0
 20 22  2  0  0  0  0
 20 44  1  0  0  0  0
 21 55  1  0  0  0  0
 22 45  1  0  0  0  0
 23 24  1  0  0  0  0
 23 59  1  0  0  0  0
 24 25  2  0  0  0  0
 24 66  1  0  0  0  0
 25 26  1  0  0  0  0
 25 60  1  0  0  0  0
 26 76  1  0  0  0  0
 27 86  1  0  0  0  0
 28 87  1  0  0  0  0
 29 31  2  0  0  0  0
 29 86  1  0  0  0  0
 30 88  1  0  0  0  0
 31 89  1  0  0  0  0
 32 70  2  0  0  0  0
 33 71  1  0  0  0  0
 33 74  1  0  0  0  0
 34 36  2  0  0  0  0
 34 46  1  0  0  0  0
 34 79  1  0  0  0  0
 35 37  2  0  0  0  0
 36 37  1  0  0  0  0
 38 75  1  0  0  0  0
 38 81  2  0  0  0  0
 39 56  1  0  0  0  0
 39 77  1  0  0  0  0
 39 82  2  0  0  0  0
 40 67  1  0  0  0  0
 40 72  1  0  0  0  0
 40 83  2  0  0  0  0
 41 68  1  0  0  0  0
 41 78  1  0  0  0  0
 41 84  2  0  0  0  0
 42 73  1  0  0  0  0
 42 76  1  0  0  0  0
 42 85  2  0  0  0  0
 43 47  1  0  0  0  0
 44 56  1  0  0  0  0
 45 72  1  0  0  0  0
 46 58  1  0  0  0  0
 47 49  1  0  0  0  0
 48 50  1  0  0  0  0
 48 52  1  0  0  0  0
 49 55  1  0  0  0  0
 50 57  1  0  0  0  0
 51 54  1  0  0  0  0
 51 58  1  0  0  0  0
 52 73  1  0  0  0  0
 53 57  1  0  0  0  0
 53 73  1  0  0  0  0
 54 79  1  0  0  0  0
 55 77  1  0  0  0  0
 56 72  1  0  0  0  0
 57 71  1  0  0  0  0
 58 87  1  0  0  0  0
 61 68  1  0  0  0  0
 62 69  1  0  0  0  0
 63 69  1  0  0  0  0
 64 69  1  0  0  0  0
 65 80  1  0  0  0  0
 66 79  1  0  0  0  0
 67 69  1  0  0  0  0
 67 78  1  0  0  0  0
 68 80  1  0  0  0  0
 70 71  1  0  0  0  0
M  CHG  2  79   1  80   1
M  ISO  4  42 100  58 101  76 100  87 101
M  END
> <Batch ID>
0051

> <Smiles>
C=CC=C1C[101CH:1]([101O:1]c2ccc3c(c2)CN(C(=O)C(NC(=O)C(C)NC)C(C)(C)C)C(C(=O)NC2CCCc4ccccc42)C3)CCN1Cc1c(C)ccc([100NH:0][100C:0](=O)N2CCCC(n3nc(-c4ccc(Oc5ccc(F)cc5F)cc4)c(C(N)=O)c3N)C2)c1C

> <Shape>
0.327

> <Color>
0.141

> <Negative vol penalty>
0.000

$$$$

  -OEChem-04042322373D

 84 92  0     1  0  0  0  0  0999 V2000
  -28.1520  -36.4036   22.4265 C   0  0  0  0  0  0  0  0  0  0  0  0
  -28.4305  -35.0424   22.3557 C   0  0  0  0  0  0  0  0  0  0  0  0
  -24.6608  -12.2869   19.7735 C   0  0  0  0  0  0  0  0  0  0  0  0
  -25.6667  -12.9810   21.8576 C   0  0  0  0  0  0  0  0  0  0  0  0
  -26.9183  -36.8373   22.9101 C   0  0  0  0  0  0  0  0  0  0  0  0
  -27.4759  -34.1141   22.7695 C   0  0  0  0  0  0  0  0  0  0  0  0
  -26.9936  -30.2493   19.5329 C   0  0  0  0  0  0  0  0  0  0  0  0
  -30.8886  -21.7078   22.8875 C   0  0  0  0  0  0  0  0  0  0  0  0
  -25.1772  -11.0036   19.9516 C   0  0  0  0  0  0  0  0  0  0  0  0
  -26.1831  -11.6976   22.0358 C   0  0  0  0  0  0  0  0  0  0  0  0
  -27.9698  -29.2550   19.5785 C   0  0  0  0  0  0  0  0  0  0  0  0
  -25.9280   -7.4477   20.0360 C   0  0  0  0  0  0  0  0  0  0  0  0
  -29.9312  -20.9130   23.5178 C   0  0  0  0  0  0  0  0  0  0  0  0
  -25.0799   -6.3676   19.7914 C   0  0  0  0  0  0  0  0  0  0  0  0
  -26.4868  -27.8672   20.8801 C   0  0  0  0  0  0  0  0  0  0  0  0
  -29.6921  -21.4931   20.7996 C   0  0  0  0  0  0  0  0  0  0  0  0
  -23.5748   -7.1611   21.5068 C   0  0  0  0  0  0  0  0  0  0  0  0
  -24.9055  -13.2757   20.7265 C   0  0  0  0  0  0  0  0  0  0  0  0
  -23.1265  -15.0858   20.9834 C   0  0  0  0  0  0  0  0  0  0  0  0
  -25.9444  -35.9135   23.3210 C   0  0  0  0  0  0  0  0  0  0  0  0
  -25.7586  -30.0641   20.1708 C   0  0  0  0  0  0  0  0  0  0  0  0
  -26.2285  -34.5358   23.2603 C   0  0  0  0  0  0  0  0  0  0  0  0
  -25.4957  -28.8597   20.8389 C   0  0  0  0  0  0  0  0  0  0  0  0
  -30.7690  -21.9979   21.5283 C   0  0  0  0  0  0  0  0  0  0  0  0
  -28.7348  -20.6982   21.4299 C   0  0  0  0  0  0  0  0  0  0  0  0
  -25.9383  -10.7088   21.0828 C   0  0  0  0  0  0  0  0  0  0  0  0
  -27.7176  -28.0649   20.2546 C   0  0  0  0  0  0  0  0  0  0  0  0
  -25.5996   -8.3844   21.0160 C   0  0  0  0  0  0  0  0  0  0  0  0
  -23.9033   -6.2243   20.5268 C   0  0  0  0  0  0  0  0  0  0  0  0
  -28.8543  -20.4082   22.7891 C   0  0  0  0  0  0  0  0  0  0  0  0
  -24.4230   -8.2411   21.7513 C   0  0  0  0  0  0  0  0  0  0  0  0
  -24.3728  -14.6018   20.5428 C   0  0  0  0  0  0  0  0  0  0  0  0
  -23.0977  -16.3931   20.5629 C   0  0  0  0  0  0  0  0  0  0  0  0
  -22.0877  -14.4139   21.7080 C   0  0  0  0  0  0  0  0  0  0  0  0
  -24.2111  -31.5275   22.5304 C   0  0  0  0  0  0  0  0  0  0  0  0
  -21.8242  -29.4922   21.7041 C   0  0  0  0  0  0  0  0  0  0  0  0
  -30.8565  -25.1247   20.4529 C   0  0  0  0  0  0  0  0  0  0  0  0
  -20.9035  -26.5427   20.2551 C   0  0  0  0  0  0  0  0  0  0  0  0
  -27.3744  -20.3809   19.3335 C   0  0  0  0  0  0  0  0  0  0  0  0
  -24.6432  -36.4312   23.8809 C   0  0  0  0  0  0  0  0  0  0  0  0
  -24.7062  -31.1357   20.0896 C   0  0  0  0  0  0  0  0  0  0  0  0
  -24.1785  -28.6034   21.5228 C   0  0  0  0  0  0  0  0  0  0  0  0
  -23.5451  -35.3730   23.9482 C   0  0  0  0  0  0  0  0  0  0  0  0
  -24.8099  -19.2617   17.1317 C   0  0  0  0  0  0  0  0  0  0  0  0
  -24.0872  -34.0783   24.5454 C   0  0  0  0  0  0  0  0  0  0  0  0
  -24.2892  -17.9871   17.7998 C   0  0  0  0  0  0  0  0  0  0  0  0
  -26.3204  -19.4145   17.3012 C   0  0  0  0  0  0  0  0  0  0  0  0
  -26.2810  -18.0529   19.3539 C   0  0  0  0  0  0  0  0  0  0  0  0
  -25.2094  -33.4974   23.6765 C   0  0  1  0  0  0  0  0  0  0  0  0
  -23.6757  -31.0473   21.2111 C   0  0  1  0  0  0  0  0  0  0  0  0
  -24.7550  -17.8886   19.2657 C   0  0  2  0  0  0  0  0  0  0  0  0
  -18.8851  -25.1346   19.7643 C   0  0  0  0  0  0  0  0  0  0  0  0
  -21.7224  -28.6235   24.6273 C   0  0  0  0  0  0  0  0  0  0  0  0
  -20.4142  -26.6123   23.9116 C   0  0  0  0  0  0  0  0  0  0  0  0
  -19.4860  -28.8981   23.5420 C   0  0  0  0  0  0  0  0  0  0  0  0
  -21.3605  -26.6994   17.3353 C   0  0  0  0  0  0  0  0  0  0  0  0
  -31.8002  -22.8529   20.8503 C   0  0  0  0  0  0  0  0  0  0  0  0
  -30.8889  -26.5280   21.0381 C   0  0  0  0  0  0  0  0  0  0  0  0
  -30.0314  -27.5153   20.2615 C   0  0  0  0  0  0  0  0  0  1  0  0
  -21.4161  -28.0989   22.1179 C   0  0  1  0  0  0  0  0  0  0  0  0
  -19.8223  -26.2124   19.2420 C   0  0  2  0  0  0  0  0  0  0  0  0
  -20.7853  -28.0635   23.5385 C   0  0  0  0  0  0  0  0  0  0  0  0
  -25.0842  -15.5263   19.8921 N   0  0  0  0  0  0  0  0  0  0  0  0
  -24.2822  -16.6043   19.9207 N   0  0  0  0  0  0  0  0  0  0  0  0
  -23.1839  -29.6841   21.4206 N   0  0  0  0  0  0  0  0  0  0  0  0
  -26.6873  -19.3147   18.7155 N   0  0  0  0  0  0  0  0  0  0  0  0
  -22.1748  -17.3710   20.6835 N   0  0  0  0  0  0  0  0  0  0  0  0
  -22.2803  -13.0713   22.0612 N   0  0  0  0  0  0  0  0  0  0  0  0
  -27.6410  -20.1868   20.6884 N   0  0  0  0  0  0  0  0  0  0  0  0
  -24.6572  -32.8352   22.5141 N   0  0  0  0  0  0  0  0  0  0  0  0
  -31.6480  -24.2508   21.1842 N   0  0  0  0  0  0  0  0  0  0  0  0
  -20.5408  -27.5997   21.0629 N   0  0  0  0  0  0  0  0  0  0  0  0
  -20.4332  -25.7288   17.9716 N   0  3  0  0  0  0  0  0  0  0  0  0
  -21.0133  -14.9823   22.0183 O   0  0  0  0  0  0  0  0  0  0  0  0
  -24.2175  -30.7682   23.4922 O   0  0  0  0  0  0  0  0  0  0  0  0
  -20.9670  -30.3760   21.6281 O   0  0  0  0  0  0  0  0  0  0  0  0
  -30.2040  -24.8253   19.4566 O   0  0  0  0  0  0  0  0  0  0  0  0
  -21.9622  -25.9225   20.3256 O   0  0  0  0  0  0  0  0  0  0  0  0
  -27.6782  -21.4033   18.7134 O   0  0  0  0  0  0  0  0  0  0  0  0
  -26.4422   -9.4565   21.2570 O   0  0  0  0  0  0  0  0  0  0  0  0
  -28.6689  -27.0930   20.3013 O   0  0  0  0  0  0  0  0  0  1  0  0
  -23.0882   -5.1880   20.2908 F   0  0  0  0  0  0  0  0  0  0  0  0
  -27.9406  -19.6449   23.4053 F   0  0  0  0  0  0  0  0  0  0  0  0
  -24.1016   -9.1384   22.6933 F   0  0  0  0  0  0  0  0  0  0  0  0
  1  2  1  0  0  0  0
  1  5  2  0  0  0  0
  2  6  2  0  0  0  0
  3  9  2  0  0  0  0
  3 18  1  0  0  0  0
  4 10  1  0  0  0  0
  4 18  2  0  0  0  0
  5 20  1  0  0  0  0
  6 22  1  0  0  0  0
  7 11  2  0  0  0  0
  7 21  1  0  0  0  0
  8 13  2  0  0  0  0
  8 24  1  0  0  0  0
  9 26  1  0  0  0  0
 10 26  2  0  0  0  0
 11 27  1  0  0  0  0
 12 14  2  0  0  0  0
 12 28  1  0  0  0  0
 13 30  1  0  0  0  0
 14 29  1  0  0  0  0
 15 23  1  0  0  0  0
 15 27  2  0  0  0  0
 16 24  2  0  0  0  0
 16 25  1  0  0  0  0
 17 29  2  0  0  0  0
 17 31  1  0  0  0  0
 18 32  1  0  0  0  0
 19 32  1  0  0  0  0
 19 33  2  0  0  0  0
 19 34  1  0  0  0  0
 20 22  2  0  0  0  0
 20 40  1  0  0  0  0
 21 23  2  0  0  0  0
 21 41  1  0  0  0  0
 22 49  1  0  0  0  0
 23 42  1  0  0  0  0
 24 57  1  0  0  0  0
 25 30  2  0  0  0  0
 25 69  1  0  0  0  0
 26 80  1  0  0  0  0
 27 81  1  0  0  0  0
 28 31  2  0  0  0  0
 28 80  1  0  0  0  0
 29 82  1  0  0  0  0
 30 83  1  0  0  0  0
 31 84  1  0  0  0  0
 32 63  2  0  0  0  0
 33 64  1  0  0  0  0
 33 67  1  0  0  0  0
 34 68  1  0  0  0  0
 34 74  2  0  0  0  0
 35 50  1  0  0  0  0
 35 70  1  0  0  0  0
 35 75  2  0  0  0  0
 36 60  1  0  0  0  0
 36 65  1  0  0  0  0
 36 76  2  0  0  0  0
 37 58  1  0  0  0  0
 37 71  1  0  0  0  0
 37 77  2  0  0  0  0
 38 61  1  0  0  0  0
 38 72  1  0  0  0  0
 38 78  2  0  0  0  0
 39 66  1  0  0  0  0
 39 69  1  0  0  0  0
 39 79  2  0  0  0  0
 40 43  1  0  0  0  0
 41 50  1  0  0  0  0
 42 65  1  0  0  0  0
 43 45  1  0  0  0  0
 44 46  1  0  0  0  0
 44 47  1  0  0  0  0
 45 49  1  0  0  0  0
 46 51  1  0  0  0  0
 47 66  1  0  0  0  0
 48 51  1  0  0  0  0
 48 66  1  0  0  0  0
 49 70  1  0  0  0  0
 50 65  1  0  0  0  0
 51 64  1  0  0  0  0
 52 61  1  0  0  0  0
 53 62  1  0  0  0  0
 54 62  1  0  0  0  0
 55 62  1  0  0  0  0
 56 73  1  0  0  0  0
 57 71  1  0  0  0  0
 58 59  1  0  0  0  0
 59 81  1  0  0  0  0
 60 62  1  0  0  0  0
 60 72  1  0  0  0  0
 61 73  1  0  0  0  0
 63 64  1  0  0  0  0
M  CHG  1  73   1
M  ISO  4  39 100  59 101  69 100  81 101
M  END
> <Batch ID>
0051

> <Smiles>
CNC(C)C(=O)NC(C(=O)N1Cc2cc([101O:1][101CH2:1]CC(=O)NCc3ccc(F)c([100NH:0][100C:0](=O)N4CCCC(n5nc(-c6ccc(Oc7ccc(F)cc7F)cc6)c(C(N)=O)c5N)C4)c3)ccc2CC1C(=O)NC1CCCc2ccccc21)C(C)(C)C

> <Shape>
0.279

> <Color>
0.094

> <Negative vol penalty>
0.000

$$$$

  -OEChem-04042322373D

 89 98  0     1  0  0  0  0  0999 V2000
  -31.1150  -35.8172   24.4505 C   0  0  0  0  0  0  0  0  0  0  0  0
  -31.2148  -34.7439   23.5711 C   0  0  0  0  0  0  0  0  0  0  0  0
  -22.7402   -9.6878   20.1617 C   0  0  0  0  0  0  0  0  0  0  0  0
  -24.5355   -8.7548   21.4821 C   0  0  0  0  0  0  0  0  0  0  0  0
  -30.0624  -35.8738   25.3630 C   0  0  0  0  0  0  0  0  0  0  0  0
  -30.2625  -33.7258   23.6044 C   0  0  0  0  0  0  0  0  0  0  0  0
  -26.8900  -29.0933   19.3054 C   0  0  0  0  0  0  0  0  0  0  0  0
  -21.8072   -9.0575   20.9849 C   0  0  0  0  0  0  0  0  0  0  0  0
  -23.6025   -8.1245   22.3054 C   0  0  0  0  0  0  0  0  0  0  0  0
  -26.6162  -27.7308   19.1936 C   0  0  0  0  0  0  0  0  0  0  0  0
  -21.6465   -5.3689   22.1997 C   0  0  0  0  0  0  0  0  0  0  0  0
  -21.8777   -4.0359   22.5393 C   0  0  0  0  0  0  0  0  0  0  0  0
  -24.7969  -27.9742   20.7589 C   0  0  0  0  0  0  0  0  0  0  0  0
  -24.6939  -19.0971   20.2165 C   0  0  0  0  0  0  0  0  0  0  0  0
  -27.2839  -18.4702   21.0420 C   0  0  0  0  0  0  0  0  0  0  0  0
  -21.9330   -4.6411   24.8776 C   0  0  0  0  0  0  0  0  0  0  0  0
  -24.1044   -9.5364   20.4102 C   0  0  0  0  0  0  0  0  0  0  0  0
  -25.2393  -10.0056   18.1743 C   0  0  0  0  0  0  0  0  0  0  0  0
  -29.0913  -34.8608   25.4009 C   0  0  0  0  0  0  0  0  0  0  0  0
  -26.1249  -29.9057   20.1545 C   0  0  0  0  0  0  0  0  0  0  0  0
  -29.1966  -33.7682   24.5191 C   0  0  0  0  0  0  0  0  0  0  0  0
  -25.0614  -29.3471   20.8777 C   0  0  0  0  0  0  0  0  0  0  0  0
  -25.4276  -20.0149   20.9680 C   0  0  0  0  0  0  0  0  0  0  0  0
  -25.2551  -17.8658   19.8778 C   0  0  0  0  0  0  0  0  0  0  0  0
  -26.7227  -19.7015   21.3808 C   0  0  0  0  0  0  0  0  0  0  0  0
  -26.5501  -17.5524   20.2905 C   0  0  0  0  0  0  0  0  0  0  0  0
  -22.2383   -8.2759   22.0568 C   0  0  0  0  0  0  0  0  0  0  0  0
  -25.5713  -27.1705   19.9226 C   0  0  0  0  0  0  0  0  0  0  0  0
  -21.5585   -6.3380   23.1991 C   0  0  0  0  0  0  0  0  0  0  0  0
  -22.0210   -3.6720   23.8782 C   0  0  0  0  0  0  0  0  0  0  0  0
  -21.7017   -5.9741   24.5380 C   0  0  0  0  0  0  0  0  0  0  0  0
  -25.0687  -10.1868   19.5599 C   0  0  0  0  0  0  0  0  0  0  0  0
  -26.2754  -10.8443   17.8432 C   0  0  0  0  0  0  0  0  0  0  0  0
  -23.7367  -23.2937   20.3761 C   0  0  0  0  0  0  0  0  0  0  0  0
  -21.1571  -21.9763   18.1191 C   0  0  0  0  0  0  0  0  0  0  0  0
  -22.5860  -23.1799   19.6958 C   0  0  0  0  0  0  0  0  0  0  0  0
  -22.3047  -22.0892   18.7972 C   0  0  0  0  0  0  0  0  0  0  0  0
  -24.5251   -9.1551   17.2675 C   0  0  0  0  0  0  0  0  0  0  0  0
  -26.7405  -31.6687   22.7267 C   0  0  0  0  0  0  0  0  0  0  0  0
  -23.6459  -32.5726   22.3681 C   0  0  0  0  0  0  0  0  0  0  0  0
  -20.5137  -30.9768   21.5555 C   0  0  0  0  0  0  0  0  0  0  0  0
  -28.4129  -15.8565   20.2956 C   0  0  0  0  0  0  0  0  0  0  0  0
  -27.9980  -34.9417   26.4367 C   0  0  0  0  0  0  0  0  0  0  0  0
  -26.4161  -31.3787   20.2435 C   0  0  0  0  0  0  0  0  0  0  0  0
  -24.1972  -30.1800   21.7877 C   0  0  0  0  0  0  0  0  0  0  0  0
  -24.0256  -24.4367   21.3148 C   0  0  0  0  0  0  0  0  0  0  0  0
  -26.8214  -34.0110   26.1544 C   0  0  0  0  0  0  0  0  0  0  0  0
  -30.2130  -12.8437   19.6957 C   0  0  0  0  0  0  0  0  0  0  0  0
  -27.3197  -32.6178   25.7839 C   0  0  0  0  0  0  0  0  0  0  0  0
  -29.1137  -11.8053   19.4606 C   0  0  0  0  0  0  0  0  0  0  0  0
  -26.4700  -23.9999   20.8311 C   0  0  0  0  0  0  0  0  0  0  0  0
  -29.8147  -13.8591   20.7652 C   0  0  0  0  0  0  0  0  0  0  0  0
  -27.4235  -13.4824   20.3076 C   0  0  0  0  0  0  0  0  0  0  0  0
  -26.0684  -22.9317   19.8150 C   0  0  0  0  0  0  0  0  0  0  0  0
  -28.1694  -32.6570   24.5079 C   0  0  1  0  0  0  0  0  0  0  0  0
  -25.8988  -32.0133   21.5307 C   0  0  1  0  0  0  0  0  0  0  0  0
  -27.7524  -12.4765   19.1924 C   0  0  2  0  0  0  0  0  0  0  0  0
  -25.3864  -25.0632   21.0097 C   0  0  1  0  0  0  0  0  0  1  0  0
  -24.4461  -16.9020   19.0718 C   0  0  0  0  0  0  0  0  0  0  0  0
  -27.5271  -20.6682   22.1863 C   0  0  0  0  0  0  0  0  0  0  0  0
  -18.4394  -31.9026   20.4889 C   0  0  0  0  0  0  0  0  0  0  0  0
  -22.7110  -33.0044   25.2403 C   0  0  0  0  0  0  0  0  0  0  0  0
  -20.4101  -32.3310   24.5189 C   0  0  0  0  0  0  0  0  0  0  0  0
  -21.4834  -34.3539   23.5296 C   0  0  0  0  0  0  0  0  0  0  0  0
  -20.5491  -28.9192   19.4286 C   0  0  0  0  0  0  0  0  0  0  0  0
  -24.8031  -21.3327   21.3206 C   0  0  0  0  0  0  0  0  0  0  0  0
  -22.3174  -32.0602   22.8697 C   0  0  1  0  0  0  0  0  0  0  0  0
  -19.7265  -31.1239   20.2658 C   0  0  2  0  0  0  0  0  0  0  0  0
  -21.7526  -32.9199   24.0356 C   0  0  0  0  0  0  0  0  0  0  0  0
  -25.9277  -11.0712   20.0738 N   0  0  0  0  0  0  0  0  0  0  0  0
  -26.6481  -11.4530   19.0054 N   0  0  0  0  0  0  0  0  0  0  0  0
  -24.5256  -31.6140   21.8457 N   0  0  0  0  0  0  0  0  0  0  0  0
  -28.5174  -14.4571   20.4424 N   0  0  0  0  0  0  0  0  0  0  0  0
  -26.8949  -11.1131   16.6743 N   0  0  0  0  0  0  0  0  0  0  0  0
  -24.9965   -7.8512   17.0627 N   0  0  0  0  0  0  0  0  0  0  0  0
  -27.1376  -16.3071   19.9563 N   0  0  0  0  0  0  0  0  0  0  0  0
  -27.3219  -32.7623   23.3395 N   0  0  0  0  0  0  0  0  0  0  0  0
  -21.4427  -31.9848   21.7046 N   0  0  0  0  0  0  0  0  0  0  0  0
  -24.7463  -22.2871   20.1601 N   0  3  1  0  0  0  0  0  0  0  0  0
  -19.3757  -29.7834   19.7173 N   0  3  0  0  0  0  0  0  0  0  0  0
  -23.5087   -9.5454   16.6445 O   0  0  0  0  0  0  0  0  0  0  0  0
  -26.8529  -30.4975   23.0692 O   0  0  0  0  0  0  0  0  0  0  0  0
  -23.8910  -33.7799   22.4307 O   0  0  0  0  0  0  0  0  0  0  0  0
  -20.3211  -30.0615   22.3527 O   0  0  0  0  0  0  0  0  0  0  0  0
  -29.3894  -16.5980   20.4320 O   0  0  0  0  0  0  0  0  0  0  0  0
  -21.3281   -7.6608   22.8605 O   0  0  0  0  0  0  0  0  0  0  0  0
  -25.3023  -25.8408   19.8159 O   0  0  0  0  0  0  0  0  0  1  0  0
  -22.2415   -2.3917   24.2042 F   0  0  0  0  0  0  0  0  0  0  0  0
  -21.6170   -6.9005   25.5026 F   0  0  0  0  0  0  0  0  0  0  0  0
  1  2  1  0  0  0  0
  1  5  2  0  0  0  0
  2  6  2  0  0  0  0
  3  8  2  0  0  0  0
  3 17  1  0  0  0  0
  4  9  1  0  0  0  0
  4 17  2  0  0  0  0
  5 19  1  0  0  0  0
  6 21  1  0  0  0  0
  7 10  2  0  0  0  0
  7 20  1  0  0  0  0
  8 27  1  0  0  0  0
  9 27  2  0  0  0  0
 10 28  1  0  0  0  0
 11 12  2  0  0  0  0
 11 29  1  0  0  0  0
 12 30  1  0  0  0  0
 13 22  1  0  0  0  0
 13 28  2  0  0  0  0
 14 23  1  0  0  0  0
 14 24  2  0  0  0  0
 15 25  1  0  0  0  0
 15 26  2  0  0  0  0
 16 30  2  0  0  0  0
 16 31  1  0  0  0  0
 17 32  1  0  0  0  0
 18 32  1  0  0  0  0
 18 33  2  0  0  0  0
 18 38  1  0  0  0  0
 19 21  2  0  0  0  0
 19 43  1  0  0  0  0
 20 22  2  0  0  0  0
 20 44  1  0  0  0  0
 21 55  1  0  0  0  0
 22 45  1  0  0  0  0
 23 25  2  0  0  0  0
 23 66  1  0  0  0  0
 24 26  1  0  0  0  0
 24 59  1  0  0  0  0
 25 60  1  0  0  0  0
 26 76  1  0  0  0  0
 27 86  1  0  0  0  0
 28 87  1  0  0  0  0
 29 31  2  0  0  0  0
 29 86  1  0  0  0  0
 30 88  1  0  0  0  0
 31 89  1  0  0  0  0
 32 70  2  0  0  0  0
 33 71  1  0  0  0  0
 33 74  1  0  0  0  0
 34 36  2  0  0  0  0
 34 46  1  0  0  0  0
 34 79  1  0  0  0  0
 35 37  2  0  0  0  0
 36 37  1  0  0  0  0
 38 75  1  0  0  0  0
 38 81  2  0  0  0  0
 39 56  1  0  0  0  0
 39 77  1  0  0  0  0
 39 82  2  0  0  0  0
 40 67  1  0  0  0  0
 40 72  1  0  0  0  0
 40 83  2  0  0  0  0
 41 68  1  0  0  0  0
 41 78  1  0  0  0  0
 41 84  2  0  0  0  0
 42 73  1  0  0  0  0
 42 76  1  0  0  0  0
 42 85  2  0  0  0  0
 43 47  1  0  0  0  0
 44 56  1  0  0  0  0
 45 72  1  0  0  0  0
 46 58  1  0  0  0  0
 47 49  1  0  0  0  0
 48 50  1  0  0  0  0
 48 52  1  0  0  0  0
 49 55  1  0  0  0  0
 50 57  1  0  0  0  0
 51 54  1  0  0  0  0
 51 58  1  0  0  0  0
 52 73  1  0  0  0  0
 53 57  1  0  0  0  0
 53 73  1  0  0  0  0
 54 79  1  0  0  0  0
 55 77  1  0  0  0  0
 56 72  1  0  0  0  0
 57 71  1  0  0  0  0
 58 87  1  0  0  0  0
 61 68  1  0  0  0  0
 62 69  1  0  0  0  0
 63 69  1  0  0  0  0
 64 69  1  0  0  0  0
 65 80  1  0  0  0  0
 66 79  1  0  0  0  0
 67 69  1  0  0  0  0
 67 78  1  0  0  0  0
 68 80  1  0  0  0  0
 70 71  1  0  0  0  0
M  CHG  2  79   1  80   1
M  ISO  4  42 100  58 101  76 100  87 101
M  END
> <Batch ID>
0051

> <Smiles>
C=CC=C1C[101CH:1]([101O:1]c2ccc3c(c2)CN(C(=O)C(NC(=O)C(C)NC)C(C)(C)C)C(C(=O)NC2CCCc4ccccc42)C3)CCN1Cc1cc(C)c([100NH:0][100C:0](=O)N2CCCC(n3nc(-c4ccc(Oc5ccc(F)cc5F)cc4)c(C(N)=O)c3N)C2)cc1C

> <Shape>
0.240

> <Color>
0.086

> <Negative vol penalty>
0.000

$$$$

  -OEChem-04042322373D

 85 93  0     1  0  0  0  0  0999 V2000
  -27.5491  -34.3908   25.0480 C   0  0  0  0  0  0  0  0  0  0  0  0
  -27.8218  -33.1375   24.5092 C   0  0  0  0  0  0  0  0  0  0  0  0
  -24.5692  -11.1018   17.8481 C   0  0  0  0  0  0  0  0  0  0  0  0
  -26.8972  -11.7427   17.7648 C   0  0  0  0  0  0  0  0  0  0  0  0
  -26.2673  -34.6855   25.5106 C   0  0  0  0  0  0  0  0  0  0  0  0
  -26.8131  -32.1777   24.4337 C   0  0  0  0  0  0  0  0  0  0  0  0
  -26.7177  -29.8070   19.9598 C   0  0  0  0  0  0  0  0  0  0  0  0
  -28.8450  -21.6739   20.0057 C   0  0  0  0  0  0  0  0  0  0  0  0
  -27.8304  -20.7986   20.3930 C   0  0  0  0  0  0  0  0  0  0  0  0
  -24.7062  -10.4451   16.6252 C   0  0  0  0  0  0  0  0  0  0  0  0
  -27.0342  -11.0859   16.5419 C   0  0  0  0  0  0  0  0  0  0  0  0
  -27.6705  -28.8119   19.7461 C   0  0  0  0  0  0  0  0  0  0  0  0
  -27.4070   -7.9094   15.4505 C   0  0  0  0  0  0  0  0  0  0  0  0
  -28.5296   -7.1007   15.2731 C   0  0  0  0  0  0  0  0  0  0  0  0
  -26.0187  -27.1293   20.2559 C   0  0  0  0  0  0  0  0  0  0  0  0
  -29.4250  -18.9852   20.4721 C   0  0  0  0  0  0  0  0  0  0  0  0
  -29.2129   -8.4609   13.3968 C   0  0  0  0  0  0  0  0  0  0  0  0
  -25.6647  -11.7507   18.4179 C   0  0  0  0  0  0  0  0  0  0  0  0
  -25.7194  -11.8864   20.9647 C   0  0  0  0  0  0  0  0  0  0  0  0
  -25.2399  -33.7321   25.4319 C   0  0  0  0  0  0  0  0  0  0  0  0
  -25.4089  -29.4706   20.3345 C   0  0  0  0  0  0  0  0  0  0  0  0
  -25.5167  -32.4595   24.8970 C   0  0  0  0  0  0  0  0  0  0  0  0
  -25.0505  -28.1219   20.4713 C   0  0  0  0  0  0  0  0  0  0  0  0
  -30.1496  -21.2049   19.8516 C   0  0  0  0  0  0  0  0  0  0  0  0
  -30.4396  -19.8606   20.0848 C   0  0  0  0  0  0  0  0  0  0  0  0
  -28.1204  -19.4543   20.6262 C   0  0  0  0  0  0  0  0  0  0  0  0
  -25.9387  -10.4371   15.9721 C   0  0  0  0  0  0  0  0  0  0  0  0
  -27.3219  -27.4730   19.8969 C   0  0  0  0  0  0  0  0  0  0  0  0
  -27.1873   -8.9938   14.6010 C   0  0  0  0  0  0  0  0  0  0  0  0
  -29.4325   -7.3765   14.2463 C   0  0  0  0  0  0  0  0  0  0  0  0
  -28.0903   -9.2696   13.5742 C   0  0  0  0  0  0  0  0  0  0  0  0
  -25.5237  -12.4298   19.6809 C   0  0  0  0  0  0  0  0  0  0  0  0
  -25.4639  -12.9291   21.8215 C   0  0  0  0  0  0  0  0  0  0  0  0
  -26.0984  -10.5580   21.3486 C   0  0  0  0  0  0  0  0  0  0  0  0
  -23.5828  -30.0494   22.8710 C   0  0  0  0  0  0  0  0  0  0  0  0
  -21.3040  -28.5991   21.0749 C   0  0  0  0  0  0  0  0  0  0  0  0
  -30.2604  -24.4577   19.1122 C   0  0  0  0  0  0  0  0  0  0  0  0
  -20.5511  -26.4458   18.5365 C   0  0  0  0  0  0  0  0  0  0  0  0
  -25.7439  -18.8677   21.2218 C   0  0  0  0  0  0  0  0  0  0  0  0
  -23.8821  -34.0806   25.9883 C   0  0  0  0  0  0  0  0  0  0  0  0
  -24.3858  -30.5548   20.5352 C   0  0  0  0  0  0  0  0  0  0  0  0
  -23.6536  -27.7073   20.8522 C   0  0  0  0  0  0  0  0  0  0  0  0
  -22.7747  -33.1358   25.5287 C   0  0  0  0  0  0  0  0  0  0  0  0
  -22.8913  -16.9542   22.1589 C   0  0  0  0  0  0  0  0  0  0  0  0
  -23.2230  -31.6837   25.6606 C   0  0  0  0  0  0  0  0  0  0  0  0
  -23.2629  -15.5264   21.7522 C   0  0  0  0  0  0  0  0  0  0  0  0
  -23.4221  -17.9840   21.1632 C   0  0  0  0  0  0  0  0  0  0  0  0
  -25.2313  -16.4612   20.4723 C   0  0  0  0  0  0  0  0  0  0  0  0
  -24.4426  -31.4003   24.7754 C   0  0  1  0  0  0  0  0  0  0  0  0
  -23.2181  -30.1189   21.4150 C   0  0  1  0  0  0  0  0  0  0  0  0
  -24.7740  -15.3934   21.4793 C   0  0  2  0  0  0  0  0  0  0  0  0
  -31.8293  -19.3364   19.9281 C   0  0  0  0  0  0  0  0  0  0  0  0
  -18.6002  -25.4335   17.3255 C   0  0  0  0  0  0  0  0  0  0  0  0
  -20.8168  -26.7241   23.4322 C   0  0  0  0  0  0  0  0  0  0  0  0
  -19.5936  -25.1943   21.8727 C   0  0  0  0  0  0  0  0  0  0  0  0
  -18.7423  -27.5045   22.2739 C   0  0  0  0  0  0  0  0  0  0  0  0
  -30.6731  -22.9432   17.1612 C   0  0  0  0  0  0  0  0  0  0  0  0
  -21.3834  -27.6386   15.9590 C   0  0  0  0  0  0  0  0  0  0  0  0
  -31.2247  -22.1658   19.4332 C   0  0  0  0  0  0  0  0  0  0  0  0
  -29.7433  -25.4749   18.1002 C   0  0  0  0  0  0  0  0  0  0  0  0
  -29.2812  -26.7767   18.7427 C   0  0  0  0  0  0  0  0  0  1  0  0
  -20.8328  -27.1768   20.8904 C   0  0  1  0  0  0  0  0  0  0  0  0
  -19.6070  -26.5729   17.3545 C   0  0  2  0  0  0  0  0  0  0  0  0
  -20.0233  -26.6575   22.1120 C   0  0  0  0  0  0  0  0  0  0  0  0
  -25.1709  -13.7176   19.7143 N   0  0  0  0  0  0  0  0  0  0  0  0
  -25.1428  -13.9921   21.0296 N   0  0  0  0  0  0  0  0  0  0  0  0
  -22.6906  -28.8044   21.0437 N   0  0  0  0  0  0  0  0  0  0  0  0
  -24.8604  -17.7998   20.9576 N   0  0  0  0  0  0  0  0  0  0  0  0
  -25.4847  -13.0311   23.1674 N   0  0  0  0  0  0  0  0  0  0  0  0
  -26.3226   -9.6097   20.3411 N   0  0  0  0  0  0  0  0  0  0  0  0
  -27.0904  -18.5651   21.0215 N   0  0  0  0  0  0  0  0  0  0  0  0
  -24.0394  -31.2441   23.3943 N   0  0  0  0  0  0  0  0  0  0  0  0
  -20.0968  -27.1507   19.6310 N   0  0  0  0  0  0  0  0  0  0  0  0
  -30.7018  -23.2374   18.5886 N   0  0  0  0  0  0  0  0  0  0  0  0
  -20.3726  -26.5562   16.0760 N   0  3  0  0  0  0  0  0  0  0  0  0
  -26.2182  -10.2174   22.5499 O   0  0  0  0  0  0  0  0  0  0  0  0
  -23.4576  -28.9907   23.4753 O   0  0  0  0  0  0  0  0  0  0  0  0
  -20.4721  -29.4960   21.2334 O   0  0  0  0  0  0  0  0  0  0  0  0
  -30.2772  -24.7242   20.3167 O   0  0  0  0  0  0  0  0  0  0  0  0
  -21.5860  -25.7842   18.4943 O   0  0  0  0  0  0  0  0  0  0  0  0
  -25.3383  -19.9611   21.6242 O   0  0  0  0  0  0  0  0  0  0  0  0
  -26.0728   -9.7962   14.7789 O   0  0  0  0  0  0  0  0  0  0  0  0
  -28.2501  -26.4997   19.6896 O   0  0  0  0  0  0  0  0  0  1  0  0
  -30.5113   -6.6007   14.0770 F   0  0  0  0  0  0  0  0  0  0  0  0
  -27.8852  -10.3106   12.7558 F   0  0  0  0  0  0  0  0  0  0  0  0
  1  2  1  0  0  0  0
  1  5  2  0  0  0  0
  2  6  2  0  0  0  0
  3 10  2  0  0  0  0
  3 18  1  0  0  0  0
  4 11  1  0  0  0  0
  4 18  2  0  0  0  0
  5 20  1  0  0  0  0
  6 22  1  0  0  0  0
  7 12  2  0  0  0  0
  7 21  1  0  0  0  0
  8  9  2  0  0  0  0
  8 24  1  0  0  0  0
  9 26  1  0  0  0  0
 10 27  1  0  0  0  0
 11 27  2  0  0  0  0
 12 28  1  0  0  0  0
 13 14  2  0  0  0  0
 13 29  1  0  0  0  0
 14 30  1  0  0  0  0
 15 23  1  0  0  0  0
 15 28  2  0  0  0  0
 16 25  1  0  0  0  0
 16 26  2  0  0  0  0
 17 30  2  0  0  0  0
 17 31  1  0  0  0  0
 18 32  1  0  0  0  0
 19 32  1  0  0  0  0
 19 33  2  0  0  0  0
 19 34  1  0  0  0  0
 20 22  2  0  0  0  0
 20 40  1  0  0  0  0
 21 23  2  0  0  0  0
 21 41  1  0  0  0  0
 22 49  1  0  0  0  0
 23 42  1  0  0  0  0
 24 25  2  0  0  0  0
 24 59  1  0  0  0  0
 25 52  1  0  0  0  0
 26 71  1  0  0  0  0
 27 82  1  0  0  0  0
 28 83  1  0  0  0  0
 29 31  2  0  0  0  0
 29 82  1  0  0  0  0
 30 84  1  0  0  0  0
 31 85  1  0  0  0  0
 32 65  2  0  0  0  0
 33 66  1  0  0  0  0
 33 69  1  0  0  0  0
 34 70  1  0  0  0  0
 34 76  2  0  0  0  0
 35 50  1  0  0  0  0
 35 72  1  0  0  0  0
 35 77  2  0  0  0  0
 36 62  1  0  0  0  0
 36 67  1  0  0  0  0
 36 78  2  0  0  0  0
 37 60  1  0  0  0  0
 37 74  1  0  0  0  0
 37 79  2  0  0  0  0
 38 63  1  0  0  0  0
 38 73  1  0  0  0  0
 38 80  2  0  0  0  0
 39 68  1  0  0  0  0
 39 71  1  0  0  0  0
 39 81  2  0  0  0  0
 40 43  1  0  0  0  0
 41 50  1  0  0  0  0
 42 67  1  0  0  0  0
 43 45  1  0  0  0  0
 44 46  1  0  0  0  0
 44 47  1  0  0  0  0
 45 49  1  0  0  0  0
 46 51  1  0  0  0  0
 47 68  1  0  0  0  0
 48 51  1  0  0  0  0
 48 68  1  0  0  0  0
 49 72  1  0  0  0  0
 50 67  1  0  0  0  0
 51 66  1  0  0  0  0
 53 63  1  0  0  0  0
 54 64  1  0  0  0  0
 55 64  1  0  0  0  0
 56 64  1  0  0  0  0
 57 74  1  0  0  0  0
 58 75  1  0  0  0  0
 59 74  1  0  0  0  0
 60 61  1  0  0  0  0
 61 83  1  0  0  0  0
 62 64  1  0  0  0  0
 62 73  1  0  0  0  0
 63 75  1  0  0  0  0
 65 66  1  0  0  0  0
M  CHG  1  75   1
M  ISO  4  39 100  61 101  71 100  83 101
M  END
> <Batch ID>
0051

> <Smiles>
CNC(C)C(=O)NC(C(=O)N1Cc2cc([101O:1][101CH2:1]CC(=O)N(C)Cc3ccc([100NH:0][100C:0](=O)N4CCCC(n5nc(-c6ccc(Oc7ccc(F)cc7F)cc6)c(C(N)=O)c5N)C4)cc3C)ccc2CC1C(=O)NC1CCCc2ccccc21)C(C)(C)C

> <Shape>
0.256

> <Color>
0.080

> <Negative vol penalty>
0.000

$$$$

  -OEChem-04042322373D

 88 96  0     1  0  0  0  0  0999 V2000
  -20.3744  -31.9754   23.2694 C   0  0  0  0  0  0  0  0  0  0  0  0
  -21.0836  -30.9230   23.8394 C   0  0  0  0  0  0  0  0  0  0  0  0
  -23.0169   -9.9519   19.9494 C   0  0  0  0  0  0  0  0  0  0  0  0
  -23.8298   -9.8827   22.2235 C   0  0  0  0  0  0  0  0  0  0  0  0
  -19.0282  -31.8126   22.9453 C   0  0  0  0  0  0  0  0  0  0  0  0
  -20.4467  -29.7074   24.0867 C   0  0  0  0  0  0  0  0  0  0  0  0
  -23.2361  -25.7276   22.6638 C   0  0  0  0  0  0  0  0  0  0  0  0
  -22.2510   -8.8109   20.1884 C   0  0  0  0  0  0  0  0  0  0  0  0
  -23.0638   -8.7417   22.4626 C   0  0  0  0  0  0  0  0  0  0  0  0
  -24.2775  -25.3454   23.5083 C   0  0  0  0  0  0  0  0  0  0  0  0
  -21.0438   -6.0201   23.7780 C   0  0  0  0  0  0  0  0  0  0  0  0
  -20.3141   -5.9650   24.9655 C   0  0  0  0  0  0  0  0  0  0  0  0
  -32.1364  -18.1034   24.1955 C   0  0  0  0  0  0  0  0  0  0  0  0
  -22.8943  -23.5855   24.4076 C   0  0  0  0  0  0  0  0  0  0  0  0
  -32.2260  -16.3917   22.4928 C   0  0  0  0  0  0  0  0  0  0  0  0
  -19.1008   -7.9494   24.3118 C   0  0  0  0  0  0  0  0  0  0  0  0
  -23.8064  -10.4877   20.9669 C   0  0  0  0  0  0  0  0  0  0  0  0
  -30.7463  -18.1391   24.0865 C   0  0  0  0  0  0  0  0  0  0  0  0
  -24.2072  -13.0062   20.9012 C   0  0  0  0  0  0  0  0  0  0  0  0
  -18.3769  -30.5913   23.1798 C   0  0  0  0  0  0  0  0  0  0  0  0
  -22.0101  -25.0474   22.6927 C   0  0  0  0  0  0  0  0  0  0  0  0
  -19.0901  -29.5286   23.7667 C   0  0  0  0  0  0  0  0  0  0  0  0
  -21.8398  -23.9594   23.5607 C   0  0  0  0  0  0  0  0  0  0  0  0
  -30.0960  -17.3011   23.1807 C   0  0  0  0  0  0  0  0  0  0  0  0
  -30.8358  -16.4273   22.3838 C   0  0  0  0  0  0  0  0  0  0  0  0
  -22.2744   -8.2058   21.4450 C   0  0  0  0  0  0  0  0  0  0  0  0
  -24.1057  -24.2761   24.3824 C   0  0  0  0  0  0  0  0  0  0  0  0
  -20.8021   -7.0398   22.8575 C   0  0  0  0  0  0  0  0  0  0  0  0
  -19.3425   -6.9297   25.2324 C   0  0  0  0  0  0  0  0  0  0  0  0
  -32.8763  -17.2297   23.3986 C   0  0  0  0  0  0  0  0  0  0  0  0
  -19.8306   -8.0045   23.1244 C   0  0  0  0  0  0  0  0  0  0  0  0
  -24.5983  -11.6660   20.7204 C   0  0  0  0  0  0  0  0  0  0  0  0
  -25.3087  -13.7382   20.5307 C   0  0  0  0  0  0  0  0  0  0  0  0
  -28.0838  -22.2385   24.6736 C   0  0  0  0  0  0  0  0  0  0  0  0
  -27.3560  -23.1171   25.3772 C   0  0  0  0  0  0  0  0  0  0  0  0
  -29.9854  -19.0722   24.9396 C   0  0  0  0  0  0  0  0  0  0  0  0
  -22.9598  -13.5415   21.3629 C   0  0  0  0  0  0  0  0  0  0  0  0
  -28.9442  -21.2643   25.3894 C   0  0  0  0  0  0  0  0  0  0  0  0
  -19.0119  -25.8556   23.3715 C   0  0  0  0  0  0  0  0  0  0  0  0
  -18.3828  -22.8343   22.3724 C   0  0  0  0  0  0  0  0  0  0  0  0
  -19.5158  -19.6551   21.8666 C   0  0  0  0  0  0  0  0  0  0  0  0
  -30.8015  -14.6478   20.6010 C   0  0  0  0  0  0  0  0  0  0  0  0
  -16.9082  -30.4780   22.8563 C   0  0  0  0  0  0  0  0  0  0  0  0
  -20.9058  -25.4551   21.7564 C   0  0  0  0  0  0  0  0  0  0  0  0
  -20.5501  -23.1835   23.6160 C   0  0  0  0  0  0  0  0  0  0  0  0
  -16.4051  -29.0377   22.8051 C   0  0  0  0  0  0  0  0  0  0  0  0
  -29.5735  -12.3220   18.2010 C   0  0  0  0  0  0  0  0  0  0  0  0
  -16.9087  -28.2531   24.0124 C   0  0  0  0  0  0  0  0  0  0  0  0
  -28.1375  -12.0542   18.6574 C   0  0  0  0  0  0  0  0  0  0  0  0
  -30.5216  -12.4984   19.3858 C   0  0  0  0  0  0  0  0  0  0  0  0
  -28.6656  -13.2332   20.8295 C   0  0  0  0  0  0  0  0  0  0  0  0
  -18.4406  -28.1868   24.0274 C   0  0  1  0  0  0  0  0  0  0  0  0
  -19.5248  -25.0175   22.2348 C   0  0  1  0  0  0  0  0  0  0  0  0
  -27.6617  -13.1131   19.6713 C   0  0  2  0  0  0  0  0  0  0  0  0
  -28.6041  -17.3426   23.0662 C   0  0  0  0  0  0  0  0  0  0  0  0
  -18.7597  -17.3969   21.0753 C   0  0  0  0  0  0  0  0  0  0  0  0
  -16.9348  -22.3935   25.0217 C   0  0  0  0  0  0  0  0  0  0  0  0
  -17.0426  -19.9296   24.5908 C   0  0  0  0  0  0  0  0  0  0  0  0
  -15.7851  -21.4133   23.0288 C   0  0  0  0  0  0  0  0  0  0  0  0
  -30.2023  -20.8248   23.2125 C   0  0  0  0  0  0  0  0  0  0  0  0
  -21.4687  -19.6519   19.6428 C   0  0  0  0  0  0  0  0  0  0  0  0
  -26.4513  -24.1252   24.7448 C   0  0  0  0  0  0  0  0  0  1  0  0
  -18.3124  -21.4811   23.0379 C   0  0  1  0  0  0  0  0  0  0  0  0
  -19.3948  -18.7200   20.6769 C   0  0  2  0  0  0  0  0  0  0  0  0
  -17.0425  -21.3200   23.9204 C   0  0  0  0  0  0  0  0  0  0  0  0
  -25.8503  -11.5504   20.2699 N   0  0  0  0  0  0  0  0  0  0  0  0
  -26.2556  -12.8275   20.1644 N   0  0  0  0  0  0  0  0  0  0  0  0
  -19.4979  -23.6245   22.6854 N   0  0  0  0  0  0  0  0  0  0  0  0
  -30.0086  -13.5198   20.3014 N   0  0  0  0  0  0  0  0  0  0  0  0
  -25.5500  -15.0657   20.4856 N   0  0  0  0  0  0  0  0  0  0  0  0
  -21.9340  -12.6486   21.7016 N   0  0  0  0  0  0  0  0  0  0  0  0
  -30.1962  -15.5671   21.4572 N   0  0  0  0  0  0  0  0  0  0  0  0
  -18.9132  -27.2023   23.0777 N   0  0  0  0  0  0  0  0  0  0  0  0
  -18.4266  -20.4943   21.9694 N   0  0  0  0  0  0  0  0  0  0  0  0
  -29.7043  -20.3415   24.5300 N   0  0  0  0  0  0  0  0  0  0  0  0
  -29.5778  -18.5462   26.0981 N   0  3  0  0  0  0  0  0  0  0  0  0
  -20.7397  -18.4405   20.0989 N   0  3  0  0  0  0  0  0  0  0  0  0
  -22.7552  -14.7756   21.4562 O   0  0  0  0  0  0  0  0  0  0  0  0
  -28.9980  -21.1897   26.6098 O   0  0  0  0  0  0  0  0  0  0  0  0
  -18.7254  -25.3200   24.4358 O   0  0  0  0  0  0  0  0  0  0  0  0
  -17.4852  -23.1747   21.5977 O   0  0  0  0  0  0  0  0  0  0  0  0
  -20.4784  -19.6399   22.6306 O   0  0  0  0  0  0  0  0  0  0  0  0
  -31.9232  -14.8012   20.1109 O   0  0  0  0  0  0  0  0  0  0  0  0
  -21.5269   -7.0927   21.6787 O   0  0  0  0  0  0  0  0  0  0  0  0
  -25.1203  -23.9013   25.2082 O   0  0  0  0  0  0  0  0  0  1  0  0
  -18.6408   -6.8758   26.3720 F   0  0  0  0  0  0  0  0  0  0  0  0
  -34.2112  -17.1949   23.5038 F   0  0  0  0  0  0  0  0  0  0  0  0
  -19.5931   -8.9859   22.2433 F   0  0  0  0  0  0  0  0  0  0  0  0
  1  2  1  0  0  0  0
  1  5  2  0  0  0  0
  2  6  2  0  0  0  0
  3  8  2  0  0  0  0
  3 17  1  0  0  0  0
  4  9  1  0  0  0  0
  4 17  2  0  0  0  0
  5 20  1  0  0  0  0
  6 22  1  0  0  0  0
  7 10  2  0  0  0  0
  7 21  1  0  0  0  0
  8 26  1  0  0  0  0
  9 26  2  0  0  0  0
 10 27  1  0  0  0  0
 11 12  2  0  0  0  0
 11 28  1  0  0  0  0
 12 29  1  0  0  0  0
 13 18  1  0  0  0  0
 13 30  2  0  0  0  0
 14 23  1  0  0  0  0
 14 27  2  0  0  0  0
 15 25  2  0  0  0  0
 15 30  1  0  0  0  0
 16 29  2  0  0  0  0
 16 31  1  0  0  0  0
 17 32  1  0  0  0  0
 18 24  2  0  0  0  0
 18 36  1  0  0  0  0
 19 32  1  0  0  0  0
 19 33  2  0  0  0  0
 19 37  1  0  0  0  0
 20 22  2  0  0  0  0
 20 43  1  0  0  0  0
 21 23  2  0  0  0  0
 21 44  1  0  0  0  0
 22 52  1  0  0  0  0
 23 45  1  0  0  0  0
 24 25  1  0  0  0  0
 24 55  1  0  0  0  0
 25 72  1  0  0  0  0
 26 84  1  0  0  0  0
 27 85  1  0  0  0  0
 28 31  2  0  0  0  0
 28 84  1  0  0  0  0
 29 86  1  0  0  0  0
 30 87  1  0  0  0  0
 31 88  1  0  0  0  0
 32 66  2  0  0  0  0
 33 67  1  0  0  0  0
 33 70  1  0  0  0  0
 34 35  2  0  0  0  0
 34 38  1  0  0  0  0
 35 62  1  0  0  0  0
 36 75  1  0  0  0  0
 36 76  2  0  0  0  0
 37 71  1  0  0  0  0
 37 78  2  0  0  0  0
 38 75  1  0  0  0  0
 38 79  2  0  0  0  0
 39 53  1  0  0  0  0
 39 73  1  0  0  0  0
 39 80  2  0  0  0  0
 40 63  1  0  0  0  0
 40 68  1  0  0  0  0
 40 81  2  0  0  0  0
 41 64  1  0  0  0  0
 41 74  1  0  0  0  0
 41 82  2  0  0  0  0
 42 69  1  0  0  0  0
 42 72  1  0  0  0  0
 42 83  2  0  0  0  0
 43 46  1  0  0  0  0
 44 53  1  0  0  0  0
 45 68  1  0  0  0  0
 46 48  1  0  0  0  0
 47 49  1  0  0  0  0
 47 50  1  0  0  0  0
 48 52  1  0  0  0  0
 49 54  1  0  0  0  0
 50 69  1  0  0  0  0
 51 54  1  0  0  0  0
 51 69  1  0  0  0  0
 52 73  1  0  0  0  0
 53 68  1  0  0  0  0
 54 67  1  0  0  0  0
 56 64  1  0  0  0  0
 57 65  1  0  0  0  0
 58 65  1  0  0  0  0
 59 65  1  0  0  0  0
 60 75  1  0  0  0  0
 61 77  1  0  0  0  0
 62 85  1  0  0  0  0
 63 65  1  0  0  0  0
 63 74  1  0  0  0  0
 64 77  1  0  0  0  0
 66 67  1  0  0  0  0
M  CHG  2  76   1  77   1
M  ISO  4  42 100  62 101  72 100  85 101
M  END
> <Batch ID>
0051

> <Smiles>
CNC(C)C(=O)NC(C(=O)N1Cc2cc([101O:1][101CH2:1]C=CC(=O)N(C)C(=N)c3cc(F)cc([100NH:0][100C:0](=O)N4CCCC(n5nc(-c6ccc(Oc7ccc(F)cc7F)cc6)c(C(N)=O)c5N)C4)c3C)ccc2CC1C(=O)NC1CCCc2ccccc21)C(C)(C)C

> <Shape>
0.222

> <Color>
0.215

> <Negative vol penalty>
0.000

$$$$

  -OEChem-04042322373D

 85 93  0     1  0  0  0  0  0999 V2000
  -25.1794  -17.5104   26.8292 C   0  0  0  0  0  0  0  0  0  0  0  0
  -26.3784  -17.7456   26.1640 C   0  0  0  0  0  0  0  0  0  0  0  0
  -22.9801   -9.8428   20.0223 C   0  0  0  0  0  0  0  0  0  0  0  0
  -23.6739   -9.9782   22.3326 C   0  0  0  0  0  0  0  0  0  0  0  0
  -24.0029  -18.1045   26.3743 C   0  0  0  0  0  0  0  0  0  0  0  0
  -26.4014  -18.5742   25.0427 C   0  0  0  0  0  0  0  0  0  0  0  0
  -30.9095  -22.3601   23.3546 C   0  0  0  0  0  0  0  0  0  0  0  0
  -30.3824  -19.8157   18.7405 C   0  0  0  0  0  0  0  0  0  0  0  0
  -22.2052   -8.7221   20.3207 C   0  0  0  0  0  0  0  0  0  0  0  0
  -22.8989   -8.8575   22.6310 C   0  0  0  0  0  0  0  0  0  0  0  0
  -31.9432  -22.2332   22.4277 C   0  0  0  0  0  0  0  0  0  0  0  0
  -23.1353   -5.5022   22.2891 C   0  0  0  0  0  0  0  0  0  0  0  0
  -23.7081   -4.5120   23.0871 C   0  0  0  0  0  0  0  0  0  0  0  0
  -29.3094  -19.5463   19.5901 C   0  0  0  0  0  0  0  0  0  0  0  0
  -30.6049  -23.3880   20.7861 C   0  0  0  0  0  0  0  0  0  0  0  0
  -31.7032  -18.1428   19.8780 C   0  0  0  0  0  0  0  0  0  0  0  0
  -21.9625   -4.8246   24.7279 C   0  0  0  0  0  0  0  0  0  0  0  0
  -23.7146  -10.4708   21.0283 C   0  0  0  0  0  0  0  0  0  0  0  0
  -24.1130  -12.9765   20.7627 C   0  0  0  0  0  0  0  0  0  0  0  0
  -24.0132  -18.9485   25.2526 C   0  0  0  0  0  0  0  0  0  0  0  0
  -29.7095  -22.9933   23.0003 C   0  0  0  0  0  0  0  0  0  0  0  0
  -25.2237  -19.1791   24.5715 C   0  0  0  0  0  0  0  0  0  0  0  0
  -29.5585  -23.5238   21.7112 C   0  0  0  0  0  0  0  0  0  0  0  0
  -31.5792  -19.1139   18.8844 C   0  0  0  0  0  0  0  0  0  0  0  0
  -30.6303  -17.8734   20.7277 C   0  0  0  0  0  0  0  0  0  0  0  0
  -22.1645   -8.2294   21.6250 C   0  0  0  0  0  0  0  0  0  0  0  0
  -31.7899  -22.7446   21.1424 C   0  0  0  0  0  0  0  0  0  0  0  0
  -21.9761   -6.1537   22.7104 C   0  0  0  0  0  0  0  0  0  0  0  0
  -23.1217   -4.1732   24.3066 C   0  0  0  0  0  0  0  0  0  0  0  0
  -21.3897   -5.8149   23.9298 C   0  0  0  0  0  0  0  0  0  0  0  0
  -29.4334  -18.5752   20.5837 C   0  0  0  0  0  0  0  0  0  0  0  0
  -24.5157  -11.6282   20.7206 C   0  0  0  0  0  0  0  0  0  0  0  0
  -25.2308  -13.6805   20.3866 C   0  0  0  0  0  0  0  0  0  0  0  0
  -32.5852  -21.7800   17.2621 C   0  0  0  0  0  0  0  0  0  0  0  0
  -22.8423  -13.5419   21.1107 C   0  0  0  0  0  0  0  0  0  0  0  0
  -26.6672  -22.0914   22.8143 C   0  0  0  0  0  0  0  0  0  0  0  0
  -26.1766  -25.2399   22.2074 C   0  0  0  0  0  0  0  0  0  0  0  0
  -27.4399  -28.2058   21.0873 C   0  0  0  0  0  0  0  0  0  0  0  0
  -30.7272  -14.6031   20.6758 C   0  0  0  0  0  0  0  0  0  0  0  0
  -22.7081  -19.5304   24.7700 C   0  0  0  0  0  0  0  0  0  0  0  0
  -28.6143  -23.1457   24.0199 C   0  0  0  0  0  0  0  0  0  0  0  0
  -28.2977  -24.2304   21.2871 C   0  0  0  0  0  0  0  0  0  0  0  0
  -22.8827  -20.6943   23.7978 C   0  0  0  0  0  0  0  0  0  0  0  0
  -29.6084  -12.0968   18.4080 C   0  0  0  0  0  0  0  0  0  0  0  0
  -23.9206  -20.3503   22.7342 C   0  0  0  0  0  0  0  0  0  0  0  0
  -28.1532  -11.8585   18.8150 C   0  0  0  0  0  0  0  0  0  0  0  0
  -30.4951  -12.3743   19.6199 C   0  0  0  0  0  0  0  0  0  0  0  0
  -28.5703  -13.2271   20.9010 C   0  0  0  0  0  0  0  0  0  0  0  0
  -25.2935  -20.0916   23.3663 C   0  0  1  0  0  0  0  0  0  0  0  0
  -27.2392  -23.3546   23.3930 C   0  0  1  0  0  0  0  0  0  0  0  0
  -27.6268  -12.9983   19.7078 C   0  0  2  0  0  0  0  0  0  0  0  0
  -26.7885  -30.5936   20.6734 C   0  0  0  0  0  0  0  0  0  0  0  0
  -24.6808  -24.3925   19.6866 C   0  0  0  0  0  0  0  0  0  0  0  0
  -24.8913  -26.7445   18.8549 C   0  0  0  0  0  0  0  0  0  0  0  0
  -23.6183  -26.2727   20.9477 C   0  0  0  0  0  0  0  0  0  0  0  0
  -29.4461  -29.2091   23.0179 C   0  0  0  0  0  0  0  0  0  0  0  0
  -32.7339  -19.4043   17.9698 C   0  0  0  0  0  0  0  0  0  0  0  0
  -30.8030  -16.8250   21.7788 C   0  0  0  0  0  0  0  0  0  0  0  0
  -34.2076  -21.1197   18.9965 C   0  0  0  0  0  0  0  0  0  0  0  0
  -33.6478  -21.4827   20.3602 C   0  0  0  0  0  0  0  0  0  1  0  0
  -26.1403  -26.0961   20.9646 C   0  0  1  0  0  0  0  0  0  0  0  0
  -27.3835  -29.6077   21.6668 C   0  0  2  0  0  0  0  0  0  0  0  0
  -24.8558  -25.8615   20.1205 C   0  0  0  0  0  0  0  0  0  0  0  0
  -25.7898  -11.4820   20.3471 N   0  0  0  0  0  0  0  0  0  0  0  0
  -26.1973  -12.7475   20.1510 N   0  0  0  0  0  0  0  0  0  0  0  0
  -27.2532  -24.3486   22.3179 N   0  0  0  0  0  0  0  0  0  0  0  0
  -29.9412  -13.4666   20.4237 N   0  0  0  0  0  0  0  0  0  0  0  0
  -25.4713  -15.0005   20.2378 N   0  0  0  0  0  0  0  0  0  0  0  0
  -21.8021  -12.6753   21.4730 N   0  0  0  0  0  0  0  0  0  0  0  0
  -25.9334  -21.3422   23.7142 N   0  0  0  0  0  0  0  0  0  0  0  0
  -26.3178  -27.4732   21.4123 N   0  0  0  0  0  0  0  0  0  0  0  0
  -30.1239  -15.5941   21.4405 N   0  0  0  0  0  0  0  0  0  0  0  0
  -33.1650  -20.7961   18.0591 N   0  0  0  0  0  0  0  0  0  0  0  0
  -28.7518  -30.0738   22.0293 N   0  3  0  0  0  0  0  0  0  0  0  0
  -32.8610  -22.9746   17.2472 O   0  0  0  0  0  0  0  0  0  0  0  0
  -22.6306  -14.7780   21.0847 O   0  0  0  0  0  0  0  0  0  0  0  0
  -26.8749  -21.8175   21.6381 O   0  0  0  0  0  0  0  0  0  0  0  0
  -25.2864  -25.3626   23.0525 O   0  0  0  0  0  0  0  0  0  0  0  0
  -28.3831  -27.8021   20.4106 O   0  0  0  0  0  0  0  0  0  0  0  0
  -31.8792  -14.7280   20.2464 O   0  0  0  0  0  0  0  0  0  0  0  0
  -21.4082   -7.1360   21.9166 O   0  0  0  0  0  0  0  0  0  0  0  0
  -32.7970  -22.6216   20.2355 O   0  0  0  0  0  0  0  0  0  1  0  0
  -23.6710   -3.2211   25.0721 F   0  0  0  0  0  0  0  0  0  0  0  0
  -20.2754   -6.4365   24.3394 F   0  0  0  0  0  0  0  0  0  0  0  0
  -28.0849  -18.2685   21.6165 Cl  0  0  0  0  0  0  0  0  0  0  0  0
  1  2  1  0  0  0  0
  1  5  2  0  0  0  0
  2  6  2  0  0  0  0
  3  9  2  0  0  0  0
  3 18  1  0  0  0  0
  4 10  1  0  0  0  0
  4 18  2  0  0  0  0
  5 20  1  0  0  0  0
  6 22  1  0  0  0  0
  7 11  2  0  0  0  0
  7 21  1  0  0  0  0
  8 14  2  0  0  0  0
  8 24  1  0  0  0  0
  9 26  1  0  0  0  0
 10 26  2  0  0  0  0
 11 27  1  0  0  0  0
 12 13  2  0  0  0  0
 12 28  1  0  0  0  0
 13 29  1  0  0  0  0
 14 31  1  0  0  0  0
 15 23  1  0  0  0  0
 15 27  2  0  0  0  0
 16 24  2  0  0  0  0
 16 25  1  0  0  0  0
 17 29  2  0  0  0  0
 17 30  1  0  0  0  0
 18 32  1  0  0  0  0
 19 32  1  0  0  0  0
 19 33  2  0  0  0  0
 19 35  1  0  0  0  0
 20 22  2  0  0  0  0
 20 40  1  0  0  0  0
 21 23  2  0  0  0  0
 21 41  1  0  0  0  0
 22 49  1  0  0  0  0
 23 42  1  0  0  0  0
 24 57  1  0  0  0  0
 25 31  2  0  0  0  0
 25 58  1  0  0  0  0
 26 81  1  0  0  0  0
 27 82  1  0  0  0  0
 28 30  2  0  0  0  0
 28 81  1  0  0  0  0
 29 83  1  0  0  0  0
 30 84  1  0  0  0  0
 31 85  1  0  0  0  0
 32 64  2  0  0  0  0
 33 65  1  0  0  0  0
 33 68  1  0  0  0  0
 34 73  1  0  0  0  0
 34 75  2  0  0  0  0
 35 69  1  0  0  0  0
 35 76  2  0  0  0  0
 36 50  1  0  0  0  0
 36 70  1  0  0  0  0
 36 77  2  0  0  0  0
 37 61  1  0  0  0  0
 37 66  1  0  0  0  0
 37 78  2  0  0  0  0
 38 62  1  0  0  0  0
 38 71  1  0  0  0  0
 38 79  2  0  0  0  0
 39 67  1  0  0  0  0
 39 72  1  0  0  0  0
 39 80  2  0  0  0  0
 40 43  1  0  0  0  0
 41 50  1  0  0  0  0
 42 66  1  0  0  0  0
 43 45  1  0  0  0  0
 44 46  1  0  0  0  0
 44 47  1  0  0  0  0
 45 49  1  0  0  0  0
 46 51  1  0  0  0  0
 47 67  1  0  0  0  0
 48 51  1  0  0  0  0
 48 67  1  0  0  0  0
 49 70  1  0  0  0  0
 50 66  1  0  0  0  0
 51 65  1  0  0  0  0
 52 62  1  0  0  0  0
 53 63  1  0  0  0  0
 54 63  1  0  0  0  0
 55 63  1  0  0  0  0
 56 74  1  0  0  0  0
 57 73  1  0  0  0  0
 58 72  1  0  0  0  0
 59 60  1  0  0  0  0
 59 73  1  0  0  0  0
 60 82  1  0  0  0  0
 61 63  1  0  0  0  0
 61 71  1  0  0  0  0
 62 74  1  0  0  0  0
 64 65  1  0  0  0  0
M  CHG  1  74   1
M  ISO  4  39 100  60 101  72 100  82 101
M  END
> <Batch ID>
0051

> <Smiles>
CNC(C)C(=O)NC(C(=O)N1Cc2cc([101O:1][101CH2:1]CN(C=O)Cc3ccc(Cl)c(C[100NH:0][100C:0](=O)N4CCCC(n5nc(-c6ccc(Oc7ccc(F)cc7F)cc6)c(C(N)=O)c5N)C4)c3)ccc2CC1C(=O)NC1CCCc2ccccc21)C(C)(C)C

> <Shape>
0.250

> <Color>
0.207

> <Negative vol penalty>
0.000

$$$$

  -OEChem-04042322373D

 85 94  0     1  0  0  0  0  0999 V2000
  -16.8151  -31.4636   20.5276 C   0  0  0  0  0  0  0  0  0  0  0  0
  -17.9763  -31.6157   19.7767 C   0  0  0  0  0  0  0  0  0  0  0  0
  -22.6608  -10.5273   20.6836 C   0  0  0  0  0  0  0  0  0  0  0  0
  -24.5070   -9.3461   21.7000 C   0  0  0  0  0  0  0  0  0  0  0  0
  -16.8661  -31.5684   21.9170 C   0  0  0  0  0  0  0  0  0  0  0  0
  -19.1891  -31.8738   20.4147 C   0  0  0  0  0  0  0  0  0  0  0  0
  -24.8125  -27.4419   19.6226 C   0  0  0  0  0  0  0  0  0  0  0  0
  -28.1336  -21.3803   20.6852 C   0  0  0  0  0  0  0  0  0  0  0  0
  -28.0560  -19.9888   20.7427 C   0  0  0  0  0  0  0  0  0  0  0  0
  -21.7614   -9.7463   21.4094 C   0  0  0  0  0  0  0  0  0  0  0  0
  -23.6076   -8.5651   22.4259 C   0  0  0  0  0  0  0  0  0  0  0  0
  -25.9973  -26.7566   19.3529 C   0  0  0  0  0  0  0  0  0  0  0  0
  -21.6174   -5.8894   21.8686 C   0  0  0  0  0  0  0  0  0  0  0  0
  -21.8495   -4.5151   21.9228 C   0  0  0  0  0  0  0  0  0  0  0  0
  -27.1838  -28.1714   20.9144 C   0  0  0  0  0  0  0  0  0  0  0  0
  -30.3693  -19.8883   21.4324 C   0  0  0  0  0  0  0  0  0  0  0  0
  -22.0245   -4.6397   24.3293 C   0  0  0  0  0  0  0  0  0  0  0  0
  -24.0336  -10.3272   20.8288 C   0  0  0  0  0  0  0  0  0  0  0  0
  -25.0645  -11.2328   18.6783 C   0  0  0  0  0  0  0  0  0  0  0  0
  -18.0818  -31.8183   22.5730 C   0  0  0  0  0  0  0  0  0  0  0  0
  -24.8057  -28.4859   20.5519 C   0  0  0  0  0  0  0  0  0  0  0  0
  -19.2561  -31.9833   21.8141 C   0  0  0  0  0  0  0  0  0  0  0  0
  -25.9975  -28.8534   21.1980 C   0  0  0  0  0  0  0  0  0  0  0  0
  -30.4469  -21.2798   21.3748 C   0  0  0  0  0  0  0  0  0  0  0  0
  -29.3291  -22.0258   21.0011 C   0  0  0  0  0  0  0  0  0  0  0  0
  -29.1738  -19.2428   21.1164 C   0  0  0  0  0  0  0  0  0  0  0  0
  -22.2348   -8.7653   22.2806 C   0  0  0  0  0  0  0  0  0  0  0  0
  -27.1800  -27.1206   19.9970 C   0  0  0  0  0  0  0  0  0  0  0  0
  -21.5889   -6.6389   23.0446 C   0  0  0  0  0  0  0  0  0  0  0  0
  -22.0531   -3.8902   23.1532 C   0  0  0  0  0  0  0  0  0  0  0  0
  -21.7924   -6.0141   24.2750 C   0  0  0  0  0  0  0  0  0  0  0  0
  -24.9631  -11.1332   20.0789 C   0  0  0  0  0  0  0  0  0  0  0  0
  -26.0928  -12.1193   18.4707 C   0  0  0  0  0  0  0  0  0  0  0  0
  -30.2925  -24.1137   20.0730 C   0  0  0  0  0  0  0  0  0  0  0  0
  -24.2976  -10.5823   17.6564 C   0  0  0  0  0  0  0  0  0  0  0  0
  -22.8043  -31.1017   22.3486 C   0  0  0  0  0  0  0  0  0  0  0  0
  -24.7434  -29.8989   24.3990 C   0  0  0  0  0  0  0  0  0  0  0  0
  -26.7337  -28.0262   26.4408 C   0  0  0  0  0  0  0  0  0  0  0  0
  -27.9877  -17.0227   20.8959 C   0  0  0  0  0  0  0  0  0  0  0  0
  -18.0791  -31.9701   24.0736 C   0  0  0  0  0  0  0  0  0  0  0  0
  -23.5656  -29.2920   20.8281 C   0  0  0  0  0  0  0  0  0  0  0  0
  -25.9499  -30.0053   22.1643 C   0  0  0  0  0  0  0  0  0  0  0  0
  -30.5040  -25.6040   20.2900 C   0  0  0  0  0  0  0  0  0  0  0  0
  -19.4686  -31.8730   24.6981 C   0  0  0  0  0  0  0  0  0  0  0  0
  -29.4289  -13.6052   21.8797 C   0  0  0  0  0  0  0  0  0  0  0  0
  -20.4647  -32.7266   23.9195 C   0  0  0  0  0  0  0  0  0  0  0  0
  -28.8081  -12.7431   20.7831 C   0  0  0  0  0  0  0  0  0  0  0  0
  -28.7079  -25.6532   21.9890 C   0  0  0  0  0  0  0  0  0  0  0  0
  -29.5225  -15.0718   21.4779 C   0  0  0  0  0  0  0  0  0  0  0  0
  -28.3353  -24.2210   21.6382 C   0  0  0  0  0  0  0  0  0  0  0  0
  -27.1460  -14.6841   20.8011 C   0  0  0  0  0  0  0  0  0  0  0  0
  -20.5950  -32.2394   22.4713 C   0  0  1  0  0  0  0  0  0  0  0  0
  -23.4591  -29.7527   22.2928 C   0  0  1  0  0  0  0  0  0  0  0  0
  -27.6524  -13.4463   20.0442 C   0  0  2  0  0  0  0  0  0  0  0  0
  -29.2893  -26.3607   20.7831 C   0  0  2  0  0  0  0  0  0  1  0  0
  -31.7402  -21.9451   21.7180 C   0  0  0  0  0  0  0  0  0  0  0  0
  -27.4570  -27.8168   28.8346 C   0  0  0  0  0  0  0  0  0  0  0  0
  -26.5733  -32.3147   24.0535 C   0  0  0  0  0  0  0  0  0  0  0  0
  -27.9007  -31.5003   26.0139 C   0  0  0  0  0  0  0  0  0  0  0  0
  -25.5045  -32.1289   26.3069 C   0  0  0  0  0  0  0  0  0  0  0  0
  -25.6206  -25.2926   26.6591 C   0  0  0  0  0  0  0  0  0  0  0  0
  -26.0853  -29.9962   25.0795 C   0  0  1  0  0  0  0  0  0  0  0  0
  -26.4627  -27.3609   27.7781 C   0  0  2  0  0  0  0  0  0  0  0  0
  -26.5120  -31.4684   25.3407 C   0  0  0  0  0  0  0  0  0  0  0  0
  -25.8559  -11.8954   20.7160 N   0  0  0  0  0  0  0  0  0  0  0  0
  -26.5282  -12.4824   19.7112 N   0  0  0  0  0  0  0  0  0  0  0  0
  -29.3886  -23.4706   20.9351 N   0  0  0  0  0  0  0  0  0  0  0  0
  -24.7418  -29.9113   22.9988 N   0  0  0  0  0  0  0  0  0  0  0  0
  -28.2345  -15.6364   21.0497 N   0  0  0  0  0  0  0  0  0  0  0  0
  -26.6582  -12.6158   17.3499 N   0  0  0  0  0  0  0  0  0  0  0  0
  -24.7436   -9.3451   17.1719 N   0  0  0  0  0  0  0  0  0  0  0  0
  -29.0943  -17.8289   21.1755 N   0  0  0  0  0  0  0  0  0  0  0  0
  -21.4246  -31.0552   22.4091 N   0  0  0  0  0  0  0  0  0  0  0  0
  -25.9925  -29.1783   26.2839 N   0  0  0  0  0  0  0  0  0  0  0  0
  -26.5604  -25.8794   27.6488 N   0  3  0  0  0  0  0  0  0  0  0  0
  -30.9643  -23.5577   19.1992 O   0  0  0  0  0  0  0  0  0  0  0  0
  -23.2569  -11.0910   17.1752 O   0  0  0  0  0  0  0  0  0  0  0  0
  -23.4989  -32.1112   22.3391 O   0  0  0  0  0  0  0  0  0  0  0  0
  -23.7222  -29.8197   25.0876 O   0  0  0  0  0  0  0  0  0  0  0  0
  -27.5266  -27.5715   25.6191 O   0  0  0  0  0  0  0  0  0  0  0  0
  -26.8890  -17.4488   20.5338 O   0  0  0  0  0  0  0  0  0  0  0  0
  -21.3576   -8.0031   22.9892 O   0  0  0  0  0  0  0  0  0  0  0  0
  -28.3321  -26.4444   19.7323 O   0  0  0  0  0  0  0  0  0  1  0  0
  -22.2744   -2.5702   23.2052 F   0  0  0  0  0  0  0  0  0  0  0  0
  -21.7650   -6.7286   25.4083 F   0  0  0  0  0  0  0  0  0  0  0  0
  1  2  1  0  0  0  0
  1  5  2  0  0  0  0
  2  6  2  0  0  0  0
  3 10  2  0  0  0  0
  3 18  1  0  0  0  0
  4 11  1  0  0  0  0
  4 18  2  0  0  0  0
  5 20  1  0  0  0  0
  6 22  1  0  0  0  0
  7 12  2  0  0  0  0
  7 21  1  0  0  0  0
  8  9  2  0  0  0  0
  8 25  1  0  0  0  0
  9 26  1  0  0  0  0
 10 27  1  0  0  0  0
 11 27  2  0  0  0  0
 12 28  1  0  0  0  0
 13 14  2  0  0  0  0
 13 29  1  0  0  0  0
 14 30  1  0  0  0  0
 15 23  1  0  0  0  0
 15 28  2  0  0  0  0
 16 24  1  0  0  0  0
 16 26  2  0  0  0  0
 17 30  2  0  0  0  0
 17 31  1  0  0  0  0
 18 32  1  0  0  0  0
 19 32  1  0  0  0  0
 19 33  2  0  0  0  0
 19 35  1  0  0  0  0
 20 22  2  0  0  0  0
 20 40  1  0  0  0  0
 21 23  2  0  0  0  0
 21 41  1  0  0  0  0
 22 52  1  0  0  0  0
 23 42  1  0  0  0  0
 24 25  2  0  0  0  0
 24 56  1  0  0  0  0
 25 67  1  0  0  0  0
 26 72  1  0  0  0  0
 27 82  1  0  0  0  0
 28 83  1  0  0  0  0
 29 31  2  0  0  0  0
 29 82  1  0  0  0  0
 30 84  1  0  0  0  0
 31 85  1  0  0  0  0
 32 65  2  0  0  0  0
 33 66  1  0  0  0  0
 33 70  1  0  0  0  0
 34 43  1  0  0  0  0
 34 67  1  0  0  0  0
 34 76  2  0  0  0  0
 35 71  1  0  0  0  0
 35 77  2  0  0  0  0
 36 53  1  0  0  0  0
 36 73  1  0  0  0  0
 36 78  2  0  0  0  0
 37 62  1  0  0  0  0
 37 68  1  0  0  0  0
 37 79  2  0  0  0  0
 38 63  1  0  0  0  0
 38 74  1  0  0  0  0
 38 80  2  0  0  0  0
 39 69  1  0  0  0  0
 39 72  1  0  0  0  0
 39 81  2  0  0  0  0
 40 44  1  0  0  0  0
 41 53  1  0  0  0  0
 42 68  1  0  0  0  0
 43 55  1  0  0  0  0
 44 46  1  0  0  0  0
 45 47  1  0  0  0  0
 45 49  1  0  0  0  0
 46 52  1  0  0  0  0
 47 54  1  0  0  0  0
 48 50  1  0  0  0  0
 48 55  1  0  0  0  0
 49 69  1  0  0  0  0
 50 67  1  0  0  0  0
 51 54  1  0  0  0  0
 51 69  1  0  0  0  0
 52 73  1  0  0  0  0
 53 68  1  0  0  0  0
 54 66  1  0  0  0  0
 55 83  1  0  0  0  0
 57 63  1  0  0  0  0
 58 64  1  0  0  0  0
 59 64  1  0  0  0  0
 60 64  1  0  0  0  0
 61 75  1  0  0  0  0
 62 64  1  0  0  0  0
 62 74  1  0  0  0  0
 63 75  1  0  0  0  0
 65 66  1  0  0  0  0
M  CHG  1  75   1
M  ISO  4  39 100  55 101  72 100  83 101
M  END
> <Batch ID>
0051

> <Smiles>
CNC(C)C(=O)NC(C(=O)N1Cc2cc([101O:1][101CH:1]3CCN(c4ccc([100NH:0][100C:0](=O)N5CCCC(n6nc(-c7ccc(Oc8ccc(F)cc8F)cc7)c(C(N)=O)c6N)C5)cc4C)C(=O)C3)ccc2CC1C(=O)NC1CCCc2ccccc21)C(C)(C)C

> <Shape>
0.326

> <Color>
0.113

> <Negative vol penalty>
0.000

$$$$

  -OEChem-04042322373D

 87 96  0     1  0  0  0  0  0999 V2000
  -28.4250  -32.7460   26.8317 C   0  0  0  0  0  0  0  0  0  0  0  0
  -28.4394  -31.5863   26.0634 C   0  0  0  0  0  0  0  0  0  0  0  0
  -23.4182  -11.7769   23.2126 C   0  0  0  0  0  0  0  0  0  0  0  0
  -24.5201   -9.7656   22.4525 C   0  0  0  0  0  0  0  0  0  0  0  0
  -27.2135  -33.3685   27.1294 C   0  0  0  0  0  0  0  0  0  0  0  0
  -27.2421  -31.0478   25.5933 C   0  0  0  0  0  0  0  0  0  0  0  0
  -27.5152  -29.6533   20.7327 C   0  0  0  0  0  0  0  0  0  0  0  0
  -30.1868  -20.0071   17.9038 C   0  0  0  0  0  0  0  0  0  0  0  0
  -27.7978  -20.1066   17.5576 C   0  0  0  0  0  0  0  0  0  0  0  0
  -30.0993  -18.6307   18.1120 C   0  0  0  0  0  0  0  0  0  0  0  0
  -27.7103  -18.7301   17.7657 C   0  0  0  0  0  0  0  0  0  0  0  0
  -22.8979  -11.0798   24.3030 C   0  0  0  0  0  0  0  0  0  0  0  0
  -23.9998   -9.0685   23.5429 C   0  0  0  0  0  0  0  0  0  0  0  0
  -28.1590  -28.4491   20.4509 C   0  0  0  0  0  0  0  0  0  0  0  0
  -21.0554   -7.6596   24.4243 C   0  0  0  0  0  0  0  0  0  0  0  0
  -20.5048   -6.4005   24.1856 C   0  0  0  0  0  0  0  0  0  0  0  0
  -26.0172  -27.3556   20.2605 C   0  0  0  0  0  0  0  0  0  0  0  0
  -22.1156   -5.4108   25.6899 C   0  0  0  0  0  0  0  0  0  0  0  0
  -24.2293  -11.1197   22.2873 C   0  0  0  0  0  0  0  0  0  0  0  0
  -24.0424  -12.4980   20.1488 C   0  0  0  0  0  0  0  0  0  0  0  0
  -26.0016  -32.8428   26.6546 C   0  0  0  0  0  0  0  0  0  0  0  0
  -26.1155  -29.7154   20.7913 C   0  0  0  0  0  0  0  0  0  0  0  0
  -26.0132  -31.6632   25.8861 C   0  0  0  0  0  0  0  0  0  0  0  0
  -25.3581  -28.5623   20.5406 C   0  0  0  0  0  0  0  0  0  0  0  0
  -29.0360  -20.7451   17.6267 C   0  0  0  0  0  0  0  0  0  0  0  0
  -28.8611  -17.9922   18.0428 C   0  0  0  0  0  0  0  0  0  0  0  0
  -23.1887   -9.7256   24.4682 C   0  0  0  0  0  0  0  0  0  0  0  0
  -27.4101  -27.2994   20.2177 C   0  0  0  0  0  0  0  0  0  0  0  0
  -22.1363   -7.7943   25.2957 C   0  0  0  0  0  0  0  0  0  0  0  0
  -21.0348   -5.2761   24.8184 C   0  0  0  0  0  0  0  0  0  0  0  0
  -22.6663   -6.6700   25.9285 C   0  0  0  0  0  0  0  0  0  0  0  0
  -24.7666  -11.8391   21.1604 C   0  0  0  0  0  0  0  0  0  0  0  0
  -25.0062  -13.0203   19.3212 C   0  0  0  0  0  0  0  0  0  0  0  0
  -29.9102  -24.2960   18.3929 C   0  0  0  0  0  0  0  0  0  0  0  0
  -33.3667  -23.6103   19.4258 C   0  0  0  0  0  0  0  0  0  0  0  0
  -31.2138  -24.4748   18.6550 C   0  0  0  0  0  0  0  0  0  0  0  0
  -32.0670  -23.4314   19.1647 C   0  0  0  0  0  0  0  0  0  0  0  0
  -22.6253  -12.6264   19.9729 C   0  0  0  0  0  0  0  0  0  0  0  0
  -23.9943  -30.4265   23.0492 C   0  0  0  0  0  0  0  0  0  0  0  0
  -21.8812  -30.1549   20.6031 C   0  0  0  0  0  0  0  0  0  0  0  0
  -21.3729  -27.9468   17.7954 C   0  0  0  0  0  0  0  0  0  0  0  0
  -29.8159  -15.7142   18.5387 C   0  0  0  0  0  0  0  0  0  0  0  0
  -24.7132  -33.5246   27.0421 C   0  0  0  0  0  0  0  0  0  0  0  0
  -25.4356  -31.0278   21.0700 C   0  0  0  0  0  0  0  0  0  0  0  0
  -23.8523  -28.5803   20.5718 C   0  0  0  0  0  0  0  0  0  0  0  0
  -29.0225  -25.3909   17.8599 C   0  0  0  0  0  0  0  0  0  0  0  0
  -23.5192  -33.0991   26.1914 C   0  0  0  0  0  0  0  0  0  0  0  0
  -30.0008  -12.2136   19.1619 C   0  0  0  0  0  0  0  0  0  0  0  0
  -23.4807  -31.5811   26.0468 C   0  0  0  0  0  0  0  0  0  0  0  0
  -28.5959  -11.8583   19.6542 C   0  0  0  0  0  0  0  0  0  0  0  0
  -27.1087  -24.1414   18.9442 C   0  0  0  0  0  0  0  0  0  0  0  0
  -30.4455  -13.5877   19.6596 C   0  0  0  0  0  0  0  0  0  0  0  0
  -28.1051  -14.3282   19.8682 C   0  0  0  0  0  0  0  0  0  0  0  0
  -28.1055  -23.1435   19.5319 C   0  0  0  0  0  0  0  0  0  0  0  0
  -24.7373  -31.0625   25.3371 C   0  0  1  0  0  0  0  0  0  0  0  0
  -24.0189  -30.8635   21.6118 C   0  0  1  0  0  0  0  0  0  0  0  0
  -27.5877  -12.9806   19.3389 C   0  0  2  0  0  0  0  0  0  0  0  0
  -27.7431  -25.5085   18.6886 C   0  0  1  0  0  0  0  0  0  1  0  0
  -20.2740  -28.3553   15.5766 C   0  0  0  0  0  0  0  0  0  0  0  0
  -19.3848  -29.0450   21.9617 C   0  0  0  0  0  0  0  0  0  0  0  0
  -18.8146  -27.8903   19.8147 C   0  0  0  0  0  0  0  0  0  0  0  0
  -18.9410  -30.3803   19.8943 C   0  0  0  0  0  0  0  0  0  0  0  0
  -23.7755  -27.0609   16.3115 C   0  0  0  0  0  0  0  0  0  0  0  0
  -29.1302  -22.2257   17.4029 C   0  0  0  0  0  0  0  0  0  0  0  0
  -21.0733  -29.0267   20.0086 C   0  0  1  0  0  0  0  0  0  0  0  0
  -21.5928  -28.2751   16.3296 C   0  0  2  0  0  0  0  0  0  0  0  0
  -19.5784  -29.0808   20.4326 C   0  0  0  0  0  0  0  0  0  0  0  0
  -26.0884  -11.9327   20.9927 N   0  0  0  0  0  0  0  0  0  0  0  0
  -26.2024  -12.6564   19.8661 N   0  0  0  0  0  0  0  0  0  0  0  0
  -23.2341  -29.8862   20.8549 N   0  0  0  0  0  0  0  0  0  0  0  0
  -29.4436  -14.6010   19.3216 N   0  0  0  0  0  0  0  0  0  0  0  0
  -24.9387  -13.7506   18.1879 N   0  0  0  0  0  0  0  0  0  0  0  0
  -21.9537  -11.6503   19.2242 N   0  0  0  0  0  0  0  0  0  0  0  0
  -28.7720  -16.5939   18.2539 N   0  0  0  0  0  0  0  0  0  0  0  0
  -24.6427  -31.2904   23.9111 N   0  0  0  0  0  0  0  0  0  0  0  0
  -21.2880  -29.0865   18.5668 N   0  0  0  0  0  0  0  0  0  0  0  0
  -29.3408  -23.0014   18.6738 N   0  3  1  0  0  0  0  0  0  0  0  0
  -22.4387  -27.2304   15.6861 N   0  3  0  0  0  0  0  0  0  0  0  0
  -21.9764  -13.5875   20.4513 O   0  0  0  0  0  0  0  0  0  0  0  0
  -23.4276  -29.3836   23.3540 O   0  0  0  0  0  0  0  0  0  0  0  0
  -21.3339  -31.2371   20.8289 O   0  0  0  0  0  0  0  0  0  0  0  0
  -21.2817  -26.7947   18.2135 O   0  0  0  0  0  0  0  0  0  0  0  0
  -30.9694  -15.8613   18.1267 O   0  0  0  0  0  0  0  0  0  0  0  0
  -22.6814   -9.0452   25.5322 O   0  0  0  0  0  0  0  0  0  0  0  0
  -28.0359  -26.1227   19.9431 O   0  0  0  0  0  0  0  0  0  1  0  0
  -20.5049   -4.0672   24.5903 F   0  0  0  0  0  0  0  0  0  0  0  0
  -23.7039   -6.7933   26.7676 F   0  0  0  0  0  0  0  0  0  0  0  0
  1  2  1  0  0  0  0
  1  5  2  0  0  0  0
  2  6  2  0  0  0  0
  3 12  2  0  0  0  0
  3 19  1  0  0  0  0
  4 13  1  0  0  0  0
  4 19  2  0  0  0  0
  5 21  1  0  0  0  0
  6 23  1  0  0  0  0
  7 14  2  0  0  0  0
  7 22  1  0  0  0  0
  8 10  2  0  0  0  0
  8 25  1  0  0  0  0
  9 11  1  0  0  0  0
  9 25  2  0  0  0  0
 10 26  1  0  0  0  0
 11 26  2  0  0  0  0
 12 27  1  0  0  0  0
 13 27  2  0  0  0  0
 14 28  1  0  0  0  0
 15 16  2  0  0  0  0
 15 29  1  0  0  0  0
 16 30  1  0  0  0  0
 17 24  1  0  0  0  0
 17 28  2  0  0  0  0
 18 30  2  0  0  0  0
 18 31  1  0  0  0  0
 19 32  1  0  0  0  0
 20 32  1  0  0  0  0
 20 33  2  0  0  0  0
 20 38  1  0  0  0  0
 21 23  2  0  0  0  0
 21 43  1  0  0  0  0
 22 24  2  0  0  0  0
 22 44  1  0  0  0  0
 23 55  1  0  0  0  0
 24 45  1  0  0  0  0
 25 64  1  0  0  0  0
 26 74  1  0  0  0  0
 27 84  1  0  0  0  0
 28 85  1  0  0  0  0
 29 31  2  0  0  0  0
 29 84  1  0  0  0  0
 30 86  1  0  0  0  0
 31 87  1  0  0  0  0
 32 68  2  0  0  0  0
 33 69  1  0  0  0  0
 33 72  1  0  0  0  0
 34 36  2  0  0  0  0
 34 46  1  0  0  0  0
 34 77  1  0  0  0  0
 35 37  2  0  0  0  0
 36 37  1  0  0  0  0
 38 73  1  0  0  0  0
 38 79  2  0  0  0  0
 39 56  1  0  0  0  0
 39 75  1  0  0  0  0
 39 80  2  0  0  0  0
 40 65  1  0  0  0  0
 40 70  1  0  0  0  0
 40 81  2  0  0  0  0
 41 66  1  0  0  0  0
 41 76  1  0  0  0  0
 41 82  2  0  0  0  0
 42 71  1  0  0  0  0
 42 74  1  0  0  0  0
 42 83  2  0  0  0  0
 43 47  1  0  0  0  0
 44 56  1  0  0  0  0
 45 70  1  0  0  0  0
 46 58  1  0  0  0  0
 47 49  1  0  0  0  0
 48 50  1  0  0  0  0
 48 52  1  0  0  0  0
 49 55  1  0  0  0  0
 50 57  1  0  0  0  0
 51 54  1  0  0  0  0
 51 58  1  0  0  0  0
 52 71  1  0  0  0  0
 53 57  1  0  0  0  0
 53 71  1  0  0  0  0
 54 77  1  0  0  0  0
 55 75  1  0  0  0  0
 56 70  1  0  0  0  0
 57 69  1  0  0  0  0
 58 85  1  0  0  0  0
 59 66  1  0  0  0  0
 60 67  1  0  0  0  0
 61 67  1  0  0  0  0
 62 67  1  0  0  0  0
 63 78  1  0  0  0  0
 64 77  1  0  0  0  0
 65 67  1  0  0  0  0
 65 76  1  0  0  0  0
 66 78  1  0  0  0  0
 68 69  1  0  0  0  0
M  CHG  2  77   1  78   1
M  ISO  4  42 100  58 101  74 100  85 101
M  END
> <Batch ID>
0051

> <Smiles>
C=CC=C1C[101CH:1]([101O:1]c2ccc3c(c2)CN(C(=O)C(NC(=O)C(C)NC)C(C)(C)C)C(C(=O)NC2CCCc4ccccc42)C3)CCN1Cc1ccc([100NH:0][100C:0](=O)N2CCCC(n3nc(-c4ccc(Oc5ccc(F)cc5F)cc4)c(C(N)=O)c3N)C2)cc1

> <Shape>
0.300

> <Color>
0.103

> <Negative vol penalty>
0.000

$$$$

  -OEChem-04042322373D

 85 93  0     1  0  0  0  0  0999 V2000
  -19.4345  -27.6740   23.7603 C   0  0  0  0  0  0  0  0  0  0  0  0
  -19.3630  -26.3706   23.2793 C   0  0  0  0  0  0  0  0  0  0  0  0
  -26.2619  -11.7597   20.7752 C   0  0  0  0  0  0  0  0  0  0  0  0
  -27.5179  -23.4759   21.2290 C   0  0  0  0  0  0  0  0  0  0  0  0
  -29.1260  -23.3243   19.4322 C   0  0  0  0  0  0  0  0  0  0  0  0
  -19.6626  -28.7297   22.8785 C   0  0  0  0  0  0  0  0  0  0  0  0
  -19.5185  -26.1222   21.9160 C   0  0  0  0  0  0  0  0  0  0  0  0
  -22.5686  -22.1862   20.9939 C   0  0  0  0  0  0  0  0  0  0  0  0
  -25.5183  -11.5420   21.9350 C   0  0  0  0  0  0  0  0  0  0  0  0
  -26.1398  -12.9653   20.0844 C   0  0  0  0  0  0  0  0  0  0  0  0
  -27.5605  -24.8679   21.1496 C   0  0  0  0  0  0  0  0  0  0  0  0
  -29.1685  -24.7163   19.3528 C   0  0  0  0  0  0  0  0  0  0  0  0
  -22.0295  -20.9109   21.1575 C   0  0  0  0  0  0  0  0  0  0  0  0
  -26.2627  -27.2915   19.1811 C   0  0  0  0  0  0  0  0  0  0  0  0
  -25.0499  -27.9797   19.2098 C   0  0  0  0  0  0  0  0  0  0  0  0
  -21.7089  -20.7472   18.7722 C   0  0  0  0  0  0  0  0  0  0  0  0
  -25.7583  -29.1450   21.2042 C   0  0  0  0  0  0  0  0  0  0  0  0
  -28.3008  -22.7041   20.3703 C   0  0  0  0  0  0  0  0  0  0  0  0
  -28.5837  -20.4680   21.5650 C   0  0  0  0  0  0  0  0  0  0  0  0
  -19.8306  -28.4931   21.5051 C   0  0  0  0  0  0  0  0  0  0  0  0
  -22.6720  -22.7569   19.7172 C   0  0  0  0  0  0  0  0  0  0  0  0
  -19.7477  -27.1758   21.0149 C   0  0  0  0  0  0  0  0  0  0  0  0
  -22.2520  -22.0289   18.5949 C   0  0  0  0  0  0  0  0  0  0  0  0
  -24.6523  -12.5299   22.4040 C   0  0  0  0  0  0  0  0  0  0  0  0
  -24.5301  -13.7355   21.7131 C   0  0  0  0  0  0  0  0  0  0  0  0
  -25.2738  -13.9532   20.5533 C   0  0  0  0  0  0  0  0  0  0  0  0
  -28.3857  -25.4881   20.2116 C   0  0  0  0  0  0  0  0  0  0  0  0
  -21.5969  -20.1924   20.0468 C   0  0  0  0  0  0  0  0  0  0  0  0
  -27.2234  -27.5298   20.1640 C   0  0  0  0  0  0  0  0  0  0  0  0
  -24.7977  -28.9065   20.2213 C   0  0  0  0  0  0  0  0  0  0  0  0
  -26.9712  -28.4566   21.1755 C   0  0  0  0  0  0  0  0  0  0  0  0
  -28.2577  -21.2663   20.4522 C   0  0  0  0  0  0  0  0  0  0  0  0
  -28.3799  -19.1796   21.1348 C   0  0  0  0  0  0  0  0  0  0  0  0
  -29.0307  -20.8564   22.8707 C   0  0  0  0  0  0  0  0  0  0  0  0
  -21.4546  -25.3317   18.3058 C   0  0  0  0  0  0  0  0  0  0  0  0
  -23.4269  -24.4571   15.8835 C   0  0  0  0  0  0  0  0  0  0  0  0
  -22.4450  -16.4152   20.6931 C   0  0  0  0  0  0  0  0  0  0  0  0
  -25.1730  -21.9757   14.3213 C   0  0  0  0  0  0  0  0  0  0  0  0
  -25.3323  -15.3605   18.4647 C   0  0  0  0  0  0  0  0  0  0  0  0
  -20.0281  -29.6712   20.5843 C   0  0  0  0  0  0  0  0  0  0  0  0
  -23.2805  -24.1229   19.5551 C   0  0  0  0  0  0  0  0  0  0  0  0
  -22.3600  -22.5884   17.2007 C   0  0  0  0  0  0  0  0  0  0  0  0
  -20.5553  -29.2845   19.2049 C   0  0  0  0  0  0  0  0  0  0  0  0
  -27.5264  -17.3532   16.4918 C   0  0  0  0  0  0  0  0  0  0  0  0
  -19.7759  -28.0969   18.6492 C   0  0  0  0  0  0  0  0  0  0  0  0
  -27.9391  -18.4832   17.4378 C   0  0  0  0  0  0  0  0  0  0  0  0
  -26.0688  -16.9450   16.6978 C   0  0  0  0  0  0  0  0  0  0  0  0
  -26.1191  -17.7437   19.0277 C   0  0  0  0  0  0  0  0  0  0  0  0
  -19.9360  -26.8635   19.5461 C   0  0  1  0  0  0  0  0  0  0  0  0
  -22.8639  -24.8127   18.2597 C   0  0  1  0  0  0  0  0  0  0  0  0
  -27.5979  -18.1450   18.9023 C   0  0  2  0  0  0  0  0  0  0  0  0
  -23.8678  -12.2710   23.6484 C   0  0  0  0  0  0  0  0  0  0  0  0
  -26.7506  -20.9145   12.6835 C   0  0  0  0  0  0  0  0  0  0  0  0
  -20.9968  -24.5441   14.0404 C   0  0  0  0  0  0  0  0  0  0  0  0
  -22.3108  -23.2322   12.3610 C   0  0  0  0  0  0  0  0  0  0  0  0
  -23.0880  -25.4986   13.0553 C   0  0  0  0  0  0  0  0  0  0  0  0
  -21.6757  -14.0393   20.8774 C   0  0  0  0  0  0  0  0  0  0  0  0
  -27.4975  -22.4122   16.1004 C   0  0  0  0  0  0  0  0  0  0  0  0
  -23.5968  -14.7959   22.2218 C   0  0  0  0  0  0  0  0  0  0  0  0
  -21.3195  -16.6085   19.6822 C   0  0  0  0  0  0  0  0  0  0  0  0
  -21.2489  -18.0262   19.1288 C   0  0  0  0  0  0  0  0  0  1  0  0
  -23.3014  -23.5661   14.6714 C   0  0  1  0  0  0  0  0  0  0  0  0
  -26.6050  -21.9126   13.8217 C   0  0  2  0  0  0  0  0  0  0  0  0
  -22.4203  -24.2002   13.5583 C   0  0  0  0  0  0  0  0  0  0  0  0
  -27.8759  -20.5453   19.3946 N   0  0  0  0  0  0  0  0  0  0  0  0
  -27.9609  -19.2805   19.8408 N   0  0  0  0  0  0  0  0  0  0  0  0
  -22.9561  -23.9304   17.0946 N   0  0  0  0  0  0  0  0  0  0  0  0
  -25.8205  -16.6352   18.1074 N   0  0  0  0  0  0  0  0  0  0  0  0
  -28.5201  -17.9816   21.7410 N   0  0  0  0  0  0  0  0  0  0  0  0
  -30.4085  -20.9805   23.0958 N   0  0  0  0  0  0  0  0  0  0  0  0
  -25.1658  -15.1704   19.8361 N   0  0  0  0  0  0  0  0  0  0  0  0
  -21.2221  -26.2389   19.3218 N   0  0  0  0  0  0  0  0  0  0  0  0
  -24.6633  -23.2550   14.2508 N   0  0  0  0  0  0  0  0  0  0  0  0
  -22.5670  -15.1338   21.2419 N   0  0  0  0  0  0  0  0  0  0  0  0
  -27.5209  -21.5048   14.9243 N   0  3  0  0  0  0  0  0  0  0  0  0
  -28.2327  -21.0706   23.8146 O   0  0  0  0  0  0  0  0  0  0  0  0
  -20.6389  -24.9393   17.4798 O   0  0  0  0  0  0  0  0  0  0  0  0
  -23.9308  -25.5765   15.7617 O   0  0  0  0  0  0  0  0  0  0  0  0
  -23.1898  -17.3532   20.9895 O   0  0  0  0  0  0  0  0  0  0  0  0
  -24.5658  -20.9882   14.7297 O   0  0  0  0  0  0  0  0  0  0  0  0
  -25.1062  -14.4917   17.6185 O   0  0  0  0  0  0  0  0  0  0  0  0
  -28.4273  -26.8463   20.1337 O   0  0  0  0  0  0  0  0  0  0  0  0
  -21.0697  -18.9476   20.2037 O   0  0  0  0  0  0  0  0  0  1  0  0
  -23.6336  -29.5685   20.2479 F   0  0  0  0  0  0  0  0  0  0  0  0
  -27.8907  -28.6908   22.1218 F   0  0  0  0  0  0  0  0  0  0  0  0
  1  2  1  0  0  0  0
  1  6  2  0  0  0  0
  2  7  2  0  0  0  0
  3  9  1  0  0  0  0
  3 10  2  0  0  0  0
  4 11  2  0  0  0  0
  4 18  1  0  0  0  0
  5 12  1  0  0  0  0
  5 18  2  0  0  0  0
  6 20  1  0  0  0  0
  7 22  1  0  0  0  0
  8 13  2  0  0  0  0
  8 21  1  0  0  0  0
  9 24  2  0  0  0  0
 10 26  1  0  0  0  0
 11 27  1  0  0  0  0
 12 27  2  0  0  0  0
 13 28  1  0  0  0  0
 14 15  2  0  0  0  0
 14 29  1  0  0  0  0
 15 30  1  0  0  0  0
 16 23  1  0  0  0  0
 16 28  2  0  0  0  0
 17 30  2  0  0  0  0
 17 31  1  0  0  0  0
 18 32  1  0  0  0  0
 19 32  1  0  0  0  0
 19 33  2  0  0  0  0
 19 34  1  0  0  0  0
 20 22  2  0  0  0  0
 20 40  1  0  0  0  0
 21 23  2  0  0  0  0
 21 41  1  0  0  0  0
 22 49  1  0  0  0  0
 23 42  1  0  0  0  0
 24 25  1  0  0  0  0
 24 52  1  0  0  0  0
 25 26  2  0  0  0  0
 25 59  1  0  0  0  0
 26 71  1  0  0  0  0
 27 82  1  0  0  0  0
 28 83  1  0  0  0  0
 29 31  2  0  0  0  0
 29 82  1  0  0  0  0
 30 84  1  0  0  0  0
 31 85  1  0  0  0  0
 32 65  2  0  0  0  0
 33 66  1  0  0  0  0
 33 69  1  0  0  0  0
 34 70  1  0  0  0  0
 34 76  2  0  0  0  0
 35 50  1  0  0  0  0
 35 72  1  0  0  0  0
 35 77  2  0  0  0  0
 36 62  1  0  0  0  0
 36 67  1  0  0  0  0
 36 78  2  0  0  0  0
 37 60  1  0  0  0  0
 37 74  1  0  0  0  0
 37 79  2  0  0  0  0
 38 63  1  0  0  0  0
 38 73  1  0  0  0  0
 38 80  2  0  0  0  0
 39 68  1  0  0  0  0
 39 71  1  0  0  0  0
 39 81  2  0  0  0  0
 40 43  1  0  0  0  0
 41 50  1  0  0  0  0
 42 67  1  0  0  0  0
 43 45  1  0  0  0  0
 44 46  1  0  0  0  0
 44 47  1  0  0  0  0
 45 49  1  0  0  0  0
 46 51  1  0  0  0  0
 47 68  1  0  0  0  0
 48 51  1  0  0  0  0
 48 68  1  0  0  0  0
 49 72  1  0  0  0  0
 50 67  1  0  0  0  0
 51 66  1  0  0  0  0
 53 63  1  0  0  0  0
 54 64  1  0  0  0  0
 55 64  1  0  0  0  0
 56 64  1  0  0  0  0
 57 74  1  0  0  0  0
 58 75  1  0  0  0  0
 59 74  1  0  0  0  0
 60 61  1  0  0  0  0
 61 83  1  0  0  0  0
 62 64  1  0  0  0  0
 62 73  1  0  0  0  0
 63 75  1  0  0  0  0
 65 66  1  0  0  0  0
M  CHG  1  75   1
M  ISO  4  39 100  61 101  71 100  83 101
M  END
> <Batch ID>
0051

> <Smiles>
CNC(C)C(=O)NC(C(=O)N1Cc2cc([101O:1][101CH2:1]CC(=O)N(C)Cc3c(C)cccc3[100NH:0][100C:0](=O)N3CCCC(n4nc(-c5ccc(Oc6ccc(F)cc6F)cc5)c(C(N)=O)c4N)C3)ccc2CC1C(=O)NC1CCCc2ccccc21)C(C)(C)C

> <Shape>
0.180

> <Color>
0.085

> <Negative vol penalty>
0.000

$$$$

  -OEChem-04042322373D

 85 93  0     1  0  0  0  0  0999 V2000
  -25.9037  -11.5684   17.0099 C   0  0  0  0  0  0  0  0  0  0  0  0
  -25.0584  -12.6617   16.8505 C   0  0  0  0  0  0  0  0  0  0  0  0
  -29.4774  -24.4499   18.1400 C   0  0  0  0  0  0  0  0  0  0  0  0
  -30.1175  -24.7927   20.4443 C   0  0  0  0  0  0  0  0  0  0  0  0
  -26.3088  -11.1822   18.2869 C   0  0  0  0  0  0  0  0  0  0  0  0
  -24.6167  -13.3689   17.9682 C   0  0  0  0  0  0  0  0  0  0  0  0
  -23.5596  -19.3901   18.3337 C   0  0  0  0  0  0  0  0  0  0  0  0
  -30.0094  -23.1613   18.1839 C   0  0  0  0  0  0  0  0  0  0  0  0
  -30.6495  -23.5041   20.4882 C   0  0  0  0  0  0  0  0  0  0  0  0
  -22.3895  -20.1436   18.2517 C   0  0  0  0  0  0  0  0  0  0  0  0
  -31.8539  -20.1751   21.3163 C   0  0  0  0  0  0  0  0  0  0  0  0
  -31.5607  -19.3893   22.4308 C   0  0  0  0  0  0  0  0  0  0  0  0
  -22.2348  -20.1546   20.6590 C   0  0  0  0  0  0  0  0  0  0  0  0
  -19.6315  -27.5452   21.2446 C   0  0  0  0  0  0  0  0  0  0  0  0
  -18.9286  -27.4984   23.9439 C   0  0  0  0  0  0  0  0  0  0  0  0
  -29.2034  -19.5559   21.9282 C   0  0  0  0  0  0  0  0  0  0  0  0
  -29.5314  -25.2657   19.2702 C   0  0  0  0  0  0  0  0  0  0  0  0
  -29.3708  -27.6484   18.3734 C   0  0  0  0  0  0  0  0  0  0  0  0
  -25.8797  -11.8909   19.4201 C   0  0  0  0  0  0  0  0  0  0  0  0
  -24.0710  -19.0032   19.5808 C   0  0  0  0  0  0  0  0  0  0  0  0
  -25.0154  -12.9910   19.2617 C   0  0  0  0  0  0  0  0  0  0  0  0
  -23.4130  -19.3983   20.7543 C   0  0  0  0  0  0  0  0  0  0  0  0
  -20.0496  -28.5712   22.0920 C   0  0  0  0  0  0  0  0  0  0  0  0
  -18.8619  -26.4958   21.7468 C   0  0  0  0  0  0  0  0  0  0  0  0
  -19.6982  -28.5478   23.4417 C   0  0  0  0  0  0  0  0  0  0  0  0
  -30.5955  -22.6883   19.3580 C   0  0  0  0  0  0  0  0  0  0  0  0
  -21.7253  -20.5236   19.4143 C   0  0  0  0  0  0  0  0  0  0  0  0
  -30.8218  -20.6515   20.5078 C   0  0  0  0  0  0  0  0  0  0  0  0
  -30.2355  -19.0797   22.7367 C   0  0  0  0  0  0  0  0  0  0  0  0
  -29.4966  -20.3418   20.8137 C   0  0  0  0  0  0  0  0  0  0  0  0
  -18.5105  -26.4725   23.0965 C   0  0  0  0  0  0  0  0  0  0  0  0
  -28.9825  -26.5971   19.2253 C   0  0  0  0  0  0  0  0  0  0  0  0
  -28.5519  -28.6941   18.7232 C   0  0  0  0  0  0  0  0  0  0  0  0
  -30.3813  -27.6772   17.3566 C   0  0  0  0  0  0  0  0  0  0  0  0
  -24.6205  -16.2198   21.0143 C   0  0  0  0  0  0  0  0  0  0  0  0
  -25.9661  -18.1005   23.2891 C   0  0  0  0  0  0  0  0  0  0  0  0
  -19.4943  -23.3324   19.9442 C   0  0  0  0  0  0  0  0  0  0  0  0
  -26.1563  -21.1686   24.7715 C   0  0  0  0  0  0  0  0  0  0  0  0
  -23.1694  -28.8352   21.1449 C   0  0  0  0  0  0  0  0  0  0  0  0
  -26.3062  -11.4071   20.7835 C   0  0  0  0  0  0  0  0  0  0  0  0
  -25.3488  -18.2131   19.6532 C   0  0  0  0  0  0  0  0  0  0  0  0
  -23.9318  -19.0258   22.1183 C   0  0  0  0  0  0  0  0  0  0  0  0
  -26.0942  -12.4378   21.8894 C   0  0  0  0  0  0  0  0  0  0  0  0
  -26.1253  -30.4662   22.4487 C   0  0  0  0  0  0  0  0  0  0  0  0
  -24.7055  -13.0595   21.7806 C   0  0  0  0  0  0  0  0  0  0  0  0
  -27.2342  -29.7477   21.6777 C   0  0  0  0  0  0  0  0  0  0  0  0
  -24.9978  -29.5068   22.8179 C   0  0  0  0  0  0  0  0  0  0  0  0
  -25.5099  -28.0613   20.8886 C   0  0  0  0  0  0  0  0  0  0  0  0
  -24.5348  -13.7985   20.4479 C   0  0  1  0  0  0  0  0  0  0  0  0
  -25.4988  -17.4377   20.9585 C   0  0  1  0  0  0  0  0  0  0  0  0
  -26.6691  -28.9822   20.4665 C   0  0  2  0  0  0  0  0  0  0  0  0
  -20.1322  -29.6369   24.3671 C   0  0  0  0  0  0  0  0  0  0  0  0
  -27.3187  -22.3896   26.6303 C   0  0  0  0  0  0  0  0  0  0  0  0
  -24.1635  -16.7144   25.3236 C   0  0  0  0  0  0  0  0  0  0  0  0
  -24.6589  -18.5739   26.9253 C   0  0  0  0  0  0  0  0  0  0  0  0
  -26.5058  -17.1114   26.1049 C   0  0  0  0  0  0  0  0  0  0  0  0
  -27.3923  -23.0914   22.8916 C   0  0  0  0  0  0  0  0  0  0  0  0
  -20.8710  -29.6861   21.5325 C   0  0  0  0  0  0  0  0  0  0  0  0
  -18.4319  -25.4112   20.8019 C   0  0  0  0  0  0  0  0  0  0  0  0
  -20.3076  -22.1473   20.4190 C   0  0  0  0  0  0  0  0  0  1  0  0
  -25.4680  -18.7972   24.5323 C   0  0  1  0  0  0  0  0  0  0  0  0
  -27.3459  -22.0311   25.1526 C   0  0  2  0  0  0  0  0  0  0  0  0
  -25.1879  -17.8048   25.6959 C   0  0  0  0  0  0  0  0  0  0  0  0
  -27.9939  -26.9434   20.0541 N   0  0  0  0  0  0  0  0  0  0  0  0
  -27.7542  -28.2240   19.7246 N   0  0  0  0  0  0  0  0  0  0  0  0
  -25.1813  -18.2474   22.1366 N   0  0  0  0  0  0  0  0  0  0  0  0
  -24.4919  -28.8243   21.6185 N   0  0  0  0  0  0  0  0  0  0  0  0
  -28.4436  -29.9607   18.2689 N   0  0  0  0  0  0  0  0  0  0  0  0
  -31.6805  -28.0602   17.7165 N   0  0  0  0  0  0  0  0  0  0  0  0
  -25.2036  -15.0812   20.4919 N   0  0  0  0  0  0  0  0  0  0  0  0
  -19.1990  -24.2006   20.9836 N   0  0  0  0  0  0  0  0  0  0  0  0
  -26.4547  -19.8245   24.8475 N   0  0  0  0  0  0  0  0  0  0  0  0
  -22.2659  -29.5756   21.8973 N   0  0  0  0  0  0  0  0  0  0  0  0
  -27.3440  -23.2946   24.3624 N   0  3  0  0  0  0  0  0  0  0  0  0
  -30.1355  -27.3880   16.1610 O   0  0  0  0  0  0  0  0  0  0  0  0
  -23.4974  -16.3065   21.4970 O   0  0  0  0  0  0  0  0  0  0  0  0
  -27.0167  -17.4557   23.3370 O   0  0  0  0  0  0  0  0  0  0  0  0
  -19.1522  -23.4774   18.7737 O   0  0  0  0  0  0  0  0  0  0  0  0
  -25.0698  -21.6399   24.4430 O   0  0  0  0  0  0  0  0  0  0  0  0
  -22.8204  -28.2336   20.1235 O   0  0  0  0  0  0  0  0  0  0  0  0
  -31.1146  -21.4309   19.4012 O   0  0  0  0  0  0  0  0  0  0  0  0
  -20.5826  -21.2586   19.3370 O   0  0  0  0  0  0  0  0  0  1  0  0
  -29.9542  -18.3237   23.8061 F   0  0  0  0  0  0  0  0  0  0  0  0
  -28.5010  -20.7956   20.0400 F   0  0  0  0  0  0  0  0  0  0  0  0
  -17.5592  -25.1907   23.7535 Cl  0  0  0  0  0  0  0  0  0  0  0  0
  1  2  1  0  0  0  0
  1  5  2  0  0  0  0
  2  6  2  0  0  0  0
  3  8  2  0  0  0  0
  3 17  1  0  0  0  0
  4  9  1  0  0  0  0
  4 17  2  0  0  0  0
  5 19  1  0  0  0  0
  6 21  1  0  0  0  0
  7 10  2  0  0  0  0
  7 20  1  0  0  0  0
  8 26  1  0  0  0  0
  9 26  2  0  0  0  0
 10 27  1  0  0  0  0
 11 12  2  0  0  0  0
 11 28  1  0  0  0  0
 12 29  1  0  0  0  0
 13 22  1  0  0  0  0
 13 27  2  0  0  0  0
 14 23  2  0  0  0  0
 14 24  1  0  0  0  0
 15 25  2  0  0  0  0
 15 31  1  0  0  0  0
 16 29  2  0  0  0  0
 16 30  1  0  0  0  0
 17 32  1  0  0  0  0
 18 32  1  0  0  0  0
 18 33  2  0  0  0  0
 18 34  1  0  0  0  0
 19 21  2  0  0  0  0
 19 40  1  0  0  0  0
 20 22  2  0  0  0  0
 20 41  1  0  0  0  0
 21 49  1  0  0  0  0
 22 42  1  0  0  0  0
 23 25  1  0  0  0  0
 23 58  1  0  0  0  0
 24 31  2  0  0  0  0
 24 59  1  0  0  0  0
 25 52  1  0  0  0  0
 26 81  1  0  0  0  0
 27 82  1  0  0  0  0
 28 30  2  0  0  0  0
 28 81  1  0  0  0  0
 29 83  1  0  0  0  0
 30 84  1  0  0  0  0
 31 85  1  0  0  0  0
 32 64  2  0  0  0  0
 33 65  1  0  0  0  0
 33 68  1  0  0  0  0
 34 69  1  0  0  0  0
 34 75  2  0  0  0  0
 35 50  1  0  0  0  0
 35 70  1  0  0  0  0
 35 76  2  0  0  0  0
 36 61  1  0  0  0  0
 36 66  1  0  0  0  0
 36 77  2  0  0  0  0
 37 60  1  0  0  0  0
 37 71  1  0  0  0  0
 37 78  2  0  0  0  0
 38 62  1  0  0  0  0
 38 72  1  0  0  0  0
 38 79  2  0  0  0  0
 39 67  1  0  0  0  0
 39 73  1  0  0  0  0
 39 80  2  0  0  0  0
 40 43  1  0  0  0  0
 41 50  1  0  0  0  0
 42 66  1  0  0  0  0
 43 45  1  0  0  0  0
 44 46  1  0  0  0  0
 44 47  1  0  0  0  0
 45 49  1  0  0  0  0
 46 51  1  0  0  0  0
 47 67  1  0  0  0  0
 48 51  1  0  0  0  0
 48 67  1  0  0  0  0
 49 70  1  0  0  0  0
 50 66  1  0  0  0  0
 51 65  1  0  0  0  0
 53 62  1  0  0  0  0
 54 63  1  0  0  0  0
 55 63  1  0  0  0  0
 56 63  1  0  0  0  0
 57 74  1  0  0  0  0
 58 73  1  0  0  0  0
 59 71  1  0  0  0  0
 60 82  1  0  0  0  0
 61 63  1  0  0  0  0
 61 72  1  0  0  0  0
 62 74  1  0  0  0  0
 64 65  1  0  0  0  0
M  CHG  1  74   1
M  ISO  4  39 100  60 101  73 100  82 101
M  END
> <Batch ID>
0051

> <Smiles>
CNC(C)C(=O)NC(C(=O)N1Cc2cc([101O:1][101CH2:1]C(=O)NCc3cc(C[100NH:0][100C:0](=O)N4CCCC(n5nc(-c6ccc(Oc7ccc(F)cc7F)cc6)c(C(N)=O)c5N)C4)c(C)cc3Cl)ccc2CC1C(=O)NC1CCCc2ccccc21)C(C)(C)C

> <Shape>
0.193

> <Color>
0.082

> <Negative vol penalty>
0.000

$$$$

  -OEChem-04042322373D

 85 93  0     1  0  0  0  0  0999 V2000
  -22.4317  -30.4925   25.1068 C   0  0  0  0  0  0  0  0  0  0  0  0
  -23.1863  -29.3404   24.9102 C   0  0  0  0  0  0  0  0  0  0  0  0
  -23.0954   -9.8731   19.9092 C   0  0  0  0  0  0  0  0  0  0  0  0
  -23.8854   -9.8269   22.1919 C   0  0  0  0  0  0  0  0  0  0  0  0
  -21.7302  -31.0552   24.0413 C   0  0  0  0  0  0  0  0  0  0  0  0
  -23.2391  -28.7498   23.6481 C   0  0  0  0  0  0  0  0  0  0  0  0
  -27.9394  -27.4055   22.3272 C   0  0  0  0  0  0  0  0  0  0  0  0
  -22.3755   -8.6999   20.1346 C   0  0  0  0  0  0  0  0  0  0  0  0
  -23.1654   -8.6536   22.4173 C   0  0  0  0  0  0  0  0  0  0  0  0
  -28.4484  -26.2351   22.8883 C   0  0  0  0  0  0  0  0  0  0  0  0
  -19.9602   -7.7802   23.0372 C   0  0  0  0  0  0  0  0  0  0  0  0
  -19.2197   -7.6924   24.2159 C   0  0  0  0  0  0  0  0  0  0  0  0
  -29.5955  -19.3350   22.5167 C   0  0  0  0  0  0  0  0  0  0  0  0
  -27.9331  -25.0435   20.8551 C   0  0  0  0  0  0  0  0  0  0  0  0
  -31.0430  -17.8076   20.6852 C   0  0  0  0  0  0  0  0  0  0  0  0
  -20.5049   -5.7570   24.8791 C   0  0  0  0  0  0  0  0  0  0  0  0
  -23.8504  -10.4366   20.9379 C   0  0  0  0  0  0  0  0  0  0  0  0
  -30.4774  -19.9568   21.6329 C   0  0  0  0  0  0  0  0  0  0  0  0
  -24.1458  -12.9700   20.8879 C   0  0  0  0  0  0  0  0  0  0  0  0
  -21.7821  -30.4766   22.7634 C   0  0  0  0  0  0  0  0  0  0  0  0
  -27.4126  -27.4013   21.0276 C   0  0  0  0  0  0  0  0  0  0  0  0
  -22.5366  -29.3045   22.5649 C   0  0  0  0  0  0  0  0  0  0  0  0
  -27.4205  -26.2158   20.2789 C   0  0  0  0  0  0  0  0  0  0  0  0
  -29.4374  -17.9495   22.4849 C   0  0  0  0  0  0  0  0  0  0  0  0
  -31.2011  -19.1932   20.7171 C   0  0  0  0  0  0  0  0  0  0  0  0
  -30.1611  -17.1858   21.5691 C   0  0  0  0  0  0  0  0  0  0  0  0
  -22.4104   -8.0901   21.3886 C   0  0  0  0  0  0  0  0  0  0  0  0
  -28.4426  -25.0532   22.1533 C   0  0  0  0  0  0  0  0  0  0  0  0
  -20.9730   -6.8564   22.7793 C   0  0  0  0  0  0  0  0  0  0  0  0
  -19.4920   -6.6808   25.1369 C   0  0  0  0  0  0  0  0  0  0  0  0
  -21.2454   -5.8449   23.7003 C   0  0  0  0  0  0  0  0  0  0  0  0
  -24.5947  -11.6482   20.7056 C   0  0  0  0  0  0  0  0  0  0  0  0
  -25.2195  -13.7494   20.5330 C   0  0  0  0  0  0  0  0  0  0  0  0
  -30.6275  -21.4338   21.6898 C   0  0  0  0  0  0  0  0  0  0  0  0
  -22.8720  -13.4502   21.3380 C   0  0  0  0  0  0  0  0  0  0  0  0
  -24.5578  -27.9953   19.7625 C   0  0  0  0  0  0  0  0  0  0  0  0
  -26.1574  -27.6426   16.9626 C   0  0  0  0  0  0  0  0  0  0  0  0
  -28.8310  -26.3265   15.2993 C   0  0  0  0  0  0  0  0  0  0  0  0
  -30.6682  -14.8883   20.6688 C   0  0  0  0  0  0  0  0  0  0  0  0
  -20.9690  -31.0942   21.6533 C   0  0  0  0  0  0  0  0  0  0  0  0
  -26.8919  -28.6782   20.4270 C   0  0  0  0  0  0  0  0  0  0  0  0
  -26.8849  -26.1628   18.8721 C   0  0  0  0  0  0  0  0  0  0  0  0
  -21.3786  -30.6193   20.2616 C   0  0  0  0  0  0  0  0  0  0  0  0
  -29.5654  -12.5249   18.2448 C   0  0  0  0  0  0  0  0  0  0  0  0
  -21.5364  -29.1023   20.2401 C   0  0  0  0  0  0  0  0  0  0  0  0
  -28.1370  -12.1948   18.6839 C   0  0  0  0  0  0  0  0  0  0  0  0
  -30.4922  -12.7350   19.4409 C   0  0  0  0  0  0  0  0  0  0  0  0
  -28.5912  -13.3842   20.8671 C   0  0  0  0  0  0  0  0  0  0  0  0
  -22.6386  -28.6486   21.2050 C   0  0  1  0  0  0  0  0  0  0  0  0
  -25.9096  -28.4436   19.2835 C   0  0  1  0  0  0  0  0  0  0  0  0
  -27.6060  -13.2278   19.6972 C   0  0  2  0  0  0  0  0  0  0  0  0
  -28.4853  -17.3100   23.4428 C   0  0  0  0  0  0  0  0  0  0  0  0
  -32.1516  -19.8341   19.7590 C   0  0  0  0  0  0  0  0  0  0  0  0
  -29.8479  -26.1775   13.0099 C   0  0  0  0  0  0  0  0  0  0  0  0
  -29.5314  -23.4908   24.9984 C   0  0  0  0  0  0  0  0  0  0  0  0
  -24.0553  -25.5795   16.1659 C   0  0  0  0  0  0  0  0  0  0  0  0
  -25.6058  -24.7992   14.3616 C   0  0  0  0  0  0  0  0  0  0  0  0
  -24.7362  -27.1371   14.3315 C   0  0  0  0  0  0  0  0  0  0  0  0
  -31.3043  -27.6911   16.1823 C   0  0  0  0  0  0  0  0  0  0  0  0
  -31.2437  -23.3679   23.1165 C   0  0  0  0  0  0  0  0  0  0  0  0
  -26.4715  -26.4821   16.0496 C   0  0  1  0  0  0  0  0  0  0  0  0
  -29.8136  -26.9459   14.3219 C   0  0  2  0  0  0  0  0  0  0  0  0
  -29.9874  -24.0476   23.6561 C   0  0  1  0  0  0  0  0  0  1  0  0
  -25.2256  -25.9997   15.2544 C   0  0  0  0  0  0  0  0  0  0  0  0
  -25.8554  -11.5876   20.2686 N   0  0  0  0  0  0  0  0  0  0  0  0
  -26.2078  -12.8810   20.1733 N   0  0  0  0  0  0  0  0  0  0  0  0
  -26.3809  -27.4360   18.3313 N   0  0  0  0  0  0  0  0  0  0  0  0
  -29.9267  -13.7295   20.3553 N   0  0  0  0  0  0  0  0  0  0  0  0
  -25.4053  -15.0860   20.4965 N   0  0  0  0  0  0  0  0  0  0  0  0
  -21.8809  -12.5134   21.6612 N   0  0  0  0  0  0  0  0  0  0  0  0
  -30.0154  -15.7771   21.5222 N   0  0  0  0  0  0  0  0  0  0  0  0
  -31.0719  -21.9561   22.8979 N   0  0  0  0  0  0  0  0  0  0  0  0
  -23.9444  -28.8823   20.6265 N   0  0  0  0  0  0  0  0  0  0  0  0
  -27.5857  -26.9120   15.2116 N   0  0  0  0  0  0  0  0  0  0  0  0
  -31.1870  -26.9496   14.9004 N   0  3  0  0  0  0  0  0  0  0  0  0
  -30.3402  -22.1046   20.7019 O   0  0  0  0  0  0  0  0  0  0  0  0
  -22.6147  -14.6742   21.4346 O   0  0  0  0  0  0  0  0  0  0  0  0
  -24.1041  -26.9247   19.3756 O   0  0  0  0  0  0  0  0  0  0  0  0
  -25.7363  -28.6962   16.4786 O   0  0  0  0  0  0  0  0  0  0  0  0
  -29.1365  -25.4121   16.0615 O   0  0  0  0  0  0  0  0  0  0  0  0
  -31.7878  -15.0910   20.1920 O   0  0  0  0  0  0  0  0  0  0  0  0
  -21.7079   -6.9454   21.6090 O   0  0  0  0  0  0  0  0  0  0  0  0
  -28.9382  -23.9092   22.6988 O   0  0  0  0  0  0  0  0  0  1  0  0
  -18.7819   -6.5976   26.2696 F   0  0  0  0  0  0  0  0  0  0  0  0
  -22.2180   -4.9552   23.4587 F   0  0  0  0  0  0  0  0  0  0  0  0
  1  2  1  0  0  0  0
  1  5  2  0  0  0  0
  2  6  2  0  0  0  0
  3  8  2  0  0  0  0
  3 17  1  0  0  0  0
  4  9  1  0  0  0  0
  4 17  2  0  0  0  0
  5 20  1  0  0  0  0
  6 22  1  0  0  0  0
  7 10  2  0  0  0  0
  7 21  1  0  0  0  0
  8 27  1  0  0  0  0
  9 27  2  0  0  0  0
 10 28  1  0  0  0  0
 11 12  2  0  0  0  0
 11 29  1  0  0  0  0
 12 30  1  0  0  0  0
 13 18  1  0  0  0  0
 13 24  2  0  0  0  0
 14 23  1  0  0  0  0
 14 28  2  0  0  0  0
 15 25  1  0  0  0  0
 15 26  2  0  0  0  0
 16 30  2  0  0  0  0
 16 31  1  0  0  0  0
 17 32  1  0  0  0  0
 18 25  2  0  0  0  0
 18 34  1  0  0  0  0
 19 32  1  0  0  0  0
 19 33  2  0  0  0  0
 19 35  1  0  0  0  0
 20 22  2  0  0  0  0
 20 40  1  0  0  0  0
 21 23  2  0  0  0  0
 21 41  1  0  0  0  0
 22 49  1  0  0  0  0
 23 42  1  0  0  0  0
 24 26  1  0  0  0  0
 24 52  1  0  0  0  0
 25 53  1  0  0  0  0
 26 71  1  0  0  0  0
 27 82  1  0  0  0  0
 28 83  1  0  0  0  0
 29 31  2  0  0  0  0
 29 82  1  0  0  0  0
 30 84  1  0  0  0  0
 31 85  1  0  0  0  0
 32 65  2  0  0  0  0
 33 66  1  0  0  0  0
 33 69  1  0  0  0  0
 34 72  1  0  0  0  0
 34 76  2  0  0  0  0
 35 70  1  0  0  0  0
 35 77  2  0  0  0  0
 36 50  1  0  0  0  0
 36 73  1  0  0  0  0
 36 78  2  0  0  0  0
 37 61  1  0  0  0  0
 37 67  1  0  0  0  0
 37 79  2  0  0  0  0
 38 62  1  0  0  0  0
 38 74  1  0  0  0  0
 38 80  2  0  0  0  0
 39 68  1  0  0  0  0
 39 71  1  0  0  0  0
 39 81  2  0  0  0  0
 40 43  1  0  0  0  0
 41 50  1  0  0  0  0
 42 67  1  0  0  0  0
 43 45  1  0  0  0  0
 44 46  1  0  0  0  0
 44 47  1  0  0  0  0
 45 49  1  0  0  0  0
 46 51  1  0  0  0  0
 47 68  1  0  0  0  0
 48 51  1  0  0  0  0
 48 68  1  0  0  0  0
 49 73  1  0  0  0  0
 50 67  1  0  0  0  0
 51 66  1  0  0  0  0
 54 62  1  0  0  0  0
 55 63  1  0  0  0  0
 56 64  1  0  0  0  0
 57 64  1  0  0  0  0
 58 64  1  0  0  0  0
 59 75  1  0  0  0  0
 60 63  1  0  0  0  0
 60 72  1  0  0  0  0
 61 64  1  0  0  0  0
 61 74  1  0  0  0  0
 62 75  1  0  0  0  0
 63 83  1  0  0  0  0
 65 66  1  0  0  0  0
M  CHG  1  75   1
M  ISO  4  39 100  63 101  71 100  83 101
M  END
> <Batch ID>
0051

> <Smiles>
CNC(C)C(=O)NC(C(=O)N1Cc2cc([101O:1][101CH:1](C)CNC(=O)c3cc(C)c([100NH:0][100C:0](=O)N4CCCC(n5nc(-c6ccc(Oc7ccc(F)cc7F)cc6)c(C(N)=O)c5N)C4)cc3C)ccc2CC1C(=O)NC1CCCc2ccccc21)C(C)(C)C

> <Shape>
0.277

> <Color>
0.195

> <Negative vol penalty>
0.000

$$$$

  -OEChem-04042322373D

 84 92  0     1  0  0  0  0  0999 V2000
  -17.9433  -25.6964   21.4807 C   0  0  0  0  0  0  0  0  0  0  0  0
  -19.2645  -25.7098   21.0452 C   0  0  0  0  0  0  0  0  0  0  0  0
  -27.0011  -21.3044   18.5640 C   0  0  0  0  0  0  0  0  0  0  0  0
  -23.6807  -13.2974   24.9670 C   0  0  0  0  0  0  0  0  0  0  0  0
  -22.6710  -15.1065   23.7243 C   0  0  0  0  0  0  0  0  0  0  0  0
  -17.3058  -26.8928   21.8066 C   0  0  0  0  0  0  0  0  0  0  0  0
  -19.9486  -26.9198   20.9343 C   0  0  0  0  0  0  0  0  0  0  0  0
  -24.6336  -26.6845   22.8423 C   0  0  0  0  0  0  0  0  0  0  0  0
  -28.1235  -22.1244   18.6805 C   0  0  0  0  0  0  0  0  0  0  0  0
  -27.0836  -19.9558   18.9107 C   0  0  0  0  0  0  0  0  0  0  0  0
  -22.8189  -13.5494   26.0344 C   0  0  0  0  0  0  0  0  0  0  0  0
  -21.8091  -15.3586   24.7916 C   0  0  0  0  0  0  0  0  0  0  0  0
  -25.6097  -26.0692   22.0598 C   0  0  0  0  0  0  0  0  0  0  0  0
  -18.9643  -14.0452   26.0576 C   0  0  0  0  0  0  0  0  0  0  0  0
  -17.6173  -14.2582   25.7645 C   0  0  0  0  0  0  0  0  0  0  0  0
  -26.4032  -28.2360   21.3564 C   0  0  0  0  0  0  0  0  0  0  0  0
  -29.4109  -20.2470   19.4901 C   0  0  0  0  0  0  0  0  0  0  0  0
  -17.7504  -16.4589   26.7527 C   0  0  0  0  0  0  0  0  0  0  0  0
  -23.6069  -14.0759   23.8120 C   0  0  0  0  0  0  0  0  0  0  0  0
  -24.2757  -12.9475   21.6241 C   0  0  0  0  0  0  0  0  0  0  0  0
  -17.9855  -28.1171   21.7089 C   0  0  0  0  0  0  0  0  0  0  0  0
  -24.5278  -28.0823   22.8794 C   0  0  0  0  0  0  0  0  0  0  0  0
  -19.3192  -28.1338   21.2579 C   0  0  0  0  0  0  0  0  0  0  0  0
  -25.4265  -28.8666   22.1422 C   0  0  0  0  0  0  0  0  0  0  0  0
  -29.3284  -21.5957   19.1435 C   0  0  0  0  0  0  0  0  0  0  0  0
  -28.2885  -19.4271   19.3737 C   0  0  0  0  0  0  0  0  0  0  0  0
  -21.8830  -14.5800   25.9467 C   0  0  0  0  0  0  0  0  0  0  0  0
  -26.4928  -26.8448   21.3144 C   0  0  0  0  0  0  0  0  0  0  0  0
  -19.7043  -15.0389   26.6983 C   0  0  0  0  0  0  0  0  0  0  0  0
  -17.0104  -15.4651   26.1120 C   0  0  0  0  0  0  0  0  0  0  0  0
  -19.0974  -16.2457   27.0459 C   0  0  0  0  0  0  0  0  0  0  0  0
  -24.4973  -13.8164   22.7093 C   0  0  0  0  0  0  0  0  0  0  0  0
  -25.4112  -13.0570   20.8592 C   0  0  0  0  0  0  0  0  0  0  0  0
  -29.3494  -24.7963   20.5466 C   0  0  0  0  0  0  0  0  0  0  0  0
  -28.3610  -25.4447   21.1716 C   0  0  0  0  0  0  0  0  0  1  0  0
  -23.1445  -12.1159   21.3333 C   0  0  0  0  0  0  0  0  0  0  0  0
  -30.2701  -23.9275   21.3342 C   0  0  0  0  0  0  0  0  0  0  0  0
  -22.2819  -30.1840   22.0777 C   0  0  0  0  0  0  0  0  0  0  0  0
  -24.3392  -32.3055   23.4152 C   0  0  0  0  0  0  0  0  0  0  0  0
  -27.5457  -33.0676   24.3008 C   0  0  0  0  0  0  0  0  0  0  0  0
  -29.4902  -17.3740   20.2024 C   0  0  0  0  0  0  0  0  0  0  0  0
  -17.2398  -29.3889   22.0271 C   0  0  0  0  0  0  0  0  0  0  0  0
  -23.4866  -28.7313   23.7494 C   0  0  0  0  0  0  0  0  0  0  0  0
  -25.3680  -30.3715   22.1635 C   0  0  0  0  0  0  0  0  0  0  0  0
  -18.1530  -30.5934   22.2403 C   0  0  0  0  0  0  0  0  0  0  0  0
  -30.0898  -14.0144   21.2176 C   0  0  0  0  0  0  0  0  0  0  0  0
  -19.2052  -30.6672   21.1383 C   0  0  0  0  0  0  0  0  0  0  0  0
  -28.7026  -13.5014   21.6108 C   0  0  0  0  0  0  0  0  0  0  0  0
  -30.2826  -15.4801   21.6025 C   0  0  0  0  0  0  0  0  0  0  0  0
  -27.8535  -15.8794   21.5074 C   0  0  0  0  0  0  0  0  0  0  0  0
  -20.1026  -29.4239   21.1482 C   0  0  1  0  0  0  0  0  0  0  0  0
  -23.1410  -30.1508   23.3100 C   0  0  1  0  0  0  0  0  0  0  0  0
  -27.5889  -14.4261   21.0815 C   0  0  2  0  0  0  0  0  0  0  0  0
  -28.9218  -34.8899   25.3415 C   0  0  0  0  0  0  0  0  0  0  0  0
  -24.1841  -33.9017   20.8194 C   0  0  0  0  0  0  0  0  0  0  0  0
  -26.2424  -35.1340   21.5358 C   0  0  0  0  0  0  0  0  0  0  0  0
  -24.1598  -35.2889   22.9001 C   0  0  0  0  0  0  0  0  0  0  0  0
  -31.6995  -21.9196   21.3734 C   0  0  0  0  0  0  0  0  0  0  0  0
  -28.3902  -31.3152   26.5313 C   0  0  0  0  0  0  0  0  0  0  0  0
  -30.5362  -22.4787   19.2687 C   0  0  0  0  0  0  0  0  0  0  0  0
  -25.4918  -33.1401   22.9113 C   0  0  1  0  0  0  0  0  0  0  0  0
  -28.1318  -33.6143   25.5899 C   0  0  2  0  0  0  0  0  0  0  0  0
  -25.0197  -34.3378   22.0395 C   0  0  0  0  0  0  0  0  0  0  0  0
  -25.6806  -14.4323   22.6435 N   0  0  0  0  0  0  0  0  0  0  0  0
  -26.2129  -13.9498   21.5077 N   0  0  0  0  0  0  0  0  0  0  0  0
  -24.3283  -30.9590   23.0246 N   0  0  0  0  0  0  0  0  0  0  0  0
  -29.1927  -16.2963   21.0632 N   0  0  0  0  0  0  0  0  0  0  0  0
  -25.7923  -12.4757   19.7019 N   0  0  0  0  0  0  0  0  0  0  0  0
  -22.0630  -12.1235   22.2247 N   0  0  0  0  0  0  0  0  0  0  0  0
  -28.3717  -18.0573   19.7263 N   0  0  0  0  0  0  0  0  0  0  0  0
  -21.0803  -29.5147   22.2114 N   0  0  0  0  0  0  0  0  0  0  0  0
  -26.2624  -33.5251   24.0887 N   0  0  0  0  0  0  0  0  0  0  0  0
  -30.8143  -22.8311   20.6595 N   0  0  0  0  0  0  0  0  0  0  0  0
  -29.0420  -32.6113   26.2115 N   0  3  0  0  0  0  0  0  0  0  0  0
  -23.1013  -11.3752   20.3219 O   0  0  0  0  0  0  0  0  0  0  0  0
  -30.4899  -24.1860   22.5187 O   0  0  0  0  0  0  0  0  0  0  0  0
  -22.6790  -30.7743   21.0800 O   0  0  0  0  0  0  0  0  0  0  0  0
  -23.4840  -32.8273   24.1349 O   0  0  0  0  0  0  0  0  0  0  0  0
  -28.1658  -32.3132   23.5545 O   0  0  0  0  0  0  0  0  0  0  0  0
  -30.6502  -17.6520   19.8876 O   0  0  0  0  0  0  0  0  0  0  0  0
  -21.0417  -14.8261   26.9879 O   0  0  0  0  0  0  0  0  0  0  0  0
  -27.4460  -26.2467   20.5492 O   0  0  0  0  0  0  0  0  0  1  0  0
  -15.7173  -15.6702   25.8291 F   0  0  0  0  0  0  0  0  0  0  0  0
  -19.8035  -17.2046   27.6605 F   0  0  0  0  0  0  0  0  0  0  0  0
  1  2  1  0  0  0  0
  1  6  2  0  0  0  0
  2  7  2  0  0  0  0
  3  9  2  0  0  0  0
  3 10  1  0  0  0  0
  4 11  2  0  0  0  0
  4 19  1  0  0  0  0
  5 12  1  0  0  0  0
  5 19  2  0  0  0  0
  6 21  1  0  0  0  0
  7 23  1  0  0  0  0
  8 13  2  0  0  0  0
  8 22  1  0  0  0  0
  9 25  1  0  0  0  0
 10 26  2  0  0  0  0
 11 27  1  0  0  0  0
 12 27  2  0  0  0  0
 13 28  1  0  0  0  0
 14 15  2  0  0  0  0
 14 29  1  0  0  0  0
 15 30  1  0  0  0  0
 16 24  1  0  0  0  0
 16 28  2  0  0  0  0
 17 25  2  0  0  0  0
 17 26  1  0  0  0  0
 18 30  2  0  0  0  0
 18 31  1  0  0  0  0
 19 32  1  0  0  0  0
 20 32  1  0  0  0  0
 20 33  2  0  0  0  0
 20 36  1  0  0  0  0
 21 23  2  0  0  0  0
 21 42  1  0  0  0  0
 22 24  2  0  0  0  0
 22 43  1  0  0  0  0
 23 51  1  0  0  0  0
 24 44  1  0  0  0  0
 25 60  1  0  0  0  0
 26 70  1  0  0  0  0
 27 81  1  0  0  0  0
 28 82  1  0  0  0  0
 29 31  2  0  0  0  0
 29 81  1  0  0  0  0
 30 83  1  0  0  0  0
 31 84  1  0  0  0  0
 32 64  2  0  0  0  0
 33 65  1  0  0  0  0
 33 68  1  0  0  0  0
 34 35  2  0  0  0  0
 34 37  1  0  0  0  0
 35 82  1  0  0  0  0
 36 69  1  0  0  0  0
 36 75  2  0  0  0  0
 37 73  1  0  0  0  0
 37 76  2  0  0  0  0
 38 52  1  0  0  0  0
 38 71  1  0  0  0  0
 38 77  2  0  0  0  0
 39 61  1  0  0  0  0
 39 66  1  0  0  0  0
 39 78  2  0  0  0  0
 40 62  1  0  0  0  0
 40 72  1  0  0  0  0
 40 79  2  0  0  0  0
 41 67  1  0  0  0  0
 41 70  1  0  0  0  0
 41 80  2  0  0  0  0
 42 45  1  0  0  0  0
 43 52  1  0  0  0  0
 44 66  1  0  0  0  0
 45 47  1  0  0  0  0
 46 48  1  0  0  0  0
 46 49  1  0  0  0  0
 47 51  1  0  0  0  0
 48 53  1  0  0  0  0
 49 67  1  0  0  0  0
 50 53  1  0  0  0  0
 50 67  1  0  0  0  0
 51 71  1  0  0  0  0
 52 66  1  0  0  0  0
 53 65  1  0  0  0  0
 54 62  1  0  0  0  0
 55 63  1  0  0  0  0
 56 63  1  0  0  0  0
 57 63  1  0  0  0  0
 58 73  1  0  0  0  0
 59 74  1  0  0  0  0
 60 73  1  0  0  0  0
 61 63  1  0  0  0  0
 61 72  1  0  0  0  0
 62 74  1  0  0  0  0
 64 65  1  0  0  0  0
M  CHG  1  74   1
M  ISO  4  35 101  41 100  70 100  82 101
M  END
> <Batch ID>
0051

> <Smiles>
CNC(C)C(=O)NC(C(=O)N1Cc2cc([101O:1][101CH:1]=CC(=O)N(C)Cc3cccc([100NH:0][100C:0](=O)N4CCCC(n5nc(-c6ccc(Oc7ccc(F)cc7F)cc6)c(C(N)=O)c5N)C4)c3)ccc2CC1C(=O)NC1CCCc2ccccc21)C(C)(C)C

> <Shape>
0.263

> <Color>
0.081

> <Negative vol penalty>
0.000

$$$$

  -OEChem-04042322373D

 87 96  0     1  0  0  0  0  0999 V2000
  -30.4988  -25.1560   17.5773 C   0  0  0  0  0  0  0  0  0  0  0  0
  -29.1117  -25.1227   17.6787 C   0  0  0  0  0  0  0  0  0  0  0  0
  -23.7538  -25.8744   23.4897 C   0  0  0  0  0  0  0  0  0  0  0  0
  -27.1104  -15.2483   18.9251 C   0  0  0  0  0  0  0  0  0  0  0  0
  -25.5698  -15.8383   20.6902 C   0  0  0  0  0  0  0  0  0  0  0  0
  -31.2594  -25.6987   18.6121 C   0  0  0  0  0  0  0  0  0  0  0  0
  -28.4845  -25.6312   18.8156 C   0  0  0  0  0  0  0  0  0  0  0  0
  -23.0853  -28.5109   19.0643 C   0  0  0  0  0  0  0  0  0  0  0  0
  -22.4303  -25.4344   23.5002 C   0  0  0  0  0  0  0  0  0  0  0  0
  -24.7955  -24.9500   23.4100 C   0  0  0  0  0  0  0  0  0  0  0  0
  -26.9435  -13.8977   19.2308 C   0  0  0  0  0  0  0  0  0  0  0  0
  -25.4029  -14.4876   20.9959 C   0  0  0  0  0  0  0  0  0  0  0  0
  -21.8034  -28.0738   19.3952 C   0  0  0  0  0  0  0  0  0  0  0  0
  -27.1986  -10.3124   19.7826 C   0  0  0  0  0  0  0  0  0  0  0  0
  -28.3413   -9.5154   19.8507 C   0  0  0  0  0  0  0  0  0  0  0  0
  -22.1232  -28.8636   21.6520 C   0  0  0  0  0  0  0  0  0  0  0  0
  -29.2102  -10.9124   21.6201 C   0  0  0  0  0  0  0  0  0  0  0  0
  -26.4236  -16.2187   19.6548 C   0  0  0  0  0  0  0  0  0  0  0  0
  -26.3163  -18.2501   18.1154 C   0  0  0  0  0  0  0  0  0  0  0  0
  -30.6407  -26.2229   19.7580 C   0  0  0  0  0  0  0  0  0  0  0  0
  -23.9012  -29.1189   20.0292 C   0  0  0  0  0  0  0  0  0  0  0  0
  -29.2376  -26.1802   19.8673 C   0  0  0  0  0  0  0  0  0  0  0  0
  -23.4141  -29.3099   21.3301 C   0  0  0  0  0  0  0  0  0  0  0  0
  -22.1483  -24.0700   23.4313 C   0  0  0  0  0  0  0  0  0  0  0  0
  -23.1899  -23.1457   23.3517 C   0  0  0  0  0  0  0  0  0  0  0  0
  -24.5135  -23.5857   23.3411 C   0  0  0  0  0  0  0  0  0  0  0  0
  -26.0897  -13.5173   20.2662 C   0  0  0  0  0  0  0  0  0  0  0  0
  -21.3233  -28.2475   20.6899 C   0  0  0  0  0  0  0  0  0  0  0  0
  -27.0618  -11.4095   20.6331 C   0  0  0  0  0  0  0  0  0  0  0  0
  -29.3470   -9.8153   20.7695 C   0  0  0  0  0  0  0  0  0  0  0  0
  -28.0675  -11.7095   21.5518 C   0  0  0  0  0  0  0  0  0  0  0  0
  -26.5960  -17.6141   19.3398 C   0  0  0  0  0  0  0  0  0  0  0  0
  -26.6477  -19.5658   18.3284 C   0  0  0  0  0  0  0  0  0  0  0  0
  -19.3429  -25.4224   22.4562 C   0  0  0  0  0  0  0  0  0  0  0  0
  -25.8026  -17.7006   16.8948 C   0  0  0  0  0  0  0  0  0  0  0  0
  -26.7079  -28.4276   21.3514 C   0  0  0  0  0  0  0  0  0  0  0  0
  -26.3377  -31.3417   22.7274 C   0  0  0  0  0  0  0  0  0  0  0  0
  -24.2206  -33.8178   23.7438 C   0  0  0  0  0  0  0  0  0  0  0  0
  -26.9506  -22.9559   23.2396 C   0  0  0  0  0  0  0  0  0  0  0  0
  -31.5072  -26.7563   20.8712 C   0  0  0  0  0  0  0  0  0  0  0  0
  -25.2715  -29.6090   19.6493 C   0  0  0  0  0  0  0  0  0  0  0  0
  -24.2427  -29.9752   22.3974 C   0  0  0  0  0  0  0  0  0  0  0  0
  -30.7457  -27.6148   21.8778 C   0  0  0  0  0  0  0  0  0  0  0  0
  -18.9086  -23.6662   20.0922 C   0  0  0  0  0  0  0  0  0  0  0  0
  -29.5828  -22.3145   20.9293 C   0  0  0  0  0  0  0  0  0  0  0  0
  -29.4428  -26.9330   22.2832 C   0  0  0  0  0  0  0  0  0  0  0  0
  -17.9274  -24.7449   20.5261 C   0  0  0  0  0  0  0  0  0  0  0  0
  -29.0874  -21.0979   20.1440 C   0  0  0  0  0  0  0  0  0  0  0  0
  -20.0838  -23.4858   21.0492 C   0  0  0  0  0  0  0  0  0  0  0  0
  -29.1783  -22.2428   22.4007 C   0  0  0  0  0  0  0  0  0  0  0  0
  -27.2507  -20.8088   21.8557 C   0  0  0  0  0  0  0  0  0  0  0  0
  -28.5192  -26.7445   21.0737 C   0  0  1  0  0  0  0  0  0  0  0  0
  -18.6188  -25.9170   21.2143 C   0  0  2  0  0  0  0  0  0  0  0  0
  -26.2081  -29.7511   20.8452 C   0  0  1  0  0  0  0  0  0  0  0  0
  -27.5780  -20.8676   20.3547 C   0  0  2  0  0  0  0  0  0  0  0  0
  -22.8824  -21.6828   23.2778 C   0  0  0  0  0  0  0  0  0  0  0  0
  -24.2087  -36.0606   24.8696 C   0  0  0  0  0  0  0  0  0  0  0  0
  -26.7950  -29.9881   25.4234 C   0  0  0  0  0  0  0  0  0  0  0  0
  -25.8472  -32.0250   26.5283 C   0  0  0  0  0  0  0  0  0  0  0  0
  -27.9272  -32.2027   25.1627 C   0  0  0  0  0  0  0  0  0  0  0  0
  -23.0372  -35.1322   21.3708 C   0  0  0  0  0  0  0  0  0  0  0  0
  -20.7149  -23.6236   23.4444 C   0  0  0  0  0  0  0  0  0  0  0  0
  -19.5654  -26.6927   20.3046 C   0  0  0  0  0  0  0  0  0  1  0  0
  -25.7089  -31.8499   24.0022 C   0  0  1  0  0  0  0  0  0  0  0  0
  -24.2586  -35.3218   23.5413 C   0  0  2  0  0  0  0  0  0  0  0  0
  -26.5544  -31.5021   25.2598 C   0  0  0  0  0  0  0  0  0  0  0  0
  -27.0689  -18.4564   20.2622 N   0  0  0  0  0  0  0  0  0  0  0  0
  -27.0890  -19.6352   19.6170 N   0  0  0  0  0  0  0  0  0  0  0  0
  -19.9613  -24.1787   22.3296 N   0  0  0  0  0  0  0  0  0  0  0  0
  -25.5783  -30.4315   21.9786 N   0  0  0  0  0  0  0  0  0  0  0  0
  -27.7348  -22.0276   22.5227 N   0  0  0  0  0  0  0  0  0  0  0  0
  -26.6020  -20.6586   17.5371 N   0  0  0  0  0  0  0  0  0  0  0  0
  -24.4140  -17.6725   16.7070 N   0  0  0  0  0  0  0  0  0  0  0  0
  -25.5871  -22.6645   23.2603 N   0  0  0  0  0  0  0  0  0  0  0  0
  -27.8663  -27.9915   20.7372 N   0  0  0  0  0  0  0  0  0  0  0  0
  -25.4881  -33.2788   23.8071 N   0  0  0  0  0  0  0  0  0  0  0  0
  -23.0997  -35.7626   22.7145 N   0  3  0  0  0  0  0  0  0  0  0  0
  -19.3683  -26.1184   23.4730 O   0  0  0  0  0  0  0  0  0  0  0  0
  -26.5522  -17.2329   16.0043 O   0  0  0  0  0  0  0  0  0  0  0  0
  -26.0892  -27.8459   22.2349 O   0  0  0  0  0  0  0  0  0  0  0  0
  -27.4584  -31.7432   22.4040 O   0  0  0  0  0  0  0  0  0  0  0  0
  -23.1714  -33.1851   23.8403 O   0  0  0  0  0  0  0  0  0  0  0  0
  -27.4481  -23.9518   23.7715 O   0  0  0  0  0  0  0  0  0  0  0  0
  -25.9264  -12.1995   20.5647 O   0  0  0  0  0  0  0  0  0  0  0  0
  -20.0727  -27.8211   21.0158 O   0  0  0  0  0  0  0  0  0  1  0  0
  -30.4436   -9.0489   20.8359 F   0  0  0  0  0  0  0  0  0  0  0  0
  -27.9412  -12.7614   22.3723 F   0  0  0  0  0  0  0  0  0  0  0  0
  1  2  1  0  0  0  0
  1  6  2  0  0  0  0
  2  7  2  0  0  0  0
  3  9  2  0  0  0  0
  3 10  1  0  0  0  0
  4 11  2  0  0  0  0
  4 18  1  0  0  0  0
  5 12  1  0  0  0  0
  5 18  2  0  0  0  0
  6 20  1  0  0  0  0
  7 22  1  0  0  0  0
  8 13  2  0  0  0  0
  8 21  1  0  0  0  0
  9 24  1  0  0  0  0
 10 26  2  0  0  0  0
 11 27  1  0  0  0  0
 12 27  2  0  0  0  0
 13 28  1  0  0  0  0
 14 15  2  0  0  0  0
 14 29  1  0  0  0  0
 15 30  1  0  0  0  0
 16 23  1  0  0  0  0
 16 28  2  0  0  0  0
 17 30  2  0  0  0  0
 17 31  1  0  0  0  0
 18 32  1  0  0  0  0
 19 32  1  0  0  0  0
 19 33  2  0  0  0  0
 19 35  1  0  0  0  0
 20 22  2  0  0  0  0
 20 40  1  0  0  0  0
 21 23  2  0  0  0  0
 21 41  1  0  0  0  0
 22 52  1  0  0  0  0
 23 42  1  0  0  0  0
 24 25  2  0  0  0  0
 24 62  1  0  0  0  0
 25 26  1  0  0  0  0
 25 56  1  0  0  0  0
 26 74  1  0  0  0  0
 27 84  1  0  0  0  0
 28 85  1  0  0  0  0
 29 31  2  0  0  0  0
 29 84  1  0  0  0  0
 30 86  1  0  0  0  0
 31 87  1  0  0  0  0
 32 67  2  0  0  0  0
 33 68  1  0  0  0  0
 33 72  1  0  0  0  0
 34 53  1  0  0  0  0
 34 69  1  0  0  0  0
 34 78  2  0  0  0  0
 35 73  1  0  0  0  0
 35 79  2  0  0  0  0
 36 54  1  0  0  0  0
 36 75  1  0  0  0  0
 36 80  2  0  0  0  0
 37 64  1  0  0  0  0
 37 70  1  0  0  0  0
 37 81  2  0  0  0  0
 38 65  1  0  0  0  0
 38 76  1  0  0  0  0
 38 82  2  0  0  0  0
 39 71  1  0  0  0  0
 39 74  1  0  0  0  0
 39 83  2  0  0  0  0
 40 43  1  0  0  0  0
 41 54  1  0  0  0  0
 42 70  1  0  0  0  0
 43 46  1  0  0  0  0
 44 47  1  0  0  0  0
 44 49  1  0  0  0  0
 45 48  1  0  0  0  0
 45 50  1  0  0  0  0
 46 52  1  0  0  0  0
 47 53  1  0  0  0  0
 48 55  1  0  0  0  0
 49 69  1  0  0  0  0
 50 71  1  0  0  0  0
 51 55  1  0  0  0  0
 51 71  1  0  0  0  0
 52 75  1  0  0  0  0
 53 63  1  0  0  0  0
 54 70  1  0  0  0  0
 55 68  1  0  0  0  0
 57 65  1  0  0  0  0
 58 66  1  0  0  0  0
 59 66  1  0  0  0  0
 60 66  1  0  0  0  0
 61 77  1  0  0  0  0
 62 69  1  0  0  0  0
 63 85  1  0  0  0  0
 64 66  1  0  0  0  0
 64 76  1  0  0  0  0
 65 77  1  0  0  0  0
 67 68  1  0  0  0  0
M  CHG  1  77   1
M  ISO  4  39 100  63 101  74 100  85 101
M  END
> <Batch ID>
0051

> <Smiles>
CNC(C)C(=O)NC(C(=O)N1Cc2cc([101O:1][101CH2:1]C3CCCN(Cc4cccc([100NH:0][100C:0](=O)N5CCCC(n6nc(-c7ccc(Oc8ccc(F)cc8F)cc7)c(C(N)=O)c6N)C5)c4C)C3=O)ccc2CC1C(=O)NC1CCCc2ccccc21)C(C)(C)C

> <Shape>
0.284

> <Color>
0.065

> <Negative vol penalty>
0.000

$$$$

  -OEChem-04042322373D

 84 92  0     1  0  0  0  0  0999 V2000
  -32.2321  -25.9653   17.7485 C   0  0  0  0  0  0  0  0  0  0  0  0
  -31.0192  -25.7063   18.3788 C   0  0  0  0  0  0  0  0  0  0  0  0
  -24.8789   -8.7295   21.4305 C   0  0  0  0  0  0  0  0  0  0  0  0
  -23.4020   -9.7464   19.8113 C   0  0  0  0  0  0  0  0  0  0  0  0
  -33.0721  -26.9640   18.2393 C   0  0  0  0  0  0  0  0  0  0  0  0
  -30.6462  -26.4451   19.5010 C   0  0  0  0  0  0  0  0  0  0  0  0
  -25.8142  -27.9496   19.3183 C   0  0  0  0  0  0  0  0  0  0  0  0
  -23.9125   -7.7617   21.7043 C   0  0  0  0  0  0  0  0  0  0  0  0
  -22.4355   -8.7785   20.0851 C   0  0  0  0  0  0  0  0  0  0  0  0
  -24.8400  -27.0015   19.6276 C   0  0  0  0  0  0  0  0  0  0  0  0
  -21.0570   -7.5313   23.4980 C   0  0  0  0  0  0  0  0  0  0  0  0
  -20.8078   -7.2257   24.8359 C   0  0  0  0  0  0  0  0  0  0  0  0
  -24.6569  -27.9233   21.8493 C   0  0  0  0  0  0  0  0  0  0  0  0
  -22.0068  -18.7305   18.5377 C   0  0  0  0  0  0  0  0  0  0  0  0
  -23.5994  -19.1654   20.7865 C   0  0  0  0  0  0  0  0  0  0  0  0
  -21.4445   -4.9307   24.4302 C   0  0  0  0  0  0  0  0  0  0  0  0
  -24.6236   -9.7219   20.4840 C   0  0  0  0  0  0  0  0  0  0  0  0
  -26.6395  -10.6570   19.2312 C   0  0  0  0  0  0  0  0  0  0  0  0
  -32.7048  -27.7219   19.3623 C   0  0  0  0  0  0  0  0  0  0  0  0
  -26.2256  -28.8864   20.2773 C   0  0  0  0  0  0  0  0  0  0  0  0
  -31.4827  -27.4539   20.0081 C   0  0  0  0  0  0  0  0  0  0  0  0
  -25.6346  -28.8839   21.5488 C   0  0  0  0  0  0  0  0  0  0  0  0
  -21.7841  -19.8461   19.3448 C   0  0  0  0  0  0  0  0  0  0  0  0
  -23.0258  -17.8323   18.8550 C   0  0  0  0  0  0  0  0  0  0  0  0
  -22.5804  -20.0636   20.4692 C   0  0  0  0  0  0  0  0  0  0  0  0
  -23.8221  -18.0498   19.9794 C   0  0  0  0  0  0  0  0  0  0  0  0
  -22.6908   -7.7862   21.0316 C   0  0  0  0  0  0  0  0  0  0  0  0
  -24.2632  -26.9864   20.8942 C   0  0  0  0  0  0  0  0  0  0  0  0
  -21.4999   -6.5366   22.6261 C   0  0  0  0  0  0  0  0  0  0  0  0
  -21.0015   -5.9254   25.3020 C   0  0  0  0  0  0  0  0  0  0  0  0
  -21.6937   -5.2363   23.0923 C   0  0  0  0  0  0  0  0  0  0  0  0
  -25.6213  -10.7222   20.2012 C   0  0  0  0  0  0  0  0  0  0  0  0
  -27.3143  -11.8462   19.3612 C   0  0  0  0  0  0  0  0  0  0  0  0
  -26.9476   -9.6146   18.2962 C   0  0  0  0  0  0  0  0  0  0  0  0
  -28.9740  -29.5506   21.7295 C   0  0  0  0  0  0  0  0  0  0  0  0
  -27.2848  -32.0429   22.9366 C   0  0  0  0  0  0  0  0  0  0  0  0
  -22.8055  -23.7035   21.3898 C   0  0  0  0  0  0  0  0  0  0  0  0
  -24.2422  -33.3585   23.7481 C   0  0  0  0  0  0  0  0  0  0  0  0
  -25.7337  -17.2347   21.4034 C   0  0  0  0  0  0  0  0  0  0  0  0
  -33.6673  -28.7590   19.8846 C   0  0  0  0  0  0  0  0  0  0  0  0
  -27.2585  -29.9196   19.9193 C   0  0  0  0  0  0  0  0  0  0  0  0
  -26.0267  -29.8809   22.6075 C   0  0  0  0  0  0  0  0  0  0  0  0
  -33.0281  -29.7497   20.8542 C   0  0  0  0  0  0  0  0  0  0  0  0
  -28.3994  -15.2012   22.6017 C   0  0  0  0  0  0  0  0  0  0  0  0
  -32.1787  -29.0144   21.8860 C   0  0  0  0  0  0  0  0  0  0  0  0
  -28.0855  -13.8172   22.0288 C   0  0  0  0  0  0  0  0  0  0  0  0
  -27.1302  -15.9486   23.0068 C   0  0  0  0  0  0  0  0  0  0  0  0
  -25.7925  -14.6633   21.3856 C   0  0  0  0  0  0  0  0  0  0  0  0
  -31.0318  -28.2507   21.2131 C   0  0  1  0  0  0  0  0  0  0  0  0
  -27.9707  -30.4995   21.1375 C   0  0  1  0  0  0  0  0  0  0  0  0
  -27.0357  -13.8982   20.9032 C   0  0  2  0  0  0  0  0  0  0  0  0
  -20.6871  -20.7937   18.9855 C   0  0  0  0  0  0  0  0  0  0  0  0
  -23.2420  -16.6459   17.9726 C   0  0  0  0  0  0  0  0  0  0  0  0
  -23.1832  -35.3995   24.7532 C   0  0  0  0  0  0  0  0  0  0  0  0
  -28.1449  -31.1184   25.7143 C   0  0  0  0  0  0  0  0  0  0  0  0
  -26.3389  -32.5604   26.6773 C   0  0  0  0  0  0  0  0  0  0  0  0
  -28.1986  -33.5957   25.3763 C   0  0  0  0  0  0  0  0  0  0  0  0
  -22.7312  -33.9370   21.2699 C   0  0  0  0  0  0  0  0  0  0  0  0
  -22.3591  -21.2571   21.3528 C   0  0  0  0  0  0  0  0  0  0  0  0
  -23.3931  -24.8030   20.5312 C   0  0  0  0  0  0  0  0  0  1  0  0
  -26.4285  -32.2612   24.1606 C   0  0  1  0  0  0  0  0  0  0  0  0
  -23.6250  -34.7169   23.4680 C   0  0  2  0  0  0  0  0  0  0  0  0
  -27.2715  -32.3638   25.4630 C   0  0  0  0  0  0  0  0  0  0  0  0
  -25.6437  -11.8626   20.8963 N   0  0  0  0  0  0  0  0  0  0  0  0
  -26.6841  -12.5248   20.3624 N   0  0  0  0  0  0  0  0  0  0  0  0
  -27.0454  -30.8672   22.2112 N   0  0  0  0  0  0  0  0  0  0  0  0
  -26.1840  -15.9891   21.8896 N   0  0  0  0  0  0  0  0  0  0  0  0
  -28.3794  -12.3670   18.7157 N   0  0  0  0  0  0  0  0  0  0  0  0
  -26.1531   -8.4601   18.2969 N   0  0  0  0  0  0  0  0  0  0  0  0
  -24.8621  -17.1491   20.3182 N   0  0  0  0  0  0  0  0  0  0  0  0
  -29.9648  -29.1584   20.8497 N   0  0  0  0  0  0  0  0  0  0  0  0
  -22.8561  -22.4736   20.7527 N   0  0  0  0  0  0  0  0  0  0  0  0
  -25.6121  -33.4380   23.8830 N   0  0  0  0  0  0  0  0  0  0  0  0
  -22.4369  -34.5729   22.5799 N   0  3  0  0  0  0  0  0  0  0  0  0
  -27.9094   -9.6975   17.4952 O   0  0  0  0  0  0  0  0  0  0  0  0
  -28.8587  -29.2012   22.8984 O   0  0  0  0  0  0  0  0  0  0  0  0
  -28.1299  -32.8880   22.6313 O   0  0  0  0  0  0  0  0  0  0  0  0
  -22.3464  -23.9090   22.5101 O   0  0  0  0  0  0  0  0  0  0  0  0
  -23.5753  -32.3304   23.8417 O   0  0  0  0  0  0  0  0  0  0  0  0
  -26.1159  -18.2998   21.8947 O   0  0  0  0  0  0  0  0  0  0  0  0
  -21.7476   -6.8418   21.2983 O   0  0  0  0  0  0  0  0  0  0  0  0
  -23.3126  -26.0616   21.1989 O   0  0  0  0  0  0  0  0  0  1  0  0
  -20.7637   -5.6324   26.5872 F   0  0  0  0  0  0  0  0  0  0  0  0
  -22.1202   -4.2768   22.2597 F   0  0  0  0  0  0  0  0  0  0  0  0
  1  2  1  0  0  0  0
  1  5  2  0  0  0  0
  2  6  2  0  0  0  0
  3  8  2  0  0  0  0
  3 17  1  0  0  0  0
  4  9  1  0  0  0  0
  4 17  2  0  0  0  0
  5 19  1  0  0  0  0
  6 21  1  0  0  0  0
  7 10  2  0  0  0  0
  7 20  1  0  0  0  0
  8 27  1  0  0  0  0
  9 27  2  0  0  0  0
 10 28  1  0  0  0  0
 11 12  2  0  0  0  0
 11 29  1  0  0  0  0
 12 30  1  0  0  0  0
 13 22  1  0  0  0  0
 13 28  2  0  0  0  0
 14 23  1  0  0  0  0
 14 24  2  0  0  0  0
 15 25  1  0  0  0  0
 15 26  2  0  0  0  0
 16 30  2  0  0  0  0
 16 31  1  0  0  0  0
 17 32  1  0  0  0  0
 18 32  1  0  0  0  0
 18 33  2  0  0  0  0
 18 34  1  0  0  0  0
 19 21  2  0  0  0  0
 19 40  1  0  0  0  0
 20 22  2  0  0  0  0
 20 41  1  0  0  0  0
 21 49  1  0  0  0  0
 22 42  1  0  0  0  0
 23 25  2  0  0  0  0
 23 52  1  0  0  0  0
 24 26  1  0  0  0  0
 24 53  1  0  0  0  0
 25 59  1  0  0  0  0
 26 70  1  0  0  0  0
 27 81  1  0  0  0  0
 28 82  1  0  0  0  0
 29 31  2  0  0  0  0
 29 81  1  0  0  0  0
 30 83  1  0  0  0  0
 31 84  1  0  0  0  0
 32 64  2  0  0  0  0
 33 65  1  0  0  0  0
 33 68  1  0  0  0  0
 34 69  1  0  0  0  0
 34 75  2  0  0  0  0
 35 50  1  0  0  0  0
 35 71  1  0  0  0  0
 35 76  2  0  0  0  0
 36 61  1  0  0  0  0
 36 66  1  0  0  0  0
 36 77  2  0  0  0  0
 37 60  1  0  0  0  0
 37 72  1  0  0  0  0
 37 78  2  0  0  0  0
 38 62  1  0  0  0  0
 38 73  1  0  0  0  0
 38 79  2  0  0  0  0
 39 67  1  0  0  0  0
 39 70  1  0  0  0  0
 39 80  2  0  0  0  0
 40 43  1  0  0  0  0
 41 50  1  0  0  0  0
 42 66  1  0  0  0  0
 43 45  1  0  0  0  0
 44 46  1  0  0  0  0
 44 47  1  0  0  0  0
 45 49  1  0  0  0  0
 46 51  1  0  0  0  0
 47 67  1  0  0  0  0
 48 51  1  0  0  0  0
 48 67  1  0  0  0  0
 49 71  1  0  0  0  0
 50 66  1  0  0  0  0
 51 65  1  0  0  0  0
 54 62  1  0  0  0  0
 55 63  1  0  0  0  0
 56 63  1  0  0  0  0
 57 63  1  0  0  0  0
 58 74  1  0  0  0  0
 59 72  1  0  0  0  0
 60 82  1  0  0  0  0
 61 63  1  0  0  0  0
 61 73  1  0  0  0  0
 62 74  1  0  0  0  0
 64 65  1  0  0  0  0
M  CHG  1  74   1
M  ISO  4  39 100  60 101  70 100  82 101
M  END
> <Batch ID>
0051

> <Smiles>
CNC(C)C(=O)NC(C(=O)N1Cc2cc([101O:1][101CH2:1]C(=O)NCc3cc([100NH:0][100C:0](=O)N4CCCC(n5nc(-c6ccc(Oc7ccc(F)cc7F)cc6)c(C(N)=O)c5N)C4)c(C)cc3C)ccc2CC1C(=O)NC1CCCc2ccccc21)C(C)(C)C

> <Shape>
0.244

> <Color>
0.096

> <Negative vol penalty>
0.000

$$$$

  -OEChem-04042322373D

 88 97  0     1  0  0  0  0  0999 V2000
  -29.2593  -32.5820   26.0096 C   0  0  0  0  0  0  0  0  0  0  0  0
  -29.0442  -31.3534   25.3934 C   0  0  0  0  0  0  0  0  0  0  0  0
  -31.7184  -19.5801   20.5985 C   0  0  0  0  0  0  0  0  0  0  0  0
  -24.5213  -10.6792   23.8709 C   0  0  0  0  0  0  0  0  0  0  0  0
  -24.6558   -9.2909   21.8982 C   0  0  0  0  0  0  0  0  0  0  0  0
  -28.1753  -33.3949   26.3384 C   0  0  0  0  0  0  0  0  0  0  0  0
  -27.7449  -30.9365   25.1064 C   0  0  0  0  0  0  0  0  0  0  0  0
  -27.3130  -28.9875   20.4524 C   0  0  0  0  0  0  0  0  0  0  0  0
  -30.8629  -20.5033   21.1997 C   0  0  0  0  0  0  0  0  0  0  0  0
  -31.2279  -18.3419   20.1837 C   0  0  0  0  0  0  0  0  0  0  0  0
  -24.1512   -9.5677   24.6279 C   0  0  0  0  0  0  0  0  0  0  0  0
  -24.2857   -8.1793   22.6553 C   0  0  0  0  0  0  0  0  0  0  0  0
  -27.7656  -27.6823   20.2642 C   0  0  0  0  0  0  0  0  0  0  0  0
  -21.4423   -6.8689   23.9313 C   0  0  0  0  0  0  0  0  0  0  0  0
  -20.4770   -6.0143   23.3987 C   0  0  0  0  0  0  0  0  0  0  0  0
  -25.4952  -26.8804   20.4098 C   0  0  0  0  0  0  0  0  0  0  0  0
  -22.0583   -4.1887   23.4622 C   0  0  0  0  0  0  0  0  0  0  0  0
  -24.7736  -10.5408   22.5060 C   0  0  0  0  0  0  0  0  0  0  0  0
  -24.4139  -12.8694   21.5282 C   0  0  0  0  0  0  0  0  0  0  0  0
  -26.8626  -32.9920   26.0466 C   0  0  0  0  0  0  0  0  0  0  0  0
  -25.9469  -29.2482   20.6320 C   0  0  0  0  0  0  0  0  0  0  0  0
  -26.6422  -31.7442   25.4328 C   0  0  0  0  0  0  0  0  0  0  0  0
  -25.0275  -28.1900   20.5976 C   0  0  0  0  0  0  0  0  0  0  0  0
  -29.5170  -20.1884   21.3861 C   0  0  0  0  0  0  0  0  0  0  0  0
  -29.8819  -18.0270   20.3702 C   0  0  0  0  0  0  0  0  0  0  0  0
  -24.0334   -8.3178   24.0202 C   0  0  0  0  0  0  0  0  0  0  0  0
  -26.8570  -26.6282   20.2458 C   0  0  0  0  0  0  0  0  0  0  0  0
  -22.7156   -6.3834   24.2292 C   0  0  0  0  0  0  0  0  0  0  0  0
  -20.7850   -4.6742   23.1642 C   0  0  0  0  0  0  0  0  0  0  0  0
  -23.0235   -5.0433   23.9947 C   0  0  0  0  0  0  0  0  0  0  0  0
  -29.0264  -18.9502   20.9714 C   0  0  0  0  0  0  0  0  0  0  0  0
  -25.1554  -11.6887   21.7233 C   0  0  0  0  0  0  0  0  0  0  0  0
  -25.2059  -13.6417   20.7141 C   0  0  0  0  0  0  0  0  0  0  0  0
  -26.8770  -22.8559   21.7482 C   0  0  0  0  0  0  0  0  0  0  0  0
  -23.1246  -13.2354   22.0375 C   0  0  0  0  0  0  0  0  0  0  0  0
  -25.5933  -22.5190   21.9446 C   0  0  0  0  0  0  0  0  0  0  0  0
  -24.1889  -30.4911   22.9704 C   0  0  0  0  0  0  0  0  0  0  0  0
  -21.8065  -30.2440   20.7828 C   0  0  0  0  0  0  0  0  0  0  0  0
  -20.7234  -27.8297   18.3302 C   0  0  0  0  0  0  0  0  0  0  0  0
  -30.1678  -15.7524   19.3258 C   0  0  0  0  0  0  0  0  0  0  0  0
  -25.7199  -33.8837   26.4637 C   0  0  0  0  0  0  0  0  0  0  0  0
  -25.4720  -30.6645   20.8072 C   0  0  0  0  0  0  0  0  0  0  0  0
  -23.5484  -28.4189   20.7653 C   0  0  0  0  0  0  0  0  0  0  0  0
  -27.4517  -24.1825   22.1733 C   0  0  0  0  0  0  0  0  0  0  0  0
  -24.3969  -33.5353   25.7866 C   0  0  0  0  0  0  0  0  0  0  0  0
  -29.4096  -12.4802   18.1446 C   0  0  0  0  0  0  0  0  0  0  0  0
  -24.1520  -32.0305   25.8358 C   0  0  0  0  0  0  0  0  0  0  0  0
  -28.1742  -12.0797   18.9543 C   0  0  0  0  0  0  0  0  0  0  0  0
  -29.1533  -23.8493   20.3313 C   0  0  0  0  0  0  0  0  0  0  0  0
  -30.3916  -13.3022   18.9775 C   0  0  0  0  0  0  0  0  0  0  0  0
  -28.5758  -14.0753   20.4521 C   0  0  0  0  0  0  0  0  0  0  0  0
  -28.4306  -22.5715   19.9075 C   0  0  0  0  0  0  0  0  0  0  0  0
  -25.2490  -31.2681   25.0830 C   0  0  1  0  0  0  0  0  0  0  0  0
  -24.1129  -30.7584   21.4937 C   0  0  1  0  0  0  0  0  0  0  0  0
  -27.5274  -13.3010   19.6367 C   0  0  2  0  0  0  0  0  0  0  0  0
  -28.2172  -24.8392   21.0243 C   0  0  1  0  0  0  0  0  0  1  0  0
  -25.0471  -21.1911   21.5114 C   0  0  0  0  0  0  0  0  0  0  0  0
  -24.6227  -23.4491   22.6094 C   0  0  0  0  0  0  0  0  0  0  0  0
  -19.4513  -28.1373   16.1890 C   0  0  0  0  0  0  0  0  0  0  0  0
  -19.3517  -29.6466   22.4937 C   0  0  0  0  0  0  0  0  0  0  0  0
  -18.4117  -28.3508   20.5687 C   0  0  0  0  0  0  0  0  0  0  0  0
  -18.8588  -30.7929   20.3263 C   0  0  0  0  0  0  0  0  0  0  0  0
  -22.8205  -26.4618   16.7523 C   0  0  0  0  0  0  0  0  0  0  0  0
  -28.6351  -21.2126   22.0375 C   0  0  0  0  0  0  0  0  0  0  0  0
  -20.8033  -29.1792   20.4103 C   0  0  1  0  0  0  0  0  0  0  0  0
  -20.8231  -27.9599   16.8211 C   0  0  2  0  0  0  0  0  0  0  0  0
  -19.3818  -29.4857   20.9606 C   0  0  0  0  0  0  0  0  0  0  0  0
  -26.3282  -11.7049   21.0844 N   0  0  0  0  0  0  0  0  0  0  0  0
  -26.3297  -12.9052   20.4798 N   0  0  0  0  0  0  0  0  0  0  0  0
  -23.1339  -29.8208   20.9399 N   0  0  0  0  0  0  0  0  0  0  0  0
  -29.7093  -14.4444   19.5897 N   0  0  0  0  0  0  0  0  0  0  0  0
  -25.0437  -14.8720   20.1828 N   0  0  0  0  0  0  0  0  0  0  0  0
  -21.9902  -12.9069   21.2827 N   0  0  0  0  0  0  0  0  0  0  0  0
  -29.4209  -16.7593   19.9363 N   0  0  0  0  0  0  0  0  0  0  0  0
  -25.0303  -31.3474   23.6546 N   0  0  0  0  0  0  0  0  0  0  0  0
  -20.8667  -29.0486   18.9586 N   0  0  0  0  0  0  0  0  0  0  0  0
  -27.7225  -21.9081   21.0656 N   0  3  1  0  0  0  0  0  0  0  0  0
  -21.4560  -26.7437   16.2369 N   0  3  0  0  0  0  0  0  0  0  0  0
  -22.9836  -13.8504   23.1217 O   0  0  0  0  0  0  0  0  0  0  0  0
  -23.5315  -29.5766   23.4534 O   0  0  0  0  0  0  0  0  0  0  0  0
  -21.4276  -31.4097   20.9220 O   0  0  0  0  0  0  0  0  0  0  0  0
  -20.5334  -26.7547   18.8949 O   0  0  0  0  0  0  0  0  0  0  0  0
  -31.1341  -15.9650   18.5889 O   0  0  0  0  0  0  0  0  0  0  0  0
  -23.6725   -7.2329   24.7586 O   0  0  0  0  0  0  0  0  0  0  0  0
  -27.2961  -25.3532   20.0629 O   0  0  0  0  0  0  0  0  0  1  0  0
  -19.8575   -3.8533   22.6543 F   0  0  0  0  0  0  0  0  0  0  0  0
  -24.2447   -4.5709   24.2801 F   0  0  0  0  0  0  0  0  0  0  0  0
  -27.3525  -18.5642   21.2058 Cl  0  0  0  0  0  0  0  0  0  0  0  0
  1  2  1  0  0  0  0
  1  6  2  0  0  0  0
  2  7  2  0  0  0  0
  3  9  2  0  0  0  0
  3 10  1  0  0  0  0
  4 11  2  0  0  0  0
  4 18  1  0  0  0  0
  5 12  1  0  0  0  0
  5 18  2  0  0  0  0
  6 20  1  0  0  0  0
  7 22  1  0  0  0  0
  8 13  2  0  0  0  0
  8 21  1  0  0  0  0
  9 24  1  0  0  0  0
 10 25  2  0  0  0  0
 11 26  1  0  0  0  0
 12 26  2  0  0  0  0
 13 27  1  0  0  0  0
 14 15  2  0  0  0  0
 14 28  1  0  0  0  0
 15 29  1  0  0  0  0
 16 23  1  0  0  0  0
 16 27  2  0  0  0  0
 17 29  2  0  0  0  0
 17 30  1  0  0  0  0
 18 32  1  0  0  0  0
 19 32  1  0  0  0  0
 19 33  2  0  0  0  0
 19 35  1  0  0  0  0
 20 22  2  0  0  0  0
 20 41  1  0  0  0  0
 21 23  2  0  0  0  0
 21 42  1  0  0  0  0
 22 53  1  0  0  0  0
 23 43  1  0  0  0  0
 24 31  2  0  0  0  0
 24 64  1  0  0  0  0
 25 31  1  0  0  0  0
 25 74  1  0  0  0  0
 26 84  1  0  0  0  0
 27 85  1  0  0  0  0
 28 30  2  0  0  0  0
 28 84  1  0  0  0  0
 29 86  1  0  0  0  0
 30 87  1  0  0  0  0
 31 88  1  0  0  0  0
 32 68  2  0  0  0  0
 33 69  1  0  0  0  0
 33 72  1  0  0  0  0
 34 36  2  0  0  0  0
 34 44  1  0  0  0  0
 34 77  1  0  0  0  0
 35 73  1  0  0  0  0
 35 79  2  0  0  0  0
 36 57  1  0  0  0  0
 36 58  1  0  0  0  0
 37 54  1  0  0  0  0
 37 75  1  0  0  0  0
 37 80  2  0  0  0  0
 38 65  1  0  0  0  0
 38 70  1  0  0  0  0
 38 81  2  0  0  0  0
 39 66  1  0  0  0  0
 39 76  1  0  0  0  0
 39 82  2  0  0  0  0
 40 71  1  0  0  0  0
 40 74  1  0  0  0  0
 40 83  2  0  0  0  0
 41 45  1  0  0  0  0
 42 54  1  0  0  0  0
 43 70  1  0  0  0  0
 44 56  1  0  0  0  0
 45 47  1  0  0  0  0
 46 48  1  0  0  0  0
 46 50  1  0  0  0  0
 47 53  1  0  0  0  0
 48 55  1  0  0  0  0
 49 52  1  0  0  0  0
 49 56  1  0  0  0  0
 50 71  1  0  0  0  0
 51 55  1  0  0  0  0
 51 71  1  0  0  0  0
 52 77  1  0  0  0  0
 53 75  1  0  0  0  0
 54 70  1  0  0  0  0
 55 69  1  0  0  0  0
 56 85  1  0  0  0  0
 59 66  1  0  0  0  0
 60 67  1  0  0  0  0
 61 67  1  0  0  0  0
 62 67  1  0  0  0  0
 63 78  1  0  0  0  0
 64 77  1  0  0  0  0
 65 67  1  0  0  0  0
 65 76  1  0  0  0  0
 66 78  1  0  0  0  0
 68 69  1  0  0  0  0
M  CHG  2  77   1  78   1
M  ISO  4  40 100  56 101  74 100  85 101
M  END
> <Batch ID>
0051

> <Smiles>
CNC(C)C(=O)NC(C(=O)N1Cc2cc([101O:1][101CH:1]3CCN(Cc4cccc([100NH:0][100C:0](=O)N5CCCC(n6nc(-c7ccc(Oc8ccc(F)cc8F)cc7)c(C(N)=O)c6N)C5)c4Cl)C(=C(C)C)C3)ccc2CC1C(=O)NC1CCCc2ccccc21)C(C)(C)C

> <Shape>
0.327

> <Color>
0.140

> <Negative vol penalty>
0.000

$$$$

  -OEChem-04042322373D

 85 93  0     1  0  0  0  0  0999 V2000
  -17.9419  -25.6971   21.4890 C   0  0  0  0  0  0  0  0  0  0  0  0
  -19.2629  -25.7100   21.0527 C   0  0  0  0  0  0  0  0  0  0  0  0
  -23.6858  -13.2875   24.9705 C   0  0  0  0  0  0  0  0  0  0  0  0
  -22.6739  -15.0964   23.7290 C   0  0  0  0  0  0  0  0  0  0  0  0
  -17.3049  -26.8937   21.8147 C   0  0  0  0  0  0  0  0  0  0  0  0
  -19.9472  -26.9198   20.9407 C   0  0  0  0  0  0  0  0  0  0  0  0
  -24.6333  -26.6847   22.8460 C   0  0  0  0  0  0  0  0  0  0  0  0
  -22.8241  -13.5382   26.0383 C   0  0  0  0  0  0  0  0  0  0  0  0
  -21.8122  -15.3471   24.7969 C   0  0  0  0  0  0  0  0  0  0  0  0
  -25.6087  -26.0688   22.0631 C   0  0  0  0  0  0  0  0  0  0  0  0
  -22.5902  -15.7503   28.5831 C   0  0  0  0  0  0  0  0  0  0  0  0
  -23.1378  -15.7711   29.8658 C   0  0  0  0  0  0  0  0  0  0  0  0
  -26.4022  -28.2350   21.3582 C   0  0  0  0  0  0  0  0  0  0  0  0
  -29.4078  -20.2447   19.4942 C   0  0  0  0  0  0  0  0  0  0  0  0
  -28.1197  -22.1211   18.6838 C   0  0  0  0  0  0  0  0  0  0  0  0
  -27.0805  -19.9523   18.9153 C   0  0  0  0  0  0  0  0  0  0  0  0
  -21.6818  -13.9563   30.5167 C   0  0  0  0  0  0  0  0  0  0  0  0
  -23.6107  -14.0666   23.8158 C   0  0  0  0  0  0  0  0  0  0  0  0
  -24.2797  -12.9399   21.6271 C   0  0  0  0  0  0  0  0  0  0  0  0
  -17.9848  -28.1179   21.7159 C   0  0  0  0  0  0  0  0  0  0  0  0
  -24.5278  -28.0825   22.8823 C   0  0  0  0  0  0  0  0  0  0  0  0
  -19.3182  -28.1341   21.2641 C   0  0  0  0  0  0  0  0  0  0  0  0
  -25.4262  -28.8663   22.1443 C   0  0  0  0  0  0  0  0  0  0  0  0
  -29.3248  -21.5930   19.1469 C   0  0  0  0  0  0  0  0  0  0  0  0
  -28.2857  -19.4243   19.3783 C   0  0  0  0  0  0  0  0  0  0  0  0
  -21.8873  -14.5680   25.9515 C   0  0  0  0  0  0  0  0  0  0  0  0
  -26.4915  -26.8439   21.3168 C   0  0  0  0  0  0  0  0  0  0  0  0
  -21.5883  -14.8327   28.2672 C   0  0  0  0  0  0  0  0  0  0  0  0
  -22.6837  -14.8740   30.8326 C   0  0  0  0  0  0  0  0  0  0  0  0
  -21.1341  -13.9356   29.2340 C   0  0  0  0  0  0  0  0  0  0  0  0
  -26.9975  -21.3007   18.5680 C   0  0  0  0  0  0  0  0  0  0  0  0
  -24.5010  -13.8084   22.7127 C   0  0  0  0  0  0  0  0  0  0  0  0
  -25.4149  -13.0508   20.8618 C   0  0  0  0  0  0  0  0  0  0  0  0
  -29.3473  -24.7944   20.5483 C   0  0  0  0  0  0  0  0  0  0  0  0
  -28.3594  -25.4434   21.1736 C   0  0  0  0  0  0  0  0  0  1  0  0
  -23.1492  -12.1074   21.3364 C   0  0  0  0  0  0  0  0  0  0  0  0
  -30.2683  -23.9259   21.3358 C   0  0  0  0  0  0  0  0  0  0  0  0
  -22.2817  -30.1842   22.0810 C   0  0  0  0  0  0  0  0  0  0  0  0
  -24.3403  -32.3060   23.4161 C   0  0  0  0  0  0  0  0  0  0  0  0
  -27.5475  -33.0679   24.2993 C   0  0  0  0  0  0  0  0  0  0  0  0
  -29.4896  -17.3718   20.2056 C   0  0  0  0  0  0  0  0  0  0  0  0
  -17.2395  -29.3900   22.0339 C   0  0  0  0  0  0  0  0  0  0  0  0
  -23.4872  -28.7322   23.7527 C   0  0  0  0  0  0  0  0  0  0  0  0
  -25.3679  -30.3712   22.1648 C   0  0  0  0  0  0  0  0  0  0  0  0
  -18.1530  -30.5944   22.2459 C   0  0  0  0  0  0  0  0  0  0  0  0
  -30.0927  -14.0123   21.2188 C   0  0  0  0  0  0  0  0  0  0  0  0
  -19.2045  -30.6675   21.1433 C   0  0  0  0  0  0  0  0  0  0  0  0
  -28.7062  -13.4978   21.6123 C   0  0  0  0  0  0  0  0  0  0  0  0
  -30.2843  -15.4780   21.6044 C   0  0  0  0  0  0  0  0  0  0  0  0
  -27.8548  -15.8751   21.5105 C   0  0  0  0  0  0  0  0  0  0  0  0
  -20.1018  -29.4240   21.1533 C   0  0  1  0  0  0  0  0  0  0  0  0
  -23.1416  -30.1515   23.3127 C   0  0  1  0  0  0  0  0  0  0  0  0
  -27.5914  -14.4217   21.0839 C   0  0  2  0  0  0  0  0  0  0  0  0
  -28.9246  -34.8905   25.3382 C   0  0  0  0  0  0  0  0  0  0  0  0
  -24.1839  -33.9009   20.8196 C   0  0  0  0  0  0  0  0  0  0  0  0
  -26.2429  -35.1332   21.5341 C   0  0  0  0  0  0  0  0  0  0  0  0
  -24.1611  -35.2892   22.8996 C   0  0  0  0  0  0  0  0  0  0  0  0
  -31.6973  -21.9177   21.3751 C   0  0  0  0  0  0  0  0  0  0  0  0
  -28.3930  -31.3166   26.5302 C   0  0  0  0  0  0  0  0  0  0  0  0
  -30.5329  -22.4759   19.2709 C   0  0  0  0  0  0  0  0  0  0  0  0
  -25.4928  -33.1401   22.9110 C   0  0  1  0  0  0  0  0  0  0  0  0
  -28.1345  -33.6153   25.5878 C   0  0  2  0  0  0  0  0  0  0  0  0
  -25.0203  -34.3375   22.0390 C   0  0  0  0  0  0  0  0  0  0  0  0
  -25.6837  -14.4255   22.6467 N   0  0  0  0  0  0  0  0  0  0  0  0
  -26.2159  -13.9440   21.5104 N   0  0  0  0  0  0  0  0  0  0  0  0
  -24.3289  -30.9593   23.0262 N   0  0  0  0  0  0  0  0  0  0  0  0
  -29.1935  -16.2934   21.0659 N   0  0  0  0  0  0  0  0  0  0  0  0
  -25.7960  -12.4704   19.7041 N   0  0  0  0  0  0  0  0  0  0  0  0
  -22.0680  -12.1135   22.2282 N   0  0  0  0  0  0  0  0  0  0  0  0
  -28.3703  -18.0543   19.7303 N   0  0  0  0  0  0  0  0  0  0  0  0
  -21.0802  -29.5152   22.2158 N   0  0  0  0  0  0  0  0  0  0  0  0
  -26.2641  -33.5256   24.0878 N   0  0  0  0  0  0  0  0  0  0  0  0
  -30.8119  -22.8290   20.6613 N   0  0  0  0  0  0  0  0  0  0  0  0
  -29.0449  -32.6124   26.2093 N   0  3  0  0  0  0  0  0  0  0  0  0
  -23.1063  -11.3671   20.3246 O   0  0  0  0  0  0  0  0  0  0  0  0
  -30.4889  -24.1849   22.5200 O   0  0  0  0  0  0  0  0  0  0  0  0
  -22.6784  -30.7740   21.0827 O   0  0  0  0  0  0  0  0  0  0  0  0
  -23.4856  -32.8284   24.1360 O   0  0  0  0  0  0  0  0  0  0  0  0
  -28.1670  -32.3131   23.5530 O   0  0  0  0  0  0  0  0  0  0  0  0
  -30.6492  -17.6511   19.8904 O   0  0  0  0  0  0  0  0  0  0  0  0
  -21.0461  -14.8128   26.9931 O   0  0  0  0  0  0  0  0  0  0  0  0
  -27.4442  -26.2452   20.5513 O   0  0  0  0  0  0  0  0  0  1  0  0
  -23.2108  -14.8930   32.0638 F   0  0  0  0  0  0  0  0  0  0  0  0
  -20.1727  -13.0509   28.9362 F   0  0  0  0  0  0  0  0  0  0  0  0
  -25.5109  -21.9515   17.9948 Cl  0  0  0  0  0  0  0  0  0  0  0  0
  1  2  1  0  0  0  0
  1  5  2  0  0  0  0
  2  6  2  0  0  0  0
  3  8  2  0  0  0  0
  3 18  1  0  0  0  0
  4  9  1  0  0  0  0
  4 18  2  0  0  0  0
  5 20  1  0  0  0  0
  6 22  1  0  0  0  0
  7 10  2  0  0  0  0
  7 21  1  0  0  0  0
  8 26  1  0  0  0  0
  9 26  2  0  0  0  0
 10 27  1  0  0  0  0
 11 12  2  0  0  0  0
 11 28  1  0  0  0  0
 12 29  1  0  0  0  0
 13 23  1  0  0  0  0
 13 27  2  0  0  0  0
 14 24  2  0  0  0  0
 14 25  1  0  0  0  0
 15 24  1  0  0  0  0
 15 31  2  0  0  0  0
 16 25  2  0  0  0  0
 16 31  1  0  0  0  0
 17 29  2  0  0  0  0
 17 30  1  0  0  0  0
 18 32  1  0  0  0  0
 19 32  1  0  0  0  0
 19 33  2  0  0  0  0
 19 36  1  0  0  0  0
 20 22  2  0  0  0  0
 20 42  1  0  0  0  0
 21 23  2  0  0  0  0
 21 43  1  0  0  0  0
 22 51  1  0  0  0  0
 23 44  1  0  0  0  0
 24 60  1  0  0  0  0
 25 70  1  0  0  0  0
 26 81  1  0  0  0  0
 27 82  1  0  0  0  0
 28 30  2  0  0  0  0
 28 81  1  0  0  0  0
 29 83  1  0  0  0  0
 30 84  1  0  0  0  0
 31 85  1  0  0  0  0
 32 64  2  0  0  0  0
 33 65  1  0  0  0  0
 33 68  1  0  0  0  0
 34 35  2  0  0  0  0
 34 37  1  0  0  0  0
 35 82  1  0  0  0  0
 36 69  1  0  0  0  0
 36 75  2  0  0  0  0
 37 73  1  0  0  0  0
 37 76  2  0  0  0  0
 38 52  1  0  0  0  0
 38 71  1  0  0  0  0
 38 77  2  0  0  0  0
 39 61  1  0  0  0  0
 39 66  1  0  0  0  0
 39 78  2  0  0  0  0
 40 62  1  0  0  0  0
 40 72  1  0  0  0  0
 40 79  2  0  0  0  0
 41 67  1  0  0  0  0
 41 70  1  0  0  0  0
 41 80  2  0  0  0  0
 42 45  1  0  0  0  0
 43 52  1  0  0  0  0
 44 66  1  0  0  0  0
 45 47  1  0  0  0  0
 46 48  1  0  0  0  0
 46 49  1  0  0  0  0
 47 51  1  0  0  0  0
 48 53  1  0  0  0  0
 49 67  1  0  0  0  0
 50 53  1  0  0  0  0
 50 67  1  0  0  0  0
 51 71  1  0  0  0  0
 52 66  1  0  0  0  0
 53 65  1  0  0  0  0
 54 62  1  0  0  0  0
 55 63  1  0  0  0  0
 56 63  1  0  0  0  0
 57 63  1  0  0  0  0
 58 73  1  0  0  0  0
 59 74  1  0  0  0  0
 60 73  1  0  0  0  0
 61 63  1  0  0  0  0
 61 72  1  0  0  0  0
 62 74  1  0  0  0  0
 64 65  1  0  0  0  0
M  CHG  1  74   1
M  ISO  4  35 101  41 100  70 100  82 101
M  END
> <Batch ID>
0051

> <Smiles>
CNC(C)C(=O)NC(C(=O)N1Cc2cc([101O:1][101CH:1]=CC(=O)N(C)Cc3cc(Cl)cc([100NH:0][100C:0](=O)N4CCCC(n5nc(-c6ccc(Oc7ccc(F)cc7F)cc6)c(C(N)=O)c5N)C4)c3)ccc2CC1C(=O)NC1CCCc2ccccc21)C(C)(C)C

> <Shape>
0.262

> <Color>
0.081

> <Negative vol penalty>
0.000

$$$$

  -OEChem-04042322373D

 86 95  0     1  0  0  0  0  0999 V2000
  -28.1445  -33.4170   26.1775 C   0  0  0  0  0  0  0  0  0  0  0  0
  -28.2732  -32.2225   25.4760 C   0  0  0  0  0  0  0  0  0  0  0  0
  -24.8879  -15.2573   21.1017 C   0  0  0  0  0  0  0  0  0  0  0  0
  -23.6542  -14.3417   19.2371 C   0  0  0  0  0  0  0  0  0  0  0  0
  -26.8822  -33.8621   26.5681 C   0  0  0  0  0  0  0  0  0  0  0  0
  -27.1397  -31.4719   25.1656 C   0  0  0  0  0  0  0  0  0  0  0  0
  -27.1669  -29.7980   20.3863 C   0  0  0  0  0  0  0  0  0  0  0  0
  -27.9048  -22.4724   14.9799 C   0  0  0  0  0  0  0  0  0  0  0  0
  -25.4290  -13.9984   21.3620 C   0  0  0  0  0  0  0  0  0  0  0  0
  -24.1953  -13.0826   19.4974 C   0  0  0  0  0  0  0  0  0  0  0  0
  -27.9677  -28.6923   20.1034 C   0  0  0  0  0  0  0  0  0  0  0  0
  -23.6702  -10.5460   21.6700 C   0  0  0  0  0  0  0  0  0  0  0  0
  -22.8052   -9.4519   21.6496 C   0  0  0  0  0  0  0  0  0  0  0  0
  -29.1991  -22.9665   14.8183 C   0  0  0  0  0  0  0  0  0  0  0  0
  -26.0239  -27.2671   20.2011 C   0  0  0  0  0  0  0  0  0  0  0  0
  -28.3396  -22.1011   17.3273 C   0  0  0  0  0  0  0  0  0  0  0  0
  -24.1046   -8.4578   19.8718 C   0  0  0  0  0  0  0  0  0  0  0  0
  -24.0004  -15.4290   20.0393 C   0  0  0  0  0  0  0  0  0  0  0  0
  -22.6511  -17.5103   20.6352 C   0  0  0  0  0  0  0  0  0  0  0  0
  -25.7319  -33.1215   26.2539 C   0  0  0  0  0  0  0  0  0  0  0  0
  -25.7880  -29.6447   20.5898 C   0  0  0  0  0  0  0  0  0  0  0  0
  -25.8610  -31.9069   25.5535 C   0  0  0  0  0  0  0  0  0  0  0  0
  -25.2074  -28.3728   20.4839 C   0  0  0  0  0  0  0  0  0  0  0  0
  -29.6340  -22.5951   17.1656 C   0  0  0  0  0  0  0  0  0  0  0  0
  -27.4750  -22.0398   16.2344 C   0  0  0  0  0  0  0  0  0  0  0  0
  -25.0827  -12.9110   20.5598 C   0  0  0  0  0  0  0  0  0  0  0  0
  -27.3967  -27.4262   20.0137 C   0  0  0  0  0  0  0  0  0  0  0  0
  -24.7524  -10.5960   20.7913 C   0  0  0  0  0  0  0  0  0  0  0  0
  -23.0223   -8.4078   20.7505 C   0  0  0  0  0  0  0  0  0  0  0  0
  -24.9696   -9.5519   19.8923 C   0  0  0  0  0  0  0  0  0  0  0  0
  -30.0637  -23.0278   15.9111 C   0  0  0  0  0  0  0  0  0  0  0  0
  -23.4407  -16.7291   19.7702 C   0  0  0  0  0  0  0  0  0  0  0  0
  -22.3756  -18.6473   19.9157 C   0  0  0  0  0  0  0  0  0  0  0  0
  -29.2959  -23.5132   20.3110 C   0  0  0  0  0  0  0  0  0  0  0  0
  -22.2067  -17.2330   21.9698 C   0  0  0  0  0  0  0  0  0  0  0  0
  -23.8066  -30.1733   23.0184 C   0  0  0  0  0  0  0  0  0  0  0  0
  -21.5403  -29.4033   20.8290 C   0  0  0  0  0  0  0  0  0  0  0  0
  -21.1299  -26.9506   18.2150 C   0  0  0  0  0  0  0  0  0  0  0  0
  -25.1760  -21.4112   15.4185 C   0  0  0  0  0  0  0  0  0  0  0  0
  -24.3932  -33.6193   26.7385 C   0  0  0  0  0  0  0  0  0  0  0  0
  -24.9338  -30.8512   20.8677 C   0  0  0  0  0  0  0  0  0  0  0  0
  -23.7289  -28.1576   20.6738 C   0  0  0  0  0  0  0  0  0  0  0  0
  -29.0288  -24.6732   21.2551 C   0  0  0  0  0  0  0  0  0  0  0  0
  -23.2080  -32.9537   26.0438 C   0  0  0  0  0  0  0  0  0  0  0  0
  -21.8311  -20.1908   15.4150 C   0  0  0  0  0  0  0  0  0  0  0  0
  -23.4030  -31.4419   25.9866 C   0  0  0  0  0  0  0  0  0  0  0  0
  -21.7907  -19.2403   16.6138 C   0  0  0  0  0  0  0  0  0  0  0  0
  -30.5633  -26.1196   19.9416 C   0  0  0  0  0  0  0  0  0  0  0  0
  -23.1742  -20.1318   14.6895 C   0  0  0  0  0  0  0  0  0  0  0  0
  -30.6353  -25.0665   18.8495 C   0  0  0  0  0  0  0  0  0  0  0  0
  -24.3106  -19.3834   16.7432 C   0  0  0  0  0  0  0  0  0  0  0  0
  -24.6529  -31.0771   25.1766 C   0  0  1  0  0  0  0  0  0  0  0  0
  -23.6214  -30.5064   21.5650 C   0  0  1  0  0  0  0  0  0  0  0  0
  -23.0005  -19.4553   17.5444 C   0  0  2  0  0  0  0  0  0  0  0  0
  -29.2265  -26.0532   20.6548 C   0  0  1  0  0  0  0  0  0  1  0  0
  -19.7709  -27.0250   16.1067 C   0  0  0  0  0  0  0  0  0  0  0  0
  -19.4000  -28.0157   22.5034 C   0  0  0  0  0  0  0  0  0  0  0  0
  -18.8211  -26.6377   20.4948 C   0  0  0  0  0  0  0  0  0  0  0  0
  -18.5482  -29.1163   20.4255 C   0  0  0  0  0  0  0  0  0  0  0  0
  -23.4905  -26.3483   16.5345 C   0  0  0  0  0  0  0  0  0  0  0  0
  -30.5338  -22.6449   18.3665 C   0  0  0  0  0  0  0  0  0  0  0  0
  -20.8731  -28.1237   20.3858 C   0  0  1  0  0  0  0  0  0  0  0  0
  -21.1515  -27.2050   16.7186 C   0  0  2  0  0  0  0  0  0  0  0  0
  -19.4371  -27.9735   20.9626 C   0  0  0  0  0  0  0  0  0  0  0  0
  -23.6528  -17.3199   18.5912 N   0  0  0  0  0  0  0  0  0  0  0  0
  -22.9925  -18.4843   18.7102 N   0  0  0  0  0  0  0  0  0  0  0  0
  -30.1857  -23.7388   19.2637 N   0  0  0  0  0  0  0  0  0  0  0  0
  -22.9367  -29.3675   20.9498 N   0  0  0  0  0  0  0  0  0  0  0  0
  -24.2732  -20.3483   15.6331 N   0  0  0  0  0  0  0  0  0  0  0  0
  -21.6682  -19.7607   20.2028 N   0  0  0  0  0  0  0  0  0  0  0  0
  -22.5804  -16.0178   22.5596 N   0  0  0  0  0  0  0  0  0  0  0  0
  -26.1597  -21.5388   16.3986 N   0  0  0  0  0  0  0  0  0  0  0  0
  -24.3858  -31.1864   23.7584 N   0  0  0  0  0  0  0  0  0  0  0  0
  -20.9355  -28.1145   18.9282 N   0  0  0  0  0  0  0  0  0  0  0  0
  -22.0900  -26.2625   16.0464 N   0  3  0  0  0  0  0  0  0  0  0  0
  -28.7809  -22.4180   20.5547 O   0  0  0  0  0  0  0  0  0  0  0  0
  -21.4853  -18.0319   22.6141 O   0  0  0  0  0  0  0  0  0  0  0  0
  -23.4489  -29.0788   23.4378 O   0  0  0  0  0  0  0  0  0  0  0  0
  -20.8487  -30.3999   21.0527 O   0  0  0  0  0  0  0  0  0  0  0  0
  -21.2678  -25.8307   18.7023 O   0  0  0  0  0  0  0  0  0  0  0  0
  -25.0669  -22.1701   14.4520 O   0  0  0  0  0  0  0  0  0  0  0  0
  -25.6107  -11.6824   20.8134 O   0  0  0  0  0  0  0  0  0  0  0  0
  -28.1761  -26.3452   19.7384 O   0  0  0  0  0  0  0  0  0  1  0  0
  -22.1925   -7.3566   20.7320 F   0  0  0  0  0  0  0  0  0  0  0  0
  -26.0082   -9.5937   19.0465 F   0  0  0  0  0  0  0  0  0  0  0  0
  -31.6576  -23.6458   15.6725 Cl  0  0  0  0  0  0  0  0  0  0  0  0
  1  2  1  0  0  0  0
  1  5  2  0  0  0  0
  2  6  2  0  0  0  0
  3  9  2  0  0  0  0
  3 18  1  0  0  0  0
  4 10  1  0  0  0  0
  4 18  2  0  0  0  0
  5 20  1  0  0  0  0
  6 22  1  0  0  0  0
  7 11  2  0  0  0  0
  7 21  1  0  0  0  0
  8 14  2  0  0  0  0
  8 25  1  0  0  0  0
  9 26  1  0  0  0  0
 10 26  2  0  0  0  0
 11 27  1  0  0  0  0
 12 13  2  0  0  0  0
 12 28  1  0  0  0  0
 13 29  1  0  0  0  0
 14 31  1  0  0  0  0
 15 23  1  0  0  0  0
 15 27  2  0  0  0  0
 16 24  1  0  0  0  0
 16 25  2  0  0  0  0
 17 29  2  0  0  0  0
 17 30  1  0  0  0  0
 18 32  1  0  0  0  0
 19 32  1  0  0  0  0
 19 33  2  0  0  0  0
 19 35  1  0  0  0  0
 20 22  2  0  0  0  0
 20 40  1  0  0  0  0
 21 23  2  0  0  0  0
 21 41  1  0  0  0  0
 22 52  1  0  0  0  0
 23 42  1  0  0  0  0
 24 31  2  0  0  0  0
 24 61  1  0  0  0  0
 25 72  1  0  0  0  0
 26 82  1  0  0  0  0
 27 83  1  0  0  0  0
 28 30  2  0  0  0  0
 28 82  1  0  0  0  0
 29 84  1  0  0  0  0
 30 85  1  0  0  0  0
 31 86  1  0  0  0  0
 32 65  2  0  0  0  0
 33 66  1  0  0  0  0
 33 70  1  0  0  0  0
 34 43  1  0  0  0  0
 34 67  1  0  0  0  0
 34 76  2  0  0  0  0
 35 71  1  0  0  0  0
 35 77  2  0  0  0  0
 36 53  1  0  0  0  0
 36 73  1  0  0  0  0
 36 78  2  0  0  0  0
 37 62  1  0  0  0  0
 37 68  1  0  0  0  0
 37 79  2  0  0  0  0
 38 63  1  0  0  0  0
 38 74  1  0  0  0  0
 38 80  2  0  0  0  0
 39 69  1  0  0  0  0
 39 72  1  0  0  0  0
 39 81  2  0  0  0  0
 40 44  1  0  0  0  0
 41 53  1  0  0  0  0
 42 68  1  0  0  0  0
 43 55  1  0  0  0  0
 44 46  1  0  0  0  0
 45 47  1  0  0  0  0
 45 49  1  0  0  0  0
 46 52  1  0  0  0  0
 47 54  1  0  0  0  0
 48 50  1  0  0  0  0
 48 55  1  0  0  0  0
 49 69  1  0  0  0  0
 50 67  1  0  0  0  0
 51 54  1  0  0  0  0
 51 69  1  0  0  0  0
 52 73  1  0  0  0  0
 53 68  1  0  0  0  0
 54 66  1  0  0  0  0
 55 83  1  0  0  0  0
 56 63  1  0  0  0  0
 57 64  1  0  0  0  0
 58 64  1  0  0  0  0
 59 64  1  0  0  0  0
 60 75  1  0  0  0  0
 61 67  1  0  0  0  0
 62 64  1  0  0  0  0
 62 74  1  0  0  0  0
 63 75  1  0  0  0  0
 65 66  1  0  0  0  0
M  CHG  1  75   1
M  ISO  4  39 100  55 101  72 100  83 101
M  END
> <Batch ID>
0051

> <Smiles>
CNC(C)C(=O)NC(C(=O)N1Cc2cc([101O:1][101CH:1]3CCN(Cc4cc([100NH:0][100C:0](=O)N5CCCC(n6nc(-c7ccc(Oc8ccc(F)cc8F)cc7)c(C(N)=O)c6N)C5)ccc4Cl)C(=O)C3)ccc2CC1C(=O)NC1CCCc2ccccc21)C(C)(C)C

> <Shape>
0.250

> <Color>
0.084

> <Negative vol penalty>
0.000

$$$$

  -OEChem-04042322373D

 84 92  0     1  0  0  0  0  0999 V2000
  -21.4267  -25.8143   17.1290 C   0  0  0  0  0  0  0  0  0  0  0  0
  -22.5908  -25.5785   17.8534 C   0  0  0  0  0  0  0  0  0  0  0  0
  -23.1656   -9.7225   20.3651 C   0  0  0  0  0  0  0  0  0  0  0  0
  -23.7239  -10.2471   22.6564 C   0  0  0  0  0  0  0  0  0  0  0  0
  -20.9171  -27.1084   17.0325 C   0  0  0  0  0  0  0  0  0  0  0  0
  -23.2465  -26.6371   18.4810 C   0  0  0  0  0  0  0  0  0  0  0  0
  -24.6784  -25.5084   23.2055 C   0  0  0  0  0  0  0  0  0  0  0  0
  -31.0902  -19.2113   19.6883 C   0  0  0  0  0  0  0  0  0  0  0  0
  -29.3075  -19.7004   21.2440 C   0  0  0  0  0  0  0  0  0  0  0  0
  -30.9581  -17.8506   19.9647 C   0  0  0  0  0  0  0  0  0  0  0  0
  -29.1754  -18.3396   21.5204 C   0  0  0  0  0  0  0  0  0  0  0  0
  -22.4315   -8.6179   20.7968 C   0  0  0  0  0  0  0  0  0  0  0  0
  -22.9897   -9.1424   23.0882 C   0  0  0  0  0  0  0  0  0  0  0  0
  -25.8203  -24.7224   23.3541 C   0  0  0  0  0  0  0  0  0  0  0  0
  -23.4094   -5.7932   23.2812 C   0  0  0  0  0  0  0  0  0  0  0  0
  -23.9855   -4.9702   24.2488 C   0  0  0  0  0  0  0  0  0  0  0  0
  -27.1137  -26.7022   23.8300 C   0  0  0  0  0  0  0  0  0  0  0  0
  -22.1392   -5.4286   25.7381 C   0  0  0  0  0  0  0  0  0  0  0  0
  -23.8118  -10.5371   21.2949 C   0  0  0  0  0  0  0  0  0  0  0  0
  -24.1005  -12.9918   20.6635 C   0  0  0  0  0  0  0  0  0  0  0  0
  -21.5616  -28.1819   17.6672 C   0  0  0  0  0  0  0  0  0  0  0  0
  -24.7479  -26.9007   23.3575 C   0  0  0  0  0  0  0  0  0  0  0  0
  -22.7458  -27.9471   18.3918 C   0  0  0  0  0  0  0  0  0  0  0  0
  -25.9707  -27.5034   23.6853 C   0  0  0  0  0  0  0  0  0  0  0  0
  -30.2649  -20.1363   20.3280 C   0  0  0  0  0  0  0  0  0  0  0  0
  -30.0007  -17.4147   20.8808 C   0  0  0  0  0  0  0  0  0  0  0  0
  -22.3435   -8.3278   22.1584 C   0  0  0  0  0  0  0  0  0  0  0  0
  -27.0387  -25.3196   23.6636 C   0  0  0  0  0  0  0  0  0  0  0  0
  -22.1982   -6.4340   23.5420 C   0  0  0  0  0  0  0  0  0  0  0  0
  -23.3504   -4.7879   25.4773 C   0  0  0  0  0  0  0  0  0  0  0  0
  -21.5630   -6.2517   24.7704 C   0  0  0  0  0  0  0  0  0  0  0  0
  -24.5708  -11.6780   20.8495 C   0  0  0  0  0  0  0  0  0  0  0  0
  -25.2012  -13.6932   20.2356 C   0  0  0  0  0  0  0  0  0  0  0  0
  -22.7863  -13.5302   20.8600 C   0  0  0  0  0  0  0  0  0  0  0  0
  -24.2079  -29.3939   21.4613 C   0  0  0  0  0  0  0  0  0  0  0  0
  -24.7128  -31.0804   24.1858 C   0  0  0  0  0  0  0  0  0  0  0  0
  -29.8905  -23.3715   21.7287 C   0  0  0  0  0  0  0  0  0  0  0  0
  -26.1254  -31.2160   27.2895 C   0  0  0  0  0  0  0  0  0  0  0  0
  -30.6044  -14.9834   20.6145 C   0  0  0  0  0  0  0  0  0  0  0  0
  -20.9991  -29.5707   17.4952 C   0  0  0  0  0  0  0  0  0  0  0  0
  -23.5017  -27.7317   23.2203 C   0  0  0  0  0  0  0  0  0  0  0  0
  -26.0945  -28.9919   23.8790 C   0  0  0  0  0  0  0  0  0  0  0  0
  -21.5475  -30.5790   18.5016 C   0  0  0  0  0  0  0  0  0  0  0  0
  -29.7588  -12.0779   18.7385 C   0  0  0  0  0  0  0  0  0  0  0  0
  -23.0643  -30.4566   18.6073 C   0  0  0  0  0  0  0  0  0  0  0  0
  -28.2950  -11.8229   19.1051 C   0  0  0  0  0  0  0  0  0  0  0  0
  -30.5606  -12.5945   19.9317 C   0  0  0  0  0  0  0  0  0  0  0  0
  -28.5241  -13.5132   20.9699 C   0  0  0  0  0  0  0  0  0  0  0  0
  -23.4720  -29.0655   19.1073 C   0  0  1  0  0  0  0  0  0  0  0  0
  -23.7911  -29.1929   22.8908 C   0  0  1  0  0  0  0  0  0  0  0  0
  -27.6613  -13.0534   19.7833 C   0  0  2  0  0  0  0  0  0  0  0  0
  -26.3978  -32.7394   29.2650 C   0  0  0  0  0  0  0  0  0  0  0  0
  -26.8052  -32.6885   22.6543 C   0  0  0  0  0  0  0  0  0  0  0  0
  -27.6852  -33.5045   24.8516 C   0  0  0  0  0  0  0  0  0  0  0  0
  -25.3483  -34.0459   24.1673 C   0  0  0  0  0  0  0  0  0  0  0  0
  -31.9995  -22.0278   21.8616 C   0  0  0  0  0  0  0  0  0  0  0  0
  -24.7277  -29.3254   29.0869 C   0  0  0  0  0  0  0  0  0  0  0  0
  -30.4072  -21.6010   20.0304 C   0  0  0  0  0  0  0  0  0  0  0  0
  -30.3713  -24.0864   22.9872 C   0  0  0  0  0  0  0  0  0  0  0  0
  -29.4038  -25.1583   23.4732 C   0  0  0  0  0  0  0  0  0  1  0  0
  -25.9206  -31.6833   24.8617 C   0  0  1  0  0  0  0  0  0  0  0  0
  -25.5621  -31.6359   28.6352 C   0  0  2  0  0  0  0  0  0  0  0  0
  -26.4382  -32.9527   24.1282 C   0  0  0  0  0  0  0  0  0  0  0  0
  -25.8690  -11.5497   20.5631 N   0  0  0  0  0  0  0  0  0  0  0  0
  -26.2239  -12.7918   20.1927 N   0  0  0  0  0  0  0  0  0  0  0  0
  -24.8490  -29.7622   23.7281 N   0  0  0  0  0  0  0  0  0  0  0  0
  -29.9026  -13.7630   20.5204 N   0  0  0  0  0  0  0  0  0  0  0  0
  -25.3843  -14.9867   19.8956 N   0  0  0  0  0  0  0  0  0  0  0  0
  -21.7716  -12.6708   21.3032 N   0  0  0  0  0  0  0  0  0  0  0  0
  -29.8661  -16.0324   21.1616 N   0  0  0  0  0  0  0  0  0  0  0  0
  -23.2745  -28.9644   20.5374 N   0  0  0  0  0  0  0  0  0  0  0  0
  -25.5399  -31.9098   26.2517 N   0  0  0  0  0  0  0  0  0  0  0  0
  -30.7331  -22.3730   21.2274 N   0  0  0  0  0  0  0  0  0  0  0  0
  -25.5344  -30.4756   29.5700 N   0  3  0  0  0  0  0  0  0  0  0  0
  -22.5157  -14.7338   20.6331 O   0  0  0  0  0  0  0  0  0  0  0  0
  -25.2952  -29.9026   21.2148 O   0  0  0  0  0  0  0  0  0  0  0  0
  -23.6840  -31.7519   24.0747 O   0  0  0  0  0  0  0  0  0  0  0  0
  -28.8157  -23.6771   21.2056 O   0  0  0  0  0  0  0  0  0  0  0  0
  -27.0003  -30.3610   27.1711 O   0  0  0  0  0  0  0  0  0  0  0  0
  -31.7652  -15.0972   20.2126 O   0  0  0  0  0  0  0  0  0  0  0  0
  -21.6271   -7.2501   22.5800 O   0  0  0  0  0  0  0  0  0  0  0  0
  -28.1550  -24.5548   23.8086 O   0  0  0  0  0  0  0  0  0  1  0  0
  -23.9030   -3.9963   26.4058 F   0  0  0  0  0  0  0  0  0  0  0  0
  -20.3987   -6.8637   25.0263 F   0  0  0  0  0  0  0  0  0  0  0  0
  1  2  1  0  0  0  0
  1  5  2  0  0  0  0
  2  6  2  0  0  0  0
  3 12  2  0  0  0  0
  3 19  1  0  0  0  0
  4 13  1  0  0  0  0
  4 19  2  0  0  0  0
  5 21  1  0  0  0  0
  6 23  1  0  0  0  0
  7 14  2  0  0  0  0
  7 22  1  0  0  0  0
  8 10  2  0  0  0  0
  8 25  1  0  0  0  0
  9 11  1  0  0  0  0
  9 25  2  0  0  0  0
 10 26  1  0  0  0  0
 11 26  2  0  0  0  0
 12 27  1  0  0  0  0
 13 27  2  0  0  0  0
 14 28  1  0  0  0  0
 15 16  2  0  0  0  0
 15 29  1  0  0  0  0
 16 30  1  0  0  0  0
 17 24  1  0  0  0  0
 17 28  2  0  0  0  0
 18 30  2  0  0  0  0
 18 31  1  0  0  0  0
 19 32  1  0  0  0  0
 20 32  1  0  0  0  0
 20 33  2  0  0  0  0
 20 34  1  0  0  0  0
 21 23  2  0  0  0  0
 21 40  1  0  0  0  0
 22 24  2  0  0  0  0
 22 41  1  0  0  0  0
 23 49  1  0  0  0  0
 24 42  1  0  0  0  0
 25 58  1  0  0  0  0
 26 70  1  0  0  0  0
 27 81  1  0  0  0  0
 28 82  1  0  0  0  0
 29 31  2  0  0  0  0
 29 81  1  0  0  0  0
 30 83  1  0  0  0  0
 31 84  1  0  0  0  0
 32 64  2  0  0  0  0
 33 65  1  0  0  0  0
 33 68  1  0  0  0  0
 34 69  1  0  0  0  0
 34 75  2  0  0  0  0
 35 50  1  0  0  0  0
 35 71  1  0  0  0  0
 35 76  2  0  0  0  0
 36 61  1  0  0  0  0
 36 66  1  0  0  0  0
 36 77  2  0  0  0  0
 37 59  1  0  0  0  0
 37 73  1  0  0  0  0
 37 78  2  0  0  0  0
 38 62  1  0  0  0  0
 38 72  1  0  0  0  0
 38 79  2  0  0  0  0
 39 67  1  0  0  0  0
 39 70  1  0  0  0  0
 39 80  2  0  0  0  0
 40 43  1  0  0  0  0
 41 50  1  0  0  0  0
 42 66  1  0  0  0  0
 43 45  1  0  0  0  0
 44 46  1  0  0  0  0
 44 47  1  0  0  0  0
 45 49  1  0  0  0  0
 46 51  1  0  0  0  0
 47 67  1  0  0  0  0
 48 51  1  0  0  0  0
 48 67  1  0  0  0  0
 49 71  1  0  0  0  0
 50 66  1  0  0  0  0
 51 65  1  0  0  0  0
 52 62  1  0  0  0  0
 53 63  1  0  0  0  0
 54 63  1  0  0  0  0
 55 63  1  0  0  0  0
 56 73  1  0  0  0  0
 57 74  1  0  0  0  0
 58 73  1  0  0  0  0
 59 60  1  0  0  0  0
 60 82  1  0  0  0  0
 61 63  1  0  0  0  0
 61 72  1  0  0  0  0
 62 74  1  0  0  0  0
 64 65  1  0  0  0  0
M  CHG  1  74   1
M  ISO  4  39 100  60 101  70 100  82 101
M  END
> <Batch ID>
0051

> <Smiles>
CNC(C)C(=O)NC(C(=O)N1Cc2cc([101O:1][101CH2:1]CC(=O)N(C)Cc3ccc([100NH:0][100C:0](=O)N4CCCC(n5nc(-c6ccc(Oc7ccc(F)cc7F)cc6)c(C(N)=O)c5N)C4)cc3)ccc2CC1C(=O)NC1CCCc2ccccc21)C(C)(C)C

> <Shape>
0.301

> <Color>
0.184

> <Negative vol penalty>
0.000

$$$$

  -OEChem-04042322373D

 89 98  0     1  0  0  0  0  0999 V2000
  -32.8221  -11.8382   26.3252 C   0  0  0  0  0  0  0  0  0  0  0  0
  -30.6968  -19.7209   36.9473 C   0  0  0  0  0  0  0  0  0  0  0  0
  -30.6995  -19.9997   35.5843 C   0  0  0  0  0  0  0  0  0  0  0  0
  -33.4109  -11.7964   25.0615 C   0  0  0  0  0  0  0  0  0  0  0  0
  -23.1908   -9.8195   19.9316 C   0  0  0  0  0  0  0  0  0  0  0  0
  -23.5702   -9.9993   22.3109 C   0  0  0  0  0  0  0  0  0  0  0  0
  -31.4800  -12.1944   26.4580 C   0  0  0  0  0  0  0  0  0  0  0  0
  -30.0439  -18.5850   37.4241 C   0  0  0  0  0  0  0  0  0  0  0  0
  -30.0500  -19.1420   34.6971 C   0  0  0  0  0  0  0  0  0  0  0  0
  -26.4102  -19.2034   28.5275 C   0  0  0  0  0  0  0  0  0  0  0  0
  -24.1911  -13.2970   25.5371 C   0  0  0  0  0  0  0  0  0  0  0  0
  -24.6417  -12.0670   26.0164 C   0  0  0  0  0  0  0  0  0  0  0  0
  -32.6577  -12.1109   23.9304 C   0  0  0  0  0  0  0  0  0  0  0  0
  -22.4251   -8.6725   20.1404 C   0  0  0  0  0  0  0  0  0  0  0  0
  -22.8044   -8.8523   22.5197 C   0  0  0  0  0  0  0  0  0  0  0  0
  -26.4004  -18.5878   27.2766 C   0  0  0  0  0  0  0  0  0  0  0  0
  -23.2066   -5.5058   22.2544 C   0  0  0  0  0  0  0  0  0  0  0  0
  -23.7057   -4.5444   23.1331 C   0  0  0  0  0  0  0  0  0  0  0  0
  -26.4087  -13.7887   24.7141 C   0  0  0  0  0  0  0  0  0  0  0  0
  -25.2380  -16.6976   28.2225 C   0  0  0  0  0  0  0  0  0  0  0  0
  -21.7497   -4.8033   24.5274 C   0  0  0  0  0  0  0  0  0  0  0  0
  -23.7635  -10.4828   21.0169 C   0  0  0  0  0  0  0  0  0  0  0  0
  -30.7268  -12.5089   25.3269 C   0  0  0  0  0  0  0  0  0  0  0  0
  -26.8593  -12.5587   25.1934 C   0  0  0  0  0  0  0  0  0  0  0  0
  -24.1011  -12.9997   20.7737 C   0  0  0  0  0  0  0  0  0  0  0  0
  -29.3779  -17.7181   36.5433 C   0  0  0  0  0  0  0  0  0  0  0  0
  -25.8426  -18.5647   29.6395 C   0  0  0  0  0  0  0  0  0  0  0  0
  -29.3887  -17.9927   35.1624 C   0  0  0  0  0  0  0  0  0  0  0  0
  -25.2396  -17.3082   29.4859 C   0  0  0  0  0  0  0  0  0  0  0  0
  -25.0746  -14.1578   24.8859 C   0  0  0  0  0  0  0  0  0  0  0  0
  -25.9758  -11.6978   25.8445 C   0  0  0  0  0  0  0  0  0  0  0  0
  -31.3156  -12.4672   24.0631 C   0  0  0  0  0  0  0  0  0  0  0  0
  -22.2318   -8.1889   21.4344 C   0  0  0  0  0  0  0  0  0  0  0  0
  -25.8168  -17.3335   27.1246 C   0  0  0  0  0  0  0  0  0  0  0  0
  -21.9790   -6.1161   22.5122 C   0  0  0  0  0  0  0  0  0  0  0  0
  -22.9773   -4.1931   24.2696 C   0  0  0  0  0  0  0  0  0  0  0  0
  -21.2506   -5.7647   23.6487 C   0  0  0  0  0  0  0  0  0  0  0  0
  -24.5551  -11.6674   20.8018 C   0  0  0  0  0  0  0  0  0  0  0  0
  -25.2320  -13.7428   20.5381 C   0  0  0  0  0  0  0  0  0  0  0  0
  -29.3122  -12.8806   25.5071 C   0  0  0  0  0  0  0  0  0  0  0  0
  -28.2586  -12.2016   24.9989 C   0  0  0  0  0  0  0  0  0  0  0  0
  -22.7758  -13.5191   20.9453 C   0  0  0  0  0  0  0  0  0  0  0  0
  -26.9464  -17.5182   32.4306 C   0  0  0  0  0  0  0  0  0  0  0  0
  -23.8078  -16.9422   33.0136 C   0  0  0  0  0  0  0  0  0  0  0  0
  -20.6909  -16.3418   31.7604 C   0  0  0  0  0  0  0  0  0  0  0  0
  -31.0372  -12.7840   21.5794 C   0  0  0  0  0  0  0  0  0  0  0  0
  -28.7262  -16.4773   37.1003 C   0  0  0  0  0  0  0  0  0  0  0  0
  -25.8376  -19.2538   30.9765 C   0  0  0  0  0  0  0  0  0  0  0  0
  -24.5987  -16.5893   30.6440 C   0  0  0  0  0  0  0  0  0  0  0  0
  -27.7431  -15.8200   36.1350 C   0  0  0  0  0  0  0  0  0  0  0  0
  -29.5230  -13.4660   18.4299 C   0  0  0  0  0  0  0  0  0  0  0  0
  -28.3542  -15.7127   34.7415 C   0  0  0  0  0  0  0  0  0  0  0  0
  -28.0351  -13.2093   18.6798 C   0  0  0  0  0  0  0  0  0  0  0  0
  -30.4049  -12.4810   19.1954 C   0  0  0  0  0  0  0  0  0  0  0  0
  -28.6460  -12.1385   20.8860 C   0  0  0  0  0  0  0  0  0  0  0  0
  -28.6743  -17.0997   34.1713 C   0  0  1  0  0  0  0  0  0  0  0  0
  -25.6868  -18.2866   32.1466 C   0  0  1  0  0  0  0  0  0  0  0  0
  -27.7194  -13.1468   20.1872 C   0  0  2  0  0  0  0  0  0  0  0  0
  -26.4242  -10.3731   26.3728 C   0  0  0  0  0  0  0  0  0  0  0  0
  -18.3337  -15.8737   32.4829 C   0  0  0  0  0  0  0  0  0  0  0  0
  -24.5907  -14.0744   33.7010 C   0  0  0  0  0  0  0  0  0  0  0  0
  -22.1793  -13.4374   33.4816 C   0  0  0  0  0  0  0  0  0  0  0  0
  -22.8799  -15.0817   35.2217 C   0  0  0  0  0  0  0  0  0  0  0  0
  -23.9670  -17.7433   24.9124 C   0  0  0  0  0  0  0  0  0  0  0  0
  -19.6769  -18.7882   30.4390 C   0  0  0  0  0  0  0  0  0  0  0  0
  -24.5870  -15.4852   24.3691 C   0  0  0  0  0  0  0  0  0  0  0  0
  -22.8755  -15.7760   32.7907 C   0  0  1  0  0  0  0  0  0  0  0  0
  -19.3383  -16.9463   32.0917 C   0  0  2  0  0  0  0  0  0  0  0  0
  -23.1451  -14.6048   33.7771 C   0  0  0  0  0  0  0  0  0  0  0  0
  -25.8716  -11.5669   20.6000 N   0  0  0  0  0  0  0  0  0  0  0  0
  -26.2546  -12.8454   20.4428 N   0  0  0  0  0  0  0  0  0  0  0  0
  -24.6248  -17.3014   31.9323 N   0  0  0  0  0  0  0  0  0  0  0  0
  -30.0518  -12.4790   20.6168 N   0  0  0  0  0  0  0  0  0  0  0  0
  -25.4413  -15.0698   20.4052 N   0  0  0  0  0  0  0  0  0  0  0  0
  -21.7296  -12.6164   21.1796 N   0  0  0  0  0  0  0  0  0  0  0  0
  -30.5771  -12.7832   22.8958 N   0  0  0  0  0  0  0  0  0  0  0  0
  -27.4683  -17.7393   33.6908 N   0  0  0  0  0  0  0  0  0  0  0  0
  -21.5221  -16.3163   32.8602 N   0  0  0  0  0  0  0  0  0  0  0  0
  -24.4408  -16.4665   25.4422 N   0  0  1  0  0  0  0  0  0  1  0  0
  -18.8004  -17.6878   30.9162 N   0  3  0  0  0  0  0  0  0  0  0  0
  -22.5241  -14.7460   20.8762 O   0  0  0  0  0  0  0  0  0  0  0  0
  -27.4097  -16.7783   31.5706 O   0  0  0  0  0  0  0  0  0  0  0  0
  -23.8060  -17.5179   34.1046 O   0  0  0  0  0  0  0  0  0  0  0  0
  -20.9796  -15.9298   30.6390 O   0  0  0  0  0  0  0  0  0  0  0  0
  -32.1971  -13.0546   21.2576 O   0  0  0  0  0  0  0  0  0  0  0  0
  -21.4844   -7.0698   21.6385 O   0  0  0  0  0  0  0  0  0  0  0  0
  -25.8065  -16.7302   25.9048 O   0  0  0  0  0  0  0  0  0  1  0  0
  -23.4560   -3.2687   25.1125 F   0  0  0  0  0  0  0  0  0  0  0  0
  -20.0701   -6.3467   23.9011 F   0  0  0  0  0  0  0  0  0  0  0  0
  1  4  1  0  0  0  0
  1  7  2  0  0  0  0
  2  3  1  0  0  0  0
  2  8  2  0  0  0  0
  3  9  2  0  0  0  0
  4 13  2  0  0  0  0
  5 14  2  0  0  0  0
  5 22  1  0  0  0  0
  6 15  1  0  0  0  0
  6 22  2  0  0  0  0
  7 23  1  0  0  0  0
  8 26  1  0  0  0  0
  9 28  1  0  0  0  0
 10 16  2  0  0  0  0
 10 27  1  0  0  0  0
 11 12  2  0  0  0  0
 11 30  1  0  0  0  0
 12 31  1  0  0  0  0
 13 32  1  0  0  0  0
 14 33  1  0  0  0  0
 15 33  2  0  0  0  0
 16 34  1  0  0  0  0
 17 18  2  0  0  0  0
 17 35  1  0  0  0  0
 18 36  1  0  0  0  0
 19 24  1  0  0  0  0
 19 30  2  0  0  0  0
 20 29  1  0  0  0  0
 20 34  2  0  0  0  0
 21 36  2  0  0  0  0
 21 37  1  0  0  0  0
 22 38  1  0  0  0  0
 23 32  2  0  0  0  0
 23 40  1  0  0  0  0
 24 31  2  0  0  0  0
 24 41  1  0  0  0  0
 25 38  1  0  0  0  0
 25 39  2  0  0  0  0
 25 42  1  0  0  0  0
 26 28  2  0  0  0  0
 26 47  1  0  0  0  0
 27 29  2  0  0  0  0
 27 48  1  0  0  0  0
 28 56  1  0  0  0  0
 29 49  1  0  0  0  0
 30 66  1  0  0  0  0
 31 59  1  0  0  0  0
 32 76  1  0  0  0  0
 33 86  1  0  0  0  0
 34 87  1  0  0  0  0
 35 37  2  0  0  0  0
 35 86  1  0  0  0  0
 36 88  1  0  0  0  0
 37 89  1  0  0  0  0
 38 70  2  0  0  0  0
 39 71  1  0  0  0  0
 39 74  1  0  0  0  0
 40 41  2  0  0  0  0
 42 75  1  0  0  0  0
 42 81  2  0  0  0  0
 43 57  1  0  0  0  0
 43 77  1  0  0  0  0
 43 82  2  0  0  0  0
 44 67  1  0  0  0  0
 44 72  1  0  0  0  0
 44 83  2  0  0  0  0
 45 68  1  0  0  0  0
 45 78  1  0  0  0  0
 45 84  2  0  0  0  0
 46 73  1  0  0  0  0
 46 76  1  0  0  0  0
 46 85  2  0  0  0  0
 47 50  1  0  0  0  0
 48 57  1  0  0  0  0
 49 72  1  0  0  0  0
 50 52  1  0  0  0  0
 51 53  1  0  0  0  0
 51 54  1  0  0  0  0
 52 56  1  0  0  0  0
 53 58  1  0  0  0  0
 54 73  1  0  0  0  0
 55 58  1  0  0  0  0
 55 73  1  0  0  0  0
 56 77  1  0  0  0  0
 57 72  1  0  0  0  0
 58 71  1  0  0  0  0
 60 68  1  0  0  0  0
 61 69  1  0  0  0  0
 62 69  1  0  0  0  0
 63 69  1  0  0  0  0
 64 79  1  0  0  0  0
 65 80  1  0  0  0  0
 66 79  1  0  0  0  0
 67 69  1  0  0  0  0
 67 78  1  0  0  0  0
 68 80  1  0  0  0  0
 70 71  1  0  0  0  0
 79 87  1  0  0  0  0
M  CHG  1  80   1
M  ISO  4  46 100  76 100  79 101  87 101
M  END
> <Batch ID>
0051

> <Smiles>
CNC(C)C(=O)NC(C(=O)N1Cc2cc([101O:1][101N:1](C)Cc3ccc(C)c(C=Cc4ccccc4[100NH:0][100C:0](=O)N4CCCC(n5nc(-c6ccc(Oc7ccc(F)cc7F)cc6)c(C(N)=O)c5N)C4)c3)ccc2CC1C(=O)NC1CCCc2ccccc21)C(C)(C)C

> <Shape>
0.137

> <Color>
0.190

> <Negative vol penalty>
0.000

$$$$

  -OEChem-04042322373D

 89 98  0     1  0  0  0  0  0999 V2000
  -25.1074  -38.4251   22.8705 C   0  0  0  0  0  0  0  0  0  0  0  0
  -25.8576  -37.6220   22.0174 C   0  0  0  0  0  0  0  0  0  0  0  0
  -26.0228   -9.6085   22.6927 C   0  0  0  0  0  0  0  0  0  0  0  0
  -26.9265  -11.7001   23.4963 C   0  0  0  0  0  0  0  0  0  0  0  0
  -24.5137  -37.8718   24.0042 C   0  0  0  0  0  0  0  0  0  0  0  0
  -26.0153  -36.2652   22.2981 C   0  0  0  0  0  0  0  0  0  0  0  0
  -26.7347  -29.9338   19.0252 C   0  0  0  0  0  0  0  0  0  0  0  0
  -28.9934  -20.5951   19.2931 C   0  0  0  0  0  0  0  0  0  0  0  0
  -28.4844  -19.3975   18.7910 C   0  0  0  0  0  0  0  0  0  0  0  0
  -26.6784   -8.9304   23.7202 C   0  0  0  0  0  0  0  0  0  0  0  0
  -27.5821  -11.0219   24.5239 C   0  0  0  0  0  0  0  0  0  0  0  0
  -27.5683  -28.8164   19.0127 C   0  0  0  0  0  0  0  0  0  0  0  0
  -26.7931   -9.6932   27.5293 C   0  0  0  0  0  0  0  0  0  0  0  0
  -26.7244  -10.2391   28.8111 C   0  0  0  0  0  0  0  0  0  0  0  0
  -26.4309  -27.9537   20.9573 C   0  0  0  0  0  0  0  0  0  0  0  0
  -27.1225  -19.1463   20.7707 C   0  0  0  0  0  0  0  0  0  0  0  0
  -29.1322  -10.4330   28.8574 C   0  0  0  0  0  0  0  0  0  0  0  0
  -26.1469  -10.9934   22.5807 C   0  0  0  0  0  0  0  0  0  0  0  0
  -24.0841  -11.7383   21.2777 C   0  0  0  0  0  0  0  0  0  0  0  0
  -24.6562  -36.5056   24.2938 C   0  0  0  0  0  0  0  0  0  0  0  0
  -25.7484  -30.0751   20.0120 C   0  0  0  0  0  0  0  0  0  0  0  0
  -25.4240  -35.6934   23.4375 C   0  0  0  0  0  0  0  0  0  0  0  0
  -25.5844  -29.0727   20.9786 C   0  0  0  0  0  0  0  0  0  0  0  0
  -28.5670  -21.0684   20.5341 C   0  0  0  0  0  0  0  0  0  0  0  0
  -27.6315  -20.3440   21.2728 C   0  0  0  0  0  0  0  0  0  0  0  0
  -27.5490  -18.6731   19.5297 C   0  0  0  0  0  0  0  0  0  0  0  0
  -27.4581   -9.6371   24.6359 C   0  0  0  0  0  0  0  0  0  0  0  0
  -27.4184  -27.8275   19.9806 C   0  0  0  0  0  0  0  0  0  0  0  0
  -28.0313   -9.5171   26.9117 C   0  0  0  0  0  0  0  0  0  0  0  0
  -27.8940  -10.6090   29.4751 C   0  0  0  0  0  0  0  0  0  0  0  0
  -29.2009   -9.8870   27.5757 C   0  0  0  0  0  0  0  0  0  0  0  0
  -25.4703  -11.6944   21.5191 C   0  0  0  0  0  0  0  0  0  0  0  0
  -23.9547  -12.5294   20.1625 C   0  0  0  0  0  0  0  0  0  0  0  0
  -29.9108  -24.1632   19.5692 C   0  0  0  0  0  0  0  0  0  0  0  0
  -23.0095  -11.1193   21.9973 C   0  0  0  0  0  0  0  0  0  0  0  0
  -25.1745  -32.1788   22.3247 C   0  0  0  0  0  0  0  0  0  0  0  0
  -22.4524  -30.4520   22.6862 C   0  0  0  0  0  0  0  0  0  0  0  0
  -21.5244  -26.9655   22.6733 C   0  0  0  0  0  0  0  0  0  0  0  0
  -27.3455  -16.8480   17.8051 C   0  0  0  0  0  0  0  0  0  0  0  0
  -24.0351  -35.9625   25.5563 C   0  0  0  0  0  0  0  0  0  0  0  0
  -24.8397  -31.2736   19.9957 C   0  0  0  0  0  0  0  0  0  0  0  0
  -24.5275  -29.1670   22.0474 C   0  0  0  0  0  0  0  0  0  0  0  0
  -29.5576  -25.2688   18.5888 C   0  0  0  0  0  0  0  0  0  0  0  0
  -23.9389  -34.4392   25.5814 C   0  0  0  0  0  0  0  0  0  0  0  0
  -26.3136  -13.8390   16.2058 C   0  0  0  0  0  0  0  0  0  0  0  0
  -25.2569  -33.8137   25.1359 C   0  0  0  0  0  0  0  0  0  0  0  0
  -25.8484  -12.9538   17.3644 C   0  0  0  0  0  0  0  0  0  0  0  0
  -27.1371  -24.8476   18.9575 C   0  0  0  0  0  0  0  0  0  0  0  0
  -27.5243  -14.6873   16.5910 C   0  0  0  0  0  0  0  0  0  0  0  0
  -27.4652  -23.9321   20.1241 C   0  0  0  0  0  0  0  0  0  0  0  0
  -26.8946  -14.6002   18.9711 C   0  0  0  0  0  0  0  0  0  0  0  0
  -25.5974  -34.2122   23.6948 C   0  0  1  0  0  0  0  0  0  0  0  0
  -24.2075  -31.5626   21.3537 C   0  0  1  0  0  0  0  0  0  0  0  0
  -25.6375  -13.7749   18.6515 C   0  0  2  0  0  0  0  0  0  0  0  0
  -28.2024  -25.9165   18.8067 C   0  0  1  0  0  0  0  0  0  1  0  0
  -19.3444  -25.8595   22.1057 C   0  0  0  0  0  0  0  0  0  0  0  0
  -21.9237  -30.6088   25.6872 C   0  0  0  0  0  0  0  0  0  0  0  0
  -20.8493  -28.3519   25.5453 C   0  0  0  0  0  0  0  0  0  0  0  0
  -19.8807  -30.2739   24.2841 C   0  0  0  0  0  0  0  0  0  0  0  0
  -22.8008  -25.2275   20.6462 C   0  0  0  0  0  0  0  0  0  0  0  0
  -29.1296  -22.3596   21.0540 C   0  0  0  0  0  0  0  0  0  0  0  0
  -22.0524  -29.2444   23.4991 C   0  0  1  0  0  0  0  0  0  0  0  0
  -20.7281  -26.2410   21.6030 C   0  0  2  0  0  0  0  0  0  0  0  0
  -27.1588  -20.8322   22.6028 C   0  0  0  0  0  0  0  0  0  0  0  0
  -21.2033  -29.6236   24.7452 C   0  0  0  0  0  0  0  0  0  0  0  0
  -26.1714  -12.4013   20.6287 N   0  0  0  0  0  0  0  0  0  0  0  0
  -25.2219  -12.8967   19.8169 N   0  0  0  0  0  0  0  0  0  0  0  0
  -28.8531  -23.4748   20.1581 N   0  0  0  0  0  0  0  0  0  0  0  0
  -23.6677  -30.3609   21.9931 N   0  0  0  0  0  0  0  0  0  0  0  0
  -27.2498  -15.4404   17.8167 N   0  0  0  0  0  0  0  0  0  0  0  0
  -22.8817  -12.9397   19.4534 N   0  0  0  0  0  0  0  0  0  0  0  0
  -23.3190  -10.3397   23.1202 N   0  0  0  0  0  0  0  0  0  0  0  0
  -27.0302  -17.4574   19.0192 N   0  0  0  0  0  0  0  0  0  0  0  0
  -24.8107  -33.4397   22.7574 N   0  0  0  0  0  0  0  0  0  0  0  0
  -21.3844  -28.3337   22.5756 N   0  0  0  0  0  0  0  0  0  0  0  0
  -21.4351  -24.9978   21.1838 N   0  3  0  0  0  0  0  0  0  0  0  0
  -31.0997  -23.8772   19.7392 O   0  0  0  0  0  0  0  0  0  0  0  0
  -21.8117  -11.2402   21.6451 O   0  0  0  0  0  0  0  0  0  0  0  0
  -26.1757  -31.5558   22.6579 O   0  0  0  0  0  0  0  0  0  0  0  0
  -21.7102  -31.4370   22.6613 O   0  0  0  0  0  0  0  0  0  0  0  0
  -22.1997  -26.3764   23.5144 O   0  0  0  0  0  0  0  0  0  0  0  0
  -27.6560  -17.4690   16.7854 O   0  0  0  0  0  0  0  0  0  0  0  0
  -28.0978   -8.9757   25.6388 O   0  0  0  0  0  0  0  0  0  0  0  0
  -28.2312  -26.7361   19.9711 O   0  0  0  0  0  0  0  0  0  1  0  0
  -27.8278  -11.1347   30.7053 F   0  0  0  0  0  0  0  0  0  0  0  0
  -30.3932   -9.7213   26.9869 F   0  0  0  0  0  0  0  0  0  0  0  0
  -26.2436  -20.0085   23.1923 F   0  0  0  0  0  0  0  0  0  0  0  0
  -28.1604  -20.9690   23.5201 F   0  0  0  0  0  0  0  0  0  0  0  0
  -26.5588  -22.0549   22.5280 F   0  0  0  0  0  0  0  0  0  0  0  0
  1  2  1  0  0  0  0
  1  5  2  0  0  0  0
  2  6  2  0  0  0  0
  3 10  2  0  0  0  0
  3 18  1  0  0  0  0
  4 11  1  0  0  0  0
  4 18  2  0  0  0  0
  5 20  1  0  0  0  0
  6 22  1  0  0  0  0
  7 12  2  0  0  0  0
  7 21  1  0  0  0  0
  8  9  2  0  0  0  0
  8 24  1  0  0  0  0
  9 26  1  0  0  0  0
 10 27  1  0  0  0  0
 11 27  2  0  0  0  0
 12 28  1  0  0  0  0
 13 14  2  0  0  0  0
 13 29  1  0  0  0  0
 14 30  1  0  0  0  0
 15 23  1  0  0  0  0
 15 28  2  0  0  0  0
 16 25  1  0  0  0  0
 16 26  2  0  0  0  0
 17 30  2  0  0  0  0
 17 31  1  0  0  0  0
 18 32  1  0  0  0  0
 19 32  1  0  0  0  0
 19 33  2  0  0  0  0
 19 35  1  0  0  0  0
 20 22  2  0  0  0  0
 20 40  1  0  0  0  0
 21 23  2  0  0  0  0
 21 41  1  0  0  0  0
 22 52  1  0  0  0  0
 23 42  1  0  0  0  0
 24 25  2  0  0  0  0
 24 61  1  0  0  0  0
 25 64  1  0  0  0  0
 26 73  1  0  0  0  0
 27 83  1  0  0  0  0
 28 84  1  0  0  0  0
 29 31  2  0  0  0  0
 29 83  1  0  0  0  0
 30 85  1  0  0  0  0
 31 86  1  0  0  0  0
 32 66  2  0  0  0  0
 33 67  1  0  0  0  0
 33 71  1  0  0  0  0
 34 43  1  0  0  0  0
 34 68  1  0  0  0  0
 34 77  2  0  0  0  0
 35 72  1  0  0  0  0
 35 78  2  0  0  0  0
 36 53  1  0  0  0  0
 36 74  1  0  0  0  0
 36 79  2  0  0  0  0
 37 62  1  0  0  0  0
 37 69  1  0  0  0  0
 37 80  2  0  0  0  0
 38 63  1  0  0  0  0
 38 75  1  0  0  0  0
 38 81  2  0  0  0  0
 39 70  1  0  0  0  0
 39 73  1  0  0  0  0
 39 82  2  0  0  0  0
 40 44  1  0  0  0  0
 41 53  1  0  0  0  0
 42 69  1  0  0  0  0
 43 55  1  0  0  0  0
 44 46  1  0  0  0  0
 45 47  1  0  0  0  0
 45 49  1  0  0  0  0
 46 52  1  0  0  0  0
 47 54  1  0  0  0  0
 48 50  1  0  0  0  0
 48 55  1  0  0  0  0
 49 70  1  0  0  0  0
 50 68  1  0  0  0  0
 51 54  1  0  0  0  0
 51 70  1  0  0  0  0
 52 74  1  0  0  0  0
 53 69  1  0  0  0  0
 54 67  1  0  0  0  0
 55 84  1  0  0  0  0
 56 63  1  0  0  0  0
 57 65  1  0  0  0  0
 58 65  1  0  0  0  0
 59 65  1  0  0  0  0
 60 76  1  0  0  0  0
 61 68  1  0  0  0  0
 62 65  1  0  0  0  0
 62 75  1  0  0  0  0
 63 76  1  0  0  0  0
 64 87  1  0  0  0  0
 64 88  1  0  0  0  0
 64 89  1  0  0  0  0
 66 67  1  0  0  0  0
M  CHG  1  76   1
M  ISO  4  39 100  55 101  73 100  84 101
M  END
> <Batch ID>
0051

> <Smiles>
CNC(C)C(=O)NC(C(=O)N1Cc2cc([101O:1][101CH:1]3CCN(Cc4ccc([100NH:0][100C:0](=O)N5CCCC(n6nc(-c7ccc(Oc8ccc(F)cc8F)cc7)c(C(N)=O)c6N)C5)cc4C(F)(F)F)C(=O)C3)ccc2CC1C(=O)NC1CCCc2ccccc21)C(C)(C)C

> <Shape>
0.268

> <Color>
0.083

> <Negative vol penalty>
0.000

$$$$

  -OEChem-04042322373D

 91100  0     1  0  0  0  0  0999 V2000
  -27.0340  -33.5926   26.3948 C   0  0  0  0  0  0  0  0  0  0  0  0
  -27.3903  -32.4620   25.6667 C   0  0  0  0  0  0  0  0  0  0  0  0
  -22.4010  -15.6491   20.2631 C   0  0  0  0  0  0  0  0  0  0  0  0
  -24.5358  -14.8328   21.0462 C   0  0  0  0  0  0  0  0  0  0  0  0
  -25.7042  -33.7929   26.7628 C   0  0  0  0  0  0  0  0  0  0  0  0
  -26.4170  -31.5304   25.3070 C   0  0  0  0  0  0  0  0  0  0  0  0
  -26.8482  -30.0326   20.4887 C   0  0  0  0  0  0  0  0  0  0  0  0
  -32.2582  -20.0756   22.1327 C   0  0  0  0  0  0  0  0  0  0  0  0
  -31.1032  -19.8314   21.3898 C   0  0  0  0  0  0  0  0  0  0  0  0
  -22.0828  -14.3725   19.7999 C   0  0  0  0  0  0  0  0  0  0  0  0
  -24.2176  -13.5562   20.5830 C   0  0  0  0  0  0  0  0  0  0  0  0
  -27.8404  -29.0970   20.1991 C   0  0  0  0  0  0  0  0  0  0  0  0
  -22.3394  -10.9364   21.5977 C   0  0  0  0  0  0  0  0  0  0  0  0
  -22.6060   -9.8577   22.4408 C   0  0  0  0  0  0  0  0  0  0  0  0
  -26.1824  -27.3448   20.2083 C   0  0  0  0  0  0  0  0  0  0  0  0
  -30.9332  -22.1868   20.8796 C   0  0  0  0  0  0  0  0  0  0  0  0
  -24.0857   -8.9221   20.7757 C   0  0  0  0  0  0  0  0  0  0  0  0
  -23.6275  -15.8793   20.8862 C   0  0  0  0  0  0  0  0  0  0  0  0
  -23.6926  -17.7300   22.6407 C   0  0  0  0  0  0  0  0  0  0  0  0
  -24.7126  -32.8682   26.3991 C   0  0  0  0  0  0  0  0  0  0  0  0
  -25.5151  -29.6291   20.6513 C   0  0  0  0  0  0  0  0  0  0  0  0
  -25.0729  -31.7179   25.6715 C   0  0  0  0  0  0  0  0  0  0  0  0
  -25.1748  -28.2776   20.4973 C   0  0  0  0  0  0  0  0  0  0  0  0
  -32.7507  -21.3755   22.2491 C   0  0  0  0  0  0  0  0  0  0  0  0
  -32.0882  -22.4310   21.6225 C   0  0  0  0  0  0  0  0  0  0  0  0
  -30.4407  -20.8869   20.7633 C   0  0  0  0  0  0  0  0  0  0  0  0
  -22.9911  -13.3260   19.9598 C   0  0  0  0  0  0  0  0  0  0  0  0
  -27.5081  -27.7524   20.0617 C   0  0  0  0  0  0  0  0  0  0  0  0
  -22.9459  -11.0081   20.3436 C   0  0  0  0  0  0  0  0  0  0  0  0
  -23.4791   -8.8505   22.0298 C   0  0  0  0  0  0  0  0  0  0  0  0
  -23.8190  -10.0009   19.9327 C   0  0  0  0  0  0  0  0  0  0  0  0
  -23.9571  -17.1979   21.3645 C   0  0  0  0  0  0  0  0  0  0  0  0
  -24.1991  -19.0058   22.5924 C   0  0  0  0  0  0  0  0  0  0  0  0
  -33.2022  -24.5940   19.4778 C   0  0  0  0  0  0  0  0  0  0  0  0
  -31.1013  -25.3981   20.6158 C   0  0  0  0  0  0  0  0  0  0  0  0
  -23.0470  -17.1251   23.7690 C   0  0  0  0  0  0  0  0  0  0  0  0
  -23.4187  -29.7216   23.0388 C   0  0  0  0  0  0  0  0  0  0  0  0
  -21.3756  -28.6247   20.7705 C   0  0  0  0  0  0  0  0  0  0  0  0
  -20.9438  -26.9790   17.8122 C   0  0  0  0  0  0  0  0  0  0  0  0
  -28.4913  -21.5730   19.3226 C   0  0  0  0  0  0  0  0  0  0  0  0
  -23.2961  -33.1038   26.8603 C   0  0  0  0  0  0  0  0  0  0  0  0
  -24.4523  -30.6544   20.9370 C   0  0  0  0  0  0  0  0  0  0  0  0
  -23.7551  -27.7958   20.6421 C   0  0  0  0  0  0  0  0  0  0  0  0
  -32.8360  -25.4222   18.2691 C   0  0  0  0  0  0  0  0  0  0  0  0
  -22.2650  -32.2580   26.1174 C   0  0  0  0  0  0  0  0  0  0  0  0
  -31.9993  -26.6277   18.6398 C   0  0  0  0  0  0  0  0  0  0  0  0
  -25.0794  -22.5716   19.5192 C   0  0  0  0  0  0  0  0  0  0  0  0
  -22.7295  -30.8079   26.0266 C   0  0  0  0  0  0  0  0  0  0  0  0
  -24.3813  -21.3576   20.1365 C   0  0  0  0  0  0  0  0  0  0  0  0
  -26.1981  -22.1579   18.5648 C   0  0  0  0  0  0  0  0  0  0  0  0
  -26.4881  -20.0169   19.7483 C   0  0  0  0  0  0  0  0  0  0  0  0
  -24.0419  -30.6971   25.2413 C   0  0  1  0  0  0  0  0  0  0  0  0
  -30.7380  -26.1488   19.3412 C   0  0  2  0  0  0  0  0  0  0  0  0
  -23.2084  -30.0596   21.5900 C   0  0  1  0  0  0  0  0  0  0  0  0
  -25.3964  -20.3839   20.7667 C   0  0  2  0  0  0  0  0  0  0  0  0
  -19.1550  -26.2045   16.2317 C   0  0  0  0  0  0  0  0  0  0  0  0
  -20.6846  -26.3429   22.6747 C   0  0  0  0  0  0  0  0  0  0  0  0
  -19.6678  -25.1266   20.7369 C   0  0  0  0  0  0  0  0  0  0  0  0
  -18.7269  -27.3198   21.4632 C   0  0  0  0  0  0  0  0  0  0  0  0
  -22.0165  -28.6322   15.6043 C   0  0  0  0  0  0  0  0  0  0  0  0
  -32.6010  -23.8379   21.7321 C   0  0  0  0  0  0  0  0  0  0  0  0
  -29.8087  -27.3238   19.6378 C   0  0  0  0  0  0  0  0  0  1  0  0
  -20.9588  -27.2603   20.2769 C   0  0  1  0  0  0  0  0  0  0  0  0
  -20.1272  -27.3211   16.5790 C   0  0  2  0  0  0  0  0  0  0  0  0
  -33.9886  -21.6124   23.0503 C   0  0  0  0  0  0  0  0  0  0  0  0
  -20.0367  -26.5209   21.2871 C   0  0  0  0  0  0  0  0  0  0  0  0
  -24.5827  -18.0648   20.5639 N   0  0  0  0  0  0  0  0  0  0  0  0
  -24.7156  -19.1547   21.3389 N   0  0  0  0  0  0  0  0  0  0  0  0
  -32.2852  -24.6282   20.5465 N   0  0  0  0  0  0  0  0  0  0  0  0
  -22.7528  -28.8357   20.9277 N   0  0  0  0  0  0  0  0  0  0  0  0
  -27.1234  -21.2393   19.2317 N   0  0  0  0  0  0  0  0  0  0  0  0
  -24.2484  -20.0037   23.5003 N   0  0  0  0  0  0  0  0  0  0  0  0
  -22.5866  -15.8069   23.6478 N   0  0  0  0  0  0  0  0  0  0  0  0
  -29.2684  -20.6390   20.0069 N   0  0  0  0  0  0  0  0  0  0  0  0
  -23.7904  -30.7993   23.8197 N   0  0  0  0  0  0  0  0  0  0  0  0
  -20.3606  -27.4669   18.9624 N   0  0  0  0  0  0  0  0  0  0  0  0
  -21.0237  -27.5444   15.4097 N   0  3  0  0  0  0  0  0  0  0  0  0
  -34.2321  -23.9162   19.4586 O   0  0  0  0  0  0  0  0  0  0  0  0
  -30.3695  -25.4363   21.6077 O   0  0  0  0  0  0  0  0  0  0  0  0
  -22.8686  -17.7411   24.8471 O   0  0  0  0  0  0  0  0  0  0  0  0
  -23.2543  -28.5687   23.4203 O   0  0  0  0  0  0  0  0  0  0  0  0
  -20.5116  -29.4743   21.0011 O   0  0  0  0  0  0  0  0  0  0  0  0
  -21.9920  -26.3393   17.7606 O   0  0  0  0  0  0  0  0  0  0  0  0
  -28.9354  -22.6240   18.8534 O   0  0  0  0  0  0  0  0  0  0  0  0
  -22.6808  -12.0801   19.5081 O   0  0  0  0  0  0  0  0  0  0  0  0
  -28.4748  -26.8371   19.7798 O   0  0  0  0  0  0  0  0  0  1  0  0
  -23.7363   -7.8154   22.8401 F   0  0  0  0  0  0  0  0  0  0  0  0
  -24.4056  -10.0648   18.7295 F   0  0  0  0  0  0  0  0  0  0  0  0
  -34.5110  -20.4754   23.5962 F   0  0  0  0  0  0  0  0  0  0  0  0
  -35.0076  -22.1636   22.3283 F   0  0  0  0  0  0  0  0  0  0  0  0
  -33.7792  -22.4607   24.0979 F   0  0  0  0  0  0  0  0  0  0  0  0
  1  2  1  0  0  0  0
  1  5  2  0  0  0  0
  2  6  2  0  0  0  0
  3 10  2  0  0  0  0
  3 18  1  0  0  0  0
  4 11  1  0  0  0  0
  4 18  2  0  0  0  0
  5 20  1  0  0  0  0
  6 22  1  0  0  0  0
  7 12  2  0  0  0  0
  7 21  1  0  0  0  0
  8  9  2  0  0  0  0
  8 24  1  0  0  0  0
  9 26  1  0  0  0  0
 10 27  1  0  0  0  0
 11 27  2  0  0  0  0
 12 28  1  0  0  0  0
 13 14  2  0  0  0  0
 13 29  1  0  0  0  0
 14 30  1  0  0  0  0
 15 23  1  0  0  0  0
 15 28  2  0  0  0  0
 16 25  1  0  0  0  0
 16 26  2  0  0  0  0
 17 30  2  0  0  0  0
 17 31  1  0  0  0  0
 18 32  1  0  0  0  0
 19 32  1  0  0  0  0
 19 33  2  0  0  0  0
 19 36  1  0  0  0  0
 20 22  2  0  0  0  0
 20 41  1  0  0  0  0
 21 23  2  0  0  0  0
 21 42  1  0  0  0  0
 22 52  1  0  0  0  0
 23 43  1  0  0  0  0
 24 25  2  0  0  0  0
 24 65  1  0  0  0  0
 25 61  1  0  0  0  0
 26 74  1  0  0  0  0
 27 85  1  0  0  0  0
 28 86  1  0  0  0  0
 29 31  2  0  0  0  0
 29 85  1  0  0  0  0
 30 87  1  0  0  0  0
 31 88  1  0  0  0  0
 32 67  2  0  0  0  0
 33 68  1  0  0  0  0
 33 72  1  0  0  0  0
 34 44  1  0  0  0  0
 34 69  1  0  0  0  0
 34 78  2  0  0  0  0
 35 53  1  0  0  0  0
 35 69  1  0  0  0  0
 35 79  2  0  0  0  0
 36 73  1  0  0  0  0
 36 80  2  0  0  0  0
 37 54  1  0  0  0  0
 37 75  1  0  0  0  0
 37 81  2  0  0  0  0
 38 63  1  0  0  0  0
 38 70  1  0  0  0  0
 38 82  2  0  0  0  0
 39 64  1  0  0  0  0
 39 76  1  0  0  0  0
 39 83  2  0  0  0  0
 40 71  1  0  0  0  0
 40 74  1  0  0  0  0
 40 84  2  0  0  0  0
 41 45  1  0  0  0  0
 42 54  1  0  0  0  0
 43 70  1  0  0  0  0
 44 46  1  0  0  0  0
 45 48  1  0  0  0  0
 46 53  1  0  0  0  0
 47 49  1  0  0  0  0
 47 50  1  0  0  0  0
 48 52  1  0  0  0  0
 49 55  1  0  0  0  0
 50 71  1  0  0  0  0
 51 55  1  0  0  0  0
 51 71  1  0  0  0  0
 52 75  1  0  0  0  0
 53 62  1  0  0  0  0
 54 70  1  0  0  0  0
 55 68  1  0  0  0  0
 56 64  1  0  0  0  0
 57 66  1  0  0  0  0
 58 66  1  0  0  0  0
 59 66  1  0  0  0  0
 60 77  1  0  0  0  0
 61 69  1  0  0  0  0
 62 86  1  0  0  0  0
 63 66  1  0  0  0  0
 63 76  1  0  0  0  0
 64 77  1  0  0  0  0
 65 89  1  0  0  0  0
 65 90  1  0  0  0  0
 65 91  1  0  0  0  0
 67 68  1  0  0  0  0
M  CHG  1  77   1
M  ISO  4  40 100  62 101  74 100  86 101
M  END
> <Batch ID>
0051

> <Smiles>
CNC(C)C(=O)NC(C(=O)N1Cc2cc([101O:1][101CH2:1]C3CCC(=O)N(Cc4cc([100NH:0][100C:0](=O)N5CCCC(n6nc(-c7ccc(Oc8ccc(F)cc8F)cc7)c(C(N)=O)c6N)C5)ccc4C(F)(F)F)C3=O)ccc2CC1C(=O)NC1CCCc2ccccc21)C(C)(C)C

> <Shape>
0.237

> <Color>
0.081

> <Negative vol penalty>
0.000

$$$$

  -OEChem-04042322373D

 86 95  0     1  0  0  0  0  0999 V2000
  -29.1817  -32.4281   26.3624 C   0  0  0  0  0  0  0  0  0  0  0  0
  -28.8835  -31.2390   25.7047 C   0  0  0  0  0  0  0  0  0  0  0  0
  -22.7543  -10.3709   20.6531 C   0  0  0  0  0  0  0  0  0  0  0  0
  -24.5871   -9.2069   21.7128 C   0  0  0  0  0  0  0  0  0  0  0  0
  -28.1747  -33.3618   26.6029 C   0  0  0  0  0  0  0  0  0  0  0  0
  -27.5777  -30.9825   25.2881 C   0  0  0  0  0  0  0  0  0  0  0  0
  -27.3686  -29.1366   20.5771 C   0  0  0  0  0  0  0  0  0  0  0  0
  -27.5700  -20.4035   16.2130 C   0  0  0  0  0  0  0  0  0  0  0  0
  -27.0631  -19.2063   15.7078 C   0  0  0  0  0  0  0  0  0  0  0  0
  -21.8457   -9.6092   21.3879 C   0  0  0  0  0  0  0  0  0  0  0  0
  -23.6786   -8.4452   22.4476 C   0  0  0  0  0  0  0  0  0  0  0  0
  -27.6799  -27.7883   20.4071 C   0  0  0  0  0  0  0  0  0  0  0  0
  -21.6845   -5.7640   21.9320 C   0  0  0  0  0  0  0  0  0  0  0  0
  -21.9115   -4.3906   22.0191 C   0  0  0  0  0  0  0  0  0  0  0  0
  -25.3273  -27.2620   20.3217 C   0  0  0  0  0  0  0  0  0  0  0  0
  -28.4754  -19.2183   18.1136 C   0  0  0  0  0  0  0  0  0  0  0  0
  -22.0648   -4.5685   24.4237 C   0  0  0  0  0  0  0  0  0  0  0  0
  -24.1251  -10.1697   20.8155 C   0  0  0  0  0  0  0  0  0  0  0  0
  -25.1787  -11.0236   18.6549 C   0  0  0  0  0  0  0  0  0  0  0  0
  -26.8578  -33.1209   26.1805 C   0  0  0  0  0  0  0  0  0  0  0  0
  -26.0319  -29.5571   20.6316 C   0  0  0  0  0  0  0  0  0  0  0  0
  -26.5518  -31.9133   25.5244 C   0  0  0  0  0  0  0  0  0  0  0  0
  -25.0016  -28.6165   20.4899 C   0  0  0  0  0  0  0  0  0  0  0  0
  -28.2763  -20.4095   17.4158 C   0  0  0  0  0  0  0  0  0  0  0  0
  -27.2623  -18.0150   16.4056 C   0  0  0  0  0  0  0  0  0  0  0  0
  -27.9685  -18.0210   17.6085 C   0  0  0  0  0  0  0  0  0  0  0  0
  -22.3078   -8.6464   22.2852 C   0  0  0  0  0  0  0  0  0  0  0  0
  -26.6592  -26.8504   20.2823 C   0  0  0  0  0  0  0  0  0  0  0  0
  -21.6478   -6.5398   23.0907 C   0  0  0  0  0  0  0  0  0  0  0  0
  -22.1016   -3.7928   23.2650 C   0  0  0  0  0  0  0  0  0  0  0  0
  -21.8379   -5.9421   24.3365 C   0  0  0  0  0  0  0  0  0  0  0  0
  -25.0641  -10.9558   20.0563 C   0  0  0  0  0  0  0  0  0  0  0  0
  -26.2119  -11.9020   18.4370 C   0  0  0  0  0  0  0  0  0  0  0  0
  -28.8257  -23.1401   19.9063 C   0  0  0  0  0  0  0  0  0  0  0  0
  -29.3078  -22.6981   21.0777 C   0  0  0  0  0  0  0  0  0  0  0  0
  -24.4190  -10.3528   17.6407 C   0  0  0  0  0  0  0  0  0  0  0  0
  -24.2161  -30.9820   22.8171 C   0  0  0  0  0  0  0  0  0  0  0  0
  -22.0428  -31.0388   20.4096 C   0  0  0  0  0  0  0  0  0  0  0  0
  -20.9233  -28.7909   17.8190 C   0  0  0  0  0  0  0  0  0  0  0  0
  -28.8640  -16.6723   19.5386 C   0  0  0  0  0  0  0  0  0  0  0  0
  -25.7936  -34.1392   26.5050 C   0  0  0  0  0  0  0  0  0  0  0  0
  -25.7128  -31.0185   20.7887 C   0  0  0  0  0  0  0  0  0  0  0  0
  -23.5506  -29.0190   20.5213 C   0  0  0  0  0  0  0  0  0  0  0  0
  -29.0483  -24.5434   19.4041 C   0  0  0  0  0  0  0  0  0  0  0  0
  -24.5101  -33.9568   25.6991 C   0  0  0  0  0  0  0  0  0  0  0  0
  -29.5731  -13.8969   21.6533 C   0  0  0  0  0  0  0  0  0  0  0  0
  -24.0856  -32.4916   25.6956 C   0  0  0  0  0  0  0  0  0  0  0  0
  -28.4726  -12.8899   21.3110 C   0  0  0  0  0  0  0  0  0  0  0  0
  -26.9071  -24.2375   18.0921 C   0  0  0  0  0  0  0  0  0  0  0  0
  -29.0559  -15.3341   21.6236 C   0  0  0  0  0  0  0  0  0  0  0  0
  -27.2721  -14.7155   20.0410 C   0  0  0  0  0  0  0  0  0  0  0  0
  -26.7147  -22.8687   18.7433 C   0  0  0  0  0  0  0  0  0  0  0  0
  -25.1523  -31.6098   25.0352 C   0  0  1  0  0  0  0  0  0  0  0  0
  -24.3146  -31.2684   21.3453 C   0  0  1  0  0  0  0  0  0  0  0  0
  -27.7609  -13.2586   19.9946 C   0  0  2  0  0  0  0  0  0  0  0  0
  -27.7300  -25.1827   18.9675 C   0  0  1  0  0  0  0  0  0  1  0  0
  -26.7072  -16.7476   15.8412 C   0  0  0  0  0  0  0  0  0  0  0  0
  -19.9085  -29.2654   15.5735 C   0  0  0  0  0  0  0  0  0  0  0  0
  -19.3815  -30.7248   21.8686 C   0  0  0  0  0  0  0  0  0  0  0  0
  -18.4847  -29.5661   19.8385 C   0  0  0  0  0  0  0  0  0  0  0  0
  -19.2383  -31.9393   19.6871 C   0  0  0  0  0  0  0  0  0  0  0  0
  -22.9864  -27.1953   16.4201 C   0  0  0  0  0  0  0  0  0  0  0  0
  -28.8213  -21.6978   17.9583 C   0  0  0  0  0  0  0  0  0  0  0  0
  -20.9614  -30.1044   19.9232 C   0  0  1  0  0  0  0  0  0  0  0  0
  -21.1825  -28.9205   16.3289 C   0  0  2  0  0  0  0  0  0  0  0  0
  -19.5398  -30.5739   20.3425 C   0  0  0  0  0  0  0  0  0  0  0  0
  -25.9536  -11.7292   20.6845 N   0  0  0  0  0  0  0  0  0  0  0  0
  -26.6371  -12.2914   19.6730 N   0  0  0  0  0  0  0  0  0  0  0  0
  -23.2896  -30.4589   20.6832 N   0  0  0  0  0  0  0  0  0  0  0  0
  -28.3979  -15.6127   20.3453 N   0  0  0  0  0  0  0  0  0  0  0  0
  -26.7892  -12.3714   17.3106 N   0  0  0  0  0  0  0  0  0  0  0  0
  -23.3932   -9.4847   18.0388 N   0  0  0  0  0  0  0  0  0  0  0  0
  -28.1818  -16.8212   18.3315 N   0  0  0  0  0  0  0  0  0  0  0  0
  -25.0830  -31.7262   23.5943 N   0  0  0  0  0  0  0  0  0  0  0  0
  -21.1484  -29.9789   18.4818 N   0  0  0  0  0  0  0  0  0  0  0  0
  -28.0300  -22.2290   19.1215 N   0  3  1  0  0  0  0  0  0  0  0  0
  -21.7207  -27.6422   15.7836 N   0  3  0  0  0  0  0  0  0  0  0  0
  -24.6541  -10.5056   16.4180 O   0  0  0  0  0  0  0  0  0  0  0  0
  -23.4120  -30.1486   23.2179 O   0  0  0  0  0  0  0  0  0  0  0  0
  -21.7925  -32.2401   20.5350 O   0  0  0  0  0  0  0  0  0  0  0  0
  -20.5543  -27.7417   18.3421 O   0  0  0  0  0  0  0  0  0  0  0  0
  -29.8172  -17.3771   19.8802 O   0  0  0  0  0  0  0  0  0  0  0  0
  -21.4215   -7.9032   23.0025 O   0  0  0  0  0  0  0  0  0  0  0  0
  -26.9604  -25.5336   20.1170 O   0  0  0  0  0  0  0  0  0  1  0  0
  -22.3181   -2.4736   23.3487 F   0  0  0  0  0  0  0  0  0  0  0  0
  -21.8025   -6.6820   25.4533 F   0  0  0  0  0  0  0  0  0  0  0  0
  1  2  1  0  0  0  0
  1  5  2  0  0  0  0
  2  6  2  0  0  0  0
  3 10  2  0  0  0  0
  3 18  1  0  0  0  0
  4 11  1  0  0  0  0
  4 18  2  0  0  0  0
  5 20  1  0  0  0  0
  6 22  1  0  0  0  0
  7 12  2  0  0  0  0
  7 21  1  0  0  0  0
  8  9  2  0  0  0  0
  8 24  1  0  0  0  0
  9 25  1  0  0  0  0
 10 27  1  0  0  0  0
 11 27  2  0  0  0  0
 12 28  1  0  0  0  0
 13 14  2  0  0  0  0
 13 29  1  0  0  0  0
 14 30  1  0  0  0  0
 15 23  1  0  0  0  0
 15 28  2  0  0  0  0
 16 24  2  0  0  0  0
 16 26  1  0  0  0  0
 17 30  2  0  0  0  0
 17 31  1  0  0  0  0
 18 32  1  0  0  0  0
 19 32  1  0  0  0  0
 19 33  2  0  0  0  0
 19 36  1  0  0  0  0
 20 22  2  0  0  0  0
 20 41  1  0  0  0  0
 21 23  2  0  0  0  0
 21 42  1  0  0  0  0
 22 53  1  0  0  0  0
 23 43  1  0  0  0  0
 24 63  1  0  0  0  0
 25 26  2  0  0  0  0
 25 57  1  0  0  0  0
 26 73  1  0  0  0  0
 27 83  1  0  0  0  0
 28 84  1  0  0  0  0
 29 31  2  0  0  0  0
 29 83  1  0  0  0  0
 30 85  1  0  0  0  0
 31 86  1  0  0  0  0
 32 67  2  0  0  0  0
 33 68  1  0  0  0  0
 33 71  1  0  0  0  0
 34 35  2  0  0  0  0
 34 44  1  0  0  0  0
 34 76  1  0  0  0  0
 36 72  1  0  0  0  0
 36 78  2  0  0  0  0
 37 54  1  0  0  0  0
 37 74  1  0  0  0  0
 37 79  2  0  0  0  0
 38 64  1  0  0  0  0
 38 69  1  0  0  0  0
 38 80  2  0  0  0  0
 39 65  1  0  0  0  0
 39 75  1  0  0  0  0
 39 81  2  0  0  0  0
 40 70  1  0  0  0  0
 40 73  1  0  0  0  0
 40 82  2  0  0  0  0
 41 45  1  0  0  0  0
 42 54  1  0  0  0  0
 43 69  1  0  0  0  0
 44 56  1  0  0  0  0
 45 47  1  0  0  0  0
 46 48  1  0  0  0  0
 46 50  1  0  0  0  0
 47 53  1  0  0  0  0
 48 55  1  0  0  0  0
 49 52  1  0  0  0  0
 49 56  1  0  0  0  0
 50 70  1  0  0  0  0
 51 55  1  0  0  0  0
 51 70  1  0  0  0  0
 52 76  1  0  0  0  0
 53 74  1  0  0  0  0
 54 69  1  0  0  0  0
 55 68  1  0  0  0  0
 56 84  1  0  0  0  0
 58 65  1  0  0  0  0
 59 66  1  0  0  0  0
 60 66  1  0  0  0  0
 61 66  1  0  0  0  0
 62 77  1  0  0  0  0
 63 76  1  0  0  0  0
 64 66  1  0  0  0  0
 64 75  1  0  0  0  0
 65 77  1  0  0  0  0
 67 68  1  0  0  0  0
M  CHG  2  76   1  77   1
M  ISO  4  40 100  56 101  73 100  84 101
M  END
> <Batch ID>
0051

> <Smiles>
C=C1C[101CH:1]([101O:1]c2ccc3c(c2)CN(C(=O)C(NC(=O)C(C)NC)C(C)(C)C)C(C(=O)NC2CCCc4ccccc42)C3)CCN1Cc1ccc(C)c([100NH:0][100C:0](=O)N2CCCC(n3nc(-c4ccc(Oc5ccc(F)cc5F)cc4)c(C(N)=O)c3N)C2)c1

> <Shape>
0.308

> <Color>
0.104

> <Negative vol penalty>
0.000

$$$$

  -OEChem-04042322373D

 87 96  0     1  0  0  0  0  0999 V2000
  -26.7661  -37.5882   17.4333 C   0  0  0  0  0  0  0  0  0  0  0  0
  -27.9585  -36.8802   17.3225 C   0  0  0  0  0  0  0  0  0  0  0  0
  -23.7678   -9.9287   21.7779 C   0  0  0  0  0  0  0  0  0  0  0  0
  -21.7635  -10.5802   20.5968 C   0  0  0  0  0  0  0  0  0  0  0  0
  -25.9859  -37.4619   18.5820 C   0  0  0  0  0  0  0  0  0  0  0  0
  -28.3720  -36.0463   18.3608 C   0  0  0  0  0  0  0  0  0  0  0  0
  -30.1502  -28.4401   18.2608 C   0  0  0  0  0  0  0  0  0  0  0  0
  -23.3128   -8.6110   21.8233 C   0  0  0  0  0  0  0  0  0  0  0  0
  -21.3085   -9.2624   20.6420 C   0  0  0  0  0  0  0  0  0  0  0  0
  -30.3375  -27.0648   18.4007 C   0  0  0  0  0  0  0  0  0  0  0  0
  -21.1144   -6.7965   23.6396 C   0  0  0  0  0  0  0  0  0  0  0  0
  -21.2313   -6.1126   24.8496 C   0  0  0  0  0  0  0  0  0  0  0  0
  -29.6669  -27.1985   20.7202 C   0  0  0  0  0  0  0  0  0  0  0  0
  -25.5548  -20.2326   19.1569 C   0  0  0  0  0  0  0  0  0  0  0  0
  -24.3173  -21.9181   20.3672 C   0  0  0  0  0  0  0  0  0  0  0  0
  -22.6300   -4.4585   23.7797 C   0  0  0  0  0  0  0  0  0  0  0  0
  -22.9931  -10.9134   21.1647 C   0  0  0  0  0  0  0  0  0  0  0  0
  -24.6453  -12.7463   20.5179 C   0  0  0  0  0  0  0  0  0  0  0  0
  -26.3853  -36.6186   19.6308 C   0  0  0  0  0  0  0  0  0  0  0  0
  -29.7052  -29.1983   19.3474 C   0  0  0  0  0  0  0  0  0  0  0  0
  -27.5971  -35.9097   19.5251 C   0  0  0  0  0  0  0  0  0  0  0  0
  -29.4656  -28.5744   20.5828 C   0  0  0  0  0  0  0  0  0  0  0  0
  -24.3376  -20.8029   19.5296 C   0  0  0  0  0  0  0  0  0  0  0  0
  -26.7314  -21.8927   20.4595 C   0  0  0  0  0  0  0  0  0  0  0  0
  -22.0832   -8.2778   21.2553 C   0  0  0  0  0  0  0  0  0  0  0  0
  -30.0967  -26.4456   19.6274 C   0  0  0  0  0  0  0  0  0  0  0  0
  -21.7553   -6.3114   22.4995 C   0  0  0  0  0  0  0  0  0  0  0  0
  -21.9891   -4.9436   24.9197 C   0  0  0  0  0  0  0  0  0  0  0  0
  -22.5131   -5.1425   22.5696 C   0  0  0  0  0  0  0  0  0  0  0  0
  -26.7517  -20.7775   19.6219 C   0  0  0  0  0  0  0  0  0  0  0  0
  -25.5143  -22.4630   20.8322 C   0  0  0  0  0  0  0  0  0  0  0  0
  -23.4623  -12.2749   21.1181 C   0  0  0  0  0  0  0  0  0  0  0  0
  -24.6304  -14.1005   20.7469 C   0  0  0  0  0  0  0  0  0  0  0  0
  -28.5728  -22.0454   22.1296 C   0  0  0  0  0  0  0  0  0  0  0  0
  -28.4290  -20.8475   22.7296 C   0  0  0  0  0  0  0  0  0  0  0  0
  -25.6662  -12.0247   19.8160 C   0  0  0  0  0  0  0  0  0  0  0  0
  -28.7299  -32.5780   20.6520 C   0  0  0  0  0  0  0  0  0  0  0  0
  -26.7440  -30.5601   21.8327 C   0  0  0  0  0  0  0  0  0  0  0  0
  -24.5182  -28.0860   22.5823 C   0  0  0  0  0  0  0  0  0  0  0  0
  -21.9362  -18.9864   20.8695 C   0  0  0  0  0  0  0  0  0  0  0  0
  -25.5323  -36.5509   20.8728 C   0  0  0  0  0  0  0  0  0  0  0  0
  -29.5488  -30.6921   19.2593 C   0  0  0  0  0  0  0  0  0  0  0  0
  -29.0212  -29.4354   21.7335 C   0  0  0  0  0  0  0  0  0  0  0  0
  -29.5105  -23.0461   22.7769 C   0  0  0  0  0  0  0  0  0  0  0  0
  -25.8547  -35.3579   21.7688 C   0  0  0  0  0  0  0  0  0  0  0  0
  -30.3550  -23.7951   21.7566 C   0  0  0  0  0  0  0  0  0  0  0  0
  -21.6686  -16.9006   23.7425 C   0  0  0  0  0  0  0  0  0  0  0  0
  -27.3624  -35.2247   21.9585 C   0  0  0  0  0  0  0  0  0  0  0  0
  -22.2029  -15.5493   23.2646 C   0  0  0  0  0  0  0  0  0  0  0  0
  -20.8842  -17.6173   22.6457 C   0  0  0  0  0  0  0  0  0  0  0  0
  -22.1422  -16.4264   20.8927 C   0  0  0  0  0  0  0  0  0  0  0  0
  -28.6220  -23.3640   19.9909 C   0  0  0  0  0  0  0  0  0  0  0  0
  -28.0671  -34.9760   20.6194 C   0  0  1  0  0  0  0  0  0  0  0  0
  -28.3774  -31.2270   20.1025 C   0  0  1  0  0  0  0  0  0  0  0  0
  -22.9878  -15.6911   21.9466 C   0  0  2  0  0  0  0  0  0  0  0  0
  -29.4569  -24.4262   20.7035 C   0  0  2  0  0  0  0  0  0  1  0  0
  -22.3906  -27.6667   23.8452 C   0  0  0  0  0  0  0  0  0  0  0  0
  -28.2984  -30.5982   24.4569 C   0  0  0  0  0  0  0  0  0  0  0  0
  -26.4370  -29.2857   25.4964 C   0  0  0  0  0  0  0  0  0  0  0  0
  -25.9976  -31.5688   24.5927 C   0  0  0  0  0  0  0  0  0  0  0  0
  -23.0813  -27.2799   20.1237 C   0  0  0  0  0  0  0  0  0  0  0  0
  -23.0577  -20.2210   19.0318 C   0  0  0  0  0  0  0  0  0  0  0  0
  -26.3956  -29.6560   22.9880 C   0  0  1  0  0  0  0  0  0  0  0  0
  -23.0030  -28.0358   22.5030 C   0  0  2  0  0  0  0  0  0  0  0  0
  -26.7957  -30.2674   24.3605 C   0  0  0  0  0  0  0  0  0  0  0  0
  -22.7481  -13.2503   21.6859 N   0  0  0  0  0  0  0  0  0  0  0  0
  -23.4843  -14.3482   21.4436 N   0  0  0  0  0  0  0  0  0  0  0  0
  -27.9537  -22.4492   20.9343 N   0  0  0  0  0  0  0  0  0  0  0  0
  -28.0191  -30.4098   21.2742 N   0  0  0  0  0  0  0  0  0  0  0  0
  -21.6851  -17.7203   21.4235 N   0  0  0  0  0  0  0  0  0  0  0  0
  -25.4861  -15.0916   20.4184 N   0  0  0  0  0  0  0  0  0  0  0  0
  -25.5360  -11.8609   18.4302 N   0  0  0  0  0  0  0  0  0  0  0  0
  -27.9062  -33.5966   20.2122 N   0  0  0  0  0  0  0  0  0  0  0  0
  -24.9734  -29.3579   22.8585 N   0  0  0  0  0  0  0  0  0  0  0  0
  -22.7089  -18.9951   19.7146 N   0  0  0  0  0  0  0  0  0  0  0  0
  -22.5702  -27.0267   21.4954 N   0  3  0  0  0  0  0  0  0  0  0  0
  -26.6560  -11.5253   20.4029 O   0  0  0  0  0  0  0  0  0  0  0  0
  -29.6784  -32.6893   21.4199 O   0  0  0  0  0  0  0  0  0  0  0  0
  -25.9122  -31.3819   21.4378 O   0  0  0  0  0  0  0  0  0  0  0  0
  -25.2269  -27.0951   22.4194 O   0  0  0  0  0  0  0  0  0  0  0  0
  -21.5084  -20.0320   21.3701 O   0  0  0  0  0  0  0  0  0  0  0  0
  -21.6390   -6.9920   21.2991 O   0  0  0  0  0  0  0  0  0  0  0  0
  -30.2772  -25.1018   19.7557 O   0  0  0  0  0  0  0  0  0  1  0  0
  -22.1025   -4.2878   26.0821 F   0  0  0  0  0  0  0  0  0  0  0  0
  -23.1321   -4.6722   21.4780 F   0  0  0  0  0  0  0  0  0  0  0  0
  -28.2339  -20.0348   19.1347 Cl  0  0  0  0  0  0  0  0  0  0  0  0
  -25.4388  -23.8445   21.8684 Cl  0  0  0  0  0  0  0  0  0  0  0  0
  1  2  1  0  0  0  0
  1  5  2  0  0  0  0
  2  6  2  0  0  0  0
  3  8  2  0  0  0  0
  3 17  1  0  0  0  0
  4  9  1  0  0  0  0
  4 17  2  0  0  0  0
  5 19  1  0  0  0  0
  6 21  1  0  0  0  0
  7 10  2  0  0  0  0
  7 20  1  0  0  0  0
  8 25  1  0  0  0  0
  9 25  2  0  0  0  0
 10 26  1  0  0  0  0
 11 12  2  0  0  0  0
 11 27  1  0  0  0  0
 12 28  1  0  0  0  0
 13 22  1  0  0  0  0
 13 26  2  0  0  0  0
 14 23  1  0  0  0  0
 14 30  2  0  0  0  0
 15 23  2  0  0  0  0
 15 31  1  0  0  0  0
 16 28  2  0  0  0  0
 16 29  1  0  0  0  0
 17 32  1  0  0  0  0
 18 32  1  0  0  0  0
 18 33  2  0  0  0  0
 18 36  1  0  0  0  0
 19 21  2  0  0  0  0
 19 41  1  0  0  0  0
 20 22  2  0  0  0  0
 20 42  1  0  0  0  0
 21 53  1  0  0  0  0
 22 43  1  0  0  0  0
 23 62  1  0  0  0  0
 24 30  1  0  0  0  0
 24 31  2  0  0  0  0
 24 68  1  0  0  0  0
 25 82  1  0  0  0  0
 26 83  1  0  0  0  0
 27 29  2  0  0  0  0
 27 82  1  0  0  0  0
 28 84  1  0  0  0  0
 29 85  1  0  0  0  0
 30 86  1  0  0  0  0
 31 87  1  0  0  0  0
 32 66  2  0  0  0  0
 33 67  1  0  0  0  0
 33 71  1  0  0  0  0
 34 35  2  0  0  0  0
 34 44  1  0  0  0  0
 34 68  1  0  0  0  0
 36 72  1  0  0  0  0
 36 77  2  0  0  0  0
 37 54  1  0  0  0  0
 37 73  1  0  0  0  0
 37 78  2  0  0  0  0
 38 63  1  0  0  0  0
 38 69  1  0  0  0  0
 38 79  2  0  0  0  0
 39 64  1  0  0  0  0
 39 74  1  0  0  0  0
 39 80  2  0  0  0  0
 40 70  1  0  0  0  0
 40 75  1  0  0  0  0
 40 81  2  0  0  0  0
 41 45  1  0  0  0  0
 42 54  1  0  0  0  0
 43 69  1  0  0  0  0
 44 46  1  0  0  0  0
 45 48  1  0  0  0  0
 46 56  1  0  0  0  0
 47 49  1  0  0  0  0
 47 50  1  0  0  0  0
 48 53  1  0  0  0  0
 49 55  1  0  0  0  0
 50 70  1  0  0  0  0
 51 55  1  0  0  0  0
 51 70  1  0  0  0  0
 52 56  1  0  0  0  0
 52 68  1  0  0  0  0
 53 73  1  0  0  0  0
 54 69  1  0  0  0  0
 55 67  1  0  0  0  0
 56 83  1  0  0  0  0
 57 64  1  0  0  0  0
 58 65  1  0  0  0  0
 59 65  1  0  0  0  0
 60 65  1  0  0  0  0
 61 76  1  0  0  0  0
 62 75  1  0  0  0  0
 63 65  1  0  0  0  0
 63 74  1  0  0  0  0
 64 76  1  0  0  0  0
 66 67  1  0  0  0  0
M  CHG  1  76   1
M  ISO  4  40 100  56 101  75 100  83 101
M  END
> <Batch ID>
0051

> <Smiles>
C=C1CC[101CH:1]([101O:1]c2ccc3c(c2)CN(C(=O)C(NC(=O)C(C)NC)C(C)(C)C)C(C(=O)NC2CCCc4ccccc42)C3)CN1c1c(Cl)cc(C[100NH:0][100C:0](=O)N2CCCC(n3nc(-c4ccc(Oc5ccc(F)cc5F)cc4)c(C(N)=O)c3N)C2)cc1Cl

> <Shape>
0.242

> <Color>
0.119

> <Negative vol penalty>
0.000

$$$$

  -OEChem-04042322373D

 84 92  0     1  0  0  0  0  0999 V2000
  -20.3570  -23.8639   21.9031 C   0  0  0  0  0  0  0  0  0  0  0  0
  -21.3888  -24.4351   21.1652 C   0  0  0  0  0  0  0  0  0  0  0  0
  -26.7099  -12.9203   20.9778 C   0  0  0  0  0  0  0  0  0  0  0  0
  -26.7169  -13.0259   18.5641 C   0  0  0  0  0  0  0  0  0  0  0  0
  -19.4108  -24.6788   22.5231 C   0  0  0  0  0  0  0  0  0  0  0  0
  -21.4744  -25.8218   21.0461 C   0  0  0  0  0  0  0  0  0  0  0  0
  -26.1903  -27.5418   21.7142 C   0  0  0  0  0  0  0  0  0  0  0  0
  -26.2040  -11.6217   20.9195 C   0  0  0  0  0  0  0  0  0  0  0  0
  -26.2111  -11.7273   18.5058 C   0  0  0  0  0  0  0  0  0  0  0  0
  -27.0761  -27.4026   20.6466 C   0  0  0  0  0  0  0  0  0  0  0  0
  -24.5719   -8.4094   21.4100 C   0  0  0  0  0  0  0  0  0  0  0  0
  -23.5211   -8.0820   22.2668 C   0  0  0  0  0  0  0  0  0  0  0  0
  -26.7135  -29.7124   20.0525 C   0  0  0  0  0  0  0  0  0  0  0  0
  -27.9015  -23.3074   16.1078 C   0  0  0  0  0  0  0  0  0  0  0  0
  -29.7532  -23.7682   14.6260 C   0  0  0  0  0  0  0  0  0  0  0  0
  -29.8796  -21.9220   16.1793 C   0  0  0  0  0  0  0  0  0  0  0  0
  -22.1612   -9.8052   21.2575 C   0  0  0  0  0  0  0  0  0  0  0  0
  -26.9663  -13.6224   19.8000 C   0  0  0  0  0  0  0  0  0  0  0  0
  -28.8421  -15.3494   19.8802 C   0  0  0  0  0  0  0  0  0  0  0  0
  -19.4904  -26.0765   22.4195 C   0  0  0  0  0  0  0  0  0  0  0  0
  -25.5501  -28.7664   21.9529 C   0  0  0  0  0  0  0  0  0  0  0  0
  -20.5276  -26.6562   21.6642 C   0  0  0  0  0  0  0  0  0  0  0  0
  -25.8220  -29.8652   21.1254 C   0  0  0  0  0  0  0  0  0  0  0  0
  -28.4766  -24.0764   15.0961 C   0  0  0  0  0  0  0  0  0  0  0  0
  -28.6030  -22.2302   16.6495 C   0  0  0  0  0  0  0  0  0  0  0  0
  -25.9546  -11.0252   19.6836 C   0  0  0  0  0  0  0  0  0  0  0  0
  -27.3356  -28.4872   19.8138 C   0  0  0  0  0  0  0  0  0  0  0  0
  -24.4174   -9.4347   20.4769 C   0  0  0  0  0  0  0  0  0  0  0  0
  -22.3157   -8.7799   22.1906 C   0  0  0  0  0  0  0  0  0  0  0  0
  -30.4547  -22.6910   15.1675 C   0  0  0  0  0  0  0  0  0  0  0  0
  -23.2120  -10.1325   20.4007 C   0  0  0  0  0  0  0  0  0  0  0  0
  -27.4883  -14.9641   19.8596 C   0  0  0  0  0  0  0  0  0  0  0  0
  -28.8079  -16.7212   19.9392 C   0  0  0  0  0  0  0  0  0  0  0  0
  -30.0249  -14.5397   19.8486 C   0  0  0  0  0  0  0  0  0  0  0  0
  -22.5266  -29.7463   21.9937 C   0  0  0  0  0  0  0  0  0  0  0  0
  -23.8463  -32.5149   23.0500 C   0  0  0  0  0  0  0  0  0  0  0  0
  -27.7458  -27.1332   16.1274 C   0  0  0  0  0  0  0  0  0  0  0  0
  -26.5907  -34.5363   23.2202 C   0  0  0  0  0  0  0  0  0  0  0  0
  -26.7627  -21.6194   18.2577 C   0  0  0  0  0  0  0  0  0  0  0  0
  -18.4173  -26.9148   23.0679 C   0  0  0  0  0  0  0  0  0  0  0  0
  -24.6178  -28.9076   23.1248 C   0  0  0  0  0  0  0  0  0  0  0  0
  -25.1761  -31.2069   21.3511 C   0  0  0  0  0  0  0  0  0  0  0  0
  -18.7941  -28.3878   23.2042 C   0  0  0  0  0  0  0  0  0  0  0  0
  -24.9493  -19.8864   20.7846 C   0  0  0  0  0  0  0  0  0  0  0  0
  -19.3841  -28.9108   21.8984 C   0  0  0  0  0  0  0  0  0  0  0  0
  -25.5596  -18.4830   20.7709 C   0  0  0  0  0  0  0  0  0  0  0  0
  -24.8607  -20.4801   19.3798 C   0  0  0  0  0  0  0  0  0  0  0  0
  -26.7295  -19.0717   18.6095 C   0  0  0  0  0  0  0  0  0  0  0  0
  -20.6684  -28.1572   21.5323 C   0  0  1  0  0  0  0  0  0  0  0  0
  -23.6287  -30.0582   22.9662 C   0  0  1  0  0  0  0  0  0  0  0  0
  -26.8992  -18.4584   20.0091 C   0  0  2  0  0  0  0  0  0  0  0  0
  -27.3524  -36.7522   24.1184 C   0  0  0  0  0  0  0  0  0  0  0  0
  -22.3636  -33.9364   20.7937 C   0  0  0  0  0  0  0  0  0  0  0  0
  -23.8691  -35.9066   21.1395 C   0  0  0  0  0  0  0  0  0  0  0  0
  -22.3578  -35.1563   22.9768 C   0  0  0  0  0  0  0  0  0  0  0  0
  -28.6391  -33.2667   24.9380 C   0  0  0  0  0  0  0  0  0  0  0  0
  -27.7218  -25.2356   14.5124 C   0  0  0  0  0  0  0  0  0  0  0  0
  -28.4635  -28.4497   16.3808 C   0  0  0  0  0  0  0  0  0  0  0  0
  -27.9630  -29.1694   17.6237 C   0  0  0  0  0  0  0  0  0  1  0  0
  -24.3842  -33.7623   22.3915 C   0  0  1  0  0  0  0  0  0  0  0  0
  -27.2380  -35.2598   24.3872 C   0  0  2  0  0  0  0  0  0  0  0  0
  -23.2545  -34.6647   21.8197 C   0  0  0  0  0  0  0  0  0  0  0  0
  -26.6547  -16.0069   19.9023 N   0  0  0  0  0  0  0  0  0  0  0  0
  -27.4870  -17.0609   19.9504 N   0  0  0  0  0  0  0  0  0  0  0  0
  -24.2672  -31.2931   22.5061 N   0  0  0  0  0  0  0  0  0  0  0  0
  -26.1674  -20.4269   18.7207 N   0  0  0  0  0  0  0  0  0  0  0  0
  -29.7790  -17.6579   19.9823 N   0  0  0  0  0  0  0  0  0  0  0  0
  -29.8798  -13.1470   19.7880 N   0  0  0  0  0  0  0  0  0  0  0  0
  -28.0192  -21.4490   17.6774 N   0  0  0  0  0  0  0  0  0  0  0  0
  -21.7786  -28.6338   22.3290 N   0  0  0  0  0  0  0  0  0  0  0  0
  -28.2259  -26.5038   14.9879 N   0  0  0  0  0  0  0  0  0  0  0  0
  -25.2269  -34.4177   23.3858 N   0  0  0  0  0  0  0  0  0  0  0  0
  -28.6049  -34.7210   24.6367 N   0  3  0  0  0  0  0  0  0  0  0  0
  -31.1763  -15.0357   19.8900 O   0  0  0  0  0  0  0  0  0  0  0  0
  -22.3656  -30.4628   21.0127 O   0  0  0  0  0  0  0  0  0  0  0  0
  -23.0864  -32.6206   24.0160 O   0  0  0  0  0  0  0  0  0  0  0  0
  -26.8554  -26.7007   16.8541 O   0  0  0  0  0  0  0  0  0  0  0  0
  -27.2303  -34.1213   22.2562 O   0  0  0  0  0  0  0  0  0  0  0  0
  -26.2113  -22.7148   18.3923 O   0  0  0  0  0  0  0  0  0  0  0  0
  -25.4613   -9.7580   19.6263 O   0  0  0  0  0  0  0  0  0  0  0  0
  -28.1992  -28.3539   18.7706 O   0  0  0  0  0  0  0  0  0  1  0  0
  -21.3062   -8.4644   23.0125 F   0  0  0  0  0  0  0  0  0  0  0  0
  -31.6805  -22.3951   14.7159 F   0  0  0  0  0  0  0  0  0  0  0  0
  -23.0573  -11.1177   19.5055 F   0  0  0  0  0  0  0  0  0  0  0  0
  1  2  1  0  0  0  0
  1  5  2  0  0  0  0
  2  6  2  0  0  0  0
  3  8  2  0  0  0  0
  3 18  1  0  0  0  0
  4  9  1  0  0  0  0
  4 18  2  0  0  0  0
  5 20  1  0  0  0  0
  6 22  1  0  0  0  0
  7 10  2  0  0  0  0
  7 21  1  0  0  0  0
  8 26  1  0  0  0  0
  9 26  2  0  0  0  0
 10 27  1  0  0  0  0
 11 12  2  0  0  0  0
 11 28  1  0  0  0  0
 12 29  1  0  0  0  0
 13 23  1  0  0  0  0
 13 27  2  0  0  0  0
 14 24  2  0  0  0  0
 14 25  1  0  0  0  0
 15 24  1  0  0  0  0
 15 30  2  0  0  0  0
 16 25  2  0  0  0  0
 16 30  1  0  0  0  0
 17 29  2  0  0  0  0
 17 31  1  0  0  0  0
 18 32  1  0  0  0  0
 19 32  1  0  0  0  0
 19 33  2  0  0  0  0
 19 34  1  0  0  0  0
 20 22  2  0  0  0  0
 20 40  1  0  0  0  0
 21 23  2  0  0  0  0
 21 41  1  0  0  0  0
 22 49  1  0  0  0  0
 23 42  1  0  0  0  0
 24 57  1  0  0  0  0
 25 69  1  0  0  0  0
 26 80  1  0  0  0  0
 27 81  1  0  0  0  0
 28 31  2  0  0  0  0
 28 80  1  0  0  0  0
 29 82  1  0  0  0  0
 30 83  1  0  0  0  0
 31 84  1  0  0  0  0
 32 63  2  0  0  0  0
 33 64  1  0  0  0  0
 33 67  1  0  0  0  0
 34 68  1  0  0  0  0
 34 74  2  0  0  0  0
 35 50  1  0  0  0  0
 35 70  1  0  0  0  0
 35 75  2  0  0  0  0
 36 60  1  0  0  0  0
 36 65  1  0  0  0  0
 36 76  2  0  0  0  0
 37 58  1  0  0  0  0
 37 71  1  0  0  0  0
 37 77  2  0  0  0  0
 38 61  1  0  0  0  0
 38 72  1  0  0  0  0
 38 78  2  0  0  0  0
 39 66  1  0  0  0  0
 39 69  1  0  0  0  0
 39 79  2  0  0  0  0
 40 43  1  0  0  0  0
 41 50  1  0  0  0  0
 42 65  1  0  0  0  0
 43 45  1  0  0  0  0
 44 46  1  0  0  0  0
 44 47  1  0  0  0  0
 45 49  1  0  0  0  0
 46 51  1  0  0  0  0
 47 66  1  0  0  0  0
 48 51  1  0  0  0  0
 48 66  1  0  0  0  0
 49 70  1  0  0  0  0
 50 65  1  0  0  0  0
 51 64  1  0  0  0  0
 52 61  1  0  0  0  0
 53 62  1  0  0  0  0
 54 62  1  0  0  0  0
 55 62  1  0  0  0  0
 56 73  1  0  0  0  0
 57 71  1  0  0  0  0
 58 59  1  0  0  0  0
 59 81  1  0  0  0  0
 60 62  1  0  0  0  0
 60 72  1  0  0  0  0
 61 73  1  0  0  0  0
 63 64  1  0  0  0  0
M  CHG  1  73   1
M  ISO  4  39 100  59 101  69 100  81 101
M  END
> <Batch ID>
0051

> <Smiles>
CNC(C)C(=O)NC(C(=O)N1Cc2cc([101O:1][101CH2:1]CC(=O)NCc3cc(F)cc([100NH:0][100C:0](=O)N4CCCC(n5nc(-c6ccc(Oc7ccc(F)cc7F)cc6)c(C(N)=O)c5N)C4)c3)ccc2CC1C(=O)NC1CCCc2ccccc21)C(C)(C)C

> <Shape>
0.255

> <Color>
0.115

> <Negative vol penalty>
0.000

$$$$

  -OEChem-04042322373D

 90 99  0     1  0  0  0  0  0999 V2000
  -39.3891  -28.4482   21.7721 C   0  0  0  0  0  0  0  0  0  0  0  0
  -38.2881  -27.5979   21.7623 C   0  0  0  0  0  0  0  0  0  0  0  0
  -22.6722  -10.1825   20.1917 C   0  0  0  0  0  0  0  0  0  0  0  0
  -24.3049   -9.4567   21.8180 C   0  0  0  0  0  0  0  0  0  0  0  0
  -40.6312  -27.9737   22.1918 C   0  0  0  0  0  0  0  0  0  0  0  0
  -38.4287  -26.2722   22.1710 C   0  0  0  0  0  0  0  0  0  0  0  0
  -34.6900  -24.7795   25.2432 C   0  0  0  0  0  0  0  0  0  0  0  0
  -21.9380   -9.0165   20.4084 C   0  0  0  0  0  0  0  0  0  0  0  0
  -23.5707   -8.2907   22.0347 C   0  0  0  0  0  0  0  0  0  0  0  0
  -33.4688  -24.4599   24.6513 C   0  0  0  0  0  0  0  0  0  0  0  0
  -20.8024   -7.3734   23.7423 C   0  0  0  0  0  0  0  0  0  0  0  0
  -20.6009   -6.9723   25.0630 C   0  0  0  0  0  0  0  0  0  0  0  0
  -34.0211  -22.1158   24.7918 C   0  0  0  0  0  0  0  0  0  0  0  0
  -31.9215  -18.2227   24.3038 C   0  0  0  0  0  0  0  0  0  0  0  0
  -32.0805  -16.5335   22.5839 C   0  0  0  0  0  0  0  0  0  0  0  0
  -21.7366   -4.8899   24.6037 C   0  0  0  0  0  0  0  0  0  0  0  0
  -23.8557  -10.4026   20.8965 C   0  0  0  0  0  0  0  0  0  0  0  0
  -24.1824  -12.9324   20.8653 C   0  0  0  0  0  0  0  0  0  0  0  0
  -40.7850  -26.6441   22.6150 C   0  0  0  0  0  0  0  0  0  0  0  0
  -35.5921  -23.7685   25.6045 C   0  0  0  0  0  0  0  0  0  0  0  0
  -39.6743  -25.7791   22.5955 C   0  0  0  0  0  0  0  0  0  0  0  0
  -35.2519  -22.4251   25.3905 C   0  0  0  0  0  0  0  0  0  0  0  0
  -32.6956  -17.3804   23.5059 C   0  0  0  0  0  0  0  0  0  0  0  0
  -30.5321  -18.2181   24.1799 C   0  0  0  0  0  0  0  0  0  0  0  0
  -29.9170  -17.3713   23.2579 C   0  0  0  0  0  0  0  0  0  0  0  0
  -30.6911  -16.5289   22.4599 C   0  0  0  0  0  0  0  0  0  0  0  0
  -22.3872   -8.0706   21.3299 C   0  0  0  0  0  0  0  0  0  0  0  0
  -33.1354  -23.1280   24.4229 C   0  0  0  0  0  0  0  0  0  0  0  0
  -21.4710   -6.5328   22.8523 C   0  0  0  0  0  0  0  0  0  0  0  0
  -21.0680   -5.7306   25.4937 C   0  0  0  0  0  0  0  0  0  0  0  0
  -21.9381   -5.2910   23.2830 C   0  0  0  0  0  0  0  0  0  0  0  0
  -24.6149  -11.6066   20.6727 C   0  0  0  0  0  0  0  0  0  0  0  0
  -25.2656  -13.7011   20.5155 C   0  0  0  0  0  0  0  0  0  0  0  0
  -28.3888  -21.1518   25.1895 C   0  0  0  0  0  0  0  0  0  0  0  0
  -22.9150  -13.4250   21.3200 C   0  0  0  0  0  0  0  0  0  0  0  0
  -27.0543  -21.0880   25.0682 C   0  0  0  0  0  0  0  0  0  0  0  0
  -38.5522  -22.9915   24.7455 C   0  0  0  0  0  0  0  0  0  0  0  0
  -38.2523  -20.8072   27.1249 C   0  0  0  0  0  0  0  0  0  0  0  0
  -35.7021  -18.5557   28.3266 C   0  0  0  0  0  0  0  0  0  0  0  0
  -30.7280  -14.7713   20.6555 C   0  0  0  0  0  0  0  0  0  0  0  0
  -42.1576  -26.1639   23.0151 C   0  0  0  0  0  0  0  0  0  0  0  0
  -36.8939  -24.1285   26.2665 C   0  0  0  0  0  0  0  0  0  0  0  0
  -36.1767  -21.3014   25.7785 C   0  0  0  0  0  0  0  0  0  0  0  0
  -29.0811  -22.0648   26.1647 C   0  0  0  0  0  0  0  0  0  0  0  0
  -42.1410  -24.8477   23.7882 C   0  0  0  0  0  0  0  0  0  0  0  0
  -30.1541  -22.8823   25.4557 C   0  0  0  0  0  0  0  0  0  0  0  0
  -29.5944  -12.4401   18.2148 C   0  0  0  0  0  0  0  0  0  0  0  0
  -41.2287  -23.8365   23.1011 C   0  0  0  0  0  0  0  0  0  0  0  0
  -28.1622  -12.1245   18.6525 C   0  0  0  0  0  0  0  0  0  0  0  0
  -30.5245  -12.6297   19.4117 C   0  0  0  0  0  0  0  0  0  0  0  0
  -28.6326  -13.2916   20.8442 C   0  0  0  0  0  0  0  0  0  0  0  0
  -30.2365  -21.1553   23.6185 C   0  0  0  0  0  0  0  0  0  0  0  0
  -39.7815  -24.3412   23.0550 C   0  0  1  0  0  0  0  0  0  0  0  0
  -37.9567  -23.0434   26.1241 C   0  0  1  0  0  0  0  0  0  0  0  0
  -27.6448  -13.1563   19.6739 C   0  0  2  0  0  0  0  0  0  0  0  0
  -31.0544  -21.9937   24.5976 C   0  0  1  0  0  0  0  0  0  1  0  0
  -34.1810  -17.3842   23.6395 C   0  0  0  0  0  0  0  0  0  0  0  0
  -26.3905  -20.1682   24.0871 C   0  0  0  0  0  0  0  0  0  0  0  0
  -26.1410  -21.9329   25.9058 C   0  0  0  0  0  0  0  0  0  0  0  0
  -27.9537  -18.1305   21.8957 C   0  0  0  0  0  0  0  0  0  0  0  0
  -35.3107  -17.6068   30.6166 C   0  0  0  0  0  0  0  0  0  0  0  0
  -39.8969  -18.4455   26.1110 C   0  0  0  0  0  0  0  0  0  0  0  0
  -38.3545  -16.9230   27.3646 C   0  0  0  0  0  0  0  0  0  0  0  0
  -39.7226  -18.6031   28.6009 C   0  0  0  0  0  0  0  0  0  0  0  0
  -32.9212  -19.5661   28.3968 C   0  0  0  0  0  0  0  0  0  0  0  0
  -28.4258  -17.3696   23.1295 C   0  0  0  0  0  0  0  0  0  0  0  0
  -29.7229  -19.1325   25.0516 C   0  0  0  0  0  0  0  0  0  0  0  0
  -37.7586  -19.3833   27.2130 C   0  0  1  0  0  0  0  0  0  0  0  0
  -34.9131  -18.6820   29.6174 C   0  0  2  0  0  0  0  0  0  0  0  0
  -38.9230  -18.3568   27.3029 C   0  0  0  0  0  0  0  0  0  0  0  0
  -25.8744  -11.5336   20.2343 N   0  0  0  0  0  0  0  0  0  0  0  0
  -26.2427  -12.8232   20.1484 N   0  0  0  0  0  0  0  0  0  0  0  0
  -37.4405  -21.7047   26.4169 N   0  0  0  0  0  0  0  0  0  0  0  0
  -29.9720  -13.6242   20.3340 N   0  0  0  0  0  0  0  0  0  0  0  0
  -25.4679  -15.0356   20.4889 N   0  0  0  0  0  0  0  0  0  0  0  0
  -21.9126  -12.4981   21.6369 N   0  0  0  0  0  0  0  0  0  0  0  0
  -30.0869  -15.6617   21.5162 N   0  0  0  0  0  0  0  0  0  0  0  0
  -39.1462  -24.1729   24.3444 N   0  0  0  0  0  0  0  0  0  0  0  0
  -36.8357  -19.3404   28.3421 N   0  0  0  0  0  0  0  0  0  0  0  0
  -29.1839  -20.3263   24.3131 N   0  3  1  0  0  0  0  0  0  0  0  0
  -33.4531  -18.5551   29.3465 N   0  3  0  0  0  0  0  0  0  0  0  0
  -22.6730  -14.6513   21.4260 O   0  0  0  0  0  0  0  0  0  0  0  0
  -38.4795  -21.9558   24.0946 O   0  0  0  0  0  0  0  0  0  0  0  0
  -39.3155  -21.1135   27.6704 O   0  0  0  0  0  0  0  0  0  0  0  0
  -35.3501  -17.8303   27.3990 O   0  0  0  0  0  0  0  0  0  0  0  0
  -31.8497  -14.9637   20.1794 O   0  0  0  0  0  0  0  0  0  0  0  0
  -21.6709   -6.9328   21.5417 O   0  0  0  0  0  0  0  0  0  0  0  0
  -31.9444  -22.8133   23.8447 O   0  0  0  0  0  0  0  0  0  1  0  0
  -20.8758   -5.3461   26.7623 F   0  0  0  0  0  0  0  0  0  0  0  0
  -22.5821   -4.4796   22.4329 F   0  0  0  0  0  0  0  0  0  0  0  0
  1  2  1  0  0  0  0
  1  5  2  0  0  0  0
  2  6  2  0  0  0  0
  3  8  2  0  0  0  0
  3 17  1  0  0  0  0
  4  9  1  0  0  0  0
  4 17  2  0  0  0  0
  5 19  1  0  0  0  0
  6 21  1  0  0  0  0
  7 10  2  0  0  0  0
  7 20  1  0  0  0  0
  8 27  1  0  0  0  0
  9 27  2  0  0  0  0
 10 28  1  0  0  0  0
 11 12  2  0  0  0  0
 11 29  1  0  0  0  0
 12 30  1  0  0  0  0
 13 22  1  0  0  0  0
 13 28  2  0  0  0  0
 14 23  1  0  0  0  0
 14 24  2  0  0  0  0
 15 23  2  0  0  0  0
 15 26  1  0  0  0  0
 16 30  2  0  0  0  0
 16 31  1  0  0  0  0
 17 32  1  0  0  0  0
 18 32  1  0  0  0  0
 18 33  2  0  0  0  0
 18 35  1  0  0  0  0
 19 21  2  0  0  0  0
 19 41  1  0  0  0  0
 20 22  2  0  0  0  0
 20 42  1  0  0  0  0
 21 53  1  0  0  0  0
 22 43  1  0  0  0  0
 23 57  1  0  0  0  0
 24 25  1  0  0  0  0
 24 67  1  0  0  0  0
 25 26  2  0  0  0  0
 25 66  1  0  0  0  0
 26 77  1  0  0  0  0
 27 87  1  0  0  0  0
 28 88  1  0  0  0  0
 29 31  2  0  0  0  0
 29 87  1  0  0  0  0
 30 89  1  0  0  0  0
 31 90  1  0  0  0  0
 32 71  2  0  0  0  0
 33 72  1  0  0  0  0
 33 75  1  0  0  0  0
 34 36  2  0  0  0  0
 34 44  1  0  0  0  0
 34 80  1  0  0  0  0
 35 76  1  0  0  0  0
 35 82  2  0  0  0  0
 36 58  1  0  0  0  0
 36 59  1  0  0  0  0
 37 54  1  0  0  0  0
 37 78  1  0  0  0  0
 37 83  2  0  0  0  0
 38 68  1  0  0  0  0
 38 73  1  0  0  0  0
 38 84  2  0  0  0  0
 39 69  1  0  0  0  0
 39 79  1  0  0  0  0
 39 85  2  0  0  0  0
 40 74  1  0  0  0  0
 40 77  1  0  0  0  0
 40 86  2  0  0  0  0
 41 45  1  0  0  0  0
 42 54  1  0  0  0  0
 43 73  1  0  0  0  0
 44 46  1  0  0  0  0
 45 48  1  0  0  0  0
 46 56  1  0  0  0  0
 47 49  1  0  0  0  0
 47 50  1  0  0  0  0
 48 53  1  0  0  0  0
 49 55  1  0  0  0  0
 50 74  1  0  0  0  0
 51 55  1  0  0  0  0
 51 74  1  0  0  0  0
 52 56  1  0  0  0  0
 52 80  1  0  0  0  0
 53 78  1  0  0  0  0
 54 73  1  0  0  0  0
 55 72  1  0  0  0  0
 56 88  1  0  0  0  0
 60 66  1  0  0  0  0
 61 69  1  0  0  0  0
 62 70  1  0  0  0  0
 63 70  1  0  0  0  0
 64 70  1  0  0  0  0
 65 81  1  0  0  0  0
 67 80  1  0  0  0  0
 68 70  1  0  0  0  0
 68 79  1  0  0  0  0
 69 81  1  0  0  0  0
 71 72  1  0  0  0  0
M  CHG  2  80   1  81   1
M  ISO  4  40 100  56 101  77 100  88 101
M  END
> <Batch ID>
0051

> <Smiles>
CCc1c(CN2C[101CH:1]([101O:1]c3ccc4c(c3)CN(C(=O)C(NC(=O)C(C)NC)C(C)(C)C)C(C(=O)NC3CCCc5ccccc53)C4)CCC2=C(C)C)cc(C)cc1[100NH:0][100C:0](=O)N1CCCC(n2nc(-c3ccc(Oc4ccc(F)cc4F)cc3)c(C(N)=O)c2N)C1

> <Shape>
0.184

> <Color>
0.184

> <Negative vol penalty>
0.000

$$$$

  -OEChem-04042322373D

 87 95  0     1  0  0  0  0  0999 V2000
  -21.7993  -11.5950   19.2715 C   0  0  0  0  0  0  0  0  0  0  0  0
  -21.5330  -12.8991   19.6765 C   0  0  0  0  0  0  0  0  0  0  0  0
  -29.0714  -26.2341   19.1484 C   0  0  0  0  0  0  0  0  0  0  0  0
  -28.4439  -27.3438   21.2007 C   0  0  0  0  0  0  0  0  0  0  0  0
  -23.0627  -11.0447   19.4836 C   0  0  0  0  0  0  0  0  0  0  0  0
  -22.5298  -13.6532   20.2948 C   0  0  0  0  0  0  0  0  0  0  0  0
  -23.4356  -19.6879   19.7769 C   0  0  0  0  0  0  0  0  0  0  0  0
  -18.2686  -28.8743   23.1549 C   0  0  0  0  0  0  0  0  0  0  0  0
  -30.4074  -26.5614   19.3799 C   0  0  0  0  0  0  0  0  0  0  0  0
  -29.7799  -27.6710   21.4323 C   0  0  0  0  0  0  0  0  0  0  0  0
  -23.0790  -20.7630   20.5897 C   0  0  0  0  0  0  0  0  0  0  0  0
  -32.5556  -26.1295   22.5897 C   0  0  0  0  0  0  0  0  0  0  0  0
  -17.2866  -27.9048   23.3580 C   0  0  0  0  0  0  0  0  0  0  0  0
  -33.0557  -25.9330   23.8769 C   0  0  0  0  0  0  0  0  0  0  0  0
  -25.2633  -20.7067   21.6121 C   0  0  0  0  0  0  0  0  0  0  0  0
  -18.9412  -26.4306   24.3204 C   0  0  0  0  0  0  0  0  0  0  0  0
  -33.5700  -28.2882   24.0367 C   0  0  0  0  0  0  0  0  0  0  0  0
  -28.0896  -26.6254   20.0588 C   0  0  0  0  0  0  0  0  0  0  0  0
  -26.1596  -24.9989   19.6888 C   0  0  0  0  0  0  0  0  0  0  0  0
  -24.0783  -11.7957   20.0961 C   0  0  0  0  0  0  0  0  0  0  0  0
  -24.7071  -19.1061   19.8834 C   0  0  0  0  0  0  0  0  0  0  0  0
  -23.8075  -13.1119   20.5165 C   0  0  0  0  0  0  0  0  0  0  0  0
  -25.6344  -19.6259   20.7977 C   0  0  0  0  0  0  0  0  0  0  0  0
  -19.5870  -28.6220   23.5344 C   0  0  0  0  0  0  0  0  0  0  0  0
  -19.9232  -27.4001   24.1172 C   0  0  0  0  0  0  0  0  0  0  0  0
  -30.7617  -27.2798   20.5218 C   0  0  0  0  0  0  0  0  0  0  0  0
  -23.9919  -21.2708   21.5095 C   0  0  0  0  0  0  0  0  0  0  0  0
  -32.5628  -27.4054   22.0259 C   0  0  0  0  0  0  0  0  0  0  0  0
  -17.6229  -26.6829   23.9408 C   0  0  0  0  0  0  0  0  0  0  0  0
  -33.5629  -27.0124   24.6004 C   0  0  0  0  0  0  0  0  0  0  0  0
  -33.0700  -28.4848   22.7494 C   0  0  0  0  0  0  0  0  0  0  0  0
  -26.7093  -26.2882   19.8199 C   0  0  0  0  0  0  0  0  0  0  0  0
  -24.8205  -25.2167   19.4742 C   0  0  0  0  0  0  0  0  0  0  0  0
  -21.5143  -24.2269   24.2287 C   0  0  0  0  0  0  0  0  0  0  0  0
  -22.1704  -23.0799   24.0033 C   0  0  0  0  0  0  0  0  0  0  0  0
  -26.8019  -23.7187   19.7551 C   0  0  0  0  0  0  0  0  0  0  0  0
  -21.4816  -24.8085   25.6017 C   0  0  0  0  0  0  0  0  0  0  0  0
  -25.7966  -16.2226   20.6594 C   0  0  0  0  0  0  0  0  0  0  0  0
  -28.6526  -17.4987   19.8009 C   0  0  0  0  0  0  0  0  0  0  0  0
  -30.5641  -20.2921   19.3654 C   0  0  0  0  0  0  0  0  0  0  0  0
  -21.1469  -29.7307   20.8811 C   0  0  0  0  0  0  0  0  0  0  0  0
  -25.4140  -11.1418   20.3468 C   0  0  0  0  0  0  0  0  0  0  0  0
  -25.0855  -17.9640   18.9807 C   0  0  0  0  0  0  0  0  0  0  0  0
  -27.0191  -19.0501   20.9368 C   0  0  0  0  0  0  0  0  0  0  0  0
  -26.5272  -12.1350   20.6704 C   0  0  0  0  0  0  0  0  0  0  0  0
  -21.7989  -28.4350   17.6295 C   0  0  0  0  0  0  0  0  0  0  0  0
  -26.0516  -13.1521   21.7030 C   0  0  0  0  0  0  0  0  0  0  0  0
  -23.0817  -27.6215   17.8103 C   0  0  0  0  0  0  0  0  0  0  0  0
  -21.8031  -29.6947   18.4927 C   0  0  0  0  0  0  0  0  0  0  0  0
  -23.3440  -28.6490   20.1069 C   0  0  0  0  0  0  0  0  0  0  0  0
  -24.8700  -13.9701   21.1681 C   0  0  1  0  0  0  0  0  0  0  0  0
  -26.2290  -17.1189   19.5337 C   0  0  1  0  0  0  0  0  0  0  0  0
  -23.3621  -27.3402   19.2988 C   0  0  2  0  0  0  0  0  0  0  0  0
  -32.5492  -21.6742   18.6970 C   0  0  0  0  0  0  0  0  0  0  0  0
  -29.7184  -16.6284   22.5242 C   0  0  0  0  0  0  0  0  0  0  0  0
  -31.6585  -18.1733   22.1808 C   0  0  0  0  0  0  0  0  0  0  0  0
  -31.2975  -16.2611   20.6200 C   0  0  0  0  0  0  0  0  0  0  0  0
  -21.3848  -26.8453   26.9869 C   0  0  0  0  0  0  0  0  0  0  0  0
  -29.5474  -20.6280   16.6063 C   0  0  0  0  0  0  0  0  0  0  0  0
  -20.6211  -29.6750   23.3059 C   0  0  0  0  0  0  0  0  0  0  0  0
  -21.3356  -27.1048   24.5322 C   0  0  0  0  0  0  0  0  0  0  0  0
  -22.2683  -22.4428   22.6547 C   0  0  0  0  0  0  0  0  0  1  0  0
  -29.7451  -18.2540   20.5185 C   0  0  1  0  0  0  0  0  0  0  0  0
  -31.4531  -20.7354   18.2175 C   0  0  2  0  0  0  0  0  0  0  0  0
  -30.5782  -17.3390   21.4599 C   0  0  0  0  0  0  0  0  0  0  0  0
  -25.7943  -27.2536   19.6985 N   0  0  0  0  0  0  0  0  0  0  0  0
  -24.6561  -26.5705   19.4888 N   0  0  0  0  0  0  0  0  0  0  0  0
  -27.3395  -17.9302   20.0364 N   0  0  0  0  0  0  0  0  0  0  0  0
  -22.0730  -29.3586   19.8927 N   0  0  0  0  0  0  0  0  0  0  0  0
  -23.7796  -24.3803   19.2761 N   0  0  0  0  0  0  0  0  0  0  0  0
  -27.3022  -23.1601   18.5711 N   0  0  0  0  0  0  0  0  0  0  0  0
  -25.3342  -14.9868   20.2487 N   0  0  0  0  0  0  0  0  0  0  0  0
  -30.5294  -18.9187   19.4835 N   0  0  0  0  0  0  0  0  0  0  0  0
  -21.4766  -29.3680   22.1813 N   0  0  0  0  0  0  0  0  0  0  0  0
  -21.3909  -26.2012   25.6798 N   0  0  0  0  0  0  0  0  0  0  0  0
  -30.6478  -21.4431   17.1822 N   0  3  0  0  0  0  0  0  0  0  0  0
  -26.9139  -23.0815   20.8298 O   0  0  0  0  0  0  0  0  0  0  0  0
  -21.5588  -24.0663   26.5819 O   0  0  0  0  0  0  0  0  0  0  0  0
  -25.8779  -16.6219   21.8150 O   0  0  0  0  0  0  0  0  0  0  0  0
  -28.9537  -16.5649   19.0532 O   0  0  0  0  0  0  0  0  0  0  0  0
  -29.9638  -21.0849   20.0876 O   0  0  0  0  0  0  0  0  0  0  0  0
  -20.1010  -30.3361   20.6233 O   0  0  0  0  0  0  0  0  0  0  0  0
  -32.0653  -27.5990   20.7482 O   0  0  0  0  0  0  0  0  0  0  0  0
  -23.6462  -22.3197   22.3045 O   0  0  0  0  0  0  0  0  0  1  0  0
  -16.6799  -25.7521   24.1365 F   0  0  0  0  0  0  0  0  0  0  0  0
  -34.0417  -26.8238   25.8371 F   0  0  0  0  0  0  0  0  0  0  0  0
  -33.0784  -29.7130   22.2136 F   0  0  0  0  0  0  0  0  0  0  0  0
  1  2  1  0  0  0  0
  1  5  2  0  0  0  0
  2  6  2  0  0  0  0
  3  9  2  0  0  0  0
  3 18  1  0  0  0  0
  4 10  1  0  0  0  0
  4 18  2  0  0  0  0
  5 20  1  0  0  0  0
  6 22  1  0  0  0  0
  7 11  2  0  0  0  0
  7 21  1  0  0  0  0
  8 13  2  0  0  0  0
  8 24  1  0  0  0  0
  9 26  1  0  0  0  0
 10 26  2  0  0  0  0
 11 27  1  0  0  0  0
 12 14  2  0  0  0  0
 12 28  1  0  0  0  0
 13 29  1  0  0  0  0
 14 30  1  0  0  0  0
 15 23  1  0  0  0  0
 15 27  2  0  0  0  0
 16 25  1  0  0  0  0
 16 29  2  0  0  0  0
 17 30  2  0  0  0  0
 17 31  1  0  0  0  0
 18 32  1  0  0  0  0
 19 32  1  0  0  0  0
 19 33  2  0  0  0  0
 19 36  1  0  0  0  0
 20 22  2  0  0  0  0
 20 42  1  0  0  0  0
 21 23  2  0  0  0  0
 21 43  1  0  0  0  0
 22 51  1  0  0  0  0
 23 44  1  0  0  0  0
 24 25  2  0  0  0  0
 24 60  1  0  0  0  0
 25 61  1  0  0  0  0
 26 83  1  0  0  0  0
 27 84  1  0  0  0  0
 28 31  2  0  0  0  0
 28 83  1  0  0  0  0
 29 85  1  0  0  0  0
 30 86  1  0  0  0  0
 31 87  1  0  0  0  0
 32 66  2  0  0  0  0
 33 67  1  0  0  0  0
 33 70  1  0  0  0  0
 34 35  2  0  0  0  0
 34 37  1  0  0  0  0
 35 62  1  0  0  0  0
 36 71  1  0  0  0  0
 36 77  2  0  0  0  0
 37 75  1  0  0  0  0
 37 78  2  0  0  0  0
 38 52  1  0  0  0  0
 38 72  1  0  0  0  0
 38 79  2  0  0  0  0
 39 63  1  0  0  0  0
 39 68  1  0  0  0  0
 39 80  2  0  0  0  0
 40 64  1  0  0  0  0
 40 73  1  0  0  0  0
 40 81  2  0  0  0  0
 41 69  1  0  0  0  0
 41 74  1  0  0  0  0
 41 82  2  0  0  0  0
 42 45  1  0  0  0  0
 43 52  1  0  0  0  0
 44 68  1  0  0  0  0
 45 47  1  0  0  0  0
 46 48  1  0  0  0  0
 46 49  1  0  0  0  0
 47 51  1  0  0  0  0
 48 53  1  0  0  0  0
 49 69  1  0  0  0  0
 50 53  1  0  0  0  0
 50 69  1  0  0  0  0
 51 72  1  0  0  0  0
 52 68  1  0  0  0  0
 53 67  1  0  0  0  0
 54 64  1  0  0  0  0
 55 65  1  0  0  0  0
 56 65  1  0  0  0  0
 57 65  1  0  0  0  0
 58 75  1  0  0  0  0
 59 76  1  0  0  0  0
 60 74  1  0  0  0  0
 61 75  1  0  0  0  0
 62 84  1  0  0  0  0
 63 65  1  0  0  0  0
 63 73  1  0  0  0  0
 64 76  1  0  0  0  0
 66 67  1  0  0  0  0
M  CHG  1  76   1
M  ISO  4  41 100  62 101  74 100  84 101
M  END
> <Batch ID>
0051

> <Smiles>
CNC(C)C(=O)NC(C(=O)N1Cc2cc([101O:1][101CH2:1]C=CC(=O)N(C)Cc3cc(F)ccc3C[100NH:0][100C:0](=O)N3CCCC(n4nc(-c5ccc(Oc6ccc(F)cc6F)cc5)c(C(N)=O)c4N)C3)ccc2CC1C(=O)NC1CCCc2ccccc21)C(C)(C)C

> <Shape>
0.213

> <Color>
0.068

> <Negative vol penalty>
0.000

$$$$

  -OEChem-04042322373D

 91100  0     1  0  0  0  0  0999 V2000
  -27.7813  -29.9723   17.0203 C   0  0  0  0  0  0  0  0  0  0  0  0
  -27.6611  -28.5871   16.9750 C   0  0  0  0  0  0  0  0  0  0  0  0
  -30.1209  -20.3216   20.9118 C   0  0  0  0  0  0  0  0  0  0  0  0
  -27.7910  -19.9516   20.3903 C   0  0  0  0  0  0  0  0  0  0  0  0
  -27.2925  -30.6778   18.1190 C   0  0  0  0  0  0  0  0  0  0  0  0
  -27.0529  -27.9064   18.0292 C   0  0  0  0  0  0  0  0  0  0  0  0
  -23.0214  -22.1370   19.3626 C   0  0  0  0  0  0  0  0  0  0  0  0
  -30.1012  -21.4992   20.1646 C   0  0  0  0  0  0  0  0  0  0  0  0
  -27.7713  -21.1294   19.6431 C   0  0  0  0  0  0  0  0  0  0  0  0
  -22.9960  -21.0057   20.1770 C   0  0  0  0  0  0  0  0  0  0  0  0
  -29.0413  -24.6852   20.5640 C   0  0  0  0  0  0  0  0  0  0  0  0
  -29.6416  -25.8152   21.1191 C   0  0  0  0  0  0  0  0  0  0  0  0
  -22.1176  -22.3362   21.9874 C   0  0  0  0  0  0  0  0  0  0  0  0
  -22.8438  -14.3738   22.9284 C   0  0  0  0  0  0  0  0  0  0  0  0
  -21.5373  -13.9056   20.9509 C   0  0  0  0  0  0  0  0  0  0  0  0
  -31.1679  -25.9229   19.2493 C   0  0  0  0  0  0  0  0  0  0  0  0
  -28.9658  -19.5477   21.0246 C   0  0  0  0  0  0  0  0  0  0  0  0
  -29.2819  -18.1972   23.1656 C   0  0  0  0  0  0  0  0  0  0  0  0
  -26.6693  -30.0063   19.1827 C   0  0  0  0  0  0  0  0  0  0  0  0
  -22.6047  -23.3807   19.8586 C   0  0  0  0  0  0  0  0  0  0  0  0
  -26.5565  -28.6034   19.1438 C   0  0  0  0  0  0  0  0  0  0  0  0
  -22.1363  -23.4812   21.1764 C   0  0  0  0  0  0  0  0  0  0  0  0
  -22.6625  -13.6666   21.7399 C   0  0  0  0  0  0  0  0  0  0  0  0
  -21.9000  -15.3201   23.3279 C   0  0  0  0  0  0  0  0  0  0  0  0
  -20.5935  -14.8518   21.3503 C   0  0  0  0  0  0  0  0  0  0  0  0
  -28.9264  -21.9032   19.5303 C   0  0  0  0  0  0  0  0  0  0  0  0
  -22.5467  -21.1057   21.4905 C   0  0  0  0  0  0  0  0  0  0  0  0
  -29.5043  -24.1739   19.3515 C   0  0  0  0  0  0  0  0  0  0  0  0
  -30.7049  -26.4341   20.4618 C   0  0  0  0  0  0  0  0  0  0  0  0
  -30.5676  -24.7928   18.6942 C   0  0  0  0  0  0  0  0  0  0  0  0
  -20.7749  -15.5591   22.5388 C   0  0  0  0  0  0  0  0  0  0  0  0
  -28.9857  -18.3308   21.7958 C   0  0  0  0  0  0  0  0  0  0  0  0
  -29.1650  -16.8511   23.4124 C   0  0  0  0  0  0  0  0  0  0  0  0
  -21.8530  -18.4865   24.9061 C   0  0  0  0  0  0  0  0  0  0  0  0
  -29.6313  -19.2002   24.1287 C   0  0  0  0  0  0  0  0  0  0  0  0
  -24.0037  -26.1992   20.3083 C   0  0  0  0  0  0  0  0  0  0  0  0
  -20.9952  -27.1306   21.0855 C   0  0  0  0  0  0  0  0  0  0  0  0
  -17.8871  -26.2579   22.1922 C   0  0  0  0  0  0  0  0  0  0  0  0
  -26.0798  -12.4688   20.7426 C   0  0  0  0  0  0  0  0  0  0  0  0
  -26.1988  -30.8074   20.3708 C   0  0  0  0  0  0  0  0  0  0  0  0
  -22.6132  -24.5862   18.9591 C   0  0  0  0  0  0  0  0  0  0  0  0
  -21.6590  -24.7892   21.7507 C   0  0  0  0  0  0  0  0  0  0  0  0
  -22.4122  -19.8834   24.6955 C   0  0  0  0  0  0  0  0  0  0  0  0
  -25.2323  -30.0462   21.2745 C   0  0  0  0  0  0  0  0  0  0  0  0
  -29.5995  -12.5986   21.2635 C   0  0  0  0  0  0  0  0  0  0  0  0
  -25.7562  -28.6409   21.5529 C   0  0  0  0  0  0  0  0  0  0  0  0
  -29.8681  -14.0704   21.5825 C   0  0  0  0  0  0  0  0  0  0  0  0
  -24.3433  -18.9421   23.4478 C   0  0  0  0  0  0  0  0  0  0  0  0
  -28.5001  -12.4398   20.2156 C   0  0  0  0  0  0  0  0  0  0  0  0
  -23.6718  -17.5802   23.4184 C   0  0  0  0  0  0  0  0  0  0  0  0
  -27.5051  -14.6025   20.8531 C   0  0  0  0  0  0  0  0  0  0  0  0
  -25.8808  -27.8316   20.2564 C   0  0  1  0  0  0  0  0  0  0  0  0
  -22.6501  -25.9041   19.7266 C   0  0  1  0  0  0  0  0  0  0  0  0
  -28.5674  -14.8117   21.9459 C   0  0  2  0  0  0  0  0  0  0  0  0
  -23.3033  -20.0455   23.4775 C   0  0  1  0  0  0  0  0  0  1  0  0
  -15.6508  -27.2431   22.7630 C   0  0  0  0  0  0  0  0  0  0  0  0
  -22.1369  -28.1979   23.7060 C   0  0  0  0  0  0  0  0  0  0  0  0
  -19.8022  -28.2881   24.6056 C   0  0  0  0  0  0  0  0  0  0  0  0
  -20.4310  -29.6779   22.6319 C   0  0  0  0  0  0  0  0  0  0  0  0
  -16.5204  -24.6539   20.1142 C   0  0  0  0  0  0  0  0  0  0  0  0
  -22.1364  -16.0571   24.6144 C   0  0  0  0  0  0  0  0  0  0  0  0
  -23.6716  -12.6549   21.3128 C   0  0  0  0  0  0  0  0  0  0  0  0
  -20.1856  -27.1764   22.3588 C   0  0  1  0  0  0  0  0  0  0  0  0
  -16.5011  -26.6020   21.6773 C   0  0  2  0  0  0  0  0  0  0  0  0
  -19.4033  -15.0748   20.4735 C   0  0  0  0  0  0  0  0  0  0  0  0
  -20.6497  -28.3107   23.3157 C   0  0  0  0  0  0  0  0  0  0  0  0
  -28.7022  -17.1628   21.2133 N   0  0  0  0  0  0  0  0  0  0  0  0
  -28.8198  -16.2824   22.2218 N   0  0  0  0  0  0  0  0  0  0  0  0
  -22.5867  -17.4236   24.3851 N   0  0  0  0  0  0  0  0  0  0  0  0
  -21.6924  -25.9405   20.8337 N   0  0  0  0  0  0  0  0  0  0  0  0
  -27.2937  -13.1651   20.6212 N   0  0  0  0  0  0  0  0  0  0  0  0
  -29.3251  -16.1104   24.5296 N   0  0  0  0  0  0  0  0  0  0  0  0
  -28.6024  -19.8209   24.8502 N   0  0  0  0  0  0  0  0  0  0  0  0
  -24.5814  -27.3592   19.8286 N   0  0  0  0  0  0  0  0  0  0  0  0
  -18.7882  -27.2733   21.9508 N   0  0  0  0  0  0  0  0  0  0  0  0
  -24.9867  -13.2301   21.1379 N   0  0  0  0  0  0  0  0  0  0  0  0
  -15.8060  -25.3732   21.2002 N   0  3  0  0  0  0  0  0  0  0  0  0
  -20.8305  -18.3519   25.5847 O   0  0  0  0  0  0  0  0  0  0  0  0
  -30.8194  -19.5477   24.3315 O   0  0  0  0  0  0  0  0  0  0  0  0
  -24.4874  -25.4322   21.1325 O   0  0  0  0  0  0  0  0  0  0  0  0
  -21.0028  -28.1119   20.3380 O   0  0  0  0  0  0  0  0  0  0  0  0
  -18.1437  -25.1963   22.7558 O   0  0  0  0  0  0  0  0  0  0  0  0
  -25.9789  -11.2574   20.5207 O   0  0  0  0  0  0  0  0  0  0  0  0
  -28.9067  -23.0524   18.8013 O   0  0  0  0  0  0  0  0  0  0  0  0
  -22.5214  -20.0032   22.2878 O   0  0  0  0  0  0  0  0  0  1  0  0
  -31.2803  -27.5202   20.9942 F   0  0  0  0  0  0  0  0  0  0  0  0
  -31.0160  -24.3069   17.5286 F   0  0  0  0  0  0  0  0  0  0  0  0
  -19.3975  -14.2930   19.3552 F   0  0  0  0  0  0  0  0  0  0  0  0
  -18.2155  -14.8212   21.0952 F   0  0  0  0  0  0  0  0  0  0  0  0
  -19.3188  -16.3600   20.0259 F   0  0  0  0  0  0  0  0  0  0  0  0
  -19.6030  -16.7337   23.0349 Cl  0  0  0  0  0  0  0  0  0  0  0  0
  1  2  1  0  0  0  0
  1  5  2  0  0  0  0
  2  6  2  0  0  0  0
  3  8  2  0  0  0  0
  3 17  1  0  0  0  0
  4  9  1  0  0  0  0
  4 17  2  0  0  0  0
  5 19  1  0  0  0  0
  6 21  1  0  0  0  0
  7 10  2  0  0  0  0
  7 20  1  0  0  0  0
  8 26  1  0  0  0  0
  9 26  2  0  0  0  0
 10 27  1  0  0  0  0
 11 12  2  0  0  0  0
 11 28  1  0  0  0  0
 12 29  1  0  0  0  0
 13 22  1  0  0  0  0
 13 27  2  0  0  0  0
 14 23  2  0  0  0  0
 14 24  1  0  0  0  0
 15 23  1  0  0  0  0
 15 25  2  0  0  0  0
 16 29  2  0  0  0  0
 16 30  1  0  0  0  0
 17 32  1  0  0  0  0
 18 32  1  0  0  0  0
 18 33  2  0  0  0  0
 18 35  1  0  0  0  0
 19 21  2  0  0  0  0
 19 40  1  0  0  0  0
 20 22  2  0  0  0  0
 20 41  1  0  0  0  0
 21 52  1  0  0  0  0
 22 42  1  0  0  0  0
 23 62  1  0  0  0  0
 24 31  2  0  0  0  0
 24 61  1  0  0  0  0
 25 31  1  0  0  0  0
 25 65  1  0  0  0  0
 26 84  1  0  0  0  0
 27 85  1  0  0  0  0
 28 30  2  0  0  0  0
 28 84  1  0  0  0  0
 29 86  1  0  0  0  0
 30 87  1  0  0  0  0
 31 91  1  0  0  0  0
 32 67  2  0  0  0  0
 33 68  1  0  0  0  0
 33 72  1  0  0  0  0
 34 43  1  0  0  0  0
 34 69  1  0  0  0  0
 34 78  2  0  0  0  0
 35 73  1  0  0  0  0
 35 79  2  0  0  0  0
 36 53  1  0  0  0  0
 36 74  1  0  0  0  0
 36 80  2  0  0  0  0
 37 63  1  0  0  0  0
 37 70  1  0  0  0  0
 37 81  2  0  0  0  0
 38 64  1  0  0  0  0
 38 75  1  0  0  0  0
 38 82  2  0  0  0  0
 39 71  1  0  0  0  0
 39 76  1  0  0  0  0
 39 83  2  0  0  0  0
 40 44  1  0  0  0  0
 41 53  1  0  0  0  0
 42 70  1  0  0  0  0
 43 55  1  0  0  0  0
 44 46  1  0  0  0  0
 45 47  1  0  0  0  0
 45 49  1  0  0  0  0
 46 52  1  0  0  0  0
 47 54  1  0  0  0  0
 48 50  1  0  0  0  0
 48 55  1  0  0  0  0
 49 71  1  0  0  0  0
 50 69  1  0  0  0  0
 51 54  1  0  0  0  0
 51 71  1  0  0  0  0
 52 74  1  0  0  0  0
 53 70  1  0  0  0  0
 54 68  1  0  0  0  0
 55 85  1  0  0  0  0
 56 64  1  0  0  0  0
 57 66  1  0  0  0  0
 58 66  1  0  0  0  0
 59 66  1  0  0  0  0
 60 77  1  0  0  0  0
 61 69  1  0  0  0  0
 62 76  1  0  0  0  0
 63 66  1  0  0  0  0
 63 75  1  0  0  0  0
 64 77  1  0  0  0  0
 65 88  1  0  0  0  0
 65 89  1  0  0  0  0
 65 90  1  0  0  0  0
 67 68  1  0  0  0  0
M  CHG  1  77   1
M  ISO  4  39 100  55 101  76 100  85 101
M  END
> <Batch ID>
0051

> <Smiles>
CNC(C)C(=O)NC(C(=O)N1Cc2cc([101O:1][101CH:1]3CCN(Cc4cc(C[100NH:0][100C:0](=O)N5CCCC(n6nc(-c7ccc(Oc8ccc(F)cc8F)cc7)c(C(N)=O)c6N)C5)cc(C(F)(F)F)c4Cl)C(=O)C3)ccc2CC1C(=O)NC1CCCc2ccccc21)C(C)(C)C

> <Shape>
0.240

> <Color>
0.042

> <Negative vol penalty>
0.000

$$$$

  -OEChem-04042322373D

 88 97  0     1  0  0  0  0  0999 V2000
  -23.7327   -8.8128   21.0501 C   0  0  0  0  0  0  0  0  0  0  0  0
  -24.8435   -9.4819   20.5461 C   0  0  0  0  0  0  0  0  0  0  0  0
  -20.6384  -27.1682   21.4819 C   0  0  0  0  0  0  0  0  0  0  0  0
  -20.0749  -27.9952   23.6809 C   0  0  0  0  0  0  0  0  0  0  0  0
  -22.6207   -9.5357   21.4799 C   0  0  0  0  0  0  0  0  0  0  0  0
  -24.8424  -10.8743   20.4707 C   0  0  0  0  0  0  0  0  0  0  0  0
  -29.2561  -16.4953   20.9607 C   0  0  0  0  0  0  0  0  0  0  0  0
  -31.1665  -26.7726   22.4756 C   0  0  0  0  0  0  0  0  0  0  0  0
  -31.3923  -25.5666   21.8122 C   0  0  0  0  0  0  0  0  0  0  0  0
  -19.2970  -27.2480   21.1081 C   0  0  0  0  0  0  0  0  0  0  0  0
  -18.7334  -28.0751   23.3071 C   0  0  0  0  0  0  0  0  0  0  0  0
  -29.6274  -17.6380   20.2535 C   0  0  0  0  0  0  0  0  0  0  0  0
  -16.7660  -30.1675   21.5263 C   0  0  0  0  0  0  0  0  0  0  0  0
  -16.0663  -31.3237   21.8716 C   0  0  0  0  0  0  0  0  0  0  0  0
  -27.6815  -18.7861   21.0990 C   0  0  0  0  0  0  0  0  0  0  0  0
  -14.5132  -29.9981   23.1631 C   0  0  0  0  0  0  0  0  0  0  0  0
  -21.0274  -27.5417   22.7683 C   0  0  0  0  0  0  0  0  0  0  0  0
  -23.2212  -26.3067   23.1800 C   0  0  0  0  0  0  0  0  0  0  0  0
  -22.6098  -10.9381   21.4187 C   0  0  0  0  0  0  0  0  0  0  0  0
  -28.0870  -16.4858   21.7349 C   0  0  0  0  0  0  0  0  0  0  0  0
  -23.7286  -11.6165   20.8989 C   0  0  0  0  0  0  0  0  0  0  0  0
  -27.2990  -17.6428   21.8170 C   0  0  0  0  0  0  0  0  0  0  0  0
  -30.6696  -27.8717   21.7749 C   0  0  0  0  0  0  0  0  0  0  0  0
  -31.1213  -25.4596   20.4481 C   0  0  0  0  0  0  0  0  0  0  0  0
  -30.3986  -27.7647   20.4108 C   0  0  0  0  0  0  0  0  0  0  0  0
  -30.6245  -26.5586   19.7474 C   0  0  0  0  0  0  0  0  0  0  0  0
  -18.3445  -27.7015   22.0207 C   0  0  0  0  0  0  0  0  0  0  0  0
  -28.8386  -18.7827   20.3203 C   0  0  0  0  0  0  0  0  0  0  0  0
  -16.3393  -28.9266   21.9993 C   0  0  0  0  0  0  0  0  0  0  0  0
  -14.9399  -31.2390   22.6900 C   0  0  0  0  0  0  0  0  0  0  0  0
  -15.2129  -28.8419   22.8177 C   0  0  0  0  0  0  0  0  0  0  0  0
  -22.4129  -27.4590   23.1552 C   0  0  0  0  0  0  0  0  0  0  0  0
  -24.4442  -26.7545   23.6162 C   0  0  0  0  0  0  0  0  0  0  0  0
  -30.3342  -22.4372   18.3972 C   0  0  0  0  0  0  0  0  0  0  0  0
  -29.8544  -22.7345   17.1802 C   0  0  0  0  0  0  0  0  0  0  0  0
  -22.8957  -24.9526   22.8390 C   0  0  0  0  0  0  0  0  0  0  0  0
  -25.3730  -14.8321   21.6792 C   0  0  0  0  0  0  0  0  0  0  0  0
  -24.7982  -16.4286   24.4438 C   0  0  0  0  0  0  0  0  0  0  0  0
  -25.2442  -19.7859   25.6876 C   0  0  0  0  0  0  0  0  0  0  0  0
  -28.5886  -30.4897   23.4861 C   0  0  0  0  0  0  0  0  0  0  0  0
  -21.3663  -11.6739   21.8511 C   0  0  0  0  0  0  0  0  0  0  0  0
  -27.7145  -15.2537   22.5131 C   0  0  0  0  0  0  0  0  0  0  0  0
  -26.0452  -17.6908   22.6501 C   0  0  0  0  0  0  0  0  0  0  0  0
  -31.0509  -21.1477   18.7044 C   0  0  0  0  0  0  0  0  0  0  0  0
  -21.5917  -13.1653   22.0861 C   0  0  0  0  0  0  0  0  0  0  0  0
  -25.8071  -31.2082   25.5893 C   0  0  0  0  0  0  0  0  0  0  0  0
  -22.3885  -13.7725   20.9359 C   0  0  0  0  0  0  0  0  0  0  0  0
  -24.7414  -30.2064   25.1414 C   0  0  0  0  0  0  0  0  0  0  0  0
  -30.2766  -21.4772   21.0901 C   0  0  0  0  0  0  0  0  0  0  0  0
  -26.6412  -31.7089   24.4123 C   0  0  0  0  0  0  0  0  0  0  0  0
  -26.1872  -29.6458   23.1429 C   0  0  0  0  0  0  0  0  0  0  0  0
  -29.4902  -22.7128   20.6543 C   0  0  0  0  0  0  0  0  0  0  0  0
  -23.7751  -13.1273   20.8241 C   0  0  1  0  0  0  0  0  0  0  0  0
  -26.2301  -15.1919   22.8597 C   0  0  1  0  0  0  0  0  0  0  0  0
  -25.3571  -29.0701   24.3029 C   0  0  2  0  0  0  0  0  0  0  0  0
  -30.4633  -20.4791   19.9475 C   0  0  1  0  0  0  0  0  0  1  0  0
  -29.8646  -28.9445   19.6622 C   0  0  0  0  0  0  0  0  0  0  0  0
  -30.3359  -26.4425   18.2841 C   0  0  0  0  0  0  0  0  0  0  0  0
  -25.5621  -20.6294   28.0295 C   0  0  0  0  0  0  0  0  0  0  0  0
  -21.7719  -16.8165   24.4057 C   0  0  0  0  0  0  0  0  0  0  0  0
  -22.0972  -18.9357   25.6985 C   0  0  0  0  0  0  0  0  0  0  0  0
  -22.7868  -16.7532   26.6905 C   0  0  0  0  0  0  0  0  0  0  0  0
  -27.7549  -21.1784   24.9691 C   0  0  0  0  0  0  0  0  0  0  0  0
  -30.4363  -29.1514   22.5094 C   0  0  0  0  0  0  0  0  0  0  0  0
  -31.3750  -24.1516   19.7584 C   0  0  0  0  0  0  0  0  0  0  0  0
  -24.1487  -17.7429   24.8043 C   0  0  1  0  0  0  0  0  0  0  0  0
  -26.2495  -20.2431   26.7291 C   0  0  2  0  0  0  0  0  0  0  0  0
  -22.7142  -17.5582   25.3747 C   0  0  0  0  0  0  0  0  0  0  0  0
  -23.0672  -28.5563   23.5449 N   0  0  0  0  0  0  0  0  0  0  0  0
  -24.2996  -28.0955   23.8187 N   0  0  0  0  0  0  0  0  0  0  0  0
  -25.7198  -16.4588   23.3876 N   0  0  0  0  0  0  0  0  0  0  0  0
  -27.1978  -30.5822   23.6595 N   0  0  0  0  0  0  0  0  0  0  0  0
  -25.6184  -26.1280   23.8425 N   0  0  0  0  0  0  0  0  0  0  0  0
  -22.4059  -24.1094   23.8457 N   0  0  0  0  0  0  0  0  0  0  0  0
  -24.6625  -13.6575   21.8370 N   0  0  0  0  0  0  0  0  0  0  0  0
  -25.0702  -18.4183   25.7115 N   0  0  0  0  0  0  0  0  0  0  0  0
  -29.0330  -29.3878   22.7657 N   0  0  0  0  0  0  0  0  0  0  0  0
  -30.1138  -23.3903   19.4566 N   0  3  1  0  0  0  0  0  0  0  0  0
  -27.0106  -21.4237   26.2312 N   0  3  0  0  0  0  0  0  0  0  0  0
  -23.0506  -24.4991   21.6798 O   0  0  0  0  0  0  0  0  0  0  0  0
  -25.3563  -15.5666   20.6984 O   0  0  0  0  0  0  0  0  0  0  0  0
  -24.5041  -15.4140   25.0808 O   0  0  0  0  0  0  0  0  0  0  0  0
  -24.6680  -20.5645   24.9311 O   0  0  0  0  0  0  0  0  0  0  0  0
  -29.3763  -31.3244   23.9441 O   0  0  0  0  0  0  0  0  0  0  0  0
  -17.0354  -27.7797   21.6562 O   0  0  0  0  0  0  0  0  0  0  0  0
  -29.1983  -19.8992   19.6305 O   0  0  0  0  0  0  0  0  0  1  0  0
  -14.2690  -32.3496   23.0228 F   0  0  0  0  0  0  0  0  0  0  0  0
  -14.7989  -27.6527   23.2762 F   0  0  0  0  0  0  0  0  0  0  0  0
  1  2  1  0  0  0  0
  1  5  2  0  0  0  0
  2  6  2  0  0  0  0
  3 10  2  0  0  0  0
  3 17  1  0  0  0  0
  4 11  1  0  0  0  0
  4 17  2  0  0  0  0
  5 19  1  0  0  0  0
  6 21  1  0  0  0  0
  7 12  2  0  0  0  0
  7 20  1  0  0  0  0
  8  9  2  0  0  0  0
  8 23  1  0  0  0  0
  9 24  1  0  0  0  0
 10 27  1  0  0  0  0
 11 27  2  0  0  0  0
 12 28  1  0  0  0  0
 13 14  2  0  0  0  0
 13 29  1  0  0  0  0
 14 30  1  0  0  0  0
 15 22  1  0  0  0  0
 15 28  2  0  0  0  0
 16 30  2  0  0  0  0
 16 31  1  0  0  0  0
 17 32  1  0  0  0  0
 18 32  1  0  0  0  0
 18 33  2  0  0  0  0
 18 36  1  0  0  0  0
 19 21  2  0  0  0  0
 19 41  1  0  0  0  0
 20 22  2  0  0  0  0
 20 42  1  0  0  0  0
 21 53  1  0  0  0  0
 22 43  1  0  0  0  0
 23 25  2  0  0  0  0
 23 64  1  0  0  0  0
 24 26  2  0  0  0  0
 24 65  1  0  0  0  0
 25 26  1  0  0  0  0
 25 57  1  0  0  0  0
 26 58  1  0  0  0  0
 27 85  1  0  0  0  0
 28 86  1  0  0  0  0
 29 31  2  0  0  0  0
 29 85  1  0  0  0  0
 30 87  1  0  0  0  0
 31 88  1  0  0  0  0
 32 69  2  0  0  0  0
 33 70  1  0  0  0  0
 33 73  1  0  0  0  0
 34 35  2  0  0  0  0
 34 44  1  0  0  0  0
 34 78  1  0  0  0  0
 36 74  1  0  0  0  0
 36 80  2  0  0  0  0
 37 54  1  0  0  0  0
 37 75  1  0  0  0  0
 37 81  2  0  0  0  0
 38 66  1  0  0  0  0
 38 71  1  0  0  0  0
 38 82  2  0  0  0  0
 39 67  1  0  0  0  0
 39 76  1  0  0  0  0
 39 83  2  0  0  0  0
 40 72  1  0  0  0  0
 40 77  1  0  0  0  0
 40 84  2  0  0  0  0
 41 45  1  0  0  0  0
 42 54  1  0  0  0  0
 43 71  1  0  0  0  0
 44 56  1  0  0  0  0
 45 47  1  0  0  0  0
 46 48  1  0  0  0  0
 46 50  1  0  0  0  0
 47 53  1  0  0  0  0
 48 55  1  0  0  0  0
 49 52  1  0  0  0  0
 49 56  1  0  0  0  0
 50 72  1  0  0  0  0
 51 55  1  0  0  0  0
 51 72  1  0  0  0  0
 52 78  1  0  0  0  0
 53 75  1  0  0  0  0
 54 71  1  0  0  0  0
 55 70  1  0  0  0  0
 56 86  1  0  0  0  0
 59 67  1  0  0  0  0
 60 68  1  0  0  0  0
 61 68  1  0  0  0  0
 62 68  1  0  0  0  0
 63 79  1  0  0  0  0
 64 77  1  0  0  0  0
 65 78  1  0  0  0  0
 66 68  1  0  0  0  0
 66 76  1  0  0  0  0
 67 79  1  0  0  0  0
 69 70  1  0  0  0  0
M  CHG  2  78   1  79   1
M  ISO  4  40 100  56 101  77 100  86 101
M  END
> <Batch ID>
0051

> <Smiles>
C=C1C[101CH:1]([101O:1]c2ccc3c(c2)CN(C(=O)C(NC(=O)C(C)NC)C(C)(C)C)C(C(=O)NC2CCCc4ccccc42)C3)CCN1Cc1ccc(C[100NH:0][100C:0](=O)N2CCCC(n3nc(-c4ccc(Oc5ccc(F)cc5F)cc4)c(C(N)=O)c3N)C2)c(C)c1C

> <Shape>
0.252

> <Color>
0.063

> <Negative vol penalty>
0.000

$$$$

  -OEChem-04042322373D

 84 92  0     1  0  0  0  0  0999 V2000
  -17.7665  -26.6282   22.2579 C   0  0  0  0  0  0  0  0  0  0  0  0
  -18.7580  -26.5948   21.2826 C   0  0  0  0  0  0  0  0  0  0  0  0
  -24.7561  -14.0605   21.6797 C   0  0  0  0  0  0  0  0  0  0  0  0
  -26.8163  -13.7951   20.4458 C   0  0  0  0  0  0  0  0  0  0  0  0
  -17.9016  -27.4727   23.3591 C   0  0  0  0  0  0  0  0  0  0  0  0
  -19.8847  -27.4068   21.4073 C   0  0  0  0  0  0  0  0  0  0  0  0
  -25.5985  -26.0694   19.6553 C   0  0  0  0  0  0  0  0  0  0  0  0
  -24.2422  -12.9174   21.0675 C   0  0  0  0  0  0  0  0  0  0  0  0
  -26.3024  -12.6519   19.8337 C   0  0  0  0  0  0  0  0  0  0  0  0
  -26.3336  -26.4036   18.5188 C   0  0  0  0  0  0  0  0  0  0  0  0
  -24.5367   -9.5658   21.4031 C   0  0  0  0  0  0  0  0  0  0  0  0
  -23.8785   -8.6383   22.2106 C   0  0  0  0  0  0  0  0  0  0  0  0
  -29.6713  -22.1956   17.1192 C   0  0  0  0  0  0  0  0  0  0  0  0
  -31.4829  -21.5278   15.6670 C   0  0  0  0  0  0  0  0  0  0  0  0
  -27.3258  -28.2510   19.7112 C   0  0  0  0  0  0  0  0  0  0  0  0
  -30.9462  -20.2044   17.6158 C   0  0  0  0  0  0  0  0  0  0  0  0
  -21.8648   -8.9341   20.9087 C   0  0  0  0  0  0  0  0  0  0  0  0
  -26.0432  -14.4994   21.3688 C   0  0  0  0  0  0  0  0  0  0  0  0
  -30.4540  -22.4141   15.9856 C   0  0  0  0  0  0  0  0  0  0  0  0
  -27.3033  -15.7466   23.2030 C   0  0  0  0  0  0  0  0  0  0  0  0
  -19.0351  -28.2884   23.5022 C   0  0  0  0  0  0  0  0  0  0  0  0
  -25.7136  -26.8313   20.8269 C   0  0  0  0  0  0  0  0  0  0  0  0
  -20.0345  -28.2640   22.5107 C   0  0  0  0  0  0  0  0  0  0  0  0
  -26.5930  -27.9228   20.8621 C   0  0  0  0  0  0  0  0  0  0  0  0
  -29.9174  -21.0908   17.9344 C   0  0  0  0  0  0  0  0  0  0  0  0
  -25.0153  -12.2131   20.1445 C   0  0  0  0  0  0  0  0  0  0  0  0
  -27.1953  -27.4963   18.5457 C   0  0  0  0  0  0  0  0  0  0  0  0
  -23.8590  -10.1775   20.3484 C   0  0  0  0  0  0  0  0  0  0  0  0
  -22.5425   -8.3224   21.9634 C   0  0  0  0  0  0  0  0  0  0  0  0
  -31.7290  -20.4229   16.4821 C   0  0  0  0  0  0  0  0  0  0  0  0
  -22.5231   -9.8616   20.1012 C   0  0  0  0  0  0  0  0  0  0  0  0
  -26.5744  -15.6805   22.0004 C   0  0  0  0  0  0  0  0  0  0  0  0
  -27.5747  -17.0830   23.3669 C   0  0  0  0  0  0  0  0  0  0  0  0
  -30.1948  -23.5843   15.1229 C   0  0  0  0  0  0  0  0  0  0  0  0
  -27.6998  -14.6941   24.0922 C   0  0  0  0  0  0  0  0  0  0  0  0
  -23.7148  -28.5880   22.5655 C   0  0  0  0  0  0  0  0  0  0  0  0
  -26.2559  -28.7912   24.5716 C   0  0  0  0  0  0  0  0  0  0  0  0
  -29.6401  -28.6407   24.9849 C   0  0  0  0  0  0  0  0  0  0  0  0
  -28.0609  -21.6489   19.5431 C   0  0  0  0  0  0  0  0  0  0  0  0
  -19.1145  -29.2197   24.6858 C   0  0  0  0  0  0  0  0  0  0  0  0
  -24.9338  -26.4416   22.0527 C   0  0  0  0  0  0  0  0  0  0  0  0
  -26.7679  -28.7607   22.1013 C   0  0  0  0  0  0  0  0  0  0  0  0
  -20.5158  -29.7725   24.9330 C   0  0  0  0  0  0  0  0  0  0  0  0
  -25.8306  -21.4157   22.3087 C   0  0  0  0  0  0  0  0  0  0  0  0
  -21.1350  -30.2610   23.6273 C   0  0  0  0  0  0  0  0  0  0  0  0
  -25.8392  -19.9255   22.6568 C   0  0  0  0  0  0  0  0  0  0  0  0
  -25.9179  -21.6465   20.8011 C   0  0  0  0  0  0  0  0  0  0  0  0
  -27.0459  -19.4798   20.4814 C   0  0  0  0  0  0  0  0  0  0  0  0
  -21.2831  -29.1116   22.6230 C   0  0  1  0  0  0  0  0  0  0  0  0
  -24.7428  -27.5961   23.0315 C   0  0  1  0  0  0  0  0  0  0  0  0
  -27.0250  -19.1985   21.9927 C   0  0  2  0  0  0  0  0  0  0  0  0
  -31.4241  -28.8866   26.7325 C   0  0  0  0  0  0  0  0  0  0  0  0
  -25.9367  -31.8239   24.4671 C   0  0  0  0  0  0  0  0  0  0  0  0
  -28.2454  -32.0296   25.4137 C   0  0  0  0  0  0  0  0  0  0  0  0
  -26.4527  -30.9067   26.7358 C   0  0  0  0  0  0  0  0  0  0  0  0
  -30.5504  -25.8491   24.6145 C   0  0  0  0  0  0  0  0  0  0  0  0
  -29.5788  -27.1269   15.8573 C   0  0  0  0  0  0  0  0  0  0  0  0
  -30.0580  -26.0403   14.9092 C   0  0  0  0  0  0  0  0  0  0  0  0
  -28.2778  -26.7604   16.5602 C   0  0  0  0  0  0  0  0  0  1  0  0
  -27.4276  -29.7312   24.7209 C   0  0  1  0  0  0  0  0  0  0  0  0
  -30.4988  -27.9207   26.0089 C   0  0  2  0  0  0  0  0  0  0  0  0
  -27.0111  -31.1084   25.3103 C   0  0  0  0  0  0  0  0  0  0  0  0
  -26.3940  -16.8795   21.4402 N   0  0  0  0  0  0  0  0  0  0  0  0
  -27.0134  -17.7117   22.2946 N   0  0  0  0  0  0  0  0  0  0  0  0
  -25.9789  -28.3434   23.2721 N   0  0  0  0  0  0  0  0  0  0  0  0
  -27.0670  -20.9313   20.2417 N   0  0  0  0  0  0  0  0  0  0  0  0
  -28.2363  -17.7700   24.3224 N   0  0  0  0  0  0  0  0  0  0  0  0
  -29.8755  -23.3658   13.8473 N   0  0  0  0  0  0  0  0  0  0  0  0
  -27.3382  -13.3782   23.7731 N   0  0  0  0  0  0  0  0  0  0  0  0
  -29.1215  -20.8678   19.0852 N   0  0  0  0  0  0  0  0  0  0  0  0
  -22.4250  -28.2892   22.9610 N   0  0  0  0  0  0  0  0  0  0  0  0
  -28.4240  -29.0189   25.5134 N   0  0  0  0  0  0  0  0  0  0  0  0
  -30.2946  -24.8071   15.6602 N   0  3  0  0  0  0  0  0  0  0  0  0
  -31.3328  -26.8791   25.3452 N   0  3  0  0  0  0  0  0  0  0  0  0
  -28.3411  -14.9160   25.1472 O   0  0  0  0  0  0  0  0  0  0  0  0
  -24.0661  -29.5537   21.8980 O   0  0  0  0  0  0  0  0  0  0  0  0
  -25.6145  -28.4605   25.5721 O   0  0  0  0  0  0  0  0  0  0  0  0
  -30.0125  -28.8502   23.8325 O   0  0  0  0  0  0  0  0  0  0  0  0
  -27.9908  -22.8708   19.3879 O   0  0  0  0  0  0  0  0  0  0  0  0
  -24.5142  -11.0975   19.5472 O   0  0  0  0  0  0  0  0  0  0  0  0
  -27.9135  -27.8252   17.4376 O   0  0  0  0  0  0  0  0  0  1  0  0
  -21.9109   -7.4306   22.7379 F   0  0  0  0  0  0  0  0  0  0  0  0
  -32.7170  -19.5718   16.1762 F   0  0  0  0  0  0  0  0  0  0  0  0
  -21.8672  -10.4451   19.0887 F   0  0  0  0  0  0  0  0  0  0  0  0
  1  2  1  0  0  0  0
  1  5  2  0  0  0  0
  2  6  2  0  0  0  0
  3  8  2  0  0  0  0
  3 18  1  0  0  0  0
  4  9  1  0  0  0  0
  4 18  2  0  0  0  0
  5 21  1  0  0  0  0
  6 23  1  0  0  0  0
  7 10  2  0  0  0  0
  7 22  1  0  0  0  0
  8 26  1  0  0  0  0
  9 26  2  0  0  0  0
 10 27  1  0  0  0  0
 11 12  2  0  0  0  0
 11 28  1  0  0  0  0
 12 29  1  0  0  0  0
 13 19  2  0  0  0  0
 13 25  1  0  0  0  0
 14 19  1  0  0  0  0
 14 30  2  0  0  0  0
 15 24  1  0  0  0  0
 15 27  2  0  0  0  0
 16 25  2  0  0  0  0
 16 30  1  0  0  0  0
 17 29  2  0  0  0  0
 17 31  1  0  0  0  0
 18 32  1  0  0  0  0
 19 34  1  0  0  0  0
 20 32  1  0  0  0  0
 20 33  2  0  0  0  0
 20 35  1  0  0  0  0
 21 23  2  0  0  0  0
 21 40  1  0  0  0  0
 22 24  2  0  0  0  0
 22 41  1  0  0  0  0
 23 49  1  0  0  0  0
 24 42  1  0  0  0  0
 25 70  1  0  0  0  0
 26 80  1  0  0  0  0
 27 81  1  0  0  0  0
 28 31  2  0  0  0  0
 28 80  1  0  0  0  0
 29 82  1  0  0  0  0
 30 83  1  0  0  0  0
 31 84  1  0  0  0  0
 32 63  2  0  0  0  0
 33 64  1  0  0  0  0
 33 67  1  0  0  0  0
 34 68  1  0  0  0  0
 34 73  2  0  0  0  0
 35 69  1  0  0  0  0
 35 75  2  0  0  0  0
 36 50  1  0  0  0  0
 36 71  1  0  0  0  0
 36 76  2  0  0  0  0
 37 60  1  0  0  0  0
 37 65  1  0  0  0  0
 37 77  2  0  0  0  0
 38 61  1  0  0  0  0
 38 72  1  0  0  0  0
 38 78  2  0  0  0  0
 39 66  1  0  0  0  0
 39 70  1  0  0  0  0
 39 79  2  0  0  0  0
 40 43  1  0  0  0  0
 41 50  1  0  0  0  0
 42 65  1  0  0  0  0
 43 45  1  0  0  0  0
 44 46  1  0  0  0  0
 44 47  1  0  0  0  0
 45 49  1  0  0  0  0
 46 51  1  0  0  0  0
 47 66  1  0  0  0  0
 48 51  1  0  0  0  0
 48 66  1  0  0  0  0
 49 71  1  0  0  0  0
 50 65  1  0  0  0  0
 51 64  1  0  0  0  0
 52 61  1  0  0  0  0
 53 62  1  0  0  0  0
 54 62  1  0  0  0  0
 55 62  1  0  0  0  0
 56 74  1  0  0  0  0
 57 58  1  0  0  0  0
 57 59  1  0  0  0  0
 58 73  1  0  0  0  0
 59 81  1  0  0  0  0
 60 62  1  0  0  0  0
 60 72  1  0  0  0  0
 61 74  1  0  0  0  0
 63 64  1  0  0  0  0
M  CHG  2  73   1  74   1
M  ISO  4  39 100  59 101  70 100  81 101
M  END
> <Batch ID>
0051

> <Smiles>
CNC(C)C(=O)NC(C(=O)N1Cc2cc([101O:1][101CH2:1]CCNC(=N)c3cc(F)cc([100NH:0][100C:0](=O)N4CCCC(n5nc(-c6ccc(Oc7ccc(F)cc7F)cc6)c(C(N)=O)c5N)C4)c3)ccc2CC1C(=O)NC1CCCc2ccccc21)C(C)(C)C

> <Shape>
0.240

> <Color>
0.074

> <Negative vol penalty>
0.000

$$$$

  -OEChem-04042322373D

 89 97  0     1  0  0  0  0  0999 V2000
  -29.7151  -29.5488   26.6706 C   0  0  0  0  0  0  0  0  0  0  0  0
  -29.1913  -28.5534   25.8520 C   0  0  0  0  0  0  0  0  0  0  0  0
  -31.1283  -19.6937   20.7211 C   0  0  0  0  0  0  0  0  0  0  0  0
  -23.0016   -9.9581   20.1778 C   0  0  0  0  0  0  0  0  0  0  0  0
  -24.3205   -9.2224   22.0636 C   0  0  0  0  0  0  0  0  0  0  0  0
  -28.9409  -30.6620   26.9952 C   0  0  0  0  0  0  0  0  0  0  0  0
  -27.8924  -28.6701   25.3583 C   0  0  0  0  0  0  0  0  0  0  0  0
  -27.5707  -27.5029   20.4411 C   0  0  0  0  0  0  0  0  0  0  0  0
  -31.5143  -18.4226   21.1465 C   0  0  0  0  0  0  0  0  0  0  0  0
  -29.9542  -20.2663   21.2104 C   0  0  0  0  0  0  0  0  0  0  0  0
  -22.3162   -8.7433   20.1832 C   0  0  0  0  0  0  0  0  0  0  0  0
  -23.6351   -8.0075   22.0690 C   0  0  0  0  0  0  0  0  0  0  0  0
  -27.5684  -26.1494   20.1068 C   0  0  0  0  0  0  0  0  0  0  0  0
  -20.6473   -6.8400   23.1322 C   0  0  0  0  0  0  0  0  0  0  0  0
  -20.2128   -6.3483   24.3631 C   0  0  0  0  0  0  0  0  0  0  0  0
  -25.1690  -26.2186   19.8679 C   0  0  0  0  0  0  0  0  0  0  0  0
  -21.5500   -4.3619   24.0415 C   0  0  0  0  0  0  0  0  0  0  0  0
  -24.0038  -10.1976   21.1180 C   0  0  0  0  0  0  0  0  0  0  0  0
  -24.3694  -12.6254   21.8107 C   0  0  0  0  0  0  0  0  0  0  0  0
  -27.6353  -30.7970   26.4974 C   0  0  0  0  0  0  0  0  0  0  0  0
  -26.3689  -28.2230   20.5021 C   0  0  0  0  0  0  0  0  0  0  0  0
  -27.0995  -29.7854   25.6777 C   0  0  0  0  0  0  0  0  0  0  0  0
  -25.1589  -27.5818   20.2007 C   0  0  0  0  0  0  0  0  0  0  0  0
  -30.7262  -17.7241   22.0611 C   0  0  0  0  0  0  0  0  0  0  0  0
  -29.1661  -19.5677   22.1250 C   0  0  0  0  0  0  0  0  0  0  0  0
  -29.5521  -18.2966   22.5504 C   0  0  0  0  0  0  0  0  0  0  0  0
  -22.6329   -7.7680   21.1288 C   0  0  0  0  0  0  0  0  0  0  0  0
  -26.3672  -25.5063   19.8229 C   0  0  0  0  0  0  0  0  0  0  0  0
  -21.5331   -6.0927   22.3560 C   0  0  0  0  0  0  0  0  0  0  0  0
  -20.6642   -5.1092   24.8178 C   0  0  0  0  0  0  0  0  0  0  0  0
  -21.9845   -4.8536   22.8106 C   0  0  0  0  0  0  0  0  0  0  0  0
  -24.7126  -11.4521   21.1126 C   0  0  0  0  0  0  0  0  0  0  0  0
  -25.3521  -13.5244   21.4752 C   0  0  0  0  0  0  0  0  0  0  0  0
  -23.2614  -12.8799   22.6843 C   0  0  0  0  0  0  0  0  0  0  0  0
  -24.7959  -29.7724   22.7887 C   0  0  0  0  0  0  0  0  0  0  0  0
  -22.8612  -30.6365   20.3325 C   0  0  0  0  0  0  0  0  0  0  0  0
  -26.5714  -21.8252   21.2648 C   0  0  0  0  0  0  0  0  0  0  0  0
  -21.6635  -29.9558   17.2102 C   0  0  0  0  0  0  0  0  0  0  0  0
  -30.7275  -14.7744   20.6457 C   0  0  0  0  0  0  0  0  0  0  0  0
  -26.8198  -31.9954   26.9142 C   0  0  0  0  0  0  0  0  0  0  0  0
  -26.3911  -29.6889   20.8382 C   0  0  0  0  0  0  0  0  0  0  0  0
  -23.8436  -28.3148   20.2323 C   0  0  0  0  0  0  0  0  0  0  0  0
  -25.5857  -32.2243   26.0454 C   0  0  0  0  0  0  0  0  0  0  0  0
  -28.9578  -13.2919   17.9352 C   0  0  0  0  0  0  0  0  0  0  0  0
  -24.8314  -30.9155   25.8340 C   0  0  0  0  0  0  0  0  0  0  0  0
  -27.6709  -12.7727   18.5789 C   0  0  0  0  0  0  0  0  0  0  0  0
  -30.1560  -13.1441   18.8703 C   0  0  0  0  0  0  0  0  0  0  0  0
  -28.6899  -13.2242   20.8497 C   0  0  0  0  0  0  0  0  0  0  0  0
  -25.7035  -29.8880   25.1025 C   0  0  1  0  0  0  0  0  0  0  0  0
  -25.0563  -30.1998   21.3719 C   0  0  1  0  0  0  0  0  0  0  0  0
  -27.4437  -13.4035   19.9659 C   0  0  2  0  0  0  0  0  0  0  0  0
  -20.0651  -30.8234   15.4811 C   0  0  0  0  0  0  0  0  0  0  0  0
  -20.5165  -29.5727   21.9697 C   0  0  0  0  0  0  0  0  0  0  0  0
  -19.1416  -29.5819   19.8774 C   0  0  0  0  0  0  0  0  0  0  0  0
  -20.0630  -31.7206   20.7717 C   0  0  0  0  0  0  0  0  0  0  0  0
  -26.4919  -19.3651   20.8037 C   0  0  0  0  0  0  0  0  0  0  0  0
  -23.8286  -30.3262   15.2267 C   0  0  0  0  0  0  0  0  0  0  0  0
  -31.1622  -16.3646   22.5008 C   0  0  0  0  0  0  0  0  0  0  0  0
  -27.9074  -20.2066   22.6364 C   0  0  0  0  0  0  0  0  0  0  0  0
  -25.5927  -21.9844   20.1059 C   0  0  0  0  0  0  0  0  0  0  0  0
  -25.2008  -23.4339   19.8483 C   0  0  0  0  0  0  0  0  0  1  0  0
  -21.6260  -30.0544   19.6887 C   0  0  1  0  0  0  0  0  0  0  0  0
  -21.5015  -30.8312   15.9805 C   0  0  2  0  0  0  0  0  0  0  0  0
  -28.7071  -17.5475   23.5311 C   0  0  0  0  0  0  0  0  0  0  0  0
  -20.3612  -30.2179   20.5781 C   0  0  0  0  0  0  0  0  0  0  0  0
  -25.8262  -11.5902   20.3882 N   0  0  0  0  0  0  0  0  0  0  0  0
  -26.1913  -12.8609   20.6292 N   0  0  0  0  0  0  0  0  0  0  0  0
  -23.9167  -29.7454   20.5725 N   0  0  0  0  0  0  0  0  0  0  0  0
  -29.8763  -13.7646   20.1675 N   0  0  0  0  0  0  0  0  0  0  0  0
  -25.5715  -14.8099   21.8241 N   0  0  0  0  0  0  0  0  0  0  0  0
  -22.3455  -11.8457   22.9205 N   0  0  0  0  0  0  0  0  0  0  0  0
  -25.7592  -30.1882   23.6879 N   0  0  0  0  0  0  0  0  0  0  0  0
  -21.5174  -30.6793   18.3749 N   0  0  0  0  0  0  0  0  0  0  0  0
  -30.3870  -15.3135   21.8803 N   0  0  0  0  0  0  0  0  0  0  0  0
  -26.9738  -20.5170   21.5561 N   0  0  0  0  0  0  0  0  0  0  0  0
  -22.3840  -30.3482   14.8810 N   0  3  0  0  0  0  0  0  0  0  0  0
  -23.0797  -13.9965   23.2262 O   0  0  0  0  0  0  0  0  0  0  0  0
  -23.7943  -29.1154   23.0471 O   0  0  0  0  0  0  0  0  0  0  0  0
  -22.8913  -31.8391   20.6056 O   0  0  0  0  0  0  0  0  0  0  0  0
  -26.9686  -22.8116   21.8904 O   0  0  0  0  0  0  0  0  0  0  0  0
  -21.8927  -28.7502   17.1441 O   0  0  0  0  0  0  0  0  0  0  0  0
  -31.7146  -15.1701   20.0164 O   0  0  0  0  0  0  0  0  0  0  0  0
  -21.9641   -6.5826   21.1345 O   0  0  0  0  0  0  0  0  0  0  0  0
  -26.3621  -24.1851   19.4970 O   0  0  0  0  0  0  0  0  0  1  0  0
  -20.2481   -4.6378   26.0005 F   0  0  0  0  0  0  0  0  0  0  0  0
  -22.8364   -4.1317   22.0698 F   0  0  0  0  0  0  0  0  0  0  0  0
  -29.2083  -16.3204   23.8542 F   0  0  0  0  0  0  0  0  0  0  0  0
  -28.5514  -18.1971   24.7206 F   0  0  0  0  0  0  0  0  0  0  0  0
  -27.4459  -17.3209   23.0656 F   0  0  0  0  0  0  0  0  0  0  0  0
  1  2  1  0  0  0  0
  1  6  2  0  0  0  0
  2  7  2  0  0  0  0
  3  9  1  0  0  0  0
  3 10  2  0  0  0  0
  4 11  2  0  0  0  0
  4 18  1  0  0  0  0
  5 12  1  0  0  0  0
  5 18  2  0  0  0  0
  6 20  1  0  0  0  0
  7 22  1  0  0  0  0
  8 13  2  0  0  0  0
  8 21  1  0  0  0  0
  9 24  2  0  0  0  0
 10 25  1  0  0  0  0
 11 27  1  0  0  0  0
 12 27  2  0  0  0  0
 13 28  1  0  0  0  0
 14 15  2  0  0  0  0
 14 29  1  0  0  0  0
 15 30  1  0  0  0  0
 16 23  1  0  0  0  0
 16 28  2  0  0  0  0
 17 30  2  0  0  0  0
 17 31  1  0  0  0  0
 18 32  1  0  0  0  0
 19 32  1  0  0  0  0
 19 33  2  0  0  0  0
 19 34  1  0  0  0  0
 20 22  2  0  0  0  0
 20 40  1  0  0  0  0
 21 23  2  0  0  0  0
 21 41  1  0  0  0  0
 22 49  1  0  0  0  0
 23 42  1  0  0  0  0
 24 26  1  0  0  0  0
 24 58  1  0  0  0  0
 25 26  2  0  0  0  0
 25 59  1  0  0  0  0
 26 64  1  0  0  0  0
 27 83  1  0  0  0  0
 28 84  1  0  0  0  0
 29 31  2  0  0  0  0
 29 83  1  0  0  0  0
 30 85  1  0  0  0  0
 31 86  1  0  0  0  0
 32 66  2  0  0  0  0
 33 67  1  0  0  0  0
 33 70  1  0  0  0  0
 34 71  1  0  0  0  0
 34 77  2  0  0  0  0
 35 50  1  0  0  0  0
 35 72  1  0  0  0  0
 35 78  2  0  0  0  0
 36 62  1  0  0  0  0
 36 68  1  0  0  0  0
 36 79  2  0  0  0  0
 37 60  1  0  0  0  0
 37 75  1  0  0  0  0
 37 80  2  0  0  0  0
 38 63  1  0  0  0  0
 38 73  1  0  0  0  0
 38 81  2  0  0  0  0
 39 69  1  0  0  0  0
 39 74  1  0  0  0  0
 39 82  2  0  0  0  0
 40 43  1  0  0  0  0
 41 50  1  0  0  0  0
 42 68  1  0  0  0  0
 43 45  1  0  0  0  0
 44 46  1  0  0  0  0
 44 47  1  0  0  0  0
 45 49  1  0  0  0  0
 46 51  1  0  0  0  0
 47 69  1  0  0  0  0
 48 51  1  0  0  0  0
 48 69  1  0  0  0  0
 49 72  1  0  0  0  0
 50 68  1  0  0  0  0
 51 67  1  0  0  0  0
 52 63  1  0  0  0  0
 53 65  1  0  0  0  0
 54 65  1  0  0  0  0
 55 65  1  0  0  0  0
 56 75  1  0  0  0  0
 57 76  1  0  0  0  0
 58 74  1  0  0  0  0
 59 75  1  0  0  0  0
 60 61  1  0  0  0  0
 61 84  1  0  0  0  0
 62 65  1  0  0  0  0
 62 73  1  0  0  0  0
 63 76  1  0  0  0  0
 64 87  1  0  0  0  0
 64 88  1  0  0  0  0
 64 89  1  0  0  0  0
 66 67  1  0  0  0  0
M  CHG  1  76   1
M  ISO  4  39 100  61 101  74 100  84 101
M  END
> <Batch ID>
0051

> <Smiles>
CNC(C)C(=O)NC(C(=O)N1Cc2cc([101O:1][101CH2:1]CC(=O)N(C)Cc3cccc(C[100NH:0][100C:0](=O)N4CCCC(n5nc(-c6ccc(Oc7ccc(F)cc7F)cc6)c(C(N)=O)c5N)C4)c3C(F)(F)F)ccc2CC1C(=O)NC1CCCc2ccccc21)C(C)(C)C

> <Shape>
0.326

> <Color>
0.150

> <Negative vol penalty>
0.000

$$$$

  -OEChem-04042322373D

 88 96  0     1  0  0  0  0  0999 V2000
  -16.8790  -29.6256   24.5915 C   0  0  0  0  0  0  0  0  0  0  0  0
  -17.2871  -28.4643   23.9432 C   0  0  0  0  0  0  0  0  0  0  0  0
  -25.7779  -12.5734   21.8192 C   0  0  0  0  0  0  0  0  0  0  0  0
  -26.5881  -12.4830   19.5449 C   0  0  0  0  0  0  0  0  0  0  0  0
  -17.4867  -30.8429   24.2870 C   0  0  0  0  0  0  0  0  0  0  0  0
  -18.3025  -28.5199   22.9892 C   0  0  0  0  0  0  0  0  0  0  0  0
  -22.5435  -24.2450   21.8733 C   0  0  0  0  0  0  0  0  0  0  0  0
  -32.6734  -19.6312   18.2381 C   0  0  0  0  0  0  0  0  0  0  0  0
  -24.6225  -11.8931   21.4347 C   0  0  0  0  0  0  0  0  0  0  0  0
  -25.4327  -11.8027   19.1603 C   0  0  0  0  0  0  0  0  0  0  0  0
  -22.6344  -23.2435   20.9076 C   0  0  0  0  0  0  0  0  0  0  0  0
  -23.7156   -8.7059   20.7623 C   0  0  0  0  0  0  0  0  0  0  0  0
  -23.2790   -7.6593   21.5745 C   0  0  0  0  0  0  0  0  0  0  0  0
  -33.7486  -19.8339   17.3730 C   0  0  0  0  0  0  0  0  0  0  0  0
  -23.9969  -24.6921   19.5422 C   0  0  0  0  0  0  0  0  0  0  0  0
  -32.3900  -19.1034   15.5135 C   0  0  0  0  0  0  0  0  0  0  0  0
  -21.1869   -8.8126   21.9357 C   0  0  0  0  0  0  0  0  0  0  0  0
  -26.7607  -12.8684   20.8743 C   0  0  0  0  0  0  0  0  0  0  0  0
  -29.1622  -13.0080   21.7233 C   0  0  0  0  0  0  0  0  0  0  0  0
  -18.5167  -30.9118   23.3357 C   0  0  0  0  0  0  0  0  0  0  0  0
  -23.1706  -25.4836   21.6754 C   0  0  0  0  0  0  0  0  0  0  0  0
  -18.9237  -29.7395   22.6707 C   0  0  0  0  0  0  0  0  0  0  0  0
  -23.9146  -25.7067   20.5080 C   0  0  0  0  0  0  0  0  0  0  0  0
  -31.3148  -18.9007   16.3787 C   0  0  0  0  0  0  0  0  0  0  0  0
  -31.4565  -19.1646   17.7410 C   0  0  0  0  0  0  0  0  0  0  0  0
  -24.4499  -11.5077   20.1053 C   0  0  0  0  0  0  0  0  0  0  0  0
  -23.3588  -23.4680   19.7406 C   0  0  0  0  0  0  0  0  0  0  0  0
  -22.8880   -9.8059   20.5369 C   0  0  0  0  0  0  0  0  0  0  0  0
  -22.0146   -7.7126   22.1611 C   0  0  0  0  0  0  0  0  0  0  0  0
  -21.6236   -9.8592   21.1235 C   0  0  0  0  0  0  0  0  0  0  0  0
  -33.6069  -19.5700   16.0107 C   0  0  0  0  0  0  0  0  0  0  0  0
  -27.9542  -13.5716   21.2708 C   0  0  0  0  0  0  0  0  0  0  0  0
  -29.9743  -14.0881   21.9688 C   0  0  0  0  0  0  0  0  0  0  0  0
  -29.5184  -11.6311   21.9054 C   0  0  0  0  0  0  0  0  0  0  0  0
  -22.1694  -28.4898   21.4230 C   0  0  0  0  0  0  0  0  0  0  0  0
  -25.3480  -29.1366   21.4078 C   0  0  0  0  0  0  0  0  0  0  0  0
  -27.7996  -18.9820   16.8310 C   0  0  0  0  0  0  0  0  0  0  0  0
  -28.5240  -28.0445   20.8016 C   0  0  0  0  0  0  0  0  0  0  0  0
  -30.1174  -19.6605   19.8164 C   0  0  0  0  0  0  0  0  0  0  0  0
  -24.5397  -21.6149   18.9496 C   0  0  0  0  0  0  0  0  0  1  0  0
  -19.1112  -32.2581   23.0057 C   0  0  0  0  0  0  0  0  0  0  0  0
  -23.0853  -26.5440   22.7387 C   0  0  0  0  0  0  0  0  0  0  0  0
  -24.6233  -27.0118   20.2567 C   0  0  0  0  0  0  0  0  0  0  0  0
  -20.4369  -32.1708   22.2539 C   0  0  0  0  0  0  0  0  0  0  0  0
  -29.7868  -18.7042   23.2301 C   0  0  0  0  0  0  0  0  0  0  0  0
  -20.3390  -31.1612   21.1146 C   0  0  0  0  0  0  0  0  0  0  0  0
  -29.3952  -17.2266   23.1563 C   0  0  0  0  0  0  0  0  0  0  0  0
  -29.1528  -19.5159   22.1019 C   0  0  0  0  0  0  0  0  0  0  0  0
  -28.9953  -17.5122   20.6773 C   0  0  0  0  0  0  0  0  0  0  0  0
  -20.0388  -29.7551   21.6478 C   0  0  1  0  0  0  0  0  0  0  0  0
  -23.3354  -27.9499   22.2019 C   0  0  1  0  0  0  0  0  0  0  0  0
  -29.6620  -16.6421   21.7554 C   0  0  2  0  0  0  0  0  0  0  0  0
  -30.9128  -28.8120   20.8442 C   0  0  0  0  0  0  0  0  0  0  0  0
  -24.8920  -30.6916   18.8224 C   0  0  0  0  0  0  0  0  0  0  0  0
  -27.3621  -30.6133   18.4215 C   0  0  0  0  0  0  0  0  0  0  0  0
  -26.4632  -31.7832   20.4330 C   0  0  0  0  0  0  0  0  0  0  0  0
  -29.0688  -20.6427   15.4518 C   0  0  0  0  0  0  0  0  0  0  0  0
  -29.2633  -26.0094   22.8193 C   0  0  0  0  0  0  0  0  0  0  0  0
  -30.0166  -18.3978   15.8166 C   0  0  0  0  0  0  0  0  0  0  0  0
  -26.7348  -20.0624   16.9924 C   0  0  0  0  0  0  0  0  0  0  0  0
  -25.5438  -19.6252   17.8382 C   0  0  0  0  0  0  0  0  0  0  0  0
  -26.4094  -29.2572   20.3410 C   0  0  1  0  0  0  0  0  0  0  0  0
  -29.7957  -28.1378   21.6254 C   0  0  2  0  0  0  0  0  0  0  0  0
  -26.2668  -30.5623   19.5081 C   0  0  0  0  0  0  0  0  0  0  0  0
  -27.9911  -14.9061   21.2304 N   0  0  0  0  0  0  0  0  0  0  0  0
  -29.2321  -15.1901   21.6607 N   0  0  0  0  0  0  0  0  0  0  0  0
  -24.5048  -28.0197   21.3233 N   0  0  0  0  0  0  0  0  0  0  0  0
  -29.4512  -18.9053   20.8046 N   0  0  0  0  0  0  0  0  0  0  0  0
  -31.2437  -14.1932   22.4161 N   0  0  0  0  0  0  0  0  0  0  0  0
  -28.5647  -10.6489   21.6055 N   0  0  0  0  0  0  0  0  0  0  0  0
  -30.3763  -18.9647   18.6360 N   0  0  0  0  0  0  0  0  0  0  0  0
  -21.2369  -29.1558   22.1953 N   0  0  0  0  0  0  0  0  0  0  0  0
  -27.6915  -29.1211   21.0236 N   0  0  0  0  0  0  0  0  0  0  0  0
  -24.5466  -20.6646   17.9496 N   0  0  0  0  0  0  0  0  0  0  0  0
  -28.9172  -19.3280   16.0633 N   0  0  0  0  0  0  0  0  0  0  0  0
  -30.2556  -26.7774   22.0240 N   0  3  0  0  0  0  0  0  0  0  0  0
  -30.6434  -11.2829   22.3374 O   0  0  0  0  0  0  0  0  0  0  0  0
  -22.1201  -28.3163   20.2109 O   0  0  0  0  0  0  0  0  0  0  0  0
  -25.2746  -29.9978   22.2878 O   0  0  0  0  0  0  0  0  0  0  0  0
  -27.6545  -17.8749   17.3558 O   0  0  0  0  0  0  0  0  0  0  0  0
  -28.2939  -27.1119   20.0349 O   0  0  0  0  0  0  0  0  0  0  0  0
  -30.4590  -20.8295   20.0135 O   0  0  0  0  0  0  0  0  0  0  0  0
  -25.3601  -21.7032   19.8584 O   0  0  0  0  0  0  0  0  0  0  0  0
  -23.3227  -10.8437   19.7297 O   0  0  0  0  0  0  0  0  0  0  0  0
  -23.4486  -22.4924   18.7961 O   0  0  0  0  0  0  0  0  0  1  0  0
  -21.5948   -6.7068   22.9398 F   0  0  0  0  0  0  0  0  0  0  0  0
  -20.8236  -10.9127   20.9097 F   0  0  0  0  0  0  0  0  0  0  0  0
  -34.9337  -19.8212   14.9435 Cl  0  0  0  0  0  0  0  0  0  0  0  0
  1  2  1  0  0  0  0
  1  5  2  0  0  0  0
  2  6  2  0  0  0  0
  3  9  2  0  0  0  0
  3 18  1  0  0  0  0
  4 10  1  0  0  0  0
  4 18  2  0  0  0  0
  5 20  1  0  0  0  0
  6 22  1  0  0  0  0
  7 11  2  0  0  0  0
  7 21  1  0  0  0  0
  8 14  2  0  0  0  0
  8 25  1  0  0  0  0
  9 26  1  0  0  0  0
 10 26  2  0  0  0  0
 11 27  1  0  0  0  0
 12 13  2  0  0  0  0
 12 28  1  0  0  0  0
 13 29  1  0  0  0  0
 14 31  1  0  0  0  0
 15 23  1  0  0  0  0
 15 27  2  0  0  0  0
 16 24  1  0  0  0  0
 16 31  2  0  0  0  0
 17 29  2  0  0  0  0
 17 30  1  0  0  0  0
 18 32  1  0  0  0  0
 19 32  1  0  0  0  0
 19 33  2  0  0  0  0
 19 34  1  0  0  0  0
 20 22  2  0  0  0  0
 20 41  1  0  0  0  0
 21 23  2  0  0  0  0
 21 42  1  0  0  0  0
 22 50  1  0  0  0  0
 23 43  1  0  0  0  0
 24 25  2  0  0  0  0
 24 59  1  0  0  0  0
 25 71  1  0  0  0  0
 26 84  1  0  0  0  0
 27 85  1  0  0  0  0
 28 30  2  0  0  0  0
 28 84  1  0  0  0  0
 29 86  1  0  0  0  0
 30 87  1  0  0  0  0
 31 88  1  0  0  0  0
 32 65  2  0  0  0  0
 33 66  1  0  0  0  0
 33 69  1  0  0  0  0
 34 70  1  0  0  0  0
 34 77  2  0  0  0  0
 35 51  1  0  0  0  0
 35 72  1  0  0  0  0
 35 78  2  0  0  0  0
 36 62  1  0  0  0  0
 36 67  1  0  0  0  0
 36 79  2  0  0  0  0
 37 60  1  0  0  0  0
 37 75  1  0  0  0  0
 37 80  2  0  0  0  0
 38 63  1  0  0  0  0
 38 73  1  0  0  0  0
 38 81  2  0  0  0  0
 39 68  1  0  0  0  0
 39 71  1  0  0  0  0
 39 82  2  0  0  0  0
 40 74  1  0  0  0  0
 40 83  2  0  0  0  0
 40 85  1  0  0  0  0
 41 44  1  0  0  0  0
 42 51  1  0  0  0  0
 43 67  1  0  0  0  0
 44 46  1  0  0  0  0
 45 47  1  0  0  0  0
 45 48  1  0  0  0  0
 46 50  1  0  0  0  0
 47 52  1  0  0  0  0
 48 68  1  0  0  0  0
 49 52  1  0  0  0  0
 49 68  1  0  0  0  0
 50 72  1  0  0  0  0
 51 67  1  0  0  0  0
 52 66  1  0  0  0  0
 53 63  1  0  0  0  0
 54 64  1  0  0  0  0
 55 64  1  0  0  0  0
 56 64  1  0  0  0  0
 57 75  1  0  0  0  0
 58 76  1  0  0  0  0
 59 75  1  0  0  0  0
 60 61  1  0  0  0  0
 61 74  1  0  0  0  0
 62 64  1  0  0  0  0
 62 73  1  0  0  0  0
 63 76  1  0  0  0  0
 65 66  1  0  0  0  0
M  CHG  1  76   1
M  ISO  4  39 100  40 101  71 100  85 101
M  END
> <Batch ID>
0051

> <Smiles>
CNC(C)C(=O)NC(C(=O)N1Cc2cc([101O:1][101C:1](=O)NCCC(=O)N(C)Cc3cc(Cl)ccc3[100NH:0][100C:0](=O)N3CCCC(n4nc(-c5ccc(Oc6ccc(F)cc6F)cc5)c(C(N)=O)c4N)C3)ccc2CC1C(=O)NC1CCCc2ccccc21)C(C)(C)C

> <Shape>
0.239

> <Color>
0.079

> <Negative vol penalty>
0.000

$$$$

  -OEChem-04042322373D

 84 92  0     1  0  0  0  0  0999 V2000
  -21.1910  -35.2675   21.6493 C   0  0  0  0  0  0  0  0  0  0  0  0
  -22.3211  -34.5699   21.2349 C   0  0  0  0  0  0  0  0  0  0  0  0
  -32.8138  -20.1095   21.6335 C   0  0  0  0  0  0  0  0  0  0  0  0
  -24.1872  -12.4854   21.5245 C   0  0  0  0  0  0  0  0  0  0  0  0
  -25.1674  -12.0635   19.3570 C   0  0  0  0  0  0  0  0  0  0  0  0
  -20.3851  -34.7485   22.6618 C   0  0  0  0  0  0  0  0  0  0  0  0
  -22.6466  -33.3534   21.8337 C   0  0  0  0  0  0  0  0  0  0  0  0
  -25.2245  -28.4964   19.1374 C   0  0  0  0  0  0  0  0  0  0  0  0
  -32.2461  -19.6341   20.4514 C   0  0  0  0  0  0  0  0  0  0  0  0
  -32.7309  -21.4652   21.9512 C   0  0  0  0  0  0  0  0  0  0  0  0
  -23.2981  -11.4288   21.3282 C   0  0  0  0  0  0  0  0  0  0  0  0
  -24.2784  -11.0068   19.1606 C   0  0  0  0  0  0  0  0  0  0  0  0
  -26.5404  -28.0381   19.0906 C   0  0  0  0  0  0  0  0  0  0  0  0
  -23.3609   -8.0532   21.5143 C   0  0  0  0  0  0  0  0  0  0  0  0
  -23.1671   -7.1642   22.5714 C   0  0  0  0  0  0  0  0  0  0  0  0
  -26.0791  -26.5448   20.9281 C   0  0  0  0  0  0  0  0  0  0  0  0
  -31.5126  -21.8702   19.9045 C   0  0  0  0  0  0  0  0  0  0  0  0
  -20.8165   -7.7213   22.6090 C   0  0  0  0  0  0  0  0  0  0  0  0
  -25.1218  -12.8029   20.5389 C   0  0  0  0  0  0  0  0  0  0  0  0
  -27.3172  -13.8334   21.3302 C   0  0  0  0  0  0  0  0  0  0  0  0
  -20.6956  -33.5203   23.2666 C   0  0  0  0  0  0  0  0  0  0  0  0
  -24.3276  -27.9894   20.0886 C   0  0  0  0  0  0  0  0  0  0  0  0
  -21.8449  -32.8181   22.8561 C   0  0  0  0  0  0  0  0  0  0  0  0
  -24.7517  -26.9965   20.9832 C   0  0  0  0  0  0  0  0  0  0  0  0
  -31.5955  -20.5145   19.5869 C   0  0  0  0  0  0  0  0  0  0  0  0
  -32.0803  -22.3456   21.0867 C   0  0  0  0  0  0  0  0  0  0  0  0
  -23.3437  -10.6894   20.1463 C   0  0  0  0  0  0  0  0  0  0  0  0
  -26.9687  -27.0642   19.9880 C   0  0  0  0  0  0  0  0  0  0  0  0
  -22.2825   -8.7764   21.0045 C   0  0  0  0  0  0  0  0  0  0  0  0
  -21.8949   -6.9982   23.1188 C   0  0  0  0  0  0  0  0  0  0  0  0
  -21.0103   -8.6104   21.5518 C   0  0  0  0  0  0  0  0  0  0  0  0
  -26.0401  -13.8947   20.7409 C   0  0  0  0  0  0  0  0  0  0  0  0
  -27.7781  -15.1265   21.2860 C   0  0  0  0  0  0  0  0  0  0  0  0
  -28.0237  -12.7082   21.8692 C   0  0  0  0  0  0  0  0  0  0  0  0
  -22.6752  -29.2352   22.5014 C   0  0  0  0  0  0  0  0  0  0  0  0
  -21.3833  -26.2629   22.6398 C   0  0  0  0  0  0  0  0  0  0  0  0
  -30.0762  -25.2384   20.6929 C   0  0  0  0  0  0  0  0  0  0  0  0
  -21.6949  -22.9338   21.9568 C   0  0  0  0  0  0  0  0  0  0  0  0
  -28.5177  -19.9389   18.5586 C   0  0  0  0  0  0  0  0  0  0  0  0
  -19.8207  -33.0225   24.3897 C   0  0  0  0  0  0  0  0  0  0  0  0
  -22.9041  -28.4750   20.1085 C   0  0  0  0  0  0  0  0  0  0  0  0
  -23.8224  -26.4051   22.0104 C   0  0  0  0  0  0  0  0  0  0  0  0
  -20.0274  -31.5451   24.7138 C   0  0  0  0  0  0  0  0  0  0  0  0
  -25.3822  -19.4393   20.1697 C   0  0  0  0  0  0  0  0  0  0  0  0
  -21.5154  -31.2210   24.8020 C   0  0  0  0  0  0  0  0  0  0  0  0
  -25.3768  -17.9467   20.5046 C   0  0  0  0  0  0  0  0  0  0  0  0
  -26.0659  -19.7151   18.8323 C   0  0  0  0  0  0  0  0  0  0  0  0
  -27.4210  -17.6672   19.0411 C   0  0  0  0  0  0  0  0  0  0  0  0
  -22.2174  -31.4833   23.4642 C   0  0  1  0  0  0  0  0  0  0  0  0
  -22.2181  -28.2596   21.4540 C   0  0  1  0  0  0  0  0  0  0  0  0
  -26.7917  -17.3451   20.4073 C   0  0  2  0  0  0  0  0  0  0  0  0
  -20.4924  -20.7473   22.2228 C   0  0  0  0  0  0  0  0  0  0  0  0
  -22.1498  -26.2033   25.5926 C   0  0  0  0  0  0  0  0  0  0  0  0
  -21.8091  -23.7232   25.5592 C   0  0  0  0  0  0  0  0  0  0  0  0
  -19.8952  -25.2498   25.0805 C   0  0  0  0  0  0  0  0  0  0  0  0
  -29.8207  -23.6142   22.5767 C   0  0  0  0  0  0  0  0  0  0  0  0
  -21.5649  -22.5165   19.0297 C   0  0  0  0  0  0  0  0  0  0  0  0
  -30.9875  -20.0052   18.3239 C   0  0  0  0  0  0  0  0  0  0  0  0
  -31.9917  -23.8048   21.4284 C   0  0  0  0  0  0  0  0  0  0  0  0
  -28.6238  -25.6166   20.8940 C   0  0  0  0  0  0  0  0  0  1  0  0
  -21.7265  -24.9804   23.3584 C   0  0  1  0  0  0  0  0  0  0  0  0
  -20.7394  -21.9432   21.3163 C   0  0  2  0  0  0  0  0  0  0  0  0
  -21.4135  -25.0515   24.8797 C   0  0  0  0  0  0  0  0  0  0  0  0
  -25.7108  -15.1290   20.3511 N   0  0  0  0  0  0  0  0  0  0  0  0
  -26.7876  -15.8553   20.6962 N   0  0  0  0  0  0  0  0  0  0  0  0
  -22.4422  -26.9171   21.9942 N   0  0  0  0  0  0  0  0  0  0  0  0
  -27.4040  -19.1195   18.8057 N   0  0  0  0  0  0  0  0  0  0  0  0
  -28.9300  -15.6998   21.6945 N   0  0  0  0  0  0  0  0  0  0  0  0
  -27.4043  -11.4514   21.8346 N   0  0  0  0  0  0  0  0  0  0  0  0
  -21.9472  -30.4093   22.5326 N   0  0  0  0  0  0  0  0  0  0  0  0
  -21.0219  -23.9158   22.6524 N   0  0  0  0  0  0  0  0  0  0  0  0
  -29.7494  -19.2956   18.5569 N   0  0  0  0  0  0  0  0  0  0  0  0
  -30.6073  -24.2588   21.5324 N   0  0  0  0  0  0  0  0  0  0  0  0
  -21.2956  -21.4476   20.0255 N   0  3  0  0  0  0  0  0  0  0  0  0
  -29.1634  -12.8171   22.3817 O   0  0  0  0  0  0  0  0  0  0  0  0
  -23.6176  -28.9436   23.2284 O   0  0  0  0  0  0  0  0  0  0  0  0
  -20.2174  -26.6656   22.6448 O   0  0  0  0  0  0  0  0  0  0  0  0
  -30.7175  -25.8015   19.8004 O   0  0  0  0  0  0  0  0  0  0  0  0
  -22.9163  -22.8432   21.8537 O   0  0  0  0  0  0  0  0  0  0  0  0
  -28.4221  -21.1548   18.3598 O   0  0  0  0  0  0  0  0  0  0  0  0
  -22.4765   -9.6581   19.9544 O   0  0  0  0  0  0  0  0  0  0  0  0
  -28.2527  -26.6155   19.9449 O   0  0  0  0  0  0  0  0  0  1  0  0
  -21.7086   -6.1432   24.1329 F   0  0  0  0  0  0  0  0  0  0  0  0
  -19.9703   -9.3015   21.0655 F   0  0  0  0  0  0  0  0  0  0  0  0
  1  2  1  0  0  0  0
  1  6  2  0  0  0  0
  2  7  2  0  0  0  0
  3  9  1  0  0  0  0
  3 10  2  0  0  0  0
  4 11  2  0  0  0  0
  4 19  1  0  0  0  0
  5 12  1  0  0  0  0
  5 19  2  0  0  0  0
  6 21  1  0  0  0  0
  7 23  1  0  0  0  0
  8 13  2  0  0  0  0
  8 22  1  0  0  0  0
  9 25  2  0  0  0  0
 10 26  1  0  0  0  0
 11 27  1  0  0  0  0
 12 27  2  0  0  0  0
 13 28  1  0  0  0  0
 14 15  2  0  0  0  0
 14 29  1  0  0  0  0
 15 30  1  0  0  0  0
 16 24  1  0  0  0  0
 16 28  2  0  0  0  0
 17 25  1  0  0  0  0
 17 26  2  0  0  0  0
 18 30  2  0  0  0  0
 18 31  1  0  0  0  0
 19 32  1  0  0  0  0
 20 32  1  0  0  0  0
 20 33  2  0  0  0  0
 20 34  1  0  0  0  0
 21 23  2  0  0  0  0
 21 40  1  0  0  0  0
 22 24  2  0  0  0  0
 22 41  1  0  0  0  0
 23 49  1  0  0  0  0
 24 42  1  0  0  0  0
 25 58  1  0  0  0  0
 26 59  1  0  0  0  0
 27 81  1  0  0  0  0
 28 82  1  0  0  0  0
 29 31  2  0  0  0  0
 29 81  1  0  0  0  0
 30 83  1  0  0  0  0
 31 84  1  0  0  0  0
 32 64  2  0  0  0  0
 33 65  1  0  0  0  0
 33 68  1  0  0  0  0
 34 69  1  0  0  0  0
 34 75  2  0  0  0  0
 35 50  1  0  0  0  0
 35 70  1  0  0  0  0
 35 76  2  0  0  0  0
 36 61  1  0  0  0  0
 36 66  1  0  0  0  0
 36 77  2  0  0  0  0
 37 60  1  0  0  0  0
 37 73  1  0  0  0  0
 37 78  2  0  0  0  0
 38 62  1  0  0  0  0
 38 71  1  0  0  0  0
 38 79  2  0  0  0  0
 39 67  1  0  0  0  0
 39 72  1  0  0  0  0
 39 80  2  0  0  0  0
 40 43  1  0  0  0  0
 41 50  1  0  0  0  0
 42 66  1  0  0  0  0
 43 45  1  0  0  0  0
 44 46  1  0  0  0  0
 44 47  1  0  0  0  0
 45 49  1  0  0  0  0
 46 51  1  0  0  0  0
 47 67  1  0  0  0  0
 48 51  1  0  0  0  0
 48 67  1  0  0  0  0
 49 70  1  0  0  0  0
 50 66  1  0  0  0  0
 51 65  1  0  0  0  0
 52 62  1  0  0  0  0
 53 63  1  0  0  0  0
 54 63  1  0  0  0  0
 55 63  1  0  0  0  0
 56 73  1  0  0  0  0
 57 74  1  0  0  0  0
 58 72  1  0  0  0  0
 59 73  1  0  0  0  0
 60 82  1  0  0  0  0
 61 63  1  0  0  0  0
 61 71  1  0  0  0  0
 62 74  1  0  0  0  0
 64 65  1  0  0  0  0
M  CHG  1  74   1
M  ISO  4  39 100  60 101  72 100  82 101
M  END
> <Batch ID>
0051

> <Smiles>
CNC(C)C(=O)NC(C(=O)N1Cc2cc([101O:1][101CH2:1]C(=O)N(C)Cc3cccc(C[100NH:0][100C:0](=O)N4CCCC(n5nc(-c6ccc(Oc7ccc(F)cc7F)cc6)c(C(N)=O)c5N)C4)c3)ccc2CC1C(=O)NC1CCCc2ccccc21)C(C)(C)C

> <Shape>
0.214

> <Color>
0.088

> <Negative vol penalty>
0.000

$$$$

  -OEChem-04042322373D

 87 95  0     1  0  0  0  0  0999 V2000
  -28.0853  -36.4009   22.1600 C   0  0  0  0  0  0  0  0  0  0  0  0
  -28.3748  -35.0408   22.1175 C   0  0  0  0  0  0  0  0  0  0  0  0
  -24.6905  -12.2796   19.8083 C   0  0  0  0  0  0  0  0  0  0  0  0
  -25.6590  -13.0032   21.9000 C   0  0  0  0  0  0  0  0  0  0  0  0
  -26.8618  -36.8364   22.6671 C   0  0  0  0  0  0  0  0  0  0  0  0
  -27.4413  -34.1155   22.5831 C   0  0  0  0  0  0  0  0  0  0  0  0
  -26.9044  -30.1609   19.4658 C   0  0  0  0  0  0  0  0  0  0  0  0
  -25.2012  -10.9982   20.0150 C   0  0  0  0  0  0  0  0  0  0  0  0
  -26.1697  -11.7218   22.1068 C   0  0  0  0  0  0  0  0  0  0  0  0
  -27.8910  -29.1769   19.5098 C   0  0  0  0  0  0  0  0  0  0  0  0
  -25.9437   -7.4428   20.1663 C   0  0  0  0  0  0  0  0  0  0  0  0
  -25.0983   -6.3605   19.9223 C   0  0  0  0  0  0  0  0  0  0  0  0
  -26.4591  -27.8116   20.8900 C   0  0  0  0  0  0  0  0  0  0  0  0
  -29.7199  -21.4924   20.7910 C   0  0  0  0  0  0  0  0  0  0  0  0
  -28.8416  -20.4366   22.7786 C   0  0  0  0  0  0  0  0  0  0  0  0
  -23.5634   -7.1819   21.5976 C   0  0  0  0  0  0  0  0  0  0  0  0
  -24.9194  -13.2821   20.7507 C   0  0  0  0  0  0  0  0  0  0  0  0
  -23.1392  -15.0986   20.9476 C   0  0  0  0  0  0  0  0  0  0  0  0
  -25.9089  -35.9155   23.1302 C   0  0  0  0  0  0  0  0  0  0  0  0
  -25.6899  -29.9821   20.1436 C   0  0  0  0  0  0  0  0  0  0  0  0
  -26.2044  -34.5392   23.0981 C   0  0  0  0  0  0  0  0  0  0  0  0
  -25.4577  -28.7938   20.8508 C   0  0  0  0  0  0  0  0  0  0  0  0
  -30.7839  -22.0047   21.5332 C   0  0  0  0  0  0  0  0  0  0  0  0
  -30.8768  -21.7329   22.8982 C   0  0  0  0  0  0  0  0  0  0  0  0
  -28.7486  -20.7084   21.4137 C   0  0  0  0  0  0  0  0  0  0  0  0
  -25.9408  -10.7193   21.1643 C   0  0  0  0  0  0  0  0  0  0  0  0
  -27.6696  -28.0032   20.2244 C   0  0  0  0  0  0  0  0  0  0  0  0
  -25.5991   -8.3946   21.1260 C   0  0  0  0  0  0  0  0  0  0  0  0
  -23.9081   -6.2301   20.6379 C   0  0  0  0  0  0  0  0  0  0  0  0
  -29.9056  -20.9488   23.5209 C   0  0  0  0  0  0  0  0  0  0  0  0
  -24.4089   -8.2642   21.8416 C   0  0  0  0  0  0  0  0  0  0  0  0
  -24.3926  -14.6062   20.5374 C   0  0  0  0  0  0  0  0  0  0  0  0
  -23.1206  -16.3995   20.5072 C   0  0  0  0  0  0  0  0  0  0  0  0
  -22.0860  -14.4392   21.6629 C   0  0  0  0  0  0  0  0  0  0  0  0
  -24.1961  -31.4946   22.5068 C   0  0  0  0  0  0  0  0  0  0  0  0
  -21.8064  -29.4167   21.8039 C   0  0  0  0  0  0  0  0  0  0  0  0
  -30.8410  -25.0974   20.4107 C   0  0  0  0  0  0  0  0  0  0  0  0
  -20.8732  -26.4213   20.4610 C   0  0  0  0  0  0  0  0  0  0  0  0
  -27.4266  -20.3618   19.2975 C   0  0  0  0  0  0  0  0  0  0  0  0
  -24.6192  -36.4365   23.7133 C   0  0  0  0  0  0  0  0  0  0  0  0
  -24.6253  -31.0416   20.0641 C   0  0  0  0  0  0  0  0  0  0  0  0
  -24.1630  -28.5443   21.5788 C   0  0  0  0  0  0  0  0  0  0  0  0
  -23.5337  -35.3708   23.8402 C   0  0  0  0  0  0  0  0  0  0  0  0
  -24.9011  -19.2137   17.0656 C   0  0  0  0  0  0  0  0  0  0  0  0
  -24.1051  -34.0975   24.4558 C   0  0  0  0  0  0  0  0  0  0  0  0
  -24.3659  -17.9501   17.7430 C   0  0  0  0  0  0  0  0  0  0  0  0
  -26.4085  -19.3667   17.2607 C   0  0  0  0  0  0  0  0  0  0  0  0
  -26.3288  -18.0361   19.3325 C   0  0  0  0  0  0  0  0  0  0  0  0
  -25.2076  -33.5034   23.5709 C   0  0  1  0  0  0  0  0  0  0  0  0
  -23.6281  -30.9743   21.2167 C   0  0  1  0  0  0  0  0  0  0  0  0
  -24.8043  -17.8728   19.2186 C   0  0  2  0  0  0  0  0  0  0  0  0
  -32.8785  -21.1544   24.3167 C   0  0  0  0  0  0  0  0  0  0  0  0
  -31.5328  -23.2256   24.8206 C   0  0  0  0  0  0  0  0  0  0  0  0
  -18.8553  -24.9827   20.0660 C   0  0  0  0  0  0  0  0  0  0  0  0
  -21.7961  -28.6261   24.7509 C   0  0  0  0  0  0  0  0  0  0  0  0
  -20.4876  -26.5849   24.1268 C   0  0  0  0  0  0  0  0  0  0  0  0
  -19.5272  -28.8516   23.7234 C   0  0  0  0  0  0  0  0  0  0  0  0
  -21.2454  -26.5034   17.5261 C   0  0  0  0  0  0  0  0  0  0  0  0
  -31.8175  -22.8455   20.8412 C   0  0  0  0  0  0  0  0  0  0  0  0
  -30.8766  -26.5161   20.9571 C   0  0  0  0  0  0  0  0  0  0  0  0
  -29.9879  -27.4745   20.1795 C   0  0  0  0  0  0  0  0  0  1  0  0
  -32.0089  -22.2709   23.7105 C   0  0  0  0  0  0  0  0  0  0  0  0
  -21.4236  -28.0316   22.2662 C   0  0  1  0  0  0  0  0  0  0  0  0
  -19.7669  -26.0543   19.4885 C   0  0  2  0  0  0  0  0  0  0  0  0
  -20.8339  -28.0288   23.7048 C   0  0  0  0  0  0  0  0  0  0  0  0
  -25.1176  -15.5196   19.8862 N   0  0  0  0  0  0  0  0  0  0  0  0
  -24.3172  -16.5992   19.8839 N   0  0  0  0  0  0  0  0  0  0  0  0
  -23.1555  -29.6129   21.4764 N   0  0  0  0  0  0  0  0  0  0  0  0
  -26.7490  -19.2876   18.6829 N   0  0  0  0  0  0  0  0  0  0  0  0
  -22.1975  -17.3805   20.5960 N   0  0  0  0  0  0  0  0  0  0  0  0
  -22.2697  -13.1018   22.0397 N   0  0  0  0  0  0  0  0  0  0  0  0
  -27.6678  -20.1876   20.6598 N   0  0  0  0  0  0  0  0  0  0  0  0
  -24.6290  -32.8053   22.4429 N   0  0  0  0  0  0  0  0  0  0  0  0
  -31.6614  -24.2505   21.1420 N   0  0  0  0  0  0  0  0  0  0  0  0
  -20.5235  -27.4964   21.2504 N   0  0  0  0  0  0  0  0  0  0  0  0
  -20.3460  -25.5421   18.2145 N   0  3  0  0  0  0  0  0  0  0  0  0
  -21.0072  -15.0139   21.9448 O   0  0  0  0  0  0  0  0  0  0  0  0
  -24.2372  -30.7616   23.4880 O   0  0  0  0  0  0  0  0  0  0  0  0
  -20.9389  -30.2905   21.7290 O   0  0  0  0  0  0  0  0  0  0  0  0
  -30.1633  -24.7655   19.4419 O   0  0  0  0  0  0  0  0  0  0  0  0
  -21.9394  -25.8126   20.5176 O   0  0  0  0  0  0  0  0  0  0  0  0
  -27.7436  -21.3743   18.6679 O   0  0  0  0  0  0  0  0  0  0  0  0
  -26.4391   -9.4689   21.3666 O   0  0  0  0  0  0  0  0  0  0  0  0
  -28.6312  -27.0414   20.2696 O   0  0  0  0  0  0  0  0  0  1  0  0
  -23.0956   -5.1916   20.4024 F   0  0  0  0  0  0  0  0  0  0  0  0
  -29.9871  -20.6796   24.8316 F   0  0  0  0  0  0  0  0  0  0  0  0
  -24.0718   -9.1760   22.7640 F   0  0  0  0  0  0  0  0  0  0  0  0
  1  2  1  0  0  0  0
  1  5  2  0  0  0  0
  2  6  2  0  0  0  0
  3  8  2  0  0  0  0
  3 17  1  0  0  0  0
  4  9  1  0  0  0  0
  4 17  2  0  0  0  0
  5 19  1  0  0  0  0
  6 21  1  0  0  0  0
  7 10  2  0  0  0  0
  7 20  1  0  0  0  0
  8 26  1  0  0  0  0
  9 26  2  0  0  0  0
 10 27  1  0  0  0  0
 11 12  2  0  0  0  0
 11 28  1  0  0  0  0
 12 29  1  0  0  0  0
 13 22  1  0  0  0  0
 13 27  2  0  0  0  0
 14 23  1  0  0  0  0
 14 25  2  0  0  0  0
 15 25  1  0  0  0  0
 15 30  2  0  0  0  0
 16 29  2  0  0  0  0
 16 31  1  0  0  0  0
 17 32  1  0  0  0  0
 18 32  1  0  0  0  0
 18 33  2  0  0  0  0
 18 34  1  0  0  0  0
 19 21  2  0  0  0  0
 19 40  1  0  0  0  0
 20 22  2  0  0  0  0
 20 41  1  0  0  0  0
 21 49  1  0  0  0  0
 22 42  1  0  0  0  0
 23 24  2  0  0  0  0
 23 59  1  0  0  0  0
 24 30  1  0  0  0  0
 24 62  1  0  0  0  0
 25 72  1  0  0  0  0
 26 83  1  0  0  0  0
 27 84  1  0  0  0  0
 28 31  2  0  0  0  0
 28 83  1  0  0  0  0
 29 85  1  0  0  0  0
 30 86  1  0  0  0  0
 31 87  1  0  0  0  0
 32 66  2  0  0  0  0
 33 67  1  0  0  0  0
 33 70  1  0  0  0  0
 34 71  1  0  0  0  0
 34 77  2  0  0  0  0
 35 50  1  0  0  0  0
 35 73  1  0  0  0  0
 35 78  2  0  0  0  0
 36 63  1  0  0  0  0
 36 68  1  0  0  0  0
 36 79  2  0  0  0  0
 37 60  1  0  0  0  0
 37 74  1  0  0  0  0
 37 80  2  0  0  0  0
 38 64  1  0  0  0  0
 38 75  1  0  0  0  0
 38 81  2  0  0  0  0
 39 69  1  0  0  0  0
 39 72  1  0  0  0  0
 39 82  2  0  0  0  0
 40 43  1  0  0  0  0
 41 50  1  0  0  0  0
 42 68  1  0  0  0  0
 43 45  1  0  0  0  0
 44 46  1  0  0  0  0
 44 47  1  0  0  0  0
 45 49  1  0  0  0  0
 46 51  1  0  0  0  0
 47 69  1  0  0  0  0
 48 51  1  0  0  0  0
 48 69  1  0  0  0  0
 49 73  1  0  0  0  0
 50 68  1  0  0  0  0
 51 67  1  0  0  0  0
 52 62  1  0  0  0  0
 53 62  1  0  0  0  0
 54 64  1  0  0  0  0
 55 65  1  0  0  0  0
 56 65  1  0  0  0  0
 57 65  1  0  0  0  0
 58 76  1  0  0  0  0
 59 74  1  0  0  0  0
 60 61  1  0  0  0  0
 61 84  1  0  0  0  0
 63 65  1  0  0  0  0
 63 75  1  0  0  0  0
 64 76  1  0  0  0  0
 66 67  1  0  0  0  0
M  CHG  1  76   1
M  ISO  4  39 100  61 101  72 100  84 101
M  END
> <Batch ID>
0051

> <Smiles>
CNC(C)C(=O)NC(C(=O)N1Cc2cc([101O:1][101CH2:1]CC(=O)NCc3cc([100NH:0][100C:0](=O)N4CCCC(n5nc(-c6ccc(Oc7ccc(F)cc7F)cc6)c(C(N)=O)c5N)C4)cc(F)c3C(C)C)ccc2CC1C(=O)NC1CCCc2ccccc21)C(C)(C)C

> <Shape>
0.276

> <Color>
0.092

> <Negative vol penalty>
0.000

$$$$

  -OEChem-04042322373D

 90 98  0     1  0  0  0  0  0999 V2000
  -26.6694  -29.1510   19.2877 C   0  0  0  0  0  0  0  0  0  0  0  0
  -26.7771  -27.7751   19.4634 C   0  0  0  0  0  0  0  0  0  0  0  0
  -30.6705  -23.1388   20.1240 C   0  0  0  0  0  0  0  0  0  0  0  0
  -29.2842  -22.6446   18.2079 C   0  0  0  0  0  0  0  0  0  0  0  0
  -25.6996  -29.8681   19.9871 C   0  0  0  0  0  0  0  0  0  0  0  0
  -25.9156  -27.1157   20.3393 C   0  0  0  0  0  0  0  0  0  0  0  0
  -22.5597  -20.8465   21.2063 C   0  0  0  0  0  0  0  0  0  0  0  0
  -31.1278  -24.2965   19.4946 C   0  0  0  0  0  0  0  0  0  0  0  0
  -29.7415  -23.8024   17.5785 C   0  0  0  0  0  0  0  0  0  0  0  0
  -22.3867  -19.8396   22.1550 C   0  0  0  0  0  0  0  0  0  0  0  0
  -32.9325  -27.1945   18.2423 C   0  0  0  0  0  0  0  0  0  0  0  0
  -34.3011  -27.4602   18.2849 C   0  0  0  0  0  0  0  0  0  0  0  0
  -24.1160  -11.8276   20.9328 C   0  0  0  0  0  0  0  0  0  0  0  0
  -20.6979  -21.1695   23.2498 C   0  0  0  0  0  0  0  0  0  0  0  0
  -26.4525  -12.2957   20.5344 C   0  0  0  0  0  0  0  0  0  0  0  0
  -34.7411  -25.3775   17.1422 C   0  0  0  0  0  0  0  0  0  0  0  0
  -29.7487  -22.3128   19.4806 C   0  0  0  0  0  0  0  0  0  0  0  0
  -23.8279  -13.1895   20.8436 C   0  0  0  0  0  0  0  0  0  0  0  0
  -28.1555  -20.9925   20.9727 C   0  0  0  0  0  0  0  0  0  0  0  0
  -24.8194  -29.2157   20.8648 C   0  0  0  0  0  0  0  0  0  0  0  0
  -21.8096  -22.0291   21.2787 C   0  0  0  0  0  0  0  0  0  0  0  0
  -24.9339  -27.8249   21.0521 C   0  0  0  0  0  0  0  0  0  0  0  0
  -20.8615  -22.1888   22.2993 C   0  0  0  0  0  0  0  0  0  0  0  0
  -24.8521  -14.1045   20.5997 C   0  0  0  0  0  0  0  0  0  0  0  0
  -26.1644  -13.6576   20.4451 C   0  0  0  0  0  0  0  0  0  0  0  0
  -30.6632  -24.6284   18.2219 C   0  0  0  0  0  0  0  0  0  0  0  0
  -21.4578  -20.0022   23.1786 C   0  0  0  0  0  0  0  0  0  0  0  0
  -32.4682  -26.0202   17.6497 C   0  0  0  0  0  0  0  0  0  0  0  0
  -35.2055  -26.5518   17.7348 C   0  0  0  0  0  0  0  0  0  0  0  0
  -25.4283  -11.3807   20.7782 C   0  0  0  0  0  0  0  0  0  0  0  0
  -33.3725  -25.1117   17.0997 C   0  0  0  0  0  0  0  0  0  0  0  0
  -29.2764  -21.1164   20.1300 C   0  0  0  0  0  0  0  0  0  0  0  0
  -28.1374  -19.6656   21.3270 C   0  0  0  0  0  0  0  0  0  0  0  0
  -22.4203  -13.6336   21.0124 C   0  0  0  0  0  0  0  0  0  0  0  0
  -27.2149  -21.9878   21.3972 C   0  0  0  0  0  0  0  0  0  0  0  0
  -22.5056  -25.1071   21.6599 C   0  0  0  0  0  0  0  0  0  0  0  0
  -19.3292  -25.4906   21.1249 C   0  0  0  0  0  0  0  0  0  0  0  0
  -16.1957  -24.1404   21.1947 C   0  0  0  0  0  0  0  0  0  0  0  0
  -21.0299  -15.9435   23.5843 C   0  0  0  0  0  0  0  0  0  0  0  0
  -28.5715  -14.2697   20.0238 C   0  0  0  0  0  0  0  0  0  0  0  0
  -23.8181  -30.0400   21.6345 C   0  0  0  0  0  0  0  0  0  0  0  0
  -21.9891  -23.0944   20.2321 C   0  0  0  0  0  0  0  0  0  0  0  0
  -20.0167  -23.4308   22.4096 C   0  0  0  0  0  0  0  0  0  0  0  0
  -22.6993  -29.2112   22.2602 C   0  0  0  0  0  0  0  0  0  0  0  0
  -31.5983  -16.0317   20.6649 C   0  0  0  0  0  0  0  0  0  0  0  0
  -23.2728  -27.9862   22.9653 C   0  0  0  0  0  0  0  0  0  0  0  0
  -31.1719  -17.5015   20.6522 C   0  0  0  0  0  0  0  0  0  0  0  0
  -30.8365  -15.2112   19.6256 C   0  0  0  0  0  0  0  0  0  0  0  0
  -28.9475  -16.7915   19.6851 C   0  0  0  0  0  0  0  0  0  0  0  0
  -24.0016  -27.0702   21.9747 C   0  0  1  0  0  0  0  0  0  0  0  0
  -21.5376  -24.4743   20.7006 C   0  0  1  0  0  0  0  0  0  0  0  0
  -29.6410  -17.6450   20.7594 C   0  0  2  0  0  0  0  0  0  0  0  0
  -24.5416  -15.5659   20.5037 C   0  0  0  0  0  0  0  0  0  0  0  0
  -13.7950  -24.7091   20.7359 C   0  0  0  0  0  0  0  0  0  0  0  0
  -20.3297  -15.7887   21.1614 C   0  0  0  0  0  0  0  0  0  0  0  0
  -19.9521  -13.8300   22.7038 C   0  0  0  0  0  0  0  0  0  0  0  0
  -19.2090  -27.0742   23.7303 C   0  0  0  0  0  0  0  0  0  0  0  0
  -16.7213  -26.7927   23.7052 C   0  0  0  0  0  0  0  0  0  0  0  0
  -17.8528  -28.0353   21.8617 C   0  0  0  0  0  0  0  0  0  0  0  0
  -15.9798  -22.0542   19.1066 C   0  0  0  0  0  0  0  0  0  0  0  0
  -19.7664  -17.4537   25.1112 C   0  0  0  0  0  0  0  0  0  0  0  0
  -19.9898  -18.8940   24.6862 C   0  0  0  0  0  0  0  0  0  1  0  0
  -18.0950  -25.5221   21.9936 C   0  0  1  0  0  0  0  0  0  0  0  0
  -15.0802  -24.1300   20.1652 C   0  0  2  0  0  0  0  0  0  0  0  0
  -20.8650  -15.0119   22.3678 C   0  0  0  0  0  0  0  0  0  0  0  0
  -17.9867  -26.8334   22.8220 C   0  0  0  0  0  0  0  0  0  0  0  0
  -29.9235  -19.9605   19.9594 N   0  0  0  0  0  0  0  0  0  0  0  0
  -29.2070  -19.0976   20.6998 N   0  0  0  0  0  0  0  0  0  0  0  0
  -20.2335  -24.4465   21.3661 N   0  0  0  0  0  0  0  0  0  0  0  0
  -29.3928  -15.3932   19.7910 N   0  0  0  0  0  0  0  0  0  0  0  0
  -27.3110  -18.9410   22.1109 N   0  0  0  0  0  0  0  0  0  0  0  0
  -27.3805  -23.3021   20.9393 N   0  0  0  0  0  0  0  0  0  0  0  0
  -27.2207  -14.5691   20.1976 N   0  0  0  0  0  0  0  0  0  0  0  0
  -22.1903  -14.5076   22.0587 N   0  0  0  0  0  0  0  0  0  0  0  0
  -23.0494  -26.2947   21.2089 N   0  0  0  0  0  0  0  0  0  0  0  0
  -19.8463  -16.5483   23.9958 N   0  0  0  0  0  0  0  0  0  0  0  0
  -16.9637  -25.2820   21.1042 N   0  0  0  0  0  0  0  0  0  0  0  0
  -14.8071  -22.7371   19.7113 N   0  3  0  0  0  0  0  0  0  0  0  0
  -21.5590  -13.1997   20.2519 O   0  0  0  0  0  0  0  0  0  0  0  0
  -26.2654  -21.7231   22.1730 O   0  0  0  0  0  0  0  0  0  0  0  0
  -22.7406  -24.5592   22.7305 O   0  0  0  0  0  0  0  0  0  0  0  0
  -19.4819  -26.3561   20.2594 O   0  0  0  0  0  0  0  0  0  0  0  0
  -16.3663  -23.2288   22.0012 O   0  0  0  0  0  0  0  0  0  0  0  0
  -22.1159  -16.1263   24.1351 O   0  0  0  0  0  0  0  0  0  0  0  0
  -29.0365  -13.1291   20.0928 O   0  0  0  0  0  0  0  0  0  0  0  0
  -31.1091  -25.7581   17.6075 O   0  0  0  0  0  0  0  0  0  0  0  0
  -21.2874  -19.0212   24.1063 O   0  0  0  0  0  0  0  0  0  1  0  0
  -36.5196  -26.8079   17.7745 F   0  0  0  0  0  0  0  0  0  0  0  0
  -25.7052  -10.0730   20.8653 F   0  0  0  0  0  0  0  0  0  0  0  0
  -32.9323  -23.9824   16.5280 F   0  0  0  0  0  0  0  0  0  0  0  0
  1  2  1  0  0  0  0
  1  5  2  0  0  0  0
  2  6  2  0  0  0  0
  3  8  2  0  0  0  0
  3 17  1  0  0  0  0
  4  9  1  0  0  0  0
  4 17  2  0  0  0  0
  5 20  1  0  0  0  0
  6 22  1  0  0  0  0
  7 10  2  0  0  0  0
  7 21  1  0  0  0  0
  8 26  1  0  0  0  0
  9 26  2  0  0  0  0
 10 27  1  0  0  0  0
 11 12  2  0  0  0  0
 11 28  1  0  0  0  0
 12 29  1  0  0  0  0
 13 18  1  0  0  0  0
 13 30  2  0  0  0  0
 14 23  1  0  0  0  0
 14 27  2  0  0  0  0
 15 25  2  0  0  0  0
 15 30  1  0  0  0  0
 16 29  2  0  0  0  0
 16 31  1  0  0  0  0
 17 32  1  0  0  0  0
 18 24  2  0  0  0  0
 18 34  1  0  0  0  0
 19 32  1  0  0  0  0
 19 33  2  0  0  0  0
 19 35  1  0  0  0  0
 20 22  2  0  0  0  0
 20 41  1  0  0  0  0
 21 23  2  0  0  0  0
 21 42  1  0  0  0  0
 22 50  1  0  0  0  0
 23 43  1  0  0  0  0
 24 25  1  0  0  0  0
 24 53  1  0  0  0  0
 25 73  1  0  0  0  0
 26 86  1  0  0  0  0
 27 87  1  0  0  0  0
 28 31  2  0  0  0  0
 28 86  1  0  0  0  0
 29 88  1  0  0  0  0
 30 89  1  0  0  0  0
 31 90  1  0  0  0  0
 32 67  2  0  0  0  0
 33 68  1  0  0  0  0
 33 71  1  0  0  0  0
 34 74  1  0  0  0  0
 34 79  2  0  0  0  0
 35 72  1  0  0  0  0
 35 80  2  0  0  0  0
 36 51  1  0  0  0  0
 36 75  1  0  0  0  0
 36 81  2  0  0  0  0
 37 63  1  0  0  0  0
 37 69  1  0  0  0  0
 37 82  2  0  0  0  0
 38 64  1  0  0  0  0
 38 77  1  0  0  0  0
 38 83  2  0  0  0  0
 39 65  1  0  0  0  0
 39 76  1  0  0  0  0
 39 84  2  0  0  0  0
 40 70  1  0  0  0  0
 40 73  1  0  0  0  0
 40 85  2  0  0  0  0
 41 44  1  0  0  0  0
 42 51  1  0  0  0  0
 43 69  1  0  0  0  0
 44 46  1  0  0  0  0
 45 47  1  0  0  0  0
 45 48  1  0  0  0  0
 46 50  1  0  0  0  0
 47 52  1  0  0  0  0
 48 70  1  0  0  0  0
 49 52  1  0  0  0  0
 49 70  1  0  0  0  0
 50 75  1  0  0  0  0
 51 69  1  0  0  0  0
 52 68  1  0  0  0  0
 54 64  1  0  0  0  0
 55 65  1  0  0  0  0
 56 65  1  0  0  0  0
 57 66  1  0  0  0  0
 58 66  1  0  0  0  0
 59 66  1  0  0  0  0
 60 78  1  0  0  0  0
 61 62  1  0  0  0  0
 61 76  1  0  0  0  0
 62 87  1  0  0  0  0
 63 66  1  0  0  0  0
 63 77  1  0  0  0  0
 64 78  1  0  0  0  0
 65 74  1  0  0  0  0
 67 68  1  0  0  0  0
M  CHG  1  78   1
M  ISO  4  40 100  62 101  73 100  87 101
M  END
> <Batch ID>
0051

> <Smiles>
CNC(C)C(=O)NC(C(=O)N1Cc2cc([101O:1][101CH2:1]CNC(=O)C(C)(C)NC(=O)c3cc(F)cc([100NH:0][100C:0](=O)N4CCCC(n5nc(-c6ccc(Oc7ccc(F)cc7F)cc6)c(C(N)=O)c5N)C4)c3C)ccc2CC1C(=O)NC1CCCc2ccccc21)C(C)(C)C

> <Shape>
0.239

> <Color>
0.047

> <Negative vol penalty>
0.000

$$$$

  -OEChem-04042322373D

 89 98  0     1  0  0  0  0  0999 V2000
  -27.8808  -36.7236   24.7605 C   0  0  0  0  0  0  0  0  0  0  0  0
  -28.3827  -35.5815   24.1447 C   0  0  0  0  0  0  0  0  0  0  0  0
  -23.4615  -11.2921   20.5748 C   0  0  0  0  0  0  0  0  0  0  0  0
  -21.5453  -12.0469   19.3117 C   0  0  0  0  0  0  0  0  0  0  0  0
  -26.6574  -36.6741   25.4272 C   0  0  0  0  0  0  0  0  0  0  0  0
  -27.6619  -34.3890   24.1963 C   0  0  0  0  0  0  0  0  0  0  0  0
  -27.3310  -30.0958   19.8414 C   0  0  0  0  0  0  0  0  0  0  0  0
  -23.5629  -10.1710   19.7512 C   0  0  0  0  0  0  0  0  0  0  0  0
  -21.6467  -10.9258   18.4880 C   0  0  0  0  0  0  0  0  0  0  0  0
  -27.9962  -28.8829   19.6675 C   0  0  0  0  0  0  0  0  0  0  0  0
  -22.0345   -7.1740   19.4250 C   0  0  0  0  0  0  0  0  0  0  0  0
  -22.2452   -5.9383   20.0367 C   0  0  0  0  0  0  0  0  0  0  0  0
  -26.1440  -27.7269   20.6931 C   0  0  0  0  0  0  0  0  0  0  0  0
  -27.1750  -20.4465   19.5524 C   0  0  0  0  0  0  0  0  0  0  0  0
  -28.0367  -18.5048   20.7033 C   0  0  0  0  0  0  0  0  0  0  0  0
  -24.3161   -5.6880   18.8176 C   0  0  0  0  0  0  0  0  0  0  0  0
  -22.4527  -12.2301   20.3552 C   0  0  0  0  0  0  0  0  0  0  0  0
  -22.1420  -13.4039   22.5987 C   0  0  0  0  0  0  0  0  0  0  0  0
  -25.9166  -35.4828   25.4788 C   0  0  0  0  0  0  0  0  0  0  0  0
  -26.0699  -30.1346   20.4534 C   0  0  0  0  0  0  0  0  0  0  0  0
  -26.4281  -34.3232   24.8656 C   0  0  0  0  0  0  0  0  0  0  0  0
  -25.4637  -28.9413   20.8713 C   0  0  0  0  0  0  0  0  0  0  0  0
  -28.4716  -20.8017   19.1809 C   0  0  0  0  0  0  0  0  0  0  0  0
  -29.3334  -18.8600   20.3316 C   0  0  0  0  0  0  0  0  0  0  0  0
  -29.5508  -20.0085   19.5704 C   0  0  0  0  0  0  0  0  0  0  0  0
  -26.9575  -19.2980   20.3137 C   0  0  0  0  0  0  0  0  0  0  0  0
  -22.6555   -9.9878   18.7078 C   0  0  0  0  0  0  0  0  0  0  0  0
  -27.4040  -27.6986   20.0959 C   0  0  0  0  0  0  0  0  0  0  0  0
  -22.9645   -7.6668   18.5095 C   0  0  0  0  0  0  0  0  0  0  0  0
  -23.3860   -5.1953   19.7330 C   0  0  0  0  0  0  0  0  0  0  0  0
  -24.1053   -6.9237   18.2059 C   0  0  0  0  0  0  0  0  0  0  0  0
  -22.3471  -13.3881   21.2060 C   0  0  0  0  0  0  0  0  0  0  0  0
  -22.1166  -14.7373   22.9269 C   0  0  0  0  0  0  0  0  0  0  0  0
  -29.4464  -24.3407   18.3199 C   0  0  0  0  0  0  0  0  0  0  0  0
  -30.7056  -24.6297   17.9583 C   0  0  0  0  0  0  0  0  0  0  0  0
  -21.9883  -12.3109   23.5138 C   0  0  0  0  0  0  0  0  0  0  0  0
  -24.8955  -31.4690   23.0885 C   0  0  0  0  0  0  0  0  0  0  0  0
  -22.0754  -30.3739   21.9179 C   0  0  0  0  0  0  0  0  0  0  0  0
  -20.8785  -27.3733   20.3113 C   0  0  0  0  0  0  0  0  0  0  0  0
  -24.4590  -19.6120   20.3861 C   0  0  0  0  0  0  0  0  0  0  0  0
  -24.6216  -35.4661   26.2518 C   0  0  0  0  0  0  0  0  0  0  0  0
  -25.3538  -31.4481   20.6095 C   0  0  0  0  0  0  0  0  0  0  0  0
  -24.1025  -28.9266   21.5157 C   0  0  0  0  0  0  0  0  0  0  0  0
  -28.2634  -25.1838   17.9191 C   0  0  0  0  0  0  0  0  0  0  0  0
  -23.7418  -34.2582   25.9400 C   0  0  0  0  0  0  0  0  0  0  0  0
  -21.0198  -19.0243   21.0959 C   0  0  0  0  0  0  0  0  0  0  0  0
  -24.5698  -32.9772   25.9523 C   0  0  0  0  0  0  0  0  0  0  0  0
  -20.9523  -17.5146   21.3374 C   0  0  0  0  0  0  0  0  0  0  0  0
  -27.1323  -24.2923   19.9989 C   0  0  0  0  0  0  0  0  0  0  0  0
  -22.0164  -19.3783   19.9935 C   0  0  0  0  0  0  0  0  0  0  0  0
  -23.2977  -17.3172   20.4170 C   0  0  0  0  0  0  0  0  0  0  0  0
  -28.4205  -23.5616   20.3750 C   0  0  0  0  0  0  0  0  0  0  0  0
  -25.6638  -33.0171   24.8785 C   0  0  1  0  0  0  0  0  0  0  0  0
  -24.2981  -31.4259   21.7105 C   0  0  1  0  0  0  0  0  0  0  0  0
  -22.3548  -16.9168   21.5634 C   0  0  2  0  0  0  0  0  0  0  0  0
  -27.3988  -25.5237   19.1333 C   0  0  1  0  0  0  0  0  0  1  0  0
  -30.9412  -20.3892   19.1714 C   0  0  0  0  0  0  0  0  0  0  0  0
  -18.9629  -27.0232   18.7286 C   0  0  0  0  0  0  0  0  0  0  0  0
  -20.4977  -29.6860   24.4373 C   0  0  0  0  0  0  0  0  0  0  0  0
  -19.3341  -27.8922   23.1347 C   0  0  0  0  0  0  0  0  0  0  0  0
  -19.0922  -30.2804   22.4560 C   0  0  0  0  0  0  0  0  0  0  0  0
  -22.6334  -26.1277   18.2796 C   0  0  0  0  0  0  0  0  0  0  0  0
  -28.6786  -22.0421   18.3626 C   0  0  0  0  0  0  0  0  0  0  0  0
  -30.4715  -17.9934   20.7616 C   0  0  0  0  0  0  0  0  0  0  0  0
  -21.2874  -29.0933   22.0517 C   0  0  1  0  0  0  0  0  0  0  0  0
  -20.4648  -27.2235   18.8584 C   0  0  2  0  0  0  0  0  0  0  0  0
  -20.0812  -29.2383   23.0220 C   0  0  0  0  0  0  0  0  0  0  0  0
  -22.4449  -14.6142   20.6853 N   0  0  0  0  0  0  0  0  0  0  0  0
  -22.3005  -15.4129   21.7564 N   0  0  0  0  0  0  0  0  0  0  0  0
  -23.4452  -30.2370   21.6519 N   0  0  0  0  0  0  0  0  0  0  0  0
  -23.3235  -18.7817   20.2772 N   0  0  0  0  0  0  0  0  0  0  0  0
  -21.9551  -15.3861   24.0996 N   0  0  0  0  0  0  0  0  0  0  0  0
  -22.0402  -11.0044   23.0090 N   0  0  0  0  0  0  0  0  0  0  0  0
  -25.6403  -18.9363   20.6904 N   0  0  0  0  0  0  0  0  0  0  0  0
  -25.1007  -32.7467   23.5730 N   0  0  0  0  0  0  0  0  0  0  0  0
  -20.9200  -28.6966   20.6967 N   0  0  0  0  0  0  0  0  0  0  0  0
  -29.2374  -23.1878   19.1603 N   0  3  1  0  0  0  0  0  0  0  0  0
  -21.1502  -26.0521   18.2428 N   0  3  0  0  0  0  0  0  0  0  0  0
  -21.7937  -12.4878   24.7403 O   0  0  0  0  0  0  0  0  0  0  0  0
  -25.1501  -30.4207   23.6698 O   0  0  0  0  0  0  0  0  0  0  0  0
  -21.4956  -31.4561   22.0375 O   0  0  0  0  0  0  0  0  0  0  0  0
  -21.1353  -26.4124   21.0332 O   0  0  0  0  0  0  0  0  0  0  0  0
  -24.3838  -20.8357   20.2485 O   0  0  0  0  0  0  0  0  0  0  0  0
  -22.7543   -8.8941   17.9037 O   0  0  0  0  0  0  0  0  0  0  0  0
  -28.0513  -26.5134   19.9280 O   0  0  0  0  0  0  0  0  0  1  0  0
  -23.5890   -4.0094   20.3217 F   0  0  0  0  0  0  0  0  0  0  0  0
  -25.0029   -7.3924   17.3281 F   0  0  0  0  0  0  0  0  0  0  0  0
  -30.0265  -16.9496   21.5078 F   0  0  0  0  0  0  0  0  0  0  0  0
  -31.3357  -18.6888   21.5454 F   0  0  0  0  0  0  0  0  0  0  0  0
  1  2  1  0  0  0  0
  1  5  2  0  0  0  0
  2  6  2  0  0  0  0
  3  8  2  0  0  0  0
  3 17  1  0  0  0  0
  4  9  1  0  0  0  0
  4 17  2  0  0  0  0
  5 19  1  0  0  0  0
  6 21  1  0  0  0  0
  7 10  2  0  0  0  0
  7 20  1  0  0  0  0
  8 27  1  0  0  0  0
  9 27  2  0  0  0  0
 10 28  1  0  0  0  0
 11 12  2  0  0  0  0
 11 29  1  0  0  0  0
 12 30  1  0  0  0  0
 13 22  1  0  0  0  0
 13 28  2  0  0  0  0
 14 23  1  0  0  0  0
 14 26  2  0  0  0  0
 15 24  2  0  0  0  0
 15 26  1  0  0  0  0
 16 30  2  0  0  0  0
 16 31  1  0  0  0  0
 17 32  1  0  0  0  0
 18 32  1  0  0  0  0
 18 33  2  0  0  0  0
 18 36  1  0  0  0  0
 19 21  2  0  0  0  0
 19 41  1  0  0  0  0
 20 22  2  0  0  0  0
 20 42  1  0  0  0  0
 21 53  1  0  0  0  0
 22 43  1  0  0  0  0
 23 25  2  0  0  0  0
 23 63  1  0  0  0  0
 24 25  1  0  0  0  0
 24 64  1  0  0  0  0
 25 57  1  0  0  0  0
 26 74  1  0  0  0  0
 27 84  1  0  0  0  0
 28 85  1  0  0  0  0
 29 31  2  0  0  0  0
 29 84  1  0  0  0  0
 30 86  1  0  0  0  0
 31 87  1  0  0  0  0
 32 68  2  0  0  0  0
 33 69  1  0  0  0  0
 33 72  1  0  0  0  0
 34 35  2  0  0  0  0
 34 44  1  0  0  0  0
 34 77  1  0  0  0  0
 36 73  1  0  0  0  0
 36 79  2  0  0  0  0
 37 54  1  0  0  0  0
 37 75  1  0  0  0  0
 37 80  2  0  0  0  0
 38 65  1  0  0  0  0
 38 70  1  0  0  0  0
 38 81  2  0  0  0  0
 39 66  1  0  0  0  0
 39 76  1  0  0  0  0
 39 82  2  0  0  0  0
 40 71  1  0  0  0  0
 40 74  1  0  0  0  0
 40 83  2  0  0  0  0
 41 45  1  0  0  0  0
 42 54  1  0  0  0  0
 43 70  1  0  0  0  0
 44 56  1  0  0  0  0
 45 47  1  0  0  0  0
 46 48  1  0  0  0  0
 46 50  1  0  0  0  0
 47 53  1  0  0  0  0
 48 55  1  0  0  0  0
 49 52  1  0  0  0  0
 49 56  1  0  0  0  0
 50 71  1  0  0  0  0
 51 55  1  0  0  0  0
 51 71  1  0  0  0  0
 52 77  1  0  0  0  0
 53 75  1  0  0  0  0
 54 70  1  0  0  0  0
 55 69  1  0  0  0  0
 56 85  1  0  0  0  0
 58 66  1  0  0  0  0
 59 67  1  0  0  0  0
 60 67  1  0  0  0  0
 61 67  1  0  0  0  0
 62 78  1  0  0  0  0
 63 77  1  0  0  0  0
 64 88  1  0  0  0  0
 64 89  1  0  0  0  0
 65 67  1  0  0  0  0
 65 76  1  0  0  0  0
 66 78  1  0  0  0  0
 68 69  1  0  0  0  0
M  CHG  2  77   1  78   1
M  ISO  4  40 100  56 101  74 100  85 101
M  END
> <Batch ID>
0051

> <Smiles>
C=C1C[101CH:1]([101O:1]c2ccc3c(c2)CN(C(=O)C(NC(=O)C(C)NC)C(C)(C)C)C(C(=O)NC2CCCc4ccccc42)C3)CCN1Cc1cc([100NH:0][100C:0](=O)N2CCCC(n3nc(-c4ccc(Oc5ccc(F)cc5F)cc4)c(C(N)=O)c3N)C2)cc(C(F)F)c1C

> <Shape>
0.277

> <Color>
0.063

> <Negative vol penalty>
0.000

$$$$

  -OEChem-04042322373D

 88 97  0     1  0  0  0  0  0999 V2000
  -27.5121  -36.2454   23.9526 C   0  0  0  0  0  0  0  0  0  0  0  0
  -27.9460  -35.2039   23.1386 C   0  0  0  0  0  0  0  0  0  0  0  0
  -23.7526  -14.3160   22.1710 C   0  0  0  0  0  0  0  0  0  0  0  0
  -25.9963  -14.5442   21.3045 C   0  0  0  0  0  0  0  0  0  0  0  0
  -26.6963  -35.9769   25.0508 C   0  0  0  0  0  0  0  0  0  0  0  0
  -27.5651  -33.8931   23.4232 C   0  0  0  0  0  0  0  0  0  0  0  0
  -26.3973  -29.4395   19.3849 C   0  0  0  0  0  0  0  0  0  0  0  0
  -23.5861  -13.1451   21.4316 C   0  0  0  0  0  0  0  0  0  0  0  0
  -25.8298  -13.3732   20.5651 C   0  0  0  0  0  0  0  0  0  0  0  0
  -27.1684  -28.3809   18.9069 C   0  0  0  0  0  0  0  0  0  0  0  0
  -24.4922   -9.8965   21.6732 C   0  0  0  0  0  0  0  0  0  0  0  0
  -23.9124   -8.8018   22.3145 C   0  0  0  0  0  0  0  0  0  0  0  0
  -26.1595  -26.9175   20.5378 C   0  0  0  0  0  0  0  0  0  0  0  0
  -31.5627  -20.1886   21.5527 C   0  0  0  0  0  0  0  0  0  0  0  0
  -30.9568  -22.1764   20.3204 C   0  0  0  0  0  0  0  0  0  0  0  0
  -22.1190   -8.8034   20.6956 C   0  0  0  0  0  0  0  0  0  0  0  0
  -24.9577  -15.0156   22.1074 C   0  0  0  0  0  0  0  0  0  0  0  0
  -25.0518  -16.3671   24.2690 C   0  0  0  0  0  0  0  0  0  0  0  0
  -26.2973  -34.6632   25.3434 C   0  0  0  0  0  0  0  0  0  0  0  0
  -25.5079  -29.2473   20.4519 C   0  0  0  0  0  0  0  0  0  0  0  0
  -26.7442  -33.6066   24.5272 C   0  0  0  0  0  0  0  0  0  0  0  0
  -25.3764  -27.9747   21.0258 C   0  0  0  0  0  0  0  0  0  0  0  0
  -32.8649  -20.2810   21.0615 C   0  0  0  0  0  0  0  0  0  0  0  0
  -32.2590  -22.2689   19.8292 C   0  0  0  0  0  0  0  0  0  0  0  0
  -33.2131  -21.3211   20.1998 C   0  0  0  0  0  0  0  0  0  0  0  0
  -30.6086  -21.1363   21.1821 C   0  0  0  0  0  0  0  0  0  0  0  0
  -24.6247  -12.6736   20.6287 C   0  0  0  0  0  0  0  0  0  0  0  0
  -27.0517  -27.1204   19.4853 C   0  0  0  0  0  0  0  0  0  0  0  0
  -23.8854  -10.4446   20.5432 C   0  0  0  0  0  0  0  0  0  0  0  0
  -22.7259   -8.2553   21.8256 C   0  0  0  0  0  0  0  0  0  0  0  0
  -22.6988   -9.8981   20.0544 C   0  0  0  0  0  0  0  0  0  0  0  0
  -25.1301  -16.2256   22.8706 C   0  0  0  0  0  0  0  0  0  0  0  0
  -25.2885  -17.7014   24.4929 C   0  0  0  0  0  0  0  0  0  0  0  0
  -30.6205  -24.8422   18.5311 C   0  0  0  0  0  0  0  0  0  0  0  0
  -24.7889  -15.3806   25.2756 C   0  0  0  0  0  0  0  0  0  0  0  0
  -25.2432  -30.4269   23.3917 C   0  0  0  0  0  0  0  0  0  0  0  0
  -22.4773  -28.7322   23.4028 C   0  0  0  0  0  0  0  0  0  0  0  0
  -20.6702  -26.1278   22.1386 C   0  0  0  0  0  0  0  0  0  0  0  0
  -28.2192  -21.9004   21.4133 C   0  0  0  0  0  0  0  0  0  0  0  0
  -25.4534  -34.4167   26.5689 C   0  0  0  0  0  0  0  0  0  0  0  0
  -24.6637  -30.3933   20.9383 C   0  0  0  0  0  0  0  0  0  0  0  0
  -24.4213  -27.7113   22.1602 C   0  0  0  0  0  0  0  0  0  0  0  0
  -24.7880  -33.0430   26.5840 C   0  0  0  0  0  0  0  0  0  0  0  0
  -30.7307  -23.8891   15.7400 C   0  0  0  0  0  0  0  0  0  0  0  0
  -24.8045  -21.9902   22.4178 C   0  0  0  0  0  0  0  0  0  0  0  0
  -25.7931  -31.9588   26.2083 C   0  0  0  0  0  0  0  0  0  0  0  0
  -29.9815  -25.1595   16.1458 C   0  0  0  0  0  0  0  0  0  0  0  0
  -24.4951  -20.5361   22.7809 C   0  0  0  0  0  0  0  0  0  0  0  0
  -31.1354  -23.0225   16.9277 C   0  0  0  0  0  0  0  0  0  0  0  0
  -25.7488  -22.0872   21.2208 C   0  0  0  0  0  0  0  0  0  0  0  0
  -26.6815  -19.8599   21.7089 C   0  0  0  0  0  0  0  0  0  0  0  0
  -26.3321  -32.1742   24.7889 C   0  0  1  0  0  0  0  0  0  0  0  0
  -29.4490  -25.0868   17.5787 C   0  0  2  0  0  0  0  0  0  0  0  0
  -24.1661  -30.2041   22.3680 C   0  0  1  0  0  0  0  0  0  0  0  0
  -25.7857  -19.7104   22.9493 C   0  0  2  0  0  0  0  0  0  0  0  0
  -33.8676  -19.2531   21.4730 C   0  0  0  0  0  0  0  0  0  0  0  0
  -34.6097  -21.4204   19.6736 C   0  0  0  0  0  0  0  0  0  0  0  0
  -18.4561  -24.9697   22.3715 C   0  0  0  0  0  0  0  0  0  0  0  0
  -23.4385  -27.4189   25.9837 C   0  0  0  0  0  0  0  0  0  0  0  0
  -21.6983  -25.6502   25.6498 C   0  0  0  0  0  0  0  0  0  0  0  0
  -21.0131  -28.0281   25.9638 C   0  0  0  0  0  0  0  0  0  0  0  0
  -19.9376  -26.7133   19.3316 C   0  0  0  0  0  0  0  0  0  0  0  0
  -32.6078  -23.3981   18.9033 C   0  0  0  0  0  0  0  0  0  0  0  0
  -28.6917  -26.3621   17.9389 C   0  0  0  0  0  0  0  0  0  1  0  0
  -22.0872  -27.3250   23.7857 C   0  0  1  0  0  0  0  0  0  0  0  0
  -19.2405  -26.0443   21.6349 C   0  0  2  0  0  0  0  0  0  0  0  0
  -22.0788  -27.1106   25.3257 C   0  0  0  0  0  0  0  0  0  0  0  0
  -25.3955  -17.3781   22.2497 N   0  0  0  0  0  0  0  0  0  0  0  0
  -25.4860  -18.2565   23.2628 N   0  0  0  0  0  0  0  0  0  0  0  0
  -31.4690  -23.8170   18.1031 N   0  0  0  0  0  0  0  0  0  0  0  0
  -23.6224  -28.8653   22.6047 N   0  0  0  0  0  0  0  0  0  0  0  0
  -26.9509  -21.2836   21.4534 N   0  0  0  0  0  0  0  0  0  0  0  0
  -25.3447  -18.4423   25.6200 N   0  0  0  0  0  0  0  0  0  0  0  0
  -24.5678  -14.0567   24.8721 N   0  0  0  0  0  0  0  0  0  0  0  0
  -29.2859  -21.0433   21.6818 N   0  0  0  0  0  0  0  0  0  0  0  0
  -25.3609  -31.7392   23.8081 N   0  0  0  0  0  0  0  0  0  0  0  0
  -20.8051  -27.0666   23.1394 N   0  0  0  0  0  0  0  0  0  0  0  0
  -19.2220  -25.7252   20.1793 N   0  3  0  0  0  0  0  0  0  0  0  0
  -30.7629  -25.4791   19.5737 O   0  0  0  0  0  0  0  0  0  0  0  0
  -24.7348  -15.6677   26.4955 O   0  0  0  0  0  0  0  0  0  0  0  0
  -25.9166  -29.4781   23.7765 O   0  0  0  0  0  0  0  0  0  0  0  0
  -21.7872  -29.6780   23.7913 O   0  0  0  0  0  0  0  0  0  0  0  0
  -21.5758  -25.4274   21.6917 O   0  0  0  0  0  0  0  0  0  0  0  0
  -28.3476  -23.1062   21.1862 O   0  0  0  0  0  0  0  0  0  0  0  0
  -24.4626  -11.5309   19.9072 O   0  0  0  0  0  0  0  0  0  0  0  0
  -27.8037  -26.0855   19.0211 O   0  0  0  0  0  0  0  0  0  1  0  0
  -22.1700   -7.2031   22.4406 F   0  0  0  0  0  0  0  0  0  0  0  0
  -22.1118  -10.4196   18.9684 F   0  0  0  0  0  0  0  0  0  0  0  0
  1  2  1  0  0  0  0
  1  5  2  0  0  0  0
  2  6  2  0  0  0  0
  3  8  2  0  0  0  0
  3 17  1  0  0  0  0
  4  9  1  0  0  0  0
  4 17  2  0  0  0  0
  5 19  1  0  0  0  0
  6 21  1  0  0  0  0
  7 10  2  0  0  0  0
  7 20  1  0  0  0  0
  8 27  1  0  0  0  0
  9 27  2  0  0  0  0
 10 28  1  0  0  0  0
 11 12  2  0  0  0  0
 11 29  1  0  0  0  0
 12 30  1  0  0  0  0
 13 22  1  0  0  0  0
 13 28  2  0  0  0  0
 14 23  2  0  0  0  0
 14 26  1  0  0  0  0
 15 24  1  0  0  0  0
 15 26  2  0  0  0  0
 16 30  2  0  0  0  0
 16 31  1  0  0  0  0
 17 32  1  0  0  0  0
 18 32  1  0  0  0  0
 18 33  2  0  0  0  0
 18 35  1  0  0  0  0
 19 21  2  0  0  0  0
 19 40  1  0  0  0  0
 20 22  2  0  0  0  0
 20 41  1  0  0  0  0
 21 52  1  0  0  0  0
 22 42  1  0  0  0  0
 23 25  1  0  0  0  0
 23 56  1  0  0  0  0
 24 25  2  0  0  0  0
 24 63  1  0  0  0  0
 25 57  1  0  0  0  0
 26 75  1  0  0  0  0
 27 85  1  0  0  0  0
 28 86  1  0  0  0  0
 29 31  2  0  0  0  0
 29 85  1  0  0  0  0
 30 87  1  0  0  0  0
 31 88  1  0  0  0  0
 32 68  2  0  0  0  0
 33 69  1  0  0  0  0
 33 73  1  0  0  0  0
 34 53  1  0  0  0  0
 34 70  1  0  0  0  0
 34 79  2  0  0  0  0
 35 74  1  0  0  0  0
 35 80  2  0  0  0  0
 36 54  1  0  0  0  0
 36 76  1  0  0  0  0
 36 81  2  0  0  0  0
 37 65  1  0  0  0  0
 37 71  1  0  0  0  0
 37 82  2  0  0  0  0
 38 66  1  0  0  0  0
 38 77  1  0  0  0  0
 38 83  2  0  0  0  0
 39 72  1  0  0  0  0
 39 75  1  0  0  0  0
 39 84  2  0  0  0  0
 40 43  1  0  0  0  0
 41 54  1  0  0  0  0
 42 71  1  0  0  0  0
 43 46  1  0  0  0  0
 44 47  1  0  0  0  0
 44 49  1  0  0  0  0
 45 48  1  0  0  0  0
 45 50  1  0  0  0  0
 46 52  1  0  0  0  0
 47 53  1  0  0  0  0
 48 55  1  0  0  0  0
 49 70  1  0  0  0  0
 50 72  1  0  0  0  0
 51 55  1  0  0  0  0
 51 72  1  0  0  0  0
 52 76  1  0  0  0  0
 53 64  1  0  0  0  0
 54 71  1  0  0  0  0
 55 69  1  0  0  0  0
 58 66  1  0  0  0  0
 59 67  1  0  0  0  0
 60 67  1  0  0  0  0
 61 67  1  0  0  0  0
 62 78  1  0  0  0  0
 63 70  1  0  0  0  0
 64 86  1  0  0  0  0
 65 67  1  0  0  0  0
 65 77  1  0  0  0  0
 66 78  1  0  0  0  0
 68 69  1  0  0  0  0
M  CHG  1  78   1
M  ISO  4  39 100  64 101  75 100  86 101
M  END
> <Batch ID>
0051

> <Smiles>
CNC(C)C(=O)NC(C(=O)N1Cc2cc([101O:1][101CH2:1]C3CCCN(Cc4cc([100NH:0][100C:0](=O)N5CCCC(n6nc(-c7ccc(Oc8ccc(F)cc8F)cc7)c(C(N)=O)c6N)C5)cc(C)c4C)C3=O)ccc2CC1C(=O)NC1CCCc2ccccc21)C(C)(C)C

> <Shape>
0.275

> <Color>
0.066

> <Negative vol penalty>
0.000

$$$$

  -OEChem-04042322373D

 84 92  0     1  0  0  0  0  0999 V2000
  -24.9040  -24.6428   11.6400 C   0  0  0  0  0  0  0  0  0  0  0  0
  -24.5742  -25.5812   12.6127 C   0  0  0  0  0  0  0  0  0  0  0  0
  -25.9853  -16.1537   20.6772 C   0  0  0  0  0  0  0  0  0  0  0  0
  -23.7893  -15.2305   20.2738 C   0  0  0  0  0  0  0  0  0  0  0  0
  -19.3735  -27.6834   23.3634 C   0  0  0  0  0  0  0  0  0  0  0  0
  -25.2562  -23.3467   12.0145 C   0  0  0  0  0  0  0  0  0  0  0  0
  -24.5953  -25.2238   13.9603 C   0  0  0  0  0  0  0  0  0  0  0  0
  -26.1716  -28.7825   18.6886 C   0  0  0  0  0  0  0  0  0  0  0  0
  -18.7932  -26.4787   23.7602 C   0  0  0  0  0  0  0  0  0  0  0  0
  -26.5127  -14.8648   20.7558 C   0  0  0  0  0  0  0  0  0  0  0  0
  -24.3168  -13.9416   20.3523 C   0  0  0  0  0  0  0  0  0  0  0  0
  -25.4168  -29.5133   19.6051 C   0  0  0  0  0  0  0  0  0  0  0  0
  -27.4415  -12.4186   18.6142 C   0  0  0  0  0  0  0  0  0  0  0  0
  -28.6328  -12.1632   17.9351 C   0  0  0  0  0  0  0  0  0  0  0  0
  -25.5567  -27.6832   21.1705 C   0  0  0  0  0  0  0  0  0  0  0  0
  -19.2637  -25.5359   21.5861 C   0  0  0  0  0  0  0  0  0  0  0  0
  -29.6941  -11.5657   20.0217 C   0  0  0  0  0  0  0  0  0  0  0  0
  -24.6236  -16.3366   20.4363 C   0  0  0  0  0  0  0  0  0  0  0  0
  -19.8988  -27.8144   22.0779 C   0  0  0  0  0  0  0  0  0  0  0  0
  -23.9535  -18.4670   19.2034 C   0  0  0  0  0  0  0  0  0  0  0  0
  -25.2910  -22.9760   13.3680 C   0  0  0  0  0  0  0  0  0  0  0  0
  -26.6161  -27.4901   19.0025 C   0  0  0  0  0  0  0  0  0  0  0  0
  -24.9470  -23.9212   14.3532 C   0  0  0  0  0  0  0  0  0  0  0  0
  -26.3191  -26.9391   20.2572 C   0  0  0  0  0  0  0  0  0  0  0  0
  -18.7383  -25.4049   22.8716 C   0  0  0  0  0  0  0  0  0  0  0  0
  -19.8439  -26.7407   21.1892 C   0  0  0  0  0  0  0  0  0  0  0  0
  -25.6785  -13.7588   20.5933 C   0  0  0  0  0  0  0  0  0  0  0  0
  -25.1067  -28.9626   20.8451 C   0  0  0  0  0  0  0  0  0  0  0  0
  -27.3765  -12.2477   19.9970 C   0  0  0  0  0  0  0  0  0  0  0  0
  -29.7591  -11.7367   18.6388 C   0  0  0  0  0  0  0  0  0  0  0  0
  -28.5028  -11.8212   20.7008 C   0  0  0  0  0  0  0  0  0  0  0  0
  -24.0781  -17.6677   20.3556 C   0  0  0  0  0  0  0  0  0  0  0  0
  -23.3805  -19.6313   19.6535 C   0  0  0  0  0  0  0  0  0  0  0  0
  -20.5110  -29.1089   21.6818 C   0  0  0  0  0  0  0  0  0  0  0  0
  -24.3227  -18.1824   17.8475 C   0  0  0  0  0  0  0  0  0  0  0  0
  -26.1255  -24.5930   17.7901 C   0  0  0  0  0  0  0  0  0  0  0  0
  -28.3785  -23.7301   19.9584 C   0  0  0  0  0  0  0  0  0  0  0  0
  -29.9882  -24.4086   22.8902 C   0  0  0  0  0  0  0  0  0  0  0  0
  -19.5707  -22.2280   22.6013 C   0  0  0  0  0  0  0  0  0  0  0  0
  -25.6320  -21.5500   13.7215 C   0  0  0  0  0  0  0  0  0  0  0  0
  -27.4520  -26.7253   18.0132 C   0  0  0  0  0  0  0  0  0  0  0  0
  -26.7897  -25.5636   20.6508 C   0  0  0  0  0  0  0  0  0  0  0  0
  -25.9930  -21.3567   15.1920 C   0  0  0  0  0  0  0  0  0  0  0  0
  -22.5988  -21.3138   24.3598 C   0  0  0  0  0  0  0  0  0  0  0  0
  -24.9832  -22.0674   16.0875 C   0  0  0  0  0  0  0  0  0  0  0  0
  -23.2445  -20.3432   23.3693 C   0  0  0  0  0  0  0  0  0  0  0  0
  -21.0813  -21.1557   24.3792 C   0  0  0  0  0  0  0  0  0  0  0  0
  -21.0732  -20.3340   22.0558 C   0  0  0  0  0  0  0  0  0  0  0  0
  -24.9823  -23.5786   15.8267 C   0  0  1  0  0  0  0  0  0  0  0  0
  -27.4160  -25.2171   18.2403 C   0  0  1  0  0  0  0  0  0  0  0  0
  -22.6053  -20.4600   21.9728 C   0  0  2  0  0  0  0  0  0  0  0  0
  -20.3995  -26.8534   19.8070 C   0  0  0  0  0  0  0  0  0  0  0  0
  -31.7555  -23.5007   24.4230 C   0  0  0  0  0  0  0  0  0  0  0  0
  -26.4095  -21.6375   20.9850 C   0  0  0  0  0  0  0  0  0  0  0  0
  -27.8088  -21.4357   23.0513 C   0  0  0  0  0  0  0  0  0  0  0  0
  -28.7788  -20.8524   20.8284 C   0  0  0  0  0  0  0  0  0  0  0  0
  -31.6849  -26.8088   22.5449 C   0  0  0  0  0  0  0  0  0  0  0  0
  -18.1188  -24.1164   23.2963 C   0  0  0  0  0  0  0  0  0  0  0  0
  -22.2795  -30.7711   22.1967 C   0  0  0  0  0  0  0  0  0  0  0  0
  -23.4233  -30.6018   21.2128 C   0  0  0  0  0  0  0  0  0  1  0  0
  -28.3587  -23.2793   21.3990 C   0  0  1  0  0  0  0  0  0  0  0  0
  -31.4630  -24.4229   23.2497 C   0  0  2  0  0  0  0  0  0  0  0  0
  -27.8283  -21.8264   21.5581 C   0  0  0  0  0  0  0  0  0  0  0  0
  -23.6211  -18.2731   21.4550 N   0  0  0  0  0  0  0  0  0  0  0  0
  -23.2038  -19.4652   20.9957 N   0  0  0  0  0  0  0  0  0  0  0  0
  -27.5987  -24.8528   19.6468 N   0  0  0  0  0  0  0  0  0  0  0  0
  -20.5338  -21.2961   23.0225 N   0  0  0  0  0  0  0  0  0  0  0  0
  -23.0156  -20.7707   19.0282 N   0  0  0  0  0  0  0  0  0  0  0  0
  -24.8996  -16.9381   17.5593 N   0  0  0  0  0  0  0  0  0  0  0  0
  -21.5959  -29.5288   22.4411 N   0  0  0  0  0  0  0  0  0  0  0  0
  -26.1218  -24.2023   16.4647 N   0  0  0  0  0  0  0  0  0  0  0  0
  -29.7108  -23.4809   21.9085 N   0  0  0  0  0  0  0  0  0  0  0  0
  -19.1062  -23.0987   23.5795 N   0  0  0  0  0  0  0  0  0  0  0  0
  -31.8934  -25.8016   23.6168 N   0  3  0  0  0  0  0  0  0  0  0  0
  -20.0300  -29.7376   20.7427 O   0  0  0  0  0  0  0  0  0  0  0  0
  -24.1613  -19.0135   16.9219 O   0  0  0  0  0  0  0  0  0  0  0  0
  -25.2020  -24.4735   18.5867 O   0  0  0  0  0  0  0  0  0  0  0  0
  -29.0664  -23.1132   19.1411 O   0  0  0  0  0  0  0  0  0  0  0  0
  -29.1641  -25.1441   23.4291 O   0  0  0  0  0  0  0  0  0  0  0  0
  -19.1588  -22.2838   21.4376 O   0  0  0  0  0  0  0  0  0  0  0  0
  -26.1928  -12.5009   20.6697 O   0  0  0  0  0  0  0  0  0  0  0  0
  -24.3696  -29.6735   21.7413 O   0  0  0  0  0  0  0  0  0  1  0  0
  -30.9026  -11.4899   17.9864 F   0  0  0  0  0  0  0  0  0  0  0  0
  -28.4461  -11.6540   22.0292 F   0  0  0  0  0  0  0  0  0  0  0  0
  1  2  1  0  0  0  0
  1  6  2  0  0  0  0
  2  7  2  0  0  0  0
  3 10  2  0  0  0  0
  3 18  1  0  0  0  0
  4 11  1  0  0  0  0
  4 18  2  0  0  0  0
  5  9  2  0  0  0  0
  5 19  1  0  0  0  0
  6 21  1  0  0  0  0
  7 23  1  0  0  0  0
  8 12  2  0  0  0  0
  8 22  1  0  0  0  0
  9 25  1  0  0  0  0
 10 27  1  0  0  0  0
 11 27  2  0  0  0  0
 12 28  1  0  0  0  0
 13 14  2  0  0  0  0
 13 29  1  0  0  0  0
 14 30  1  0  0  0  0
 15 24  1  0  0  0  0
 15 28  2  0  0  0  0
 16 25  2  0  0  0  0
 16 26  1  0  0  0  0
 17 30  2  0  0  0  0
 17 31  1  0  0  0  0
 18 32  1  0  0  0  0
 19 26  2  0  0  0  0
 19 34  1  0  0  0  0
 20 32  1  0  0  0  0
 20 33  2  0  0  0  0
 20 35  1  0  0  0  0
 21 23  2  0  0  0  0
 21 40  1  0  0  0  0
 22 24  2  0  0  0  0
 22 41  1  0  0  0  0
 23 49  1  0  0  0  0
 24 42  1  0  0  0  0
 25 58  1  0  0  0  0
 26 52  1  0  0  0  0
 27 81  1  0  0  0  0
 28 82  1  0  0  0  0
 29 31  2  0  0  0  0
 29 81  1  0  0  0  0
 30 83  1  0  0  0  0
 31 84  1  0  0  0  0
 32 64  2  0  0  0  0
 33 65  1  0  0  0  0
 33 68  1  0  0  0  0
 34 70  1  0  0  0  0
 34 75  2  0  0  0  0
 35 69  1  0  0  0  0
 35 76  2  0  0  0  0
 36 50  1  0  0  0  0
 36 71  1  0  0  0  0
 36 77  2  0  0  0  0
 37 61  1  0  0  0  0
 37 66  1  0  0  0  0
 37 78  2  0  0  0  0
 38 62  1  0  0  0  0
 38 72  1  0  0  0  0
 38 79  2  0  0  0  0
 39 67  1  0  0  0  0
 39 73  1  0  0  0  0
 39 80  2  0  0  0  0
 40 43  1  0  0  0  0
 41 50  1  0  0  0  0
 42 66  1  0  0  0  0
 43 45  1  0  0  0  0
 44 46  1  0  0  0  0
 44 47  1  0  0  0  0
 45 49  1  0  0  0  0
 46 51  1  0  0  0  0
 47 67  1  0  0  0  0
 48 51  1  0  0  0  0
 48 67  1  0  0  0  0
 49 71  1  0  0  0  0
 50 66  1  0  0  0  0
 51 65  1  0  0  0  0
 53 62  1  0  0  0  0
 54 63  1  0  0  0  0
 55 63  1  0  0  0  0
 56 63  1  0  0  0  0
 57 74  1  0  0  0  0
 58 73  1  0  0  0  0
 59 60  1  0  0  0  0
 59 70  1  0  0  0  0
 60 82  1  0  0  0  0
 61 63  1  0  0  0  0
 61 72  1  0  0  0  0
 62 74  1  0  0  0  0
 64 65  1  0  0  0  0
M  CHG  1  74   1
M  ISO  4  39 100  60 101  73 100  82 101
M  END
> <Batch ID>
0051

> <Smiles>
CNC(C)C(=O)NC(C(=O)N1Cc2cc([101O:1][101CH2:1]CNC(=O)c3ccc(C[100NH:0][100C:0](=O)N4CCCC(n5nc(-c6ccc(Oc7ccc(F)cc7F)cc6)c(C(N)=O)c5N)C4)cc3C)ccc2CC1C(=O)NC1CCCc2ccccc21)C(C)(C)C

> <Shape>
0.193

> <Color>
0.077

> <Negative vol penalty>
0.000

$$$$

  -OEChem-04042322373D

 88 96  0     1  0  0  0  0  0999 V2000
  -16.4830  -29.2236   23.4773 C   0  0  0  0  0  0  0  0  0  0  0  0
  -17.3440  -28.9593   22.4170 C   0  0  0  0  0  0  0  0  0  0  0  0
  -23.2229   -9.7711   19.8642 C   0  0  0  0  0  0  0  0  0  0  0  0
  -23.8277   -9.8453   22.2021 C   0  0  0  0  0  0  0  0  0  0  0  0
  -16.9888  -29.7228   24.6768 C   0  0  0  0  0  0  0  0  0  0  0  0
  -18.7114  -29.1953   22.5553 C   0  0  0  0  0  0  0  0  0  0  0  0
  -24.7493  -24.3352   21.5807 C   0  0  0  0  0  0  0  0  0  0  0  0
  -29.6740  -16.6688   18.6934 C   0  0  0  0  0  0  0  0  0  0  0  0
  -22.5111   -8.5922   20.0857 C   0  0  0  0  0  0  0  0  0  0  0  0
  -23.1158   -8.6664   22.4237 C   0  0  0  0  0  0  0  0  0  0  0  0
  -25.8886  -23.5303   21.5921 C   0  0  0  0  0  0  0  0  0  0  0  0
  -19.8895   -7.7452   22.8268 C   0  0  0  0  0  0  0  0  0  0  0  0
  -19.0585   -7.6922   23.9459 C   0  0  0  0  0  0  0  0  0  0  0  0
  -29.9695  -17.4338   17.5651 C   0  0  0  0  0  0  0  0  0  0  0  0
  -26.9474  -25.0329   23.1634 C   0  0  0  0  0  0  0  0  0  0  0  0
  -29.2338  -18.6869   19.9466 C   0  0  0  0  0  0  0  0  0  0  0  0
  -20.3252   -5.8196   24.7979 C   0  0  0  0  0  0  0  0  0  0  0  0
  -23.8813  -10.3976   20.9224 C   0  0  0  0  0  0  0  0  0  0  0  0
  -24.1284  -12.9326   20.7789 C   0  0  0  0  0  0  0  0  0  0  0  0
  -18.3642  -29.9559   24.8331 C   0  0  0  0  0  0  0  0  0  0  0  0
  -24.6987  -25.4852   22.3733 C   0  0  0  0  0  0  0  0  0  0  0  0
  -19.2359  -29.6994   23.7576 C   0  0  0  0  0  0  0  0  0  0  0  0
  -25.8041  -25.8363   23.1656 C   0  0  0  0  0  0  0  0  0  0  0  0
  -29.3061  -17.2954   19.8841 C   0  0  0  0  0  0  0  0  0  0  0  0
  -29.5294  -19.4520   18.8183 C   0  0  0  0  0  0  0  0  0  0  0  0
  -22.4575   -8.0398   21.3654 C   0  0  0  0  0  0  0  0  0  0  0  0
  -26.9850  -23.8784   22.3814 C   0  0  0  0  0  0  0  0  0  0  0  0
  -20.9383   -6.8352   22.6932 C   0  0  0  0  0  0  0  0  0  0  0  0
  -19.2764   -6.7295   24.9314 C   0  0  0  0  0  0  0  0  0  0  0  0
  -21.1561   -5.8725   23.6788 C   0  0  0  0  0  0  0  0  0  0  0  0
  -29.8972  -18.8254   17.6276 C   0  0  0  0  0  0  0  0  0  0  0  0
  -24.6172  -11.6152   20.6941 C   0  0  0  0  0  0  0  0  0  0  0  0
  -25.2112  -13.7209   20.4746 C   0  0  0  0  0  0  0  0  0  0  0  0
  -22.8131  -13.4019   21.1037 C   0  0  0  0  0  0  0  0  0  0  0  0
  -22.7061  -28.4560   23.5048 C   0  0  0  0  0  0  0  0  0  0  0  0
  -24.1702  -27.3725   25.9732 C   0  0  0  0  0  0  0  0  0  0  0  0
  -29.8746  -22.1619   21.0681 C   0  0  0  0  0  0  0  0  0  0  0  0
  -25.6201  -25.6214   28.5166 C   0  0  0  0  0  0  0  0  0  0  0  0
  -30.7304  -14.6747   21.4472 C   0  0  0  0  0  0  0  0  0  0  0  0
  -18.8583  -30.5409   26.1325 C   0  0  0  0  0  0  0  0  0  0  0  0
  -23.5160  -26.4148   22.3453 C   0  0  0  0  0  0  0  0  0  0  0  0
  -25.7183  -27.1010   23.9757 C   0  0  0  0  0  0  0  0  0  0  0  0
  -20.3670  -30.4099   26.3248 C   0  0  0  0  0  0  0  0  0  0  0  0
  -29.7439  -12.5353   18.5921 C   0  0  0  0  0  0  0  0  0  0  0  0
  -21.1049  -30.8249   25.0559 C   0  0  0  0  0  0  0  0  0  0  0  0
  -28.3036  -12.1614   18.9381 C   0  0  0  0  0  0  0  0  0  0  0  0
  -30.5755  -12.8061   19.8422 C   0  0  0  0  0  0  0  0  0  0  0  0
  -28.5445  -13.4537   21.0951 C   0  0  0  0  0  0  0  0  0  0  0  0
  -20.7284  -29.9190   23.8774 C   0  0  1  0  0  0  0  0  0  0  0  0
  -23.2258  -27.0635   23.7107 C   0  0  1  0  0  0  0  0  0  0  0  0
  -27.6674  -13.2198   19.8559 C   0  0  2  0  0  0  0  0  0  0  0  0
  -33.8856  -22.0995   18.6299 C   0  0  0  0  0  0  0  0  0  0  0  0
  -25.9330  -25.6591   31.0062 C   0  0  0  0  0  0  0  0  0  0  0  0
  -26.2601  -29.5739   25.6734 C   0  0  0  0  0  0  0  0  0  0  0  0
  -27.1754  -28.9113   27.9076 C   0  0  0  0  0  0  0  0  0  0  0  0
  -24.8365  -29.7583   27.7213 C   0  0  0  0  0  0  0  0  0  0  0  0
  -30.9901  -16.9028   22.4708 C   0  0  0  0  0  0  0  0  0  0  0  0
  -24.2233  -23.0333   28.8479 C   0  0  0  0  0  0  0  0  0  0  0  0
  -28.9904  -16.4769   21.0905 C   0  0  0  0  0  0  0  0  0  0  0  0
  -29.4390  -20.9468   18.9266 C   0  0  0  0  0  0  0  0  0  0  0  0
  -28.3787  -22.3565   21.1986 C   0  0  0  0  0  0  0  0  0  1  0  0
  -32.4099  -22.3535   18.9030 C   0  0  0  0  0  0  0  0  0  0  0  0
  -31.7582  -21.2339   19.7057 C   0  0  0  0  0  0  0  0  0  0  0  0
  -25.3911  -27.4489   26.8546 C   0  0  1  0  0  0  0  0  0  0  0  0
  -25.0776  -25.1533   29.8549 C   0  0  2  0  0  0  0  0  0  0  0  0
  -25.9138  -28.9041   27.0182 C   0  0  0  0  0  0  0  0  0  0  0  0
  -25.9099  -11.5652   20.3618 N   0  0  0  0  0  0  0  0  0  0  0  0
  -26.2425  -12.8612   20.2351 N   0  0  0  0  0  0  0  0  0  0  0  0
  -24.3905  -27.2084   24.6003 N   0  0  0  0  0  0  0  0  0  0  0  0
  -29.9270  -13.7832   20.7173 N   0  0  0  0  0  0  0  0  0  0  0  0
  -25.3722  -15.0586   20.3912 N   0  0  0  0  0  0  0  0  0  0  0  0
  -21.8184  -12.4569   21.3902 N   0  0  0  0  0  0  0  0  0  0  0  0
  -21.4208  -28.6517   23.9727 N   0  0  0  0  0  0  0  0  0  0  0  0
  -25.0297  -26.7992   28.1099 N   0  0  0  0  0  0  0  0  0  0  0  0
  -30.3377  -21.4752   19.9453 N   0  0  0  0  0  0  0  0  0  0  0  0
  -30.1911  -15.9395   21.7268 N   0  0  0  0  0  0  0  0  0  0  0  0
  -25.0484  -23.6644   29.9099 N   0  3  0  0  0  0  0  0  0  0  0  0
  -22.5242  -14.6224   21.1228 O   0  0  0  0  0  0  0  0  0  0  0  0
  -23.4187  -29.2927   22.9628 O   0  0  0  0  0  0  0  0  0  0  0  0
  -23.0505  -27.4613   26.4848 O   0  0  0  0  0  0  0  0  0  0  0  0
  -30.6113  -22.6205   21.9467 O   0  0  0  0  0  0  0  0  0  0  0  0
  -26.4840  -25.0058   27.8959 O   0  0  0  0  0  0  0  0  0  0  0  0
  -31.8686  -14.3615   21.8190 O   0  0  0  0  0  0  0  0  0  0  0  0
  -21.7628   -6.8896   21.5820 O   0  0  0  0  0  0  0  0  0  0  0  0
  -28.0924  -23.0857   22.3913 O   0  0  0  0  0  0  0  0  0  1  0  0
  -18.4793   -6.6797   26.0068 F   0  0  0  0  0  0  0  0  0  0  0  0
  -22.1628   -4.9964   23.5565 F   0  0  0  0  0  0  0  0  0  0  0  0
  -30.2696  -19.7396   16.2117 Cl  0  0  0  0  0  0  0  0  0  0  0  0
  1  2  1  0  0  0  0
  1  5  2  0  0  0  0
  2  6  2  0  0  0  0
  3  9  2  0  0  0  0
  3 18  1  0  0  0  0
  4 10  1  0  0  0  0
  4 18  2  0  0  0  0
  5 20  1  0  0  0  0
  6 22  1  0  0  0  0
  7 11  2  0  0  0  0
  7 21  1  0  0  0  0
  8 14  2  0  0  0  0
  8 24  1  0  0  0  0
  9 26  1  0  0  0  0
 10 26  2  0  0  0  0
 11 27  1  0  0  0  0
 12 13  2  0  0  0  0
 12 28  1  0  0  0  0
 13 29  1  0  0  0  0
 14 31  1  0  0  0  0
 15 23  1  0  0  0  0
 15 27  2  0  0  0  0
 16 24  2  0  0  0  0
 16 25  1  0  0  0  0
 17 29  2  0  0  0  0
 17 30  1  0  0  0  0
 18 32  1  0  0  0  0
 19 32  1  0  0  0  0
 19 33  2  0  0  0  0
 19 34  1  0  0  0  0
 20 22  2  0  0  0  0
 20 40  1  0  0  0  0
 21 23  2  0  0  0  0
 21 41  1  0  0  0  0
 22 49  1  0  0  0  0
 23 42  1  0  0  0  0
 24 59  1  0  0  0  0
 25 31  2  0  0  0  0
 25 60  1  0  0  0  0
 26 84  1  0  0  0  0
 27 85  1  0  0  0  0
 28 30  2  0  0  0  0
 28 84  1  0  0  0  0
 29 86  1  0  0  0  0
 30 87  1  0  0  0  0
 31 88  1  0  0  0  0
 32 67  2  0  0  0  0
 33 68  1  0  0  0  0
 33 71  1  0  0  0  0
 34 72  1  0  0  0  0
 34 78  2  0  0  0  0
 35 50  1  0  0  0  0
 35 73  1  0  0  0  0
 35 79  2  0  0  0  0
 36 64  1  0  0  0  0
 36 69  1  0  0  0  0
 36 80  2  0  0  0  0
 37 61  1  0  0  0  0
 37 75  1  0  0  0  0
 37 81  2  0  0  0  0
 38 65  1  0  0  0  0
 38 74  1  0  0  0  0
 38 82  2  0  0  0  0
 39 70  1  0  0  0  0
 39 76  1  0  0  0  0
 39 83  2  0  0  0  0
 40 43  1  0  0  0  0
 41 50  1  0  0  0  0
 42 69  1  0  0  0  0
 43 45  1  0  0  0  0
 44 46  1  0  0  0  0
 44 47  1  0  0  0  0
 45 49  1  0  0  0  0
 46 51  1  0  0  0  0
 47 70  1  0  0  0  0
 48 51  1  0  0  0  0
 48 70  1  0  0  0  0
 49 73  1  0  0  0  0
 50 69  1  0  0  0  0
 51 68  1  0  0  0  0
 52 62  1  0  0  0  0
 53 65  1  0  0  0  0
 54 66  1  0  0  0  0
 55 66  1  0  0  0  0
 56 66  1  0  0  0  0
 57 76  1  0  0  0  0
 58 77  1  0  0  0  0
 59 76  1  0  0  0  0
 60 75  1  0  0  0  0
 61 85  1  0  0  0  0
 62 63  1  0  0  0  0
 63 75  1  0  0  0  0
 64 66  1  0  0  0  0
 64 74  1  0  0  0  0
 65 77  1  0  0  0  0
 67 68  1  0  0  0  0
M  CHG  1  77   1
M  ISO  4  39 100  61 101  76 100  85 101
M  END
> <Batch ID>
0051

> <Smiles>
CCCN(Cc1cc(C[100N:0](C)[100C:0](=O)N2CCCC(n3nc(-c4ccc(Oc5ccc(F)cc5F)cc4)c(C(N)=O)c3N)C2)ccc1Cl)C(=O)[101CH2:1][101O:1]c1ccc2c(c1)CN(C(=O)C(NC(=O)C(C)NC)C(C)(C)C)C(C(=O)NC1CCCc3ccccc31)C2

> <Shape>
0.282

> <Color>
0.219

> <Negative vol penalty>
0.000

$$$$

  -OEChem-04042322373D

 85 93  0     1  0  0  0  0  0999 V2000
  -26.4950  -19.0564   14.0456 C   0  0  0  0  0  0  0  0  0  0  0  0
  -27.3707  -18.2204   14.7309 C   0  0  0  0  0  0  0  0  0  0  0  0
  -27.2649  -28.5090   19.5214 C   0  0  0  0  0  0  0  0  0  0  0  0
  -26.0485  -27.0662   21.0299 C   0  0  0  0  0  0  0  0  0  0  0  0
  -25.3637  -19.5568   14.6888 C   0  0  0  0  0  0  0  0  0  0  0  0
  -27.1161  -17.8851   16.0603 C   0  0  0  0  0  0  0  0  0  0  0  0
  -28.3441  -12.5536   18.8123 C   0  0  0  0  0  0  0  0  0  0  0  0
  -26.1455  -29.3334   19.4072 C   0  0  0  0  0  0  0  0  0  0  0  0
  -24.9291  -27.8906   20.9157 C   0  0  0  0  0  0  0  0  0  0  0  0
  -29.3950  -12.1403   19.6299 C   0  0  0  0  0  0  0  0  0  0  0  0
  -21.8675  -29.8125   21.3047 C   0  0  0  0  0  0  0  0  0  0  0  0
  -21.1857  -30.1473   22.4746 C   0  0  0  0  0  0  0  0  0  0  0  0
  -29.6084  -18.0256   20.2416 C   0  0  0  0  0  0  0  0  0  0  0  0
  -28.7469  -16.9148   22.2065 C   0  0  0  0  0  0  0  0  0  0  0  0
  -28.0631  -12.6321   21.5802 C   0  0  0  0  0  0  0  0  0  0  0  0
  -27.7719  -18.9999   21.4725 C   0  0  0  0  0  0  0  0  0  0  0  0
  -23.1887  -31.1792   23.3465 C   0  0  0  0  0  0  0  0  0  0  0  0
  -27.2164  -27.3754   20.3327 C   0  0  0  0  0  0  0  0  0  0  0  0
  -29.6463  -16.9604   21.1412 C   0  0  0  0  0  0  0  0  0  0  0  0
  -29.4137  -26.6287   21.3918 C   0  0  0  0  0  0  0  0  0  0  0  0
  -25.0900  -19.2196   16.0237 C   0  0  0  0  0  0  0  0  0  0  0  0
  -27.1467  -13.0204   19.3735 C   0  0  0  0  0  0  0  0  0  0  0  0
  -25.9807  -18.3824   16.7223 C   0  0  0  0  0  0  0  0  0  0  0  0
  -26.9976  -13.0484   20.7674 C   0  0  0  0  0  0  0  0  0  0  0  0
  -28.6712  -19.0455   20.4073 C   0  0  0  0  0  0  0  0  0  0  0  0
  -24.9776  -29.0242   20.1043 C   0  0  0  0  0  0  0  0  0  0  0  0
  -29.2557  -12.1822   21.0141 C   0  0  0  0  0  0  0  0  0  0  0  0
  -23.2100  -30.1609   21.1557 C   0  0  0  0  0  0  0  0  0  0  0  0
  -21.8463  -30.8307   23.4955 C   0  0  0  0  0  0  0  0  0  0  0  0
  -23.8705  -30.8443   22.1766 C   0  0  0  0  0  0  0  0  0  0  0  0
  -27.8097  -17.9346   22.3721 C   0  0  0  0  0  0  0  0  0  0  0  0
  -28.3722  -26.5232   20.4506 C   0  0  0  0  0  0  0  0  0  0  0  0
  -30.2606  -25.5920   21.0844 C   0  0  0  0  0  0  0  0  0  0  0  0
  -30.6439  -15.8739   20.9642 C   0  0  0  0  0  0  0  0  0  0  0  0
  -29.5991  -27.5789   22.4494 C   0  0  0  0  0  0  0  0  0  0  0  0
  -25.5624  -15.7753   19.3070 C   0  0  0  0  0  0  0  0  0  0  0  0
  -23.3159  -14.0740   20.9136 C   0  0  0  0  0  0  0  0  0  0  0  0
  -22.5823  -11.4100   22.9165 C   0  0  0  0  0  0  0  0  0  0  0  0
  -29.4518  -20.3244   18.3820 C   0  0  0  0  0  0  0  0  0  0  0  0
  -23.8796  -19.8229   16.6913 C   0  0  0  0  0  0  0  0  0  0  0  0
  -26.0128  -13.4375   18.4776 C   0  0  0  0  0  0  0  0  0  0  0  0
  -25.7252  -13.5219   21.4195 C   0  0  0  0  0  0  0  0  0  0  0  0
  -23.4836  -19.1183   17.9863 C   0  0  0  0  0  0  0  0  0  0  0  0
  -31.7009  -22.9015   17.3937 C   0  0  0  0  0  0  0  0  0  0  0  0
  -24.7099  -18.8829   18.8625 C   0  0  0  0  0  0  0  0  0  0  0  0
  -31.2010  -24.1309   18.1558 C   0  0  0  0  0  0  0  0  0  0  0  0
  -30.5471  -22.0154   16.9275 C   0  0  0  0  0  0  0  0  0  0  0  0
  -29.1048  -22.8472   18.7433 C   0  0  0  0  0  0  0  0  0  0  0  0
  -25.7257  -17.9759   18.1575 C   0  0  1  0  0  0  0  0  0  0  0  0
  -25.0264  -14.3792   19.1613 C   0  0  1  0  0  0  0  0  0  0  0  0
  -30.2338  -23.7366   19.2892 C   0  0  2  0  0  0  0  0  0  0  0  0
  -20.6647  -10.3011   24.0957 C   0  0  0  0  0  0  0  0  0  0  0  0
  -30.2166  -11.3478   24.1720 C   0  0  0  0  0  0  0  0  0  0  0  0
  -23.3690  -16.2556   23.0462 C   0  0  0  0  0  0  0  0  0  0  0  0
  -22.1990  -14.6736   24.5944 C   0  0  0  0  0  0  0  0  0  0  0  0
  -21.0866  -15.4020   22.4837 C   0  0  0  0  0  0  0  0  0  0  0  0
  -22.9381   -8.9032   21.3839 C   0  0  0  0  0  0  0  0  0  0  0  0
  -31.7467  -13.1150   23.2152 C   0  0  0  0  0  0  0  0  0  0  0  0
  -31.9992  -14.1421   22.1131 C   0  0  0  0  0  0  0  0  0  0  0  0
  -23.0290  -13.7878   22.3678 C   0  0  1  0  0  0  0  0  0  0  0  0
  -21.4999  -10.3495   22.8257 C   0  0  2  0  0  0  0  0  0  0  0  0
  -30.3914  -12.4071   23.0914 C   0  0  1  0  0  0  0  0  0  1  0  0
  -22.4457  -15.0226   23.1111 C   0  0  0  0  0  0  0  0  0  0  0  0
  -28.5400  -25.5002   19.6084 N   0  0  0  0  0  0  0  0  0  0  0  0
  -29.6969  -24.9536   20.0191 N   0  0  0  0  0  0  0  0  0  0  0  0
  -24.6476  -13.9253   20.5010 N   0  0  0  0  0  0  0  0  0  0  0  0
  -29.6753  -21.6786   18.0551 N   0  0  0  0  0  0  0  0  0  0  0  0
  -31.4250  -25.1734   21.6241 N   0  0  0  0  0  0  0  0  0  0  0  0
  -28.6333  -28.5790   22.6259 N   0  0  0  0  0  0  0  0  0  0  0  0
  -28.6321  -20.1271   19.4928 N   0  0  0  0  0  0  0  0  0  0  0  0
  -31.0267  -15.1995   22.1183 N   0  0  0  0  0  0  0  0  0  0  0  0
  -25.3014  -16.5939   18.2248 N   0  0  0  0  0  0  0  0  0  0  0  0
  -22.1635  -12.6135   22.3897 N   0  0  0  0  0  0  0  0  0  0  0  0
  -22.1079   -9.0058   22.6116 N   0  3  0  0  0  0  0  0  0  0  0  0
  -31.0866  -15.6428   19.8421 O   0  0  0  0  0  0  0  0  0  0  0  0
  -30.6002  -27.5521   23.2047 O   0  0  0  0  0  0  0  0  0  0  0  0
  -26.1668  -16.0871   20.3264 O   0  0  0  0  0  0  0  0  0  0  0  0
  -22.3912  -14.4102   20.1696 O   0  0  0  0  0  0  0  0  0  0  0  0
  -23.6873  -11.1935   23.4090 O   0  0  0  0  0  0  0  0  0  0  0  0
  -29.9727  -19.4076   17.7416 O   0  0  0  0  0  0  0  0  0  0  0  0
  -23.8852  -29.8285   19.9933 O   0  0  0  0  0  0  0  0  0  0  0  0
  -30.2801  -11.7800   21.8145 O   0  0  0  0  0  0  0  0  0  1  0  0
  -21.1910  -31.1535   24.6182 F   0  0  0  0  0  0  0  0  0  0  0  0
  -25.1598  -31.1828   22.0388 F   0  0  0  0  0  0  0  0  0  0  0  0
  -26.7009  -17.8786   23.6874 Cl  0  0  0  0  0  0  0  0  0  0  0  0
  1  2  1  0  0  0  0
  1  5  2  0  0  0  0
  2  6  2  0  0  0  0
  3  8  2  0  0  0  0
  3 18  1  0  0  0  0
  4  9  1  0  0  0  0
  4 18  2  0  0  0  0
  5 21  1  0  0  0  0
  6 23  1  0  0  0  0
  7 10  2  0  0  0  0
  7 22  1  0  0  0  0
  8 26  1  0  0  0  0
  9 26  2  0  0  0  0
 10 27  1  0  0  0  0
 11 12  2  0  0  0  0
 11 28  1  0  0  0  0
 12 29  1  0  0  0  0
 13 19  2  0  0  0  0
 13 25  1  0  0  0  0
 14 19  1  0  0  0  0
 14 31  2  0  0  0  0
 15 24  1  0  0  0  0
 15 27  2  0  0  0  0
 16 25  2  0  0  0  0
 16 31  1  0  0  0  0
 17 29  2  0  0  0  0
 17 30  1  0  0  0  0
 18 32  1  0  0  0  0
 19 34  1  0  0  0  0
 20 32  1  0  0  0  0
 20 33  2  0  0  0  0
 20 35  1  0  0  0  0
 21 23  2  0  0  0  0
 21 40  1  0  0  0  0
 22 24  2  0  0  0  0
 22 41  1  0  0  0  0
 23 49  1  0  0  0  0
 24 42  1  0  0  0  0
 25 70  1  0  0  0  0
 26 81  1  0  0  0  0
 27 82  1  0  0  0  0
 28 30  2  0  0  0  0
 28 81  1  0  0  0  0
 29 83  1  0  0  0  0
 30 84  1  0  0  0  0
 31 85  1  0  0  0  0
 32 64  2  0  0  0  0
 33 65  1  0  0  0  0
 33 68  1  0  0  0  0
 34 71  1  0  0  0  0
 34 75  2  0  0  0  0
 35 69  1  0  0  0  0
 35 76  2  0  0  0  0
 36 50  1  0  0  0  0
 36 72  1  0  0  0  0
 36 77  2  0  0  0  0
 37 60  1  0  0  0  0
 37 66  1  0  0  0  0
 37 78  2  0  0  0  0
 38 61  1  0  0  0  0
 38 73  1  0  0  0  0
 38 79  2  0  0  0  0
 39 67  1  0  0  0  0
 39 70  1  0  0  0  0
 39 80  2  0  0  0  0
 40 43  1  0  0  0  0
 41 50  1  0  0  0  0
 42 66  1  0  0  0  0
 43 45  1  0  0  0  0
 44 46  1  0  0  0  0
 44 47  1  0  0  0  0
 45 49  1  0  0  0  0
 46 51  1  0  0  0  0
 47 67  1  0  0  0  0
 48 51  1  0  0  0  0
 48 67  1  0  0  0  0
 49 72  1  0  0  0  0
 50 66  1  0  0  0  0
 51 65  1  0  0  0  0
 52 61  1  0  0  0  0
 53 62  1  0  0  0  0
 54 63  1  0  0  0  0
 55 63  1  0  0  0  0
 56 63  1  0  0  0  0
 57 74  1  0  0  0  0
 58 59  1  0  0  0  0
 58 62  1  0  0  0  0
 59 71  1  0  0  0  0
 60 63  1  0  0  0  0
 60 73  1  0  0  0  0
 61 74  1  0  0  0  0
 62 82  1  0  0  0  0
 64 65  1  0  0  0  0
M  CHG  1  74   1
M  ISO  4  39 100  62 101  70 100  82 101
M  END
> <Batch ID>
0051

> <Smiles>
CNC(C)C(=O)NC(C(=O)N1Cc2cc([101O:1][101CH:1](C)CCNC(=O)c3cc(Cl)cc([100NH:0][100C:0](=O)N4CCCC(n5nc(-c6ccc(Oc7ccc(F)cc7F)cc6)c(C(N)=O)c5N)C4)c3)ccc2CC1C(=O)NC1CCCc2ccccc21)C(C)(C)C

> <Shape>
0.276

> <Color>
0.072

> <Negative vol penalty>
0.000

$$$$

  -OEChem-04042322373D

 85 93  0     1  0  0  0  0  0999 V2000
  -32.3596  -13.3859   21.3557 C   0  0  0  0  0  0  0  0  0  0  0  0
  -31.6629  -14.5310   21.7283 C   0  0  0  0  0  0  0  0  0  0  0  0
  -25.2520  -30.3449   24.4076 C   0  0  0  0  0  0  0  0  0  0  0  0
  -25.1785  -32.4439   23.2135 C   0  0  0  0  0  0  0  0  0  0  0  0
  -31.7519  -12.4383   20.5331 C   0  0  0  0  0  0  0  0  0  0  0  0
  -30.3583  -14.7296   21.2776 C   0  0  0  0  0  0  0  0  0  0  0  0
  -25.7837  -17.4346   24.3210 C   0  0  0  0  0  0  0  0  0  0  0  0
  -25.4697  -31.0320   25.6018 C   0  0  0  0  0  0  0  0  0  0  0  0
  -25.3961  -33.1309   24.4077 C   0  0  0  0  0  0  0  0  0  0  0  0
  -25.2618  -18.7266   24.2756 C   0  0  0  0  0  0  0  0  0  0  0  0
  -28.0114  -33.8552   26.4242 C   0  0  0  0  0  0  0  0  0  0  0  0
  -28.9495  -34.8875   26.4163 C   0  0  0  0  0  0  0  0  0  0  0  0
  -23.5565  -17.9774   22.7426 C   0  0  0  0  0  0  0  0  0  0  0  0
  -24.4645  -25.0009   20.0140 C   0  0  0  0  0  0  0  0  0  0  0  0
  -26.3666  -25.2363   18.5430 C   0  0  0  0  0  0  0  0  0  0  0  0
  -27.2323  -36.4529   27.0780 C   0  0  0  0  0  0  0  0  0  0  0  0
  -25.1065  -31.0509   23.2134 C   0  0  0  0  0  0  0  0  0  0  0  0
  -23.6420  -29.9802   21.4200 C   0  0  0  0  0  0  0  0  0  0  0  0
  -30.4358  -12.6207   20.0800 C   0  0  0  0  0  0  0  0  0  0  0  0
  -25.2016  -16.4049   23.5678 C   0  0  0  0  0  0  0  0  0  0  0  0
  -29.7329  -13.7842   20.4471 C   0  0  0  0  0  0  0  0  0  0  0  0
  -24.0714  -16.6726   22.7822 C   0  0  0  0  0  0  0  0  0  0  0  0
  -25.3136  -25.0483   21.1196 C   0  0  0  0  0  0  0  0  0  0  0  0
  -26.6892  -25.1897   20.9369 C   0  0  0  0  0  0  0  0  0  0  0  0
  -27.2157  -25.2837   19.6486 C   0  0  0  0  0  0  0  0  0  0  0  0
  -25.5417  -32.4250   25.6019 C   0  0  0  0  0  0  0  0  0  0  0  0
  -24.1498  -18.9988   23.4841 C   0  0  0  0  0  0  0  0  0  0  0  0
  -26.6838  -34.1218   26.7589 C   0  0  0  0  0  0  0  0  0  0  0  0
  -28.5599  -36.1863   26.7432 C   0  0  0  0  0  0  0  0  0  0  0  0
  -26.2942  -35.4206   27.0858 C   0  0  0  0  0  0  0  0  0  0  0  0
  -24.9910  -25.0948   18.7257 C   0  0  0  0  0  0  0  0  0  0  0  0
  -24.8822  -30.3417   21.9794 C   0  0  0  0  0  0  0  0  0  0  0  0
  -23.9673  -29.3297   20.2549 C   0  0  0  0  0  0  0  0  0  0  0  0
  -22.3145  -30.2117   21.9097 C   0  0  0  0  0  0  0  0  0  0  0  0
  -26.1924  -14.5105   21.2155 C   0  0  0  0  0  0  0  0  0  0  0  0
  -23.3086  -13.0950   21.6654 C   0  0  0  0  0  0  0  0  0  0  0  0
  -24.0781  -22.5762   22.8969 C   0  0  0  0  0  0  0  0  0  0  0  0
  -20.0944  -13.3588   22.7815 C   0  0  0  0  0  0  0  0  0  0  0  0
  -29.2074  -26.5326   18.7743 C   0  0  0  0  0  0  0  0  0  0  0  0
  -29.8376  -11.5915   19.1540 C   0  0  0  0  0  0  0  0  0  0  0  0
  -25.7603  -15.0107   23.6484 C   0  0  0  0  0  0  0  0  0  0  0  0
  -23.3971  -15.5979   21.9705 C   0  0  0  0  0  0  0  0  0  0  0  0
  -28.3202  -11.6969   19.0251 C   0  0  0  0  0  0  0  0  0  0  0  0
  -27.3447  -29.1081   16.8796 C   0  0  0  0  0  0  0  0  0  0  0  0
  -27.9024  -13.1476   18.8071 C   0  0  0  0  0  0  0  0  0  0  0  0
  -26.4571  -29.7409   17.9498 C   0  0  0  0  0  0  0  0  0  0  0  0
  -28.6387  -28.5566   17.4705 C   0  0  0  0  0  0  0  0  0  0  0  0
  -27.5291  -28.2231   19.6611 C   0  0  0  0  0  0  0  0  0  0  0  0
  -28.3075  -14.0234   19.9988 C   0  0  1  0  0  0  0  0  0  0  0  0
  -25.3996  -14.1516   22.4404 C   0  0  1  0  0  0  0  0  0  0  0  0
  -26.2010  -28.7502   19.0974 C   0  0  1  0  0  0  0  0  0  0  0  0
  -27.5963  -25.2402   22.1261 C   0  0  0  0  0  0  0  0  0  0  0  0
  -17.9646  -12.0468   22.9814 C   0  0  0  0  0  0  0  0  0  0  0  0
  -22.7955  -13.4778   18.6821 C   0  0  0  0  0  0  0  0  0  0  0  0
  -20.3677  -13.0464   19.1152 C   0  0  0  0  0  0  0  0  0  0  0  0
  -22.0530  -11.2705   19.5935 C   0  0  0  0  0  0  0  0  0  0  0  0
  -29.4876  -24.2701   19.6877 C   0  0  0  0  0  0  0  0  0  0  0  0
  -20.0961  -13.5846   25.7324 C   0  0  0  0  0  0  0  0  0  0  0  0
  -24.7212  -24.9449   22.4953 C   0  0  0  0  0  0  0  0  0  0  0  0
  -24.5531  -21.3382   23.6271 C   0  0  0  0  0  0  0  0  0  1  0  0
  -21.9212  -13.2933   21.1044 C   0  0  1  0  0  0  0  0  0  0  0  0
  -19.2587  -12.4538   23.6687 C   0  0  2  0  0  0  0  0  0  0  0  0
  -21.7980  -12.7929   19.6375 C   0  0  0  0  0  0  0  0  0  0  0  0
  -25.9182  -29.9530   21.2313 N   0  0  0  0  0  0  0  0  0  0  0  0
  -25.3296  -29.3404   20.1899 N   0  0  0  0  0  0  0  0  0  0  0  0
  -23.9845  -14.2521   22.0777 N   0  0  0  0  0  0  0  0  0  0  0  0
  -28.3816  -27.6621   18.6003 N   0  0  0  0  0  0  0  0  0  0  0  0
  -23.2182  -28.7552   19.2899 N   0  0  0  0  0  0  0  0  0  0  0  0
  -22.1598  -30.8958   23.1231 N   0  0  0  0  0  0  0  0  0  0  0  0
  -27.3905  -13.8314   21.1019 N   0  0  0  0  0  0  0  0  0  0  0  0
  -24.9424  -23.6438   23.0828 N   0  0  0  0  0  0  0  0  0  0  0  0
  -21.0071  -12.6423   22.0366 N   0  0  0  0  0  0  0  0  0  0  0  0
  -28.6350  -25.4299   19.4367 N   0  0  0  0  0  0  0  0  0  0  0  0
  -18.9163  -13.1491   24.9416 N   0  3  0  0  0  0  0  0  0  0  0  0
  -21.2961  -29.8091   21.2978 O   0  0  0  0  0  0  0  0  0  0  0  0
  -25.7493  -15.3408   20.4308 O   0  0  0  0  0  0  0  0  0  0  0  0
  -23.7727  -11.9546   21.7418 O   0  0  0  0  0  0  0  0  0  0  0  0
  -23.0471  -22.5999   22.2303 O   0  0  0  0  0  0  0  0  0  0  0  0
  -19.9493  -14.5788   22.7495 O   0  0  0  0  0  0  0  0  0  0  0  0
  -30.3911  -26.5257   18.4146 O   0  0  0  0  0  0  0  0  0  0  0  0
  -25.7538  -33.0957   26.7671 O   0  0  0  0  0  0  0  0  0  0  0  0
  -23.6387  -20.2591   23.4375 O   0  0  0  0  0  0  0  0  0  1  0  0
  -29.4612  -37.1773   26.7371 F   0  0  0  0  0  0  0  0  0  0  0  0
  -25.0205  -35.6827   27.4094 F   0  0  0  0  0  0  0  0  0  0  0  0
  -23.9432  -25.0351   17.3617 Cl  0  0  0  0  0  0  0  0  0  0  0  0
  1  2  1  0  0  0  0
  1  5  2  0  0  0  0
  2  6  2  0  0  0  0
  3  8  2  0  0  0  0
  3 17  1  0  0  0  0
  4  9  1  0  0  0  0
  4 17  2  0  0  0  0
  5 19  1  0  0  0  0
  6 21  1  0  0  0  0
  7 10  2  0  0  0  0
  7 20  1  0  0  0  0
  8 26  1  0  0  0  0
  9 26  2  0  0  0  0
 10 27  1  0  0  0  0
 11 12  2  0  0  0  0
 11 28  1  0  0  0  0
 12 29  1  0  0  0  0
 13 22  1  0  0  0  0
 13 27  2  0  0  0  0
 14 23  1  0  0  0  0
 14 31  2  0  0  0  0
 15 25  2  0  0  0  0
 15 31  1  0  0  0  0
 16 29  2  0  0  0  0
 16 30  1  0  0  0  0
 17 32  1  0  0  0  0
 18 32  1  0  0  0  0
 18 33  2  0  0  0  0
 18 34  1  0  0  0  0
 19 21  2  0  0  0  0
 19 40  1  0  0  0  0
 20 22  2  0  0  0  0
 20 41  1  0  0  0  0
 21 49  1  0  0  0  0
 22 42  1  0  0  0  0
 23 24  2  0  0  0  0
 23 59  1  0  0  0  0
 24 25  1  0  0  0  0
 24 52  1  0  0  0  0
 25 73  1  0  0  0  0
 26 81  1  0  0  0  0
 27 82  1  0  0  0  0
 28 30  2  0  0  0  0
 28 81  1  0  0  0  0
 29 83  1  0  0  0  0
 30 84  1  0  0  0  0
 31 85  1  0  0  0  0
 32 64  2  0  0  0  0
 33 65  1  0  0  0  0
 33 68  1  0  0  0  0
 34 69  1  0  0  0  0
 34 75  2  0  0  0  0
 35 50  1  0  0  0  0
 35 70  1  0  0  0  0
 35 76  2  0  0  0  0
 36 61  1  0  0  0  0
 36 66  1  0  0  0  0
 36 77  2  0  0  0  0
 37 60  1  0  0  0  0
 37 71  1  0  0  0  0
 37 78  2  0  0  0  0
 38 62  1  0  0  0  0
 38 72  1  0  0  0  0
 38 79  2  0  0  0  0
 39 67  1  0  0  0  0
 39 73  1  0  0  0  0
 39 80  2  0  0  0  0
 40 43  1  0  0  0  0
 41 50  1  0  0  0  0
 42 66  1  0  0  0  0
 43 45  1  0  0  0  0
 44 46  1  0  0  0  0
 44 47  1  0  0  0  0
 45 49  1  0  0  0  0
 46 51  1  0  0  0  0
 47 67  1  0  0  0  0
 48 51  1  0  0  0  0
 48 67  1  0  0  0  0
 49 70  1  0  0  0  0
 50 66  1  0  0  0  0
 51 65  1  0  0  0  0
 53 62  1  0  0  0  0
 54 63  1  0  0  0  0
 55 63  1  0  0  0  0
 56 63  1  0  0  0  0
 57 73  1  0  0  0  0
 58 74  1  0  0  0  0
 59 71  1  0  0  0  0
 60 82  1  0  0  0  0
 61 63  1  0  0  0  0
 61 72  1  0  0  0  0
 62 74  1  0  0  0  0
 64 65  1  0  0  0  0
M  CHG  1  74   1
M  ISO  4  39 100  60 101  73 100  82 101
M  END
> <Batch ID>
0051

> <Smiles>
CNC(C)C(=O)NC(C(=O)N1Cc2cc([101O:1][101CH2:1]C(=O)NCc3cc(Cl)cc([100N:0](C)[100C:0](=O)N4CCCC(n5nc(-c6ccc(Oc7ccc(F)cc7F)cc6)c(C(N)=O)c5N)C4)c3C)ccc2CC1C(=O)NC1CCCc2ccccc21)C(C)(C)C

> <Shape>
0.231

> <Color>
0.062

> <Negative vol penalty>
0.000

$$$$

  -OEChem-04042322373D

 84 92  0     1  0  0  0  0  0999 V2000
  -28.1368  -36.4025   22.3659 C   0  0  0  0  0  0  0  0  0  0  0  0
  -28.4178  -35.0415   22.3017 C   0  0  0  0  0  0  0  0  0  0  0  0
  -24.6680  -12.2897   19.7785 C   0  0  0  0  0  0  0  0  0  0  0  0
  -25.6650  -12.9805   21.8680 C   0  0  0  0  0  0  0  0  0  0  0  0
  -26.9051  -36.8365   22.8542 C   0  0  0  0  0  0  0  0  0  0  0  0
  -27.4676  -34.1137   22.7268 C   0  0  0  0  0  0  0  0  0  0  0  0
  -26.9741  -30.2283   19.5166 C   0  0  0  0  0  0  0  0  0  0  0  0
  -30.9074  -21.7156   22.8996 C   0  0  0  0  0  0  0  0  0  0  0  0
  -29.9552  -20.9233   23.5409 C   0  0  0  0  0  0  0  0  0  0  0  0
  -25.1818  -11.0054   19.9579 C   0  0  0  0  0  0  0  0  0  0  0  0
  -26.1787  -11.6962   22.0474 C   0  0  0  0  0  0  0  0  0  0  0  0
  -27.9527  -29.2363   19.5625 C   0  0  0  0  0  0  0  0  0  0  0  0
  -25.9271   -7.4484   20.0425 C   0  0  0  0  0  0  0  0  0  0  0  0
  -25.0786   -6.3698   19.7930 C   0  0  0  0  0  0  0  0  0  0  0  0
  -26.4804  -27.8534   20.8813 C   0  0  0  0  0  0  0  0  0  0  0  0
  -29.6982  -21.4861   20.8206 C   0  0  0  0  0  0  0  0  0  0  0  0
  -23.5666   -7.1639   21.5019 C   0  0  0  0  0  0  0  0  0  0  0  0
  -24.9097  -13.2773   20.7335 C   0  0  0  0  0  0  0  0  0  0  0  0
  -23.1319  -15.0897   20.9835 C   0  0  0  0  0  0  0  0  0  0  0  0
  -25.9356  -35.9132   23.2765 C   0  0  0  0  0  0  0  0  0  0  0  0
  -25.7434  -30.0444   20.1631 C   0  0  0  0  0  0  0  0  0  0  0  0
  -26.2222  -34.5358   23.2225 C   0  0  0  0  0  0  0  0  0  0  0  0
  -25.4870  -28.8435   20.8400 C   0  0  0  0  0  0  0  0  0  0  0  0
  -30.7788  -21.9970   21.5395 C   0  0  0  0  0  0  0  0  0  0  0  0
  -28.8745  -20.4123   22.8220 C   0  0  0  0  0  0  0  0  0  0  0  0
  -28.7460  -20.6937   21.4619 C   0  0  0  0  0  0  0  0  0  0  0  0
  -25.9371  -10.7086   21.0924 C   0  0  0  0  0  0  0  0  0  0  0  0
  -27.7070  -28.0498   20.2473 C   0  0  0  0  0  0  0  0  0  0  0  0
  -25.5954   -8.3847   21.0218 C   0  0  0  0  0  0  0  0  0  0  0  0
  -23.8983   -6.2275   20.5226 C   0  0  0  0  0  0  0  0  0  0  0  0
  -24.4151   -8.2425   21.7515 C   0  0  0  0  0  0  0  0  0  0  0  0
  -24.3797  -14.6043   20.5484 C   0  0  0  0  0  0  0  0  0  0  0  0
  -23.1070  -16.3974   20.5641 C   0  0  0  0  0  0  0  0  0  0  0  0
  -22.0887  -14.4186   21.7026 C   0  0  0  0  0  0  0  0  0  0  0  0
  -24.2069  -31.5189   22.5230 C   0  0  0  0  0  0  0  0  0  0  0  0
  -21.8194  -29.4737   21.7234 C   0  0  0  0  0  0  0  0  0  0  0  0
  -30.8533  -25.1174   20.4445 C   0  0  0  0  0  0  0  0  0  0  0  0
  -20.8962  -26.5135   20.2979 C   0  0  0  0  0  0  0  0  0  0  0  0
  -27.3952  -20.3802   19.3587 C   0  0  0  0  0  0  0  0  0  0  0  0
  -24.6367  -36.4316   23.8411 C   0  0  0  0  0  0  0  0  0  0  0  0
  -24.6882  -31.1133   20.0817 C   0  0  0  0  0  0  0  0  0  0  0  0
  -24.1744  -28.5887   21.5334 C   0  0  0  0  0  0  0  0  0  0  0  0
  -23.5412  -35.3715   23.9214 C   0  0  0  0  0  0  0  0  0  0  0  0
  -24.8397  -19.2667   17.1437 C   0  0  0  0  0  0  0  0  0  0  0  0
  -24.0897  -34.0816   24.5231 C   0  0  0  0  0  0  0  0  0  0  0  0
  -24.3140  -17.9922   17.8081 C   0  0  0  0  0  0  0  0  0  0  0  0
  -26.3496  -19.4171   17.3205 C   0  0  0  0  0  0  0  0  0  0  0  0
  -26.2985  -18.0538   19.3718 C   0  0  0  0  0  0  0  0  0  0  0  0
  -25.2078  -33.4978   23.6511 C   0  0  1  0  0  0  0  0  0  0  0  0
  -23.6647  -31.0296   21.2099 C   0  0  1  0  0  0  0  0  0  0  0  0
  -24.7726  -17.8917   19.2762 C   0  0  2  0  0  0  0  0  0  0  0  0
  -27.8703  -19.5658   23.5348 C   0  0  0  0  0  0  0  0  0  0  0  0
  -18.8780  -25.0983   19.8277 C   0  0  0  0  0  0  0  0  0  0  0  0
  -21.7369  -28.6225   24.6523 C   0  0  0  0  0  0  0  0  0  0  0  0
  -20.4288  -26.6043   23.9567 C   0  0  0  0  0  0  0  0  0  0  0  0
  -19.4935  -28.8858   23.5789 C   0  0  0  0  0  0  0  0  0  0  0  0
  -21.3354  -26.6534   17.3745 C   0  0  0  0  0  0  0  0  0  0  0  0
  -31.8041  -22.8501   20.8501 C   0  0  0  0  0  0  0  0  0  0  0  0
  -30.8862  -26.5243   21.0210 C   0  0  0  0  0  0  0  0  0  0  0  0
  -30.0220  -27.5051   20.2437 C   0  0  0  0  0  0  0  0  0  1  0  0
  -21.4167  -28.0821   22.1480 C   0  0  1  0  0  0  0  0  0  0  0  0
  -19.8097  -26.1748   19.2933 C   0  0  2  0  0  0  0  0  0  0  0  0
  -20.7945  -28.0540   23.5727 C   0  0  0  0  0  0  0  0  0  0  0  0
  -25.0955  -15.5283   19.9020 N   0  0  0  0  0  0  0  0  0  0  0  0
  -24.2949  -16.6075   19.9278 N   0  0  0  0  0  0  0  0  0  0  0  0
  -23.1769  -29.6666   21.4306 N   0  0  0  0  0  0  0  0  0  0  0  0
  -26.7095  -19.3156   18.7365 N   0  0  0  0  0  0  0  0  0  0  0  0
  -22.1850  -17.3765   20.6812 N   0  0  0  0  0  0  0  0  0  0  0  0
  -22.2778  -13.0755   22.0555 N   0  0  0  0  0  0  0  0  0  0  0  0
  -27.6550  -20.1846   20.7147 N   0  0  0  0  0  0  0  0  0  0  0  0
  -24.6502  -32.8274   22.4961 N   0  0  0  0  0  0  0  0  0  0  0  0
  -31.6510  -24.2496   21.1763 N   0  0  0  0  0  0  0  0  0  0  0  0
  -20.5362  -27.5746   21.1013 N   0  0  0  0  0  0  0  0  0  0  0  0
  -20.4140  -25.6847   18.0222 N   0  3  0  0  0  0  0  0  0  0  0  0
  -21.0138  -14.9882   22.0083 O   0  0  0  0  0  0  0  0  0  0  0  0
  -24.2207  -30.7655   23.4894 O   0  0  0  0  0  0  0  0  0  0  0  0
  -20.9599  -30.3552   21.6471 O   0  0  0  0  0  0  0  0  0  0  0  0
  -30.1954  -24.8106   19.4541 O   0  0  0  0  0  0  0  0  0  0  0  0
  -21.9567  -25.8959   20.3658 O   0  0  0  0  0  0  0  0  0  0  0  0
  -27.7034  -21.4027   18.7410 O   0  0  0  0  0  0  0  0  0  0  0  0
  -26.4384   -9.4554   21.2679 O   0  0  0  0  0  0  0  0  0  0  0  0
  -28.6607  -27.0801   20.2941 O   0  0  0  0  0  0  0  0  0  1  0  0
  -23.0829   -5.1926   20.2818 F   0  0  0  0  0  0  0  0  0  0  0  0
  -24.0905   -9.1394   22.6927 F   0  0  0  0  0  0  0  0  0  0  0  0
  1  2  1  0  0  0  0
  1  5  2  0  0  0  0
  2  6  2  0  0  0  0
  3 10  2  0  0  0  0
  3 18  1  0  0  0  0
  4 11  1  0  0  0  0
  4 18  2  0  0  0  0
  5 20  1  0  0  0  0
  6 22  1  0  0  0  0
  7 12  2  0  0  0  0
  7 21  1  0  0  0  0
  8  9  2  0  0  0  0
  8 24  1  0  0  0  0
  9 25  1  0  0  0  0
 10 27  1  0  0  0  0
 11 27  2  0  0  0  0
 12 28  1  0  0  0  0
 13 14  2  0  0  0  0
 13 29  1  0  0  0  0
 14 30  1  0  0  0  0
 15 23  1  0  0  0  0
 15 28  2  0  0  0  0
 16 24  2  0  0  0  0
 16 26  1  0  0  0  0
 17 30  2  0  0  0  0
 17 31  1  0  0  0  0
 18 32  1  0  0  0  0
 19 32  1  0  0  0  0
 19 33  2  0  0  0  0
 19 34  1  0  0  0  0
 20 22  2  0  0  0  0
 20 40  1  0  0  0  0
 21 23  2  0  0  0  0
 21 41  1  0  0  0  0
 22 49  1  0  0  0  0
 23 42  1  0  0  0  0
 24 58  1  0  0  0  0
 25 26  2  0  0  0  0
 25 52  1  0  0  0  0
 26 70  1  0  0  0  0
 27 81  1  0  0  0  0
 28 82  1  0  0  0  0
 29 31  2  0  0  0  0
 29 81  1  0  0  0  0
 30 83  1  0  0  0  0
 31 84  1  0  0  0  0
 32 64  2  0  0  0  0
 33 65  1  0  0  0  0
 33 68  1  0  0  0  0
 34 69  1  0  0  0  0
 34 75  2  0  0  0  0
 35 50  1  0  0  0  0
 35 71  1  0  0  0  0
 35 76  2  0  0  0  0
 36 61  1  0  0  0  0
 36 66  1  0  0  0  0
 36 77  2  0  0  0  0
 37 59  1  0  0  0  0
 37 72  1  0  0  0  0
 37 78  2  0  0  0  0
 38 62  1  0  0  0  0
 38 73  1  0  0  0  0
 38 79  2  0  0  0  0
 39 67  1  0  0  0  0
 39 70  1  0  0  0  0
 39 80  2  0  0  0  0
 40 43  1  0  0  0  0
 41 50  1  0  0  0  0
 42 66  1  0  0  0  0
 43 45  1  0  0  0  0
 44 46  1  0  0  0  0
 44 47  1  0  0  0  0
 45 49  1  0  0  0  0
 46 51  1  0  0  0  0
 47 67  1  0  0  0  0
 48 51  1  0  0  0  0
 48 67  1  0  0  0  0
 49 71  1  0  0  0  0
 50 66  1  0  0  0  0
 51 65  1  0  0  0  0
 53 62  1  0  0  0  0
 54 63  1  0  0  0  0
 55 63  1  0  0  0  0
 56 63  1  0  0  0  0
 57 74  1  0  0  0  0
 58 72  1  0  0  0  0
 59 60  1  0  0  0  0
 60 82  1  0  0  0  0
 61 63  1  0  0  0  0
 61 73  1  0  0  0  0
 62 74  1  0  0  0  0
 64 65  1  0  0  0  0
M  CHG  1  74   1
M  ISO  4  39 100  60 101  70 100  82 101
M  END
> <Batch ID>
0051

> <Smiles>
CNC(C)C(=O)NC(C(=O)N1Cc2cc([101O:1][101CH2:1]CC(=O)NCc3ccc(C)c([100NH:0][100C:0](=O)N4CCCC(n5nc(-c6ccc(Oc7ccc(F)cc7F)cc6)c(C(N)=O)c5N)C4)c3)ccc2CC1C(=O)NC1CCCc2ccccc21)C(C)(C)C

> <Shape>
0.279

> <Color>
0.094

> <Negative vol penalty>
0.000

$$$$

  -OEChem-04042322373D

 90 98  0     1  0  0  0  0  0999 V2000
  -30.6242  -28.6572   15.4693 C   0  0  0  0  0  0  0  0  0  0  0  0
  -30.1816  -27.4921   16.0875 C   0  0  0  0  0  0  0  0  0  0  0  0
  -25.6147  -11.6758   20.6268 C   0  0  0  0  0  0  0  0  0  0  0  0
  -31.9222  -21.7684   20.5941 C   0  0  0  0  0  0  0  0  0  0  0  0
  -29.5186  -21.6733   20.8195 C   0  0  0  0  0  0  0  0  0  0  0  0
  -24.4591  -12.3681   20.9885 C   0  0  0  0  0  0  0  0  0  0  0  0
  -30.4289  -29.8910   16.0886 C   0  0  0  0  0  0  0  0  0  0  0  0
  -29.5443  -27.5601   17.3259 C   0  0  0  0  0  0  0  0  0  0  0  0
  -24.9939  -23.9826   19.3260 C   0  0  0  0  0  0  0  0  0  0  0  0
  -26.7132  -12.3696   20.1191 C   0  0  0  0  0  0  0  0  0  0  0  0
  -31.8221  -23.0574   20.0707 C   0  0  0  0  0  0  0  0  0  0  0  0
  -29.4185  -22.9623   20.2961 C   0  0  0  0  0  0  0  0  0  0  0  0
  -24.9774  -22.8601   20.1527 C   0  0  0  0  0  0  0  0  0  0  0  0
  -32.2256  -26.5114   19.0114 C   0  0  0  0  0  0  0  0  0  0  0  0
  -33.1112  -27.4765   19.4907 C   0  0  0  0  0  0  0  0  0  0  0  0
  -24.4583  -24.2668   22.0424 C   0  0  0  0  0  0  0  0  0  0  0  0
  -32.2465  -27.1605   21.7245 C   0  0  0  0  0  0  0  0  0  0  0  0
  -30.7704  -21.0763   20.9684 C   0  0  0  0  0  0  0  0  0  0  0  0
  -24.4018  -13.7541   20.8426 C   0  0  0  0  0  0  0  0  0  0  0  0
  -31.0141  -19.3847   22.8623 C   0  0  0  0  0  0  0  0  0  0  0  0
  -29.7803  -29.9750   17.3307 C   0  0  0  0  0  0  0  0  0  0  0  0
  -24.7530  -25.2591   19.8542 C   0  0  0  0  0  0  0  0  0  0  0  0
  -29.3414  -28.7961   17.9630 C   0  0  0  0  0  0  0  0  0  0  0  0
  -24.4697  -25.4036   21.2198 C   0  0  0  0  0  0  0  0  0  0  0  0
  -25.5003  -14.4479   20.3349 C   0  0  0  0  0  0  0  0  0  0  0  0
  -26.6560  -13.7556   19.9732 C   0  0  0  0  0  0  0  0  0  0  0  0
  -30.5703  -23.6544   19.9217 C   0  0  0  0  0  0  0  0  0  0  0  0
  -24.7124  -23.0024   21.5116 C   0  0  0  0  0  0  0  0  0  0  0  0
  -31.3503  -25.8709   19.8885 C   0  0  0  0  0  0  0  0  0  0  0  0
  -33.1217  -27.8011   20.8473 C   0  0  0  0  0  0  0  0  0  0  0  0
  -31.3608  -26.1954   21.2451 C   0  0  0  0  0  0  0  0  0  0  0  0
  -30.8731  -19.7445   21.5086 C   0  0  0  0  0  0  0  0  0  0  0  0
  -31.0663  -18.0123   22.8492 C   0  0  0  0  0  0  0  0  0  0  0  0
  -23.1572  -14.4626   21.2377 C   0  0  0  0  0  0  0  0  0  0  0  0
  -31.0908  -20.2167   24.0275 C   0  0  0  0  0  0  0  0  0  0  0  0
  -26.4347  -27.9470   20.0803 C   0  0  0  0  0  0  0  0  0  0  0  0
  -23.6432  -29.1379   21.2256 C   0  0  0  0  0  0  0  0  0  0  0  0
  -20.6416  -28.5412   22.7359 C   0  0  0  0  0  0  0  0  0  0  0  0
  -21.5568  -15.3364   23.8477 C   0  0  0  0  0  0  0  0  0  0  0  0
  -28.9986  -13.8845   19.0557 C   0  0  0  0  0  0  0  0  0  0  0  0
  -29.6342  -31.3268   17.9833 C   0  0  0  0  0  0  0  0  0  0  0  0
  -24.7480  -26.4568   18.9443 C   0  0  0  0  0  0  0  0  0  0  0  0
  -24.1846  -26.7496   21.8325 C   0  0  0  0  0  0  0  0  0  0  0  0
  -28.6161  -31.3473   19.1206 C   0  0  0  0  0  0  0  0  0  0  0  0
  -32.3811  -14.3412   20.0691 C   0  0  0  0  0  0  0  0  0  0  0  0
  -28.8253  -30.1528   20.0459 C   0  0  0  0  0  0  0  0  0  0  0  0
  -32.3898  -15.7435   20.6820 C   0  0  0  0  0  0  0  0  0  0  0  0
  -31.4481  -14.2554   18.8625 C   0  0  0  0  0  0  0  0  0  0  0  0
  -30.0843  -16.1202   19.7177 C   0  0  0  0  0  0  0  0  0  0  0  0
  -28.6238  -28.8312   19.2949 C   0  0  1  0  0  0  0  0  0  0  0  0
  -24.9969  -27.7687   19.6821 C   0  0  1  0  0  0  0  0  0  0  0  0
  -30.9601  -16.2390   20.9757 C   0  0  2  0  0  0  0  0  0  0  0  0
  -25.4374  -15.9356   20.1784 C   0  0  0  0  0  0  0  0  0  0  0  0
  -18.5908  -29.7182   23.5763 C   0  0  0  0  0  0  0  0  0  0  0  0
  -25.2021  -30.1094   23.6620 C   0  0  0  0  0  0  0  0  0  0  0  0
  -23.0201  -30.4043   24.8536 C   0  0  0  0  0  0  0  0  0  0  0  0
  -23.5044  -31.7288   22.7960 C   0  0  0  0  0  0  0  0  0  0  0  0
  -18.8847  -27.0560   20.8740 C   0  0  0  0  0  0  0  0  0  0  0  0
  -19.7819  -15.3187   25.4128 C   0  0  0  0  0  0  0  0  0  0  0  0
  -23.2423  -18.4158   22.2105 C   0  0  0  0  0  0  0  0  0  0  0  0
  -23.6748  -19.7678   22.7868 C   0  0  0  0  0  0  0  0  0  0  0  0
  -22.5851  -17.5414   23.2831 C   0  0  0  0  0  0  0  0  0  0  0  0
  -24.3025  -20.6700   21.7312 C   0  0  0  0  0  0  0  0  0  1  0  0
  -23.0124  -29.2574   22.5919 C   0  0  1  0  0  0  0  0  0  0  0  0
  -19.2351  -29.0028   22.3991 C   0  0  2  0  0  0  0  0  0  0  0  0
  -22.1734  -16.1715   22.7437 C   0  0  1  0  0  0  0  0  0  0  0  0
  -23.6920  -30.3497   23.4650 C   0  0  0  0  0  0  0  0  0  0  0  0
  -30.8381  -18.6860   20.6948 N   0  0  0  0  0  0  0  0  0  0  0  0
  -30.9580  -17.6476   21.5395 N   0  0  0  0  0  0  0  0  0  0  0  0
  -24.1974  -27.8911   20.9028 N   0  0  0  0  0  0  0  0  0  0  0  0
  -30.1112  -14.7371   19.2167 N   0  0  0  0  0  0  0  0  0  0  0  0
  -31.1939  -17.0939   23.8304 N   0  0  0  0  0  0  0  0  0  0  0  0
  -31.0210  -21.6067   23.8617 N   0  0  0  0  0  0  0  0  0  0  0  0
  -27.7838  -14.4400   19.4560 N   0  0  0  0  0  0  0  0  0  0  0  0
  -23.2909  -15.4186   22.2360 N   0  0  0  0  0  0  0  0  0  0  0  0
  -27.2132  -28.5606   19.1176 N   0  0  0  0  0  0  0  0  0  0  0  0
  -21.5874  -29.4739   22.3661 N   0  0  0  0  0  0  0  0  0  0  0  0
  -18.3814  -27.8375   22.0328 N   0  3  0  0  0  0  0  0  0  0  0  0
  -22.0978  -14.1632   20.6933 O   0  0  0  0  0  0  0  0  0  0  0  0
  -31.2341  -19.7423   25.1798 O   0  0  0  0  0  0  0  0  0  0  0  0
  -26.8097  -27.5580   21.1802 O   0  0  0  0  0  0  0  0  0  0  0  0
  -23.6379  -30.1128   20.4698 O   0  0  0  0  0  0  0  0  0  0  0  0
  -20.8772  -27.4629   23.2765 O   0  0  0  0  0  0  0  0  0  0  0  0
  -22.0157  -14.2826   24.2698 O   0  0  0  0  0  0  0  0  0  0  0  0
  -29.1187  -12.7358   18.6220 O   0  0  0  0  0  0  0  0  0  0  0  0
  -30.4722  -24.9123   19.4112 O   0  0  0  0  0  0  0  0  0  0  0  0
  -24.6964  -21.9084   22.3209 O   0  0  0  0  0  0  0  0  0  1  0  0
  -20.4444  -15.9706   24.3246 O   0  0  0  0  0  0  0  0  0  0  0  0
  -33.9732  -28.7268   21.3077 F   0  0  0  0  0  0  0  0  0  0  0  0
  -30.5232  -25.5825   22.0928 F   0  0  0  0  0  0  0  0  0  0  0  0
  1  2  1  0  0  0  0
  1  7  2  0  0  0  0
  2  8  2  0  0  0  0
  3  6  2  0  0  0  0
  3 10  1  0  0  0  0
  4 11  2  0  0  0  0
  4 18  1  0  0  0  0
  5 12  1  0  0  0  0
  5 18  2  0  0  0  0
  6 19  1  0  0  0  0
  7 21  1  0  0  0  0
  8 23  1  0  0  0  0
  9 13  2  0  0  0  0
  9 22  1  0  0  0  0
 10 26  2  0  0  0  0
 11 27  1  0  0  0  0
 12 27  2  0  0  0  0
 13 28  1  0  0  0  0
 14 15  2  0  0  0  0
 14 29  1  0  0  0  0
 15 30  1  0  0  0  0
 16 24  1  0  0  0  0
 16 28  2  0  0  0  0
 17 30  2  0  0  0  0
 17 31  1  0  0  0  0
 18 32  1  0  0  0  0
 19 25  2  0  0  0  0
 19 34  1  0  0  0  0
 20 32  1  0  0  0  0
 20 33  2  0  0  0  0
 20 35  1  0  0  0  0
 21 23  2  0  0  0  0
 21 41  1  0  0  0  0
 22 24  2  0  0  0  0
 22 42  1  0  0  0  0
 23 50  1  0  0  0  0
 24 43  1  0  0  0  0
 25 26  1  0  0  0  0
 25 53  1  0  0  0  0
 26 74  1  0  0  0  0
 27 86  1  0  0  0  0
 28 87  1  0  0  0  0
 29 31  2  0  0  0  0
 29 86  1  0  0  0  0
 30 89  1  0  0  0  0
 31 90  1  0  0  0  0
 32 68  2  0  0  0  0
 33 69  1  0  0  0  0
 33 72  1  0  0  0  0
 34 75  1  0  0  0  0
 34 79  2  0  0  0  0
 35 73  1  0  0  0  0
 35 80  2  0  0  0  0
 36 51  1  0  0  0  0
 36 76  1  0  0  0  0
 36 81  2  0  0  0  0
 37 64  1  0  0  0  0
 37 70  1  0  0  0  0
 37 82  2  0  0  0  0
 38 65  1  0  0  0  0
 38 77  1  0  0  0  0
 38 83  2  0  0  0  0
 39 66  1  0  0  0  0
 39 84  2  0  0  0  0
 39 88  1  0  0  0  0
 40 71  1  0  0  0  0
 40 74  1  0  0  0  0
 40 85  2  0  0  0  0
 41 44  1  0  0  0  0
 42 51  1  0  0  0  0
 43 70  1  0  0  0  0
 44 46  1  0  0  0  0
 45 47  1  0  0  0  0
 45 48  1  0  0  0  0
 46 50  1  0  0  0  0
 47 52  1  0  0  0  0
 48 71  1  0  0  0  0
 49 52  1  0  0  0  0
 49 71  1  0  0  0  0
 50 76  1  0  0  0  0
 51 70  1  0  0  0  0
 52 69  1  0  0  0  0
 54 65  1  0  0  0  0
 55 67  1  0  0  0  0
 56 67  1  0  0  0  0
 57 67  1  0  0  0  0
 58 78  1  0  0  0  0
 59 88  1  0  0  0  0
 60 61  1  0  0  0  0
 60 62  1  0  0  0  0
 61 63  1  0  0  0  0
 62 66  1  0  0  0  0
 63 87  1  0  0  0  0
 64 67  1  0  0  0  0
 64 77  1  0  0  0  0
 65 78  1  0  0  0  0
 66 75  1  0  0  0  0
 68 69  1  0  0  0  0
M  CHG  1  78   1
M  ISO  4  40 100  63 101  74 100  87 101
M  END
> <Batch ID>
0051

> <Smiles>
CNC(C)C(=O)NC(C(=O)N1Cc2cc([101O:1][101CH2:1]CCCC(NC(=O)c3cccc([100NH:0][100C:0](=O)N4CCCC(n5nc(-c6ccc(Oc7ccc(F)cc7F)cc6)c(C(N)=O)c5N)C4)c3C)C(=O)OC)ccc2CC1C(=O)NC1CCCc2ccccc21)C(C)(C)C

> <Shape>
0.247

> <Color>
0.064

> <Negative vol penalty>
0.000

$$$$

  -OEChem-04042322373D

 87 96  0     1  0  0  0  0  0999 V2000
  -25.1063  -35.5126   22.7772 C   0  0  0  0  0  0  0  0  0  0  0  0
  -25.8148  -34.3283   22.6019 C   0  0  0  0  0  0  0  0  0  0  0  0
  -24.7864  -12.8953   23.2498 C   0  0  0  0  0  0  0  0  0  0  0  0
  -23.7987  -12.2685   21.1359 C   0  0  0  0  0  0  0  0  0  0  0  0
  -23.8147  -35.4798   23.3014 C   0  0  0  0  0  0  0  0  0  0  0  0
  -25.2325  -33.1105   22.9516 C   0  0  0  0  0  0  0  0  0  0  0  0
  -25.9457  -29.5356   19.4365 C   0  0  0  0  0  0  0  0  0  0  0  0
  -24.6053  -11.5947   23.7202 C   0  0  0  0  0  0  0  0  0  0  0  0
  -23.6176  -10.9679   21.6062 C   0  0  0  0  0  0  0  0  0  0  0  0
  -27.1957  -28.9191   19.3998 C   0  0  0  0  0  0  0  0  0  0  0  0
  -21.4521   -9.3245   23.6163 C   0  0  0  0  0  0  0  0  0  0  0  0
  -20.2213   -8.7138   23.3757 C   0  0  0  0  0  0  0  0  0  0  0  0
  -26.2944  -27.0333   20.6040 C   0  0  0  0  0  0  0  0  0  0  0  0
  -29.6801  -22.6259   21.6870 C   0  0  0  0  0  0  0  0  0  0  0  0
  -30.3761  -21.3110   19.3271 C   0  0  0  0  0  0  0  0  0  0  0  0
  -21.3324   -6.9634   22.1352 C   0  0  0  0  0  0  0  0  0  0  0  0
  -24.3831  -13.2323   21.9577 C   0  0  0  0  0  0  0  0  0  0  0  0
  -24.0306  -15.7582   22.0132 C   0  0  0  0  0  0  0  0  0  0  0  0
  -23.2127  -34.2602   23.6487 C   0  0  0  0  0  0  0  0  0  0  0  0
  -24.8615  -28.9092   20.0679 C   0  0  0  0  0  0  0  0  0  0  0  0
  -23.9322  -33.0615   23.4822 C   0  0  0  0  0  0  0  0  0  0  0  0
  -25.0310  -27.6427   20.6452 C   0  0  0  0  0  0  0  0  0  0  0  0
  -30.8413  -22.9870   21.0038 C   0  0  0  0  0  0  0  0  0  0  0  0
  -28.8669  -21.6072   21.1903 C   0  0  0  0  0  0  0  0  0  0  0  0
  -31.1893  -22.3296   19.8239 C   0  0  0  0  0  0  0  0  0  0  0  0
  -29.2149  -20.9498   20.0103 C   0  0  0  0  0  0  0  0  0  0  0  0
  -24.0209  -10.6310   22.8984 C   0  0  0  0  0  0  0  0  0  0  0  0
  -27.3709  -27.6691   19.9861 C   0  0  0  0  0  0  0  0  0  0  0  0
  -22.6230   -8.7547   23.1164 C   0  0  0  0  0  0  0  0  0  0  0  0
  -20.1615   -7.5333   22.6351 C   0  0  0  0  0  0  0  0  0  0  0  0
  -22.5632   -7.5741   22.3759 C   0  0  0  0  0  0  0  0  0  0  0  0
  -24.5694  -14.5758   21.4715 C   0  0  0  0  0  0  0  0  0  0  0  0
  -24.5007  -16.7561   21.1947 C   0  0  0  0  0  0  0  0  0  0  0  0
  -30.2919  -25.9664   22.2970 C   0  0  0  0  0  0  0  0  0  0  0  0
  -23.1813  -15.9385   23.1542 C   0  0  0  0  0  0  0  0  0  0  0  0
  -22.9949  -29.6130   22.5426 C   0  0  0  0  0  0  0  0  0  0  0  0
  -21.3855  -26.9651   21.5831 C   0  0  0  0  0  0  0  0  0  0  0  0
  -22.2205  -23.6637   20.3911 C   0  0  0  0  0  0  0  0  0  0  0  0
  -28.6195  -19.1703   18.3295 C   0  0  0  0  0  0  0  0  0  0  0  0
  -21.8322  -34.2789   24.2558 C   0  0  0  0  0  0  0  0  0  0  0  0
  -23.5131  -29.5756   20.0756 C   0  0  0  0  0  0  0  0  0  0  0  0
  -23.8941  -26.9191   21.3177 C   0  0  0  0  0  0  0  0  0  0  0  0
  -29.7740  -27.3700   22.0328 C   0  0  0  0  0  0  0  0  0  0  0  0
  -21.1462  -32.9152   24.2513 C   0  0  0  0  0  0  0  0  0  0  0  0
  -26.8740  -16.5106   16.7306 C   0  0  0  0  0  0  0  0  0  0  0  0
  -22.1030  -31.8347   24.7451 C   0  0  0  0  0  0  0  0  0  0  0  0
  -26.0745  -15.8674   17.8660 C   0  0  0  0  0  0  0  0  0  0  0  0
  -30.9681  -27.4205   19.8549 C   0  0  0  0  0  0  0  0  0  0  0  0
  -28.2466  -16.9872   17.2026 C   0  0  0  0  0  0  0  0  0  0  0  0
  -31.2734  -25.9377   19.9779 C   0  0  0  0  0  0  0  0  0  0  0  0
  -27.4284  -17.2228   19.5144 C   0  0  0  0  0  0  0  0  0  0  0  0
  -23.3254  -31.7186   23.8265 C   0  0  1  0  0  0  0  0  0  0  0  0
  -22.6055  -29.0747   21.1949 C   0  0  1  0  0  0  0  0  0  0  0  0
  -26.0132  -16.7855   19.1025 C   0  0  2  0  0  0  0  0  0  0  0  0
  -29.6726  -27.7560   20.5684 C   0  0  1  0  0  0  0  0  0  1  0  0
  -27.6288  -21.2413   21.9427 C   0  0  0  0  0  0  0  0  0  0  0  0
  -32.4279  -22.6989   19.0755 C   0  0  0  0  0  0  0  0  0  0  0  0
  -20.9427  -22.0926   18.9091 C   0  0  0  0  0  0  0  0  0  0  0  0
  -20.3594  -25.7879   24.2044 C   0  0  0  0  0  0  0  0  0  0  0  0
  -20.5111  -23.5163   23.1628 C   0  0  0  0  0  0  0  0  0  0  0  0
  -18.9758  -25.2291   22.1975 C   0  0  0  0  0  0  0  0  0  0  0  0
  -24.4777  -23.4362   18.4905 C   0  0  0  0  0  0  0  0  0  0  0  0
  -31.7011  -24.0861   21.5579 C   0  0  0  0  0  0  0  0  0  0  0  0
  -21.4721  -25.4903   21.8937 C   0  0  1  0  0  0  0  0  0  0  0  0
  -22.0464  -23.1366   18.9782 C   0  0  2  0  0  0  0  0  0  0  0  0
  -20.3525  -25.0228   22.8660 C   0  0  0  0  0  0  0  0  0  0  0  0
  -25.3238  -14.8000   20.3924 N   0  0  0  0  0  0  0  0  0  0  0  0
  -25.2624  -16.1348   20.2492 N   0  0  0  0  0  0  0  0  0  0  0  0
  -31.1188  -25.4019   21.3290 N   0  0  0  0  0  0  0  0  0  0  0  0
  -22.5965  -27.6146   21.3047 N   0  0  0  0  0  0  0  0  0  0  0  0
  -28.1095  -17.8555   18.3740 N   0  0  0  0  0  0  0  0  0  0  0  0
  -24.3325  -18.0955   21.1988 N   0  0  0  0  0  0  0  0  0  0  0  0
  -22.7927  -14.8064   23.8834 N   0  0  0  0  0  0  0  0  0  0  0  0
  -28.4018  -19.9127   19.4896 N   0  0  0  0  0  0  0  0  0  0  0  0
  -22.9851  -30.9926   22.6217 N   0  0  0  0  0  0  0  0  0  0  0  0
  -21.4725  -24.8016   20.6075 N   0  0  0  0  0  0  0  0  0  0  0  0
  -23.3125  -22.5146   18.4977 N   0  3  0  0  0  0  0  0  0  0  0  0
  -30.0242  -25.4273   23.3750 O   0  0  0  0  0  0  0  0  0  0  0  0
  -22.7656  -17.0683   23.5067 O   0  0  0  0  0  0  0  0  0  0  0  0
  -23.2815  -28.8344   23.4444 O   0  0  0  0  0  0  0  0  0  0  0  0
  -20.2833  -27.5189   21.5803 O   0  0  0  0  0  0  0  0  0  0  0  0
  -22.9445  -23.1182   21.2210 O   0  0  0  0  0  0  0  0  0  0  0  0
  -29.1820  -19.6146   17.3254 O   0  0  0  0  0  0  0  0  0  0  0  0
  -23.8442   -9.3617   23.3569 O   0  0  0  0  0  0  0  0  0  0  0  0
  -28.5900  -27.0655   19.9522 O   0  0  0  0  0  0  0  0  0  1  0  0
  -18.9797   -6.9462   22.4054 F   0  0  0  0  0  0  0  0  0  0  0  0
  -23.6848   -7.0213   21.8940 F   0  0  0  0  0  0  0  0  0  0  0  0
  1  2  1  0  0  0  0
  1  5  2  0  0  0  0
  2  6  2  0  0  0  0
  3  8  2  0  0  0  0
  3 17  1  0  0  0  0
  4  9  1  0  0  0  0
  4 17  2  0  0  0  0
  5 19  1  0  0  0  0
  6 21  1  0  0  0  0
  7 10  2  0  0  0  0
  7 20  1  0  0  0  0
  8 27  1  0  0  0  0
  9 27  2  0  0  0  0
 10 28  1  0  0  0  0
 11 12  2  0  0  0  0
 11 29  1  0  0  0  0
 12 30  1  0  0  0  0
 13 22  1  0  0  0  0
 13 28  2  0  0  0  0
 14 23  1  0  0  0  0
 14 24  2  0  0  0  0
 15 25  1  0  0  0  0
 15 26  2  0  0  0  0
 16 30  2  0  0  0  0
 16 31  1  0  0  0  0
 17 32  1  0  0  0  0
 18 32  1  0  0  0  0
 18 33  2  0  0  0  0
 18 35  1  0  0  0  0
 19 21  2  0  0  0  0
 19 40  1  0  0  0  0
 20 22  2  0  0  0  0
 20 41  1  0  0  0  0
 21 52  1  0  0  0  0
 22 42  1  0  0  0  0
 23 25  2  0  0  0  0
 23 63  1  0  0  0  0
 24 26  1  0  0  0  0
 24 56  1  0  0  0  0
 25 57  1  0  0  0  0
 26 74  1  0  0  0  0
 27 84  1  0  0  0  0
 28 85  1  0  0  0  0
 29 31  2  0  0  0  0
 29 84  1  0  0  0  0
 30 86  1  0  0  0  0
 31 87  1  0  0  0  0
 32 67  2  0  0  0  0
 33 68  1  0  0  0  0
 33 72  1  0  0  0  0
 34 43  1  0  0  0  0
 34 69  1  0  0  0  0
 34 78  2  0  0  0  0
 35 73  1  0  0  0  0
 35 79  2  0  0  0  0
 36 53  1  0  0  0  0
 36 75  1  0  0  0  0
 36 80  2  0  0  0  0
 37 64  1  0  0  0  0
 37 70  1  0  0  0  0
 37 81  2  0  0  0  0
 38 65  1  0  0  0  0
 38 76  1  0  0  0  0
 38 82  2  0  0  0  0
 39 71  1  0  0  0  0
 39 74  1  0  0  0  0
 39 83  2  0  0  0  0
 40 44  1  0  0  0  0
 41 53  1  0  0  0  0
 42 70  1  0  0  0  0
 43 55  1  0  0  0  0
 44 46  1  0  0  0  0
 45 47  1  0  0  0  0
 45 49  1  0  0  0  0
 46 52  1  0  0  0  0
 47 54  1  0  0  0  0
 48 50  1  0  0  0  0
 48 55  1  0  0  0  0
 49 71  1  0  0  0  0
 50 69  1  0  0  0  0
 51 54  1  0  0  0  0
 51 71  1  0  0  0  0
 52 75  1  0  0  0  0
 53 70  1  0  0  0  0
 54 68  1  0  0  0  0
 55 85  1  0  0  0  0
 58 65  1  0  0  0  0
 59 66  1  0  0  0  0
 60 66  1  0  0  0  0
 61 66  1  0  0  0  0
 62 77  1  0  0  0  0
 63 69  1  0  0  0  0
 64 66  1  0  0  0  0
 64 76  1  0  0  0  0
 65 77  1  0  0  0  0
 67 68  1  0  0  0  0
M  CHG  1  77   1
M  ISO  4  39 100  55 101  74 100  85 101
M  END
> <Batch ID>
0051

> <Smiles>
CNC(C)C(=O)NC(C(=O)N1Cc2cc([101O:1][101CH:1]3CCN(Cc4cc(C)c([100NH:0][100C:0](=O)N5CCCC(n6nc(-c7ccc(Oc8ccc(F)cc8F)cc7)c(C(N)=O)c6N)C5)cc4C)C(=O)C3)ccc2CC1C(=O)NC1CCCc2ccccc21)C(C)(C)C

> <Shape>
0.246

> <Color>
0.071

> <Negative vol penalty>
0.000

$$$$

  -OEChem-04042322373D

 83 91  0     1  0  0  0  0  0999 V2000
  -16.3977  -28.0610   22.0558 C   0  0  0  0  0  0  0  0  0  0  0  0
  -17.4457  -27.1508   21.9623 C   0  0  0  0  0  0  0  0  0  0  0  0
  -30.9503  -19.2423   19.9468 C   0  0  0  0  0  0  0  0  0  0  0  0
  -23.3783  -10.7893   22.3769 C   0  0  0  0  0  0  0  0  0  0  0  0
  -22.8323  -13.0207   21.6287 C   0  0  0  0  0  0  0  0  0  0  0  0
  -16.6255  -29.4130   21.8028 C   0  0  0  0  0  0  0  0  0  0  0  0
  -18.7220  -27.5921   21.6146 C   0  0  0  0  0  0  0  0  0  0  0  0
  -24.0611  -25.3808   23.6417 C   0  0  0  0  0  0  0  0  0  0  0  0
  -29.9170  -20.0833   19.5338 C   0  0  0  0  0  0  0  0  0  0  0  0
  -30.7907  -17.8580   19.8828 C   0  0  0  0  0  0  0  0  0  0  0  0
  -22.4037  -10.8839   23.3702 C   0  0  0  0  0  0  0  0  0  0  0  0
  -21.8576  -13.1152   22.6219 C   0  0  0  0  0  0  0  0  0  0  0  0
  -24.9731  -24.4809   23.0918 C   0  0  0  0  0  0  0  0  0  0  0  0
  -18.6974  -12.0264   23.1200 C   0  0  0  0  0  0  0  0  0  0  0  0
  -17.4547  -12.5467   22.7589 C   0  0  0  0  0  0  0  0  0  0  0  0
  -26.2699  -26.3268   22.2372 C   0  0  0  0  0  0  0  0  0  0  0  0
  -28.5644  -18.1558   18.9928 C   0  0  0  0  0  0  0  0  0  0  0  0
  -17.7330  -14.3278   24.3674 C   0  0  0  0  0  0  0  0  0  0  0  0
  -23.5927  -11.8578   21.5062 C   0  0  0  0  0  0  0  0  0  0  0  0
  -24.4328  -11.2801   19.1677 C   0  0  0  0  0  0  0  0  0  0  0  0
  -17.9072  -29.8725   21.4614 C   0  0  0  0  0  0  0  0  0  0  0  0
  -24.2411  -26.7625   23.4838 C   0  0  0  0  0  0  0  0  0  0  0  0
  -18.9668  -28.9514   21.3556 C   0  0  0  0  0  0  0  0  0  0  0  0
  -25.3601  -27.2421   22.7882 C   0  0  0  0  0  0  0  0  0  0  0  0
  -28.7241  -19.5401   19.0568 C   0  0  0  0  0  0  0  0  0  0  0  0
  -29.5978  -17.3148   19.4059 C   0  0  0  0  0  0  0  0  0  0  0  0
  -21.6433  -12.0468   23.4927 C   0  0  0  0  0  0  0  0  0  0  0  0
  -26.0761  -24.9538   22.3870 C   0  0  0  0  0  0  0  0  0  0  0  0
  -19.4580  -12.6567   24.1048 C   0  0  0  0  0  0  0  0  0  0  0  0
  -16.9725  -13.6975   23.3825 C   0  0  0  0  0  0  0  0  0  0  0  0
  -18.9758  -13.8074   24.7285 C   0  0  0  0  0  0  0  0  0  0  0  0
  -24.5998  -11.7609   20.4802 C   0  0  0  0  0  0  0  0  0  0  0  0
  -25.6777  -11.3949   18.5990 C   0  0  0  0  0  0  0  0  0  0  0  0
  -23.2574  -10.7750   18.5205 C   0  0  0  0  0  0  0  0  0  0  0  0
  -22.5816  -29.0979   22.1072 C   0  0  0  0  0  0  0  0  0  0  0  0
  -24.8637  -30.9777   23.4416 C   0  0  0  0  0  0  0  0  0  0  0  0
  -27.2753  -22.2833   20.2783 C   0  0  0  0  0  0  0  0  0  0  0  0
  -28.0353  -31.2542   24.6708 C   0  0  0  0  0  0  0  0  0  0  0  0
  -30.3625  -14.9338   19.7097 C   0  0  0  0  0  0  0  0  0  0  0  0
  -18.0947  -31.3365   21.1508 C   0  0  0  0  0  0  0  0  0  0  0  0
  -23.2627  -27.7206   24.1060 C   0  0  0  0  0  0  0  0  0  0  0  0
  -25.6098  -28.7164   22.6079 C   0  0  0  0  0  0  0  0  0  0  0  0
  -19.5561  -31.7775   21.1543 C   0  0  0  0  0  0  0  0  0  0  0  0
  -30.3300  -11.3735   19.7346 C   0  0  0  0  0  0  0  0  0  0  0  0
  -20.4137  -30.7899   20.3695 C   0  0  0  0  0  0  0  0  0  0  0  0
  -28.8414  -11.0250   19.8031 C   0  0  0  0  0  0  0  0  0  0  0  0
  -30.6598  -12.6172   20.5582 C   0  0  0  0  0  0  0  0  0  0  0  0
  -28.3532  -13.4497   20.3224 C   0  0  0  0  0  0  0  0  0  0  0  0
  -20.3706  -29.3951   21.0054 C   0  0  1  0  0  0  0  0  0  0  0  0
  -23.2686  -29.0948   23.4435 C   0  0  1  0  0  0  0  0  0  0  0  0
  -27.9613  -12.2418   19.4559 C   0  0  2  0  0  0  0  0  0  0  0  0
  -29.6278  -32.9253   25.6551 C   0  0  0  0  0  0  0  0  0  0  0  0
  -25.3381  -32.1561   20.6674 C   0  0  0  0  0  0  0  0  0  0  0  0
  -27.5096  -33.0773   21.5064 C   0  0  0  0  0  0  0  0  0  0  0  0
  -25.3609  -33.8267   22.5283 C   0  0  0  0  0  0  0  0  0  0  0  0
  -25.8041  -20.2614   20.2752 C   0  0  0  0  0  0  0  0  0  0  0  0
  -28.2408  -29.7394   27.2050 C   0  0  0  0  0  0  0  0  0  0  0  0
  -27.6122  -20.4458   18.6124 C   0  0  0  0  0  0  0  0  0  0  0  0
  -26.4644  -22.8044   21.4460 C   0  0  0  0  0  0  0  0  0  1  0  0
  -26.2131  -31.4946   23.0047 C   0  0  1  0  0  0  0  0  0  0  0  0
  -28.5696  -31.8736   25.9496 C   0  0  2  0  0  0  0  0  0  0  0  0
  -26.1000  -32.6108   21.9282 C   0  0  0  0  0  0  0  0  0  0  0  0
  -25.8522  -12.1519   20.7307 N   0  0  0  0  0  0  0  0  0  0  0  0
  -26.4834  -11.9168   19.5678 N   0  0  0  0  0  0  0  0  0  0  0  0
  -24.6213  -29.6132   23.2293 N   0  0  0  0  0  0  0  0  0  0  0  0
  -29.7897  -13.7300   20.1717 N   0  0  0  0  0  0  0  0  0  0  0  0
  -26.1508  -11.0993   17.3697 N   0  0  0  0  0  0  0  0  0  0  0  0
  -22.0616  -10.7262   19.2500 N   0  0  0  0  0  0  0  0  0  0  0  0
  -29.4363  -15.9086   19.3403 N   0  0  0  0  0  0  0  0  0  0  0  0
  -21.2237  -29.3456   22.1733 N   0  0  0  0  0  0  0  0  0  0  0  0
  -26.9063  -31.9054   24.2209 N   0  0  0  0  0  0  0  0  0  0  0  0
  -26.9113  -21.0468   19.7441 N   0  0  0  0  0  0  0  0  0  0  0  0
  -29.1772  -30.8259   26.8181 N   0  3  0  0  0  0  0  0  0  0  0  0
  -23.2709  -10.3633   17.3356 O   0  0  0  0  0  0  0  0  0  0  0  0
  -23.2352  -28.8924   21.0913 O   0  0  0  0  0  0  0  0  0  0  0  0
  -24.0572  -31.7546   23.9590 O   0  0  0  0  0  0  0  0  0  0  0  0
  -28.2075  -22.9705   19.8498 O   0  0  0  0  0  0  0  0  0  0  0  0
  -28.5686  -30.2916   24.1235 O   0  0  0  0  0  0  0  0  0  0  0  0
  -31.5844  -15.0788   19.6207 O   0  0  0  0  0  0  0  0  0  0  0  0
  -20.6919  -12.1393   24.4617 O   0  0  0  0  0  0  0  0  0  0  0  0
  -26.9675  -24.0777   21.8487 O   0  0  0  0  0  0  0  0  0  1  0  0
  -15.7797  -14.1979   23.0345 F   0  0  0  0  0  0  0  0  0  0  0  0
  -19.7024  -14.4181   25.6745 F   0  0  0  0  0  0  0  0  0  0  0  0
  1  2  1  0  0  0  0
  1  6  2  0  0  0  0
  2  7  2  0  0  0  0
  3  9  2  0  0  0  0
  3 10  1  0  0  0  0
  4 11  2  0  0  0  0
  4 19  1  0  0  0  0
  5 12  1  0  0  0  0
  5 19  2  0  0  0  0
  6 21  1  0  0  0  0
  7 23  1  0  0  0  0
  8 13  2  0  0  0  0
  8 22  1  0  0  0  0
  9 25  1  0  0  0  0
 10 26  2  0  0  0  0
 11 27  1  0  0  0  0
 12 27  2  0  0  0  0
 13 28  1  0  0  0  0
 14 15  2  0  0  0  0
 14 29  1  0  0  0  0
 15 30  1  0  0  0  0
 16 24  1  0  0  0  0
 16 28  2  0  0  0  0
 17 25  2  0  0  0  0
 17 26  1  0  0  0  0
 18 30  2  0  0  0  0
 18 31  1  0  0  0  0
 19 32  1  0  0  0  0
 20 32  1  0  0  0  0
 20 33  2  0  0  0  0
 20 34  1  0  0  0  0
 21 23  2  0  0  0  0
 21 40  1  0  0  0  0
 22 24  2  0  0  0  0
 22 41  1  0  0  0  0
 23 49  1  0  0  0  0
 24 42  1  0  0  0  0
 25 58  1  0  0  0  0
 26 69  1  0  0  0  0
 27 80  1  0  0  0  0
 28 81  1  0  0  0  0
 29 31  2  0  0  0  0
 29 80  1  0  0  0  0
 30 82  1  0  0  0  0
 31 83  1  0  0  0  0
 32 63  2  0  0  0  0
 33 64  1  0  0  0  0
 33 67  1  0  0  0  0
 34 68  1  0  0  0  0
 34 74  2  0  0  0  0
 35 50  1  0  0  0  0
 35 70  1  0  0  0  0
 35 75  2  0  0  0  0
 36 60  1  0  0  0  0
 36 65  1  0  0  0  0
 36 76  2  0  0  0  0
 37 59  1  0  0  0  0
 37 72  1  0  0  0  0
 37 77  2  0  0  0  0
 38 61  1  0  0  0  0
 38 71  1  0  0  0  0
 38 78  2  0  0  0  0
 39 66  1  0  0  0  0
 39 69  1  0  0  0  0
 39 79  2  0  0  0  0
 40 43  1  0  0  0  0
 41 50  1  0  0  0  0
 42 65  1  0  0  0  0
 43 45  1  0  0  0  0
 44 46  1  0  0  0  0
 44 47  1  0  0  0  0
 45 49  1  0  0  0  0
 46 51  1  0  0  0  0
 47 66  1  0  0  0  0
 48 51  1  0  0  0  0
 48 66  1  0  0  0  0
 49 70  1  0  0  0  0
 50 65  1  0  0  0  0
 51 64  1  0  0  0  0
 52 61  1  0  0  0  0
 53 62  1  0  0  0  0
 54 62  1  0  0  0  0
 55 62  1  0  0  0  0
 56 72  1  0  0  0  0
 57 73  1  0  0  0  0
 58 72  1  0  0  0  0
 59 81  1  0  0  0  0
 60 62  1  0  0  0  0
 60 71  1  0  0  0  0
 61 73  1  0  0  0  0
 63 64  1  0  0  0  0
M  CHG  1  73   1
M  ISO  4  39 100  59 101  69 100  81 101
M  END
> <Batch ID>
0051

> <Smiles>
CNC(C)C(=O)NC(C(=O)N1Cc2cc([101O:1][101CH2:1]C(=O)N(C)Cc3cccc([100NH:0][100C:0](=O)N4CCCC(n5nc(-c6ccc(Oc7ccc(F)cc7F)cc6)c(C(N)=O)c5N)C4)c3)ccc2CC1C(=O)NC1CCCc2ccccc21)C(C)(C)C

> <Shape>
0.244

> <Color>
0.081

> <Negative vol penalty>
0.000

$$$$

  -OEChem-04042322373D

 85 93  0     1  0  0  0  0  0999 V2000
  -30.4174  -23.6023   31.4435 C   0  0  0  0  0  0  0  0  0  0  0  0
  -30.7372  -23.3330   30.1166 C   0  0  0  0  0  0  0  0  0  0  0  0
  -32.1637  -18.0165   23.4806 C   0  0  0  0  0  0  0  0  0  0  0  0
  -23.1406   -9.7454   19.9839 C   0  0  0  0  0  0  0  0  0  0  0  0
  -23.7065   -9.9972   22.3192 C   0  0  0  0  0  0  0  0  0  0  0  0
  -29.0907  -23.5350   31.8670 C   0  0  0  0  0  0  0  0  0  0  0  0
  -29.7307  -22.9952   29.2127 C   0  0  0  0  0  0  0  0  0  0  0  0
  -27.9683  -23.6884   22.3040 C   0  0  0  0  0  0  0  0  0  0  0  0
  -31.6599  -17.0380   22.6236 C   0  0  0  0  0  0  0  0  0  0  0  0
  -22.4164   -8.5917   20.2838 C   0  0  0  0  0  0  0  0  0  0  0  0
  -22.9822   -8.8435   22.6191 C   0  0  0  0  0  0  0  0  0  0  0  0
  -27.5758  -22.9184   21.2101 C   0  0  0  0  0  0  0  0  0  0  0  0
  -23.4262   -5.4984   22.4095 C   0  0  0  0  0  0  0  0  0  0  0  0
  -24.0128   -4.5702   23.2698 C   0  0  0  0  0  0  0  0  0  0  0  0
  -31.2971  -18.9258   24.0871 C   0  0  0  0  0  0  0  0  0  0  0  0
  -25.3095  -22.9104   22.0365 C   0  0  0  0  0  0  0  0  0  0  0  0
  -22.1706   -4.8339   24.8105 C   0  0  0  0  0  0  0  0  0  0  0  0
  -23.7858  -10.4482   21.0016 C   0  0  0  0  0  0  0  0  0  0  0  0
  -24.0542  -12.9628   20.6663 C   0  0  0  0  0  0  0  0  0  0  0  0
  -28.0662  -23.2057   30.9656 C   0  0  0  0  0  0  0  0  0  0  0  0
  -27.0349  -24.0667   23.2797 C   0  0  0  0  0  0  0  0  0  0  0  0
  -28.3892  -22.9221   29.6248 C   0  0  0  0  0  0  0  0  0  0  0  0
  -25.6922  -23.6874   23.1405 C   0  0  0  0  0  0  0  0  0  0  0  0
  -29.4228  -17.8783   22.9795 C   0  0  0  0  0  0  0  0  0  0  0  0
  -30.2895  -16.9689   22.3731 C   0  0  0  0  0  0  0  0  0  0  0  0
  -22.3371   -8.1407   21.6013 C   0  0  0  0  0  0  0  0  0  0  0  0
  -26.2468  -22.5268   21.0777 C   0  0  0  0  0  0  0  0  0  0  0  0
  -22.2118   -6.0944   22.7498 C   0  0  0  0  0  0  0  0  0  0  0  0
  -23.3850   -4.2380   24.4702 C   0  0  0  0  0  0  0  0  0  0  0  0
  -21.5840   -5.7621   23.9503 C   0  0  0  0  0  0  0  0  0  0  0  0
  -29.9267  -18.8567   23.8366 C   0  0  0  0  0  0  0  0  0  0  0  0
  -24.5345  -11.6397   20.6924 C   0  0  0  0  0  0  0  0  0  0  0  0
  -25.1479  -13.7184   20.3207 C   0  0  0  0  0  0  0  0  0  0  0  0
  -22.7372  -13.4639   20.9309 C   0  0  0  0  0  0  0  0  0  0  0  0
  -26.7007  -23.5245   26.3939 C   0  0  0  0  0  0  0  0  0  0  0  0
  -24.2532  -25.6334   26.1021 C   0  0  0  0  0  0  0  0  0  0  0  0
  -26.3089  -18.3674   20.9337 C   0  0  0  0  0  0  0  0  0  0  0  0
  -21.9365  -27.1222   24.0864 C   0  0  0  0  0  0  0  0  0  0  0  0
  -30.5438  -14.9948   20.8290 C   0  0  0  0  0  0  0  0  0  0  0  0
  -26.6526  -23.0993   31.4806 C   0  0  0  0  0  0  0  0  0  0  0  0
  -27.4690  -24.9200   24.4398 C   0  0  0  0  0  0  0  0  0  0  0  0
  -24.6472  -24.0846   24.1498 C   0  0  0  0  0  0  0  0  0  0  0  0
  -25.5999  -23.1003   30.3751 C   0  0  0  0  0  0  0  0  0  0  0  0
  -29.7092  -12.3274   18.6232 C   0  0  0  0  0  0  0  0  0  0  0  0
  -26.0006  -22.1449   29.2555 C   0  0  0  0  0  0  0  0  0  0  0  0
  -28.2490  -12.0195   18.9627 C   0  0  0  0  0  0  0  0  0  0  0  0
  -30.5132  -12.7041   19.8663 C   0  0  0  0  0  0  0  0  0  0  0  0
  -28.4755  -13.4771   21.0148 C   0  0  0  0  0  0  0  0  0  0  0  0
  -27.3224  -22.5764   28.6087 C   0  0  1  0  0  0  0  0  0  0  0  0
  -26.5351  -24.8146   25.6415 C   0  0  1  0  0  0  0  0  0  0  0  0
  -27.6101  -13.1556   19.7854 C   0  0  2  0  0  0  0  0  0  0  0  0
  -20.0496  -28.7757   24.1412 C   0  0  0  0  0  0  0  0  0  0  0  0
  -22.4571  -23.5369   27.4016 C   0  0  0  0  0  0  0  0  0  0  0  0
  -20.4749  -24.8242   26.5757 C   0  0  0  0  0  0  0  0  0  0  0  0
  -22.0625  -25.8789   28.1851 C   0  0  0  0  0  0  0  0  0  0  0  0
  -23.3075  -28.9254   22.1817 C   0  0  0  0  0  0  0  0  0  0  0  0
  -27.9498  -17.7933   22.7019 C   0  0  0  0  0  0  0  0  0  0  0  0
  -26.2359  -18.9467   19.5322 C   0  0  0  0  0  0  0  0  0  0  0  0
  -24.9296  -19.6894   19.2756 C   0  0  0  0  0  0  0  0  0  0  0  0
  -24.7669  -20.8803   20.2089 C   0  0  0  0  0  0  0  0  0  1  0  0
  -22.7808  -25.5254   25.7869 C   0  0  1  0  0  0  0  0  0  0  0  0
  -21.5397  -28.5770   23.9115 C   0  0  2  0  0  0  0  0  0  0  0  0
  -21.9636  -24.9321   26.9691 C   0  0  0  0  0  0  0  0  0  0  0  0
  -25.8322  -11.5562   20.3874 N   0  0  0  0  0  0  0  0  0  0  0  0
  -26.1766  -12.8363   20.1664 N   0  0  0  0  0  0  0  0  0  0  0  0
  -25.1222  -24.9137   25.2698 N   0  0  0  0  0  0  0  0  0  0  0  0
  -29.8501  -13.7890   20.5928 N   0  0  0  0  0  0  0  0  0  0  0  0
  -25.3203  -15.0446   20.1367 N   0  0  0  0  0  0  0  0  0  0  0  0
  -21.7308  -12.5503   21.2726 N   0  0  0  0  0  0  0  0  0  0  0  0
  -29.8009  -15.9654   21.5001 N   0  0  0  0  0  0  0  0  0  0  0  0
  -27.1045  -23.6860   27.7055 N   0  0  0  0  0  0  0  0  0  0  0  0
  -27.6161  -18.3062   21.3942 N   0  0  0  0  0  0  0  0  0  0  0  0
  -22.3530  -26.8576   25.3739 N   0  0  0  0  0  0  0  0  0  0  0  0
  -21.8691  -29.0418   22.5344 N   0  3  0  0  0  0  0  0  0  0  0  0
  -22.4572  -14.6840   20.8504 O   0  0  0  0  0  0  0  0  0  0  0  0
  -26.4771  -22.4614   25.8269 O   0  0  0  0  0  0  0  0  0  0  0  0
  -24.6194  -26.3362   27.0474 O   0  0  0  0  0  0  0  0  0  0  0  0
  -25.3208  -18.0040   21.5660 O   0  0  0  0  0  0  0  0  0  0  0  0
  -21.8789  -26.3017   23.1732 O   0  0  0  0  0  0  0  0  0  0  0  0
  -31.7018  -15.1643   20.4387 O   0  0  0  0  0  0  0  0  0  0  0  0
  -21.6303   -7.0151   21.8944 O   0  0  0  0  0  0  0  0  0  0  0  0
  -25.8612  -21.7746   20.0112 O   0  0  0  0  0  0  0  0  0  1  0  0
  -23.9477   -3.3455   25.2955 F   0  0  0  0  0  0  0  0  0  0  0  0
  -20.4167   -6.3305   24.2820 F   0  0  0  0  0  0  0  0  0  0  0  0
  -28.8892  -20.0017   24.6077 Cl  0  0  0  0  0  0  0  0  0  0  0  0
  1  2  1  0  0  0  0
  1  6  2  0  0  0  0
  2  7  2  0  0  0  0
  3  9  2  0  0  0  0
  3 15  1  0  0  0  0
  4 10  2  0  0  0  0
  4 18  1  0  0  0  0
  5 11  1  0  0  0  0
  5 18  2  0  0  0  0
  6 20  1  0  0  0  0
  7 22  1  0  0  0  0
  8 12  2  0  0  0  0
  8 21  1  0  0  0  0
  9 25  1  0  0  0  0
 10 26  1  0  0  0  0
 11 26  2  0  0  0  0
 12 27  1  0  0  0  0
 13 14  2  0  0  0  0
 13 28  1  0  0  0  0
 14 29  1  0  0  0  0
 15 31  2  0  0  0  0
 16 23  1  0  0  0  0
 16 27  2  0  0  0  0
 17 29  2  0  0  0  0
 17 30  1  0  0  0  0
 18 32  1  0  0  0  0
 19 32  1  0  0  0  0
 19 33  2  0  0  0  0
 19 34  1  0  0  0  0
 20 22  2  0  0  0  0
 20 40  1  0  0  0  0
 21 23  2  0  0  0  0
 21 41  1  0  0  0  0
 22 49  1  0  0  0  0
 23 42  1  0  0  0  0
 24 25  2  0  0  0  0
 24 31  1  0  0  0  0
 24 57  1  0  0  0  0
 25 70  1  0  0  0  0
 26 81  1  0  0  0  0
 27 82  1  0  0  0  0
 28 30  2  0  0  0  0
 28 81  1  0  0  0  0
 29 83  1  0  0  0  0
 30 84  1  0  0  0  0
 31 85  1  0  0  0  0
 32 64  2  0  0  0  0
 33 65  1  0  0  0  0
 33 68  1  0  0  0  0
 34 69  1  0  0  0  0
 34 75  2  0  0  0  0
 35 50  1  0  0  0  0
 35 71  1  0  0  0  0
 35 76  2  0  0  0  0
 36 61  1  0  0  0  0
 36 66  1  0  0  0  0
 36 77  2  0  0  0  0
 37 58  1  0  0  0  0
 37 72  1  0  0  0  0
 37 78  2  0  0  0  0
 38 62  1  0  0  0  0
 38 73  1  0  0  0  0
 38 79  2  0  0  0  0
 39 67  1  0  0  0  0
 39 70  1  0  0  0  0
 39 80  2  0  0  0  0
 40 43  1  0  0  0  0
 41 50  1  0  0  0  0
 42 66  1  0  0  0  0
 43 45  1  0  0  0  0
 44 46  1  0  0  0  0
 44 47  1  0  0  0  0
 45 49  1  0  0  0  0
 46 51  1  0  0  0  0
 47 67  1  0  0  0  0
 48 51  1  0  0  0  0
 48 67  1  0  0  0  0
 49 71  1  0  0  0  0
 50 66  1  0  0  0  0
 51 65  1  0  0  0  0
 52 62  1  0  0  0  0
 53 63  1  0  0  0  0
 54 63  1  0  0  0  0
 55 63  1  0  0  0  0
 56 74  1  0  0  0  0
 57 72  1  0  0  0  0
 58 59  1  0  0  0  0
 59 60  1  0  0  0  0
 60 82  1  0  0  0  0
 61 63  1  0  0  0  0
 61 73  1  0  0  0  0
 62 74  1  0  0  0  0
 64 65  1  0  0  0  0
M  CHG  1  74   1
M  ISO  4  39 100  60 101  70 100  82 101
M  END
> <Batch ID>
0051

> <Smiles>
CNC(C)C(=O)NC(C(=O)N1Cc2cc([101O:1][101CH2:1]CCC(=O)NCc3c(Cl)cccc3[100NH:0][100C:0](=O)N3CCCC(n4nc(-c5ccc(Oc6ccc(F)cc6F)cc5)c(C(N)=O)c4N)C3)ccc2CC1C(=O)NC1CCCc2ccccc21)C(C)(C)C

> <Shape>
0.209

> <Color>
0.204

> <Negative vol penalty>
0.000

$$$$

  -OEChem-04042322373D

 89 97  0     1  0  0  0  0  0999 V2000
  -27.9268  -24.7530   16.8395 C   0  0  0  0  0  0  0  0  0  0  0  0
  -26.7984  -24.9219   17.6355 C   0  0  0  0  0  0  0  0  0  0  0  0
  -24.5240  -10.3371   23.2487 C   0  0  0  0  0  0  0  0  0  0  0  0
  -23.6169  -11.9373   24.8152 C   0  0  0  0  0  0  0  0  0  0  0  0
  -29.1378  -25.3317   17.2170 C   0  0  0  0  0  0  0  0  0  0  0  0
  -26.8806  -25.6688   18.8101 C   0  0  0  0  0  0  0  0  0  0  0  0
  -22.9959  -28.8720   19.3514 C   0  0  0  0  0  0  0  0  0  0  0  0
  -28.6014  -21.1036   22.7981 C   0  0  0  0  0  0  0  0  0  0  0  0
  -23.9763   -9.2947   23.9964 C   0  0  0  0  0  0  0  0  0  0  0  0
  -23.0691  -10.8949   25.5628 C   0  0  0  0  0  0  0  0  0  0  0  0
  -21.7843  -28.3359   19.7856 C   0  0  0  0  0  0  0  0  0  0  0  0
  -22.5110   -6.2319   25.2954 C   0  0  0  0  0  0  0  0  0  0  0  0
  -28.3489  -22.4736   22.8677 C   0  0  0  0  0  0  0  0  0  0  0  0
  -21.8525   -5.2147   24.6046 C   0  0  0  0  0  0  0  0  0  0  0  0
  -22.2518  -29.1073   22.0230 C   0  0  0  0  0  0  0  0  0  0  0  0
  -20.2893   -6.8292   23.7175 C   0  0  0  0  0  0  0  0  0  0  0  0
  -24.3443  -11.6584   23.6581 C   0  0  0  0  0  0  0  0  0  0  0  0
  -26.1963  -22.1297   21.8259 C   0  0  0  0  0  0  0  0  0  0  0  0
  -24.3025  -13.4312   21.8243 C   0  0  0  0  0  0  0  0  0  0  0  0
  -29.2326  -26.0942   18.3919 C   0  0  0  0  0  0  0  0  0  0  0  0
  -23.8509  -29.5213   20.2534 C   0  0  0  0  0  0  0  0  0  0  0  0
  -28.0943  -26.2572   19.2044 C   0  0  0  0  0  0  0  0  0  0  0  0
  -23.4725  -29.6530   21.5971 C   0  0  0  0  0  0  0  0  0  0  0  0
  -26.4489  -20.7597   21.7562 C   0  0  0  0  0  0  0  0  0  0  0  0
  -27.6515  -20.2466   22.2423 C   0  0  0  0  0  0  0  0  0  0  0  0
  -23.2488   -9.5736   25.1534 C   0  0  0  0  0  0  0  0  0  0  0  0
  -21.4134  -28.4510   21.1222 C   0  0  0  0  0  0  0  0  0  0  0  0
  -22.0587   -7.5478   25.1973 C   0  0  0  0  0  0  0  0  0  0  0  0
  -20.7416   -5.5133   23.8156 C   0  0  0  0  0  0  0  0  0  0  0  0
  -27.1463  -22.9867   22.3816 C   0  0  0  0  0  0  0  0  0  0  0  0
  -20.9478   -7.8464   24.4083 C   0  0  0  0  0  0  0  0  0  0  0  0
  -24.9103  -12.7356   22.8866 C   0  0  0  0  0  0  0  0  0  0  0  0
  -25.2446  -14.3505   21.4321 C   0  0  0  0  0  0  0  0  0  0  0  0
  -24.0593  -23.4318   22.2820 C   0  0  0  0  0  0  0  0  0  0  0  0
  -22.9141  -23.9792   21.8551 C   0  0  0  0  0  0  0  0  0  0  0  0
  -24.9266  -22.7019   21.3164 C   0  0  0  0  0  0  0  0  0  0  0  0
  -23.0024  -13.2616   21.2440 C   0  0  0  0  0  0  0  0  0  0  0  0
  -22.0464  -24.7194   22.8135 C   0  0  0  0  0  0  0  0  0  0  0  0
  -26.8092  -29.0153   21.3006 C   0  0  0  0  0  0  0  0  0  0  0  0
  -26.3585  -31.8696   22.7745 C   0  0  0  0  0  0  0  0  0  0  0  0
  -24.1711  -34.1648   24.0371 C   0  0  0  0  0  0  0  0  0  0  0  0
  -29.0795  -18.2070   22.6254 C   0  0  0  0  0  0  0  0  0  0  0  0
  -30.5744  -26.6608   18.7833 C   0  0  0  0  0  0  0  0  0  0  0  0
  -25.1421  -30.1176   19.7638 C   0  0  0  0  0  0  0  0  0  0  0  0
  -24.3454  -30.3586   22.6014 C   0  0  0  0  0  0  0  0  0  0  0  0
  -30.4881  -27.7502   19.8491 C   0  0  0  0  0  0  0  0  0  0  0  0
  -30.1268  -14.8046   22.6889 C   0  0  0  0  0  0  0  0  0  0  0  0
  -29.5647  -27.3159   20.9829 C   0  0  0  0  0  0  0  0  0  0  0  0
  -28.8130  -14.0202   22.6586 C   0  0  0  0  0  0  0  0  0  0  0  0
  -30.0061  -16.0814   23.5189 C   0  0  0  0  0  0  0  0  0  0  0  0
  -27.5777  -16.1771   23.1152 C   0  0  0  0  0  0  0  0  0  0  0  0
  -28.1377  -27.0811   20.4730 C   0  0  1  0  0  0  0  0  0  0  0  0
  -26.1715  -30.3071   20.8736 C   0  0  1  0  0  0  0  0  0  0  0  0
  -27.6315  -14.9160   22.2376 C   0  0  2  0  0  0  0  0  0  0  0  0
  -25.4282  -19.8412   21.1595 C   0  0  0  0  0  0  0  0  0  0  0  0
  -24.1016  -36.3804   25.2134 C   0  0  0  0  0  0  0  0  0  0  0  0
  -19.1234  -28.2797   23.6614 C   0  0  0  0  0  0  0  0  0  0  0  0
  -27.1564  -30.5059   25.3848 C   0  0  0  0  0  0  0  0  0  0  0  0
  -26.1701  -32.4478   26.6196 C   0  0  0  0  0  0  0  0  0  0  0  0
  -28.0982  -32.8022   25.0771 C   0  0  0  0  0  0  0  0  0  0  0  0
  -22.6844  -35.4301   21.8127 C   0  0  0  0  0  0  0  0  0  0  0  0
  -19.9048  -25.9740   22.9117 C   0  0  0  0  0  0  0  0  0  0  0  0
  -25.8141  -32.3076   24.1127 C   0  0  1  0  0  0  0  0  0  0  0  0
  -24.0826  -35.6709   23.8684 C   0  0  2  0  0  0  0  0  0  0  0  0
  -20.1715  -27.4774   22.9014 C   0  0  1  0  0  0  0  0  0  1  0  0
  -26.7939  -32.0008   25.2803 C   0  0  0  0  0  0  0  0  0  0  0  0
  -26.1433  -13.1752   23.1522 N   0  0  0  0  0  0  0  0  0  0  0  0
  -26.3178  -14.1569   22.2511 N   0  0  0  0  0  0  0  0  0  0  0  0
  -25.6010  -30.9193   22.0753 N   0  0  0  0  0  0  0  0  0  0  0  0
  -28.8683  -16.8815   23.0606 N   0  0  0  0  0  0  0  0  0  0  0  0
  -25.2514  -15.2973   20.4699 N   0  0  0  0  0  0  0  0  0  0  0  0
  -22.1610  -12.2707   21.7678 N   0  0  0  0  0  0  0  0  0  0  0  0
  -27.9291  -18.8585   22.1819 N   0  0  0  0  0  0  0  0  0  0  0  0
  -20.9039  -25.2187   22.2035 N   0  0  0  0  0  0  0  0  0  0  0  0
  -27.4556  -28.3431   20.2810 N   0  0  0  0  0  0  0  0  0  0  0  0
  -25.4745  -33.7195   23.9729 N   0  0  0  0  0  0  0  0  0  0  0  0
  -22.8242  -36.0397   23.1602 N   0  3  0  0  0  0  0  0  0  0  0  0
  -24.6402  -22.5853   20.1299 O   0  0  0  0  0  0  0  0  0  0  0  0
  -22.6051  -13.9569   20.2784 O   0  0  0  0  0  0  0  0  0  0  0  0
  -22.3371  -24.8563   23.9974 O   0  0  0  0  0  0  0  0  0  0  0  0
  -26.7224  -28.6559   22.4689 O   0  0  0  0  0  0  0  0  0  0  0  0
  -27.4132  -32.3581   22.3615 O   0  0  0  0  0  0  0  0  0  0  0  0
  -23.1833  -33.4549   24.2122 O   0  0  0  0  0  0  0  0  0  0  0  0
  -30.2029  -18.7167   22.6191 O   0  0  0  0  0  0  0  0  0  0  0  0
  -22.7140   -8.5567   25.8831 O   0  0  0  0  0  0  0  0  0  0  0  0
  -20.2317  -27.9281   21.5488 O   0  0  0  0  0  0  0  0  0  1  0  0
  -20.1103   -4.5366   23.1511 F   0  0  0  0  0  0  0  0  0  0  0  0
  -26.9160  -24.3055   22.4544 F   0  0  0  0  0  0  0  0  0  0  0  0
  -20.5093   -9.1088   24.3092 F   0  0  0  0  0  0  0  0  0  0  0  0
  1  2  1  0  0  0  0
  1  5  2  0  0  0  0
  2  6  2  0  0  0  0
  3  9  2  0  0  0  0
  3 17  1  0  0  0  0
  4 10  1  0  0  0  0
  4 17  2  0  0  0  0
  5 20  1  0  0  0  0
  6 22  1  0  0  0  0
  7 11  2  0  0  0  0
  7 21  1  0  0  0  0
  8 13  1  0  0  0  0
  8 25  2  0  0  0  0
  9 26  1  0  0  0  0
 10 26  2  0  0  0  0
 11 27  1  0  0  0  0
 12 14  2  0  0  0  0
 12 28  1  0  0  0  0
 13 30  2  0  0  0  0
 14 29  1  0  0  0  0
 15 23  1  0  0  0  0
 15 27  2  0  0  0  0
 16 29  2  0  0  0  0
 16 31  1  0  0  0  0
 17 32  1  0  0  0  0
 18 24  2  0  0  0  0
 18 30  1  0  0  0  0
 18 36  1  0  0  0  0
 19 32  1  0  0  0  0
 19 33  2  0  0  0  0
 19 37  1  0  0  0  0
 20 22  2  0  0  0  0
 20 43  1  0  0  0  0
 21 23  2  0  0  0  0
 21 44  1  0  0  0  0
 22 52  1  0  0  0  0
 23 45  1  0  0  0  0
 24 25  1  0  0  0  0
 24 55  1  0  0  0  0
 25 73  1  0  0  0  0
 26 85  1  0  0  0  0
 27 86  1  0  0  0  0
 28 31  2  0  0  0  0
 28 85  1  0  0  0  0
 29 87  1  0  0  0  0
 30 88  1  0  0  0  0
 31 89  1  0  0  0  0
 32 67  2  0  0  0  0
 33 68  1  0  0  0  0
 33 71  1  0  0  0  0
 34 35  2  0  0  0  0
 34 36  1  0  0  0  0
 35 38  1  0  0  0  0
 36 78  2  0  0  0  0
 37 72  1  0  0  0  0
 37 79  2  0  0  0  0
 38 74  1  0  0  0  0
 38 80  2  0  0  0  0
 39 53  1  0  0  0  0
 39 75  1  0  0  0  0
 39 81  2  0  0  0  0
 40 63  1  0  0  0  0
 40 69  1  0  0  0  0
 40 82  2  0  0  0  0
 41 64  1  0  0  0  0
 41 76  1  0  0  0  0
 41 83  2  0  0  0  0
 42 70  1  0  0  0  0
 42 73  1  0  0  0  0
 42 84  2  0  0  0  0
 43 46  1  0  0  0  0
 44 53  1  0  0  0  0
 45 69  1  0  0  0  0
 46 48  1  0  0  0  0
 47 49  1  0  0  0  0
 47 50  1  0  0  0  0
 48 52  1  0  0  0  0
 49 54  1  0  0  0  0
 50 70  1  0  0  0  0
 51 54  1  0  0  0  0
 51 70  1  0  0  0  0
 52 75  1  0  0  0  0
 53 69  1  0  0  0  0
 54 68  1  0  0  0  0
 56 64  1  0  0  0  0
 57 65  1  0  0  0  0
 58 66  1  0  0  0  0
 59 66  1  0  0  0  0
 60 66  1  0  0  0  0
 61 77  1  0  0  0  0
 62 65  1  0  0  0  0
 62 74  1  0  0  0  0
 63 66  1  0  0  0  0
 63 76  1  0  0  0  0
 64 77  1  0  0  0  0
 65 86  1  0  0  0  0
 67 68  1  0  0  0  0
M  CHG  1  77   1
M  ISO  4  42 100  65 101  73 100  86 101
M  END
> <Batch ID>
0051

> <Smiles>
CNC(C)C(=O)NC(C(=O)N1Cc2cc([101O:1][101CH:1](C)CNC(=O)C=CC(=O)c3c(F)ccc([100NH:0][100C:0](=O)N4CCCC(n5nc(-c6ccc(Oc7ccc(F)cc7F)cc6)c(C(N)=O)c5N)C4)c3C)ccc2CC1C(=O)NC1CCCc2ccccc21)C(C)(C)C

> <Shape>
0.290

> <Color>
0.116

> <Negative vol penalty>
0.000

$$$$

  -OEChem-04042322373D

 88 96  0     1  0  0  0  0  0999 V2000
  -29.1074  -37.0073   23.9540 C   0  0  0  0  0  0  0  0  0  0  0  0
  -29.1415  -35.7676   23.3236 C   0  0  0  0  0  0  0  0  0  0  0  0
  -32.6080  -18.5632   18.8171 C   0  0  0  0  0  0  0  0  0  0  0  0
  -23.3684  -10.6398   22.5466 C   0  0  0  0  0  0  0  0  0  0  0  0
  -24.3089  -12.2192   24.1146 C   0  0  0  0  0  0  0  0  0  0  0  0
  -31.8287  -19.7194   18.8555 C   0  0  0  0  0  0  0  0  0  0  0  0
  -28.2174  -37.2300   25.0039 C   0  0  0  0  0  0  0  0  0  0  0  0
  -28.2862  -34.7495   23.7434 C   0  0  0  0  0  0  0  0  0  0  0  0
  -25.6501  -30.4760   20.2372 C   0  0  0  0  0  0  0  0  0  0  0  0
  -31.9969  -17.3094   18.8314 C   0  0  0  0  0  0  0  0  0  0  0  0
  -22.7377   -9.9728   23.5968 C   0  0  0  0  0  0  0  0  0  0  0  0
  -23.6781  -11.5521   25.1647 C   0  0  0  0  0  0  0  0  0  0  0  0
  -25.9796  -29.1480   19.9697 C   0  0  0  0  0  0  0  0  0  0  0  0
  -23.5840   -7.7593   26.0069 C   0  0  0  0  0  0  0  0  0  0  0  0
  -23.6531   -6.3663   26.0234 C   0  0  0  0  0  0  0  0  0  0  0  0
  -24.4443  -28.4278   21.6854 C   0  0  0  0  0  0  0  0  0  0  0  0
  -21.2423   -6.2454   25.9219 C   0  0  0  0  0  0  0  0  0  0  0  0
  -24.1541  -11.7630   22.8055 C   0  0  0  0  0  0  0  0  0  0  0  0
  -30.4383  -19.6218   18.9082 C   0  0  0  0  0  0  0  0  0  0  0  0
  -24.2908  -13.5169   20.9582 C   0  0  0  0  0  0  0  0  0  0  0  0
  -27.3441  -36.2171   25.4304 C   0  0  0  0  0  0  0  0  0  0  0  0
  -24.7217  -30.7909   21.2399 C   0  0  0  0  0  0  0  0  0  0  0  0
  -27.3846  -34.9584   24.8009 C   0  0  0  0  0  0  0  0  0  0  0  0
  -24.1028  -29.7604   21.9619 C   0  0  0  0  0  0  0  0  0  0  0  0
  -29.8271  -18.3680   18.9226 C   0  0  0  0  0  0  0  0  0  0  0  0
  -30.6065  -17.2118   18.8841 C   0  0  0  0  0  0  0  0  0  0  0  0
  -22.8925  -10.4290   24.9058 C   0  0  0  0  0  0  0  0  0  0  0  0
  -25.3789  -28.1237   20.6958 C   0  0  0  0  0  0  0  0  0  0  0  0
  -22.3439   -8.3954   25.9479 C   0  0  0  0  0  0  0  0  0  0  0  0
  -22.4823   -5.6093   25.9809 C   0  0  0  0  0  0  0  0  0  0  0  0
  -21.1731   -7.6384   25.9054 C   0  0  0  0  0  0  0  0  0  0  0  0
  -24.8064  -12.4521   21.7212 C   0  0  0  0  0  0  0  0  0  0  0  0
  -25.2894  -13.8127   20.0627 C   0  0  0  0  0  0  0  0  0  0  0  0
  -29.6464  -20.8639   18.9478 C   0  0  0  0  0  0  0  0  0  0  0  0
  -29.7230  -21.7851   19.9190 C   0  0  0  0  0  0  0  0  0  0  0  0
  -23.0227  -14.1796   21.0507 C   0  0  0  0  0  0  0  0  0  0  0  0
  -28.8656  -22.9973   19.8547 C   0  0  0  0  0  0  0  0  0  0  0  0
  -24.8314  -32.4211   23.9664 C   0  0  0  0  0  0  0  0  0  0  0  0
  -21.6318  -31.8872   23.9618 C   0  0  0  0  0  0  0  0  0  0  0  0
  -19.0160  -29.9704   22.8987 C   0  0  0  0  0  0  0  0  0  0  0  0
  -30.6557  -14.6931   18.8665 C   0  0  0  0  0  0  0  0  0  0  0  0
  -26.4325  -36.4898   26.6007 C   0  0  0  0  0  0  0  0  0  0  0  0
  -24.3572  -32.2272   21.4980 C   0  0  0  0  0  0  0  0  0  0  0  0
  -23.0848  -30.0446   23.0349 C   0  0  0  0  0  0  0  0  0  0  0  0
  -25.2984  -35.4774   26.7382 C   0  0  0  0  0  0  0  0  0  0  0  0
  -29.5410  -11.3121   18.9258 C   0  0  0  0  0  0  0  0  0  0  0  0
  -25.8318  -34.0555   26.5951 C   0  0  0  0  0  0  0  0  0  0  0  0
  -28.1675  -11.3949   19.5955 C   0  0  0  0  0  0  0  0  0  0  0  0
  -30.5303  -12.3034   19.5361 C   0  0  0  0  0  0  0  0  0  0  0  0
  -28.6917  -13.7783   20.2527 C   0  0  0  0  0  0  0  0  0  0  0  0
  -26.4553  -33.8368   25.2113 C   0  0  1  0  0  0  0  0  0  0  0  0
  -23.7816  -32.4563   22.8921 C   0  0  1  0  0  0  0  0  0  0  0  0
  -27.6428  -12.8438   19.6281 C   0  0  2  0  0  0  0  0  0  0  0  0
  -28.3340  -18.2554   18.9792 C   0  0  0  0  0  0  0  0  0  0  0  0
  -16.5228  -29.7593   23.0903 C   0  0  0  0  0  0  0  0  0  0  0  0
  -21.9480  -30.7250   26.7652 C   0  0  0  0  0  0  0  0  0  0  0  0
  -19.6807  -29.6926   26.5174 C   0  0  0  0  0  0  0  0  0  0  0  0
  -19.9328  -32.1736   26.4577 C   0  0  0  0  0  0  0  0  0  0  0  0
  -18.6441  -30.3463   19.9868 C   0  0  0  0  0  0  0  0  0  0  0  0
  -25.6212  -25.9087   21.5270 C   0  0  0  0  0  0  0  0  0  1  0  0
  -26.5994  -24.7736   21.3009 C   0  0  0  0  0  0  0  0  0  0  0  0
  -20.7287  -30.7992   24.4906 C   0  0  1  0  0  0  0  0  0  0  0  0
  -17.6764  -30.3429   22.2895 C   0  0  2  0  0  0  0  0  0  0  0  0
  -20.5931  -30.8420   26.0389 C   0  0  0  0  0  0  0  0  0  0  0  0
  -26.0368  -12.0954   21.3433 N   0  0  0  0  0  0  0  0  0  0  0  0
  -26.3027  -12.9407   20.3330 N   0  0  0  0  0  0  0  0  0  0  0  0
  -22.7664  -31.4651   23.2544 N   0  0  0  0  0  0  0  0  0  0  0  0
  -29.9670  -13.6552   19.5293 N   0  0  0  0  0  0  0  0  0  0  0  0
  -25.3907  -14.7308   19.0782 N   0  0  0  0  0  0  0  0  0  0  0  0
  -22.1140  -13.7499   22.0274 N   0  0  0  0  0  0  0  0  0  0  0  0
  -30.0078  -15.9276   18.8991 N   0  0  0  0  0  0  0  0  0  0  0  0
  -29.0791  -23.8675   20.9701 N   0  0  0  0  0  0  0  0  0  0  0  0
  -25.4222  -33.6451   24.2161 N   0  0  0  0  0  0  0  0  0  0  0  0
  -19.4641  -30.9352   23.7760 N   0  0  0  0  0  0  0  0  0  0  0  0
  -17.5834  -29.8338   20.8920 N   0  3  0  0  0  0  0  0  0  0  0  0
  -22.6984  -15.1138   20.2790 O   0  0  0  0  0  0  0  0  0  0  0  0
  -28.0747  -23.2207   18.9482 O   0  0  0  0  0  0  0  0  0  0  0  0
  -25.0855  -31.3622   24.5284 O   0  0  0  0  0  0  0  0  0  0  0  0
  -21.3375  -33.0681   24.1626 O   0  0  0  0  0  0  0  0  0  0  0  0
  -19.6041  -28.9260   22.6267 O   0  0  0  0  0  0  0  0  0  0  0  0
  -31.7269  -14.4949   18.2876 O   0  0  0  0  0  0  0  0  0  0  0  0
  -28.4022  -26.1622   20.0258 O   0  0  0  0  0  0  0  0  0  0  0  0
  -28.6213  -25.8933   22.5252 O   0  0  0  0  0  0  0  0  0  0  0  0
  -22.2770   -9.7785   25.9308 O   0  0  0  0  0  0  0  0  0  0  0  0
  -25.6992  -26.8267   20.4372 O   0  0  0  0  0  0  0  0  0  1  0  0
  -22.5490   -4.2716   25.9952 F   0  0  0  0  0  0  0  0  0  0  0  0
  -19.9790   -8.2438   25.8475 F   0  0  0  0  0  0  0  0  0  0  0  0
  -28.2667  -25.3524   21.2245 S   0  0  0  0  0  0  0  0  0  0  0  0
  1  2  1  0  0  0  0
  1  7  2  0  0  0  0
  2  8  2  0  0  0  0
  3  6  2  0  0  0  0
  3 10  1  0  0  0  0
  4 11  2  0  0  0  0
  4 18  1  0  0  0  0
  5 12  1  0  0  0  0
  5 18  2  0  0  0  0
  6 19  1  0  0  0  0
  7 21  1  0  0  0  0
  8 23  1  0  0  0  0
  9 13  2  0  0  0  0
  9 22  1  0  0  0  0
 10 26  2  0  0  0  0
 11 27  1  0  0  0  0
 12 27  2  0  0  0  0
 13 28  1  0  0  0  0
 14 15  2  0  0  0  0
 14 29  1  0  0  0  0
 15 30  1  0  0  0  0
 16 24  1  0  0  0  0
 16 28  2  0  0  0  0
 17 30  2  0  0  0  0
 17 31  1  0  0  0  0
 18 32  1  0  0  0  0
 19 25  2  0  0  0  0
 19 34  1  0  0  0  0
 20 32  1  0  0  0  0
 20 33  2  0  0  0  0
 20 36  1  0  0  0  0
 21 23  2  0  0  0  0
 21 42  1  0  0  0  0
 22 24  2  0  0  0  0
 22 43  1  0  0  0  0
 23 51  1  0  0  0  0
 24 44  1  0  0  0  0
 25 26  1  0  0  0  0
 25 54  1  0  0  0  0
 26 71  1  0  0  0  0
 27 84  1  0  0  0  0
 28 85  1  0  0  0  0
 29 31  2  0  0  0  0
 29 84  1  0  0  0  0
 30 86  1  0  0  0  0
 31 87  1  0  0  0  0
 32 65  2  0  0  0  0
 33 66  1  0  0  0  0
 33 69  1  0  0  0  0
 34 35  2  0  0  0  0
 35 37  1  0  0  0  0
 36 70  1  0  0  0  0
 36 76  2  0  0  0  0
 37 72  1  0  0  0  0
 37 77  2  0  0  0  0
 38 52  1  0  0  0  0
 38 73  1  0  0  0  0
 38 78  2  0  0  0  0
 39 62  1  0  0  0  0
 39 67  1  0  0  0  0
 39 79  2  0  0  0  0
 40 63  1  0  0  0  0
 40 74  1  0  0  0  0
 40 80  2  0  0  0  0
 41 68  1  0  0  0  0
 41 71  1  0  0  0  0
 41 81  2  0  0  0  0
 42 45  1  0  0  0  0
 43 52  1  0  0  0  0
 44 67  1  0  0  0  0
 45 47  1  0  0  0  0
 46 48  1  0  0  0  0
 46 49  1  0  0  0  0
 47 51  1  0  0  0  0
 48 53  1  0  0  0  0
 49 68  1  0  0  0  0
 50 53  1  0  0  0  0
 50 68  1  0  0  0  0
 51 73  1  0  0  0  0
 52 67  1  0  0  0  0
 53 66  1  0  0  0  0
 55 63  1  0  0  0  0
 56 64  1  0  0  0  0
 57 64  1  0  0  0  0
 58 64  1  0  0  0  0
 59 75  1  0  0  0  0
 60 61  1  0  0  0  0
 60 85  1  0  0  0  0
 61 88  1  0  0  0  0
 62 64  1  0  0  0  0
 62 74  1  0  0  0  0
 63 75  1  0  0  0  0
 65 66  1  0  0  0  0
 72 88  1  0  0  0  0
 82 88  2  0  0  0  0
 83 88  2  0  0  0  0
M  CHG  1  75   1
M  ISO  4  41 100  60 101  71 100  85 101
M  END
> <Batch ID>
0051

> <Smiles>
CNC(C)C(=O)NC(C(=O)N1Cc2cc([101O:1][101CH2:1]CS(=O)(=O)NC(=O)C=Cc3cccc([100NH:0][100C:0](=O)N4CCCC(n5nc(-c6ccc(Oc7ccc(F)cc7F)cc6)c(C(N)=O)c5N)C4)c3C)ccc2CC1C(=O)NC1CCCc2ccccc21)C(C)(C)C

> <Shape>
0.280

> <Color>
0.122

> <Negative vol penalty>
0.000

$$$$

  -OEChem-04042322373D

 83 91  0     1  0  0  0  0  0999 V2000
  -28.5776  -33.0772   21.6276 C   0  0  0  0  0  0  0  0  0  0  0  0
  -28.2964  -31.7767   21.2215 C   0  0  0  0  0  0  0  0  0  0  0  0
  -26.6769  -12.5033   21.7936 C   0  0  0  0  0  0  0  0  0  0  0  0
  -25.9733  -14.0099   20.0408 C   0  0  0  0  0  0  0  0  0  0  0  0
  -27.8263  -33.6670   22.6433 C   0  0  0  0  0  0  0  0  0  0  0  0
  -27.2642  -31.0648   21.8317 C   0  0  0  0  0  0  0  0  0  0  0  0
  -24.3489  -28.6212   18.4888 C   0  0  0  0  0  0  0  0  0  0  0  0
  -31.2929  -22.1582   20.6172 C   0  0  0  0  0  0  0  0  0  0  0  0
  -25.4003  -11.9420   21.8235 C   0  0  0  0  0  0  0  0  0  0  0  0
  -24.6968  -13.4486   20.0707 C   0  0  0  0  0  0  0  0  0  0  0  0
  -24.8470  -27.4314   17.9596 C   0  0  0  0  0  0  0  0  0  0  0  0
  -22.4285   -9.8681   22.1107 C   0  0  0  0  0  0  0  0  0  0  0  0
  -31.6597  -23.0981   19.6541 C   0  0  0  0  0  0  0  0  0  0  0  0
  -22.3326   -8.4774   22.1590 C   0  0  0  0  0  0  0  0  0  0  0  0
  -23.4830  -26.1796   19.5061 C   0  0  0  0  0  0  0  0  0  0  0  0
  -29.4369  -21.4653   19.2345 C   0  0  0  0  0  0  0  0  0  0  0  0
  -23.5186   -8.3227   20.0599 C   0  0  0  0  0  0  0  0  0  0  0  0
  -26.9634  -13.5373   20.9023 C   0  0  0  0  0  0  0  0  0  0  0  0
  -29.3726  -13.7086   20.0812 C   0  0  0  0  0  0  0  0  0  0  0  0
  -26.7782  -32.9654   23.2596 C   0  0  0  0  0  0  0  0  0  0  0  0
  -23.4207  -28.5992   19.5398 C   0  0  0  0  0  0  0  0  0  0  0  0
  -26.4991  -31.6453   22.8575 C   0  0  0  0  0  0  0  0  0  0  0  0
  -22.9727  -27.3704   20.0452 C   0  0  0  0  0  0  0  0  0  0  0  0
  -29.8036  -22.4053   18.2713 C   0  0  0  0  0  0  0  0  0  0  0  0
  -30.1816  -21.3417   20.4074 C   0  0  0  0  0  0  0  0  0  0  0  0
  -24.4103  -12.4146   20.9621 C   0  0  0  0  0  0  0  0  0  0  0  0
  -24.4162  -26.2104   18.4702 C   0  0  0  0  0  0  0  0  0  0  0  0
  -23.0694  -10.4862   21.0370 C   0  0  0  0  0  0  0  0  0  0  0  0
  -22.8776   -7.7047   21.1336 C   0  0  0  0  0  0  0  0  0  0  0  0
  -30.9150  -23.2217   18.4811 C   0  0  0  0  0  0  0  0  0  0  0  0
  -23.6145   -9.7134   20.0116 C   0  0  0  0  0  0  0  0  0  0  0  0
  -28.2817  -14.1180   20.8713 C   0  0  0  0  0  0  0  0  0  0  0  0
  -30.3844  -14.5742   20.4179 C   0  0  0  0  0  0  0  0  0  0  0  0
  -29.4631  -12.6413   19.1281 C   0  0  0  0  0  0  0  0  0  0  0  0
  -23.3995  -29.6597   22.5362 C   0  0  0  0  0  0  0  0  0  0  0  0
  -20.3042  -28.6940   22.4442 C   0  0  0  0  0  0  0  0  0  0  0  0
  -26.8774  -23.7127   17.5470 C   0  0  0  0  0  0  0  0  0  0  0  0
  -17.9393  -26.6766   21.0356 C   0  0  0  0  0  0  0  0  0  0  0  0
  -30.4410  -20.1352   22.6036 C   0  0  0  0  0  0  0  0  0  0  0  0
  -26.0246  -33.6279   24.3856 C   0  0  0  0  0  0  0  0  0  0  0  0
  -22.8729  -29.8910   20.0816 C   0  0  0  0  0  0  0  0  0  0  0  0
  -21.9623  -27.2922   21.1594 C   0  0  0  0  0  0  0  0  0  0  0  0
  -24.7048  -32.9391   24.7233 C   0  0  0  0  0  0  0  0  0  0  0  0
  -31.9586  -17.2606   24.0565 C   0  0  0  0  0  0  0  0  0  0  0  0
  -24.8993  -31.4291   24.8170 C   0  0  0  0  0  0  0  0  0  0  0  0
  -31.2916  -16.0914   23.3284 C   0  0  0  0  0  0  0  0  0  0  0  0
  -30.9794  -18.4064   24.3056 C   0  0  0  0  0  0  0  0  0  0  0  0
  -29.5993  -17.7145   22.3858 C   0  0  0  0  0  0  0  0  0  0  0  0
  -25.3713  -30.8495   23.4781 C   0  0  1  0  0  0  0  0  0  0  0  0
  -22.3190  -29.7582   21.4969 C   0  0  1  0  0  0  0  0  0  0  0  0
  -30.5624  -16.5628   22.0549 C   0  0  2  0  0  0  0  0  0  0  0  0
  -15.5059  -26.0846   21.1961 C   0  0  0  0  0  0  0  0  0  0  0  0
  -20.8703  -27.0586   24.9572 C   0  0  0  0  0  0  0  0  0  0  0  0
  -18.7576  -25.7877   24.5219 C   0  0  0  0  0  0  0  0  0  0  0  0
  -18.6673  -28.2423   24.9572 C   0  0  0  0  0  0  0  0  0  0  0  0
  -17.4214  -27.5625   18.2597 C   0  0  0  0  0  0  0  0  0  0  0  0
  -29.0013  -22.5358   17.0089 C   0  0  0  0  0  0  0  0  0  0  0  0
  -26.2265  -25.0741   17.4271 C   0  0  0  0  0  0  0  0  0  1  0  0
  -19.5761  -27.4075   22.7506 C   0  0  1  0  0  0  0  0  0  0  0  0
  -16.5416  -26.9703   20.5211 C   0  0  2  0  0  0  0  0  0  0  0  0
  -19.4883  -27.1252   24.2770 C   0  0  0  0  0  0  0  0  0  0  0  0
  -28.5732  -15.1623   21.6513 N   0  0  0  0  0  0  0  0  0  0  0  0
  -29.8587  -15.4164   21.3530 N   0  0  0  0  0  0  0  0  0  0  0  0
  -21.4611  -28.5828   21.6600 N   0  0  0  0  0  0  0  0  0  0  0  0
  -30.3298  -18.8028   23.0543 N   0  0  0  0  0  0  0  0  0  0  0  0
  -31.6637  -14.6893   20.0025 N   0  0  0  0  0  0  0  0  0  0  0  0
  -28.3294  -11.8486   18.9029 N   0  0  0  0  0  0  0  0  0  0  0  0
  -29.8099  -20.3865   21.3857 N   0  0  0  0  0  0  0  0  0  0  0  0
  -24.2616  -30.7394   22.5557 N   0  0  0  0  0  0  0  0  0  0  0  0
  -28.1602  -23.7102   17.0219 N   0  0  0  0  0  0  0  0  0  0  0  0
  -18.2813  -27.5029   22.0851 N   0  0  0  0  0  0  0  0  0  0  0  0
  -16.4716  -26.7383   19.0506 N   0  3  0  0  0  0  0  0  0  0  0  0
  -30.5230  -12.3874   18.5070 O   0  0  0  0  0  0  0  0  0  0  0  0
  -23.4467  -28.6775   23.2675 O   0  0  0  0  0  0  0  0  0  0  0  0
  -19.8587  -29.7591   22.8786 O   0  0  0  0  0  0  0  0  0  0  0  0
  -26.3107  -22.7475   18.0520 O   0  0  0  0  0  0  0  0  0  0  0  0
  -18.6546  -25.7992   20.5569 O   0  0  0  0  0  0  0  0  0  0  0  0
  -31.0742  -20.9837   23.2368 O   0  0  0  0  0  0  0  0  0  0  0  0
  -23.1646  -11.8669   20.9908 O   0  0  0  0  0  0  0  0  0  0  0  0
  -24.9013  -25.0476   17.9559 O   0  0  0  0  0  0  0  0  0  1  0  0
  -22.7868   -6.3692   21.1809 F   0  0  0  0  0  0  0  0  0  0  0  0
  -31.2745  -24.1286   17.5620 F   0  0  0  0  0  0  0  0  0  0  0  0
  -24.2325  -10.3014   18.9780 F   0  0  0  0  0  0  0  0  0  0  0  0
  1  2  1  0  0  0  0
  1  5  2  0  0  0  0
  2  6  2  0  0  0  0
  3  9  2  0  0  0  0
  3 18  1  0  0  0  0
  4 10  1  0  0  0  0
  4 18  2  0  0  0  0
  5 20  1  0  0  0  0
  6 22  1  0  0  0  0
  7 11  2  0  0  0  0
  7 21  1  0  0  0  0
  8 13  2  0  0  0  0
  8 25  1  0  0  0  0
  9 26  1  0  0  0  0
 10 26  2  0  0  0  0
 11 27  1  0  0  0  0
 12 14  2  0  0  0  0
 12 28  1  0  0  0  0
 13 30  1  0  0  0  0
 14 29  1  0  0  0  0
 15 23  1  0  0  0  0
 15 27  2  0  0  0  0
 16 24  1  0  0  0  0
 16 25  2  0  0  0  0
 17 29  2  0  0  0  0
 17 31  1  0  0  0  0
 18 32  1  0  0  0  0
 19 32  1  0  0  0  0
 19 33  2  0  0  0  0
 19 34  1  0  0  0  0
 20 22  2  0  0  0  0
 20 40  1  0  0  0  0
 21 23  2  0  0  0  0
 21 41  1  0  0  0  0
 22 49  1  0  0  0  0
 23 42  1  0  0  0  0
 24 30  2  0  0  0  0
 24 57  1  0  0  0  0
 25 68  1  0  0  0  0
 26 79  1  0  0  0  0
 27 80  1  0  0  0  0
 28 31  2  0  0  0  0
 28 79  1  0  0  0  0
 29 81  1  0  0  0  0
 30 82  1  0  0  0  0
 31 83  1  0  0  0  0
 32 62  2  0  0  0  0
 33 63  1  0  0  0  0
 33 66  1  0  0  0  0
 34 67  1  0  0  0  0
 34 73  2  0  0  0  0
 35 50  1  0  0  0  0
 35 69  1  0  0  0  0
 35 74  2  0  0  0  0
 36 59  1  0  0  0  0
 36 64  1  0  0  0  0
 36 75  2  0  0  0  0
 37 58  1  0  0  0  0
 37 70  1  0  0  0  0
 37 76  2  0  0  0  0
 38 60  1  0  0  0  0
 38 71  1  0  0  0  0
 38 77  2  0  0  0  0
 39 65  1  0  0  0  0
 39 68  1  0  0  0  0
 39 78  2  0  0  0  0
 40 43  1  0  0  0  0
 41 50  1  0  0  0  0
 42 64  1  0  0  0  0
 43 45  1  0  0  0  0
 44 46  1  0  0  0  0
 44 47  1  0  0  0  0
 45 49  1  0  0  0  0
 46 51  1  0  0  0  0
 47 65  1  0  0  0  0
 48 51  1  0  0  0  0
 48 65  1  0  0  0  0
 49 69  1  0  0  0  0
 50 64  1  0  0  0  0
 51 63  1  0  0  0  0
 52 60  1  0  0  0  0
 53 61  1  0  0  0  0
 54 61  1  0  0  0  0
 55 61  1  0  0  0  0
 56 72  1  0  0  0  0
 57 70  1  0  0  0  0
 58 80  1  0  0  0  0
 59 61  1  0  0  0  0
 59 71  1  0  0  0  0
 60 72  1  0  0  0  0
 62 63  1  0  0  0  0
M  CHG  1  72   1
M  ISO  4  39 100  58 101  68 100  80 101
M  END
> <Batch ID>
0051

> <Smiles>
CNC(C)C(=O)NC(C(=O)N1Cc2cc([101O:1][101CH2:1]C(=O)NCc3cc([100NH:0][100C:0](=O)N4CCCC(n5nc(-c6ccc(Oc7ccc(F)cc7F)cc6)c(C(N)=O)c5N)C4)ccc3F)ccc2CC1C(=O)NC1CCCc2ccccc21)C(C)(C)C

> <Shape>
0.324

> <Color>
0.068

> <Negative vol penalty>
0.000

$$$$

  -OEChem-04042322373D

100109  0     1  0  0  0  0  0999 V2000
  -29.2241  -32.3555   26.3726 C   0  0  0  0  0  0  0  0  0  0  0  0
  -29.0167  -31.2011   25.6244 C   0  0  0  0  0  0  0  0  0  0  0  0
  -23.7413  -14.3255   23.3983 C   0  0  0  0  0  0  0  0  0  0  0  0
  -22.7697  -15.0537   21.3096 C   0  0  0  0  0  0  0  0  0  0  0  0
  -28.1372  -33.1365   26.7631 C   0  0  0  0  0  0  0  0  0  0  0  0
  -27.7219  -30.8265   25.2671 C   0  0  0  0  0  0  0  0  0  0  0  0
  -27.3826  -29.3874   20.4237 C   0  0  0  0  0  0  0  0  0  0  0  0
  -32.0280  -21.9693   19.2128 C   0  0  0  0  0  0  0  0  0  0  0  0
  -32.5272  -21.3110   18.0890 C   0  0  0  0  0  0  0  0  0  0  0  0
  -22.9106  -15.2057   24.0917 C   0  0  0  0  0  0  0  0  0  0  0  0
  -21.9389  -15.9338   22.0029 C   0  0  0  0  0  0  0  0  0  0  0  0
  -27.8328  -28.1065   20.1070 C   0  0  0  0  0  0  0  0  0  0  0  0
  -19.6876  -15.3098   25.1089 C   0  0  0  0  0  0  0  0  0  0  0  0
  -19.0438  -14.8307   26.2497 C   0  0  0  0  0  0  0  0  0  0  0  0
  -27.2490  -15.8257   14.5640 C   0  0  0  0  0  0  0  0  0  0  0  0
  -25.5558  -27.3100   20.1180 C   0  0  0  0  0  0  0  0  0  0  0  0
  -30.2394  -20.3523   19.3656 C   0  0  0  0  0  0  0  0  0  0  0  0
  -29.5966  -16.3135   14.8600 C   0  0  0  0  0  0  0  0  0  0  0  0
  -20.1456  -16.5195   27.5806 C   0  0  0  0  0  0  0  0  0  0  0  0
  -23.6710  -14.2496   22.0073 C   0  0  0  0  0  0  0  0  0  0  0  0
  -27.2068  -16.6914   13.4711 C   0  0  0  0  0  0  0  0  0  0  0  0
  -24.2558  -12.0024   20.9509 C   0  0  0  0  0  0  0  0  0  0  0  0
  -26.8292  -32.7765   26.4022 C   0  0  0  0  0  0  0  0  0  0  0  0
  -26.0141  -29.6373   20.6009 C   0  0  0  0  0  0  0  0  0  0  0  0
  -26.6163  -31.6027   25.6542 C   0  0  0  0  0  0  0  0  0  0  0  0
  -25.0906  -28.5955   20.4343 C   0  0  0  0  0  0  0  0  0  0  0  0
  -30.8841  -21.4899   19.8512 C   0  0  0  0  0  0  0  0  0  0  0  0
  -31.8825  -20.1734   17.6033 C   0  0  0  0  0  0  0  0  0  0  0  0
  -30.7386  -19.6940   18.2416 C   0  0  0  0  0  0  0  0  0  0  0  0
  -29.5545  -17.1793   13.7671 C   0  0  0  0  0  0  0  0  0  0  0  0
  -28.3596  -17.3682   13.0727 C   0  0  0  0  0  0  0  0  0  0  0  0
  -28.4438  -15.6368   15.2585 C   0  0  0  0  0  0  0  0  0  0  0  0
  -22.0093  -16.0098   23.3940 C   0  0  0  0  0  0  0  0  0  0  0  0
  -26.9197  -27.0669   19.9569 C   0  0  0  0  0  0  0  0  0  0  0  0
  -20.5605  -16.3937   25.2039 C   0  0  0  0  0  0  0  0  0  0  0  0
  -19.2728  -15.4356   27.4856 C   0  0  0  0  0  0  0  0  0  0  0  0
  -20.7894  -16.9985   26.4397 C   0  0  0  0  0  0  0  0  0  0  0  0
  -24.5293  -13.3410   21.2905 C   0  0  0  0  0  0  0  0  0  0  0  0
  -25.3787  -11.5819   20.2810 C   0  0  0  0  0  0  0  0  0  0  0  0
  -25.9448  -16.8688   12.7654 C   0  0  0  0  0  0  0  0  0  0  0  0
  -23.0909  -11.2101   21.2171 C   0  0  0  0  0  0  0  0  0  0  0  0
  -24.2114  -30.6367   23.0206 C   0  0  0  0  0  0  0  0  0  0  0  0
  -21.8763  -30.6411   20.7690 C   0  0  0  0  0  0  0  0  0  0  0  0
  -31.4494  -19.3877   15.2427 C   0  0  0  0  0  0  0  0  0  0  0  0
  -28.7388  -23.9536   20.3387 C   0  0  0  0  0  0  0  0  0  0  0  0
  -20.7159  -29.4320   17.7961 C   0  0  0  0  0  0  0  0  0  0  0  0
  -29.5904  -14.4566   17.1661 C   0  0  0  0  0  0  0  0  0  0  0  0
  -25.6821  -33.6268   26.8876 C   0  0  0  0  0  0  0  0  0  0  0  0
  -25.5424  -31.0304   20.9160 C   0  0  0  0  0  0  0  0  0  0  0  0
  -23.6092  -28.8159   20.5940 C   0  0  0  0  0  0  0  0  0  0  0  0
  -24.3725  -33.3621   26.1492 C   0  0  0  0  0  0  0  0  0  0  0  0
  -30.0939  -12.3738   20.0096 C   0  0  0  0  0  0  0  0  0  0  0  0
  -24.1192  -31.8624   26.0325 C   0  0  0  0  0  0  0  0  0  0  0  0
  -28.6981  -12.2586   20.6264 C   0  0  0  0  0  0  0  0  0  0  0  0
  -30.3451  -13.7649   19.4304 C   0  0  0  0  0  0  0  0  0  0  0  0
  -27.9298  -14.1218   19.1015 C   0  0  0  0  0  0  0  0  0  0  0  0
  -25.2288  -31.1766   25.2261 C   0  0  1  0  0  0  0  0  0  0  0  0
  -24.1690  -31.0603   21.5797 C   0  0  1  0  0  0  0  0  0  0  0  0
  -27.6065  -12.7187   19.6402 C   0  0  2  0  0  0  0  0  0  0  0  0
  -30.0314  -18.4781   17.7395 C   0  0  0  0  0  0  0  0  0  0  0  0
  -28.3171  -18.2983   11.9011 C   0  0  0  0  0  0  0  0  0  0  0  0
  -31.6309  -17.1171   12.3260 C   0  0  0  0  0  0  0  0  0  0  0  0
  -18.7597  -29.5935   16.2326 C   0  0  0  0  0  0  0  0  0  0  0  0
  -20.2293  -28.8955   22.6532 C   0  0  0  0  0  0  0  0  0  0  0  0
  -18.7536  -28.3172   20.7151 C   0  0  0  0  0  0  0  0  0  0  0  0
  -18.9292  -30.6837   21.4842 C   0  0  0  0  0  0  0  0  0  0  0  0
  -22.4114  -30.4498   15.5943 C   0  0  0  0  0  0  0  0  0  0  0  0
  -32.4348  -19.4862   16.3979 C   0  0  0  0  0  0  0  0  0  0  0  0
  -30.3467  -22.1989   21.0606 C   0  0  0  0  0  0  0  0  0  0  0  0
  -25.2581  -15.6751   12.1129 C   0  0  0  0  0  0  0  0  0  0  0  0
  -28.6548  -25.4480   20.1128 C   0  0  0  0  0  0  0  0  0  1  0  0
  -30.8192  -17.9014   13.3550 C   0  0  2  0  0  0  0  0  0  0  0  0
  -20.8763  -29.6293   20.2639 C   0  0  1  0  0  0  0  0  0  0  0  0
  -20.1383  -30.1333   16.5800 C   0  0  2  0  0  0  0  0  0  0  0  0
  -19.7251  -29.3765   21.2779 C   0  0  0  0  0  0  0  0  0  0  0  0
  -25.7317  -13.7440   20.8711 N   0  0  0  0  0  0  0  0  0  0  0  0
  -26.2237  -12.6522   20.2612 N   0  0  0  0  0  0  0  0  0  0  0  0
  -23.1979  -30.1941   20.9083 N   0  0  0  0  0  0  0  0  0  0  0  0
  -29.2734  -14.1315   18.5020 N   0  0  0  0  0  0  0  0  0  0  0  0
  -25.7158  -10.4045   19.7129 N   0  0  0  0  0  0  0  0  0  0  0  0
  -22.0286  -11.7981   21.9171 N   0  0  0  0  0  0  0  0  0  0  0  0
  -28.4868  -14.7569   16.3683 N   0  0  0  0  0  0  0  0  0  0  0  0
  -25.0418  -31.4091   23.8100 N   0  0  0  0  0  0  0  0  0  0  0  0
  -29.9984  -23.5710   20.7726 N   0  0  0  0  0  0  0  0  0  0  0  0
  -31.6332  -18.2287   14.5020 N   0  0  0  0  0  0  0  0  0  0  0  0
  -20.4300  -30.1116   18.9613 N   0  0  0  0  0  0  0  0  0  0  0  0
  -21.0288  -29.9422   15.4003 N   0  3  0  0  0  0  0  0  0  0  0  0
  -25.4028  -17.9872   12.6789 O   0  0  0  0  0  0  0  0  0  0  0  0
  -23.0015  -10.0111   20.8595 O   0  0  0  0  0  0  0  0  0  0  0  0
  -23.5392  -29.6807   23.3893 O   0  0  0  0  0  0  0  0  0  0  0  0
  -21.5001  -31.7880   21.0237 O   0  0  0  0  0  0  0  0  0  0  0  0
  -30.5976  -20.2425   15.0134 O   0  0  0  0  0  0  0  0  0  0  0  0
  -27.7888  -23.1987   20.1499 O   0  0  0  0  0  0  0  0  0  0  0  0
  -21.3534  -28.3839   17.7204 O   0  0  0  0  0  0  0  0  0  0  0  0
  -30.7527  -14.4413   16.7527 O   0  0  0  0  0  0  0  0  0  0  0  0
  -21.1983  -16.8686   24.0702 O   0  0  0  0  0  0  0  0  0  0  0  0
  -27.3565  -25.8156   19.6485 O   0  0  0  0  0  0  0  0  0  1  0  0
  -18.6532  -14.9764   28.5808 F   0  0  0  0  0  0  0  0  0  0  0  0
  -21.6260  -18.0409   26.5371 F   0  0  0  0  0  0  0  0  0  0  0  0
  -24.1057  -16.0356   11.4816 F   0  0  0  0  0  0  0  0  0  0  0  0
  1  2  1  0  0  0  0
  1  5  2  0  0  0  0
  2  6  2  0  0  0  0
  3 10  2  0  0  0  0
  3 20  1  0  0  0  0
  4 11  1  0  0  0  0
  4 20  2  0  0  0  0
  5 23  1  0  0  0  0
  6 25  1  0  0  0  0
  7 12  2  0  0  0  0
  7 24  1  0  0  0  0
  8  9  2  0  0  0  0
  8 27  1  0  0  0  0
  9 28  1  0  0  0  0
 10 33  1  0  0  0  0
 11 33  2  0  0  0  0
 12 34  1  0  0  0  0
 13 14  2  0  0  0  0
 13 35  1  0  0  0  0
 14 36  1  0  0  0  0
 15 21  2  0  0  0  0
 15 32  1  0  0  0  0
 16 26  1  0  0  0  0
 16 34  2  0  0  0  0
 17 27  2  0  0  0  0
 17 29  1  0  0  0  0
 18 30  1  0  0  0  0
 18 32  2  0  0  0  0
 19 36  2  0  0  0  0
 19 37  1  0  0  0  0
 20 38  1  0  0  0  0
 21 31  1  0  0  0  0
 21 40  1  0  0  0  0
 22 38  1  0  0  0  0
 22 39  2  0  0  0  0
 22 41  1  0  0  0  0
 23 25  2  0  0  0  0
 23 48  1  0  0  0  0
 24 26  2  0  0  0  0
 24 49  1  0  0  0  0
 25 57  1  0  0  0  0
 26 50  1  0  0  0  0
 27 69  1  0  0  0  0
 28 29  2  0  0  0  0
 28 68  1  0  0  0  0
 29 60  1  0  0  0  0
 30 31  2  0  0  0  0
 30 72  1  0  0  0  0
 31 61  1  0  0  0  0
 32 82  1  0  0  0  0
 33 96  1  0  0  0  0
 34 97  1  0  0  0  0
 35 37  2  0  0  0  0
 35 96  1  0  0  0  0
 36 98  1  0  0  0  0
 37 99  1  0  0  0  0
 38 76  2  0  0  0  0
 39 77  1  0  0  0  0
 39 80  1  0  0  0  0
 40 70  1  0  0  0  0
 40 88  2  0  0  0  0
 41 81  1  0  0  0  0
 41 89  2  0  0  0  0
 42 58  1  0  0  0  0
 42 83  1  0  0  0  0
 42 90  2  0  0  0  0
 43 73  1  0  0  0  0
 43 78  1  0  0  0  0
 43 91  2  0  0  0  0
 44 68  1  0  0  0  0
 44 85  1  0  0  0  0
 44 92  2  0  0  0  0
 45 71  1  0  0  0  0
 45 84  1  0  0  0  0
 45 93  2  0  0  0  0
 46 74  1  0  0  0  0
 46 86  1  0  0  0  0
 46 94  2  0  0  0  0
 47 79  1  0  0  0  0
 47 82  1  0  0  0  0
 47 95  2  0  0  0  0
 48 51  1  0  0  0  0
 49 58  1  0  0  0  0
 50 78  1  0  0  0  0
 51 53  1  0  0  0  0
 52 54  1  0  0  0  0
 52 55  1  0  0  0  0
 53 57  1  0  0  0  0
 54 59  1  0  0  0  0
 55 79  1  0  0  0  0
 56 59  1  0  0  0  0
 56 79  1  0  0  0  0
 57 83  1  0  0  0  0
 58 78  1  0  0  0  0
 59 77  1  0  0  0  0
 62 72  1  0  0  0  0
 63 74  1  0  0  0  0
 64 75  1  0  0  0  0
 65 75  1  0  0  0  0
 66 75  1  0  0  0  0
 67 87  1  0  0  0  0
 69 84  1  0  0  0  0
 70100  1  0  0  0  0
 71 97  1  0  0  0  0
 72 85  1  0  0  0  0
 73 75  1  0  0  0  0
 73 86  1  0  0  0  0
 74 87  1  0  0  0  0
 76 77  1  0  0  0  0
M  CHG  1  87   1
M  ISO  4  47 100  71 101  82 100  97 101
M  END
> <Batch ID>
0051

> <Smiles>
CNC(C)C(=O)NC(C(=O)N1Cc2cc([101O:1][101CH2:1]C(=O)NCc3ccc(CC(=O)NC(C)c4cc([100NH:0][100C:0](=O)N5CCCC(n6nc(-c7ccc(Oc8ccc(F)cc8F)cc7)c(C(N)=O)c6N)C5)cc(C(=O)CF)c4C)c(C)c3)ccc2CC1C(=O)NC1CCCc2ccccc21)C(C)(C)C

> <Shape>
0.248

> <Color>
0.085

> <Negative vol penalty>
0.000

$$$$

  -OEChem-04042322373D

 87 95  0     1  0  0  0  0  0999 V2000
  -21.6310  -32.2479   23.4452 C   0  0  0  0  0  0  0  0  0  0  0  0
  -21.7106  -30.8695   23.6163 C   0  0  0  0  0  0  0  0  0  0  0  0
  -29.9567  -20.3734   22.2972 C   0  0  0  0  0  0  0  0  0  0  0  0
  -23.0428  -10.0048   19.8882 C   0  0  0  0  0  0  0  0  0  0  0  0
  -23.9727   -9.8194   22.1104 C   0  0  0  0  0  0  0  0  0  0  0  0
  -22.1307  -32.8349   22.2834 C   0  0  0  0  0  0  0  0  0  0  0  0
  -22.2889  -30.0773   22.6252 C   0  0  0  0  0  0  0  0  0  0  0  0
  -25.5948  -24.9873   23.4433 C   0  0  0  0  0  0  0  0  0  0  0  0
  -30.3431  -19.7538   21.1088 C   0  0  0  0  0  0  0  0  0  0  0  0
  -29.3168  -19.6351   23.2928 C   0  0  0  0  0  0  0  0  0  0  0  0
  -22.3242   -8.8267   20.0906 C   0  0  0  0  0  0  0  0  0  0  0  0
  -23.2540   -8.6412   22.3128 C   0  0  0  0  0  0  0  0  0  0  0  0
  -25.2677  -23.6342   23.3676 C   0  0  0  0  0  0  0  0  0  0  0  0
  -20.0832   -7.7606   23.0815 C   0  0  0  0  0  0  0  0  0  0  0  0
  -19.4164   -7.6108   24.2975 C   0  0  0  0  0  0  0  0  0  0  0  0
  -26.0720  -23.5732   21.0942 C   0  0  0  0  0  0  0  0  0  0  0  0
  -20.7168   -5.6294   24.7665 C   0  0  0  0  0  0  0  0  0  0  0  0
  -23.8672  -10.5012   20.8981 C   0  0  0  0  0  0  0  0  0  0  0  0
  -24.1896  -13.0306   20.9752 C   0  0  0  0  0  0  0  0  0  0  0  0
  -22.7241  -32.0505   21.2818 C   0  0  0  0  0  0  0  0  0  0  0  0
  -26.1538  -25.6473   22.3395 C   0  0  0  0  0  0  0  0  0  0  0  0
  -22.7957  -30.6542   21.4484 C   0  0  0  0  0  0  0  0  0  0  0  0
  -26.4076  -24.9341   21.1593 C   0  0  0  0  0  0  0  0  0  0  0  0
  -30.0895  -18.3958   20.9158 C   0  0  0  0  0  0  0  0  0  0  0  0
  -29.0632  -18.2771   23.0998 C   0  0  0  0  0  0  0  0  0  0  0  0
  -29.4496  -17.6574   21.9113 C   0  0  0  0  0  0  0  0  0  0  0  0
  -22.4297   -8.1449   21.3029 C   0  0  0  0  0  0  0  0  0  0  0  0
  -25.5037  -22.9276   22.1920 C   0  0  0  0  0  0  0  0  0  0  0  0
  -21.0667   -6.8448   22.7080 C   0  0  0  0  0  0  0  0  0  0  0  0
  -19.7332   -6.5452   25.1400 C   0  0  0  0  0  0  0  0  0  0  0  0
  -21.3836   -5.7792   23.5504 C   0  0  0  0  0  0  0  0  0  0  0  0
  -24.6103  -11.7179   20.6894 C   0  0  0  0  0  0  0  0  0  0  0  0
  -25.2486  -13.8201   20.5989 C   0  0  0  0  0  0  0  0  0  0  0  0
  -22.9522  -13.4947   21.5312 C   0  0  0  0  0  0  0  0  0  0  0  0
  -25.2656  -28.0774   20.4930 C   0  0  0  0  0  0  0  0  0  0  0  0
  -28.2254  -27.6873   19.2243 C   0  0  0  0  0  0  0  0  0  0  0  0
  -25.6319  -19.4156   23.0387 C   0  0  0  0  0  0  0  0  0  0  0  0
  -30.8814  -25.6233   18.6478 C   0  0  0  0  0  0  0  0  0  0  0  0
  -30.8824  -14.5340   20.8580 C   0  0  0  0  0  0  0  0  0  0  0  0
  -23.2075  -32.7250   20.0225 C   0  0  0  0  0  0  0  0  0  0  0  0
  -26.5257  -27.1009   22.4461 C   0  0  0  0  0  0  0  0  0  0  0  0
  -27.0246  -25.5914   19.9527 C   0  0  0  0  0  0  0  0  0  0  0  0
  -24.1429  -31.8555   19.1863 C   0  0  0  0  0  0  0  0  0  0  0  0
  -29.4222  -12.7296   17.9747 C   0  0  0  0  0  0  0  0  0  0  0  0
  -23.5751  -30.4472   19.0410 C   0  0  0  0  0  0  0  0  0  0  0  0
  -28.0315  -12.3562   18.4851 C   0  0  0  0  0  0  0  0  0  0  0  0
  -30.4312  -12.8480   19.1130 C   0  0  0  0  0  0  0  0  0  0  0  0
  -28.6231  -13.4095   20.7034 C   0  0  0  0  0  0  0  0  0  0  0  0
  -23.4382  -29.7639   20.4069 C   0  0  1  0  0  0  0  0  0  0  0  0
  -26.6150  -27.7957   21.0909 C   0  0  1  0  0  0  0  0  0  0  0  0
  -27.5721  -13.3277   19.5862 C   0  0  2  0  0  0  0  0  0  0  0  0
  -30.5137  -17.7562   19.6342 C   0  0  0  0  0  0  0  0  0  0  0  0
  -33.1388  -25.5770   17.5525 C   0  0  0  0  0  0  0  0  0  0  0  0
  -26.1568  -16.7289   25.2031 C   0  0  0  0  0  0  0  0  0  0  0  0
  -26.8906  -27.4995   16.4869 C   0  0  0  0  0  0  0  0  0  0  0  0
  -29.0173  -26.5255   15.5941 C   0  0  0  0  0  0  0  0  0  0  0  0
  -29.0025  -28.8385   16.5281 C   0  0  0  0  0  0  0  0  0  0  0  0
  -31.2266  -15.7212   22.9915 C   0  0  0  0  0  0  0  0  0  0  0  0
  -32.2411  -25.0354   21.2099 C   0  0  0  0  0  0  0  0  0  0  0  0
  -28.3694  -17.5008   24.1934 C   0  0  0  0  0  0  0  0  0  0  0  0
  -29.1776  -16.2013   21.7044 C   0  0  0  0  0  0  0  0  0  0  0  0
  -25.2486  -20.8519   23.3245 C   0  0  0  0  0  0  0  0  0  1  0  0
  -28.8062  -26.8666   18.0982 C   0  0  1  0  0  0  0  0  0  0  0  0
  -32.3735  -25.8232   18.8434 C   0  0  2  0  0  0  0  0  0  0  0  0
  -26.8348  -17.4982   24.0692 C   0  0  2  0  0  0  0  0  0  0  0  0
  -28.4157  -27.4203   16.6988 C   0  0  0  0  0  0  0  0  0  0  0  0
  -25.8405  -11.6720   20.1713 N   0  0  0  0  0  0  0  0  0  0  0  0
  -26.2019  -12.9657   20.1285 N   0  0  0  0  0  0  0  0  0  0  0  0
  -27.3648  -27.0157   20.1042 N   0  0  0  0  0  0  0  0  0  0  0  0
  -29.9505  -13.7434   20.1657 N   0  0  0  0  0  0  0  0  0  0  0  0
  -25.4479  -15.1550   20.6276 N   0  0  0  0  0  0  0  0  0  0  0  0
  -21.9719  -12.5492   21.8617 N   0  0  0  0  0  0  0  0  0  0  0  0
  -24.7268  -29.2933   20.8681 N   0  0  0  0  0  0  0  0  0  0  0  0
  -30.2442  -26.8059   18.3368 N   0  0  0  0  0  0  0  0  0  0  0  0
  -26.3467  -18.8578   24.0870 N   0  0  0  0  0  0  0  0  0  0  0  0
  -30.3828  -15.3883   21.8526 N   0  0  0  0  0  0  0  0  0  0  0  0
  -32.8898  -24.8871   19.8817 N   0  3  0  0  0  0  0  0  0  0  0  0
  -22.7163  -14.7131   21.7138 O   0  0  0  0  0  0  0  0  0  0  0  0
  -24.7520  -27.2533   19.7455 O   0  0  0  0  0  0  0  0  0  0  0  0
  -28.5299  -28.8785   19.3238 O   0  0  0  0  0  0  0  0  0  0  0  0
  -25.3319  -18.8431   21.9945 O   0  0  0  0  0  0  0  0  0  0  0  0
  -30.3364  -24.5271   18.7560 O   0  0  0  0  0  0  0  0  0  0  0  0
  -32.0910  -14.4864   20.5952 O   0  0  0  0  0  0  0  0  0  0  0  0
  -21.7284   -6.9953   21.5008 O   0  0  0  0  0  0  0  0  0  0  0  0
  -25.1848  -21.6068   22.1152 O   0  0  0  0  0  0  0  0  0  1  0  0
  -19.0939   -6.4024   26.3083 F   0  0  0  0  0  0  0  0  0  0  0  0
  -22.3284   -4.8968   23.1975 F   0  0  0  0  0  0  0  0  0  0  0  0
  1  2  1  0  0  0  0
  1  6  2  0  0  0  0
  2  7  2  0  0  0  0
  3  9  1  0  0  0  0
  3 10  2  0  0  0  0
  4 11  2  0  0  0  0
  4 18  1  0  0  0  0
  5 12  1  0  0  0  0
  5 18  2  0  0  0  0
  6 20  1  0  0  0  0
  7 22  1  0  0  0  0
  8 13  2  0  0  0  0
  8 21  1  0  0  0  0
  9 24  2  0  0  0  0
 10 25  1  0  0  0  0
 11 27  1  0  0  0  0
 12 27  2  0  0  0  0
 13 28  1  0  0  0  0
 14 15  2  0  0  0  0
 14 29  1  0  0  0  0
 15 30  1  0  0  0  0
 16 23  1  0  0  0  0
 16 28  2  0  0  0  0
 17 30  2  0  0  0  0
 17 31  1  0  0  0  0
 18 32  1  0  0  0  0
 19 32  1  0  0  0  0
 19 33  2  0  0  0  0
 19 34  1  0  0  0  0
 20 22  2  0  0  0  0
 20 40  1  0  0  0  0
 21 23  2  0  0  0  0
 21 41  1  0  0  0  0
 22 49  1  0  0  0  0
 23 42  1  0  0  0  0
 24 26  1  0  0  0  0
 24 52  1  0  0  0  0
 25 26  2  0  0  0  0
 25 60  1  0  0  0  0
 26 61  1  0  0  0  0
 27 84  1  0  0  0  0
 28 85  1  0  0  0  0
 29 31  2  0  0  0  0
 29 84  1  0  0  0  0
 30 86  1  0  0  0  0
 31 87  1  0  0  0  0
 32 67  2  0  0  0  0
 33 68  1  0  0  0  0
 33 71  1  0  0  0  0
 34 72  1  0  0  0  0
 34 78  2  0  0  0  0
 35 50  1  0  0  0  0
 35 73  1  0  0  0  0
 35 79  2  0  0  0  0
 36 63  1  0  0  0  0
 36 69  1  0  0  0  0
 36 80  2  0  0  0  0
 37 62  1  0  0  0  0
 37 75  1  0  0  0  0
 37 81  2  0  0  0  0
 38 64  1  0  0  0  0
 38 74  1  0  0  0  0
 38 82  2  0  0  0  0
 39 70  1  0  0  0  0
 39 76  1  0  0  0  0
 39 83  2  0  0  0  0
 40 43  1  0  0  0  0
 41 50  1  0  0  0  0
 42 69  1  0  0  0  0
 43 45  1  0  0  0  0
 44 46  1  0  0  0  0
 44 47  1  0  0  0  0
 45 49  1  0  0  0  0
 46 51  1  0  0  0  0
 47 70  1  0  0  0  0
 48 51  1  0  0  0  0
 48 70  1  0  0  0  0
 49 73  1  0  0  0  0
 50 69  1  0  0  0  0
 51 68  1  0  0  0  0
 53 64  1  0  0  0  0
 54 65  1  0  0  0  0
 55 66  1  0  0  0  0
 56 66  1  0  0  0  0
 57 66  1  0  0  0  0
 58 76  1  0  0  0  0
 59 77  1  0  0  0  0
 60 65  1  0  0  0  0
 61 76  1  0  0  0  0
 62 85  1  0  0  0  0
 63 66  1  0  0  0  0
 63 74  1  0  0  0  0
 64 77  1  0  0  0  0
 65 75  1  0  0  0  0
 67 68  1  0  0  0  0
M  CHG  1  77   1
M  ISO  4  39 100  62 101  76 100  85 101
M  END
> <Batch ID>
0051

> <Smiles>
CNC(C)C(=O)NC(C(=O)N1Cc2cc([101O:1][101CH2:1]C(=O)NC(C)Cc3cccc(C)c3C[100N:0](C)[100C:0](=O)N3CCCC(n4nc(-c5ccc(Oc6ccc(F)cc6F)cc5)c(C(N)=O)c4N)C3)ccc2CC1C(=O)NC1CCCc2ccccc21)C(C)(C)C

> <Shape>
0.298

> <Color>
0.189

> <Negative vol penalty>
0.000

$$$$

  -OEChem-04042322373D

 85 93  0     1  0  0  0  0  0999 V2000
  -27.0421  -33.0435   25.1179 C   0  0  0  0  0  0  0  0  0  0  0  0
  -27.4028  -31.7349   24.8131 C   0  0  0  0  0  0  0  0  0  0  0  0
  -23.0777   -9.8643   19.9464 C   0  0  0  0  0  0  0  0  0  0  0  0
  -23.8297   -9.8853   22.2423 C   0  0  0  0  0  0  0  0  0  0  0  0
  -25.8288  -33.3006   25.7548 C   0  0  0  0  0  0  0  0  0  0  0  0
  -26.5508  -30.6824   25.1460 C   0  0  0  0  0  0  0  0  0  0  0  0
  -25.6801  -25.5095   21.9855 C   0  0  0  0  0  0  0  0  0  0  0  0
  -32.0589  -16.6037   22.5293 C   0  0  0  0  0  0  0  0  0  0  0  0
  -22.3328   -8.7129   20.2008 C   0  0  0  0  0  0  0  0  0  0  0  0
  -23.0847   -8.7338   22.4967 C   0  0  0  0  0  0  0  0  0  0  0  0
  -26.1999  -24.2239   22.1291 C   0  0  0  0  0  0  0  0  0  0  0  0
  -19.8543   -7.9402   23.0930 C   0  0  0  0  0  0  0  0  0  0  0  0
  -19.0933   -7.9076   24.2614 C   0  0  0  0  0  0  0  0  0  0  0  0
  -32.6639  -17.4855   23.4248 C   0  0  0  0  0  0  0  0  0  0  0  0
  -24.2394  -23.5770   23.3769 C   0  0  0  0  0  0  0  0  0  0  0  0
  -20.3318   -5.9745   25.0140 C   0  0  0  0  0  0  0  0  0  0  0  0
  -23.8262  -10.4505   20.9671 C   0  0  0  0  0  0  0  0  0  0  0  0
  -24.1689  -12.9748   20.8328 C   0  0  0  0  0  0  0  0  0  0  0  0
  -24.9571  -32.2516   26.0871 C   0  0  0  0  0  0  0  0  0  0  0  0
  -24.4389  -25.8422   22.5469 C   0  0  0  0  0  0  0  0  0  0  0  0
  -25.3253  -30.9256   25.7892 C   0  0  0  0  0  0  0  0  0  0  0  0
  -23.7048  -24.8669   23.2369 C   0  0  0  0  0  0  0  0  0  0  0  0
  -29.8897  -17.4812   23.1306 C   0  0  0  0  0  0  0  0  0  0  0  0
  -30.4947  -18.3630   24.0262 C   0  0  0  0  0  0  0  0  0  0  0  0
  -30.6718  -16.6016   22.3821 C   0  0  0  0  0  0  0  0  0  0  0  0
  -22.3362   -8.1476   21.4760 C   0  0  0  0  0  0  0  0  0  0  0  0
  -25.4809  -23.2582   22.8273 C   0  0  0  0  0  0  0  0  0  0  0  0
  -20.8540   -6.9899   22.8849 C   0  0  0  0  0  0  0  0  0  0  0  0
  -19.3320   -6.9247   25.2220 C   0  0  0  0  0  0  0  0  0  0  0  0
  -21.0928   -6.0071   23.8455 C   0  0  0  0  0  0  0  0  0  0  0  0
  -31.8818  -18.3651   24.1733 C   0  0  0  0  0  0  0  0  0  0  0  0
  -24.5964  -11.6397   20.7047 C   0  0  0  0  0  0  0  0  0  0  0  0
  -25.2625  -13.7219   20.4687 C   0  0  0  0  0  0  0  0  0  0  0  0
  -22.8971  -13.4934   21.2441 C   0  0  0  0  0  0  0  0  0  0  0  0
  -23.4555  -27.9134   24.7484 C   0  0  0  0  0  0  0  0  0  0  0  0
  -20.5152  -26.8904   23.8369 C   0  0  0  0  0  0  0  0  0  0  0  0
  -27.7893  -20.6854   23.8607 C   0  0  0  0  0  0  0  0  0  0  0  0
  -18.6096  -24.4325   22.4319 C   0  0  0  0  0  0  0  0  0  0  0  0
  -30.7282  -14.7676   20.6559 C   0  0  0  0  0  0  0  0  0  0  0  0
  -23.6777  -32.5746   26.8175 C   0  0  0  0  0  0  0  0  0  0  0  0
  -23.8798  -27.2260   22.3603 C   0  0  0  0  0  0  0  0  0  0  0  0
  -22.3584  -25.1676   23.8411 C   0  0  0  0  0  0  0  0  0  0  0  0
  -22.6618  -31.4354   26.7996 C   0  0  0  0  0  0  0  0  0  0  0  0
  -29.6216  -12.3395   18.2987 C   0  0  0  0  0  0  0  0  0  0  0  0
  -23.3377  -30.1119   27.1432 C   0  0  0  0  0  0  0  0  0  0  0  0
  -28.1804  -12.0508   18.7250 C   0  0  0  0  0  0  0  0  0  0  0  0
  -30.5326  -12.5756   19.5021 C   0  0  0  0  0  0  0  0  0  0  0  0
  -28.6210  -13.3088   20.8722 C   0  0  0  0  0  0  0  0  0  0  0  0
  -24.4166  -29.7593   26.1121 C   0  0  1  0  0  0  0  0  0  0  0  0
  -22.8412  -27.5980   23.4140 C   0  0  1  0  0  0  0  0  0  0  0  0
  -27.6522  -13.1285   19.6921 C   0  0  2  0  0  0  0  0  0  0  0  0
  -28.4010  -17.4796   22.9724 C   0  0  0  0  0  0  0  0  0  0  0  0
  -16.2328  -23.8683   21.8577 C   0  0  0  0  0  0  0  0  0  0  0  0
  -19.9502  -26.2917   26.7749 C   0  0  0  0  0  0  0  0  0  0  0  0
  -18.0097  -24.8887   26.0437 C   0  0  0  0  0  0  0  0  0  0  0  0
  -18.0422  -27.3309   25.5364 C   0  0  0  0  0  0  0  0  0  0  0  0
  -30.1837  -21.2276   23.3861 C   0  0  0  0  0  0  0  0  0  0  0  0
  -19.2309  -24.2393   19.5447 C   0  0  0  0  0  0  0  0  0  0  0  0
  -29.6402  -19.3039   24.8255 C   0  0  0  0  0  0  0  0  0  0  0  0
  -27.4071  -21.8746   23.0050 C   0  0  0  0  0  0  0  0  0  1  0  0
  -19.5873  -25.7813   24.2702 C   0  0  1  0  0  0  0  0  0  0  0  0
  -17.5340  -24.4796   21.3617 C   0  0  2  0  0  0  0  0  0  0  0  0
  -18.9236  -26.0677   25.6467 C   0  0  0  0  0  0  0  0  0  0  0  0
  -25.8627  -11.5411   20.2914 N   0  0  0  0  0  0  0  0  0  0  0  0
  -26.2403  -12.8238   20.1565 N   0  0  0  0  0  0  0  0  0  0  0  0
  -21.8572  -26.5368   23.6370 N   0  0  0  0  0  0  0  0  0  0  0  0
  -29.9707  -13.6118   20.3712 N   0  0  0  0  0  0  0  0  0  0  0  0
  -25.4734  -15.0528   20.3882 N   0  0  0  0  0  0  0  0  0  0  0  0
  -21.8839  -12.5865   21.5834 N   0  0  0  0  0  0  0  0  0  0  0  0
  -30.0782  -15.6978   21.4664 N   0  0  0  0  0  0  0  0  0  0  0  0
  -23.8112  -29.2395   24.9048 N   0  0  0  0  0  0  0  0  0  0  0  0
  -18.6393  -25.5920   23.1775 N   0  0  0  0  0  0  0  0  0  0  0  0
  -29.1495  -20.4171   24.0173 N   0  0  0  0  0  0  0  0  0  0  0  0
  -17.9742  -23.7297   20.1514 N   0  3  0  0  0  0  0  0  0  0  0  0
  -22.6609  -14.7244   21.2931 O   0  0  0  0  0  0  0  0  0  0  0  0
  -23.5950  -27.0201   25.5756 O   0  0  0  0  0  0  0  0  0  0  0  0
  -20.0646  -28.0272   23.6746 O   0  0  0  0  0  0  0  0  0  0  0  0
  -26.8916  -20.0171   24.3825 O   0  0  0  0  0  0  0  0  0  0  0  0
  -19.3471  -23.4626   22.5928 O   0  0  0  0  0  0  0  0  0  0  0  0
  -31.8590  -14.9333   20.1912 O   0  0  0  0  0  0  0  0  0  0  0  0
  -21.6092   -7.0241   21.7247 O   0  0  0  0  0  0  0  0  0  0  0  0
  -25.9863  -22.0027   22.9694 O   0  0  0  0  0  0  0  0  0  1  0  0
  -18.6022   -6.8945   26.3448 F   0  0  0  0  0  0  0  0  0  0  0  0
  -22.0526   -5.0922   23.6518 F   0  0  0  0  0  0  0  0  0  0  0  0
  -32.6704  -19.4383   25.2721 Cl  0  0  0  0  0  0  0  0  0  0  0  0
  1  2  1  0  0  0  0
  1  5  2  0  0  0  0
  2  6  2  0  0  0  0
  3  9  2  0  0  0  0
  3 17  1  0  0  0  0
  4 10  1  0  0  0  0
  4 17  2  0  0  0  0
  5 19  1  0  0  0  0
  6 21  1  0  0  0  0
  7 11  2  0  0  0  0
  7 20  1  0  0  0  0
  8 14  1  0  0  0  0
  8 25  2  0  0  0  0
  9 26  1  0  0  0  0
 10 26  2  0  0  0  0
 11 27  1  0  0  0  0
 12 13  2  0  0  0  0
 12 28  1  0  0  0  0
 13 29  1  0  0  0  0
 14 31  2  0  0  0  0
 15 22  1  0  0  0  0
 15 27  2  0  0  0  0
 16 29  2  0  0  0  0
 16 30  1  0  0  0  0
 17 32  1  0  0  0  0
 18 32  1  0  0  0  0
 18 33  2  0  0  0  0
 18 34  1  0  0  0  0
 19 21  2  0  0  0  0
 19 40  1  0  0  0  0
 20 22  2  0  0  0  0
 20 41  1  0  0  0  0
 21 49  1  0  0  0  0
 22 42  1  0  0  0  0
 23 24  2  0  0  0  0
 23 25  1  0  0  0  0
 23 52  1  0  0  0  0
 24 31  1  0  0  0  0
 24 59  1  0  0  0  0
 25 70  1  0  0  0  0
 26 81  1  0  0  0  0
 27 82  1  0  0  0  0
 28 30  2  0  0  0  0
 28 81  1  0  0  0  0
 29 83  1  0  0  0  0
 30 84  1  0  0  0  0
 31 85  1  0  0  0  0
 32 64  2  0  0  0  0
 33 65  1  0  0  0  0
 33 68  1  0  0  0  0
 34 69  1  0  0  0  0
 34 75  2  0  0  0  0
 35 50  1  0  0  0  0
 35 71  1  0  0  0  0
 35 76  2  0  0  0  0
 36 61  1  0  0  0  0
 36 66  1  0  0  0  0
 36 77  2  0  0  0  0
 37 60  1  0  0  0  0
 37 73  1  0  0  0  0
 37 78  2  0  0  0  0
 38 62  1  0  0  0  0
 38 72  1  0  0  0  0
 38 79  2  0  0  0  0
 39 67  1  0  0  0  0
 39 70  1  0  0  0  0
 39 80  2  0  0  0  0
 40 43  1  0  0  0  0
 41 50  1  0  0  0  0
 42 66  1  0  0  0  0
 43 45  1  0  0  0  0
 44 46  1  0  0  0  0
 44 47  1  0  0  0  0
 45 49  1  0  0  0  0
 46 51  1  0  0  0  0
 47 67  1  0  0  0  0
 48 51  1  0  0  0  0
 48 67  1  0  0  0  0
 49 71  1  0  0  0  0
 50 66  1  0  0  0  0
 51 65  1  0  0  0  0
 53 62  1  0  0  0  0
 54 63  1  0  0  0  0
 55 63  1  0  0  0  0
 56 63  1  0  0  0  0
 57 73  1  0  0  0  0
 58 74  1  0  0  0  0
 59 73  1  0  0  0  0
 60 82  1  0  0  0  0
 61 63  1  0  0  0  0
 61 72  1  0  0  0  0
 62 74  1  0  0  0  0
 64 65  1  0  0  0  0
M  CHG  1  74   1
M  ISO  4  39 100  60 101  70 100  82 101
M  END
> <Batch ID>
0051

> <Smiles>
CNC(C)C(=O)NC(C(=O)N1Cc2cc([101O:1][101CH2:1]C(=O)N(C)Cc3c(Cl)ccc([100NH:0][100C:0](=O)N4CCCC(n5nc(-c6ccc(Oc7ccc(F)cc7F)cc6)c(C(N)=O)c5N)C4)c3C)ccc2CC1C(=O)NC1CCCc2ccccc21)C(C)(C)C

> <Shape>
0.253

> <Color>
0.196

> <Negative vol penalty>
0.000

$$$$

  -OEChem-04042322373D

 85 93  0     1  0  0  0  0  0999 V2000
  -31.0702  -35.9888   18.9803 C   0  0  0  0  0  0  0  0  0  0  0  0
  -30.9925  -34.6181   19.2047 C   0  0  0  0  0  0  0  0  0  0  0  0
  -29.0714  -12.3457   16.6908 C   0  0  0  0  0  0  0  0  0  0  0  0
  -30.4756  -12.6046   18.6397 C   0  0  0  0  0  0  0  0  0  0  0  0
  -30.4285  -36.8734   19.8461 C   0  0  0  0  0  0  0  0  0  0  0  0
  -30.2738  -34.1311   20.2960 C   0  0  0  0  0  0  0  0  0  0  0  0
  -27.3312  -30.1924   19.0827 C   0  0  0  0  0  0  0  0  0  0  0  0
  -30.0227  -11.5020   16.1175 C   0  0  0  0  0  0  0  0  0  0  0  0
  -31.4269  -11.7608   18.0664 C   0  0  0  0  0  0  0  0  0  0  0  0
  -27.9522  -28.9515   18.9471 C   0  0  0  0  0  0  0  0  0  0  0  0
  -31.8702   -8.4383   17.6359 C   0  0  0  0  0  0  0  0  0  0  0  0
  -32.4304   -7.4507   18.4460 C   0  0  0  0  0  0  0  0  0  0  0  0
  -27.2140  -28.3468   21.1627 C   0  0  0  0  0  0  0  0  0  0  0  0
  -30.6296  -21.7008   21.2751 C   0  0  0  0  0  0  0  0  0  0  0  0
  -32.0646  -20.3744   23.2661 C   0  0  0  0  0  0  0  0  0  0  0  0
  -34.6234   -8.3976   18.0838 C   0  0  0  0  0  0  0  0  0  0  0  0
  -29.2979  -12.8971   17.9520 C   0  0  0  0  0  0  0  0  0  0  0  0
  -27.2380  -13.3987   19.3706 C   0  0  0  0  0  0  0  0  0  0  0  0
  -29.6936  -36.3966   20.9430 C   0  0  0  0  0  0  0  0  0  0  0  0
  -26.6550  -30.5245   20.2654 C   0  0  0  0  0  0  0  0  0  0  0  0
  -29.6227  -35.0102   21.1781 C   0  0  0  0  0  0  0  0  0  0  0  0
  -26.5831  -29.5915   21.3097 C   0  0  0  0  0  0  0  0  0  0  0  0
  -31.6536  -22.3610   21.9540 C   0  0  0  0  0  0  0  0  0  0  0  0
  -31.0405  -19.7141   22.5871 C   0  0  0  0  0  0  0  0  0  0  0  0
  -30.3230  -20.3773   21.5917 C   0  0  0  0  0  0  0  0  0  0  0  0
  -31.2004  -11.2095   16.8053 C   0  0  0  0  0  0  0  0  0  0  0  0
  -27.8962  -28.0296   19.9883 C   0  0  0  0  0  0  0  0  0  0  0  0
  -32.6866   -9.4056   17.0496 C   0  0  0  0  0  0  0  0  0  0  0  0
  -33.8070   -7.4303   18.6700 C   0  0  0  0  0  0  0  0  0  0  0  0
  -34.0632   -9.3853   17.2736 C   0  0  0  0  0  0  0  0  0  0  0  0
  -32.3712  -21.6979   22.9495 C   0  0  0  0  0  0  0  0  0  0  0  0
  -28.3159  -13.7693   18.5445 C   0  0  0  0  0  0  0  0  0  0  0  0
  -26.6095  -14.5834   19.6671 C   0  0  0  0  0  0  0  0  0  0  0  0
  -26.8404  -12.0997   19.8291 C   0  0  0  0  0  0  0  0  0  0  0  0
  -27.0062  -32.7597   22.4980 C   0  0  0  0  0  0  0  0  0  0  0  0
  -24.2258  -31.5227   23.6210 C   0  0  0  0  0  0  0  0  0  0  0  0
  -30.1921  -25.3429   20.7241 C   0  0  0  0  0  0  0  0  0  0  0  0
  -22.1041  -28.8555   23.7988 C   0  0  0  0  0  0  0  0  0  0  0  0
  -28.4793  -20.2547   19.8794 C   0  0  0  0  0  0  0  0  0  0  0  0
  -29.0563  -37.3934   21.8784 C   0  0  0  0  0  0  0  0  0  0  0  0
  -25.9675  -31.8569   20.3856 C   0  0  0  0  0  0  0  0  0  0  0  0
  -25.8525  -29.8915   22.5922 C   0  0  0  0  0  0  0  0  0  0  0  0
  -28.0033  -36.7794   22.7973 C   0  0  0  0  0  0  0  0  0  0  0  0
  -25.8317  -18.9588   17.8824 C   0  0  0  0  0  0  0  0  0  0  0  0
  -28.5239  -35.4863   23.4168 C   0  0  0  0  0  0  0  0  0  0  0  0
  -26.0666  -17.4467   17.9058 C   0  0  0  0  0  0  0  0  0  0  0  0
  -27.1461  -19.7365   17.8474 C   0  0  0  0  0  0  0  0  0  0  0  0
  -28.3402  -17.8704   18.9248 C   0  0  0  0  0  0  0  0  0  0  0  0
  -28.8321  -34.4422   22.3367 C   0  0  1  0  0  0  0  0  0  0  0  0
  -25.7450  -32.2861   21.8326 C   0  0  1  0  0  0  0  0  0  0  0  0
  -27.0465  -17.0459   19.0259 C   0  0  2  0  0  0  0  0  0  0  0  0
  -30.7336  -18.2965   22.9473 C   0  0  0  0  0  0  0  0  0  0  0  0
  -19.9295  -28.1330   24.8216 C   0  0  0  0  0  0  0  0  0  0  0  0
  -25.6075  -31.1957   26.3217 C   0  0  0  0  0  0  0  0  0  0  0  0
  -23.7639  -29.6429   26.9986 C   0  0  0  0  0  0  0  0  0  0  0  0
  -23.2503  -32.0214   26.4491 C   0  0  0  0  0  0  0  0  0  0  0  0
  -30.3148  -24.7510   23.1504 C   0  0  0  0  0  0  0  0  0  0  0  0
  -20.8732  -28.4028   21.1457 C   0  0  0  0  0  0  0  0  0  0  0  0
  -31.9525  -23.7851   21.5841 C   0  0  0  0  0  0  0  0  0  0  0  0
  -28.9917  -26.2060   21.0513 C   0  0  0  0  0  0  0  0  0  1  0  0
  -23.8582  -30.4226   24.5873 C   0  0  1  0  0  0  0  0  0  0  0  0
  -20.6024  -28.7483   23.6045 C   0  0  2  0  0  0  0  0  0  0  0  0
  -24.1355  -30.8154   26.0659 C   0  0  0  0  0  0  0  0  0  0  0  0
  -28.3719  -15.0864   18.3298 N   0  0  0  0  0  0  0  0  0  0  0  0
  -27.3213  -15.5538   19.0253 N   0  0  0  0  0  0  0  0  0  0  0  0
  -25.2017  -31.2102   22.6641 N   0  0  0  0  0  0  0  0  0  0  0  0
  -28.0218  -19.3068   18.9397 N   0  0  0  0  0  0  0  0  0  0  0  0
  -25.5229  -14.8794   20.4116 N   0  0  0  0  0  0  0  0  0  0  0  0
  -27.5974  -10.9897   19.4302 N   0  0  0  0  0  0  0  0  0  0  0  0
  -29.2787  -19.7241   20.8912 N   0  0  0  0  0  0  0  0  0  0  0  0
  -27.6098  -33.8286   21.8636 N   0  0  0  0  0  0  0  0  0  0  0  0
  -22.4666  -30.0838   24.3099 N   0  0  0  0  0  0  0  0  0  0  0  0
  -30.7948  -24.6545   21.7774 N   0  0  0  0  0  0  0  0  0  0  0  0
  -20.2927  -27.9015   22.4180 N   0  3  0  0  0  0  0  0  0  0  0  0
  -25.8337  -11.9266   20.5572 O   0  0  0  0  0  0  0  0  0  0  0  0
  -27.4016  -32.1979   23.5127 O   0  0  0  0  0  0  0  0  0  0  0  0
  -23.6624  -32.6167   23.7075 O   0  0  0  0  0  0  0  0  0  0  0  0
  -30.5761  -25.2808   19.5521 O   0  0  0  0  0  0  0  0  0  0  0  0
  -22.8779  -27.9399   23.5279 O   0  0  0  0  0  0  0  0  0  0  0  0
  -28.1613  -21.4446   19.8082 O   0  0  0  0  0  0  0  0  0  0  0  0
  -32.1288  -10.3859   16.2462 O   0  0  0  0  0  0  0  0  0  0  0  0
  -28.5020  -26.8180   19.8589 O   0  0  0  0  0  0  0  0  0  1  0  0
  -34.3447   -6.4828   19.4492 F   0  0  0  0  0  0  0  0  0  0  0  0
  -34.8524  -10.3126   16.7142 F   0  0  0  0  0  0  0  0  0  0  0  0
  -33.6444  -22.4830   23.8109 Cl  0  0  0  0  0  0  0  0  0  0  0  0
  1  2  1  0  0  0  0
  1  5  2  0  0  0  0
  2  6  2  0  0  0  0
  3  8  2  0  0  0  0
  3 17  1  0  0  0  0
  4  9  1  0  0  0  0
  4 17  2  0  0  0  0
  5 19  1  0  0  0  0
  6 21  1  0  0  0  0
  7 10  2  0  0  0  0
  7 20  1  0  0  0  0
  8 26  1  0  0  0  0
  9 26  2  0  0  0  0
 10 27  1  0  0  0  0
 11 12  2  0  0  0  0
 11 28  1  0  0  0  0
 12 29  1  0  0  0  0
 13 22  1  0  0  0  0
 13 27  2  0  0  0  0
 14 23  1  0  0  0  0
 14 25  2  0  0  0  0
 15 24  2  0  0  0  0
 15 31  1  0  0  0  0
 16 29  2  0  0  0  0
 16 30  1  0  0  0  0
 17 32  1  0  0  0  0
 18 32  1  0  0  0  0
 18 33  2  0  0  0  0
 18 34  1  0  0  0  0
 19 21  2  0  0  0  0
 19 40  1  0  0  0  0
 20 22  2  0  0  0  0
 20 41  1  0  0  0  0
 21 49  1  0  0  0  0
 22 42  1  0  0  0  0
 23 31  2  0  0  0  0
 23 59  1  0  0  0  0
 24 25  1  0  0  0  0
 24 52  1  0  0  0  0
 25 70  1  0  0  0  0
 26 81  1  0  0  0  0
 27 82  1  0  0  0  0
 28 30  2  0  0  0  0
 28 81  1  0  0  0  0
 29 83  1  0  0  0  0
 30 84  1  0  0  0  0
 31 85  1  0  0  0  0
 32 64  2  0  0  0  0
 33 65  1  0  0  0  0
 33 68  1  0  0  0  0
 34 69  1  0  0  0  0
 34 75  2  0  0  0  0
 35 50  1  0  0  0  0
 35 71  1  0  0  0  0
 35 76  2  0  0  0  0
 36 61  1  0  0  0  0
 36 66  1  0  0  0  0
 36 77  2  0  0  0  0
 37 60  1  0  0  0  0
 37 73  1  0  0  0  0
 37 78  2  0  0  0  0
 38 62  1  0  0  0  0
 38 72  1  0  0  0  0
 38 79  2  0  0  0  0
 39 67  1  0  0  0  0
 39 70  1  0  0  0  0
 39 80  2  0  0  0  0
 40 43  1  0  0  0  0
 41 50  1  0  0  0  0
 42 66  1  0  0  0  0
 43 45  1  0  0  0  0
 44 46  1  0  0  0  0
 44 47  1  0  0  0  0
 45 49  1  0  0  0  0
 46 51  1  0  0  0  0
 47 67  1  0  0  0  0
 48 51  1  0  0  0  0
 48 67  1  0  0  0  0
 49 71  1  0  0  0  0
 50 66  1  0  0  0  0
 51 65  1  0  0  0  0
 53 62  1  0  0  0  0
 54 63  1  0  0  0  0
 55 63  1  0  0  0  0
 56 63  1  0  0  0  0
 57 73  1  0  0  0  0
 58 74  1  0  0  0  0
 59 73  1  0  0  0  0
 60 82  1  0  0  0  0
 61 63  1  0  0  0  0
 61 72  1  0  0  0  0
 62 74  1  0  0  0  0
 64 65  1  0  0  0  0
M  CHG  1  74   1
M  ISO  4  39 100  60 101  70 100  82 101
M  END
> <Batch ID>
0051

> <Smiles>
CNC(C)C(=O)NC(C(=O)N1Cc2cc([101O:1][101CH2:1]C(=O)N(C)Cc3cc([100NH:0][100C:0](=O)N4CCCC(n5nc(-c6ccc(Oc7ccc(F)cc7F)cc6)c(C(N)=O)c5N)C4)c(C)cc3Cl)ccc2CC1C(=O)NC1CCCc2ccccc21)C(C)(C)C

> <Shape>
0.230

> <Color>
0.124

> <Negative vol penalty>
0.000

$$$$

  -OEChem-04042322373D

 86 94  0     1  0  0  0  0  0999 V2000
  -17.2981  -12.2114   20.8960 C   0  0  0  0  0  0  0  0  0  0  0  0
  -17.8811  -13.3699   21.3993 C   0  0  0  0  0  0  0  0  0  0  0  0
  -21.9949  -28.3368   21.2690 C   0  0  0  0  0  0  0  0  0  0  0  0
  -22.9221  -27.3055   23.2473 C   0  0  0  0  0  0  0  0  0  0  0  0
  -17.9653  -10.9921   21.0058 C   0  0  0  0  0  0  0  0  0  0  0  0
  -19.1314  -13.3096   22.0139 C   0  0  0  0  0  0  0  0  0  0  0  0
  -23.5238  -17.5740   21.8496 C   0  0  0  0  0  0  0  0  0  0  0  0
  -20.7194  -28.2639   21.8287 C   0  0  0  0  0  0  0  0  0  0  0  0
  -21.6466  -27.2326   23.8071 C   0  0  0  0  0  0  0  0  0  0  0  0
  -23.8962  -18.5722   22.7489 C   0  0  0  0  0  0  0  0  0  0  0  0
  -18.9017  -29.9667   24.1154 C   0  0  0  0  0  0  0  0  0  0  0  0
  -18.0868  -31.0948   24.0207 C   0  0  0  0  0  0  0  0  0  0  0  0
  -25.5953  -17.1169   23.6513 C   0  0  0  0  0  0  0  0  0  0  0  0
  -29.0829  -22.0123   22.8074 C   0  0  0  0  0  0  0  0  0  0  0  0
  -29.2901  -20.7429   20.7622 C   0  0  0  0  0  0  0  0  0  0  0  0
  -16.4503  -29.8095   22.7930 C   0  0  0  0  0  0  0  0  0  0  0  0
  -23.0963  -27.8575   21.9782 C   0  0  0  0  0  0  0  0  0  0  0  0
  -25.3361  -28.9891   21.5195 C   0  0  0  0  0  0  0  0  0  0  0  0
  -19.2287  -10.9184   21.6134 C   0  0  0  0  0  0  0  0  0  0  0  0
  -24.1783  -16.3338   21.8517 C   0  0  0  0  0  0  0  0  0  0  0  0
  -19.8156  -12.0879   22.1331 C   0  0  0  0  0  0  0  0  0  0  0  0
  -25.2311  -16.1056   22.7493 C   0  0  0  0  0  0  0  0  0  0  0  0
  -29.4407  -20.8834   23.5443 C   0  0  0  0  0  0  0  0  0  0  0  0
  -29.6479  -19.6140   21.4991 C   0  0  0  0  0  0  0  0  0  0  0  0
  -29.7232  -19.6842   22.8902 C   0  0  0  0  0  0  0  0  0  0  0  0
  -29.0076  -21.9421   21.4163 C   0  0  0  0  0  0  0  0  0  0  0  0
  -20.5452  -27.7118   23.0978 C   0  0  0  0  0  0  0  0  0  0  0  0
  -24.9301  -18.3427   23.6519 C   0  0  0  0  0  0  0  0  0  0  0  0
  -18.4909  -28.7600   23.5489 C   0  0  0  0  0  0  0  0  0  0  0  0
  -16.8611  -31.0162   23.3596 C   0  0  0  0  0  0  0  0  0  0  0  0
  -17.2653  -28.6814   22.8877 C   0  0  0  0  0  0  0  0  0  0  0  0
  -24.4141  -27.9320   21.4003 C   0  0  0  0  0  0  0  0  0  0  0  0
  -26.4271  -28.5766   20.7942 C   0  0  0  0  0  0  0  0  0  0  0  0
  -25.2171  -30.2327   22.2230 C   0  0  0  0  0  0  0  0  0  0  0  0
  -23.2875  -13.3283   22.3784 C   0  0  0  0  0  0  0  0  0  0  0  0
  -26.3295  -12.6764   21.4599 C   0  0  0  0  0  0  0  0  0  0  0  0
  -27.1909  -21.0212   25.9417 C   0  0  0  0  0  0  0  0  0  0  0  0
  -29.5463  -13.7614   21.1118 C   0  0  0  0  0  0  0  0  0  0  0  0
  -28.5238  -23.1895   19.2817 C   0  0  0  0  0  0  0  0  0  0  0  0
  -19.8904   -9.5701   21.7511 C   0  0  0  0  0  0  0  0  0  0  0  0
  -23.7825  -15.2770   20.8573 C   0  0  0  0  0  0  0  0  0  0  0  0
  -25.9790  -14.7986   22.7785 C   0  0  0  0  0  0  0  0  0  0  0  0
  -21.3784   -9.6528   22.0818 C   0  0  0  0  0  0  0  0  0  0  0  0
  -27.6190  -25.8224   17.0622 C   0  0  0  0  0  0  0  0  0  0  0  0
  -21.6211  -10.6588   23.2025 C   0  0  0  0  0  0  0  0  0  0  0  0
  -26.7834  -26.7614   17.9352 C   0  0  0  0  0  0  0  0  0  0  0  0
  -27.3748  -24.3555   17.4122 C   0  0  0  0  0  0  0  0  0  0  0  0
  -26.7059  -24.9591   19.7051 C   0  0  0  0  0  0  0  0  0  0  0  0
  -21.1814  -12.0672   22.7844 C   0  0  1  0  0  0  0  0  0  0  0  0
  -24.1755  -13.8689   21.2935 C   0  0  1  0  0  0  0  0  0  0  0  0
  -26.9664  -26.4497   19.4335 C   0  0  2  0  0  0  0  0  0  0  0  0
  -30.1074  -18.4739   23.6806 C   0  0  0  0  0  0  0  0  0  0  0  0
  -31.9621  -13.7058   20.4347 C   0  0  0  0  0  0  0  0  0  0  0  0
  -26.6471  -11.1137   24.0613 C   0  0  0  0  0  0  0  0  0  0  0  0
  -29.1264  -11.1867   23.7210 C   0  0  0  0  0  0  0  0  0  0  0  0
  -27.6747  -10.0248   22.0581 C   0  0  0  0  0  0  0  0  0  0  0  0
  -28.9424  -14.8749   18.4371 C   0  0  0  0  0  0  0  0  0  0  0  0
  -29.5138  -20.9853   25.0405 C   0  0  0  0  0  0  0  0  0  0  0  0
  -29.9455  -18.3422   20.7745 C   0  0  0  0  0  0  0  0  0  0  0  0
  -26.1819  -20.1095   26.6224 C   0  0  0  0  0  0  0  0  0  0  0  0
  -25.8245  -18.8902   25.7864 C   0  0  0  0  0  0  0  0  0  1  0  0
  -27.6565  -12.5506   22.1686 C   0  0  1  0  0  0  0  0  0  0  0  0
  -30.5206  -13.6688   19.9514 C   0  0  2  0  0  0  0  0  0  0  0  0
  -27.7610  -11.2430   23.0033 C   0  0  0  0  0  0  0  0  0  0  0  0
  -24.8787  -26.9238   20.6576 N   0  0  0  0  0  0  0  0  0  0  0  0
  -26.1046  -27.3456   20.3035 N   0  0  0  0  0  0  0  0  0  0  0  0
  -25.5508  -13.7944   21.7908 N   0  0  0  0  0  0  0  0  0  0  0  0
  -27.5706  -24.1344   18.8466 N   0  0  0  0  0  0  0  0  0  0  0  0
  -27.6211  -29.1505   20.5346 N   0  0  0  0  0  0  0  0  0  0  0  0
  -24.0283  -30.4967   22.9169 N   0  0  0  0  0  0  0  0  0  0  0  0
  -28.6452  -23.0890   20.6673 N   0  0  0  0  0  0  0  0  0  0  0  0
  -22.1680  -12.6663   21.9114 N   0  0  0  0  0  0  0  0  0  0  0  0
  -28.3810  -20.3571   25.6813 N   0  0  0  0  0  0  0  0  0  0  0  0
  -28.6827  -12.6869   21.1406 N   0  0  0  0  0  0  0  0  0  0  0  0
  -30.3120  -14.8035   19.0081 N   0  3  0  0  0  0  0  0  0  0  0  0
  -26.1312  -31.0917   22.2224 O   0  0  0  0  0  0  0  0  0  0  0  0
  -23.5959  -13.4979   23.5522 O   0  0  0  0  0  0  0  0  0  0  0  0
  -25.9993  -11.8182   20.6377 O   0  0  0  0  0  0  0  0  0  0  0  0
  -26.9595  -22.1953   25.6665 O   0  0  0  0  0  0  0  0  0  0  0  0
  -29.5533  -14.6919   21.9148 O   0  0  0  0  0  0  0  0  0  0  0  0
  -29.2032  -22.5384   18.4839 O   0  0  0  0  0  0  0  0  0  0  0  0
  -19.3008  -27.6408   23.6444 O   0  0  0  0  0  0  0  0  0  0  0  0
  -25.2951  -19.3150   24.5312 O   0  0  0  0  0  0  0  0  0  1  0  0
  -16.0779  -32.0991   23.2700 F   0  0  0  0  0  0  0  0  0  0  0  0
  -16.8648  -27.5247   22.3424 F   0  0  0  0  0  0  0  0  0  0  0  0
  -29.4913  -18.4088   19.4921 F   0  0  0  0  0  0  0  0  0  0  0  0
  1  2  1  0  0  0  0
  1  5  2  0  0  0  0
  2  6  2  0  0  0  0
  3  8  2  0  0  0  0
  3 17  1  0  0  0  0
  4  9  1  0  0  0  0
  4 17  2  0  0  0  0
  5 19  1  0  0  0  0
  6 21  1  0  0  0  0
  7 10  2  0  0  0  0
  7 20  1  0  0  0  0
  8 27  1  0  0  0  0
  9 27  2  0  0  0  0
 10 28  1  0  0  0  0
 11 12  2  0  0  0  0
 11 29  1  0  0  0  0
 12 30  1  0  0  0  0
 13 22  1  0  0  0  0
 13 28  2  0  0  0  0
 14 23  1  0  0  0  0
 14 26  2  0  0  0  0
 15 24  2  0  0  0  0
 15 26  1  0  0  0  0
 16 30  2  0  0  0  0
 16 31  1  0  0  0  0
 17 32  1  0  0  0  0
 18 32  1  0  0  0  0
 18 33  2  0  0  0  0
 18 34  1  0  0  0  0
 19 21  2  0  0  0  0
 19 40  1  0  0  0  0
 20 22  2  0  0  0  0
 20 41  1  0  0  0  0
 21 49  1  0  0  0  0
 22 42  1  0  0  0  0
 23 25  2  0  0  0  0
 23 58  1  0  0  0  0
 24 25  1  0  0  0  0
 24 59  1  0  0  0  0
 25 52  1  0  0  0  0
 26 71  1  0  0  0  0
 27 82  1  0  0  0  0
 28 83  1  0  0  0  0
 29 31  2  0  0  0  0
 29 82  1  0  0  0  0
 30 84  1  0  0  0  0
 31 85  1  0  0  0  0
 32 65  2  0  0  0  0
 33 66  1  0  0  0  0
 33 69  1  0  0  0  0
 34 70  1  0  0  0  0
 34 76  2  0  0  0  0
 35 50  1  0  0  0  0
 35 72  1  0  0  0  0
 35 77  2  0  0  0  0
 36 62  1  0  0  0  0
 36 67  1  0  0  0  0
 36 78  2  0  0  0  0
 37 60  1  0  0  0  0
 37 73  1  0  0  0  0
 37 79  2  0  0  0  0
 38 63  1  0  0  0  0
 38 74  1  0  0  0  0
 38 80  2  0  0  0  0
 39 68  1  0  0  0  0
 39 71  1  0  0  0  0
 39 81  2  0  0  0  0
 40 43  1  0  0  0  0
 41 50  1  0  0  0  0
 42 67  1  0  0  0  0
 43 45  1  0  0  0  0
 44 46  1  0  0  0  0
 44 47  1  0  0  0  0
 45 49  1  0  0  0  0
 46 51  1  0  0  0  0
 47 68  1  0  0  0  0
 48 51  1  0  0  0  0
 48 68  1  0  0  0  0
 49 72  1  0  0  0  0
 50 67  1  0  0  0  0
 51 66  1  0  0  0  0
 53 63  1  0  0  0  0
 54 64  1  0  0  0  0
 55 64  1  0  0  0  0
 56 64  1  0  0  0  0
 57 75  1  0  0  0  0
 58 73  1  0  0  0  0
 59 86  1  0  0  0  0
 60 61  1  0  0  0  0
 61 83  1  0  0  0  0
 62 64  1  0  0  0  0
 62 74  1  0  0  0  0
 63 75  1  0  0  0  0
 65 66  1  0  0  0  0
M  CHG  1  75   1
M  ISO  4  39 100  61 101  71 100  83 101
M  END
> <Batch ID>
0051

> <Smiles>
CNC(C)C(=O)NC(C(=O)N1Cc2cc([101O:1][101CH2:1]CC(=O)NCc3cc([100NH:0][100C:0](=O)N4CCCC(n5nc(-c6ccc(Oc7ccc(F)cc7F)cc6)c(C(N)=O)c5N)C4)cc(CF)c3C)ccc2CC1C(=O)NC1CCCc2ccccc21)C(C)(C)C

> <Shape>
0.244

> <Color>
0.071

> <Negative vol penalty>
0.000

$$$$

  -OEChem-04042322373D

 87 95  0     1  0  0  0  0  0999 V2000
  -20.3334  -25.0703   22.5111 C   0  0  0  0  0  0  0  0  0  0  0  0
  -21.2765  -24.5427   23.3873 C   0  0  0  0  0  0  0  0  0  0  0  0
  -22.9857   -9.8469   20.0231 C   0  0  0  0  0  0  0  0  0  0  0  0
  -23.6734   -9.9878   22.3348 C   0  0  0  0  0  0  0  0  0  0  0  0
  -20.6989  -25.3867   21.2033 C   0  0  0  0  0  0  0  0  0  0  0  0
  -22.5854  -24.3302   22.9559 C   0  0  0  0  0  0  0  0  0  0  0  0
  -27.6976  -24.9207   26.2760 C   0  0  0  0  0  0  0  0  0  0  0  0
  -32.6230  -17.4787   23.3338 C   0  0  0  0  0  0  0  0  0  0  0  0
  -32.0272  -16.5570   22.4729 C   0  0  0  0  0  0  0  0  0  0  0  0
  -22.2105   -8.7265   20.3220 C   0  0  0  0  0  0  0  0  0  0  0  0
  -22.8982   -8.8675   22.6338 C   0  0  0  0  0  0  0  0  0  0  0  0
  -28.4974  -23.9916   26.9398 C   0  0  0  0  0  0  0  0  0  0  0  0
  -23.1371   -5.5115   22.3000 C   0  0  0  0  0  0  0  0  0  0  0  0
  -23.7083   -4.5234   23.1018 C   0  0  0  0  0  0  0  0  0  0  0  0
  -29.9663  -23.8995   25.0285 C   0  0  0  0  0  0  0  0  0  0  0  0
  -30.4547  -18.4280   23.8180 C   0  0  0  0  0  0  0  0  0  0  0  0
  -21.9583   -4.8389   24.7374 C   0  0  0  0  0  0  0  0  0  0  0  0
  -23.7172  -10.4775   21.0295 C   0  0  0  0  0  0  0  0  0  0  0  0
  -24.1152  -12.9828   20.7592 C   0  0  0  0  0  0  0  0  0  0  0  0
  -22.0153  -25.1870   20.7585 C   0  0  0  0  0  0  0  0  0  0  0  0
  -28.0206  -25.3387   24.9770 C   0  0  0  0  0  0  0  0  0  0  0  0
  -22.9684  -24.6430   21.6406 C   0  0  0  0  0  0  0  0  0  0  0  0
  -29.1703  -24.8360   24.3513 C   0  0  0  0  0  0  0  0  0  0  0  0
  -31.8367  -18.4142   24.0064 C   0  0  0  0  0  0  0  0  0  0  0  0
  -29.8589  -17.5063   22.9570 C   0  0  0  0  0  0  0  0  0  0  0  0
  -30.6452  -16.5708   22.2845 C   0  0  0  0  0  0  0  0  0  0  0  0
  -22.1667   -8.2368   21.6273 C   0  0  0  0  0  0  0  0  0  0  0  0
  -29.6304  -23.4786   26.3150 C   0  0  0  0  0  0  0  0  0  0  0  0
  -21.9765   -6.1634   22.7169 C   0  0  0  0  0  0  0  0  0  0  0  0
  -23.1189   -4.1871   24.3205 C   0  0  0  0  0  0  0  0  0  0  0  0
  -21.3871   -5.8271   23.9356 C   0  0  0  0  0  0  0  0  0  0  0  0
  -24.5187  -11.6346   20.7212 C   0  0  0  0  0  0  0  0  0  0  0  0
  -25.2336  -13.6865   20.3845 C   0  0  0  0  0  0  0  0  0  0  0  0
  -34.2601  -16.6942   26.4224 C   0  0  0  0  0  0  0  0  0  0  0  0
  -22.8433  -13.5484   21.1026 C   0  0  0  0  0  0  0  0  0  0  0  0
  -33.6984  -17.7567   27.0195 C   0  0  0  0  0  0  0  0  0  0  0  0
  -26.5924  -25.1603   22.1429 C   0  0  0  0  0  0  0  0  0  0  0  0
  -29.0877  -27.0084   21.2045 C   0  0  0  0  0  0  0  0  0  0  0  0
  -31.2945  -20.3346   26.9290 C   0  0  0  0  0  0  0  0  0  0  0  0
  -32.2945  -28.0408   21.7501 C   0  0  0  0  0  0  0  0  0  0  0  0
  -30.7123  -14.6383   20.6698 C   0  0  0  0  0  0  0  0  0  0  0  0
  -22.3515  -25.5000   19.3220 C   0  0  0  0  0  0  0  0  0  0  0  0
  -27.1623  -26.3618   24.2848 C   0  0  0  0  0  0  0  0  0  0  0  0
  -29.5720  -25.2676   22.9654 C   0  0  0  0  0  0  0  0  0  0  0  0
  -23.8514  -25.5946   19.0542 C   0  0  0  0  0  0  0  0  0  0  0  0
  -29.6224  -12.0978   18.4259 C   0  0  0  0  0  0  0  0  0  0  0  0
  -24.5832  -24.4192   19.6942 C   0  0  0  0  0  0  0  0  0  0  0  0
  -28.1643  -11.8617   18.8261 C   0  0  0  0  0  0  0  0  0  0  0  0
  -30.5041  -12.3865   19.6396 C   0  0  0  0  0  0  0  0  0  0  0  0
  -28.5703  -13.2345   20.9088 C   0  0  0  0  0  0  0  0  0  0  0  0
  -24.4043  -24.4212   21.2172 C   0  0  1  0  0  0  0  0  0  0  0  0
  -27.3015  -26.3294   22.7659 C   0  0  1  0  0  0  0  0  0  0  0  0
  -27.6314  -13.0038   19.7134 C   0  0  2  0  0  0  0  0  0  0  0  0
  -28.3765  -17.5461   22.7719 C   0  0  0  0  0  0  0  0  0  0  0  0
  -34.5159  -18.7240   27.8278 C   0  0  0  0  0  0  0  0  0  0  0  0
  -34.0751  -29.5275   20.7928 C   0  0  0  0  0  0  0  0  0  0  0  0
  -29.6300  -24.9482   19.0201 C   0  0  0  0  0  0  0  0  0  0  0  0
  -31.9035  -25.9561   18.7310 C   0  0  0  0  0  0  0  0  0  0  0  0
  -29.8676  -27.3287   18.2912 C   0  0  0  0  0  0  0  0  0  0  0  0
  -32.3874  -29.7010   24.1983 C   0  0  0  0  0  0  0  0  0  0  0  0
  -32.4784  -19.4078   24.9311 C   0  0  0  0  0  0  0  0  0  0  0  0
  -32.2196  -18.0089   26.9422 C   0  0  0  0  0  0  0  0  0  0  0  0
  -31.1067  -21.6212   26.1530 C   0  0  0  0  0  0  0  0  0  1  0  0
  -30.4756  -26.7415   20.6740 C   0  0  1  0  0  0  0  0  0  0  0  0
  -32.9169  -29.4252   21.7729 C   0  0  2  0  0  0  0  0  0  0  0  0
  -30.4608  -26.2338   19.2044 C   0  0  0  0  0  0  0  0  0  0  0  0
  -25.7937  -11.4881   20.3513 N   0  0  0  0  0  0  0  0  0  0  0  0
  -26.2011  -12.7534   20.1534 N   0  0  0  0  0  0  0  0  0  0  0  0
  -28.6972  -26.2652   22.3275 N   0  0  0  0  0  0  0  0  0  0  0  0
  -29.9395  -13.4823   20.4305 N   0  0  0  0  0  0  0  0  0  0  0  0
  -25.4739  -15.0063   20.2332 N   0  0  0  0  0  0  0  0  0  0  0  0
  -21.8026  -12.6821   21.4643 N   0  0  0  0  0  0  0  0  0  0  0  0
  -30.0591  -15.6263   21.4058 N   0  0  0  0  0  0  0  0  0  0  0  0
  -25.2702  -25.4079   21.8265 N   0  0  0  0  0  0  0  0  0  0  0  0
  -31.2325  -27.9727   20.8732 N   0  0  0  0  0  0  0  0  0  0  0  0
  -31.9702  -19.2931   26.2926 N   0  0  0  0  0  0  0  0  0  0  0  0
  -33.4264  -29.7416   23.1372 N   0  3  0  0  0  0  0  0  0  0  0  0
  -22.6311  -14.7844   21.0733 O   0  0  0  0  0  0  0  0  0  0  0  0
  -27.2002  -24.1119   21.9612 O   0  0  0  0  0  0  0  0  0  0  0  0
  -28.3789  -27.8505   20.6476 O   0  0  0  0  0  0  0  0  0  0  0  0
  -30.8531  -20.2666   28.0803 O   0  0  0  0  0  0  0  0  0  0  0  0
  -32.7112  -27.1117   22.4382 O   0  0  0  0  0  0  0  0  0  0  0  0
  -31.8587  -14.7552   20.2293 O   0  0  0  0  0  0  0  0  0  0  0  0
  -21.4102   -7.1437   21.9194 O   0  0  0  0  0  0  0  0  0  0  0  0
  -30.4125  -22.5711   26.9604 O   0  0  0  0  0  0  0  0  0  1  0  0
  -23.6667   -3.2371   25.0896 F   0  0  0  0  0  0  0  0  0  0  0  0
  -20.2714   -6.4491   24.3409 F   0  0  0  0  0  0  0  0  0  0  0  0
  1  2  1  0  0  0  0
  1  5  2  0  0  0  0
  2  6  2  0  0  0  0
  3 10  2  0  0  0  0
  3 18  1  0  0  0  0
  4 11  1  0  0  0  0
  4 18  2  0  0  0  0
  5 20  1  0  0  0  0
  6 22  1  0  0  0  0
  7 12  2  0  0  0  0
  7 21  1  0  0  0  0
  8  9  2  0  0  0  0
  8 24  1  0  0  0  0
  9 26  1  0  0  0  0
 10 27  1  0  0  0  0
 11 27  2  0  0  0  0
 12 28  1  0  0  0  0
 13 14  2  0  0  0  0
 13 29  1  0  0  0  0
 14 30  1  0  0  0  0
 15 23  1  0  0  0  0
 15 28  2  0  0  0  0
 16 24  2  0  0  0  0
 16 25  1  0  0  0  0
 17 30  2  0  0  0  0
 17 31  1  0  0  0  0
 18 32  1  0  0  0  0
 19 32  1  0  0  0  0
 19 33  2  0  0  0  0
 19 35  1  0  0  0  0
 20 22  2  0  0  0  0
 20 42  1  0  0  0  0
 21 23  2  0  0  0  0
 21 43  1  0  0  0  0
 22 51  1  0  0  0  0
 23 44  1  0  0  0  0
 24 61  1  0  0  0  0
 25 26  2  0  0  0  0
 25 54  1  0  0  0  0
 26 73  1  0  0  0  0
 27 84  1  0  0  0  0
 28 85  1  0  0  0  0
 29 31  2  0  0  0  0
 29 84  1  0  0  0  0
 30 86  1  0  0  0  0
 31 87  1  0  0  0  0
 32 67  2  0  0  0  0
 33 68  1  0  0  0  0
 33 71  1  0  0  0  0
 34 36  2  0  0  0  0
 35 72  1  0  0  0  0
 35 78  2  0  0  0  0
 36 55  1  0  0  0  0
 36 62  1  0  0  0  0
 37 52  1  0  0  0  0
 37 74  1  0  0  0  0
 37 79  2  0  0  0  0
 38 64  1  0  0  0  0
 38 69  1  0  0  0  0
 38 80  2  0  0  0  0
 39 63  1  0  0  0  0
 39 76  1  0  0  0  0
 39 81  2  0  0  0  0
 40 65  1  0  0  0  0
 40 75  1  0  0  0  0
 40 82  2  0  0  0  0
 41 70  1  0  0  0  0
 41 73  1  0  0  0  0
 41 83  2  0  0  0  0
 42 45  1  0  0  0  0
 43 52  1  0  0  0  0
 44 69  1  0  0  0  0
 45 47  1  0  0  0  0
 46 48  1  0  0  0  0
 46 49  1  0  0  0  0
 47 51  1  0  0  0  0
 48 53  1  0  0  0  0
 49 70  1  0  0  0  0
 50 53  1  0  0  0  0
 50 70  1  0  0  0  0
 51 74  1  0  0  0  0
 52 69  1  0  0  0  0
 53 68  1  0  0  0  0
 56 65  1  0  0  0  0
 57 66  1  0  0  0  0
 58 66  1  0  0  0  0
 59 66  1  0  0  0  0
 60 77  1  0  0  0  0
 61 76  1  0  0  0  0
 62 76  1  0  0  0  0
 63 85  1  0  0  0  0
 64 66  1  0  0  0  0
 64 75  1  0  0  0  0
 65 77  1  0  0  0  0
 67 68  1  0  0  0  0
M  CHG  1  77   1
M  ISO  4  41 100  63 101  73 100  85 101
M  END
> <Batch ID>
0051

> <Smiles>
C=C(C)CN(Cc1ccc([100NH:0][100C:0](=O)N2CCCC(n3nc(-c4ccc(Oc5ccc(F)cc5F)cc4)c(C(N)=O)c3N)C2)c(C)c1)C(=O)[101CH2:1][101O:1]c1ccc2c(c1)CN(C(=O)C(NC(=O)C(C)NC)C(C)(C)C)C(C(=O)NC1CCCc3ccccc31)C2

> <Shape>
0.234

> <Color>
0.205

> <Negative vol penalty>
0.000

$$$$

  -OEChem-04042322373D

 89 98  0     1  0  0  0  0  0999 V2000
  -24.8055  -31.7703   13.1103 C   0  0  0  0  0  0  0  0  0  0  0  0
  -25.5611  -30.6703   13.5034 C   0  0  0  0  0  0  0  0  0  0  0  0
  -22.9326  -10.0812   20.4730 C   0  0  0  0  0  0  0  0  0  0  0  0
  -24.4512   -9.1391   22.0989 C   0  0  0  0  0  0  0  0  0  0  0  0
  -24.6422  -32.8487   13.9788 C   0  0  0  0  0  0  0  0  0  0  0  0
  -26.1549  -30.6487   14.7649 C   0  0  0  0  0  0  0  0  0  0  0  0
  -26.9867  -25.7601   18.3587 C   0  0  0  0  0  0  0  0  0  0  0  0
  -22.2360   -8.8738   20.4240 C   0  0  0  0  0  0  0  0  0  0  0  0
  -23.7545   -7.9317   22.0499 C   0  0  0  0  0  0  0  0  0  0  0  0
  -28.0905  -24.9388   18.5845 C   0  0  0  0  0  0  0  0  0  0  0  0
  -20.8946   -6.6549   23.3191 C   0  0  0  0  0  0  0  0  0  0  0  0
  -20.5991   -6.0294   24.5303 C   0  0  0  0  0  0  0  0  0  0  0  0
  -28.6533  -26.2417   20.5351 C   0  0  0  0  0  0  0  0  0  0  0  0
  -30.7162  -18.0156   24.3463 C   0  0  0  0  0  0  0  0  0  0  0  0
  -31.3132  -17.5012   21.6701 C   0  0  0  0  0  0  0  0  0  0  0  0
  -21.8628   -4.0903   23.8371 C   0  0  0  0  0  0  0  0  0  0  0  0
  -24.0403  -10.2139   21.3104 C   0  0  0  0  0  0  0  0  0  0  0  0
  -24.5168  -12.5492   22.2198 C   0  0  0  0  0  0  0  0  0  0  0  0
  -25.2262  -32.8361   15.2553 C   0  0  0  0  0  0  0  0  0  0  0  0
  -26.7137  -26.8368   19.2147 C   0  0  0  0  0  0  0  0  0  0  0  0
  -26.0004  -31.7285   15.6508 C   0  0  0  0  0  0  0  0  0  0  0  0
  -27.5440  -27.0736   20.3195 C   0  0  0  0  0  0  0  0  0  0  0  0
  -31.2910  -19.0110   23.5561 C   0  0  0  0  0  0  0  0  0  0  0  0
  -30.4400  -16.7629   23.7984 C   0  0  0  0  0  0  0  0  0  0  0  0
  -31.5895  -18.7538   22.2181 C   0  0  0  0  0  0  0  0  0  0  0  0
  -30.7385  -16.5057   22.4603 C   0  0  0  0  0  0  0  0  0  0  0  0
  -22.6469   -7.7990   21.2125 C   0  0  0  0  0  0  0  0  0  0  0  0
  -28.9256  -25.1813   19.6712 C   0  0  0  0  0  0  0  0  0  0  0  0
  -21.6741   -5.9981   22.3668 C   0  0  0  0  0  0  0  0  0  0  0  0
  -21.0832   -4.7471   24.7893 C   0  0  0  0  0  0  0  0  0  0  0  0
  -22.1582   -4.7159   22.6259 C   0  0  0  0  0  0  0  0  0  0  0  0
  -24.7607  -11.4607   21.3610 C   0  0  0  0  0  0  0  0  0  0  0  0
  -25.4661  -13.4793   21.8733 C   0  0  0  0  0  0  0  0  0  0  0  0
  -31.0294  -20.2990   17.7668 C   0  0  0  0  0  0  0  0  0  0  0  0
  -30.6507  -21.5669   17.5651 C   0  0  0  0  0  0  0  0  0  0  0  0
  -31.8743  -19.8919   18.9145 C   0  0  0  0  0  0  0  0  0  0  0  0
  -23.5212  -12.7055   23.2396 C   0  0  0  0  0  0  0  0  0  0  0  0
  -26.5430  -29.9917   18.8666 C   0  0  0  0  0  0  0  0  0  0  0  0
  -25.5223  -29.8847   21.9438 C   0  0  0  0  0  0  0  0  0  0  0  0
  -25.4501  -28.2086   24.9157 C   0  0  0  0  0  0  0  0  0  0  0  0
  -30.7065  -14.8386   20.5719 C   0  0  0  0  0  0  0  0  0  0  0  0
  -25.0610  -34.0454   16.1412 C   0  0  0  0  0  0  0  0  0  0  0  0
  -25.5039  -27.6971   18.9727 C   0  0  0  0  0  0  0  0  0  0  0  0
  -27.2830  -28.2041   21.2798 C   0  0  0  0  0  0  0  0  0  0  0  0
  -30.9876  -22.7471   18.4271 C   0  0  0  0  0  0  0  0  0  0  0  0
  -25.4121  -33.7820   17.6032 C   0  0  0  0  0  0  0  0  0  0  0  0
  -28.6402  -13.6362   17.9334 C   0  0  0  0  0  0  0  0  0  0  0  0
  -26.7324  -33.0251   17.7072 C   0  0  0  0  0  0  0  0  0  0  0  0
  -27.4266  -13.0526   18.6606 C   0  0  0  0  0  0  0  0  0  0  0  0
  -30.0026  -22.1505   20.7299 C   0  0  0  0  0  0  0  0  0  0  0  0
  -29.9357  -13.3910   18.7050 C   0  0  0  0  0  0  0  0  0  0  0  0
  -30.0249  -20.6391   20.4968 C   0  0  0  0  0  0  0  0  0  0  0  0
  -28.7030  -13.2470   20.8332 C   0  0  0  0  0  0  0  0  0  0  0  0
  -26.6396  -31.6571   17.0206 C   0  0  1  0  0  0  0  0  0  0  0  0
  -25.6141  -29.0770   19.6139 C   0  0  1  0  0  0  0  0  0  0  0  0
  -27.3665  -13.5258   20.1262 C   0  0  2  0  0  0  0  0  0  0  0  0
  -29.9025  -23.0194   19.4702 C   0  0  1  0  0  0  0  0  0  1  0  0
  -31.5780  -20.3444   24.1646 C   0  0  0  0  0  0  0  0  0  0  0  0
  -29.8240  -15.7154   24.6680 C   0  0  0  0  0  0  0  0  0  0  0  0
  -24.5684  -28.3892   27.2582 C   0  0  0  0  0  0  0  0  0  0  0  0
  -27.7064  -31.9094   22.6073 C   0  0  0  0  0  0  0  0  0  0  0  0
  -27.4086  -31.3336   25.0256 C   0  0  0  0  0  0  0  0  0  0  0  0
  -25.5165  -32.3285   23.7400 C   0  0  0  0  0  0  0  0  0  0  0  0
  -23.8259  -25.7526   24.6175 C   0  0  0  0  0  0  0  0  0  0  0  0
  -32.2085  -19.8096   21.3484 C   0  0  0  0  0  0  0  0  0  0  0  0
  -26.1935  -29.9336   23.2951 C   0  0  1  0  0  0  0  0  0  0  0  0
  -24.3054  -27.8695   25.8534 C   0  0  2  0  0  0  0  0  0  0  0  0
  -26.7126  -31.3561   23.6480 C   0  0  0  0  0  0  0  0  0  0  0  0
  -25.7846  -11.6779   20.5312 N   0  0  0  0  0  0  0  0  0  0  0  0
  -26.1924  -12.9136   20.8670 N   0  0  0  0  0  0  0  0  0  0  0  0
  -31.3725  -20.1262   20.1949 N   0  0  0  0  0  0  0  0  0  0  0  0
  -26.0913  -29.0211   20.9971 N   0  0  0  0  0  0  0  0  0  0  0  0
  -29.8060  -13.8684   20.0835 N   0  0  0  0  0  0  0  0  0  0  0  0
  -25.7421  -14.7178   22.3342 N   0  0  0  0  0  0  0  0  0  0  0  0
  -22.6248  -11.6519   23.4652 N   0  0  0  0  0  0  0  0  0  0  0  0
  -30.4653  -15.2397   21.8855 N   0  0  0  0  0  0  0  0  0  0  0  0
  -25.9311  -30.7165   17.8618 N   0  0  0  0  0  0  0  0  0  0  0  0
  -25.2299  -29.3954   24.2492 N   0  0  0  0  0  0  0  0  0  0  0  0
  -24.1155  -26.3932   25.9263 N   0  3  0  0  0  0  0  0  0  0  0  0
  -32.9503  -19.3460   18.6660 O   0  0  0  0  0  0  0  0  0  0  0  0
  -23.4187  -13.7549   23.9191 O   0  0  0  0  0  0  0  0  0  0  0  0
  -27.7269  -30.0376   19.1796 O   0  0  0  0  0  0  0  0  0  0  0  0
  -24.5255  -30.5816   21.7382 O   0  0  0  0  0  0  0  0  0  0  0  0
  -26.4422  -27.4941   24.7901 O   0  0  0  0  0  0  0  0  0  0  0  0
  -31.6074  -15.3009   19.8672 O   0  0  0  0  0  0  0  0  0  0  0  0
  -21.9672   -6.6208   21.1652 O   0  0  0  0  0  0  0  0  0  0  0  0
  -30.0040  -24.3816   19.8934 O   0  0  0  0  0  0  0  0  0  1  0  0
  -20.8007   -4.1472   25.9531 F   0  0  0  0  0  0  0  0  0  0  0  0
  -22.9086   -4.0804   21.7155 F   0  0  0  0  0  0  0  0  0  0  0  0
  1  2  1  0  0  0  0
  1  5  2  0  0  0  0
  2  6  2  0  0  0  0
  3  8  2  0  0  0  0
  3 17  1  0  0  0  0
  4  9  1  0  0  0  0
  4 17  2  0  0  0  0
  5 19  1  0  0  0  0
  6 21  1  0  0  0  0
  7 10  2  0  0  0  0
  7 20  1  0  0  0  0
  8 27  1  0  0  0  0
  9 27  2  0  0  0  0
 10 28  1  0  0  0  0
 11 12  2  0  0  0  0
 11 29  1  0  0  0  0
 12 30  1  0  0  0  0
 13 22  1  0  0  0  0
 13 28  2  0  0  0  0
 14 23  1  0  0  0  0
 14 24  2  0  0  0  0
 15 25  1  0  0  0  0
 15 26  2  0  0  0  0
 16 30  2  0  0  0  0
 16 31  1  0  0  0  0
 17 32  1  0  0  0  0
 18 32  1  0  0  0  0
 18 33  2  0  0  0  0
 18 37  1  0  0  0  0
 19 21  2  0  0  0  0
 19 42  1  0  0  0  0
 20 22  2  0  0  0  0
 20 43  1  0  0  0  0
 21 54  1  0  0  0  0
 22 44  1  0  0  0  0
 23 25  2  0  0  0  0
 23 58  1  0  0  0  0
 24 26  1  0  0  0  0
 24 59  1  0  0  0  0
 25 65  1  0  0  0  0
 26 76  1  0  0  0  0
 27 86  1  0  0  0  0
 28 87  1  0  0  0  0
 29 31  2  0  0  0  0
 29 86  1  0  0  0  0
 30 88  1  0  0  0  0
 31 89  1  0  0  0  0
 32 69  2  0  0  0  0
 33 70  1  0  0  0  0
 33 74  1  0  0  0  0
 34 35  2  0  0  0  0
 34 36  1  0  0  0  0
 35 45  1  0  0  0  0
 36 71  1  0  0  0  0
 36 80  2  0  0  0  0
 37 75  1  0  0  0  0
 37 81  2  0  0  0  0
 38 55  1  0  0  0  0
 38 77  1  0  0  0  0
 38 82  2  0  0  0  0
 39 66  1  0  0  0  0
 39 72  1  0  0  0  0
 39 83  2  0  0  0  0
 40 67  1  0  0  0  0
 40 78  1  0  0  0  0
 40 84  2  0  0  0  0
 41 73  1  0  0  0  0
 41 76  1  0  0  0  0
 41 85  2  0  0  0  0
 42 46  1  0  0  0  0
 43 55  1  0  0  0  0
 44 72  1  0  0  0  0
 45 57  1  0  0  0  0
 46 48  1  0  0  0  0
 47 49  1  0  0  0  0
 47 51  1  0  0  0  0
 48 54  1  0  0  0  0
 49 56  1  0  0  0  0
 50 52  1  0  0  0  0
 50 57  1  0  0  0  0
 51 73  1  0  0  0  0
 52 71  1  0  0  0  0
 53 56  1  0  0  0  0
 53 73  1  0  0  0  0
 54 77  1  0  0  0  0
 55 72  1  0  0  0  0
 56 70  1  0  0  0  0
 57 87  1  0  0  0  0
 60 67  1  0  0  0  0
 61 68  1  0  0  0  0
 62 68  1  0  0  0  0
 63 68  1  0  0  0  0
 64 79  1  0  0  0  0
 65 71  1  0  0  0  0
 66 68  1  0  0  0  0
 66 78  1  0  0  0  0
 67 79  1  0  0  0  0
 69 70  1  0  0  0  0
M  CHG  1  79   1
M  ISO  4  41 100  57 101  76 100  87 101
M  END
> <Batch ID>
0051

> <Smiles>
CNC(C)C(=O)NC(C(=O)N1Cc2cc([101O:1][101CH:1]3CC=CC(=O)N(Cc4cc([100NH:0][100C:0](=O)N5CCCC(n6nc(-c7ccc(Oc8ccc(F)cc8F)cc7)c(C(N)=O)c6N)C5)c(C)cc4C)CC3)ccc2CC1C(=O)NC1CCCc2ccccc21)C(C)(C)C

> <Shape>
0.296

> <Color>
0.132

> <Negative vol penalty>
0.000

$$$$

  -OEChem-04042322373D

 85 93  0     1  0  0  0  0  0999 V2000
  -16.3488  -28.9831   23.3992 C   0  0  0  0  0  0  0  0  0  0  0  0
  -17.1980  -28.6352   22.3537 C   0  0  0  0  0  0  0  0  0  0  0  0
  -27.6002  -13.4436   21.7564 C   0  0  0  0  0  0  0  0  0  0  0  0
  -27.1868  -13.9833   19.4381 C   0  0  0  0  0  0  0  0  0  0  0  0
  -16.7892  -29.8573   24.3921 C   0  0  0  0  0  0  0  0  0  0  0  0
  -18.4879  -29.1622   22.2998 C   0  0  0  0  0  0  0  0  0  0  0  0
  -23.5251  -26.3626   20.2273 C   0  0  0  0  0  0  0  0  0  0  0  0
  -32.5000  -24.0906   16.2400 C   0  0  0  0  0  0  0  0  0  0  0  0
  -26.7228  -12.3635   21.6615 C   0  0  0  0  0  0  0  0  0  0  0  0
  -26.3095  -12.9031   19.3430 C   0  0  0  0  0  0  0  0  0  0  0  0
  -24.1938  -26.4186   19.0053 C   0  0  0  0  0  0  0  0  0  0  0  0
  -26.7796   -9.2073   20.4497 C   0  0  0  0  0  0  0  0  0  0  0  0
  -27.1844   -7.9927   21.0033 C   0  0  0  0  0  0  0  0  0  0  0  0
  -32.9532  -22.7872   16.4436 C   0  0  0  0  0  0  0  0  0  0  0  0
  -25.7035  -28.0662   19.9138 C   0  0  0  0  0  0  0  0  0  0  0  0
  -30.9290  -23.8281   18.0566 C   0  0  0  0  0  0  0  0  0  0  0  0
  -25.2749   -8.0307   22.4830 C   0  0  0  0  0  0  0  0  0  0  0  0
  -27.8322  -14.2536   20.6448 C   0  0  0  0  0  0  0  0  0  0  0  0
  -30.1236  -15.3646   20.4939 C   0  0  0  0  0  0  0  0  0  0  0  0
  -18.0884  -30.3877   24.3555 C   0  0  0  0  0  0  0  0  0  0  0  0
  -23.9345  -27.1674   21.3003 C   0  0  0  0  0  0  0  0  0  0  0  0
  -18.9457  -30.0454   23.2923 C   0  0  0  0  0  0  0  0  0  0  0  0
  -25.0399  -28.0167   21.1492 C   0  0  0  0  0  0  0  0  0  0  0  0
  -31.4879  -24.6111   17.0465 C   0  0  0  0  0  0  0  0  0  0  0  0
  -31.3821  -22.5247   18.2601 C   0  0  0  0  0  0  0  0  0  0  0  0
  -26.0775  -12.0932   20.4548 C   0  0  0  0  0  0  0  0  0  0  0  0
  -25.2814  -27.2726   18.8475 C   0  0  0  0  0  0  0  0  0  0  0  0
  -25.6225   -9.8336   20.9128 C   0  0  0  0  0  0  0  0  0  0  0  0
  -26.4321   -7.4044   22.0199 C   0  0  0  0  0  0  0  0  0  0  0  0
  -24.8701   -9.2453   21.9294 C   0  0  0  0  0  0  0  0  0  0  0  0
  -32.3943  -22.0043   17.4536 C   0  0  0  0  0  0  0  0  0  0  0  0
  -28.7379  -15.3699   20.7424 C   0  0  0  0  0  0  0  0  0  0  0  0
  -30.5187  -16.6597   20.7241 C   0  0  0  0  0  0  0  0  0  0  0  0
  -30.9772  -14.2854   20.0910 C   0  0  0  0  0  0  0  0  0  0  0  0
  -22.5868  -29.4851   23.0077 C   0  0  0  0  0  0  0  0  0  0  0  0
  -25.3027  -29.2379   24.7642 C   0  0  0  0  0  0  0  0  0  0  0  0
  -28.4946  -26.0769   16.8683 C   0  0  0  0  0  0  0  0  0  0  0  0
  -28.5860  -28.3182   24.9085 C   0  0  0  0  0  0  0  0  0  0  0  0
  -29.7785  -22.1501   20.1666 C   0  0  0  0  0  0  0  0  0  0  0  0
  -18.5035  -31.3659   25.4258 C   0  0  0  0  0  0  0  0  0  0  0  0
  -23.2192  -27.0756   22.6202 C   0  0  0  0  0  0  0  0  0  0  0  0
  -25.5318  -28.8862   22.2763 C   0  0  0  0  0  0  0  0  0  0  0  0
  -20.0123  -31.5865   25.4973 C   0  0  0  0  0  0  0  0  0  0  0  0
  -28.0318  -20.5394   22.8183 C   0  0  0  0  0  0  0  0  0  0  0  0
  -20.5865  -31.8058   24.1012 C   0  0  0  0  0  0  0  0  0  0  0  0
  -28.1738  -19.0505   22.4942 C   0  0  0  0  0  0  0  0  0  0  0  0
  -27.8660  -21.3816   21.5546 C   0  0  0  0  0  0  0  0  0  0  0  0
  -29.0407  -19.6865   20.2070 C   0  0  0  0  0  0  0  0  0  0  0  0
  -20.3603  -30.5768   23.2124 C   0  0  1  0  0  0  0  0  0  0  0  0
  -23.4024  -28.3177   23.4868 C   0  0  1  0  0  0  0  0  0  0  0  0
  -29.2753  -18.8048   21.4444 C   0  0  2  0  0  0  0  0  0  0  0  0
  -30.5522  -28.2720   26.4672 C   0  0  0  0  0  0  0  0  0  0  0  0
  -25.6799  -32.2404   24.3735 C   0  0  0  0  0  0  0  0  0  0  0  0
  -28.0603  -31.9652   25.0988 C   0  0  0  0  0  0  0  0  0  0  0  0
  -26.2065  -31.4135   26.6742 C   0  0  0  0  0  0  0  0  0  0  0  0
  -29.7523  -26.0361   14.7032 C   0  0  0  0  0  0  0  0  0  0  0  0
  -28.7864  -25.3694   24.7545 C   0  0  0  0  0  0  0  0  0  0  0  0
  -31.0007  -26.0142   16.8273 C   0  0  0  0  0  0  0  0  0  0  0  0
  -27.2227  -26.1060   16.0271 C   0  0  0  0  0  0  0  0  0  0  0  0
  -25.9512  -26.1413   16.8657 C   0  0  0  0  0  0  0  0  0  1  0  0
  -26.6681  -29.8801   24.7177 C   0  0  1  0  0  0  0  0  0  0  0  0
  -29.3590  -27.4995   25.9267 C   0  0  2  0  0  0  0  0  0  0  0  0
  -26.6435  -31.3600   25.1940 C   0  0  0  0  0  0  0  0  0  0  0  0
  -28.2833  -16.5730   21.1030 N   0  0  0  0  0  0  0  0  0  0  0  0
  -29.3897  -17.3357   21.0828 N   0  0  0  0  0  0  0  0  0  0  0  0
  -24.7954  -28.7654   23.5455 N   0  0  0  0  0  0  0  0  0  0  0  0
  -28.9473  -21.0990   20.6082 N   0  0  0  0  0  0  0  0  0  0  0  0
  -31.7182  -17.2749   20.6527 N   0  0  0  0  0  0  0  0  0  0  0  0
  -30.4079  -13.0193   19.8985 N   0  0  0  0  0  0  0  0  0  0  0  0
  -30.7922  -21.7558   19.2939 N   0  0  0  0  0  0  0  0  0  0  0  0
  -21.3117  -29.5358   23.5377 N   0  0  0  0  0  0  0  0  0  0  0  0
  -27.5518  -29.0171   25.4941 N   0  0  0  0  0  0  0  0  0  0  0  0
  -29.7011  -26.0437   16.1601 N   0  0  0  0  0  0  0  0  0  0  0  0
  -29.8568  -26.2387   25.3073 N   0  3  0  0  0  0  0  0  0  0  0  0
  -32.2112  -14.4357   19.9230 O   0  0  0  0  0  0  0  0  0  0  0  0
  -23.0785  -30.2818   22.2170 O   0  0  0  0  0  0  0  0  0  0  0  0
  -24.7113  -29.1519   25.8432 O   0  0  0  0  0  0  0  0  0  0  0  0
  -28.4320  -26.0838   18.1005 O   0  0  0  0  0  0  0  0  0  0  0  0
  -28.8735  -28.3387   23.7137 O   0  0  0  0  0  0  0  0  0  0  0  0
  -29.6208  -23.3098   20.5566 O   0  0  0  0  0  0  0  0  0  0  0  0
  -25.2214  -11.0391   20.3616 O   0  0  0  0  0  0  0  0  0  0  0  0
  -25.9355  -27.3297   17.6555 O   0  0  0  0  0  0  0  0  0  1  0  0
  -26.8201   -6.2372   22.5504 F   0  0  0  0  0  0  0  0  0  0  0  0
  -23.7569   -9.8417   22.3776 F   0  0  0  0  0  0  0  0  0  0  0  0
  -32.9852  -20.3954   17.6707 Cl  0  0  0  0  0  0  0  0  0  0  0  0
  1  2  1  0  0  0  0
  1  5  2  0  0  0  0
  2  6  2  0  0  0  0
  3  9  2  0  0  0  0
  3 18  1  0  0  0  0
  4 10  1  0  0  0  0
  4 18  2  0  0  0  0
  5 20  1  0  0  0  0
  6 22  1  0  0  0  0
  7 11  2  0  0  0  0
  7 21  1  0  0  0  0
  8 14  2  0  0  0  0
  8 24  1  0  0  0  0
  9 26  1  0  0  0  0
 10 26  2  0  0  0  0
 11 27  1  0  0  0  0
 12 13  2  0  0  0  0
 12 28  1  0  0  0  0
 13 29  1  0  0  0  0
 14 31  1  0  0  0  0
 15 23  1  0  0  0  0
 15 27  2  0  0  0  0
 16 24  2  0  0  0  0
 16 25  1  0  0  0  0
 17 29  2  0  0  0  0
 17 30  1  0  0  0  0
 18 32  1  0  0  0  0
 19 32  1  0  0  0  0
 19 33  2  0  0  0  0
 19 34  1  0  0  0  0
 20 22  2  0  0  0  0
 20 40  1  0  0  0  0
 21 23  2  0  0  0  0
 21 41  1  0  0  0  0
 22 49  1  0  0  0  0
 23 42  1  0  0  0  0
 24 58  1  0  0  0  0
 25 31  2  0  0  0  0
 25 70  1  0  0  0  0
 26 81  1  0  0  0  0
 27 82  1  0  0  0  0
 28 30  2  0  0  0  0
 28 81  1  0  0  0  0
 29 83  1  0  0  0  0
 30 84  1  0  0  0  0
 31 85  1  0  0  0  0
 32 64  2  0  0  0  0
 33 65  1  0  0  0  0
 33 68  1  0  0  0  0
 34 69  1  0  0  0  0
 34 75  2  0  0  0  0
 35 50  1  0  0  0  0
 35 71  1  0  0  0  0
 35 76  2  0  0  0  0
 36 61  1  0  0  0  0
 36 66  1  0  0  0  0
 36 77  2  0  0  0  0
 37 59  1  0  0  0  0
 37 73  1  0  0  0  0
 37 78  2  0  0  0  0
 38 62  1  0  0  0  0
 38 72  1  0  0  0  0
 38 79  2  0  0  0  0
 39 67  1  0  0  0  0
 39 70  1  0  0  0  0
 39 80  2  0  0  0  0
 40 43  1  0  0  0  0
 41 50  1  0  0  0  0
 42 66  1  0  0  0  0
 43 45  1  0  0  0  0
 44 46  1  0  0  0  0
 44 47  1  0  0  0  0
 45 49  1  0  0  0  0
 46 51  1  0  0  0  0
 47 67  1  0  0  0  0
 48 51  1  0  0  0  0
 48 67  1  0  0  0  0
 49 71  1  0  0  0  0
 50 66  1  0  0  0  0
 51 65  1  0  0  0  0
 52 62  1  0  0  0  0
 53 63  1  0  0  0  0
 54 63  1  0  0  0  0
 55 63  1  0  0  0  0
 56 73  1  0  0  0  0
 57 74  1  0  0  0  0
 58 73  1  0  0  0  0
 59 60  1  0  0  0  0
 60 82  1  0  0  0  0
 61 63  1  0  0  0  0
 61 72  1  0  0  0  0
 62 74  1  0  0  0  0
 64 65  1  0  0  0  0
M  CHG  1  74   1
M  ISO  4  39 100  60 101  70 100  82 101
M  END
> <Batch ID>
0051

> <Smiles>
CNC(C)C(=O)NC(C(=O)N1Cc2cc([101O:1][101CH2:1]CC(=O)N(C)Cc3ccc(Cl)c([100NH:0][100C:0](=O)N4CCCC(n5nc(-c6ccc(Oc7ccc(F)cc7F)cc6)c(C(N)=O)c5N)C4)c3)ccc2CC1C(=O)NC1CCCc2ccccc21)C(C)(C)C

> <Shape>
0.284

> <Color>
0.068

> <Negative vol penalty>
0.000

$$$$

  -OEChem-04042322373D

 86 94  0     1  0  0  0  0  0999 V2000
  -23.2211   -9.0097   20.4392 C   0  0  0  0  0  0  0  0  0  0  0  0
  -22.6333  -10.2320   20.1294 C   0  0  0  0  0  0  0  0  0  0  0  0
  -30.1691  -28.3833   19.3313 C   0  0  0  0  0  0  0  0  0  0  0  0
  -29.7696  -27.2629   21.4342 C   0  0  0  0  0  0  0  0  0  0  0  0
  -24.3279   -8.9645   21.2859 C   0  0  0  0  0  0  0  0  0  0  0  0
  -23.1514  -11.4097   20.6670 C   0  0  0  0  0  0  0  0  0  0  0  0
  -23.3749  -16.9024   17.9678 C   0  0  0  0  0  0  0  0  0  0  0  0
  -31.5447  -28.2654   19.5298 C   0  0  0  0  0  0  0  0  0  0  0  0
  -31.1452  -27.1449   21.6327 C   0  0  0  0  0  0  0  0  0  0  0  0
  -22.5601  -18.0295   18.0657 C   0  0  0  0  0  0  0  0  0  0  0  0
  -33.6568  -25.1641   20.5424 C   0  0  0  0  0  0  0  0  0  0  0  0
  -34.1434  -23.9331   20.9823 C   0  0  0  0  0  0  0  0  0  0  0  0
  -24.0688  -18.9711   19.6956 C   0  0  0  0  0  0  0  0  0  0  0  0
  -19.3256  -26.4028   23.4221 C   0  0  0  0  0  0  0  0  0  0  0  0
  -20.1598  -26.5026   21.1569 C   0  0  0  0  0  0  0  0  0  0  0  0
  -35.0352  -24.9931   22.9618 C   0  0  0  0  0  0  0  0  0  0  0  0
  -29.2815  -27.8820   20.2835 C   0  0  0  0  0  0  0  0  0  0  0  0
  -27.0131  -27.0865   19.4296 C   0  0  0  0  0  0  0  0  0  0  0  0
  -24.8657  -10.1431   21.8265 C   0  0  0  0  0  0  0  0  0  0  0  0
  -24.5389  -16.7962   18.7424 C   0  0  0  0  0  0  0  0  0  0  0  0
  -24.2655  -11.3801   21.5228 C   0  0  0  0  0  0  0  0  0  0  0  0
  -24.8979  -17.8428   19.6038 C   0  0  0  0  0  0  0  0  0  0  0  0
  -19.8304  -27.1418   22.3522 C   0  0  0  0  0  0  0  0  0  0  0  0
  -19.4796  -24.3855   22.1016 C   0  0  0  0  0  0  0  0  0  0  0  0
  -32.0328  -27.6462   20.6805 C   0  0  0  0  0  0  0  0  0  0  0  0
  -22.9055  -19.0628   18.9319 C   0  0  0  0  0  0  0  0  0  0  0  0
  -33.8594  -26.3096   21.3122 C   0  0  0  0  0  0  0  0  0  0  0  0
  -34.8325  -23.8476   22.1920 C   0  0  0  0  0  0  0  0  0  0  0  0
  -19.1502  -25.0247   23.2968 C   0  0  0  0  0  0  0  0  0  0  0  0
  -19.9843  -25.1245   21.0316 C   0  0  0  0  0  0  0  0  0  0  0  0
  -34.5486  -26.2241   22.5219 C   0  0  0  0  0  0  0  0  0  0  0  0
  -27.8604  -28.0040   20.0793 C   0  0  0  0  0  0  0  0  0  0  0  0
  -25.7673  -27.6605   19.4997 C   0  0  0  0  0  0  0  0  0  0  0  0
  -27.3244  -25.8278   18.8176 C   0  0  0  0  0  0  0  0  0  0  0  0
  -25.5583  -14.8014   20.9975 C   0  0  0  0  0  0  0  0  0  0  0  0
  -28.3042  -16.5055   20.7164 C   0  0  0  0  0  0  0  0  0  0  0  0
  -20.7404  -21.4970   20.4869 C   0  0  0  0  0  0  0  0  0  0  0  0
  -29.8217  -19.4267   19.8162 C   0  0  0  0  0  0  0  0  0  0  0  0
  -21.7981  -30.3411   22.3642 C   0  0  0  0  0  0  0  0  0  0  0  0
  -26.0340  -10.0398   22.7747 C   0  0  0  0  0  0  0  0  0  0  0  0
  -25.4212  -15.5857   18.6054 C   0  0  0  0  0  0  0  0  0  0  0  0
  -26.1479  -17.7864   20.4422 C   0  0  0  0  0  0  0  0  0  0  0  0
  -26.7518  -11.3674   23.0038 C   0  0  0  0  0  0  0  0  0  0  0  0
  -24.3617  -32.3186   20.8829 C   0  0  0  0  0  0  0  0  0  0  0  0
  -25.7433  -12.4806   23.2695 C   0  0  0  0  0  0  0  0  0  0  0  0
  -25.4326  -31.2977   20.4942 C   0  0  0  0  0  0  0  0  0  0  0  0
  -23.6774  -31.9463   22.1964 C   0  0  0  0  0  0  0  0  0  0  0  0
  -24.1905  -29.5607   21.8503 C   0  0  0  0  0  0  0  0  0  0  0  0
  -24.8138  -12.6816   22.0665 C   0  0  1  0  0  0  0  0  0  0  0  0
  -26.3126  -15.3553   19.8219 C   0  0  1  0  0  0  0  0  0  0  0  0
  -24.8699  -29.8636   20.5038 C   0  0  2  0  0  0  0  0  0  0  0  0
  -32.0720  -20.5345   19.7367 C   0  0  0  0  0  0  0  0  0  0  0  0
  -28.1866  -16.9551   23.7320 C   0  0  0  0  0  0  0  0  0  0  0  0
  -29.8568  -18.7991   23.4519 C   0  0  0  0  0  0  0  0  0  0  0  0
  -30.4697  -16.4599   22.8393 C   0  0  0  0  0  0  0  0  0  0  0  0
  -21.5781  -22.3389   22.6873 C   0  0  0  0  0  0  0  0  0  0  0  0
  -29.6968  -19.7312   16.8750 C   0  0  0  0  0  0  0  0  0  0  0  0
  -20.0190  -28.6152   22.4865 C   0  0  0  0  0  0  0  0  0  0  0  0
  -19.2908  -22.9022   21.9666 C   0  0  0  0  0  0  0  0  0  0  0  0
  -22.0892  -20.8385   20.2871 C   0  0  0  0  0  0  0  0  0  1  0  0
  -28.8642  -17.7460   21.3695 C   0  0  1  0  0  0  0  0  0  0  0  0
  -31.0529  -19.7039   18.9724 C   0  0  2  0  0  0  0  0  0  0  0  0
  -29.3197  -17.4905   22.8339 C   0  0  0  0  0  0  0  0  0  0  0  0
  -27.2080  -29.0793   20.5288 N   0  0  0  0  0  0  0  0  0  0  0  0
  -25.9376  -28.8411   20.1610 N   0  0  0  0  0  0  0  0  0  0  0  0
  -26.9746  -16.5793   20.2776 N   0  0  0  0  0  0  0  0  0  0  0  0
  -23.1647  -30.5752   22.1392 N   0  0  0  0  0  0  0  0  0  0  0  0
  -24.5538  -27.2655   19.0595 N   0  0  0  0  0  0  0  0  0  0  0  0
  -28.6548  -25.3873   18.8348 N   0  0  0  0  0  0  0  0  0  0  0  0
  -25.4905  -13.4215   21.0229 N   0  0  0  0  0  0  0  0  0  0  0  0
  -29.9235  -18.2278   20.4896 N   0  0  0  0  0  0  0  0  0  0  0  0
  -21.3942  -29.0140   22.2853 N   0  0  0  0  0  0  0  0  0  0  0  0
  -20.5451  -22.2167   21.6661 N   0  0  0  0  0  0  0  0  0  0  0  0
  -30.6767  -20.4438   17.7347 N   0  3  0  0  0  0  0  0  0  0  0  0
  -26.4514  -25.1226   18.2572 O   0  0  0  0  0  0  0  0  0  0  0  0
  -25.0751  -15.5691   21.8214 O   0  0  0  0  0  0  0  0  0  0  0  0
  -29.0223  -15.5101   20.5934 O   0  0  0  0  0  0  0  0  0  0  0  0
  -19.8848  -21.3762   19.6047 O   0  0  0  0  0  0  0  0  0  0  0  0
  -28.8670  -20.1984   19.8751 O   0  0  0  0  0  0  0  0  0  0  0  0
  -20.9964  -31.2483   22.6116 O   0  0  0  0  0  0  0  0  0  0  0  0
  -33.3750  -27.5308   20.8744 O   0  0  0  0  0  0  0  0  0  0  0  0
  -22.1116  -20.1637   19.0299 O   0  0  0  0  0  0  0  0  0  1  0  0
  -35.2984  -22.6652   22.6151 F   0  0  0  0  0  0  0  0  0  0  0  0
  -18.6651  -24.3224   24.3303 F   0  0  0  0  0  0  0  0  0  0  0  0
  -20.3045  -24.5195   19.8793 F   0  0  0  0  0  0  0  0  0  0  0  0
  -34.7453  -27.3209   23.2663 F   0  0  0  0  0  0  0  0  0  0  0  0
  1  2  1  0  0  0  0
  1  5  2  0  0  0  0
  2  6  2  0  0  0  0
  3  8  2  0  0  0  0
  3 17  1  0  0  0  0
  4  9  1  0  0  0  0
  4 17  2  0  0  0  0
  5 19  1  0  0  0  0
  6 21  1  0  0  0  0
  7 10  2  0  0  0  0
  7 20  1  0  0  0  0
  8 25  1  0  0  0  0
  9 25  2  0  0  0  0
 10 26  1  0  0  0  0
 11 12  2  0  0  0  0
 11 27  1  0  0  0  0
 12 28  1  0  0  0  0
 13 22  1  0  0  0  0
 13 26  2  0  0  0  0
 14 23  1  0  0  0  0
 14 29  2  0  0  0  0
 15 23  2  0  0  0  0
 15 30  1  0  0  0  0
 16 28  2  0  0  0  0
 16 31  1  0  0  0  0
 17 32  1  0  0  0  0
 18 32  1  0  0  0  0
 18 33  2  0  0  0  0
 18 34  1  0  0  0  0
 19 21  2  0  0  0  0
 19 40  1  0  0  0  0
 20 22  2  0  0  0  0
 20 41  1  0  0  0  0
 21 49  1  0  0  0  0
 22 42  1  0  0  0  0
 23 58  1  0  0  0  0
 24 29  1  0  0  0  0
 24 30  2  0  0  0  0
 24 59  1  0  0  0  0
 25 81  1  0  0  0  0
 26 82  1  0  0  0  0
 27 31  2  0  0  0  0
 27 81  1  0  0  0  0
 28 83  1  0  0  0  0
 29 84  1  0  0  0  0
 30 85  1  0  0  0  0
 31 86  1  0  0  0  0
 32 64  2  0  0  0  0
 33 65  1  0  0  0  0
 33 68  1  0  0  0  0
 34 69  1  0  0  0  0
 34 75  2  0  0  0  0
 35 50  1  0  0  0  0
 35 70  1  0  0  0  0
 35 76  2  0  0  0  0
 36 61  1  0  0  0  0
 36 66  1  0  0  0  0
 36 77  2  0  0  0  0
 37 60  1  0  0  0  0
 37 73  1  0  0  0  0
 37 78  2  0  0  0  0
 38 62  1  0  0  0  0
 38 71  1  0  0  0  0
 38 79  2  0  0  0  0
 39 67  1  0  0  0  0
 39 72  1  0  0  0  0
 39 80  2  0  0  0  0
 40 43  1  0  0  0  0
 41 50  1  0  0  0  0
 42 66  1  0  0  0  0
 43 45  1  0  0  0  0
 44 46  1  0  0  0  0
 44 47  1  0  0  0  0
 45 49  1  0  0  0  0
 46 51  1  0  0  0  0
 47 67  1  0  0  0  0
 48 51  1  0  0  0  0
 48 67  1  0  0  0  0
 49 70  1  0  0  0  0
 50 66  1  0  0  0  0
 51 65  1  0  0  0  0
 52 62  1  0  0  0  0
 53 63  1  0  0  0  0
 54 63  1  0  0  0  0
 55 63  1  0  0  0  0
 56 73  1  0  0  0  0
 57 74  1  0  0  0  0
 58 72  1  0  0  0  0
 59 73  1  0  0  0  0
 60 82  1  0  0  0  0
 61 63  1  0  0  0  0
 61 71  1  0  0  0  0
 62 74  1  0  0  0  0
 64 65  1  0  0  0  0
M  CHG  1  74   1
M  ISO  4  39 100  60 101  72 100  82 101
M  END
> <Batch ID>
0051

> <Smiles>
CNC(C)C(=O)NC(C(=O)N1Cc2cc([101O:1][101CH2:1]C(=O)N(C)Cc3c(F)cc(C[100NH:0][100C:0](=O)N4CCCC(n5nc(-c6ccc(Oc7ccc(F)cc7F)cc6)c(C(N)=O)c5N)C4)cc3F)ccc2CC1C(=O)NC1CCCc2ccccc21)C(C)(C)C

> <Shape>
0.239

> <Color>
0.058

> <Negative vol penalty>
0.000

$$$$

  -OEChem-04042322373D

 86 95  0     1  0  0  0  0  0999 V2000
  -28.4490  -32.4995   26.7637 C   0  0  0  0  0  0  0  0  0  0  0  0
  -28.4465  -31.3407   25.9939 C   0  0  0  0  0  0  0  0  0  0  0  0
  -22.7306  -12.7699   22.5374 C   0  0  0  0  0  0  0  0  0  0  0  0
  -24.1312  -10.9017   23.1580 C   0  0  0  0  0  0  0  0  0  0  0  0
  -27.2456  -33.1319   27.0733 C   0  0  0  0  0  0  0  0  0  0  0  0
  -27.2405  -30.8129   25.5343 C   0  0  0  0  0  0  0  0  0  0  0  0
  -27.4569  -29.4222   20.6697 C   0  0  0  0  0  0  0  0  0  0  0  0
  -29.0515  -19.8217   21.0674 C   0  0  0  0  0  0  0  0  0  0  0  0
  -31.3711  -19.2036   21.3396 C   0  0  0  0  0  0  0  0  0  0  0  0
  -28.7552  -18.5251   20.6473 C   0  0  0  0  0  0  0  0  0  0  0  0
  -31.0748  -17.9068   20.9196 C   0  0  0  0  0  0  0  0  0  0  0  0
  -21.9805  -12.5939   23.7001 C   0  0  0  0  0  0  0  0  0  0  0  0
  -23.3811  -10.7257   24.3208 C   0  0  0  0  0  0  0  0  0  0  0  0
  -28.0879  -28.2131   20.3806 C   0  0  0  0  0  0  0  0  0  0  0  0
  -19.5281  -10.5416   24.7949 C   0  0  0  0  0  0  0  0  0  0  0  0
  -18.1387  -10.5915   24.6826 C   0  0  0  0  0  0  0  0  0  0  0  0
  -25.9354  -27.1378   20.2086 C   0  0  0  0  0  0  0  0  0  0  0  0
  -18.0822  -12.4591   26.2144 C   0  0  0  0  0  0  0  0  0  0  0  0
  -23.8059  -11.9238   22.2663 C   0  0  0  0  0  0  0  0  0  0  0  0
  -24.1178  -12.0413   19.7371 C   0  0  0  0  0  0  0  0  0  0  0  0
  -26.0249  -32.6169   26.6091 C   0  0  0  0  0  0  0  0  0  0  0  0
  -26.0584  -29.4960   20.7413 C   0  0  0  0  0  0  0  0  0  0  0  0
  -26.0195  -31.4382   25.8391 C   0  0  0  0  0  0  0  0  0  0  0  0
  -25.2890  -28.3497   20.4963 C   0  0  0  0  0  0  0  0  0  0  0  0
  -30.3595  -20.1610   21.4135 C   0  0  0  0  0  0  0  0  0  0  0  0
  -29.7668  -17.5676   20.5734 C   0  0  0  0  0  0  0  0  0  0  0  0
  -22.3057  -11.5718   24.5918 C   0  0  0  0  0  0  0  0  0  0  0  0
  -27.3273  -27.0700   20.1529 C   0  0  0  0  0  0  0  0  0  0  0  0
  -20.1946  -11.4503   25.6169 C   0  0  0  0  0  0  0  0  0  0  0  0
  -17.4158  -11.5503   25.3924 C   0  0  0  0  0  0  0  0  0  0  0  0
  -19.4717  -12.4090   26.3267 C   0  0  0  0  0  0  0  0  0  0  0  0
  -24.5808  -12.1048   21.0651 C   0  0  0  0  0  0  0  0  0  0  0  0
  -25.2334  -12.2809   18.9727 C   0  0  0  0  0  0  0  0  0  0  0  0
  -29.8559  -23.6060   20.7692 C   0  0  0  0  0  0  0  0  0  0  0  0
  -22.7973  -11.7884   19.2392 C   0  0  0  0  0  0  0  0  0  0  0  0
  -23.9642  -30.2221   23.0196 C   0  0  0  0  0  0  0  0  0  0  0  0
  -21.8264  -29.9713   20.5928 C   0  0  0  0  0  0  0  0  0  0  0  0
  -21.0586  -28.6753   17.5305 C   0  0  0  0  0  0  0  0  0  0  0  0
  -30.3521  -15.1812   20.0178 C   0  0  0  0  0  0  0  0  0  0  0  0
  -24.7460  -33.3090   27.0093 C   0  0  0  0  0  0  0  0  0  0  0  0
  -25.3921  -30.8137   21.0279 C   0  0  0  0  0  0  0  0  0  0  0  0
  -23.7838  -28.3803   20.5414 C   0  0  0  0  0  0  0  0  0  0  0  0
  -23.5407  -32.8946   26.1692 C   0  0  0  0  0  0  0  0  0  0  0  0
  -31.6791  -23.1199   18.5272 C   0  0  0  0  0  0  0  0  0  0  0  0
  -29.9954  -11.7773   19.0364 C   0  0  0  0  0  0  0  0  0  0  0  0
  -23.4881  -31.3771   26.0232 C   0  0  0  0  0  0  0  0  0  0  0  0
  -31.2195  -24.5327   18.8293 C   0  0  0  0  0  0  0  0  0  0  0  0
  -28.5228  -11.4710   19.3187 C   0  0  0  0  0  0  0  0  0  0  0  0
  -31.8226  -22.3422   19.8212 C   0  0  0  0  0  0  0  0  0  0  0  0
  -30.5929  -12.7090   20.0893 C   0  0  0  0  0  0  0  0  0  0  0  0
  -28.3717  -13.6457   20.5973 C   0  0  0  0  0  0  0  0  0  0  0  0
  -24.7336  -30.8489   25.3013 C   0  0  1  0  0  0  0  0  0  0  0  0
  -29.8582  -24.4787   19.5120 C   0  0  2  0  0  0  0  0  0  0  0  0
  -23.9792  -30.6607   21.5826 C   0  0  1  0  0  0  0  0  0  0  0  0
  -27.7085  -12.7628   19.5275 C   0  0  2  0  0  0  0  0  0  0  0  0
  -19.2231  -28.6164   15.8203 C   0  0  0  0  0  0  0  0  0  0  0  0
  -20.2732  -28.0026   22.3312 C   0  0  0  0  0  0  0  0  0  0  0  0
  -19.0349  -27.2760   20.2801 C   0  0  0  0  0  0  0  0  0  0  0  0
  -18.8515  -29.6330   21.0762 C   0  0  0  0  0  0  0  0  0  0  0  0
  -22.7759  -29.9332   15.4744 C   0  0  0  0  0  0  0  0  0  0  0  0
  -30.6783  -21.5568   21.8656 C   0  0  0  0  0  0  0  0  0  0  0  0
  -29.3669  -25.8918   19.8247 C   0  0  0  0  0  0  0  0  0  1  0  0
  -21.0035  -28.8506   20.0045 C   0  0  1  0  0  0  0  0  0  0  0  0
  -20.4921  -29.3187   16.2777 C   0  0  2  0  0  0  0  0  0  0  0  0
  -19.8192  -28.4392   20.9240 C   0  0  0  0  0  0  0  0  0  0  0  0
  -25.8887  -12.3642   21.1433 N   0  0  0  0  0  0  0  0  0  0  0  0
  -26.2571  -12.4658   19.8549 N   0  0  0  0  0  0  0  0  0  0  0  0
  -30.7058  -22.4974   20.7530 N   0  0  0  0  0  0  0  0  0  0  0  0
  -23.1792  -29.6909   20.8318 N   0  0  0  0  0  0  0  0  0  0  0  0
  -29.7711  -13.9130   20.2297 N   0  0  0  0  0  0  0  0  0  0  0  0
  -25.4289  -12.3494   17.6387 N   0  0  0  0  0  0  0  0  0  0  0  0
  -21.7670  -11.5625   20.1621 N   0  0  0  0  0  0  0  0  0  0  0  0
  -29.4661  -16.2502   20.1470 N   0  0  0  0  0  0  0  0  0  0  0  0
  -24.6278  -31.0794   23.8764 N   0  0  0  0  0  0  0  0  0  0  0  0
  -20.6011  -29.2946   18.6743 N   0  0  0  0  0  0  0  0  0  0  0  0
  -21.4872  -29.2599   15.1699 N   0  3  0  0  0  0  0  0  0  0  0  0
  -29.0660  -23.8426   21.6876 O   0  0  0  0  0  0  0  0  0  0  0  0
  -22.5418  -11.7473   18.0117 O   0  0  0  0  0  0  0  0  0  0  0  0
  -23.3916  -29.1836   23.3284 O   0  0  0  0  0  0  0  0  0  0  0  0
  -21.2903  -31.0577   20.8250 O   0  0  0  0  0  0  0  0  0  0  0  0
  -21.8270  -27.7166   17.4978 O   0  0  0  0  0  0  0  0  0  0  0  0
  -31.5415  -15.3077   19.7153 O   0  0  0  0  0  0  0  0  0  0  0  0
  -21.5742  -11.3999   25.7266 O   0  0  0  0  0  0  0  0  0  0  0  0
  -27.9406  -25.8884   19.8711 O   0  0  0  0  0  0  0  0  0  1  0  0
  -16.0816  -11.5992   25.2833 F   0  0  0  0  0  0  0  0  0  0  0  0
  -20.1065  -13.2854   27.1170 F   0  0  0  0  0  0  0  0  0  0  0  0
  1  2  1  0  0  0  0
  1  5  2  0  0  0  0
  2  6  2  0  0  0  0
  3 12  2  0  0  0  0
  3 19  1  0  0  0  0
  4 13  1  0  0  0  0
  4 19  2  0  0  0  0
  5 21  1  0  0  0  0
  6 23  1  0  0  0  0
  7 14  2  0  0  0  0
  7 22  1  0  0  0  0
  8 10  2  0  0  0  0
  8 25  1  0  0  0  0
  9 11  1  0  0  0  0
  9 25  2  0  0  0  0
 10 26  1  0  0  0  0
 11 26  2  0  0  0  0
 12 27  1  0  0  0  0
 13 27  2  0  0  0  0
 14 28  1  0  0  0  0
 15 16  2  0  0  0  0
 15 29  1  0  0  0  0
 16 30  1  0  0  0  0
 17 24  1  0  0  0  0
 17 28  2  0  0  0  0
 18 30  2  0  0  0  0
 18 31  1  0  0  0  0
 19 32  1  0  0  0  0
 20 32  1  0  0  0  0
 20 33  2  0  0  0  0
 20 35  1  0  0  0  0
 21 23  2  0  0  0  0
 21 40  1  0  0  0  0
 22 24  2  0  0  0  0
 22 41  1  0  0  0  0
 23 52  1  0  0  0  0
 24 42  1  0  0  0  0
 25 61  1  0  0  0  0
 26 73  1  0  0  0  0
 27 83  1  0  0  0  0
 28 84  1  0  0  0  0
 29 31  2  0  0  0  0
 29 83  1  0  0  0  0
 30 85  1  0  0  0  0
 31 86  1  0  0  0  0
 32 66  2  0  0  0  0
 33 67  1  0  0  0  0
 33 71  1  0  0  0  0
 34 53  1  0  0  0  0
 34 68  1  0  0  0  0
 34 77  2  0  0  0  0
 35 72  1  0  0  0  0
 35 78  2  0  0  0  0
 36 54  1  0  0  0  0
 36 74  1  0  0  0  0
 36 79  2  0  0  0  0
 37 63  1  0  0  0  0
 37 69  1  0  0  0  0
 37 80  2  0  0  0  0
 38 64  1  0  0  0  0
 38 75  1  0  0  0  0
 38 81  2  0  0  0  0
 39 70  1  0  0  0  0
 39 73  1  0  0  0  0
 39 82  2  0  0  0  0
 40 43  1  0  0  0  0
 41 54  1  0  0  0  0
 42 69  1  0  0  0  0
 43 46  1  0  0  0  0
 44 47  1  0  0  0  0
 44 49  1  0  0  0  0
 45 48  1  0  0  0  0
 45 50  1  0  0  0  0
 46 52  1  0  0  0  0
 47 53  1  0  0  0  0
 48 55  1  0  0  0  0
 49 68  1  0  0  0  0
 50 70  1  0  0  0  0
 51 55  1  0  0  0  0
 51 70  1  0  0  0  0
 52 74  1  0  0  0  0
 53 62  1  0  0  0  0
 54 69  1  0  0  0  0
 55 67  1  0  0  0  0
 56 64  1  0  0  0  0
 57 65  1  0  0  0  0
 58 65  1  0  0  0  0
 59 65  1  0  0  0  0
 60 76  1  0  0  0  0
 61 68  1  0  0  0  0
 62 84  1  0  0  0  0
 63 65  1  0  0  0  0
 63 75  1  0  0  0  0
 64 76  1  0  0  0  0
 66 67  1  0  0  0  0
M  CHG  1  76   1
M  ISO  4  39 100  62 101  73 100  84 101
M  END
> <Batch ID>
0051

> <Smiles>
CNC(C)C(=O)NC(C(=O)N1Cc2cc([101O:1][101CH2:1]C3CCCN(Cc4ccc([100NH:0][100C:0](=O)N5CCCC(n6nc(-c7ccc(Oc8ccc(F)cc8F)cc7)c(C(N)=O)c6N)C5)cc4)C3=O)ccc2CC1C(=O)NC1CCCc2ccccc21)C(C)(C)C

> <Shape>
0.296

> <Color>
0.103

> <Negative vol penalty>
0.000

$$$$
