
  -OEChem-04042322403D

 84 92  0     1  0  0  0  0  0999 V2000
  -22.0670  -28.2374   25.1462 C   0  0  0  0  0  0  0  0  0  0  0  0
  -22.0332  -26.8474   25.1907 C   0  0  0  0  0  0  0  0  0  0  0  0
  -29.8535  -23.8366   19.2959 C   0  0  0  0  0  0  0  0  0  0  0  0
  -27.7645  -23.3709   20.4166 C   0  0  0  0  0  0  0  0  0  0  0  0
  -21.6826  -28.9061   23.9847 C   0  0  0  0  0  0  0  0  0  0  0  0
  -21.6139  -26.1252   24.0740 C   0  0  0  0  0  0  0  0  0  0  0  0
  -23.7057  -20.6780   22.2143 C   0  0  0  0  0  0  0  0  0  0  0  0
  -24.1502  -11.9193   20.1295 C   0  0  0  0  0  0  0  0  0  0  0  0
  -29.2976  -24.9878   18.7379 C   0  0  0  0  0  0  0  0  0  0  0  0
  -27.2085  -24.5221   19.8587 C   0  0  0  0  0  0  0  0  0  0  0  0
  -23.2201  -19.3813   22.3773 C   0  0  0  0  0  0  0  0  0  0  0  0
  -25.3501  -27.5316   19.0175 C   0  0  0  0  0  0  0  0  0  0  0  0
  -24.6025  -28.3619   19.8525 C   0  0  0  0  0  0  0  0  0  0  0  0
  -25.1527  -11.5819   19.2203 C   0  0  0  0  0  0  0  0  0  0  0  0
  -22.1639  -19.5111   20.2125 C   0  0  0  0  0  0  0  0  0  0  0  0
  -25.8131  -12.8385   21.6219 C   0  0  0  0  0  0  0  0  0  0  0  0
  -26.5369  -28.6848   21.2635 C   0  0  0  0  0  0  0  0  0  0  0  0
  -29.0870  -23.0281   20.1352 C   0  0  0  0  0  0  0  0  0  0  0  0
  -30.3424  -21.7320   21.9384 C   0  0  0  0  0  0  0  0  0  0  0  0
  -21.2676  -28.1915   22.8500 C   0  0  0  0  0  0  0  0  0  0  0  0
  -23.4144  -21.4062   21.0519 C   0  0  0  0  0  0  0  0  0  0  0  0
  -21.2223  -26.7850   22.8966 C   0  0  0  0  0  0  0  0  0  0  0  0
  -22.6491  -20.8159   20.0360 C   0  0  0  0  0  0  0  0  0  0  0  0
  -24.4804  -12.5477   21.3303 C   0  0  0  0  0  0  0  0  0  0  0  0
  -26.8156  -12.5010   20.7127 C   0  0  0  0  0  0  0  0  0  0  0  0
  -27.9751  -25.3306   19.0193 C   0  0  0  0  0  0  0  0  0  0  0  0
  -22.4467  -18.7987   21.3776 C   0  0  0  0  0  0  0  0  0  0  0  0
  -26.6912  -27.2778   19.3056 C   0  0  0  0  0  0  0  0  0  0  0  0
  -25.1958  -28.9385   20.9755 C   0  0  0  0  0  0  0  0  0  0  0  0
  -27.2845  -27.8545   20.4286 C   0  0  0  0  0  0  0  0  0  0  0  0
  -26.4854  -11.8727   19.5119 C   0  0  0  0  0  0  0  0  0  0  0  0
  -29.6605  -21.8386   20.7114 C   0  0  0  0  0  0  0  0  0  0  0  0
  -30.6847  -20.4048   22.0268 C   0  0  0  0  0  0  0  0  0  0  0  0
  -30.6396  -22.7423   22.9113 C   0  0  0  0  0  0  0  0  0  0  0  0
  -21.8664  -24.1116   20.4286 C   0  0  0  0  0  0  0  0  0  0  0  0
  -22.9612  -23.5888   17.4202 C   0  0  0  0  0  0  0  0  0  0  0  0
  -22.5987  -15.2157   21.8312 C   0  0  0  0  0  0  0  0  0  0  0  0
  -24.0794  -21.3595   15.0906 C   0  0  0  0  0  0  0  0  0  0  0  0
  -28.5469  -15.2761   20.7867 C   0  0  0  0  0  0  0  0  0  0  0  0
  -20.8164  -28.9598   21.6331 C   0  0  0  0  0  0  0  0  0  0  0  0
  -23.9680  -22.7941   20.8797 C   0  0  0  0  0  0  0  0  0  0  0  0
  -22.3250  -21.5479   18.7602 C   0  0  0  0  0  0  0  0  0  0  0  0
  -20.7420  -28.1083   20.3682 C   0  0  0  0  0  0  0  0  0  0  0  0
  -31.1920  -16.7121   18.7772 C   0  0  0  0  0  0  0  0  0  0  0  0
  -20.0322  -26.7887   20.6540 C   0  0  0  0  0  0  0  0  0  0  0  0
  -31.1295  -18.1817   19.1974 C   0  0  0  0  0  0  0  0  0  0  0  0
  -29.7967  -16.0993   18.7004 C   0  0  0  0  0  0  0  0  0  0  0  0
  -28.9368  -17.6889   20.3760 C   0  0  0  0  0  0  0  0  0  0  0  0
  -20.7971  -25.9656   21.6975 C   0  0  1  0  0  0  0  0  0  0  0  0
  -23.1795  -23.6319   19.8779 C   0  0  1  0  0  0  0  0  0  0  0  0
  -30.3175  -18.3597   20.4939 C   0  0  2  0  0  0  0  0  0  0  0  0
  -24.8624  -21.2241   12.7103 C   0  0  0  0  0  0  0  0  0  0  0  0
  -20.0776  -23.8553   16.4590 C   0  0  0  0  0  0  0  0  0  0  0  0
  -20.7719  -22.7919   14.3014 C   0  0  0  0  0  0  0  0  0  0  0  0
  -21.7723  -24.9691   14.9954 C   0  0  0  0  0  0  0  0  0  0  0  0
  -26.7386  -20.3446   15.9013 C   0  0  0  0  0  0  0  0  0  0  0  0
  -23.4010  -12.9105   22.3088 C   0  0  0  0  0  0  0  0  0  0  0  0
  -28.2310  -12.8304   21.0620 C   0  0  0  0  0  0  0  0  0  0  0  0
  -22.7534  -16.6386   22.3240 C   0  0  0  0  0  0  0  0  0  1  0  0
  -22.4440  -22.8542   16.2070 C   0  0  1  0  0  0  0  0  0  0  0  0
  -25.2807  -21.3894   14.1631 C   0  0  2  0  0  0  0  0  0  0  0  0
  -21.2708  -23.6043   15.5155 C   0  0  0  0  0  0  0  0  0  0  0  0
  -29.5740  -20.6721   20.0666 N   0  0  0  0  0  0  0  0  0  0  0  0
  -30.2061  -19.8199   20.8915 N   0  0  0  0  0  0  0  0  0  0  0  0
  -22.8840  -22.9048   18.6417 N   0  0  0  0  0  0  0  0  0  0  0  0
  -29.0839  -16.2866   19.9720 N   0  0  0  0  0  0  0  0  0  0  0  0
  -31.3455  -19.6927   22.9642 N   0  0  0  0  0  0  0  0  0  0  0  0
  -30.2147  -24.0546   22.6630 N   0  0  0  0  0  0  0  0  0  0  0  0
  -21.9429  -25.3213   21.0922 N   0  0  0  0  0  0  0  0  0  0  0  0
  -23.3655  -14.3305   22.5725 N   0  0  0  0  0  0  0  0  0  0  0  0
  -23.5986  -22.6267   15.3447 N   0  0  0  0  0  0  0  0  0  0  0  0
  -28.7229  -13.9759   20.3294 N   0  0  0  0  0  0  0  0  0  0  0  0
  -26.2282  -20.2918   14.5072 N   0  3  0  0  0  0  0  0  0  0  0  0
  -31.2778  -22.4921   23.9618 O   0  0  0  0  0  0  0  0  0  0  0  0
  -20.8583  -23.4351   20.2626 O   0  0  0  0  0  0  0  0  0  0  0  0
  -23.4233  -24.7248   17.2879 O   0  0  0  0  0  0  0  0  0  0  0  0
  -21.8749  -14.9150   20.8858 O   0  0  0  0  0  0  0  0  0  0  0  0
  -23.6117  -20.3162   15.5415 O   0  0  0  0  0  0  0  0  0  0  0  0
  -27.9584  -15.5145   21.8469 O   0  0  0  0  0  0  0  0  0  0  0  0
  -27.4323  -26.4539   18.4752 O   0  0  0  0  0  0  0  0  0  0  0  0
  -21.9709  -17.5334   21.5345 O   0  0  0  0  0  0  0  0  0  1  0  0
  -24.4781  -29.7371   21.7764 F   0  0  0  0  0  0  0  0  0  0  0  0
  -28.5728  -27.6153   20.7098 F   0  0  0  0  0  0  0  0  0  0  0  0
  -27.6990  -11.4408   18.3631 Cl  0  0  0  0  0  0  0  0  0  0  0  0
  1  2  1  0  0  0  0
  1  5  2  0  0  0  0
  2  6  2  0  0  0  0
  3  9  2  0  0  0  0
  3 18  1  0  0  0  0
  4 10  1  0  0  0  0
  4 18  2  0  0  0  0
  5 20  1  0  0  0  0
  6 22  1  0  0  0  0
  7 11  2  0  0  0  0
  7 21  1  0  0  0  0
  8 14  2  0  0  0  0
  8 24  1  0  0  0  0
  9 26  1  0  0  0  0
 10 26  2  0  0  0  0
 11 27  1  0  0  0  0
 12 13  2  0  0  0  0
 12 28  1  0  0  0  0
 13 29  1  0  0  0  0
 14 31  1  0  0  0  0
 15 23  1  0  0  0  0
 15 27  2  0  0  0  0
 16 24  2  0  0  0  0
 16 25  1  0  0  0  0
 17 29  2  0  0  0  0
 17 30  1  0  0  0  0
 18 32  1  0  0  0  0
 19 32  1  0  0  0  0
 19 33  2  0  0  0  0
 19 34  1  0  0  0  0
 20 22  2  0  0  0  0
 20 40  1  0  0  0  0
 21 23  2  0  0  0  0
 21 41  1  0  0  0  0
 22 49  1  0  0  0  0
 23 42  1  0  0  0  0
 24 57  1  0  0  0  0
 25 31  2  0  0  0  0
 25 58  1  0  0  0  0
 26 80  1  0  0  0  0
 27 81  1  0  0  0  0
 28 30  2  0  0  0  0
 28 80  1  0  0  0  0
 29 82  1  0  0  0  0
 30 83  1  0  0  0  0
 31 84  1  0  0  0  0
 32 63  2  0  0  0  0
 33 64  1  0  0  0  0
 33 67  1  0  0  0  0
 34 68  1  0  0  0  0
 34 74  2  0  0  0  0
 35 50  1  0  0  0  0
 35 69  1  0  0  0  0
 35 75  2  0  0  0  0
 36 60  1  0  0  0  0
 36 65  1  0  0  0  0
 36 76  2  0  0  0  0
 37 59  1  0  0  0  0
 37 70  1  0  0  0  0
 37 77  2  0  0  0  0
 38 61  1  0  0  0  0
 38 71  1  0  0  0  0
 38 78  2  0  0  0  0
 39 66  1  0  0  0  0
 39 72  1  0  0  0  0
 39 79  2  0  0  0  0
 40 43  1  0  0  0  0
 41 50  1  0  0  0  0
 42 65  1  0  0  0  0
 43 45  1  0  0  0  0
 44 46  1  0  0  0  0
 44 47  1  0  0  0  0
 45 49  1  0  0  0  0
 46 51  1  0  0  0  0
 47 66  1  0  0  0  0
 48 51  1  0  0  0  0
 48 66  1  0  0  0  0
 49 69  1  0  0  0  0
 50 65  1  0  0  0  0
 51 64  1  0  0  0  0
 52 61  1  0  0  0  0
 53 62  1  0  0  0  0
 54 62  1  0  0  0  0
 55 62  1  0  0  0  0
 56 73  1  0  0  0  0
 57 70  1  0  0  0  0
 58 72  1  0  0  0  0
 59 81  1  0  0  0  0
 60 62  1  0  0  0  0
 60 71  1  0  0  0  0
 61 73  1  0  0  0  0
 63 64  1  0  0  0  0
M  CHG  1  73   1
M  ISO  4  39 100  59 101  72 100  81 101
M  END
> <Batch ID>
0052

> <Smiles>
CNC(C)C(=O)NC(C(=O)N1Cc2cc([101O:1][101CH2:1]C(=O)NCc3ccc(Cl)c(C[100NH:0][100C:0](=O)N4CCCC(n5nc(-c6ccc(Oc7ccc(F)cc7F)cc6)c(C(N)=O)c5N)C4)c3)ccc2CC1C(=O)NC1CCCc2ccccc21)C(C)(C)C

> <Shape>
0.203

> <Color>
0.064

> <Negative vol penalty>
0.000

$$$$

  -OEChem-04042322403D

 86 94  0     1  0  0  0  0  0999 V2000
  -28.0746  -11.2438   19.2699 C   0  0  0  0  0  0  0  0  0  0  0  0
  -28.2536  -12.4889   18.6756 C   0  0  0  0  0  0  0  0  0  0  0  0
  -33.2809  -28.1313   15.4544 C   0  0  0  0  0  0  0  0  0  0  0  0
  -22.2741  -27.5194   21.5655 C   0  0  0  0  0  0  0  0  0  0  0  0
  -23.6975  -29.0671   22.7554 C   0  0  0  0  0  0  0  0  0  0  0  0
  -26.9411  -10.9984   20.0436 C   0  0  0  0  0  0  0  0  0  0  0  0
  -27.2984  -13.4890   18.8539 C   0  0  0  0  0  0  0  0  0  0  0  0
  -29.3703  -17.9905   19.8972 C   0  0  0  0  0  0  0  0  0  0  0  0
  -33.1075  -29.0817   16.4604 C   0  0  0  0  0  0  0  0  0  0  0  0
  -32.7376  -26.8548   15.5997 C   0  0  0  0  0  0  0  0  0  0  0  0
  -21.2540  -27.7476   22.4890 C   0  0  0  0  0  0  0  0  0  0  0  0
  -22.6773  -29.2953   23.6789 C   0  0  0  0  0  0  0  0  0  0  0  0
  -29.9097  -18.7061   18.8291 C   0  0  0  0  0  0  0  0  0  0  0  0
  -18.1499  -28.1959   24.3271 C   0  0  0  0  0  0  0  0  0  0  0  0
  -16.8609  -28.3962   23.8333 C   0  0  0  0  0  0  0  0  0  0  0  0
  -27.9152  -20.0600   18.7369 C   0  0  0  0  0  0  0  0  0  0  0  0
  -17.6338  -30.3231   22.5976 C   0  0  0  0  0  0  0  0  0  0  0  0
  -23.4959  -28.1792   21.6987 C   0  0  0  0  0  0  0  0  0  0  0  0
  -24.7871  -28.6461   19.5487 C   0  0  0  0  0  0  0  0  0  0  0  0
  -25.9763  -11.9991   20.2395 C   0  0  0  0  0  0  0  0  0  0  0  0
  -28.0927  -18.2977   20.3869 C   0  0  0  0  0  0  0  0  0  0  0  0
  -26.1502  -13.2563   19.6299 C   0  0  0  0  0  0  0  0  0  0  0  0
  -27.3630  -19.3485   19.8129 C   0  0  0  0  0  0  0  0  0  0  0  0
  -32.3909  -28.7557   17.6118 C   0  0  0  0  0  0  0  0  0  0  0  0
  -32.0209  -26.5288   16.7511 C   0  0  0  0  0  0  0  0  0  0  0  0
  -31.8475  -27.4792   17.7572 C   0  0  0  0  0  0  0  0  0  0  0  0
  -21.4556  -28.6355   23.5457 C   0  0  0  0  0  0  0  0  0  0  0  0
  -29.1810  -19.7391   18.2469 C   0  0  0  0  0  0  0  0  0  0  0  0
  -19.1809  -29.0592   23.9563 C   0  0  0  0  0  0  0  0  0  0  0  0
  -16.6029  -29.4598   22.9685 C   0  0  0  0  0  0  0  0  0  0  0  0
  -18.9228  -30.1228   23.0915 C   0  0  0  0  0  0  0  0  0  0  0  0
  -24.5503  -27.9435   20.7454 C   0  0  0  0  0  0  0  0  0  0  0  0
  -25.8964  -28.0418   19.0094 C   0  0  0  0  0  0  0  0  0  0  0  0
  -24.0686  -29.7467   18.9758 C   0  0  0  0  0  0  0  0  0  0  0  0
  -25.3410  -16.7234   20.6186 C   0  0  0  0  0  0  0  0  0  0  0  0
  -24.4116  -19.3714   22.2454 C   0  0  0  0  0  0  0  0  0  0  0  0
  -31.1304  -23.3479   15.1876 C   0  0  0  0  0  0  0  0  0  0  0  0
  -24.2973  -22.9362   22.7899 C   0  0  0  0  0  0  0  0  0  0  0  0
  -31.0071  -25.8929   19.5245 C   0  0  0  0  0  0  0  0  0  0  0  0
  -24.7441  -11.6718   21.0453 C   0  0  0  0  0  0  0  0  0  0  0  0
  -27.5361  -17.5339   21.5570 C   0  0  0  0  0  0  0  0  0  0  0  0
  -25.9954  -19.7311   20.3148 C   0  0  0  0  0  0  0  0  0  0  0  0
  -23.9638  -12.9050   21.4931 C   0  0  0  0  0  0  0  0  0  0  0  0
  -28.2646  -23.7565   20.2935 C   0  0  0  0  0  0  0  0  0  0  0  0
  -23.7906  -13.8781   20.3312 C   0  0  0  0  0  0  0  0  0  0  0  0
  -27.0733  -24.7131   20.3812 C   0  0  0  0  0  0  0  0  0  0  0  0
  -29.5403  -24.3869   20.8494 C   0  0  0  0  0  0  0  0  0  0  0  0
  -28.6966  -26.6500   20.3637 C   0  0  0  0  0  0  0  0  0  0  0  0
  -25.1486  -14.3747   19.8204 C   0  0  1  0  0  0  0  0  0  0  0  0
  -26.0141  -17.5949   21.6409 C   0  0  1  0  0  0  0  0  0  0  0  0
  -27.4032  -26.0828   19.7562 C   0  0  2  0  0  0  0  0  0  0  0  0
  -32.2221  -29.7954   18.6722 C   0  0  0  0  0  0  0  0  0  0  0  0
  -30.7896  -22.9898   13.7904 C   0  0  0  0  0  0  0  0  0  0  0  0
  -23.5530  -24.8240   24.2662 C   0  0  0  0  0  0  0  0  0  0  0  0
  -32.7781  -20.5818   15.0404 C   0  0  0  0  0  0  0  0  0  0  0  0
  -22.0406  -19.5606   20.3343 C   0  0  0  0  0  0  0  0  0  0  0  0
  -21.7022  -21.9207   21.0985 C   0  0  0  0  0  0  0  0  0  0  0  0
  -21.4933  -20.0423   22.7266 C   0  0  0  0  0  0  0  0  0  0  0  0
  -26.9668  -23.1584   24.0482 C   0  0  0  0  0  0  0  0  0  0  0  0
  -31.4490  -25.1487   16.8773 C   0  0  0  0  0  0  0  0  0  0  0  0
  -31.0062  -20.0610   16.7567 C   0  0  0  0  0  0  0  0  0  1  0  0
  -23.7817  -20.6909   21.8696 C   0  0  1  0  0  0  0  0  0  0  0  0
  -24.5211  -23.6625   24.1040 C   0  0  2  0  0  0  0  0  0  0  0  0
  -31.3952  -20.9271   15.5668 C   0  0  1  0  0  0  0  0  0  0  0  0
  -22.2794  -20.5454   21.4963 C   0  0  0  0  0  0  0  0  0  0  0  0
  -25.4377  -26.9674   20.9544 N   0  0  0  0  0  0  0  0  0  0  0  0
  -26.2429  -27.0523   19.8817 N   0  0  0  0  0  0  0  0  0  0  0  0
  -25.4918  -18.9504   21.4569 N   0  0  0  0  0  0  0  0  0  0  0  0
  -29.7914  -25.6793   20.2081 N   0  0  0  0  0  0  0  0  0  0  0  0
  -26.5993  -28.2656   17.8789 N   0  0  0  0  0  0  0  0  0  0  0  0
  -22.9523  -30.2451   19.6612 N   0  0  0  0  0  0  0  0  0  0  0  0
  -31.1198  -27.1478   18.9269 N   0  0  0  0  0  0  0  0  0  0  0  0
  -25.6822  -15.3872   20.7060 N   0  0  0  0  0  0  0  0  0  0  0  0
  -31.4129  -22.3270   15.9999 N   0  0  0  0  0  0  0  0  0  0  0  0
  -24.0353  -21.5966   22.9848 N   0  0  0  0  0  0  0  0  0  0  0  0
  -31.1343  -24.6366   15.5397 N   0  3  0  0  0  0  0  0  0  0  0  0
  -25.9109  -24.1962   24.1707 N   0  3  0  0  0  0  0  0  0  0  0  0
  -24.3967  -30.2618   17.8801 O   0  0  0  0  0  0  0  0  0  0  0  0
  -24.5682  -17.2259   19.8111 O   0  0  0  0  0  0  0  0  0  0  0  0
  -23.9664  -18.7411   23.2077 O   0  0  0  0  0  0  0  0  0  0  0  0
  -24.3462  -23.5016   21.6996 O   0  0  0  0  0  0  0  0  0  0  0  0
  -31.8723  -25.0167   19.4501 O   0  0  0  0  0  0  0  0  0  0  0  0
  -20.4603  -28.8585   24.4469 O   0  0  0  0  0  0  0  0  0  0  0  0
  -29.7048  -20.4387   17.2038 O   0  0  0  0  0  0  0  0  0  1  0  0
  -15.3653  -29.6511   22.4931 F   0  0  0  0  0  0  0  0  0  0  0  0
  -19.9095  -30.9548   22.7307 F   0  0  0  0  0  0  0  0  0  0  0  0
  1  2  1  0  0  0  0
  1  6  2  0  0  0  0
  2  7  2  0  0  0  0
  3  9  1  0  0  0  0
  3 10  2  0  0  0  0
  4 11  2  0  0  0  0
  4 18  1  0  0  0  0
  5 12  1  0  0  0  0
  5 18  2  0  0  0  0
  6 20  1  0  0  0  0
  7 22  1  0  0  0  0
  8 13  2  0  0  0  0
  8 21  1  0  0  0  0
  9 24  2  0  0  0  0
 10 25  1  0  0  0  0
 11 27  1  0  0  0  0
 12 27  2  0  0  0  0
 13 28  1  0  0  0  0
 14 15  2  0  0  0  0
 14 29  1  0  0  0  0
 15 30  1  0  0  0  0
 16 23  1  0  0  0  0
 16 28  2  0  0  0  0
 17 30  2  0  0  0  0
 17 31  1  0  0  0  0
 18 32  1  0  0  0  0
 19 32  1  0  0  0  0
 19 33  2  0  0  0  0
 19 34  1  0  0  0  0
 20 22  2  0  0  0  0
 20 40  1  0  0  0  0
 21 23  2  0  0  0  0
 21 41  1  0  0  0  0
 22 49  1  0  0  0  0
 23 42  1  0  0  0  0
 24 26  1  0  0  0  0
 24 52  1  0  0  0  0
 25 26  2  0  0  0  0
 25 60  1  0  0  0  0
 26 72  1  0  0  0  0
 27 83  1  0  0  0  0
 28 84  1  0  0  0  0
 29 31  2  0  0  0  0
 29 83  1  0  0  0  0
 30 85  1  0  0  0  0
 31 86  1  0  0  0  0
 32 66  2  0  0  0  0
 33 67  1  0  0  0  0
 33 70  1  0  0  0  0
 34 71  1  0  0  0  0
 34 78  2  0  0  0  0
 35 50  1  0  0  0  0
 35 73  1  0  0  0  0
 35 79  2  0  0  0  0
 36 62  1  0  0  0  0
 36 68  1  0  0  0  0
 36 80  2  0  0  0  0
 37 53  1  0  0  0  0
 37 74  1  0  0  0  0
 37 76  2  0  0  0  0
 38 63  1  0  0  0  0
 38 75  1  0  0  0  0
 38 81  2  0  0  0  0
 39 69  1  0  0  0  0
 39 72  1  0  0  0  0
 39 82  2  0  0  0  0
 40 43  1  0  0  0  0
 41 50  1  0  0  0  0
 42 68  1  0  0  0  0
 43 45  1  0  0  0  0
 44 46  1  0  0  0  0
 44 47  1  0  0  0  0
 45 49  1  0  0  0  0
 46 51  1  0  0  0  0
 47 69  1  0  0  0  0
 48 51  1  0  0  0  0
 48 69  1  0  0  0  0
 49 73  1  0  0  0  0
 50 68  1  0  0  0  0
 51 67  1  0  0  0  0
 54 63  1  0  0  0  0
 55 64  1  0  0  0  0
 56 65  1  0  0  0  0
 57 65  1  0  0  0  0
 58 65  1  0  0  0  0
 59 77  1  0  0  0  0
 60 76  1  0  0  0  0
 61 64  1  0  0  0  0
 61 84  1  0  0  0  0
 62 65  1  0  0  0  0
 62 75  1  0  0  0  0
 63 77  1  0  0  0  0
 64 74  1  0  0  0  0
 66 67  1  0  0  0  0
M  CHG  2  76   1  77   1
M  ISO  4  39 100  61 101  72 100  84 101
M  END
> <Batch ID>
0052

> <Smiles>
CNC(C)C(=O)NC(C(=O)N1Cc2cc([101O:1][101CH2:1]C(C)NC(C)=NCc3cccc(C)c3[100NH:0][100C:0](=O)N3CCCC(n4nc(-c5ccc(Oc6ccc(F)cc6F)cc5)c(C(N)=O)c4N)C3)ccc2CC1C(=O)NC1CCCc2ccccc21)C(C)(C)C

> <Shape>
0.230

> <Color>
0.062

> <Negative vol penalty>
0.000

$$$$

  -OEChem-04042322403D

 87 95  0     1  0  0  0  0  0999 V2000
  -28.8705  -36.4148   19.4757 C   0  0  0  0  0  0  0  0  0  0  0  0
  -29.2054  -35.1842   18.9199 C   0  0  0  0  0  0  0  0  0  0  0  0
  -23.2167  -10.9326   22.2745 C   0  0  0  0  0  0  0  0  0  0  0  0
  -22.9573  -13.3196   22.0068 C   0  0  0  0  0  0  0  0  0  0  0  0
  -28.2378  -36.4687   20.7170 C   0  0  0  0  0  0  0  0  0  0  0  0
  -28.9087  -34.0068   19.6055 C   0  0  0  0  0  0  0  0  0  0  0  0
  -27.0509  -27.1866   18.4437 C   0  0  0  0  0  0  0  0  0  0  0  0
  -29.6002  -19.4161   20.4242 C   0  0  0  0  0  0  0  0  0  0  0  0
  -29.2524  -18.1050   20.0990 C   0  0  0  0  0  0  0  0  0  0  0  0
  -22.2947  -10.9497   23.3210 C   0  0  0  0  0  0  0  0  0  0  0  0
  -22.0352  -13.3368   23.0532 C   0  0  0  0  0  0  0  0  0  0  0  0
  -27.4383  -25.8916   18.7854 C   0  0  0  0  0  0  0  0  0  0  0  0
  -18.9349  -11.0782   23.6788 C   0  0  0  0  0  0  0  0  0  0  0  0
  -17.9503  -10.0902   23.6916 C   0  0  0  0  0  0  0  0  0  0  0  0
  -26.2721  -26.1037   20.8864 C   0  0  0  0  0  0  0  0  0  0  0  0
  -31.4430  -17.3533   20.7871 C   0  0  0  0  0  0  0  0  0  0  0  0
  -18.7510   -9.3200   25.8370 C   0  0  0  0  0  0  0  0  0  0  0  0
  -23.5480  -12.1176   21.6174 C   0  0  0  0  0  0  0  0  0  0  0  0
  -24.2300  -11.9177   19.1674 C   0  0  0  0  0  0  0  0  0  0  0  0
  -27.9244  -35.2910   21.4137 C   0  0  0  0  0  0  0  0  0  0  0  0
  -26.2792  -27.9551   19.3270 C   0  0  0  0  0  0  0  0  0  0  0  0
  -28.2723  -34.0451   20.8579 C   0  0  0  0  0  0  0  0  0  0  0  0
  -25.8742  -27.4072   20.5525 C   0  0  0  0  0  0  0  0  0  0  0  0
  -30.8694  -19.6958   20.9308 C   0  0  0  0  0  0  0  0  0  0  0  0
  -31.7907  -18.6644   21.1123 C   0  0  0  0  0  0  0  0  0  0  0  0
  -30.1738  -17.0737   20.2804 C   0  0  0  0  0  0  0  0  0  0  0  0
  -21.7039  -12.1518   23.7104 C   0  0  0  0  0  0  0  0  0  0  0  0
  -27.0513  -25.3510   20.0081 C   0  0  0  0  0  0  0  0  0  0  0  0
  -19.8276  -11.1870   24.7451 C   0  0  0  0  0  0  0  0  0  0  0  0
  -17.8583   -9.2112   24.7706 C   0  0  0  0  0  0  0  0  0  0  0  0
  -19.7356  -10.3080   25.8242 C   0  0  0  0  0  0  0  0  0  0  0  0
  -24.5009  -12.1006   20.5367 C   0  0  0  0  0  0  0  0  0  0  0  0
  -25.4610  -11.9845   18.5620 C   0  0  0  0  0  0  0  0  0  0  0  0
  -22.9776  -11.7065   18.5022 C   0  0  0  0  0  0  0  0  0  0  0  0
  -26.7065  -30.6983   20.8748 C   0  0  0  0  0  0  0  0  0  0  0  0
  -23.6044  -30.2578   21.7146 C   0  0  0  0  0  0  0  0  0  0  0  0
  -29.2894  -22.6278   20.7770 C   0  0  0  0  0  0  0  0  0  0  0  0
  -21.0129  -28.0900   22.1955 C   0  0  0  0  0  0  0  0  0  0  0  0
  -30.6160  -14.6024   20.0714 C   0  0  0  0  0  0  0  0  0  0  0  0
  -27.2826  -35.4013   22.7741 C   0  0  0  0  0  0  0  0  0  0  0  0
  -25.8471  -29.3407   18.9321 C   0  0  0  0  0  0  0  0  0  0  0  0
  -25.0283  -28.1835   21.5274 C   0  0  0  0  0  0  0  0  0  0  0  0
  -26.6658  -34.0939   23.2644 C   0  0  0  0  0  0  0  0  0  0  0  0
  -30.0995  -11.1431   19.4054 C   0  0  0  0  0  0  0  0  0  0  0  0
  -27.6325  -32.9338   23.0491 C   0  0  0  0  0  0  0  0  0  0  0  0
  -28.5800  -10.9806   19.4893 C   0  0  0  0  0  0  0  0  0  0  0  0
  -30.6205  -12.1442   20.4350 C   0  0  0  0  0  0  0  0  0  0  0  0
  -28.4427  -13.2942   20.4971 C   0  0  0  0  0  0  0  0  0  0  0  0
  -27.9447  -32.7450   21.5596 C   0  0  1  0  0  0  0  0  0  0  0  0
  -25.4938  -30.2199   20.1277 C   0  0  1  0  0  0  0  0  0  0  0  0
  -27.8637  -12.3443   19.4359 C   0  0  2  0  0  0  0  0  0  0  0  0
  -18.6113  -28.0206   22.9202 C   0  0  0  0  0  0  0  0  0  0  0  0
  -34.1579  -19.2429   20.5460 C   0  0  0  0  0  0  0  0  0  0  0  0
  -24.4741  -30.5913   24.6202 C   0  0  0  0  0  0  0  0  0  0  0  0
  -22.2883  -29.5884   25.3167 C   0  0  0  0  0  0  0  0  0  0  0  0
  -22.3249  -31.7296   24.0374 C   0  0  0  0  0  0  0  0  0  0  0  0
  -31.1960  -22.4051   19.1746 C   0  0  0  0  0  0  0  0  0  0  0  0
  -20.1343  -27.0162   19.5813 C   0  0  0  0  0  0  0  0  0  0  0  0
  -31.2208  -21.1148   21.2729 C   0  0  0  0  0  0  0  0  0  0  0  0
  -28.6667  -23.6164   19.8139 C   0  0  0  0  0  0  0  0  0  1  0  0
  -22.8928  -29.5688   22.8539 C   0  0  1  0  0  0  0  0  0  0  0  0
  -19.5651  -28.1342   21.7411 C   0  0  2  0  0  0  0  0  0  0  0  0
  -33.1546  -18.9399   21.6552 C   0  0  0  0  0  0  0  0  0  0  0  0
  -23.0126  -30.3554   24.1897 C   0  0  0  0  0  0  0  0  0  0  0  0
  -25.8018  -12.2705   20.7868 N   0  0  0  0  0  0  0  0  0  0  0  0
  -26.3595  -12.1947   19.5663 N   0  0  0  0  0  0  0  0  0  0  0  0
  -24.6366  -29.5363   21.0983 N   0  0  0  0  0  0  0  0  0  0  0  0
  -29.8988  -13.4135   20.3223 N   0  0  0  0  0  0  0  0  0  0  0  0
  -25.8518  -11.8832   17.2738 N   0  0  0  0  0  0  0  0  0  0  0  0
  -21.8091  -11.6655   19.2750 N   0  0  0  0  0  0  0  0  0  0  0  0
  -29.8203  -15.7414   19.9520 N   0  0  0  0  0  0  0  0  0  0  0  0
  -26.8490  -32.0727   20.8948 N   0  0  0  0  0  0  0  0  0  0  0  0
  -21.5204  -29.3544   22.4078 N   0  0  0  0  0  0  0  0  0  0  0  0
  -30.5190  -22.0722   20.4218 N   0  0  0  0  0  0  0  0  0  0  0  0
  -19.2834  -27.0143   20.7991 N   0  3  0  0  0  0  0  0  0  0  0  0
  -22.8988  -11.5422   17.2611 O   0  0  0  0  0  0  0  0  0  0  0  0
  -27.4566  -29.8812   21.3957 O   0  0  0  0  0  0  0  0  0  0  0  0
  -23.2526  -31.3915   21.3792 O   0  0  0  0  0  0  0  0  0  0  0  0
  -28.6927  -22.3651   21.8257 O   0  0  0  0  0  0  0  0  0  0  0  0
  -21.6306  -27.0388   22.3505 O   0  0  0  0  0  0  0  0  0  0  0  0
  -31.8429  -14.6053   19.9430 O   0  0  0  0  0  0  0  0  0  0  0  0
  -20.8040  -12.1689   24.7313 O   0  0  0  0  0  0  0  0  0  0  0  0
  -27.4285  -24.0875   20.3444 O   0  0  0  0  0  0  0  0  0  1  0  0
  -16.9118   -8.2634   24.7835 F   0  0  0  0  0  0  0  0  0  0  0  0
  -20.5896  -10.4084   26.8521 F   0  0  0  0  0  0  0  0  0  0  0  0
  -33.6616  -17.8939   22.3820 F   0  0  0  0  0  0  0  0  0  0  0  0
  -33.1800  -20.0015   22.5224 F   0  0  0  0  0  0  0  0  0  0  0  0
  1  2  1  0  0  0  0
  1  5  2  0  0  0  0
  2  6  2  0  0  0  0
  3 10  2  0  0  0  0
  3 18  1  0  0  0  0
  4 11  1  0  0  0  0
  4 18  2  0  0  0  0
  5 20  1  0  0  0  0
  6 22  1  0  0  0  0
  7 12  2  0  0  0  0
  7 21  1  0  0  0  0
  8  9  2  0  0  0  0
  8 24  1  0  0  0  0
  9 26  1  0  0  0  0
 10 27  1  0  0  0  0
 11 27  2  0  0  0  0
 12 28  1  0  0  0  0
 13 14  2  0  0  0  0
 13 29  1  0  0  0  0
 14 30  1  0  0  0  0
 15 23  1  0  0  0  0
 15 28  2  0  0  0  0
 16 25  1  0  0  0  0
 16 26  2  0  0  0  0
 17 30  2  0  0  0  0
 17 31  1  0  0  0  0
 18 32  1  0  0  0  0
 19 32  1  0  0  0  0
 19 33  2  0  0  0  0
 19 34  1  0  0  0  0
 20 22  2  0  0  0  0
 20 40  1  0  0  0  0
 21 23  2  0  0  0  0
 21 41  1  0  0  0  0
 22 49  1  0  0  0  0
 23 42  1  0  0  0  0
 24 25  2  0  0  0  0
 24 59  1  0  0  0  0
 25 63  1  0  0  0  0
 26 71  1  0  0  0  0
 27 82  1  0  0  0  0
 28 83  1  0  0  0  0
 29 31  2  0  0  0  0
 29 82  1  0  0  0  0
 30 84  1  0  0  0  0
 31 85  1  0  0  0  0
 32 65  2  0  0  0  0
 33 66  1  0  0  0  0
 33 69  1  0  0  0  0
 34 70  1  0  0  0  0
 34 76  2  0  0  0  0
 35 50  1  0  0  0  0
 35 72  1  0  0  0  0
 35 77  2  0  0  0  0
 36 61  1  0  0  0  0
 36 67  1  0  0  0  0
 36 78  2  0  0  0  0
 37 60  1  0  0  0  0
 37 74  1  0  0  0  0
 37 79  2  0  0  0  0
 38 62  1  0  0  0  0
 38 73  1  0  0  0  0
 38 80  2  0  0  0  0
 39 68  1  0  0  0  0
 39 71  1  0  0  0  0
 39 81  2  0  0  0  0
 40 43  1  0  0  0  0
 41 50  1  0  0  0  0
 42 67  1  0  0  0  0
 43 45  1  0  0  0  0
 44 46  1  0  0  0  0
 44 47  1  0  0  0  0
 45 49  1  0  0  0  0
 46 51  1  0  0  0  0
 47 68  1  0  0  0  0
 48 51  1  0  0  0  0
 48 68  1  0  0  0  0
 49 72  1  0  0  0  0
 50 67  1  0  0  0  0
 51 66  1  0  0  0  0
 52 62  1  0  0  0  0
 53 63  1  0  0  0  0
 54 64  1  0  0  0  0
 55 64  1  0  0  0  0
 56 64  1  0  0  0  0
 57 74  1  0  0  0  0
 58 75  1  0  0  0  0
 59 74  1  0  0  0  0
 60 83  1  0  0  0  0
 61 64  1  0  0  0  0
 61 73  1  0  0  0  0
 62 75  1  0  0  0  0
 63 86  1  0  0  0  0
 63 87  1  0  0  0  0
 65 66  1  0  0  0  0
M  CHG  1  75   1
M  ISO  4  39 100  60 101  71 100  83 101
M  END
> <Batch ID>
0052

> <Smiles>
CNC(C)C(=O)NC(C(=O)N1Cc2cc([101O:1][101CH2:1]C(=O)N(C)Cc3ccc([100NH:0][100C:0](=O)N4CCCC(n5nc(-c6ccc(Oc7ccc(F)cc7F)cc6)c(C(N)=O)c5N)C4)cc3C(C)(F)F)ccc2CC1C(=O)NC1CCCc2ccccc21)C(C)(C)C

> <Shape>
0.268

> <Color>
0.083

> <Negative vol penalty>
0.000

$$$$

  -OEChem-04042322403D

 85 93  0     1  0  0  0  0  0999 V2000
  -27.6173  -13.9073   10.4728 C   0  0  0  0  0  0  0  0  0  0  0  0
  -27.5971  -14.5075   11.7276 C   0  0  0  0  0  0  0  0  0  0  0  0
  -28.6766  -11.7068   19.3451 C   0  0  0  0  0  0  0  0  0  0  0  0
  -29.8654  -12.1723   18.7833 C   0  0  0  0  0  0  0  0  0  0  0  0
  -27.4331  -25.6893   17.6316 C   0  0  0  0  0  0  0  0  0  0  0  0
  -27.5582  -25.3963   20.0265 C   0  0  0  0  0  0  0  0  0  0  0  0
  -27.9316  -14.6637    9.3445 C   0  0  0  0  0  0  0  0  0  0  0  0
  -27.8924  -15.8643   11.8551 C   0  0  0  0  0  0  0  0  0  0  0  0
  -24.6599  -18.2767   14.9171 C   0  0  0  0  0  0  0  0  0  0  0  0
  -27.9909  -12.4894   20.2742 C   0  0  0  0  0  0  0  0  0  0  0  0
  -30.3687  -13.4202   19.1507 C   0  0  0  0  0  0  0  0  0  0  0  0
  -26.3309  -26.5290   17.7919 C   0  0  0  0  0  0  0  0  0  0  0  0
  -26.4560  -26.2360   20.1868 C   0  0  0  0  0  0  0  0  0  0  0  0
  -24.8424  -18.1154   16.2899 C   0  0  0  0  0  0  0  0  0  0  0  0
  -25.8351  -29.5579   20.1760 C   0  0  0  0  0  0  0  0  0  0  0  0
  -25.9036  -30.5315   21.1725 C   0  0  0  0  0  0  0  0  0  0  0  0
  -25.9536  -20.2543   16.3873 C   0  0  0  0  0  0  0  0  0  0  0  0
  -23.9681  -29.5658   22.2489 C   0  0  0  0  0  0  0  0  0  0  0  0
  -28.0467  -25.1229   18.7490 C   0  0  0  0  0  0  0  0  0  0  0  0
  -30.5421  -24.6282   18.5590 C   0  0  0  0  0  0  0  0  0  0  0  0
  -28.2215  -16.0326    9.4570 C   0  0  0  0  0  0  0  0  0  0  0  0
  -25.1333  -19.4250   14.2662 C   0  0  0  0  0  0  0  0  0  0  0  0
  -28.2122  -16.6394   10.7274 C   0  0  0  0  0  0  0  0  0  0  0  0
  -25.7736  -20.4289   15.0067 C   0  0  0  0  0  0  0  0  0  0  0  0
  -28.4942  -13.7374   20.6415 C   0  0  0  0  0  0  0  0  0  0  0  0
  -29.6831  -14.2028   20.0798 C   0  0  0  0  0  0  0  0  0  0  0  0
  -25.8424  -26.8024   19.0695 C   0  0  0  0  0  0  0  0  0  0  0  0
  -25.4919  -19.1030   17.0247 C   0  0  0  0  0  0  0  0  0  0  0  0
  -24.8332  -28.5883   20.2159 C   0  0  0  0  0  0  0  0  0  0  0  0
  -24.9701  -30.5355   22.2090 C   0  0  0  0  0  0  0  0  0  0  0  0
  -23.8997  -28.5922   21.2524 C   0  0  0  0  0  0  0  0  0  0  0  0
  -29.1849  -24.2549   18.5840 C   0  0  0  0  0  0  0  0  0  0  0  0
  -31.2198  -23.4471   18.3800 C   0  0  0  0  0  0  0  0  0  0  0  0
  -31.1369  -25.9265   18.6863 C   0  0  0  0  0  0  0  0  0  0  0  0
  -25.9602  -17.4506   19.9890 C   0  0  0  0  0  0  0  0  0  0  0  0
  -26.1245  -16.0462   20.4875 C   0  0  0  0  0  0  0  0  0  0  0  0
  -27.2562  -19.9861   11.9679 C   0  0  0  0  0  0  0  0  0  0  0  0
  -26.1467  -23.0237   12.2216 C   0  0  0  0  0  0  0  0  0  0  0  0
  -24.6201  -25.4000   14.1372 C   0  0  0  0  0  0  0  0  0  0  0  0
  -29.8277  -17.8702   19.7274 C   0  0  0  0  0  0  0  0  0  0  0  0
  -28.6018  -16.7986    8.2147 C   0  0  0  0  0  0  0  0  0  0  0  0
  -24.9049  -19.5960   12.7894 C   0  0  0  0  0  0  0  0  0  0  0  0
  -26.2826  -21.6897   14.3588 C   0  0  0  0  0  0  0  0  0  0  0  0
  -28.5362  -18.3136    8.3893 C   0  0  0  0  0  0  0  0  0  0  0  0
  -30.7198  -19.0993   16.4424 C   0  0  0  0  0  0  0  0  0  0  0  0
  -29.2120  -18.7307    9.6917 C   0  0  0  0  0  0  0  0  0  0  0  0
  -30.5527  -20.6087   16.6267 C   0  0  0  0  0  0  0  0  0  0  0  0
  -29.6488  -18.3271   17.2071 C   0  0  0  0  0  0  0  0  0  0  0  0
  -29.4153  -20.1505   18.8485 C   0  0  0  0  0  0  0  0  0  0  0  0
  -28.5026  -18.1142   10.9034 C   0  0  1  0  0  0  0  0  0  0  0  0
  -25.8834  -20.5714   12.1424 C   0  0  1  0  0  0  0  0  0  0  0  0
  -30.4819  -20.9866   18.1181 C   0  0  2  0  0  0  0  0  0  0  0  0
  -26.0346  -18.5517   21.0071 C   0  0  0  0  0  0  0  0  0  0  0  0
  -23.8848  -27.7987   14.0851 C   0  0  0  0  0  0  0  0  0  0  0  0
  -29.0403  -23.9163   12.5958 C   0  0  0  0  0  0  0  0  0  0  0  0
  -28.1807  -26.0995   13.4693 C   0  0  0  0  0  0  0  0  0  0  0  0
  -27.6703  -25.4070   11.1278 C   0  0  0  0  0  0  0  0  0  0  0  0
  -21.7832  -24.6601   14.5418 C   0  0  0  0  0  0  0  0  0  0  0  0
  -27.7385  -14.5627   21.6425 C   0  0  0  0  0  0  0  0  0  0  0  0
  -30.2417  -15.5353   20.4581 C   0  0  0  0  0  0  0  0  0  0  0  0
  -26.5179  -24.2320   13.0470 C   0  0  1  0  0  0  0  0  0  0  0  0
  -23.4781  -26.3543   13.8379 C   0  0  2  0  0  0  0  0  0  0  0  0
  -27.8445  -24.8892   12.5721 C   0  0  0  0  0  0  0  0  0  0  0  0
  -29.0091  -22.9396   18.4328 N   0  0  0  0  0  0  0  0  0  0  0  0
  -25.7892  -17.5917   18.7134 N   0  0  0  0  0  0  0  0  0  1  0  0
  -30.2646  -22.4760   18.3109 N   0  0  0  0  0  0  0  0  0  0  0  0
  -26.0408  -21.8076   12.9113 N   0  0  0  0  0  0  0  0  0  0  0  0
  -29.6464  -18.7197   18.6234 N   0  0  0  0  0  0  0  0  0  0  0  0
  -32.5337  -23.1548   18.2763 N   0  0  0  0  0  0  0  0  0  0  0  0
  -30.2949  -27.0326   18.8649 N   0  0  0  0  0  0  0  0  0  0  0  0
  -27.3399  -15.8400   21.0989 N   0  0  0  0  0  0  0  0  0  0  0  0
  -27.2850  -18.8385   11.1987 N   0  0  0  0  0  0  0  0  0  0  0  0
  -25.3629  -25.1226   13.0092 N   0  0  0  0  0  0  0  0  0  0  0  0
  -30.0339  -16.5290   19.4284 N   0  0  0  0  0  0  0  0  0  0  0  0
  -22.3031  -26.0427   14.7000 N   0  3  0  0  0  0  0  0  0  0  0  0
  -32.3775  -26.1026   18.6266 O   0  0  0  0  0  0  0  0  0  0  0  0
  -25.2121  -15.2586   20.2957 O   0  0  0  0  0  0  0  0  0  0  0  0
  -28.2184  -20.5359   12.4911 O   0  0  0  0  0  0  0  0  0  0  0  0
  -25.9507  -23.1553   11.0109 O   0  0  0  0  0  0  0  0  0  0  0  0
  -24.8341  -24.9488   15.2603 O   0  0  0  0  0  0  0  0  0  0  0  0
  -29.8125  -18.2777   20.8939 O   0  0  0  0  0  0  0  0  0  0  0  0
  -24.7670  -27.6219   19.2263 O   0  0  0  0  0  0  0  0  0  0  0  0
  -25.6719  -18.9478   18.3646 O   0  0  0  0  0  0  0  0  0  1  0  0
  -25.0369  -31.4695   23.1667 F   0  0  0  0  0  0  0  0  0  0  0  0
  -22.9356  -27.6626   21.2967 F   0  0  0  0  0  0  0  0  0  0  0  0
  1  2  1  0  0  0  0
  1  7  2  0  0  0  0
  2  8  2  0  0  0  0
  3  4  1  0  0  0  0
  3 10  2  0  0  0  0
  4 11  2  0  0  0  0
  5 12  2  0  0  0  0
  5 19  1  0  0  0  0
  6 13  1  0  0  0  0
  6 19  2  0  0  0  0
  7 21  1  0  0  0  0
  8 23  1  0  0  0  0
  9 14  2  0  0  0  0
  9 22  1  0  0  0  0
 10 25  1  0  0  0  0
 11 26  1  0  0  0  0
 12 27  1  0  0  0  0
 13 27  2  0  0  0  0
 14 28  1  0  0  0  0
 15 16  2  0  0  0  0
 15 29  1  0  0  0  0
 16 30  1  0  0  0  0
 17 24  1  0  0  0  0
 17 28  2  0  0  0  0
 18 30  2  0  0  0  0
 18 31  1  0  0  0  0
 19 32  1  0  0  0  0
 20 32  1  0  0  0  0
 20 33  2  0  0  0  0
 20 34  1  0  0  0  0
 21 23  2  0  0  0  0
 21 41  1  0  0  0  0
 22 24  2  0  0  0  0
 22 42  1  0  0  0  0
 23 50  1  0  0  0  0
 24 43  1  0  0  0  0
 25 26  2  0  0  0  0
 25 59  1  0  0  0  0
 26 60  1  0  0  0  0
 27 82  1  0  0  0  0
 28 83  1  0  0  0  0
 29 31  2  0  0  0  0
 29 82  1  0  0  0  0
 30 84  1  0  0  0  0
 31 85  1  0  0  0  0
 32 64  2  0  0  0  0
 33 66  1  0  0  0  0
 33 69  1  0  0  0  0
 34 70  1  0  0  0  0
 34 76  2  0  0  0  0
 35 36  1  0  0  0  0
 35 53  1  0  0  0  0
 35 65  2  0  0  0  0
 36 71  1  0  0  0  0
 36 77  2  0  0  0  0
 37 51  1  0  0  0  0
 37 72  1  0  0  0  0
 37 78  2  0  0  0  0
 38 61  1  0  0  0  0
 38 67  1  0  0  0  0
 38 79  2  0  0  0  0
 39 62  1  0  0  0  0
 39 73  1  0  0  0  0
 39 80  2  0  0  0  0
 40 68  1  0  0  0  0
 40 74  1  0  0  0  0
 40 81  2  0  0  0  0
 41 44  1  0  0  0  0
 42 51  1  0  0  0  0
 43 67  1  0  0  0  0
 44 46  1  0  0  0  0
 45 47  1  0  0  0  0
 45 48  1  0  0  0  0
 46 50  1  0  0  0  0
 47 52  1  0  0  0  0
 48 68  1  0  0  0  0
 49 52  1  0  0  0  0
 49 68  1  0  0  0  0
 50 72  1  0  0  0  0
 51 67  1  0  0  0  0
 52 66  1  0  0  0  0
 54 62  1  0  0  0  0
 55 63  1  0  0  0  0
 56 63  1  0  0  0  0
 57 63  1  0  0  0  0
 58 75  1  0  0  0  0
 59 71  1  0  0  0  0
 60 74  1  0  0  0  0
 61 63  1  0  0  0  0
 61 73  1  0  0  0  0
 62 75  1  0  0  0  0
 64 66  1  0  0  0  0
 65 83  1  0  0  0  0
M  CHG  1  75   1
M  ISO  4  40 100  65 101  74 100  83 101
M  END
> <Batch ID>
0052

> <Smiles>
CNC(C)C(=O)NC(C(=O)N1Cc2cc([101O:1][101N:1]=C(C)C(=O)NCc3ccccc3C[100NH:0][100C:0](=O)N3CCCC(n4nc(-c5ccc(Oc6ccc(F)cc6F)cc5)c(C(N)=O)c4N)C3)ccc2CC1C(=O)NC1CCCc2ccccc21)C(C)(C)C

> <Shape>
0.183

> <Color>
0.070

> <Negative vol penalty>
0.000

$$$$

  -OEChem-04042322403D

 89 98  0     1  0  0  0  0  0999 V2000
  -27.3596  -33.9303   18.6398 C   0  0  0  0  0  0  0  0  0  0  0  0
  -27.8964  -32.6700   18.8824 C   0  0  0  0  0  0  0  0  0  0  0  0
  -23.0866   -9.8556   19.9388 C   0  0  0  0  0  0  0  0  0  0  0  0
  -23.8369   -9.8752   22.2353 C   0  0  0  0  0  0  0  0  0  0  0  0
  -26.2602  -34.3718   19.3748 C   0  0  0  0  0  0  0  0  0  0  0  0
  -27.3347  -31.8508   19.8611 C   0  0  0  0  0  0  0  0  0  0  0  0
  -26.8772  -25.7451   19.7332 C   0  0  0  0  0  0  0  0  0  0  0  0
  -32.6339  -17.5146   23.4403 C   0  0  0  0  0  0  0  0  0  0  0  0
  -32.0334  -16.6324   22.5422 C   0  0  0  0  0  0  0  0  0  0  0  0
  -22.3471   -8.7000   20.1903 C   0  0  0  0  0  0  0  0  0  0  0  0
  -23.0974   -8.7196   22.4868 C   0  0  0  0  0  0  0  0  0  0  0  0
  -27.6468  -24.7346   20.3079 C   0  0  0  0  0  0  0  0  0  0  0  0
  -19.8705   -7.9091   23.0791 C   0  0  0  0  0  0  0  0  0  0  0  0
  -19.1089   -7.8703   24.2470 C   0  0  0  0  0  0  0  0  0  0  0  0
  -26.1107  -24.6291   22.1649 C   0  0  0  0  0  0  0  0  0  0  0  0
  -20.3562   -5.9415   24.9962 C   0  0  0  0  0  0  0  0  0  0  0  0
  -23.8316  -10.4432   20.9613 C   0  0  0  0  0  0  0  0  0  0  0  0
  -24.1622  -12.9694   20.8327 C   0  0  0  0  0  0  0  0  0  0  0  0
  -25.6788  -33.5538   20.3564 C   0  0  0  0  0  0  0  0  0  0  0  0
  -25.7225  -26.2136   20.3765 C   0  0  0  0  0  0  0  0  0  0  0  0
  -26.2273  -32.2823   20.6109 C   0  0  0  0  0  0  0  0  0  0  0  0
  -25.3268  -25.6439   21.5950 C   0  0  0  0  0  0  0  0  0  0  0  0
  -31.8474  -18.3886   24.1908 C   0  0  0  0  0  0  0  0  0  0  0  0
  -30.4604  -18.3804   24.0430 C   0  0  0  0  0  0  0  0  0  0  0  0
  -29.8599  -17.4982   23.1448 C   0  0  0  0  0  0  0  0  0  0  0  0
  -30.6464  -16.6242   22.3944 C   0  0  0  0  0  0  0  0  0  0  0  0
  -22.3524   -8.1320   21.4642 C   0  0  0  0  0  0  0  0  0  0  0  0
  -27.2652  -24.1784   21.5253 C   0  0  0  0  0  0  0  0  0  0  0  0
  -20.8749   -6.9641   22.8697 C   0  0  0  0  0  0  0  0  0  0  0  0
  -19.3517   -6.8865   25.2056 C   0  0  0  0  0  0  0  0  0  0  0  0
  -21.1178   -5.9804   23.8283 C   0  0  0  0  0  0  0  0  0  0  0  0
  -24.5962  -11.6366   20.7021 C   0  0  0  0  0  0  0  0  0  0  0  0
  -25.2524  -13.7226   20.4710 C   0  0  0  0  0  0  0  0  0  0  0  0
  -30.4444  -21.4764   25.6826 C   0  0  0  0  0  0  0  0  0  0  0  0
  -29.7169  -21.1846   23.2866 C   0  0  0  0  0  0  0  0  0  0  0  0
  -22.8876  -13.4810   21.2444 C   0  0  0  0  0  0  0  0  0  0  0  0
  -24.7960  -29.0122   21.5651 C   0  0  0  0  0  0  0  0  0  0  0  0
  -21.9828  -27.4562   21.9977 C   0  0  0  0  0  0  0  0  0  0  0  0
  -20.3448  -24.4891   22.3981 C   0  0  0  0  0  0  0  0  0  0  0  0
  -30.7129  -14.7943   20.6642 C   0  0  0  0  0  0  0  0  0  0  0  0
  -24.5207  -34.0931   21.1581 C   0  0  0  0  0  0  0  0  0  0  0  0
  -24.8886  -27.2857   19.7303 C   0  0  0  0  0  0  0  0  0  0  0  0
  -24.0846  -26.0973   22.3161 C   0  0  0  0  0  0  0  0  0  0  0  0
  -30.7913  -22.9142   25.3772 C   0  0  0  0  0  0  0  0  0  0  0  0
  -23.7517  -33.0155   21.9181 C   0  0  0  0  0  0  0  0  0  0  0  0
  -29.9500  -23.4736   24.2502 C   0  0  0  0  0  0  0  0  0  0  0  0
  -29.6195  -12.3660   18.3009 C   0  0  0  0  0  0  0  0  0  0  0  0
  -24.7164  -32.0810   22.6413 C   0  0  0  0  0  0  0  0  0  0  0  0
  -28.1795  -12.0694   18.7257 C   0  0  0  0  0  0  0  0  0  0  0  0
  -30.5286  -12.6038   19.5054 C   0  0  0  0  0  0  0  0  0  0  0  0
  -28.6125  -13.3248   20.8759 C   0  0  0  0  0  0  0  0  0  0  0  0
  -25.6305  -31.3548   21.6471 C   0  0  1  0  0  0  0  0  0  0  0  0
  -30.1603  -22.6158   23.0125 C   0  0  2  0  0  0  0  0  0  0  0  0
  -24.0138  -28.0429   20.7248 C   0  0  1  0  0  0  0  0  0  0  0  0
  -27.6454  -13.1424   19.6948 C   0  0  2  0  0  0  0  0  0  0  0  0
  -32.5157  -19.3230   25.1454 C   0  0  0  0  0  0  0  0  0  0  0  0
  -28.3712  -17.4912   22.9879 C   0  0  0  0  0  0  0  0  0  0  0  0
  -18.0517  -23.5391   22.7674 C   0  0  0  0  0  0  0  0  0  0  0  0
  -22.0989  -28.3191   24.9220 C   0  0  0  0  0  0  0  0  0  0  0  0
  -20.3548  -26.5955   25.4275 C   0  0  0  0  0  0  0  0  0  0  0  0
  -19.8326  -28.4782   23.8765 C   0  0  0  0  0  0  0  0  0  0  0  0
  -20.4413  -22.9654   19.8628 C   0  0  0  0  0  0  0  0  0  0  0  0
  -29.6165  -19.3223   24.8522 C   0  0  0  0  0  0  0  0  0  0  0  0
  -29.4157  -23.2056   21.8167 C   0  0  0  0  0  0  0  0  0  1  0  0
  -21.3773  -26.6306   23.1070 C   0  0  1  0  0  0  0  0  0  0  0  0
  -19.0990  -23.9289   21.7359 C   0  0  2  0  0  0  0  0  0  0  0  0
  -20.9404  -27.4984   24.3209 C   0  0  0  0  0  0  0  0  0  0  0  0
  -25.8632  -11.5450   20.2894 N   0  0  0  0  0  0  0  0  0  0  0  0
  -26.2347  -12.8298   20.1576 N   0  0  0  0  0  0  0  0  0  0  0  0
  -29.9597  -20.7180   24.5990 N   0  0  0  0  0  0  0  0  0  0  0  0
  -23.3060  -27.1526   21.6470 N   0  0  0  0  0  0  0  0  0  0  0  0
  -29.9612  -13.6355   20.3764 N   0  0  0  0  0  0  0  0  0  0  0  0
  -25.4569  -15.0547   20.3936 N   0  0  0  0  0  0  0  0  0  0  0  0
  -21.8785  -12.5684   21.5810 N   0  0  0  0  0  0  0  0  0  0  0  0
  -30.0578  -15.7195   21.4763 N   0  0  0  0  0  0  0  0  0  0  0  0
  -24.9191  -30.2698   21.0059 N   0  0  0  0  0  0  0  0  0  0  0  0
  -20.2948  -25.8632   22.5006 N   0  0  0  0  0  0  0  0  0  0  0  0
  -19.4385  -22.7213   20.9314 N   0  3  0  0  0  0  0  0  0  0  0  0
  -30.6336  -21.0355   26.8184 O   0  0  0  0  0  0  0  0  0  0  0  0
  -29.2292  -20.4872   22.3941 O   0  0  0  0  0  0  0  0  0  0  0  0
  -22.6454  -14.7107   21.2958 O   0  0  0  0  0  0  0  0  0  0  0  0
  -25.2528  -28.6467   22.6419 O   0  0  0  0  0  0  0  0  0  0  0  0
  -21.3044  -28.3332   21.4571 O   0  0  0  0  0  0  0  0  0  0  0  0
  -21.2683  -23.7785   22.7890 O   0  0  0  0  0  0  0  0  0  0  0  0
  -31.8431  -14.9664   20.2006 O   0  0  0  0  0  0  0  0  0  0  0  0
  -21.6307   -7.0045   21.7100 O   0  0  0  0  0  0  0  0  0  0  0  0
  -28.0149  -23.1924   22.0888 O   0  0  0  0  0  0  0  0  0  1  0  0
  -18.6213   -6.8503   26.3278 F   0  0  0  0  0  0  0  0  0  0  0  0
  -22.0822   -5.0706   23.6332 F   0  0  0  0  0  0  0  0  0  0  0  0
  1  2  1  0  0  0  0
  1  5  2  0  0  0  0
  2  6  2  0  0  0  0
  3 10  2  0  0  0  0
  3 17  1  0  0  0  0
  4 11  1  0  0  0  0
  4 17  2  0  0  0  0
  5 19  1  0  0  0  0
  6 21  1  0  0  0  0
  7 12  2  0  0  0  0
  7 20  1  0  0  0  0
  8  9  1  0  0  0  0
  8 23  2  0  0  0  0
  9 26  2  0  0  0  0
 10 27  1  0  0  0  0
 11 27  2  0  0  0  0
 12 28  1  0  0  0  0
 13 14  2  0  0  0  0
 13 29  1  0  0  0  0
 14 30  1  0  0  0  0
 15 22  1  0  0  0  0
 15 28  2  0  0  0  0
 16 30  2  0  0  0  0
 16 31  1  0  0  0  0
 17 32  1  0  0  0  0
 18 32  1  0  0  0  0
 18 33  2  0  0  0  0
 18 36  1  0  0  0  0
 19 21  2  0  0  0  0
 19 41  1  0  0  0  0
 20 22  2  0  0  0  0
 20 42  1  0  0  0  0
 21 52  1  0  0  0  0
 22 43  1  0  0  0  0
 23 24  1  0  0  0  0
 23 56  1  0  0  0  0
 24 25  2  0  0  0  0
 24 63  1  0  0  0  0
 25 26  1  0  0  0  0
 25 57  1  0  0  0  0
 26 75  1  0  0  0  0
 27 86  1  0  0  0  0
 28 87  1  0  0  0  0
 29 31  2  0  0  0  0
 29 86  1  0  0  0  0
 30 88  1  0  0  0  0
 31 89  1  0  0  0  0
 32 68  2  0  0  0  0
 33 69  1  0  0  0  0
 33 73  1  0  0  0  0
 34 44  1  0  0  0  0
 34 70  1  0  0  0  0
 34 79  2  0  0  0  0
 35 53  1  0  0  0  0
 35 70  1  0  0  0  0
 35 80  2  0  0  0  0
 36 74  1  0  0  0  0
 36 81  2  0  0  0  0
 37 54  1  0  0  0  0
 37 76  1  0  0  0  0
 37 82  2  0  0  0  0
 38 65  1  0  0  0  0
 38 71  1  0  0  0  0
 38 83  2  0  0  0  0
 39 66  1  0  0  0  0
 39 77  1  0  0  0  0
 39 84  2  0  0  0  0
 40 72  1  0  0  0  0
 40 75  1  0  0  0  0
 40 85  2  0  0  0  0
 41 45  1  0  0  0  0
 42 54  1  0  0  0  0
 43 71  1  0  0  0  0
 44 46  1  0  0  0  0
 45 48  1  0  0  0  0
 46 53  1  0  0  0  0
 47 49  1  0  0  0  0
 47 50  1  0  0  0  0
 48 52  1  0  0  0  0
 49 55  1  0  0  0  0
 50 72  1  0  0  0  0
 51 55  1  0  0  0  0
 51 72  1  0  0  0  0
 52 76  1  0  0  0  0
 53 64  1  0  0  0  0
 54 71  1  0  0  0  0
 55 69  1  0  0  0  0
 58 66  1  0  0  0  0
 59 67  1  0  0  0  0
 60 67  1  0  0  0  0
 61 67  1  0  0  0  0
 62 78  1  0  0  0  0
 63 70  1  0  0  0  0
 64 87  1  0  0  0  0
 65 67  1  0  0  0  0
 65 77  1  0  0  0  0
 66 78  1  0  0  0  0
 68 69  1  0  0  0  0
M  CHG  1  78   1
M  ISO  4  40 100  64 101  75 100  87 101
M  END
> <Batch ID>
0052

> <Smiles>
CNC(C)C(=O)NC(C(=O)N1Cc2cc([101O:1][101CH2:1]C3CCC(=O)N(Cc4c(C)ccc([100NH:0][100C:0](=O)N5CCCC(n6nc(-c7ccc(Oc8ccc(F)cc8F)cc7)c(C(N)=O)c6N)C5)c4C)C3=O)ccc2CC1C(=O)NC1CCCc2ccccc21)C(C)(C)C

> <Shape>
0.273

> <Color>
0.188

> <Negative vol penalty>
0.000

$$$$

  -OEChem-04042322403D

 86 94  0     1  0  0  0  0  0999 V2000
  -22.4977  -33.8995   13.1413 C   0  0  0  0  0  0  0  0  0  0  0  0
  -22.9401  -32.7112   13.7138 C   0  0  0  0  0  0  0  0  0  0  0  0
  -22.8952  -10.1517   19.9035 C   0  0  0  0  0  0  0  0  0  0  0  0
  -23.8849   -9.6989   22.0604 C   0  0  0  0  0  0  0  0  0  0  0  0
  -22.9585  -35.1213   13.6299 C   0  0  0  0  0  0  0  0  0  0  0  0
  -23.8444  -32.7441   14.7747 C   0  0  0  0  0  0  0  0  0  0  0  0
  -24.0952  -28.8803   19.5196 C   0  0  0  0  0  0  0  0  0  0  0  0
  -29.9280  -18.1834   21.7047 C   0  0  0  0  0  0  0  0  0  0  0  0
  -32.0038  -17.9668   20.4877 C   0  0  0  0  0  0  0  0  0  0  0  0
  -29.6722  -19.3902   21.0538 C   0  0  0  0  0  0  0  0  0  0  0  0
  -31.7480  -19.1736   19.8367 C   0  0  0  0  0  0  0  0  0  0  0  0
  -22.0846   -9.0247   20.0388 C   0  0  0  0  0  0  0  0  0  0  0  0
  -23.0743   -8.5718   22.1957 C   0  0  0  0  0  0  0  0  0  0  0  0
  -24.8898  -27.7647   19.7798 C   0  0  0  0  0  0  0  0  0  0  0  0
  -19.8687   -7.8965   23.0256 C   0  0  0  0  0  0  0  0  0  0  0  0
  -19.2357   -7.6989   24.2527 C   0  0  0  0  0  0  0  0  0  0  0  0
  -26.3993  -29.1454   21.0581 C   0  0  0  0  0  0  0  0  0  0  0  0
  -20.3750   -5.5828   24.4997 C   0  0  0  0  0  0  0  0  0  0  0  0
  -23.7954  -10.4888   20.9143 C   0  0  0  0  0  0  0  0  0  0  0  0
  -24.3390  -12.9664   21.1860 C   0  0  0  0  0  0  0  0  0  0  0  0
  -23.8615  -35.1694   14.7036 C   0  0  0  0  0  0  0  0  0  0  0  0
  -24.4531  -30.1411   20.0185 C   0  0  0  0  0  0  0  0  0  0  0  0
  -24.3188  -33.9676   15.2773 C   0  0  0  0  0  0  0  0  0  0  0  0
  -25.6062  -30.2750   20.8050 C   0  0  0  0  0  0  0  0  0  0  0  0
  -31.0938  -17.4717   21.4217 C   0  0  0  0  0  0  0  0  0  0  0  0
  -30.5822  -19.8853   20.1198 C   0  0  0  0  0  0  0  0  0  0  0  0
  -22.1741   -8.2348   21.1849 C   0  0  0  0  0  0  0  0  0  0  0  0
  -26.0435  -27.8976   20.5467 C   0  0  0  0  0  0  0  0  0  0  0  0
  -20.7548   -6.9371   22.5355 C   0  0  0  0  0  0  0  0  0  0  0  0
  -19.4889   -6.5421   24.9898 C   0  0  0  0  0  0  0  0  0  0  0  0
  -21.0080   -5.7803   23.2725 C   0  0  0  0  0  0  0  0  0  0  0  0
  -24.6334  -11.6526   20.7748 C   0  0  0  0  0  0  0  0  0  0  0  0
  -25.4484  -13.6941   20.8307 C   0  0  0  0  0  0  0  0  0  0  0  0
  -23.1675  -13.4828   21.8315 C   0  0  0  0  0  0  0  0  0  0  0  0
  -25.2110  -32.9379   18.7119 C   0  0  0  0  0  0  0  0  0  0  0  0
  -25.1822  -33.9449   21.7953 C   0  0  0  0  0  0  0  0  0  0  0  0
  -29.2191  -21.9433   19.6186 C   0  0  0  0  0  0  0  0  0  0  0  0
  -28.1591  -25.0390   19.8391 C   0  0  0  0  0  0  0  0  0  0  0  0
  -25.4687  -33.1565   25.1034 C   0  0  0  0  0  0  0  0  0  0  0  0
  -30.9896  -14.2951   20.5498 C   0  0  0  0  0  0  0  0  0  0  0  0
  -24.3680  -36.5125   15.1666 C   0  0  0  0  0  0  0  0  0  0  0  0
  -23.5710  -31.3297   19.7512 C   0  0  0  0  0  0  0  0  0  0  0  0
  -26.0235  -31.6027   21.3809 C   0  0  0  0  0  0  0  0  0  0  0  0
  -25.0367  -36.4715   16.5382 C   0  0  0  0  0  0  0  0  0  0  0  0
  -29.4114  -12.4558   17.9415 C   0  0  0  0  0  0  0  0  0  0  0  0
  -26.0100  -35.3000   16.6228 C   0  0  0  0  0  0  0  0  0  0  0  0
  -28.0063  -12.1861   18.4826 C   0  0  0  0  0  0  0  0  0  0  0  0
  -30.4629  -12.3973   19.0474 C   0  0  0  0  0  0  0  0  0  0  0  0
  -28.7840  -12.9945   20.7498 C   0  0  0  0  0  0  0  0  0  0  0  0
  -25.2805  -33.9629   16.4457 C   0  0  1  0  0  0  0  0  0  0  0  0
  -24.3064  -32.6603   19.8790 C   0  0  1  0  0  0  0  0  0  0  0  0
  -27.6824  -13.0981   19.6812 C   0  0  2  0  0  0  0  0  0  0  0  0
  -25.4371  -34.1977   27.3864 C   0  0  0  0  0  0  0  0  0  0  0  0
  -27.9943  -35.0355   21.3342 C   0  0  0  0  0  0  0  0  0  0  0  0
  -28.2664  -35.1900   23.8182 C   0  0  0  0  0  0  0  0  0  0  0  0
  -26.5020  -36.5307   22.6728 C   0  0  0  0  0  0  0  0  0  0  0  0
  -23.1301  -31.5438   25.9335 C   0  0  0  0  0  0  0  0  0  0  0  0
  -31.3672  -16.1814   22.1178 C   0  0  0  0  0  0  0  0  0  0  0  0
  -29.3363  -23.1572   18.7172 C   0  0  0  0  0  0  0  0  0  0  0  0
  -26.8386  -25.7787   19.8159 C   0  0  0  0  0  0  0  0  0  1  0  0
  -26.2058  -34.0303   22.9016 C   0  0  1  0  0  0  0  0  0  0  0  0
  -24.6126  -33.5198   26.3032 C   0  0  2  0  0  0  0  0  0  0  0  0
  -27.2356  -35.1718   22.6694 C   0  0  0  0  0  0  0  0  0  0  0  0
  -25.8356  -11.5487   20.2020 N   0  0  0  0  0  0  0  0  0  0  0  0
  -26.3063  -12.8066   20.2506 N   0  0  0  0  0  0  0  0  0  0  0  0
  -25.1315  -32.7363   21.0863 N   0  0  0  0  0  0  0  0  0  0  0  0
  -30.0970  -13.2857   20.1532 N   0  0  0  0  0  0  0  0  0  0  0  0
  -25.7639  -15.0002   20.9609 N   0  0  0  0  0  0  0  0  0  0  0  0
  -22.1213  -12.5976   22.1248 N   0  0  0  0  0  0  0  0  0  0  0  0
  -30.3228  -21.1096   19.4590 N   0  0  0  0  0  0  0  0  0  0  0  0
  -24.5935  -33.5964   17.6657 N   0  0  0  0  0  0  0  0  0  0  0  0
  -28.1915  -24.0189   18.9013 N   0  0  0  0  0  0  0  0  0  0  0  0
  -25.4532  -34.1486   24.1458 N   0  0  0  0  0  0  0  0  0  0  0  0
  -30.5625  -15.0967   21.6013 N   0  0  0  0  0  0  0  0  0  0  0  0
  -23.9886  -32.2971   26.8835 N   0  3  0  0  0  0  0  0  0  0  0  0
  -23.0452  -14.6964   22.1241 O   0  0  0  0  0  0  0  0  0  0  0  0
  -26.3828  -32.5823   18.7577 O   0  0  0  0  0  0  0  0  0  0  0  0
  -24.4497  -34.9122   21.5732 O   0  0  0  0  0  0  0  0  0  0  0  0
  -28.2649  -21.7779   20.3719 O   0  0  0  0  0  0  0  0  0  0  0  0
  -29.0707  -25.3308   20.6085 O   0  0  0  0  0  0  0  0  0  0  0  0
  -26.0920  -32.1002   25.0251 O   0  0  0  0  0  0  0  0  0  0  0  0
  -32.0837  -14.4725   20.0034 O   0  0  0  0  0  0  0  0  0  0  0  0
  -21.3831   -7.1351   21.3174 O   0  0  0  0  0  0  0  0  0  0  0  0
  -26.8213  -26.8104   20.8016 O   0  0  0  0  0  0  0  0  0  1  0  0
  -18.8821   -6.3532   26.1689 F   0  0  0  0  0  0  0  0  0  0  0  0
  -21.8592   -4.8557   22.8074 F   0  0  0  0  0  0  0  0  0  0  0  0
  1  2  1  0  0  0  0
  1  5  2  0  0  0  0
  2  6  2  0  0  0  0
  3 12  2  0  0  0  0
  3 19  1  0  0  0  0
  4 13  1  0  0  0  0
  4 19  2  0  0  0  0
  5 21  1  0  0  0  0
  6 23  1  0  0  0  0
  7 14  2  0  0  0  0
  7 22  1  0  0  0  0
  8 10  2  0  0  0  0
  8 25  1  0  0  0  0
  9 11  1  0  0  0  0
  9 25  2  0  0  0  0
 10 26  1  0  0  0  0
 11 26  2  0  0  0  0
 12 27  1  0  0  0  0
 13 27  2  0  0  0  0
 14 28  1  0  0  0  0
 15 16  2  0  0  0  0
 15 29  1  0  0  0  0
 16 30  1  0  0  0  0
 17 24  1  0  0  0  0
 17 28  2  0  0  0  0
 18 30  2  0  0  0  0
 18 31  1  0  0  0  0
 19 32  1  0  0  0  0
 20 32  1  0  0  0  0
 20 33  2  0  0  0  0
 20 34  1  0  0  0  0
 21 23  2  0  0  0  0
 21 41  1  0  0  0  0
 22 24  2  0  0  0  0
 22 42  1  0  0  0  0
 23 50  1  0  0  0  0
 24 43  1  0  0  0  0
 25 58  1  0  0  0  0
 26 70  1  0  0  0  0
 27 83  1  0  0  0  0
 28 84  1  0  0  0  0
 29 31  2  0  0  0  0
 29 83  1  0  0  0  0
 30 85  1  0  0  0  0
 31 86  1  0  0  0  0
 32 64  2  0  0  0  0
 33 65  1  0  0  0  0
 33 68  1  0  0  0  0
 34 69  1  0  0  0  0
 34 76  2  0  0  0  0
 35 51  1  0  0  0  0
 35 71  1  0  0  0  0
 35 77  2  0  0  0  0
 36 61  1  0  0  0  0
 36 66  1  0  0  0  0
 36 78  2  0  0  0  0
 37 59  1  0  0  0  0
 37 70  1  0  0  0  0
 37 79  2  0  0  0  0
 38 60  1  0  0  0  0
 38 72  1  0  0  0  0
 38 80  2  0  0  0  0
 39 62  1  0  0  0  0
 39 73  1  0  0  0  0
 39 81  2  0  0  0  0
 40 67  1  0  0  0  0
 40 74  1  0  0  0  0
 40 82  2  0  0  0  0
 41 44  1  0  0  0  0
 42 51  1  0  0  0  0
 43 66  1  0  0  0  0
 44 46  1  0  0  0  0
 45 47  1  0  0  0  0
 45 48  1  0  0  0  0
 46 50  1  0  0  0  0
 47 52  1  0  0  0  0
 48 67  1  0  0  0  0
 49 52  1  0  0  0  0
 49 67  1  0  0  0  0
 50 71  1  0  0  0  0
 51 66  1  0  0  0  0
 52 65  1  0  0  0  0
 53 62  1  0  0  0  0
 54 63  1  0  0  0  0
 55 63  1  0  0  0  0
 56 63  1  0  0  0  0
 57 75  1  0  0  0  0
 58 74  1  0  0  0  0
 59 72  1  0  0  0  0
 60 84  1  0  0  0  0
 61 63  1  0  0  0  0
 61 73  1  0  0  0  0
 62 75  1  0  0  0  0
 64 65  1  0  0  0  0
M  CHG  1  75   1
M  ISO  4  40 100  60 101  74 100  84 101
M  END
> <Batch ID>
0052

> <Smiles>
CNC(C)C(=O)NC(C(=O)N1Cc2cc([101O:1][101CH2:1]C(=O)NCC(=O)Nc3ccc(C[100NH:0][100C:0](=O)N4CCCC(n5nc(-c6ccc(Oc7ccc(F)cc7F)cc6)c(C(N)=O)c5N)C4)cc3)ccc2CC1C(=O)NC1CCCc2ccccc21)C(C)(C)C

> <Shape>
0.339

> <Color>
0.192

> <Negative vol penalty>
0.000

$$$$

  -OEChem-04042322403D

 84 92  0     1  0  0  0  0  0999 V2000
  -18.2792  -25.0132   25.1016 C   0  0  0  0  0  0  0  0  0  0  0  0
  -19.5346  -24.5855   24.6816 C   0  0  0  0  0  0  0  0  0  0  0  0
  -23.8061   -8.6905   20.1288 C   0  0  0  0  0  0  0  0  0  0  0  0
  -23.0537  -10.6978   21.2431 C   0  0  0  0  0  0  0  0  0  0  0  0
  -17.7752  -26.2346   24.6565 C   0  0  0  0  0  0  0  0  0  0  0  0
  -20.2863  -25.3785   23.8153 C   0  0  0  0  0  0  0  0  0  0  0  0
  -26.3792  -25.9927   23.7388 C   0  0  0  0  0  0  0  0  0  0  0  0
  -22.8433   -7.9493   20.8138 C   0  0  0  0  0  0  0  0  0  0  0  0
  -22.0908   -9.9566   21.9281 C   0  0  0  0  0  0  0  0  0  0  0  0
  -27.3714  -25.4045   22.9557 C   0  0  0  0  0  0  0  0  0  0  0  0
  -22.4488   -6.6263   23.8989 C   0  0  0  0  0  0  0  0  0  0  0  0
  -22.8448   -5.4124   24.4604 C   0  0  0  0  0  0  0  0  0  0  0  0
  -27.3420  -27.3205   21.4902 C   0  0  0  0  0  0  0  0  0  0  0  0
  -30.6732  -17.9441   19.6367 C   0  0  0  0  0  0  0  0  0  0  0  0
  -28.7879  -17.9247   18.1259 C   0  0  0  0  0  0  0  0  0  0  0  0
  -21.2181   -4.2531   23.1014 C   0  0  0  0  0  0  0  0  0  0  0  0
  -23.9114  -10.0647   20.3435 C   0  0  0  0  0  0  0  0  0  0  0  0
  -24.7606  -11.4685   18.3901 C   0  0  0  0  0  0  0  0  0  0  0  0
  -18.5252  -27.0475   23.7919 C   0  0  0  0  0  0  0  0  0  0  0  0
  -25.8522  -27.2464   23.3968 C   0  0  0  0  0  0  0  0  0  0  0  0
  -19.7913  -26.6113   23.3571 C   0  0  0  0  0  0  0  0  0  0  0  0
  -26.3449  -27.9235   22.2721 C   0  0  0  0  0  0  0  0  0  0  0  0
  -30.7794  -19.3267   19.4864 C   0  0  0  0  0  0  0  0  0  0  0  0
  -29.8899  -20.0084   18.6559 C   0  0  0  0  0  0  0  0  0  0  0  0
  -29.6774  -17.2431   18.9564 C   0  0  0  0  0  0  0  0  0  0  0  0
  -21.9856   -8.5823   21.7134 C   0  0  0  0  0  0  0  0  0  0  0  0
  -27.8509  -26.0671   21.8295 C   0  0  0  0  0  0  0  0  0  0  0  0
  -21.4373   -6.6536   22.9388 C   0  0  0  0  0  0  0  0  0  0  0  0
  -22.2295   -4.2258   24.0616 C   0  0  0  0  0  0  0  0  0  0  0  0
  -28.8941  -19.3074   17.9756 C   0  0  0  0  0  0  0  0  0  0  0  0
  -20.8220   -5.4670   22.5400 C   0  0  0  0  0  0  0  0  0  0  0  0
  -24.9062  -10.8308   19.6367 C   0  0  0  0  0  0  0  0  0  0  0  0
  -25.9811  -12.0549   18.1598 C   0  0  0  0  0  0  0  0  0  0  0  0
  -23.6238  -11.5258   17.5183 C   0  0  0  0  0  0  0  0  0  0  0  0
  -22.9734  -28.3250   22.5888 C   0  0  0  0  0  0  0  0  0  0  0  0
  -24.4456  -31.2122   22.7251 C   0  0  0  0  0  0  0  0  0  0  0  0
  -29.4222  -23.5930   19.6947 C   0  0  0  0  0  0  0  0  0  0  0  0
  -27.3519  -32.9933   22.5572 C   0  0  0  0  0  0  0  0  0  0  0  0
  -30.3701  -15.0098   19.8940 C   0  0  0  0  0  0  0  0  0  0  0  0
  -17.9186  -28.3378   23.3001 C   0  0  0  0  0  0  0  0  0  0  0  0
  -24.8012  -27.8792   24.2670 C   0  0  0  0  0  0  0  0  0  0  0  0
  -25.8268  -29.2804   21.8734 C   0  0  0  0  0  0  0  0  0  0  0  0
  -18.9363  -29.2920   22.6804 C   0  0  0  0  0  0  0  0  0  0  0  0
  -30.4020  -11.5133   20.5649 C   0  0  0  0  0  0  0  0  0  0  0  0
  -19.8484  -28.5447   21.7126 C   0  0  0  0  0  0  0  0  0  0  0  0
  -28.9630  -11.0765   20.2807 C   0  0  0  0  0  0  0  0  0  0  0  0
  -30.4581  -12.8998   21.2037 C   0  0  0  0  0  0  0  0  0  0  0  0
  -28.2991  -13.5132   20.1879 C   0  0  0  0  0  0  0  0  0  0  0  0
  -20.6473  -27.4549   22.4375 C   0  0  1  0  0  0  0  0  0  0  0  0
  -23.9721  -28.9297   23.5346 C   0  0  1  0  0  0  0  0  0  0  0  0
  -28.1950  -12.1499   19.4848 C   0  0  2  0  0  0  0  0  0  0  0  0
  -31.8531  -20.0561   20.2251 C   0  0  0  0  0  0  0  0  0  0  0  0
  -28.2332  -35.3403   22.6680 C   0  0  0  0  0  0  0  0  0  0  0  0
  -23.4233  -31.7271   19.8967 C   0  0  0  0  0  0  0  0  0  0  0  0
  -25.0804  -33.5948   19.7126 C   0  0  0  0  0  0  0  0  0  0  0  0
  -23.2770  -33.6949   21.4332 C   0  0  0  0  0  0  0  0  0  0  0  0
  -29.0164  -32.3800   24.9263 C   0  0  0  0  0  0  0  0  0  0  0  0
  -29.9865  -21.4965   18.4815 C   0  0  0  0  0  0  0  0  0  0  0  0
  -28.8493  -24.0693   21.0124 C   0  0  0  0  0  0  0  0  0  1  0  0
  -25.1956  -32.0774   21.7412 C   0  0  1  0  0  0  0  0  0  0  0  0
  -27.9229  -34.0763   23.4547 C   0  0  2  0  0  0  0  0  0  0  0  0
  -24.2527  -32.7471   20.7021 C   0  0  0  0  0  0  0  0  0  0  0  0
  -26.1232  -10.9963   20.1615 N   0  0  0  0  0  0  0  0  0  0  0  0
  -26.7535  -11.7445   19.2402 N   0  0  0  0  0  0  0  0  0  0  0  0
  -24.7950  -29.8547   22.7526 N   0  0  0  0  0  0  0  0  0  0  0  0
  -29.7130  -13.8652   20.3926 N   0  0  0  0  0  0  0  0  0  0  0  0
  -26.4582  -12.8004   17.1405 N   0  0  0  0  0  0  0  0  0  0  0  0
  -22.4491  -10.8682   17.9081 N   0  0  0  0  0  0  0  0  0  0  0  0
  -29.5691  -15.8385   19.1091 N   0  0  0  0  0  0  0  0  0  0  0  0
  -21.7518  -28.0391   23.1677 N   0  0  0  0  0  0  0  0  0  0  0  0
  -29.4788  -22.2096   19.6307 N   0  0  0  0  0  0  0  0  0  0  0  0
  -25.9735  -33.0206   22.5373 N   0  0  0  0  0  0  0  0  0  0  0  0
  -29.1802  -33.6042   24.1007 N   0  3  0  0  0  0  0  0  0  0  0  0
  -23.6541  -12.1281   16.4184 O   0  0  0  0  0  0  0  0  0  0  0  0
  -23.2875  -28.1333   21.4198 O   0  0  0  0  0  0  0  0  0  0  0  0
  -23.5866  -31.7235   23.4478 O   0  0  0  0  0  0  0  0  0  0  0  0
  -29.7851  -24.3641   18.8105 O   0  0  0  0  0  0  0  0  0  0  0  0
  -28.0582  -32.2044   21.9332 O   0  0  0  0  0  0  0  0  0  0  0  0
  -31.5634  -15.2241   20.1224 O   0  0  0  0  0  0  0  0  0  0  0  0
  -21.0458   -7.8595   22.3818 O   0  0  0  0  0  0  0  0  0  0  0  0
  -28.8189  -25.4951   21.0630 O   0  0  0  0  0  0  0  0  0  1  0  0
  -22.6110   -3.0600   24.5997 F   0  0  0  0  0  0  0  0  0  0  0  0
  -28.0326  -19.9534   17.1771 F   0  0  0  0  0  0  0  0  0  0  0  0
  -19.8505   -5.4868   21.6171 F   0  0  0  0  0  0  0  0  0  0  0  0
  1  2  1  0  0  0  0
  1  5  2  0  0  0  0
  2  6  2  0  0  0  0
  3  8  2  0  0  0  0
  3 17  1  0  0  0  0
  4  9  1  0  0  0  0
  4 17  2  0  0  0  0
  5 19  1  0  0  0  0
  6 21  1  0  0  0  0
  7 10  2  0  0  0  0
  7 20  1  0  0  0  0
  8 26  1  0  0  0  0
  9 26  2  0  0  0  0
 10 27  1  0  0  0  0
 11 12  2  0  0  0  0
 11 28  1  0  0  0  0
 12 29  1  0  0  0  0
 13 22  1  0  0  0  0
 13 27  2  0  0  0  0
 14 23  2  0  0  0  0
 14 25  1  0  0  0  0
 15 25  2  0  0  0  0
 15 30  1  0  0  0  0
 16 29  2  0  0  0  0
 16 31  1  0  0  0  0
 17 32  1  0  0  0  0
 18 32  1  0  0  0  0
 18 33  2  0  0  0  0
 18 34  1  0  0  0  0
 19 21  2  0  0  0  0
 19 40  1  0  0  0  0
 20 22  2  0  0  0  0
 20 41  1  0  0  0  0
 21 49  1  0  0  0  0
 22 42  1  0  0  0  0
 23 24  1  0  0  0  0
 23 52  1  0  0  0  0
 24 30  2  0  0  0  0
 24 58  1  0  0  0  0
 25 69  1  0  0  0  0
 26 80  1  0  0  0  0
 27 81  1  0  0  0  0
 28 31  2  0  0  0  0
 28 80  1  0  0  0  0
 29 82  1  0  0  0  0
 30 83  1  0  0  0  0
 31 84  1  0  0  0  0
 32 63  2  0  0  0  0
 33 64  1  0  0  0  0
 33 67  1  0  0  0  0
 34 68  1  0  0  0  0
 34 74  2  0  0  0  0
 35 50  1  0  0  0  0
 35 70  1  0  0  0  0
 35 75  2  0  0  0  0
 36 60  1  0  0  0  0
 36 65  1  0  0  0  0
 36 76  2  0  0  0  0
 37 59  1  0  0  0  0
 37 71  1  0  0  0  0
 37 77  2  0  0  0  0
 38 61  1  0  0  0  0
 38 72  1  0  0  0  0
 38 78  2  0  0  0  0
 39 66  1  0  0  0  0
 39 69  1  0  0  0  0
 39 79  2  0  0  0  0
 40 43  1  0  0  0  0
 41 50  1  0  0  0  0
 42 65  1  0  0  0  0
 43 45  1  0  0  0  0
 44 46  1  0  0  0  0
 44 47  1  0  0  0  0
 45 49  1  0  0  0  0
 46 51  1  0  0  0  0
 47 66  1  0  0  0  0
 48 51  1  0  0  0  0
 48 66  1  0  0  0  0
 49 70  1  0  0  0  0
 50 65  1  0  0  0  0
 51 64  1  0  0  0  0
 53 61  1  0  0  0  0
 54 62  1  0  0  0  0
 55 62  1  0  0  0  0
 56 62  1  0  0  0  0
 57 73  1  0  0  0  0
 58 71  1  0  0  0  0
 59 81  1  0  0  0  0
 60 62  1  0  0  0  0
 60 72  1  0  0  0  0
 61 73  1  0  0  0  0
 63 64  1  0  0  0  0
M  CHG  1  73   1
M  ISO  4  39 100  59 101  69 100  81 101
M  END
> <Batch ID>
0052

> <Smiles>
CNC(C)C(=O)NC(C(=O)N1Cc2cc([101O:1][101CH2:1]C(=O)NCc3c(C)cc([100NH:0][100C:0](=O)N4CCCC(n5nc(-c6ccc(Oc7ccc(F)cc7F)cc6)c(C(N)=O)c5N)C4)cc3F)ccc2CC1C(=O)NC1CCCc2ccccc21)C(C)(C)C

> <Shape>
0.280

> <Color>
0.111

> <Negative vol penalty>
0.000

$$$$

  -OEChem-04042322403D

 84 92  0     1  0  0  0  0  0999 V2000
  -24.4753  -35.4921   21.3484 C   0  0  0  0  0  0  0  0  0  0  0  0
  -25.2837  -34.3611   21.4000 C   0  0  0  0  0  0  0  0  0  0  0  0
  -23.4480  -11.8640   20.9272 C   0  0  0  0  0  0  0  0  0  0  0  0
  -25.7912  -11.5777   21.4416 C   0  0  0  0  0  0  0  0  0  0  0  0
  -23.1915  -35.4553   21.8911 C   0  0  0  0  0  0  0  0  0  0  0  0
  -24.8092  -33.1929   21.9953 C   0  0  0  0  0  0  0  0  0  0  0  0
  -25.8287  -29.0611   19.2504 C   0  0  0  0  0  0  0  0  0  0  0  0
  -31.1248  -18.7897   20.7113 C   0  0  0  0  0  0  0  0  0  0  0  0
  -31.4730  -19.7304   21.6806 C   0  0  0  0  0  0  0  0  0  0  0  0
  -23.3174  -10.4860   20.7549 C   0  0  0  0  0  0  0  0  0  0  0  0
  -25.6606  -10.1997   21.2694 C   0  0  0  0  0  0  0  0  0  0  0  0
  -27.1274  -28.5581   19.3153 C   0  0  0  0  0  0  0  0  0  0  0  0
  -22.2851   -7.0075   20.5331 C   0  0  0  0  0  0  0  0  0  0  0  0
  -21.1803   -6.3833   21.1122 C   0  0  0  0  0  0  0  0  0  0  0  0
  -26.3931  -26.8815   20.8865 C   0  0  0  0  0  0  0  0  0  0  0  0
  -30.9566  -20.5492   19.0642 C   0  0  0  0  0  0  0  0  0  0  0  0
  -21.9062   -7.1231   23.2946 C   0  0  0  0  0  0  0  0  0  0  0  0
  -24.6849  -12.4099   21.2704 C   0  0  0  0  0  0  0  0  0  0  0  0
  -24.6480  -14.5616   22.6403 C   0  0  0  0  0  0  0  0  0  0  0  0
  -22.6975  -34.2831   22.4848 C   0  0  0  0  0  0  0  0  0  0  0  0
  -24.8030  -28.4840   20.0128 C   0  0  0  0  0  0  0  0  0  0  0  0
  -23.5181  -33.1407   22.5477 C   0  0  0  0  0  0  0  0  0  0  0  0
  -25.0817  -27.3774   20.8276 C   0  0  0  0  0  0  0  0  0  0  0  0
  -30.8666  -19.1992   19.4031 C   0  0  0  0  0  0  0  0  0  0  0  0
  -31.5630  -21.0805   21.3417 C   0  0  0  0  0  0  0  0  0  0  0  0
  -31.3048  -21.4899   20.0335 C   0  0  0  0  0  0  0  0  0  0  0  0
  -24.4237   -9.6539   20.9261 C   0  0  0  0  0  0  0  0  0  0  0  0
  -27.4103  -27.4700   20.1356 C   0  0  0  0  0  0  0  0  0  0  0  0
  -23.2006   -7.6893   21.3348 C   0  0  0  0  0  0  0  0  0  0  0  0
  -20.9908   -6.4411   22.4929 C   0  0  0  0  0  0  0  0  0  0  0  0
  -23.0111   -7.7472   22.7155 C   0  0  0  0  0  0  0  0  0  0  0  0
  -24.8205  -13.8333   21.4479 C   0  0  0  0  0  0  0  0  0  0  0  0
  -24.8866  -15.8663   22.2833 C   0  0  0  0  0  0  0  0  0  0  0  0
  -24.3029  -14.1000   23.9531 C   0  0  0  0  0  0  0  0  0  0  0  0
  -22.8829  -29.5072   22.3300 C   0  0  0  0  0  0  0  0  0  0  0  0
  -21.5088  -26.5941   21.9452 C   0  0  0  0  0  0  0  0  0  0  0  0
  -30.0920  -25.0457   19.8532 C   0  0  0  0  0  0  0  0  0  0  0  0
  -21.8218  -23.3570   20.9110 C   0  0  0  0  0  0  0  0  0  0  0  0
  -28.0684  -18.3700   17.8722 C   0  0  0  0  0  0  0  0  0  0  0  0
  -21.3207  -34.3056   23.1000 C   0  0  0  0  0  0  0  0  0  0  0  0
  -23.4019  -29.0215   19.9112 C   0  0  0  0  0  0  0  0  0  0  0  0
  -24.0118  -26.7090   21.6505 C   0  0  0  0  0  0  0  0  0  0  0  0
  -20.7554  -32.9153   23.3791 C   0  0  0  0  0  0  0  0  0  0  0  0
  -24.6032  -18.8369   18.5435 C   0  0  0  0  0  0  0  0  0  0  0  0
  -21.8023  -32.0405   24.0613 C   0  0  0  0  0  0  0  0  0  0  0  0
  -24.2504  -17.6732   19.4716 C   0  0  0  0  0  0  0  0  0  0  0  0
  -25.6225  -18.4245   17.4838 C   0  0  0  0  0  0  0  0  0  0  0  0
  -26.4986  -16.6417   18.9425 C   0  0  0  0  0  0  0  0  0  0  0  0
  -23.0300  -31.8472   23.1630 C   0  0  1  0  0  0  0  0  0  0  0  0
  -22.5413  -28.6794   21.1235 C   0  0  1  0  0  0  0  0  0  0  0  0
  -25.5161  -17.0238   20.0627 C   0  0  2  0  0  0  0  0  0  0  0  0
  -31.9364  -22.0694   22.3968 C   0  0  0  0  0  0  0  0  0  0  0  0
  -20.5397  -21.2052   20.7578 C   0  0  0  0  0  0  0  0  0  0  0  0
  -21.8826  -26.1607   24.9423 C   0  0  0  0  0  0  0  0  0  0  0  0
  -21.4862  -23.7172   24.5677 C   0  0  0  0  0  0  0  0  0  0  0  0
  -19.6903  -25.3658   24.0387 C   0  0  0  0  0  0  0  0  0  0  0  0
  -22.0634  -23.2883   17.9622 C   0  0  0  0  0  0  0  0  0  0  0  0
  -30.4939  -18.1933   18.3671 C   0  0  0  0  0  0  0  0  0  0  0  0
  -31.3950  -22.9375   19.6456 C   0  0  0  0  0  0  0  0  0  0  0  0
  -28.8189  -25.5833   20.4709 C   0  0  0  0  0  0  0  0  0  1  0  0
  -21.7228  -25.2240   22.5417 C   0  0  1  0  0  0  0  0  0  0  0  0
  -20.9330  -22.4872   20.0404 C   0  0  2  0  0  0  0  0  0  0  0  0
  -21.2163  -25.1305   24.0087 C   0  0  0  0  0  0  0  0  0  0  0  0
  -25.1436  -14.6108   20.4110 N   0  0  0  0  0  0  0  0  0  0  0  0
  -25.1759  -15.8412   20.9507 N   0  0  0  0  0  0  0  0  0  0  0  0
  -22.6589  -27.2752   21.5220 N   0  0  0  0  0  0  0  0  0  0  0  0
  -26.7992  -17.8172   18.1101 N   0  0  0  0  0  0  0  0  0  0  0  0
  -24.8749  -17.0210   22.9825 N   0  0  0  0  0  0  0  0  0  0  0  0
  -24.0924  -12.7277   24.1450 N   0  0  0  0  0  0  0  0  0  0  0  0
  -22.7536  -30.8688   22.1330 N   0  0  0  0  0  0  0  0  0  0  0  0
  -30.2600  -23.6957   20.1187 N   0  0  0  0  0  0  0  0  0  0  0  0
  -21.0892  -24.2781   21.6294 N   0  0  0  0  0  0  0  0  0  0  0  0
  -29.1290  -17.7375   18.5092 N   0  0  0  0  0  0  0  0  0  0  0  0
  -21.6396  -22.1227   18.7800 N   0  3  0  0  0  0  0  0  0  0  0  0
  -24.1687  -14.8833   24.9237 O   0  0  0  0  0  0  0  0  0  0  0  0
  -23.2361  -28.9517   23.3637 O   0  0  0  0  0  0  0  0  0  0  0  0
  -20.3627  -27.0406   21.8516 O   0  0  0  0  0  0  0  0  0  0  0  0
  -30.8623  -25.7468   19.2026 O   0  0  0  0  0  0  0  0  0  0  0  0
  -23.0435  -23.2293   20.9527 O   0  0  0  0  0  0  0  0  0  0  0  0
  -28.2428  -19.3574   17.1500 O   0  0  0  0  0  0  0  0  0  0  0  0
  -24.2966   -8.3091   20.7583 O   0  0  0  0  0  0  0  0  0  0  0  0
  -28.6772  -26.9774   20.2013 O   0  0  0  0  0  0  0  0  0  1  0  0
  -19.9289   -5.8431   23.0487 F   0  0  0  0  0  0  0  0  0  0  0  0
  -23.8866   -8.4018   23.4907 F   0  0  0  0  0  0  0  0  0  0  0  0
  1  2  1  0  0  0  0
  1  5  2  0  0  0  0
  2  6  2  0  0  0  0
  3 10  2  0  0  0  0
  3 18  1  0  0  0  0
  4 11  1  0  0  0  0
  4 18  2  0  0  0  0
  5 20  1  0  0  0  0
  6 22  1  0  0  0  0
  7 12  2  0  0  0  0
  7 21  1  0  0  0  0
  8  9  2  0  0  0  0
  8 24  1  0  0  0  0
  9 25  1  0  0  0  0
 10 27  1  0  0  0  0
 11 27  2  0  0  0  0
 12 28  1  0  0  0  0
 13 14  2  0  0  0  0
 13 29  1  0  0  0  0
 14 30  1  0  0  0  0
 15 23  1  0  0  0  0
 15 28  2  0  0  0  0
 16 24  2  0  0  0  0
 16 26  1  0  0  0  0
 17 30  2  0  0  0  0
 17 31  1  0  0  0  0
 18 32  1  0  0  0  0
 19 32  1  0  0  0  0
 19 33  2  0  0  0  0
 19 34  1  0  0  0  0
 20 22  2  0  0  0  0
 20 40  1  0  0  0  0
 21 23  2  0  0  0  0
 21 41  1  0  0  0  0
 22 49  1  0  0  0  0
 23 42  1  0  0  0  0
 24 58  1  0  0  0  0
 25 26  2  0  0  0  0
 25 52  1  0  0  0  0
 26 59  1  0  0  0  0
 27 81  1  0  0  0  0
 28 82  1  0  0  0  0
 29 31  2  0  0  0  0
 29 81  1  0  0  0  0
 30 83  1  0  0  0  0
 31 84  1  0  0  0  0
 32 64  2  0  0  0  0
 33 65  1  0  0  0  0
 33 68  1  0  0  0  0
 34 69  1  0  0  0  0
 34 75  2  0  0  0  0
 35 50  1  0  0  0  0
 35 70  1  0  0  0  0
 35 76  2  0  0  0  0
 36 61  1  0  0  0  0
 36 66  1  0  0  0  0
 36 77  2  0  0  0  0
 37 60  1  0  0  0  0
 37 71  1  0  0  0  0
 37 78  2  0  0  0  0
 38 62  1  0  0  0  0
 38 72  1  0  0  0  0
 38 79  2  0  0  0  0
 39 67  1  0  0  0  0
 39 73  1  0  0  0  0
 39 80  2  0  0  0  0
 40 43  1  0  0  0  0
 41 50  1  0  0  0  0
 42 66  1  0  0  0  0
 43 45  1  0  0  0  0
 44 46  1  0  0  0  0
 44 47  1  0  0  0  0
 45 49  1  0  0  0  0
 46 51  1  0  0  0  0
 47 67  1  0  0  0  0
 48 51  1  0  0  0  0
 48 67  1  0  0  0  0
 49 70  1  0  0  0  0
 50 66  1  0  0  0  0
 51 65  1  0  0  0  0
 53 62  1  0  0  0  0
 54 63  1  0  0  0  0
 55 63  1  0  0  0  0
 56 63  1  0  0  0  0
 57 74  1  0  0  0  0
 58 73  1  0  0  0  0
 59 71  1  0  0  0  0
 60 82  1  0  0  0  0
 61 63  1  0  0  0  0
 61 72  1  0  0  0  0
 62 74  1  0  0  0  0
 64 65  1  0  0  0  0
M  CHG  1  74   1
M  ISO  4  39 100  60 101  73 100  82 101
M  END
> <Batch ID>
0052

> <Smiles>
CNC(C)C(=O)NC(C(=O)N1Cc2cc([101O:1][101CH2:1]C(=O)NCc3cc(C[100NH:0][100C:0](=O)N4CCCC(n5nc(-c6ccc(Oc7ccc(F)cc7F)cc6)c(C(N)=O)c5N)C4)ccc3C)ccc2CC1C(=O)NC1CCCc2ccccc21)C(C)(C)C

> <Shape>
0.218

> <Color>
0.082

> <Negative vol penalty>
0.000

$$$$

  -OEChem-04042322403D

 84 92  0     1  0  0  0  0  0999 V2000
  -27.6170  -33.1892   24.7411 C   0  0  0  0  0  0  0  0  0  0  0  0
  -27.9256  -31.8611   24.4649 C   0  0  0  0  0  0  0  0  0  0  0  0
  -32.6581  -17.4365   23.4278 C   0  0  0  0  0  0  0  0  0  0  0  0
  -22.9992   -9.8913   19.9853 C   0  0  0  0  0  0  0  0  0  0  0  0
  -23.7153   -9.9571   22.2918 C   0  0  0  0  0  0  0  0  0  0  0  0
  -26.4172  -33.5074   25.3760 C   0  0  0  0  0  0  0  0  0  0  0  0
  -27.0349  -30.8502   24.8246 C   0  0  0  0  0  0  0  0  0  0  0  0
  -25.9518  -25.6448   21.7855 C   0  0  0  0  0  0  0  0  0  0  0  0
  -31.8797  -18.3478   24.1415 C   0  0  0  0  0  0  0  0  0  0  0  0
  -32.0521  -16.5428   22.5448 C   0  0  0  0  0  0  0  0  0  0  0  0
  -22.2308   -8.7591   20.2562 C   0  0  0  0  0  0  0  0  0  0  0  0
  -22.9469   -8.8249   22.5627 C   0  0  0  0  0  0  0  0  0  0  0  0
  -26.4222  -24.3435   21.9565 C   0  0  0  0  0  0  0  0  0  0  0  0
  -23.1909   -5.4827   22.1139 C   0  0  0  0  0  0  0  0  0  0  0  0
  -23.7748   -4.4702   22.8751 C   0  0  0  0  0  0  0  0  0  0  0  0
  -24.4434  -23.8015   23.2252 C   0  0  0  0  0  0  0  0  0  0  0  0
  -22.0445   -4.7253   24.5418 C   0  0  0  0  0  0  0  0  0  0  0  0
  -23.7414  -10.4903   21.0032 C   0  0  0  0  0  0  0  0  0  0  0  0
  -24.1291  -13.0044   20.8120 C   0  0  0  0  0  0  0  0  0  0  0  0
  -25.5070  -32.5008   25.7350 C   0  0  0  0  0  0  0  0  0  0  0  0
  -24.7267  -26.0379   22.3433 C   0  0  0  0  0  0  0  0  0  0  0  0
  -25.8224  -31.1552   25.4661 C   0  0  0  0  0  0  0  0  0  0  0  0
  -23.9585  -25.1076   23.0577 C   0  0  0  0  0  0  0  0  0  0  0  0
  -30.4952  -18.3652   23.9723 C   0  0  0  0  0  0  0  0  0  0  0  0
  -29.8892  -17.4714   23.0893 C   0  0  0  0  0  0  0  0  0  0  0  0
  -30.6676  -16.5602   22.3756 C   0  0  0  0  0  0  0  0  0  0  0  0
  -22.2047   -8.2259   21.5448 C   0  0  0  0  0  0  0  0  0  0  0  0
  -25.6693  -23.4224   22.6789 C   0  0  0  0  0  0  0  0  0  0  0  0
  -22.0338   -6.1167   22.5667 C   0  0  0  0  0  0  0  0  0  0  0  0
  -23.2016   -4.0914   24.0890 C   0  0  0  0  0  0  0  0  0  0  0  0
  -21.4606   -5.7379   23.7807 C   0  0  0  0  0  0  0  0  0  0  0  0
  -24.5358  -11.6595   20.7239 C   0  0  0  0  0  0  0  0  0  0  0  0
  -25.2408  -13.7238   20.4472 C   0  0  0  0  0  0  0  0  0  0  0  0
  -22.8600  -13.5542   21.1899 C   0  0  0  0  0  0  0  0  0  0  0  0
  -23.8333  -28.1948   24.5004 C   0  0  0  0  0  0  0  0  0  0  0  0
  -20.8520  -27.2661   23.6221 C   0  0  0  0  0  0  0  0  0  0  0  0
  -27.8810  -20.7862   23.7629 C   0  0  0  0  0  0  0  0  0  0  0  0
  -18.8470  -24.8527   22.2797 C   0  0  0  0  0  0  0  0  0  0  0  0
  -30.7199  -14.6830   20.6964 C   0  0  0  0  0  0  0  0  0  0  0  0
  -24.2442  -32.8895   26.4621 C   0  0  0  0  0  0  0  0  0  0  0  0
  -24.2208  -27.4378   22.1270 C   0  0  0  0  0  0  0  0  0  0  0  0
  -22.6272  -25.4737   23.6593 C   0  0  0  0  0  0  0  0  0  0  0  0
  -23.1849  -31.7904   26.4734 C   0  0  0  0  0  0  0  0  0  0  0  0
  -29.6092  -12.2154   18.3824 C   0  0  0  0  0  0  0  0  0  0  0  0
  -23.8107  -30.4498   26.8449 C   0  0  0  0  0  0  0  0  0  0  0  0
  -28.1568  -11.9615   18.7925 C   0  0  0  0  0  0  0  0  0  0  0  0
  -30.5051  -12.4663   19.5941 C   0  0  0  0  0  0  0  0  0  0  0  0
  -28.5850  -13.2652   20.9148 C   0  0  0  0  0  0  0  0  0  0  0  0
  -24.8708  -30.0325   25.8185 C   0  0  1  0  0  0  0  0  0  0  0  0
  -23.2017  -27.8734   23.1755 C   0  0  1  0  0  0  0  0  0  0  0  0
  -27.6319  -13.0716   19.7241 C   0  0  2  0  0  0  0  0  0  0  0  0
  -28.4034  -17.4940   22.9110 C   0  0  0  0  0  0  0  0  0  0  0  0
  -16.4477  -24.3681   21.7264 C   0  0  0  0  0  0  0  0  0  0  0  0
  -20.2765  -26.7563   26.5749 C   0  0  0  0  0  0  0  0  0  0  0  0
  -18.2803  -25.4133   25.8822 C   0  0  0  0  0  0  0  0  0  0  0  0
  -18.4049  -27.8403   25.3193 C   0  0  0  0  0  0  0  0  0  0  0  0
  -30.2925  -21.2245   23.2681 C   0  0  0  0  0  0  0  0  0  0  0  0
  -19.4482  -24.5703   19.3956 C   0  0  0  0  0  0  0  0  0  0  0  0
  -29.6811  -19.3562   24.7528 C   0  0  0  0  0  0  0  0  0  0  0  0
  -27.5413  -21.9697   22.8816 C   0  0  0  0  0  0  0  0  0  1  0  0
  -19.8837  -26.2038   24.0836 C   0  0  1  0  0  0  0  0  0  0  0  0
  -17.7695  -24.9172   21.2123 C   0  0  2  0  0  0  0  0  0  0  0  0
  -19.2373  -26.5468   25.4554 C   0  0  0  0  0  0  0  0  0  0  0  0
  -25.8065  -11.5296   20.3336 N   0  0  0  0  0  0  0  0  0  0  0  0
  -26.2079  -12.8021   20.1731 N   0  0  0  0  0  0  0  0  0  0  0  0
  -22.1784  -26.8563   23.4258 N   0  0  0  0  0  0  0  0  0  0  0  0
  -29.9474  -13.5332   20.4281 N   0  0  0  0  0  0  0  0  0  0  0  0
  -25.4755  -15.0487   20.3373 N   0  0  0  0  0  0  0  0  0  0  0  0
  -21.8263  -12.6730   21.5352 N   0  0  0  0  0  0  0  0  0  0  0  0
  -30.0732  -15.6438   21.4731 N   0  0  0  0  0  0  0  0  0  0  0  0
  -24.2407  -29.5093   24.6253 N   0  0  0  0  0  0  0  0  0  0  0  0
  -18.9245  -26.0267   22.9987 N   0  0  0  0  0  0  0  0  0  0  0  0
  -29.2304  -20.4691   23.9210 N   0  0  0  0  0  0  0  0  0  0  0  0
  -18.1753  -24.1236   20.0180 N   0  3  0  0  0  0  0  0  0  0  0  0
  -22.6440  -14.7897   21.2046 O   0  0  0  0  0  0  0  0  0  0  0  0
  -23.9417  -27.3157   25.3472 O   0  0  0  0  0  0  0  0  0  0  0  0
  -20.4449  -28.4155   23.4355 O   0  0  0  0  0  0  0  0  0  0  0  0
  -26.9602  -20.1651   24.3027 O   0  0  0  0  0  0  0  0  0  0  0  0
  -19.5471  -23.8588   22.4602 O   0  0  0  0  0  0  0  0  0  0  0  0
  -31.8604  -14.8182   20.2460 O   0  0  0  0  0  0  0  0  0  0  0  0
  -21.4549   -7.1212   21.8095 O   0  0  0  0  0  0  0  0  0  0  0  0
  -26.1264  -22.1519   22.8479 O   0  0  0  0  0  0  0  0  0  1  0  0
  -23.7615   -3.1180   24.8191 F   0  0  0  0  0  0  0  0  0  0  0  0
  -20.3483   -6.3424   24.2203 F   0  0  0  0  0  0  0  0  0  0  0  0
  1  2  1  0  0  0  0
  1  6  2  0  0  0  0
  2  7  2  0  0  0  0
  3  9  2  0  0  0  0
  3 10  1  0  0  0  0
  4 11  2  0  0  0  0
  4 18  1  0  0  0  0
  5 12  1  0  0  0  0
  5 18  2  0  0  0  0
  6 20  1  0  0  0  0
  7 22  1  0  0  0  0
  8 13  2  0  0  0  0
  8 21  1  0  0  0  0
  9 24  1  0  0  0  0
 10 26  2  0  0  0  0
 11 27  1  0  0  0  0
 12 27  2  0  0  0  0
 13 28  1  0  0  0  0
 14 15  2  0  0  0  0
 14 29  1  0  0  0  0
 15 30  1  0  0  0  0
 16 23  1  0  0  0  0
 16 28  2  0  0  0  0
 17 30  2  0  0  0  0
 17 31  1  0  0  0  0
 18 32  1  0  0  0  0
 19 32  1  0  0  0  0
 19 33  2  0  0  0  0
 19 34  1  0  0  0  0
 20 22  2  0  0  0  0
 20 40  1  0  0  0  0
 21 23  2  0  0  0  0
 21 41  1  0  0  0  0
 22 49  1  0  0  0  0
 23 42  1  0  0  0  0
 24 25  2  0  0  0  0
 24 59  1  0  0  0  0
 25 26  1  0  0  0  0
 25 52  1  0  0  0  0
 26 70  1  0  0  0  0
 27 81  1  0  0  0  0
 28 82  1  0  0  0  0
 29 31  2  0  0  0  0
 29 81  1  0  0  0  0
 30 83  1  0  0  0  0
 31 84  1  0  0  0  0
 32 64  2  0  0  0  0
 33 65  1  0  0  0  0
 33 68  1  0  0  0  0
 34 69  1  0  0  0  0
 34 75  2  0  0  0  0
 35 50  1  0  0  0  0
 35 71  1  0  0  0  0
 35 76  2  0  0  0  0
 36 61  1  0  0  0  0
 36 66  1  0  0  0  0
 36 77  2  0  0  0  0
 37 60  1  0  0  0  0
 37 73  1  0  0  0  0
 37 78  2  0  0  0  0
 38 62  1  0  0  0  0
 38 72  1  0  0  0  0
 38 79  2  0  0  0  0
 39 67  1  0  0  0  0
 39 70  1  0  0  0  0
 39 80  2  0  0  0  0
 40 43  1  0  0  0  0
 41 50  1  0  0  0  0
 42 66  1  0  0  0  0
 43 45  1  0  0  0  0
 44 46  1  0  0  0  0
 44 47  1  0  0  0  0
 45 49  1  0  0  0  0
 46 51  1  0  0  0  0
 47 67  1  0  0  0  0
 48 51  1  0  0  0  0
 48 67  1  0  0  0  0
 49 71  1  0  0  0  0
 50 66  1  0  0  0  0
 51 65  1  0  0  0  0
 53 62  1  0  0  0  0
 54 63  1  0  0  0  0
 55 63  1  0  0  0  0
 56 63  1  0  0  0  0
 57 73  1  0  0  0  0
 58 74  1  0  0  0  0
 59 73  1  0  0  0  0
 60 82  1  0  0  0  0
 61 63  1  0  0  0  0
 61 72  1  0  0  0  0
 62 74  1  0  0  0  0
 64 65  1  0  0  0  0
M  CHG  1  74   1
M  ISO  4  39 100  60 101  70 100  82 101
M  END
> <Batch ID>
0052

> <Smiles>
CNC(C)C(=O)NC(C(=O)N1Cc2cc([101O:1][101CH2:1]C(=O)N(C)Cc3cccc([100NH:0][100C:0](=O)N4CCCC(n5nc(-c6ccc(Oc7ccc(F)cc7F)cc6)c(C(N)=O)c5N)C4)c3C)ccc2CC1C(=O)NC1CCCc2ccccc21)C(C)(C)C

> <Shape>
0.278

> <Color>
0.202

> <Negative vol penalty>
0.000

$$$$

  -OEChem-04042322403D

 83 91  0     1  0  0  0  0  0999 V2000
  -26.5142  -38.4687   20.4384 C   0  0  0  0  0  0  0  0  0  0  0  0
  -27.0698  -37.3749   19.7824 C   0  0  0  0  0  0  0  0  0  0  0  0
  -24.4622   -8.8244   20.9391 C   0  0  0  0  0  0  0  0  0  0  0  0
  -22.6773  -10.4456   21.0906 C   0  0  0  0  0  0  0  0  0  0  0  0
  -25.9378  -38.3059   21.6975 C   0  0  0  0  0  0  0  0  0  0  0  0
  -27.0502  -36.1178   20.3856 C   0  0  0  0  0  0  0  0  0  0  0  0
  -26.5804  -29.1554   18.7667 C   0  0  0  0  0  0  0  0  0  0  0  0
  -27.4283  -19.8763   22.2931 C   0  0  0  0  0  0  0  0  0  0  0  0
  -23.5462   -7.7954   21.1571 C   0  0  0  0  0  0  0  0  0  0  0  0
  -21.7612   -9.4165   21.3086 C   0  0  0  0  0  0  0  0  0  0  0  0
  -27.2391  -27.9488   18.9990 C   0  0  0  0  0  0  0  0  0  0  0  0
  -21.9194   -6.4243   23.7835 C   0  0  0  0  0  0  0  0  0  0  0  0
  -22.2714   -5.4260   24.6919 C   0  0  0  0  0  0  0  0  0  0  0  0
  -27.2009  -21.2148   21.9735 C   0  0  0  0  0  0  0  0  0  0  0  0
  -26.1456  -27.7715   21.1419 C   0  0  0  0  0  0  0  0  0  0  0  0
  -26.5608  -20.5715   19.7344 C   0  0  0  0  0  0  0  0  0  0  0  0
  -22.0847   -3.7692   22.9433 C   0  0  0  0  0  0  0  0  0  0  0  0
  -24.0278  -10.1495   20.9059 C   0  0  0  0  0  0  0  0  0  0  0  0
  -25.3626  -11.7573   19.4427 C   0  0  0  0  0  0  0  0  0  0  0  0
  -25.9025  -37.0444   22.3122 C   0  0  0  0  0  0  0  0  0  0  0  0
  -25.7063  -29.6855   19.7265 C   0  0  0  0  0  0  0  0  0  0  0  0
  -26.4739  -35.9383   21.6546 C   0  0  0  0  0  0  0  0  0  0  0  0
  -25.4751  -28.9837   20.9182 C   0  0  0  0  0  0  0  0  0  0  0  0
  -26.7883  -19.2329   20.0540 C   0  0  0  0  0  0  0  0  0  0  0  0
  -27.2221  -18.8853   21.3333 C   0  0  0  0  0  0  0  0  0  0  0  0
  -22.1957   -8.0914   21.3418 C   0  0  0  0  0  0  0  0  0  0  0  0
  -27.0239  -27.2580   20.1880 C   0  0  0  0  0  0  0  0  0  0  0  0
  -21.6500   -6.0951   22.4551 C   0  0  0  0  0  0  0  0  0  0  0  0
  -22.3540   -4.0985   24.2717 C   0  0  0  0  0  0  0  0  0  0  0  0
  -21.7327   -4.7676   22.0350 C   0  0  0  0  0  0  0  0  0  0  0  0
  -26.7671  -21.5624   20.6942 C   0  0  0  0  0  0  0  0  0  0  0  0
  -24.9737  -11.2130   20.6813 C   0  0  0  0  0  0  0  0  0  0  0  0
  -26.2743  -12.7320   19.7670 C   0  0  0  0  0  0  0  0  0  0  0  0
  -24.9377  -11.4126   18.1174 C   0  0  0  0  0  0  0  0  0  0  0  0
  -25.6289  -32.3463   21.4637 C   0  0  0  0  0  0  0  0  0  0  0  0
  -22.7218  -31.2162   22.3547 C   0  0  0  0  0  0  0  0  0  0  0  0
  -20.6522  -28.5306   22.7436 C   0  0  0  0  0  0  0  0  0  0  0  0
  -27.8940  -17.0359   22.9064 C   0  0  0  0  0  0  0  0  0  0  0  0
  -25.3107  -36.9267   23.6945 C   0  0  0  0  0  0  0  0  0  0  0  0
  -24.9830  -30.9749   19.4492 C   0  0  0  0  0  0  0  0  0  0  0  0
  -24.5309  -29.4998   21.9721 C   0  0  0  0  0  0  0  0  0  0  0  0
  -24.9964  -35.4896   24.1021 C   0  0  0  0  0  0  0  0  0  0  0  0
  -28.5624  -13.7714   24.1609 C   0  0  0  0  0  0  0  0  0  0  0  0
  -26.1700  -34.5725   23.7731 C   0  0  0  0  0  0  0  0  0  0  0  0
  -27.7203  -12.8596   23.2656 C   0  0  0  0  0  0  0  0  0  0  0  0
  -27.8520  -15.0918   24.4536 C   0  0  0  0  0  0  0  0  0  0  0  0
  -26.5459  -14.9115   22.3726 C   0  0  0  0  0  0  0  0  0  0  0  0
  -26.4499  -34.5540   22.2655 C   0  0  1  0  0  0  0  0  0  0  0  0
  -24.5089  -31.6786   20.7171 C   0  0  1  0  0  0  0  0  0  0  0  0
  -27.2474  -13.5961   21.9969 C   0  0  2  0  0  0  0  0  0  0  0  0
  -26.5600  -18.1925   19.0060 C   0  0  0  0  0  0  0  0  0  0  0  0
  -18.3492  -27.9157   23.5281 C   0  0  0  0  0  0  0  0  0  0  0  0
  -23.6287  -31.5250   25.2516 C   0  0  0  0  0  0  0  0  0  0  0  0
  -21.7267  -30.0458   25.9316 C   0  0  0  0  0  0  0  0  0  0  0  0
  -21.2690  -32.2298   24.8165 C   0  0  0  0  0  0  0  0  0  0  0  0
  -19.9006  -27.4778   20.0818 C   0  0  0  0  0  0  0  0  0  0  0  0
  -27.9881  -25.2834   19.2785 C   0  0  0  0  0  0  0  0  0  1  0  0
  -28.0386  -23.8238   19.6825 C   0  0  0  0  0  0  0  0  0  0  0  0
  -22.2159  -30.3190   23.4584 C   0  0  1  0  0  0  0  0  0  0  0  0
  -19.2079  -28.3044   22.3346 C   0  0  2  0  0  0  0  0  0  0  0  0
  -22.2294  -31.0209   24.8457 C   0  0  0  0  0  0  0  0  0  0  0  0
  -25.5881  -11.7936   21.7154 N   0  0  0  0  0  0  0  0  0  0  0  0
  -26.3724  -12.7128   21.1272 N   0  0  0  0  0  0  0  0  0  0  0  0
  -23.8524  -30.7679   21.6571 N   0  0  0  0  0  0  0  0  0  0  0  0
  -27.4368  -15.7350   23.2051 N   0  0  0  0  0  0  0  0  0  0  0  0
  -26.9936  -13.5950   19.0185 N   0  0  0  0  0  0  0  0  0  0  0  0
  -23.9945  -10.3874   17.9636 N   0  0  0  0  0  0  0  0  0  0  0  0
  -27.4602  -17.5315   21.6773 N   0  0  0  0  0  0  0  0  0  0  0  0
  -25.4876  -33.7157   21.5831 N   0  0  0  0  0  0  0  0  0  0  0  0
  -20.8987  -29.8554   23.0361 N   0  0  0  0  0  0  0  0  0  0  0  0
  -19.1213  -27.2169   21.3193 N   0  3  0  0  0  0  0  0  0  0  0  0
  -25.3935  -11.9854   17.0987 O   0  0  0  0  0  0  0  0  0  0  0  0
  -26.5521  -31.6691   21.9005 O   0  0  0  0  0  0  0  0  0  0  0  0
  -22.1312  -32.2724   22.1154 O   0  0  0  0  0  0  0  0  0  0  0  0
  -21.4781  -27.6224   22.8017 O   0  0  0  0  0  0  0  0  0  0  0  0
  -28.6393  -17.6534   23.6714 O   0  0  0  0  0  0  0  0  0  0  0  0
  -25.5196  -23.2788   19.2001 O   0  0  0  0  0  0  0  0  0  0  0  0
  -26.2002  -23.9723   21.5243 O   0  0  0  0  0  0  0  0  0  0  0  0
  -21.3015   -7.0875   21.5543 O   0  0  0  0  0  0  0  0  0  0  0  0
  -27.6660  -26.0804   20.4176 O   0  0  0  0  0  0  0  0  0  1  0  0
  -22.6935   -3.1401   25.1437 F   0  0  0  0  0  0  0  0  0  0  0  0
  -21.4761   -4.4454   20.7597 F   0  0  0  0  0  0  0  0  0  0  0  0
  -26.4789  -23.2591   20.2902 S   0  0  0  0  0  0  0  0  0  0  0  0
  1  2  1  0  0  0  0
  1  5  2  0  0  0  0
  2  6  2  0  0  0  0
  3  9  2  0  0  0  0
  3 18  1  0  0  0  0
  4 10  1  0  0  0  0
  4 18  2  0  0  0  0
  5 20  1  0  0  0  0
  6 22  1  0  0  0  0
  7 11  2  0  0  0  0
  7 21  1  0  0  0  0
  8 14  2  0  0  0  0
  8 25  1  0  0  0  0
  9 26  1  0  0  0  0
 10 26  2  0  0  0  0
 11 27  1  0  0  0  0
 12 13  2  0  0  0  0
 12 28  1  0  0  0  0
 13 29  1  0  0  0  0
 14 31  1  0  0  0  0
 15 23  1  0  0  0  0
 15 27  2  0  0  0  0
 16 24  1  0  0  0  0
 16 31  2  0  0  0  0
 17 29  2  0  0  0  0
 17 30  1  0  0  0  0
 18 32  1  0  0  0  0
 19 32  1  0  0  0  0
 19 33  2  0  0  0  0
 19 34  1  0  0  0  0
 20 22  2  0  0  0  0
 20 39  1  0  0  0  0
 21 23  2  0  0  0  0
 21 40  1  0  0  0  0
 22 48  1  0  0  0  0
 23 41  1  0  0  0  0
 24 25  2  0  0  0  0
 24 51  1  0  0  0  0
 25 68  1  0  0  0  0
 26 79  1  0  0  0  0
 27 80  1  0  0  0  0
 28 30  2  0  0  0  0
 28 79  1  0  0  0  0
 29 81  1  0  0  0  0
 30 82  1  0  0  0  0
 31 83  1  0  0  0  0
 32 62  2  0  0  0  0
 33 63  1  0  0  0  0
 33 66  1  0  0  0  0
 34 67  1  0  0  0  0
 34 72  2  0  0  0  0
 35 49  1  0  0  0  0
 35 69  1  0  0  0  0
 35 73  2  0  0  0  0
 36 59  1  0  0  0  0
 36 64  1  0  0  0  0
 36 74  2  0  0  0  0
 37 60  1  0  0  0  0
 37 70  1  0  0  0  0
 37 75  2  0  0  0  0
 38 65  1  0  0  0  0
 38 68  1  0  0  0  0
 38 76  2  0  0  0  0
 39 42  1  0  0  0  0
 40 49  1  0  0  0  0
 41 64  1  0  0  0  0
 42 44  1  0  0  0  0
 43 45  1  0  0  0  0
 43 46  1  0  0  0  0
 44 48  1  0  0  0  0
 45 50  1  0  0  0  0
 46 65  1  0  0  0  0
 47 50  1  0  0  0  0
 47 65  1  0  0  0  0
 48 69  1  0  0  0  0
 49 64  1  0  0  0  0
 50 63  1  0  0  0  0
 52 60  1  0  0  0  0
 53 61  1  0  0  0  0
 54 61  1  0  0  0  0
 55 61  1  0  0  0  0
 56 71  1  0  0  0  0
 57 58  1  0  0  0  0
 57 80  1  0  0  0  0
 58 83  1  0  0  0  0
 59 61  1  0  0  0  0
 59 70  1  0  0  0  0
 60 71  1  0  0  0  0
 62 63  1  0  0  0  0
 77 83  2  0  0  0  0
 78 83  2  0  0  0  0
M  CHG  1  71   1
M  ISO  4  38 100  57 101  68 100  80 101
M  END
> <Batch ID>
0052

> <Smiles>
CNC(C)C(=O)NC(C(=O)N1Cc2cc([101O:1][101CH2:1]CS(=O)(=O)c3ccc([100NH:0][100C:0](=O)N4CCCC(n5nc(-c6ccc(Oc7ccc(F)cc7F)cc6)c(C(N)=O)c5N)C4)c(C)c3)ccc2CC1C(=O)NC1CCCc2ccccc21)C(C)(C)C

> <Shape>
0.275

> <Color>
0.118

> <Negative vol penalty>
0.000

$$$$

  -OEChem-04042322403D

 86 95  0     1  0  0  0  0  0999 V2000
  -25.6722  -32.2251   24.0603 C   0  0  0  0  0  0  0  0  0  0  0  0
  -24.5000  -31.5838   24.4445 C   0  0  0  0  0  0  0  0  0  0  0  0
  -25.9534  -13.0590   19.8756 C   0  0  0  0  0  0  0  0  0  0  0  0
  -26.0961  -13.8247   22.1627 C   0  0  0  0  0  0  0  0  0  0  0  0
  -26.1771  -32.0353   22.7757 C   0  0  0  0  0  0  0  0  0  0  0  0
  -23.8388  -30.7432   23.5483 C   0  0  0  0  0  0  0  0  0  0  0  0
  -19.4365  -24.7642   19.7704 C   0  0  0  0  0  0  0  0  0  0  0  0
  -25.7837  -23.2516   16.1889 C   0  0  0  0  0  0  0  0  0  0  0  0
  -26.5703  -22.5817   17.1260 C   0  0  0  0  0  0  0  0  0  0  0  0
  -24.8473  -12.2764   20.2067 C   0  0  0  0  0  0  0  0  0  0  0  0
  -24.9900  -13.0421   22.4937 C   0  0  0  0  0  0  0  0  0  0  0  0
  -19.5723  -24.0491   18.5813 C   0  0  0  0  0  0  0  0  0  0  0  0
  -24.2577   -9.3068   21.7094 C   0  0  0  0  0  0  0  0  0  0  0  0
  -24.2230   -7.9983   21.2275 C   0  0  0  0  0  0  0  0  0  0  0  0
  -21.9524  -23.9049   18.9470 C   0  0  0  0  0  0  0  0  0  0  0  0
  -25.6309  -21.2313   14.8728 C   0  0  0  0  0  0  0  0  0  0  0  0
  -22.1724   -8.4875   20.0473 C   0  0  0  0  0  0  0  0  0  0  0  0
  -26.5778  -13.8332   20.8536 C   0  0  0  0  0  0  0  0  0  0  0  0
  -28.9513  -14.1972   19.9922 C   0  0  0  0  0  0  0  0  0  0  0  0
  -25.5144  -31.2017   21.8598 C   0  0  0  0  0  0  0  0  0  0  0  0
  -20.5609  -25.0650   20.5525 C   0  0  0  0  0  0  0  0  0  0  0  0
  -24.3455  -30.5201   22.2552 C   0  0  0  0  0  0  0  0  0  0  0  0
  -21.8278  -24.6217   20.1469 C   0  0  0  0  0  0  0  0  0  0  0  0
  -25.3140  -22.5764   15.0623 C   0  0  0  0  0  0  0  0  0  0  0  0
  -26.8872  -21.2366   16.9365 C   0  0  0  0  0  0  0  0  0  0  0  0
  -24.3655  -12.2679   21.5157 C   0  0  0  0  0  0  0  0  0  0  0  0
  -20.8308  -23.6218   18.1680 C   0  0  0  0  0  0  0  0  0  0  0  0
  -23.2497  -10.2056   21.3604 C   0  0  0  0  0  0  0  0  0  0  0  0
  -23.1804   -7.5887   20.3964 C   0  0  0  0  0  0  0  0  0  0  0  0
  -26.4175  -20.5614   15.8099 C   0  0  0  0  0  0  0  0  0  0  0  0
  -22.2071   -9.7960   20.5293 C   0  0  0  0  0  0  0  0  0  0  0  0
  -27.7208  -14.6414   20.5124 C   0  0  0  0  0  0  0  0  0  0  0  0
  -29.6942  -15.3426   19.8424 C   0  0  0  0  0  0  0  0  0  0  0  0
  -22.7767  -24.6726   15.1999 C   0  0  0  0  0  0  0  0  0  0  0  0
  -29.3839  -12.8681   19.6729 C   0  0  0  0  0  0  0  0  0  0  0  0
  -21.9782  -27.7457   21.5058 C   0  0  0  0  0  0  0  0  0  0  0  0
  -23.8109  -25.7018   23.2338 C   0  0  0  0  0  0  0  0  0  0  0  0
  -25.3936  -22.5016   22.7133 C   0  0  0  0  0  0  0  0  0  0  0  0
  -28.2325  -21.0835   19.0609 C   0  0  0  0  0  0  0  0  0  0  0  0
  -26.1092  -31.0258   20.4848 C   0  0  0  0  0  0  0  0  0  0  0  0
  -20.3941  -25.8142   21.8460 C   0  0  0  0  0  0  0  0  0  0  0  0
  -23.0638  -24.9012   20.9608 C   0  0  0  0  0  0  0  0  0  0  0  0
  -21.3240  -24.8553   15.6054 C   0  0  0  0  0  0  0  0  0  0  0  0
  -25.1107  -30.4770   19.4709 C   0  0  0  0  0  0  0  0  0  0  0  0
  -30.2228  -19.7312   21.6852 C   0  0  0  0  0  0  0  0  0  0  0  0
  -24.4085  -29.2543   20.0424 C   0  0  0  0  0  0  0  0  0  0  0  0
  -29.9237  -18.2313   21.6310 C   0  0  0  0  0  0  0  0  0  0  0  0
  -20.7536  -22.6442   14.6269 C   0  0  0  0  0  0  0  0  0  0  0  0
  -28.9837  -20.5683   21.3728 C   0  0  0  0  0  0  0  0  0  0  0  0
  -22.2295  -22.3305   14.4532 C   0  0  0  0  0  0  0  0  0  0  0  0
  -28.0042  -18.7258   20.0632 C   0  0  0  0  0  0  0  0  0  0  0  0
  -23.5926  -29.6253   21.2873 C   0  0  1  0  0  0  0  0  0  0  0  0
  -21.6729  -26.5093   22.3031 C   0  0  1  0  0  0  0  0  0  0  0  0
  -29.2376  -17.8409   20.3072 C   0  0  2  0  0  0  0  0  0  0  0  0
  -20.5440  -23.5695   15.8101 C   0  0  1  0  0  0  0  0  0  1  0  0
  -26.0120  -20.7020   24.3492 C   0  0  0  0  0  0  0  0  0  0  0  0
  -26.5362  -27.0735   23.2696 C   0  0  0  0  0  0  0  0  0  0  0  0
  -27.5970  -24.8085   23.3838 C   0  0  0  0  0  0  0  0  0  0  0  0
  -26.0966  -25.5753   25.2233 C   0  0  0  0  0  0  0  0  0  0  0  0
  -23.8630  -20.4561   21.2191 C   0  0  0  0  0  0  0  0  0  0  0  0
  -24.4683  -23.2976   14.0529 C   0  0  0  0  0  0  0  0  0  0  0  0
  -25.0961  -24.9492   22.9874 C   0  0  1  0  0  0  0  0  0  0  0  0
  -24.9871  -21.1756   23.3304 C   0  0  2  0  0  0  0  0  0  0  0  0
  -26.3138  -25.6083   23.6947 C   0  0  0  0  0  0  0  0  0  0  0  0
  -27.6806  -15.9657   20.6818 N   0  0  0  0  0  0  0  0  0  0  0  0
  -28.8950  -16.3635   20.2658 N   0  0  0  0  0  0  0  0  0  0  0  0
  -23.1054  -23.4983   14.5272 N   0  0  0  0  0  0  0  0  0  0  0  0
  -22.8498  -25.6427   22.2146 N   0  0  0  0  0  0  0  0  0  0  0  0
  -28.3896  -20.1452   20.1028 N   0  0  0  0  0  0  0  0  0  0  0  0
  -30.9468  -15.5661   19.3912 N   0  0  0  0  0  0  0  0  0  0  0  0
  -28.4947  -11.8063   19.8880 N   0  0  0  0  0  0  0  0  0  0  0  0
  -27.6868  -20.5587   17.8898 N   0  0  0  0  0  0  0  0  0  0  0  0
  -23.1156  -28.4139   21.9172 N   0  0  0  0  0  0  0  0  0  0  0  0
  -24.8453  -23.5699   23.3910 N   0  0  0  0  0  0  0  0  0  0  0  0
  -24.8562  -20.1315   22.2751 N   0  3  0  0  0  0  0  0  0  0  0  0
  -23.5732  -25.5917   15.4125 O   0  0  0  0  0  0  0  0  0  0  0  0
  -30.5310  -12.6273   19.2260 O   0  0  0  0  0  0  0  0  0  0  0  0
  -21.2376  -28.0687   20.5844 O   0  0  0  0  0  0  0  0  0  0  0  0
  -23.6622  -26.3136   24.2946 O   0  0  0  0  0  0  0  0  0  0  0  0
  -26.1274  -22.5818   21.7306 O   0  0  0  0  0  0  0  0  0  0  0  0
  -28.5833  -22.2594   19.1882 O   0  0  0  0  0  0  0  0  0  0  0  0
  -23.2861  -11.5046   21.8390 O   0  0  0  0  0  0  0  0  0  0  0  0
  -20.9663  -22.9241   17.0075 O   0  0  0  0  0  0  0  0  0  1  0  0
  -23.1480   -6.3325   19.9324 F   0  0  0  0  0  0  0  0  0  0  0  0
  -26.7172  -19.2690   15.6168 F   0  0  0  0  0  0  0  0  0  0  0  0
  -21.2366  -10.6553   20.1895 F   0  0  0  0  0  0  0  0  0  0  0  0
  1  2  1  0  0  0  0
  1  5  2  0  0  0  0
  2  6  2  0  0  0  0
  3 10  2  0  0  0  0
  3 18  1  0  0  0  0
  4 11  1  0  0  0  0
  4 18  2  0  0  0  0
  5 20  1  0  0  0  0
  6 22  1  0  0  0  0
  7 12  2  0  0  0  0
  7 21  1  0  0  0  0
  8  9  2  0  0  0  0
  8 24  1  0  0  0  0
  9 25  1  0  0  0  0
 10 26  1  0  0  0  0
 11 26  2  0  0  0  0
 12 27  1  0  0  0  0
 13 14  2  0  0  0  0
 13 28  1  0  0  0  0
 14 29  1  0  0  0  0
 15 23  1  0  0  0  0
 15 27  2  0  0  0  0
 16 24  2  0  0  0  0
 16 30  1  0  0  0  0
 17 29  2  0  0  0  0
 17 31  1  0  0  0  0
 18 32  1  0  0  0  0
 19 32  1  0  0  0  0
 19 33  2  0  0  0  0
 19 35  1  0  0  0  0
 20 22  2  0  0  0  0
 20 40  1  0  0  0  0
 21 23  2  0  0  0  0
 21 41  1  0  0  0  0
 22 52  1  0  0  0  0
 23 42  1  0  0  0  0
 24 61  1  0  0  0  0
 25 30  2  0  0  0  0
 25 72  1  0  0  0  0
 26 82  1  0  0  0  0
 27 83  1  0  0  0  0
 28 31  2  0  0  0  0
 28 82  1  0  0  0  0
 29 84  1  0  0  0  0
 30 85  1  0  0  0  0
 31 86  1  0  0  0  0
 32 65  2  0  0  0  0
 33 66  1  0  0  0  0
 33 70  1  0  0  0  0
 34 43  1  0  0  0  0
 34 67  1  0  0  0  0
 34 76  2  0  0  0  0
 35 71  1  0  0  0  0
 35 77  2  0  0  0  0
 36 53  1  0  0  0  0
 36 73  1  0  0  0  0
 36 78  2  0  0  0  0
 37 62  1  0  0  0  0
 37 68  1  0  0  0  0
 37 79  2  0  0  0  0
 38 63  1  0  0  0  0
 38 74  1  0  0  0  0
 38 80  2  0  0  0  0
 39 69  1  0  0  0  0
 39 72  1  0  0  0  0
 39 81  2  0  0  0  0
 40 44  1  0  0  0  0
 41 53  1  0  0  0  0
 42 68  1  0  0  0  0
 43 55  1  0  0  0  0
 44 46  1  0  0  0  0
 45 47  1  0  0  0  0
 45 49  1  0  0  0  0
 46 52  1  0  0  0  0
 47 54  1  0  0  0  0
 48 50  1  0  0  0  0
 48 55  1  0  0  0  0
 49 69  1  0  0  0  0
 50 67  1  0  0  0  0
 51 54  1  0  0  0  0
 51 69  1  0  0  0  0
 52 73  1  0  0  0  0
 53 68  1  0  0  0  0
 54 66  1  0  0  0  0
 55 83  1  0  0  0  0
 56 63  1  0  0  0  0
 57 64  1  0  0  0  0
 58 64  1  0  0  0  0
 59 64  1  0  0  0  0
 60 75  1  0  0  0  0
 61 67  1  0  0  0  0
 62 64  1  0  0  0  0
 62 74  1  0  0  0  0
 63 75  1  0  0  0  0
 65 66  1  0  0  0  0
M  CHG  1  75   1
M  ISO  4  39 100  55 101  72 100  83 101
M  END
> <Batch ID>
0052

> <Smiles>
CNC(C)C(=O)NC(C(=O)N1Cc2cc([101O:1][101CH:1]3CCN(Cc4ccc([100NH:0][100C:0](=O)N5CCCC(n6nc(-c7ccc(Oc8ccc(F)cc8F)cc7)c(C(N)=O)c6N)C5)c(F)c4)C(=O)C3)ccc2CC1C(=O)NC1CCCc2ccccc21)C(C)(C)C

> <Shape>
0.220

> <Color>
0.056

> <Negative vol penalty>
0.000

$$$$

  -OEChem-04042322403D

 89 98  0     1  0  0  0  0  0999 V2000
  -19.8759  -17.3793   36.9817 C   0  0  0  0  0  0  0  0  0  0  0  0
  -21.0432  -16.7168   36.6157 C   0  0  0  0  0  0  0  0  0  0  0  0
  -22.8465  -10.1063   20.1101 C   0  0  0  0  0  0  0  0  0  0  0  0
  -24.2822   -9.5455   21.9706 C   0  0  0  0  0  0  0  0  0  0  0  0
  -19.1658  -18.1138   36.0330 C   0  0  0  0  0  0  0  0  0  0  0  0
  -21.5005  -16.7876   35.3003 C   0  0  0  0  0  0  0  0  0  0  0  0
  -27.3313  -16.8964   33.4305 C   0  0  0  0  0  0  0  0  0  0  0  0
  -22.1385   -8.9193   20.2986 C   0  0  0  0  0  0  0  0  0  0  0  0
  -23.5742   -8.3586   22.1592 C   0  0  0  0  0  0  0  0  0  0  0  0
  -28.1788  -15.9024   32.9434 C   0  0  0  0  0  0  0  0  0  0  0  0
  -20.6472   -7.4001   23.5501 C   0  0  0  0  0  0  0  0  0  0  0  0
  -20.2923   -7.0593   24.8553 C   0  0  0  0  0  0  0  0  0  0  0  0
  -27.6328  -16.5518   30.6853 C   0  0  0  0  0  0  0  0  0  0  0  0
  -30.9729  -12.5399   25.0000 C   0  0  0  0  0  0  0  0  0  0  0  0
  -32.8777  -12.2772   23.5372 C   0  0  0  0  0  0  0  0  0  0  0  0
  -21.5621   -5.0126   24.6662 C   0  0  0  0  0  0  0  0  0  0  0  0
  -23.9183  -10.4194   20.9461 C   0  0  0  0  0  0  0  0  0  0  0  0
  -33.1183  -11.9060   25.9124 C   0  0  0  0  0  0  0  0  0  0  0  0
  -24.1428  -12.9569   20.8102 C   0  0  0  0  0  0  0  0  0  0  0  0
  -19.6198  -18.2016   34.7075 C   0  0  0  0  0  0  0  0  0  0  0  0
  -26.6185  -17.7199   32.5472 C   0  0  0  0  0  0  0  0  0  0  0  0
  -20.7950  -17.5229   34.3326 C   0  0  0  0  0  0  0  0  0  0  0  0
  -26.7788  -17.5573   31.1637 C   0  0  0  0  0  0  0  0  0  0  0  0
  -31.7682  -12.2048   26.0958 C   0  0  0  0  0  0  0  0  0  0  0  0
  -31.5277  -12.5760   23.7207 C   0  0  0  0  0  0  0  0  0  0  0  0
  -22.5024   -8.0455   21.3232 C   0  0  0  0  0  0  0  0  0  0  0  0
  -28.3275  -15.7280   31.5706 C   0  0  0  0  0  0  0  0  0  0  0  0
  -21.4595   -6.5471   22.8029 C   0  0  0  0  0  0  0  0  0  0  0  0
  -20.7498   -5.8656   25.4133 C   0  0  0  0  0  0  0  0  0  0  0  0
  -33.6731  -11.9422   24.6331 C   0  0  0  0  0  0  0  0  0  0  0  0
  -21.9170   -5.3534   23.3609 C   0  0  0  0  0  0  0  0  0  0  0  0
  -24.6504  -11.6451   20.7515 C   0  0  0  0  0  0  0  0  0  0  0  0
  -25.2300  -13.7573   20.5574 C   0  0  0  0  0  0  0  0  0  0  0  0
  -31.1657  -10.9885   28.1713 C   0  0  0  0  0  0  0  0  0  0  0  0
  -33.9737  -11.5542   27.0390 C   0  0  0  0  0  0  0  0  0  0  0  0
  -22.8080  -13.4112   21.0702 C   0  0  0  0  0  0  0  0  0  0  0  0
  -23.5389  -18.2531   31.9681 C   0  0  0  0  0  0  0  0  0  0  0  0
  -24.7074  -20.5569   30.0061 C   0  0  0  0  0  0  0  0  0  0  0  0
  -27.3103  -21.7167   28.1282 C   0  0  0  0  0  0  0  0  0  0  0  0
  -31.1135  -12.9967   21.2717 C   0  0  0  0  0  0  0  0  0  0  0  0
  -18.7929  -18.9686   33.7062 C   0  0  0  0  0  0  0  0  0  0  0  0
  -25.7288  -18.8052   33.0886 C   0  0  0  0  0  0  0  0  0  0  0  0
  -26.0518  -18.4285   30.1733 C   0  0  0  0  0  0  0  0  0  0  0  0
  -30.8069  -11.1284   29.6387 C   0  0  0  0  0  0  0  0  0  0  0  0
  -19.5467  -19.3014   32.4212 C   0  0  0  0  0  0  0  0  0  0  0  0
  -29.7674  -12.1886   29.9290 C   0  0  0  0  0  0  0  0  0  0  0  0
  -29.4183  -13.7609   18.2353 C   0  0  0  0  0  0  0  0  0  0  0  0
  -20.2914  -18.0739   31.9060 C   0  0  0  0  0  0  0  0  0  0  0  0
  -27.9562  -13.4302   18.5433 C   0  0  0  0  0  0  0  0  0  0  0  0
  -30.3758  -12.7793   18.9087 C   0  0  0  0  0  0  0  0  0  0  0  0
  -30.3927  -13.3528   27.8322 C   0  0  0  0  0  0  0  0  0  0  0  0
  -28.7184  -12.2840   20.6628 C   0  0  0  0  0  0  0  0  0  0  0  0
  -21.3365  -17.5962   32.9214 C   0  0  1  0  0  0  0  0  0  0  0  0
  -24.6568  -19.2486   32.0979 C   0  0  1  0  0  0  0  0  0  0  0  0
  -30.2372  -13.5103   29.3440 C   0  0  1  0  0  0  0  0  0  0  0  0
  -27.7187  -13.2839   20.0591 C   0  0  2  0  0  0  0  0  0  0  0  0
  -34.6294  -10.2058   27.0130 C   0  0  0  0  0  0  0  0  0  0  0  0
  -27.9543  -23.6068   26.6082 C   0  0  0  0  0  0  0  0  0  0  0  0
  -23.0365  -19.3247   27.7701 C   0  0  0  0  0  0  0  0  0  0  0  0
  -24.4155  -20.6126   26.1246 C   0  0  0  0  0  0  0  0  0  0  0  0
  -23.0383  -21.8252   27.8144 C   0  0  0  0  0  0  0  0  0  0  0  0
  -29.5121  -22.5592   29.9176 C   0  0  0  0  0  0  0  0  0  0  0  0
  -29.2585  -14.6351   29.6747 C   0  0  0  0  0  0  0  0  0  1  0  0
  -25.1297  -20.6147   28.5579 C   0  0  1  0  0  0  0  0  0  0  0  0
  -27.9547  -23.0883   28.0378 C   0  0  2  0  0  0  0  0  0  0  0  0
  -23.9173  -20.5765   27.5852 C   0  0  0  0  0  0  0  0  0  0  0  0
  -25.9582  -11.6098   20.4823 N   0  0  0  0  0  0  0  0  0  0  0  0
  -26.2815  -12.9093   20.3695 N   0  0  0  0  0  0  0  0  0  0  0  0
  -31.1706  -12.1724   27.4137 N   0  0  0  0  0  0  0  0  0  0  0  0
  -25.1886  -19.4714   30.7518 N   0  0  0  0  0  0  0  0  0  0  0  0
  -30.0943  -12.6959   20.3435 N   0  0  0  0  0  0  0  0  0  0  0  0
  -25.3794  -15.0967   20.4795 N   0  0  0  0  0  0  0  0  0  0  0  0
  -21.8116  -12.4552   21.3099 N   0  0  0  0  0  0  0  0  0  0  0  0
  -30.7199  -12.9149   22.6069 N   0  0  0  0  0  0  0  0  0  0  0  0
  -22.5112  -18.4401   32.8727 N   0  0  0  0  0  0  0  0  0  0  0  0
  -25.9662  -21.8024   28.4237 N   0  0  0  0  0  0  0  0  0  0  0  0
  -29.3648  -23.0307   28.5165 N   0  3  0  0  0  0  0  0  0  0  0  0
  -31.4835   -9.8707   27.7563 O   0  0  0  0  0  0  0  0  0  0  0  0
  -34.1923  -12.2794   28.0093 O   0  0  0  0  0  0  0  0  0  0  0  0
  -22.5045  -14.6283   21.0732 O   0  0  0  0  0  0  0  0  0  0  0  0
  -23.6033  -17.3808   31.1098 O   0  0  0  0  0  0  0  0  0  0  0  0
  -23.9834  -21.4461   30.4609 O   0  0  0  0  0  0  0  0  0  0  0  0
  -27.9359  -20.6739   27.9505 O   0  0  0  0  0  0  0  0  0  0  0  0
  -32.2442  -13.3308   20.9083 O   0  0  0  0  0  0  0  0  0  0  0  0
  -21.8116   -6.8873   21.5075 O   0  0  0  0  0  0  0  0  0  0  0  0
  -29.1536  -14.7581   31.0925 O   0  0  0  0  0  0  0  0  0  1  0  0
  -20.4101   -5.5392   26.6672 F   0  0  0  0  0  0  0  0  0  0  0  0
  -34.9690  -11.6555   24.4438 F   0  0  0  0  0  0  0  0  0  0  0  0
  -22.6986   -4.5305   22.6484 F   0  0  0  0  0  0  0  0  0  0  0  0
  1  2  1  0  0  0  0
  1  5  2  0  0  0  0
  2  6  2  0  0  0  0
  3  8  2  0  0  0  0
  3 17  1  0  0  0  0
  4  9  1  0  0  0  0
  4 17  2  0  0  0  0
  5 20  1  0  0  0  0
  6 22  1  0  0  0  0
  7 10  2  0  0  0  0
  7 21  1  0  0  0  0
  8 26  1  0  0  0  0
  9 26  2  0  0  0  0
 10 27  1  0  0  0  0
 11 12  2  0  0  0  0
 11 28  1  0  0  0  0
 12 29  1  0  0  0  0
 13 23  1  0  0  0  0
 13 27  2  0  0  0  0
 14 24  1  0  0  0  0
 14 25  2  0  0  0  0
 15 25  1  0  0  0  0
 15 30  2  0  0  0  0
 16 29  2  0  0  0  0
 16 31  1  0  0  0  0
 17 32  1  0  0  0  0
 18 24  2  0  0  0  0
 18 30  1  0  0  0  0
 18 35  1  0  0  0  0
 19 32  1  0  0  0  0
 19 33  2  0  0  0  0
 19 36  1  0  0  0  0
 20 22  2  0  0  0  0
 20 41  1  0  0  0  0
 21 23  2  0  0  0  0
 21 42  1  0  0  0  0
 22 53  1  0  0  0  0
 23 43  1  0  0  0  0
 24 69  1  0  0  0  0
 25 74  1  0  0  0  0
 26 85  1  0  0  0  0
 27 86  1  0  0  0  0
 28 31  2  0  0  0  0
 28 85  1  0  0  0  0
 29 87  1  0  0  0  0
 30 88  1  0  0  0  0
 31 89  1  0  0  0  0
 32 67  2  0  0  0  0
 33 68  1  0  0  0  0
 33 72  1  0  0  0  0
 34 44  1  0  0  0  0
 34 69  1  0  0  0  0
 34 78  2  0  0  0  0
 35 57  1  0  0  0  0
 35 79  2  0  0  0  0
 36 73  1  0  0  0  0
 36 80  2  0  0  0  0
 37 54  1  0  0  0  0
 37 75  1  0  0  0  0
 37 81  2  0  0  0  0
 38 64  1  0  0  0  0
 38 70  1  0  0  0  0
 38 82  2  0  0  0  0
 39 65  1  0  0  0  0
 39 76  1  0  0  0  0
 39 83  2  0  0  0  0
 40 71  1  0  0  0  0
 40 74  1  0  0  0  0
 40 84  2  0  0  0  0
 41 45  1  0  0  0  0
 42 54  1  0  0  0  0
 43 70  1  0  0  0  0
 44 46  1  0  0  0  0
 45 48  1  0  0  0  0
 46 55  1  0  0  0  0
 47 49  1  0  0  0  0
 47 50  1  0  0  0  0
 48 53  1  0  0  0  0
 49 56  1  0  0  0  0
 50 71  1  0  0  0  0
 51 55  1  0  0  0  0
 51 69  1  0  0  0  0
 52 56  1  0  0  0  0
 52 71  1  0  0  0  0
 53 75  1  0  0  0  0
 54 70  1  0  0  0  0
 55 63  1  0  0  0  0
 56 68  1  0  0  0  0
 58 65  1  0  0  0  0
 59 66  1  0  0  0  0
 60 66  1  0  0  0  0
 61 66  1  0  0  0  0
 62 77  1  0  0  0  0
 63 86  1  0  0  0  0
 64 66  1  0  0  0  0
 64 76  1  0  0  0  0
 65 77  1  0  0  0  0
 67 68  1  0  0  0  0
M  CHG  1  77   1
M  ISO  4  40 100  63 101  74 100  86 101
M  END
> <Batch ID>
0052

> <Smiles>
CNC(C)C(=O)NC(C(=O)N1Cc2cc([101O:1][101CH2:1]C3CCC(=O)N(c4cc([100NH:0][100C:0](=O)N5CCCC(n6nc(-c7ccc(Oc8ccc(F)cc8F)cc7)c(C(N)=O)c6N)C5)cc(F)c4C(C)=O)C3)ccc2CC1C(=O)NC1CCCc2ccccc21)C(C)(C)C

> <Shape>
0.149

> <Color>
0.174

> <Negative vol penalty>
0.000

$$$$

  -OEChem-04042322403D

 85 93  0     1  0  0  0  0  0999 V2000
  -18.9204  -30.4677   24.4770 C   0  0  0  0  0  0  0  0  0  0  0  0
  -20.2971  -30.3391   24.3233 C   0  0  0  0  0  0  0  0  0  0  0  0
  -25.7757  -14.7831   22.6710 C   0  0  0  0  0  0  0  0  0  0  0  0
  -25.2884  -14.3151   20.3514 C   0  0  0  0  0  0  0  0  0  0  0  0
  -18.0690  -29.4864   23.9710 C   0  0  0  0  0  0  0  0  0  0  0  0
  -20.8232  -29.2285   23.6643 C   0  0  0  0  0  0  0  0  0  0  0  0
  -25.7998  -29.0795   20.0982 C   0  0  0  0  0  0  0  0  0  0  0  0
  -33.1251  -23.2714   17.4390 C   0  0  0  0  0  0  0  0  0  0  0  0
  -32.8550  -21.9047   17.5072 C   0  0  0  0  0  0  0  0  0  0  0  0
  -24.8847  -13.7830   23.0600 C   0  0  0  0  0  0  0  0  0  0  0  0
  -24.3974  -13.3148   20.7404 C   0  0  0  0  0  0  0  0  0  0  0  0
  -27.1178  -28.6963   20.3427 C   0  0  0  0  0  0  0  0  0  0  0  0
  -24.5619  -10.1153   21.8157 C   0  0  0  0  0  0  0  0  0  0  0  0
  -24.6221   -8.8969   21.1394 C   0  0  0  0  0  0  0  0  0  0  0  0
  -26.6389  -26.5050   19.4549 C   0  0  0  0  0  0  0  0  0  0  0  0
  -31.0498  -23.6225   16.2530 C   0  0  0  0  0  0  0  0  0  0  0  0
  -22.3271   -9.1735   20.4367 C   0  0  0  0  0  0  0  0  0  0  0  0
  -25.9775  -15.0492   21.3167 C   0  0  0  0  0  0  0  0  0  0  0  0
  -28.2735  -15.9414   20.6534 C   0  0  0  0  0  0  0  0  0  0  0  0
  -18.5844  -28.3680   23.2970 C   0  0  0  0  0  0  0  0  0  0  0  0
  -24.8871  -28.1734   19.5393 C   0  0  0  0  0  0  0  0  0  0  0  0
  -19.9779  -28.2307   23.1500 C   0  0  0  0  0  0  0  0  0  0  0  0
  -25.3106  -26.8800   19.2019 C   0  0  0  0  0  0  0  0  0  0  0  0
  -32.2225  -24.1303   16.8120 C   0  0  0  0  0  0  0  0  0  0  0  0
  -31.6823  -21.3968   16.9482 C   0  0  0  0  0  0  0  0  0  0  0  0
  -30.7797  -22.2557   16.3211 C   0  0  0  0  0  0  0  0  0  0  0  0
  -24.1956  -13.0488   22.0947 C   0  0  0  0  0  0  0  0  0  0  0  0
  -27.5368  -27.4080   20.0237 C   0  0  0  0  0  0  0  0  0  0  0  0
  -23.3842  -10.8628   21.8027 C   0  0  0  0  0  0  0  0  0  0  0  0
  -23.5048   -8.4260   20.4498 C   0  0  0  0  0  0  0  0  0  0  0  0
  -22.2669  -10.3919   21.1131 C   0  0  0  0  0  0  0  0  0  0  0  0
  -26.8974  -16.0827   20.9142 C   0  0  0  0  0  0  0  0  0  0  0  0
  -28.6894  -17.2047   20.3102 C   0  0  0  0  0  0  0  0  0  0  0  0
  -29.1019  -14.7728   20.7156 C   0  0  0  0  0  0  0  0  0  0  0  0
  -22.1578  -26.8582   20.5009 C   0  0  0  0  0  0  0  0  0  0  0  0
  -22.1140  -25.6783   17.4796 C   0  0  0  0  0  0  0  0  0  0  0  0
  -31.0741  -26.8104   18.3741 C   0  0  0  0  0  0  0  0  0  0  0  0
  -23.8681  -24.7954   14.6884 C   0  0  0  0  0  0  0  0  0  0  0  0
  -27.8439  -21.9035   17.3968 C   0  0  0  0  0  0  0  0  0  0  0  0
  -17.6271  -27.3098   22.8089 C   0  0  0  0  0  0  0  0  0  0  0  0
  -23.4758  -28.6107   19.2571 C   0  0  0  0  0  0  0  0  0  0  0  0
  -24.3751  -25.8759   18.5813 C   0  0  0  0  0  0  0  0  0  0  0  0
  -18.2449  -26.3506   21.7947 C   0  0  0  0  0  0  0  0  0  0  0  0
  -26.3494  -21.6653   20.6694 C   0  0  0  0  0  0  0  0  0  0  0  0
  -19.6132  -25.8759   22.2736 C   0  0  0  0  0  0  0  0  0  0  0  0
  -26.4369  -20.1722   20.9833 C   0  0  0  0  0  0  0  0  0  0  0  0
  -26.1200  -21.9112   19.1816 C   0  0  0  0  0  0  0  0  0  0  0  0
  -27.2349  -19.7690   18.6116 C   0  0  0  0  0  0  0  0  0  0  0  0
  -20.5854  -27.0528   22.4195 C   0  0  1  0  0  0  0  0  0  0  0  0
  -22.4971  -27.4446   19.1598 C   0  0  1  0  0  0  0  0  0  0  0  0
  -27.4932  -19.4835   20.1010 C   0  0  2  0  0  0  0  0  0  0  0  0
  -31.4153  -19.9298   17.0324 C   0  0  0  0  0  0  0  0  0  0  0  0
  -23.5620  -23.8257   12.3943 C   0  0  0  0  0  0  0  0  0  0  0  0
  -21.7621  -22.9047   18.7016 C   0  0  0  0  0  0  0  0  0  0  0  0
  -22.4107  -21.9248   16.4910 C   0  0  0  0  0  0  0  0  0  0  0  0
  -20.3626  -23.3368   16.6745 C   0  0  0  0  0  0  0  0  0  0  0  0
  -24.9363  -27.2310   13.3900 C   0  0  0  0  0  0  0  0  0  0  0  0
  -32.5137  -25.6014   16.7383 C   0  0  0  0  0  0  0  0  0  0  0  0
  -29.5179  -21.7346   15.7152 C   0  0  0  0  0  0  0  0  0  0  0  0
  -31.1407  -27.4352   19.7589 C   0  0  0  0  0  0  0  0  0  0  0  0
  -29.8203  -28.0493   20.1976 C   0  0  0  0  0  0  0  0  0  1  0  0
  -22.6381  -24.4300   16.8117 C   0  0  1  0  0  0  0  0  0  0  0  0
  -23.6429  -25.1010   13.2186 C   0  0  2  0  0  0  0  0  0  0  0  0
  -21.8107  -23.1672   17.1832 C   0  0  0  0  0  0  0  0  0  0  0  0
  -26.4677  -17.3367   20.7509 N   0  0  0  0  0  0  0  0  0  0  0  0
  -27.5803  -17.9951   20.3838 N   0  0  0  0  0  0  0  0  0  0  0  0
  -23.0037  -26.3491   18.3306 N   0  0  0  0  0  0  0  0  0  0  0  0
  -27.1159  -21.2124   18.3703 N   0  0  0  0  0  0  0  0  0  0  0  0
  -29.8919  -17.7054   19.9558 N   0  0  0  0  0  0  0  0  0  0  0  0
  -28.5135  -13.5558   21.0856 N   0  0  0  0  0  0  0  0  0  0  0  0
  -21.0817  -27.4620   21.1230 N   0  0  0  0  0  0  0  0  0  0  0  0
  -32.2935  -26.2604   18.0056 N   0  0  0  0  0  0  0  0  0  0  0  0
  -22.6789  -24.7184   15.3821 N   0  0  0  0  0  0  0  0  0  0  0  0
  -24.7574  -25.9349   12.6863 N   0  3  0  0  0  0  0  0  0  0  0  0
  -30.3308  -14.8101   20.4669 O   0  0  0  0  0  0  0  0  0  0  0  0
  -22.8220  -25.9258   20.9383 O   0  0  0  0  0  0  0  0  0  0  0  0
  -20.9602  -26.0486   17.2491 O   0  0  0  0  0  0  0  0  0  0  0  0
  -30.0572  -26.8050   17.6858 O   0  0  0  0  0  0  0  0  0  0  0  0
  -24.9868  -24.6369   15.1720 O   0  0  0  0  0  0  0  0  0  0  0  0
  -27.7122  -23.1018   17.1540 O   0  0  0  0  0  0  0  0  0  0  0  0
  -23.3262  -12.0726   22.4740 O   0  0  0  0  0  0  0  0  0  0  0  0
  -28.8225  -27.0311   20.2618 O   0  0  0  0  0  0  0  0  0  1  0  0
  -28.7316  -21.1007   16.7309 O   0  0  0  0  0  0  0  0  0  0  0  0
  -23.5632   -7.2567   19.7991 F   0  0  0  0  0  0  0  0  0  0  0  0
  -21.1331  -11.1062   21.0960 F   0  0  0  0  0  0  0  0  0  0  0  0
  1  2  1  0  0  0  0
  1  5  2  0  0  0  0
  2  6  2  0  0  0  0
  3 10  2  0  0  0  0
  3 18  1  0  0  0  0
  4 11  1  0  0  0  0
  4 18  2  0  0  0  0
  5 20  1  0  0  0  0
  6 22  1  0  0  0  0
  7 12  2  0  0  0  0
  7 21  1  0  0  0  0
  8  9  2  0  0  0  0
  8 24  1  0  0  0  0
  9 25  1  0  0  0  0
 10 27  1  0  0  0  0
 11 27  2  0  0  0  0
 12 28  1  0  0  0  0
 13 14  2  0  0  0  0
 13 29  1  0  0  0  0
 14 30  1  0  0  0  0
 15 23  1  0  0  0  0
 15 28  2  0  0  0  0
 16 24  2  0  0  0  0
 16 26  1  0  0  0  0
 17 30  2  0  0  0  0
 17 31  1  0  0  0  0
 18 32  1  0  0  0  0
 19 32  1  0  0  0  0
 19 33  2  0  0  0  0
 19 34  1  0  0  0  0
 20 22  2  0  0  0  0
 20 40  1  0  0  0  0
 21 23  2  0  0  0  0
 21 41  1  0  0  0  0
 22 49  1  0  0  0  0
 23 42  1  0  0  0  0
 24 58  1  0  0  0  0
 25 26  2  0  0  0  0
 25 52  1  0  0  0  0
 26 59  1  0  0  0  0
 27 81  1  0  0  0  0
 28 82  1  0  0  0  0
 29 31  2  0  0  0  0
 29 81  1  0  0  0  0
 30 84  1  0  0  0  0
 31 85  1  0  0  0  0
 32 65  2  0  0  0  0
 33 66  1  0  0  0  0
 33 69  1  0  0  0  0
 34 70  1  0  0  0  0
 34 75  2  0  0  0  0
 35 50  1  0  0  0  0
 35 71  1  0  0  0  0
 35 76  2  0  0  0  0
 36 62  1  0  0  0  0
 36 67  1  0  0  0  0
 36 77  2  0  0  0  0
 37 60  1  0  0  0  0
 37 72  1  0  0  0  0
 37 78  2  0  0  0  0
 38 63  1  0  0  0  0
 38 73  1  0  0  0  0
 38 79  2  0  0  0  0
 39 68  1  0  0  0  0
 39 80  2  0  0  0  0
 39 83  1  0  0  0  0
 40 43  1  0  0  0  0
 41 50  1  0  0  0  0
 42 67  1  0  0  0  0
 43 45  1  0  0  0  0
 44 46  1  0  0  0  0
 44 47  1  0  0  0  0
 45 49  1  0  0  0  0
 46 51  1  0  0  0  0
 47 68  1  0  0  0  0
 48 51  1  0  0  0  0
 48 68  1  0  0  0  0
 49 71  1  0  0  0  0
 50 67  1  0  0  0  0
 51 66  1  0  0  0  0
 53 63  1  0  0  0  0
 54 64  1  0  0  0  0
 55 64  1  0  0  0  0
 56 64  1  0  0  0  0
 57 74  1  0  0  0  0
 58 72  1  0  0  0  0
 59 83  1  0  0  0  0
 60 61  1  0  0  0  0
 61 82  1  0  0  0  0
 62 64  1  0  0  0  0
 62 73  1  0  0  0  0
 63 74  1  0  0  0  0
 65 66  1  0  0  0  0
M  CHG  1  74   1
M  ISO  4  39 100  61 101  82 101  83 100
M  END
> <Batch ID>
0052

> <Smiles>
CNC(C)C(=O)NC(C(=O)N1Cc2cc([101O:1][101CH2:1]CC(=O)NCc3ccc(C)c(C[100O:0][100C:0](=O)N4CCCC(n5nc(-c6ccc(Oc7ccc(F)cc7F)cc6)c(C(N)=O)c5N)C4)c3)ccc2CC1C(=O)NC1CCCc2ccccc21)C(C)(C)C

> <Shape>
0.244

> <Color>
0.079

> <Negative vol penalty>
0.000

$$$$

  -OEChem-04042322403D

 84 92  0     1  0  0  0  0  0999 V2000
  -17.6546  -25.9337   23.1325 C   0  0  0  0  0  0  0  0  0  0  0  0
  -18.8535  -25.6612   22.4815 C   0  0  0  0  0  0  0  0  0  0  0  0
  -28.8576  -21.4553   13.4594 C   0  0  0  0  0  0  0  0  0  0  0  0
  -29.3058  -13.7191   20.9485 C   0  0  0  0  0  0  0  0  0  0  0  0
  -29.2934  -13.8507   18.5361 C   0  0  0  0  0  0  0  0  0  0  0  0
  -17.2269  -27.2525   23.2801 C   0  0  0  0  0  0  0  0  0  0  0  0
  -19.6250  -26.7075   21.9768 C   0  0  0  0  0  0  0  0  0  0  0  0
  -25.7376  -26.9842   21.7227 C   0  0  0  0  0  0  0  0  0  0  0  0
  -28.1041  -22.6290   13.4422 C   0  0  0  0  0  0  0  0  0  0  0  0
  -29.4098  -20.9984   14.6561 C   0  0  0  0  0  0  0  0  0  0  0  0
  -28.4447  -12.6233   20.8932 C   0  0  0  0  0  0  0  0  0  0  0  0
  -28.4322  -12.7548   18.4808 C   0  0  0  0  0  0  0  0  0  0  0  0
  -26.6460  -26.7343   20.6950 C   0  0  0  0  0  0  0  0  0  0  0  0
  -28.6682   -9.3089   20.2625 C   0  0  0  0  0  0  0  0  0  0  0  0
  -28.9607   -8.2130   21.0743 C   0  0  0  0  0  0  0  0  0  0  0  0
  -26.6993  -29.0898   20.1774 C   0  0  0  0  0  0  0  0  0  0  0  0
  -28.4551  -22.8891   15.8184 C   0  0  0  0  0  0  0  0  0  0  0  0
  -26.8306   -8.4677   22.1856 C   0  0  0  0  0  0  0  0  0  0  0  0
  -29.7302  -14.3329   19.7700 C   0  0  0  0  0  0  0  0  0  0  0  0
  -32.0268  -15.4423   19.8177 C   0  0  0  0  0  0  0  0  0  0  0  0
  -17.9983  -28.3160   22.7855 C   0  0  0  0  0  0  0  0  0  0  0  0
  -25.2942  -28.2896   21.9788 C   0  0  0  0  0  0  0  0  0  0  0  0
  -19.2066  -28.0416   22.1168 C   0  0  0  0  0  0  0  0  0  0  0  0
  -25.7873  -29.3540   21.2106 C   0  0  0  0  0  0  0  0  0  0  0  0
  -27.9028  -23.3459   14.6217 C   0  0  0  0  0  0  0  0  0  0  0  0
  -29.2085  -21.7153   15.8356 C   0  0  0  0  0  0  0  0  0  0  0  0
  -28.0079  -12.1411   19.6594 C   0  0  0  0  0  0  0  0  0  0  0  0
  -27.1247  -27.7867   19.9203 C   0  0  0  0  0  0  0  0  0  0  0  0
  -27.4570   -9.9843   20.4123 C   0  0  0  0  0  0  0  0  0  0  0  0
  -28.0419   -7.7923   22.0358 C   0  0  0  0  0  0  0  0  0  0  0  0
  -26.5382   -9.5636   21.3738 C   0  0  0  0  0  0  0  0  0  0  0  0
  -30.6193  -15.4653   19.8265 C   0  0  0  0  0  0  0  0  0  0  0  0
  -32.3923  -16.7644   19.8871 C   0  0  0  0  0  0  0  0  0  0  0  0
  -32.9237  -14.3256   19.7526 C   0  0  0  0  0  0  0  0  0  0  0  0
  -22.4741  -29.7546   21.9110 C   0  0  0  0  0  0  0  0  0  0  0  0
  -24.1688  -32.2317   23.1413 C   0  0  0  0  0  0  0  0  0  0  0  0
  -27.5120  -26.4976   16.1974 C   0  0  0  0  0  0  0  0  0  0  0  0
  -27.1934  -33.7648   23.5269 C   0  0  0  0  0  0  0  0  0  0  0  0
  -29.6652  -21.8418   18.3098 C   0  0  0  0  0  0  0  0  0  0  0  0
  -17.4717  -29.7222   22.9273 C   0  0  0  0  0  0  0  0  0  0  0  0
  -24.3346  -28.5460   23.1084 C   0  0  0  0  0  0  0  0  0  0  0  0
  -25.3581  -30.7763   21.4582 C   0  0  0  0  0  0  0  0  0  0  0  0
  -18.5315  -30.7959   22.6941 C   0  0  0  0  0  0  0  0  0  0  0  0
  -30.8681  -20.9886   21.5505 C   0  0  0  0  0  0  0  0  0  0  0  0
  -19.3395  -30.4845   21.4383 C   0  0  0  0  0  0  0  0  0  0  0  0
  -31.0747  -19.4742   21.4735 C   0  0  0  0  0  0  0  0  0  0  0  0
  -29.6385  -21.4342   20.7610 C   0  0  0  0  0  0  0  0  0  0  0  0
  -29.8064  -19.4670   19.2875 C   0  0  0  0  0  0  0  0  0  0  0  0
  -20.0834  -29.1509   21.5775 C   0  0  1  0  0  0  0  0  0  0  0  0
  -23.5573  -29.8489   22.9480 C   0  0  1  0  0  0  0  0  0  0  0  0
  -31.0701  -18.9783   20.0141 C   0  0  2  0  0  0  0  0  0  0  0  0
  -28.2569  -35.7945   24.5499 C   0  0  0  0  0  0  0  0  0  0  0  0
  -23.0649  -33.9497   20.8741 C   0  0  0  0  0  0  0  0  0  0  0  0
  -24.8512  -35.6318   21.3724 C   0  0  0  0  0  0  0  0  0  0  0  0
  -23.1389  -35.0841   23.1017 C   0  0  0  0  0  0  0  0  0  0  0  0
  -29.0284  -26.0901   14.2467 C   0  0  0  0  0  0  0  0  0  0  0  0
  -28.9090  -32.1200   25.2905 C   0  0  0  0  0  0  0  0  0  0  0  0
  -27.0917  -24.6092   14.6027 C   0  0  0  0  0  0  0  0  0  0  0  0
  -28.4202  -27.6726   16.5449 C   0  0  0  0  0  0  0  0  0  0  0  0
  -27.9747  -28.4247   17.7927 C   0  0  0  0  0  0  0  0  0  1  0  0
  -24.9389  -33.3932   22.5607 C   0  0  1  0  0  0  0  0  0  0  0  0
  -27.8853  -34.3338   24.7525 C   0  0  2  0  0  0  0  0  0  0  0  0
  -24.0053  -34.4878   21.9711 C   0  0  0  0  0  0  0  0  0  0  0  0
  -30.1243  -16.7039   19.8961 N   0  0  0  0  0  0  0  0  0  0  0  0
  -31.2269  -17.4715   19.9319 N   0  0  0  0  0  0  0  0  0  0  0  0
  -24.4135  -30.9750   22.5699 N   0  0  0  0  0  0  0  0  0  0  0  0
  -29.7054  -20.9315   19.3871 N   0  0  0  0  0  0  0  0  0  0  0  0
  -33.5937  -17.3795   19.9138 N   0  0  0  0  0  0  0  0  0  0  0  0
  -32.3805  -13.0353   19.6858 N   0  0  0  0  0  0  0  0  0  0  0  0
  -29.7691  -21.2506   17.0511 N   0  0  0  0  0  0  0  0  0  0  0  0
  -21.2608  -29.3127   22.4033 N   0  0  0  0  0  0  0  0  0  0  0  0
  -25.8216  -33.8683   23.6206 N   0  0  0  0  0  0  0  0  0  0  0  0
  -27.8642  -25.7619   15.0603 N   0  0  0  0  0  0  0  0  0  0  0  0
  -29.1298  -33.5687   25.0467 N   0  3  0  0  0  0  0  0  0  0  0  0
  -34.1700  -14.4668   19.7702 O   0  0  0  0  0  0  0  0  0  0  0  0
  -22.7203  -30.0614   20.7504 O   0  0  0  0  0  0  0  0  0  0  0  0
  -23.3846  -32.4311   24.0723 O   0  0  0  0  0  0  0  0  0  0  0  0
  -26.5309  -26.2346   16.8978 O   0  0  0  0  0  0  0  0  0  0  0  0
  -27.8085  -33.2805   22.5795 O   0  0  0  0  0  0  0  0  0  0  0  0
  -29.5748  -23.0587   18.4915 O   0  0  0  0  0  0  0  0  0  0  0  0
  -27.1677  -11.0716   19.6050 O   0  0  0  0  0  0  0  0  0  0  0  0
  -28.0109  -27.5455   18.9161 O   0  0  0  0  0  0  0  0  0  1  0  0
  -28.3222   -6.7390   22.8143 F   0  0  0  0  0  0  0  0  0  0  0  0
  -25.3723  -10.2077   21.5215 F   0  0  0  0  0  0  0  0  0  0  0  0
  1  2  1  0  0  0  0
  1  6  2  0  0  0  0
  2  7  2  0  0  0  0
  3  9  2  0  0  0  0
  3 10  1  0  0  0  0
  4 11  2  0  0  0  0
  4 19  1  0  0  0  0
  5 12  1  0  0  0  0
  5 19  2  0  0  0  0
  6 21  1  0  0  0  0
  7 23  1  0  0  0  0
  8 13  2  0  0  0  0
  8 22  1  0  0  0  0
  9 25  1  0  0  0  0
 10 26  2  0  0  0  0
 11 27  1  0  0  0  0
 12 27  2  0  0  0  0
 13 28  1  0  0  0  0
 14 15  2  0  0  0  0
 14 29  1  0  0  0  0
 15 30  1  0  0  0  0
 16 24  1  0  0  0  0
 16 28  2  0  0  0  0
 17 25  2  0  0  0  0
 17 26  1  0  0  0  0
 18 30  2  0  0  0  0
 18 31  1  0  0  0  0
 19 32  1  0  0  0  0
 20 32  1  0  0  0  0
 20 33  2  0  0  0  0
 20 34  1  0  0  0  0
 21 23  2  0  0  0  0
 21 40  1  0  0  0  0
 22 24  2  0  0  0  0
 22 41  1  0  0  0  0
 23 49  1  0  0  0  0
 24 42  1  0  0  0  0
 25 58  1  0  0  0  0
 26 70  1  0  0  0  0
 27 81  1  0  0  0  0
 28 82  1  0  0  0  0
 29 31  2  0  0  0  0
 29 81  1  0  0  0  0
 30 83  1  0  0  0  0
 31 84  1  0  0  0  0
 32 64  2  0  0  0  0
 33 65  1  0  0  0  0
 33 68  1  0  0  0  0
 34 69  1  0  0  0  0
 34 75  2  0  0  0  0
 35 50  1  0  0  0  0
 35 71  1  0  0  0  0
 35 76  2  0  0  0  0
 36 61  1  0  0  0  0
 36 66  1  0  0  0  0
 36 77  2  0  0  0  0
 37 59  1  0  0  0  0
 37 73  1  0  0  0  0
 37 78  2  0  0  0  0
 38 62  1  0  0  0  0
 38 72  1  0  0  0  0
 38 79  2  0  0  0  0
 39 67  1  0  0  0  0
 39 70  1  0  0  0  0
 39 80  2  0  0  0  0
 40 43  1  0  0  0  0
 41 50  1  0  0  0  0
 42 66  1  0  0  0  0
 43 45  1  0  0  0  0
 44 46  1  0  0  0  0
 44 47  1  0  0  0  0
 45 49  1  0  0  0  0
 46 51  1  0  0  0  0
 47 67  1  0  0  0  0
 48 51  1  0  0  0  0
 48 67  1  0  0  0  0
 49 71  1  0  0  0  0
 50 66  1  0  0  0  0
 51 65  1  0  0  0  0
 52 62  1  0  0  0  0
 53 63  1  0  0  0  0
 54 63  1  0  0  0  0
 55 63  1  0  0  0  0
 56 73  1  0  0  0  0
 57 74  1  0  0  0  0
 58 73  1  0  0  0  0
 59 60  1  0  0  0  0
 60 82  1  0  0  0  0
 61 63  1  0  0  0  0
 61 72  1  0  0  0  0
 62 74  1  0  0  0  0
 64 65  1  0  0  0  0
M  CHG  1  74   1
M  ISO  4  39 100  60 101  70 100  82 101
M  END
> <Batch ID>
0052

> <Smiles>
CNC(C)C(=O)NC(C(=O)N1Cc2cc([101O:1][101CH2:1]CC(=O)N(C)Cc3cccc([100NH:0][100C:0](=O)N4CCCC(n5nc(-c6ccc(Oc7ccc(F)cc7F)cc6)c(C(N)=O)c5N)C4)c3)ccc2CC1C(=O)NC1CCCc2ccccc21)C(C)(C)C

> <Shape>
0.252

> <Color>
0.110

> <Negative vol penalty>
0.000

$$$$

  -OEChem-04042322403D

 86 94  0     1  0  0  0  0  0999 V2000
  -22.8827  -23.7635   18.2794 C   0  0  0  0  0  0  0  0  0  0  0  0
  -23.8577  -22.7769   18.1859 C   0  0  0  0  0  0  0  0  0  0  0  0
  -25.3215  -27.0784   19.7980 C   0  0  0  0  0  0  0  0  0  0  0  0
  -27.3610  -27.9736   20.7339 C   0  0  0  0  0  0  0  0  0  0  0  0
  -21.8122  -23.5994   19.1559 C   0  0  0  0  0  0  0  0  0  0  0  0
  -23.7564  -21.6204   18.9600 C   0  0  0  0  0  0  0  0  0  0  0  0
  -27.0242  -18.0493   18.0816 C   0  0  0  0  0  0  0  0  0  0  0  0
  -34.4921  -24.1411   24.6889 C   0  0  0  0  0  0  0  0  0  0  0  0
  -24.7074  -28.3220   19.9466 C   0  0  0  0  0  0  0  0  0  0  0  0
  -26.7470  -29.2172   20.8826 C   0  0  0  0  0  0  0  0  0  0  0  0
  -28.3665  -18.1500   18.4445 C   0  0  0  0  0  0  0  0  0  0  0  0
  -25.6072  -32.5324   21.8417 C   0  0  0  0  0  0  0  0  0  0  0  0
  -25.7934  -33.2074   23.0481 C   0  0  0  0  0  0  0  0  0  0  0  0
  -34.1622  -25.3439   25.3134 C   0  0  0  0  0  0  0  0  0  0  0  0
  -27.9648  -16.6805   20.3150 C   0  0  0  0  0  0  0  0  0  0  0  0
  -32.0852  -24.3764   26.0796 C   0  0  0  0  0  0  0  0  0  0  0  0
  -24.7754  -31.3660   24.2356 C   0  0  0  0  0  0  0  0  0  0  0  0
  -26.6483  -26.9042   20.1917 C   0  0  0  0  0  0  0  0  0  0  0  0
  -28.0007  -25.1537   18.9211 C   0  0  0  0  0  0  0  0  0  0  0  0
  -21.7050  -22.4457   19.9499 C   0  0  0  0  0  0  0  0  0  0  0  0
  -26.1382  -17.2708   18.8402 C   0  0  0  0  0  0  0  0  0  0  0  0
  -22.6708  -21.4254   19.8330 C   0  0  0  0  0  0  0  0  0  0  0  0
  -26.6123  -16.5695   19.9581 C   0  0  0  0  0  0  0  0  0  0  0  0
  -33.6186  -23.0559   24.7597 C   0  0  0  0  0  0  0  0  0  0  0  0
  -32.4151  -23.1736   25.4550 C   0  0  0  0  0  0  0  0  0  0  0  0
  -25.4202  -29.3914   20.4889 C   0  0  0  0  0  0  0  0  0  0  0  0
  -28.8364  -17.4679   19.5630 C   0  0  0  0  0  0  0  0  0  0  0  0
  -25.0049  -31.2742   21.8323 C   0  0  0  0  0  0  0  0  0  0  0  0
  -25.3776  -32.6242   24.2450 C   0  0  0  0  0  0  0  0  0  0  0  0
  -24.5891  -30.6910   23.0292 C   0  0  0  0  0  0  0  0  0  0  0  0
  -32.9588  -25.4616   26.0087 C   0  0  0  0  0  0  0  0  0  0  0  0
  -27.2829  -25.6197   20.0389 C   0  0  0  0  0  0  0  0  0  0  0  0
  -28.3971  -23.8862   19.2716 C   0  0  0  0  0  0  0  0  0  0  0  0
  -31.9939  -20.0680   21.3857 C   0  0  0  0  0  0  0  0  0  0  0  0
  -31.9213  -18.9960   20.5849 C   0  0  0  0  0  0  0  0  0  0  0  0
  -28.2838  -25.8080   17.6772 C   0  0  0  0  0  0  0  0  0  0  0  0
  -33.1259  -20.2180   22.3413 C   0  0  0  0  0  0  0  0  0  0  0  0
  -23.5090  -17.8643   20.5251 C   0  0  0  0  0  0  0  0  0  0  0  0
  -23.4221  -14.6329   20.7953 C   0  0  0  0  0  0  0  0  0  0  0  0
  -25.1232  -11.6748   20.7467 C   0  0  0  0  0  0  0  0  0  0  0  0
  -29.3358  -21.2212   24.5506 C   0  0  0  0  0  0  0  0  0  0  0  0
  -20.5215  -22.3161   20.8760 C   0  0  0  0  0  0  0  0  0  0  0  0
  -24.6989  -17.1511   18.4200 C   0  0  0  0  0  0  0  0  0  0  0  0
  -25.7063  -15.7043   20.7942 C   0  0  0  0  0  0  0  0  0  0  0  0
  -20.7333  -21.2736   21.9691 C   0  0  0  0  0  0  0  0  0  0  0  0
  -27.0927  -20.1729   21.9921 C   0  0  0  0  0  0  0  0  0  0  0  0
  -21.2321  -19.9730   21.3573 C   0  0  0  0  0  0  0  0  0  0  0  0
  -26.9518  -21.4079   21.1005 C   0  0  0  0  0  0  0  0  0  0  0  0
  -27.2113  -20.5519   23.4666 C   0  0  0  0  0  0  0  0  0  0  0  0
  -28.1359  -22.7600   22.8806 C   0  0  0  0  0  0  0  0  0  0  0  0
  -22.5976  -20.1729   20.6876 C   0  0  1  0  0  0  0  0  0  0  0  0
  -23.7749  -16.7415   19.5628 C   0  0  1  0  0  0  0  0  0  0  0  0
  -28.0692  -22.4312   21.3794 C   0  0  2  0  0  0  0  0  0  0  0  0
  -24.7883   -9.2049   21.0378 C   0  0  0  0  0  0  0  0  0  0  0  0
  -23.2452  -15.0155   23.8173 C   0  0  0  0  0  0  0  0  0  0  0  0
  -23.8668  -12.6055   24.0887 C   0  0  0  0  0  0  0  0  0  0  0  0
  -21.7600  -13.2226   22.9040 C   0  0  0  0  0  0  0  0  0  0  0  0
  -26.0288  -11.1092   17.9865 C   0  0  0  0  0  0  0  0  0  0  0  0
  -33.9945  -21.7716   24.0790 C   0  0  0  0  0  0  0  0  0  0  0  0
  -31.4635  -22.0257   25.5430 C   0  0  0  0  0  0  0  0  0  0  0  0
  -30.8180  -18.7824   19.5993 C   0  0  0  0  0  0  0  0  0  1  0  0
  -23.9834  -13.6262   21.7701 C   0  0  1  0  0  0  0  0  0  0  0  0
  -24.8348  -10.3584   20.0478 C   0  0  2  0  0  0  0  0  0  0  0  0
  -23.2308  -13.6352   23.1306 C   0  0  0  0  0  0  0  0  0  0  0  0
  -27.2250  -24.7213   21.0256 N   0  0  0  0  0  0  0  0  0  0  0  0
  -27.9113  -23.6781   20.5290 N   0  0  0  0  0  0  0  0  0  0  0  0
  -24.3061  -15.6243   20.3464 N   0  0  0  0  0  0  0  0  0  0  0  0
  -28.2898  -21.5236   23.6633 N   0  0  0  0  0  0  0  0  0  0  0  0
  -29.1103  -22.9406   18.6239 N   0  0  0  0  0  0  0  0  0  0  0  0
  -27.8014  -27.1094   17.4819 N   0  0  0  0  0  0  0  0  0  0  0  0
  -33.0249  -21.3857   23.0783 N   0  0  0  0  0  0  0  0  0  0  0  0
  -22.9377  -18.9801   19.9437 N   0  0  0  0  0  0  0  0  0  0  0  0
  -23.9628  -12.3386   21.0844 N   0  0  0  0  0  0  0  0  0  0  0  0
  -30.3204  -22.1939   24.6736 N   0  0  0  0  0  0  0  0  0  0  0  0
  -25.8896  -10.0672   19.0361 N   0  3  0  0  0  0  0  0  0  0  0  0
  -28.9310  -25.2490   16.7595 O   0  0  0  0  0  0  0  0  0  0  0  0
  -34.0216  -19.3855   22.4376 O   0  0  0  0  0  0  0  0  0  0  0  0
  -23.7993  -17.7279   21.7078 O   0  0  0  0  0  0  0  0  0  0  0  0
  -22.2447  -14.5389   20.4396 O   0  0  0  0  0  0  0  0  0  0  0  0
  -26.2637  -12.0725   20.9739 O   0  0  0  0  0  0  0  0  0  0  0  0
  -29.3911  -20.1605   25.1822 O   0  0  0  0  0  0  0  0  0  0  0  0
  -24.8214  -30.6050   20.6339 O   0  0  0  0  0  0  0  0  0  0  0  0
  -30.1460  -17.5650   19.9198 O   0  0  0  0  0  0  0  0  0  1  0  0
  -25.5579  -33.2718   25.4035 F   0  0  0  0  0  0  0  0  0  0  0  0
  -24.0110  -29.4821   23.0265 F   0  0  0  0  0  0  0  0  0  0  0  0
  -32.5514  -26.9460   26.7774 Cl  0  0  0  0  0  0  0  0  0  0  0  0
  1  2  1  0  0  0  0
  1  5  2  0  0  0  0
  2  6  2  0  0  0  0
  3  9  2  0  0  0  0
  3 18  1  0  0  0  0
  4 10  1  0  0  0  0
  4 18  2  0  0  0  0
  5 20  1  0  0  0  0
  6 22  1  0  0  0  0
  7 11  2  0  0  0  0
  7 21  1  0  0  0  0
  8 14  2  0  0  0  0
  8 24  1  0  0  0  0
  9 26  1  0  0  0  0
 10 26  2  0  0  0  0
 11 27  1  0  0  0  0
 12 13  2  0  0  0  0
 12 28  1  0  0  0  0
 13 29  1  0  0  0  0
 14 31  1  0  0  0  0
 15 23  1  0  0  0  0
 15 27  2  0  0  0  0
 16 25  1  0  0  0  0
 16 31  2  0  0  0  0
 17 29  2  0  0  0  0
 17 30  1  0  0  0  0
 18 32  1  0  0  0  0
 19 32  1  0  0  0  0
 19 33  2  0  0  0  0
 19 36  1  0  0  0  0
 20 22  2  0  0  0  0
 20 42  1  0  0  0  0
 21 23  2  0  0  0  0
 21 43  1  0  0  0  0
 22 51  1  0  0  0  0
 23 44  1  0  0  0  0
 24 25  2  0  0  0  0
 24 59  1  0  0  0  0
 25 60  1  0  0  0  0
 26 82  1  0  0  0  0
 27 83  1  0  0  0  0
 28 30  2  0  0  0  0
 28 82  1  0  0  0  0
 29 84  1  0  0  0  0
 30 85  1  0  0  0  0
 31 86  1  0  0  0  0
 32 65  2  0  0  0  0
 33 66  1  0  0  0  0
 33 69  1  0  0  0  0
 34 35  2  0  0  0  0
 34 37  1  0  0  0  0
 35 61  1  0  0  0  0
 36 70  1  0  0  0  0
 36 76  2  0  0  0  0
 37 71  1  0  0  0  0
 37 77  2  0  0  0  0
 38 52  1  0  0  0  0
 38 72  1  0  0  0  0
 38 78  2  0  0  0  0
 39 62  1  0  0  0  0
 39 67  1  0  0  0  0
 39 79  2  0  0  0  0
 40 63  1  0  0  0  0
 40 73  1  0  0  0  0
 40 80  2  0  0  0  0
 41 68  1  0  0  0  0
 41 74  1  0  0  0  0
 41 81  2  0  0  0  0
 42 45  1  0  0  0  0
 43 52  1  0  0  0  0
 44 67  1  0  0  0  0
 45 47  1  0  0  0  0
 46 48  1  0  0  0  0
 46 49  1  0  0  0  0
 47 51  1  0  0  0  0
 48 53  1  0  0  0  0
 49 68  1  0  0  0  0
 50 53  1  0  0  0  0
 50 68  1  0  0  0  0
 51 72  1  0  0  0  0
 52 67  1  0  0  0  0
 53 66  1  0  0  0  0
 54 63  1  0  0  0  0
 55 64  1  0  0  0  0
 56 64  1  0  0  0  0
 57 64  1  0  0  0  0
 58 75  1  0  0  0  0
 59 71  1  0  0  0  0
 60 74  1  0  0  0  0
 61 83  1  0  0  0  0
 62 64  1  0  0  0  0
 62 73  1  0  0  0  0
 63 75  1  0  0  0  0
 65 66  1  0  0  0  0
M  CHG  1  75   1
M  ISO  4  41 100  61 101  74 100  83 101
M  END
> <Batch ID>
0052

> <Smiles>
CNC(C)C(=O)NC(C(=O)N1Cc2cc([101O:1][101CH2:1]C=CC(=O)NCc3ccc(Cl)cc3C[100NH:0][100C:0](=O)N3CCCC(n4nc(-c5ccc(Oc6ccc(F)cc6F)cc5)c(C(N)=O)c4N)C3)ccc2CC1C(=O)NC1CCCc2ccccc21)C(C)(C)C

> <Shape>
0.186

> <Color>
0.086

> <Negative vol penalty>
0.000

$$$$

  -OEChem-04042322403D

 85 93  0     1  0  0  0  0  0999 V2000
  -29.2075  -19.7080   16.8913 C   0  0  0  0  0  0  0  0  0  0  0  0
  -28.7644  -19.9179   18.1932 C   0  0  0  0  0  0  0  0  0  0  0  0
  -30.2102  -20.9087   22.3059 C   0  0  0  0  0  0  0  0  0  0  0  0
  -25.1274   -9.5922   20.7101 C   0  0  0  0  0  0  0  0  0  0  0  0
  -25.5356  -10.4148   22.9448 C   0  0  0  0  0  0  0  0  0  0  0  0
  -29.0466  -21.0886   23.0536 C   0  0  0  0  0  0  0  0  0  0  0  0
  -29.6942  -20.7775   16.1409 C   0  0  0  0  0  0  0  0  0  0  0  0
  -28.8087  -21.1974   18.7459 C   0  0  0  0  0  0  0  0  0  0  0  0
  -24.5545  -22.3942   21.2185 C   0  0  0  0  0  0  0  0  0  0  0  0
  -30.8087  -19.6505   22.2388 C   0  0  0  0  0  0  0  0  0  0  0  0
  -25.0826   -8.2866   21.1989 C   0  0  0  0  0  0  0  0  0  0  0  0
  -25.4908   -9.1091   23.4336 C   0  0  0  0  0  0  0  0  0  0  0  0
  -24.3868  -21.8570   22.4941 C   0  0  0  0  0  0  0  0  0  0  0  0
  -27.5435   -6.4257   23.5629 C   0  0  0  0  0  0  0  0  0  0  0  0
  -28.5316   -6.0383   24.4679 C   0  0  0  0  0  0  0  0  0  0  0  0
  -25.0993  -23.9485   23.4621 C   0  0  0  0  0  0  0  0  0  0  0  0
  -26.8338   -5.5731   26.1227 C   0  0  0  0  0  0  0  0  0  0  0  0
  -25.3539  -10.6563   21.5831 C   0  0  0  0  0  0  0  0  0  0  0  0
  -28.4814  -20.0103   23.7344 C   0  0  0  0  0  0  0  0  0  0  0  0
  -24.3230  -12.9011   20.9461 C   0  0  0  0  0  0  0  0  0  0  0  0
  -29.7355  -22.0724   16.6812 C   0  0  0  0  0  0  0  0  0  0  0  0
  -25.0071  -23.7113   21.0548 C   0  0  0  0  0  0  0  0  0  0  0  0
  -29.2977  -22.2850   18.0024 C   0  0  0  0  0  0  0  0  0  0  0  0
  -25.2695  -24.5009   22.1835 C   0  0  0  0  0  0  0  0  0  0  0  0
  -30.2435  -18.5722   22.9196 C   0  0  0  0  0  0  0  0  0  0  0  0
  -29.0799  -18.7521   23.6674 C   0  0  0  0  0  0  0  0  0  0  0  0
  -25.2643   -8.0450   22.5606 C   0  0  0  0  0  0  0  0  0  0  0  0
  -24.6620  -22.6332   23.6161 C   0  0  0  0  0  0  0  0  0  0  0  0
  -26.2004   -6.3869   23.9378 C   0  0  0  0  0  0  0  0  0  0  0  0
  -28.1768   -5.6120   25.7478 C   0  0  0  0  0  0  0  0  0  0  0  0
  -25.8456   -5.9606   25.2176 C   0  0  0  0  0  0  0  0  0  0  0  0
  -25.4008  -12.0052   21.0788 C   0  0  0  0  0  0  0  0  0  0  0  0
  -24.8858  -14.0405   20.4248 C   0  0  0  0  0  0  0  0  0  0  0  0
  -27.2411  -20.2328   24.5214 C   0  0  0  0  0  0  0  0  0  0  0  0
  -22.9371  -12.7197   21.2655 C   0  0  0  0  0  0  0  0  0  0  0  0
  -27.5567  -25.0571   19.7162 C   0  0  0  0  0  0  0  0  0  0  0  0
  -25.9785  -27.8080   20.3976 C   0  0  0  0  0  0  0  0  0  0  0  0
  -23.6594  -29.4191   22.3141 C   0  0  0  0  0  0  0  0  0  0  0  0
  -30.4329  -16.2889   20.5841 C   0  0  0  0  0  0  0  0  0  0  0  0
  -30.3141  -23.1886   15.8480 C   0  0  0  0  0  0  0  0  0  0  0  0
  -25.1572  -24.2848   19.6724 C   0  0  0  0  0  0  0  0  0  0  0  0
  -25.7382  -25.9271   22.0620 C   0  0  0  0  0  0  0  0  0  0  0  0
  -29.9785  -24.5806   16.3771 C   0  0  0  0  0  0  0  0  0  0  0  0
  -28.5238  -15.5032   17.6833 C   0  0  0  0  0  0  0  0  0  0  0  0
  -30.2129  -24.6501   17.8828 C   0  0  0  0  0  0  0  0  0  0  0  0
  -27.4097  -14.5985   18.2126 C   0  0  0  0  0  0  0  0  0  0  0  0
  -29.8439  -15.2571   18.4104 C   0  0  0  0  0  0  0  0  0  0  0  0
  -28.6538  -14.4447   20.4097 C   0  0  0  0  0  0  0  0  0  0  0  0
  -29.3069  -23.6627   18.6283 C   0  0  1  0  0  0  0  0  0  0  0  0
  -26.1155  -25.4706   19.6182 C   0  0  1  0  0  0  0  0  0  0  0  0
  -27.2892  -14.6955   19.7453 C   0  0  2  0  0  0  0  0  0  0  0  0
  -28.4760  -17.5929   24.3961 C   0  0  0  0  0  0  0  0  0  0  0  0
  -22.6145  -31.6740   22.6619 C   0  0  0  0  0  0  0  0  0  0  0  0
  -24.5093  -23.2711   26.9763 C   0  0  0  0  0  0  0  0  0  0  0  0
  -28.5008  -28.7530   21.8311 C   0  0  0  0  0  0  0  0  0  0  0  0
  -27.1232  -30.5265   22.9380 C   0  0  0  0  0  0  0  0  0  0  0  0
  -27.3643  -30.5051   20.4552 C   0  0  0  0  0  0  0  0  0  0  0  0
  -20.9610  -28.3993   21.6529 C   0  0  0  0  0  0  0  0  0  0  0  0
  -30.9029  -17.2348   22.8299 C   0  0  0  0  0  0  0  0  0  0  0  0
  -26.2212  -21.4704   26.4145 C   0  0  0  0  0  0  0  0  0  0  0  0
  -25.9315  -28.7496   21.5766 C   0  0  1  0  0  0  0  0  0  0  0  0
  -22.5091  -30.3377   21.9435 C   0  0  2  0  0  0  0  0  0  0  0  0
  -25.3514  -22.6116   25.8921 C   0  0  1  0  0  0  0  0  0  1  0  0
  -27.2230  -29.6061   21.7028 C   0  0  0  0  0  0  0  0  0  0  0  0
  -26.5604  -12.5302   20.6742 N   0  0  0  0  0  0  0  0  0  0  0  0
  -26.2146  -13.7682   20.2822 N   0  0  0  0  0  0  0  0  0  0  0  0
  -25.8758  -26.4403   20.6889 N   0  0  0  0  0  0  0  0  0  0  0  0
  -29.6613  -15.3652   19.8598 N   0  0  0  0  0  0  0  0  0  0  0  0
  -24.3686  -15.2385   20.0790 N   0  0  0  0  0  0  0  0  0  0  0  0
  -22.5288  -11.4871   21.7930 N   0  0  0  0  0  0  0  0  0  0  0  0
  -27.3289  -21.1634   25.5491 N   0  0  0  0  0  0  0  0  0  0  0  0
  -27.9605  -24.1849   18.7233 N   0  0  0  0  0  0  0  0  0  0  0  0
  -24.7086  -29.5310   21.4265 N   0  0  0  0  0  0  0  0  0  0  0  0
  -30.1925  -16.3317   21.9520 N   0  0  0  0  0  0  0  0  0  0  0  0
  -21.2072  -29.7101   22.3071 N   0  3  0  0  0  0  0  0  0  0  0  0
  -26.2327  -19.5874   24.2473 O   0  0  0  0  0  0  0  0  0  0  0  0
  -22.0832  -13.6182   21.0731 O   0  0  0  0  0  0  0  0  0  0  0  0
  -28.2514  -25.4979   20.6244 O   0  0  0  0  0  0  0  0  0  0  0  0
  -26.0946  -28.2693   19.2595 O   0  0  0  0  0  0  0  0  0  0  0  0
  -23.6316  -28.6793   23.2951 O   0  0  0  0  0  0  0  0  0  0  0  0
  -31.2699  -17.0248   20.0505 O   0  0  0  0  0  0  0  0  0  0  0  0
  -25.2205   -6.7711   23.0379 O   0  0  0  0  0  0  0  0  0  0  0  0
  -24.4998  -22.1110   24.8623 O   0  0  0  0  0  0  0  0  0  1  0  0
  -29.1257   -5.2385   26.6162 F   0  0  0  0  0  0  0  0  0  0  0  0
  -24.5570   -5.9200   25.5831 F   0  0  0  0  0  0  0  0  0  0  0  0
  1  2  1  0  0  0  0
  1  7  2  0  0  0  0
  2  8  2  0  0  0  0
  3  6  2  0  0  0  0
  3 10  1  0  0  0  0
  4 11  2  0  0  0  0
  4 18  1  0  0  0  0
  5 12  1  0  0  0  0
  5 18  2  0  0  0  0
  6 19  1  0  0  0  0
  7 21  1  0  0  0  0
  8 23  1  0  0  0  0
  9 13  2  0  0  0  0
  9 22  1  0  0  0  0
 10 25  2  0  0  0  0
 11 27  1  0  0  0  0
 12 27  2  0  0  0  0
 13 28  1  0  0  0  0
 14 15  2  0  0  0  0
 14 29  1  0  0  0  0
 15 30  1  0  0  0  0
 16 24  1  0  0  0  0
 16 28  2  0  0  0  0
 17 30  2  0  0  0  0
 17 31  1  0  0  0  0
 18 32  1  0  0  0  0
 19 26  2  0  0  0  0
 19 34  1  0  0  0  0
 20 32  1  0  0  0  0
 20 33  2  0  0  0  0
 20 35  1  0  0  0  0
 21 23  2  0  0  0  0
 21 40  1  0  0  0  0
 22 24  2  0  0  0  0
 22 41  1  0  0  0  0
 23 49  1  0  0  0  0
 24 42  1  0  0  0  0
 25 26  1  0  0  0  0
 25 59  1  0  0  0  0
 26 52  1  0  0  0  0
 27 82  1  0  0  0  0
 28 83  1  0  0  0  0
 29 31  2  0  0  0  0
 29 82  1  0  0  0  0
 30 84  1  0  0  0  0
 31 85  1  0  0  0  0
 32 65  2  0  0  0  0
 33 66  1  0  0  0  0
 33 69  1  0  0  0  0
 34 71  1  0  0  0  0
 34 76  2  0  0  0  0
 35 70  1  0  0  0  0
 35 77  2  0  0  0  0
 36 50  1  0  0  0  0
 36 72  1  0  0  0  0
 36 78  2  0  0  0  0
 37 61  1  0  0  0  0
 37 67  1  0  0  0  0
 37 79  2  0  0  0  0
 38 62  1  0  0  0  0
 38 73  1  0  0  0  0
 38 80  2  0  0  0  0
 39 68  1  0  0  0  0
 39 74  1  0  0  0  0
 39 81  2  0  0  0  0
 40 43  1  0  0  0  0
 41 50  1  0  0  0  0
 42 67  1  0  0  0  0
 43 45  1  0  0  0  0
 44 46  1  0  0  0  0
 44 47  1  0  0  0  0
 45 49  1  0  0  0  0
 46 51  1  0  0  0  0
 47 68  1  0  0  0  0
 48 51  1  0  0  0  0
 48 68  1  0  0  0  0
 49 72  1  0  0  0  0
 50 67  1  0  0  0  0
 51 66  1  0  0  0  0
 53 62  1  0  0  0  0
 54 63  1  0  0  0  0
 55 64  1  0  0  0  0
 56 64  1  0  0  0  0
 57 64  1  0  0  0  0
 58 75  1  0  0  0  0
 59 74  1  0  0  0  0
 60 63  1  0  0  0  0
 60 71  1  0  0  0  0
 61 64  1  0  0  0  0
 61 73  1  0  0  0  0
 62 75  1  0  0  0  0
 63 83  1  0  0  0  0
 65 66  1  0  0  0  0
M  CHG  1  75   1
M  ISO  4  39 100  63 101  74 100  83 101
M  END
> <Batch ID>
0052

> <Smiles>
CNC(C)C(=O)NC(C(=O)N1Cc2cc([101O:1][101CH:1](C)CNC(=O)c3cccc(C[100NH:0][100C:0](=O)N4CCCC(n5nc(-c6ccc(Oc7ccc(F)cc7F)cc6)c(C(N)=O)c5N)C4)c3C)ccc2CC1C(=O)NC1CCCc2ccccc21)C(C)(C)C

> <Shape>
0.213

> <Color>
0.085

> <Negative vol penalty>
0.000

$$$$

  -OEChem-04042322403D

 83 91  0     1  0  0  0  0  0999 V2000
  -27.0701  -31.2316   23.9284 C   0  0  0  0  0  0  0  0  0  0  0  0
  -26.5832  -30.0171   24.4009 C   0  0  0  0  0  0  0  0  0  0  0  0
  -30.4647  -19.7631   19.2922 C   0  0  0  0  0  0  0  0  0  0  0  0
  -28.5890  -20.0418   20.7893 C   0  0  0  0  0  0  0  0  0  0  0  0
  -26.6757  -31.6994   22.6756 C   0  0  0  0  0  0  0  0  0  0  0  0
  -25.7007  -29.2702   23.6213 C   0  0  0  0  0  0  0  0  0  0  0  0
  -25.3560  -23.1655   23.2754 C   0  0  0  0  0  0  0  0  0  0  0  0
  -21.7011  -14.9714   21.6963 C   0  0  0  0  0  0  0  0  0  0  0  0
  -22.3397  -14.9383   24.0262 C   0  0  0  0  0  0  0  0  0  0  0  0
  -22.6757  -14.0138   21.4156 C   0  0  0  0  0  0  0  0  0  0  0  0
  -23.3143  -13.9807   23.7454 C   0  0  0  0  0  0  0  0  0  0  0  0
  -30.2121  -21.0196   18.7418 C   0  0  0  0  0  0  0  0  0  0  0  0
  -28.3364  -21.2983   20.2389 C   0  0  0  0  0  0  0  0  0  0  0  0
  -24.5151  -22.2373   23.8878 C   0  0  0  0  0  0  0  0  0  0  0  0
  -30.2812  -24.3062   17.1899 C   0  0  0  0  0  0  0  0  0  0  0  0
  -31.3691  -25.1546   16.9839 C   0  0  0  0  0  0  0  0  0  0  0  0
  -23.0950  -22.2463   21.9377 C   0  0  0  0  0  0  0  0  0  0  0  0
  -31.8571  -25.1031   19.3496 C   0  0  0  0  0  0  0  0  0  0  0  0
  -29.6531  -19.2741   20.3160 C   0  0  0  0  0  0  0  0  0  0  0  0
  -30.7443  -17.6794   21.9814 C   0  0  0  0  0  0  0  0  0  0  0  0
  -25.7955  -30.9533   21.8761 C   0  0  0  0  0  0  0  0  0  0  0  0
  -25.0664  -23.6501   21.9917 C   0  0  0  0  0  0  0  0  0  0  0  0
  -25.2931  -29.7291   22.3572 C   0  0  0  0  0  0  0  0  0  0  0  0
  -23.9353  -23.1786   21.3102 C   0  0  0  0  0  0  0  0  0  0  0  0
  -21.5332  -15.4337   23.0016 C   0  0  0  0  0  0  0  0  0  0  0  0
  -23.4823  -13.5185   22.4401 C   0  0  0  0  0  0  0  0  0  0  0  0
  -29.1480  -21.7872   19.2152 C   0  0  0  0  0  0  0  0  0  0  0  0
  -23.3828  -21.7797   23.2201 C   0  0  0  0  0  0  0  0  0  0  0  0
  -29.9812  -23.8563   18.4757 C   0  0  0  0  0  0  0  0  0  0  0  0
  -32.1570  -25.5530   18.0637 C   0  0  0  0  0  0  0  0  0  0  0  0
  -30.7692  -24.2548   19.5555 C   0  0  0  0  0  0  0  0  0  0  0  0
  -29.9132  -17.9760   20.8846 C   0  0  0  0  0  0  0  0  0  0  0  0
  -30.6533  -16.3162   22.1224 C   0  0  0  0  0  0  0  0  0  0  0  0
  -31.5285  -18.5576   22.7997 C   0  0  0  0  0  0  0  0  0  0  0  0
  -24.4163  -26.5107   20.7679 C   0  0  0  0  0  0  0  0  0  0  0  0
  -24.5479  -24.9048   17.9526 C   0  0  0  0  0  0  0  0  0  0  0  0
  -21.5782  -18.6674   23.6730 C   0  0  0  0  0  0  0  0  0  0  0  0
  -24.2849  -21.9314   16.2982 C   0  0  0  0  0  0  0  0  0  0  0  0
  -26.4560  -12.3300   20.5914 C   0  0  0  0  0  0  0  0  0  0  0  0
  -25.3608  -31.5225   20.5488 C   0  0  0  0  0  0  0  0  0  0  0  0
  -25.9980  -24.6310   21.3342 C   0  0  0  0  0  0  0  0  0  0  0  0
  -23.5909  -23.6523   19.9226 C   0  0  0  0  0  0  0  0  0  0  0  0
  -24.7158  -30.4917   19.6259 C   0  0  0  0  0  0  0  0  0  0  0  0
  -29.8723  -12.3335   19.5887 C   0  0  0  0  0  0  0  0  0  0  0  0
  -23.6906  -29.6591   20.3892 C   0  0  0  0  0  0  0  0  0  0  0  0
  -30.3452  -13.7533   19.9061 C   0  0  0  0  0  0  0  0  0  0  0  0
  -28.4282  -12.3174   19.0925 C   0  0  0  0  0  0  0  0  0  0  0  0
  -27.9338  -14.4099   20.2971 C   0  0  0  0  0  0  0  0  0  0  0  0
  -24.3536  -28.8783   21.5304 C   0  0  1  0  0  0  0  0  0  0  0  0
  -25.3279  -25.4439   20.2308 C   0  0  1  0  0  0  0  0  0  0  0  0
  -29.3663  -14.4715   20.8543 C   0  0  2  0  0  0  0  0  0  0  0  0
  -24.4064  -20.9407   13.9958 C   0  0  0  0  0  0  0  0  0  0  0  0
  -21.7818  -26.0296   17.3253 C   0  0  0  0  0  0  0  0  0  0  0  0
  -21.5623  -24.2997   15.5287 C   0  0  0  0  0  0  0  0  0  0  0  0
  -23.3662  -26.0171   15.3904 C   0  0  0  0  0  0  0  0  0  0  0  0
  -26.5604  -20.1909   17.0412 C   0  0  0  0  0  0  0  0  0  0  0  0
  -20.4843  -16.4644   23.3047 C   0  0  0  0  0  0  0  0  0  0  0  0
  -24.5230  -12.4933   22.1394 C   0  0  0  0  0  0  0  0  0  0  0  0
  -21.8578  -19.9734   22.9604 C   0  0  0  0  0  0  0  0  0  1  0  0
  -23.5496  -24.1617   17.0980 C   0  0  1  0  0  0  0  0  0  0  0  0
  -25.1786  -21.2721   15.2633 C   0  0  2  0  0  0  0  0  0  0  0  0
  -22.5701  -25.1194   16.3625 C   0  0  0  0  0  0  0  0  0  0  0  0
  -29.3367  -16.8887   20.3655 N   0  0  0  0  0  0  0  0  0  0  0  0
  -29.8064  -15.8955   21.1395 N   0  0  0  0  0  0  0  0  0  0  0  0
  -24.5293  -24.6163   19.3245 N   0  0  0  0  0  0  0  0  0  0  0  0
  -27.5513  -13.0130   20.0376 N   0  0  0  0  0  0  0  0  0  0  0  0
  -31.2159  -15.4483   22.9900 N   0  0  0  0  0  0  0  0  0  0  0  0
  -31.5078  -19.9302   22.5171 N   0  0  0  0  0  0  0  0  0  0  0  0
  -25.0447  -27.7167   21.0133 N   0  0  0  0  0  0  0  0  0  0  0  0
  -20.8796  -17.7829   22.8663 N   0  0  0  0  0  0  0  0  0  0  0  0
  -24.3294  -23.3067   16.2095 N   0  0  0  0  0  0  0  0  0  0  0  0
  -25.6798  -13.0605   21.4829 N   0  0  0  0  0  0  0  0  0  0  0  0
  -25.7553  -20.0095   15.8059 N   0  3  0  0  0  0  0  0  0  0  0  0
  -32.2397  -18.1356   23.7429 O   0  0  0  0  0  0  0  0  0  0  0  0
  -23.2301  -26.2589   20.9450 O   0  0  0  0  0  0  0  0  0  0  0  0
  -25.3206  -25.7062   17.4213 O   0  0  0  0  0  0  0  0  0  0  0  0
  -21.9386  -18.4496   24.8265 O   0  0  0  0  0  0  0  0  0  0  0  0
  -23.6117  -21.2905   17.1023 O   0  0  0  0  0  0  0  0  0  0  0  0
  -26.1926  -11.1544   20.3163 O   0  0  0  0  0  0  0  0  0  0  0  0
  -28.9014  -23.0135   18.6785 O   0  0  0  0  0  0  0  0  0  0  0  0
  -22.5600  -20.8742   23.8158 O   0  0  0  0  0  0  0  0  0  1  0  0
  -33.2026  -26.3665   17.8656 F   0  0  0  0  0  0  0  0  0  0  0  0
  -30.4867  -23.8249   20.7930 F   0  0  0  0  0  0  0  0  0  0  0  0
  1  2  1  0  0  0  0
  1  5  2  0  0  0  0
  2  6  2  0  0  0  0
  3 12  2  0  0  0  0
  3 19  1  0  0  0  0
  4 13  1  0  0  0  0
  4 19  2  0  0  0  0
  5 21  1  0  0  0  0
  6 23  1  0  0  0  0
  7 14  2  0  0  0  0
  7 22  1  0  0  0  0
  8 10  2  0  0  0  0
  8 25  1  0  0  0  0
  9 11  1  0  0  0  0
  9 25  2  0  0  0  0
 10 26  1  0  0  0  0
 11 26  2  0  0  0  0
 12 27  1  0  0  0  0
 13 27  2  0  0  0  0
 14 28  1  0  0  0  0
 15 16  2  0  0  0  0
 15 29  1  0  0  0  0
 16 30  1  0  0  0  0
 17 24  1  0  0  0  0
 17 28  2  0  0  0  0
 18 30  2  0  0  0  0
 18 31  1  0  0  0  0
 19 32  1  0  0  0  0
 20 32  1  0  0  0  0
 20 33  2  0  0  0  0
 20 34  1  0  0  0  0
 21 23  2  0  0  0  0
 21 40  1  0  0  0  0
 22 24  2  0  0  0  0
 22 41  1  0  0  0  0
 23 49  1  0  0  0  0
 24 42  1  0  0  0  0
 25 57  1  0  0  0  0
 26 58  1  0  0  0  0
 27 80  1  0  0  0  0
 28 81  1  0  0  0  0
 29 31  2  0  0  0  0
 29 80  1  0  0  0  0
 30 82  1  0  0  0  0
 31 83  1  0  0  0  0
 32 63  2  0  0  0  0
 33 64  1  0  0  0  0
 33 67  1  0  0  0  0
 34 68  1  0  0  0  0
 34 74  2  0  0  0  0
 35 50  1  0  0  0  0
 35 69  1  0  0  0  0
 35 75  2  0  0  0  0
 36 60  1  0  0  0  0
 36 65  1  0  0  0  0
 36 76  2  0  0  0  0
 37 59  1  0  0  0  0
 37 70  1  0  0  0  0
 37 77  2  0  0  0  0
 38 61  1  0  0  0  0
 38 71  1  0  0  0  0
 38 78  2  0  0  0  0
 39 66  1  0  0  0  0
 39 72  1  0  0  0  0
 39 79  2  0  0  0  0
 40 43  1  0  0  0  0
 41 50  1  0  0  0  0
 42 65  1  0  0  0  0
 43 45  1  0  0  0  0
 44 46  1  0  0  0  0
 44 47  1  0  0  0  0
 45 49  1  0  0  0  0
 46 51  1  0  0  0  0
 47 66  1  0  0  0  0
 48 51  1  0  0  0  0
 48 66  1  0  0  0  0
 49 69  1  0  0  0  0
 50 65  1  0  0  0  0
 51 64  1  0  0  0  0
 52 61  1  0  0  0  0
 53 62  1  0  0  0  0
 54 62  1  0  0  0  0
 55 62  1  0  0  0  0
 56 73  1  0  0  0  0
 57 70  1  0  0  0  0
 58 72  1  0  0  0  0
 59 81  1  0  0  0  0
 60 62  1  0  0  0  0
 60 71  1  0  0  0  0
 61 73  1  0  0  0  0
 63 64  1  0  0  0  0
M  CHG  1  73   1
M  ISO  4  39 100  59 101  72 100  81 101
M  END
> <Batch ID>
0052

> <Smiles>
CNC(C)C(=O)NC(C(=O)N1Cc2cc([101O:1][101CH2:1]C(=O)NCc3ccc(C[100NH:0][100C:0](=O)N4CCCC(n5nc(-c6ccc(Oc7ccc(F)cc7F)cc6)c(C(N)=O)c5N)C4)cc3)ccc2CC1C(=O)NC1CCCc2ccccc21)C(C)(C)C

> <Shape>
0.220

> <Color>
0.064

> <Negative vol penalty>
0.000

$$$$

  -OEChem-04042322403D

 87 96  0     1  0  0  0  0  0999 V2000
  -25.1063  -35.5126   22.7772 C   0  0  0  0  0  0  0  0  0  0  0  0
  -25.8148  -34.3283   22.6019 C   0  0  0  0  0  0  0  0  0  0  0  0
  -24.7864  -12.8953   23.2498 C   0  0  0  0  0  0  0  0  0  0  0  0
  -23.7987  -12.2685   21.1359 C   0  0  0  0  0  0  0  0  0  0  0  0
  -23.8147  -35.4798   23.3014 C   0  0  0  0  0  0  0  0  0  0  0  0
  -25.2325  -33.1105   22.9516 C   0  0  0  0  0  0  0  0  0  0  0  0
  -25.9457  -29.5356   19.4365 C   0  0  0  0  0  0  0  0  0  0  0  0
  -24.6053  -11.5947   23.7202 C   0  0  0  0  0  0  0  0  0  0  0  0
  -23.6176  -10.9679   21.6062 C   0  0  0  0  0  0  0  0  0  0  0  0
  -27.1957  -28.9191   19.3998 C   0  0  0  0  0  0  0  0  0  0  0  0
  -21.4521   -9.3245   23.6163 C   0  0  0  0  0  0  0  0  0  0  0  0
  -20.2213   -8.7138   23.3757 C   0  0  0  0  0  0  0  0  0  0  0  0
  -26.2944  -27.0333   20.6040 C   0  0  0  0  0  0  0  0  0  0  0  0
  -29.6801  -22.6259   21.6870 C   0  0  0  0  0  0  0  0  0  0  0  0
  -30.3761  -21.3110   19.3271 C   0  0  0  0  0  0  0  0  0  0  0  0
  -21.3324   -6.9634   22.1352 C   0  0  0  0  0  0  0  0  0  0  0  0
  -24.3831  -13.2323   21.9577 C   0  0  0  0  0  0  0  0  0  0  0  0
  -24.0306  -15.7582   22.0132 C   0  0  0  0  0  0  0  0  0  0  0  0
  -23.2127  -34.2602   23.6487 C   0  0  0  0  0  0  0  0  0  0  0  0
  -24.8615  -28.9092   20.0679 C   0  0  0  0  0  0  0  0  0  0  0  0
  -23.9322  -33.0615   23.4822 C   0  0  0  0  0  0  0  0  0  0  0  0
  -25.0310  -27.6427   20.6452 C   0  0  0  0  0  0  0  0  0  0  0  0
  -30.8413  -22.9870   21.0038 C   0  0  0  0  0  0  0  0  0  0  0  0
  -28.8669  -21.6072   21.1903 C   0  0  0  0  0  0  0  0  0  0  0  0
  -31.1893  -22.3296   19.8239 C   0  0  0  0  0  0  0  0  0  0  0  0
  -29.2149  -20.9498   20.0103 C   0  0  0  0  0  0  0  0  0  0  0  0
  -24.0209  -10.6310   22.8984 C   0  0  0  0  0  0  0  0  0  0  0  0
  -27.3709  -27.6691   19.9861 C   0  0  0  0  0  0  0  0  0  0  0  0
  -22.6230   -8.7547   23.1164 C   0  0  0  0  0  0  0  0  0  0  0  0
  -20.1615   -7.5333   22.6351 C   0  0  0  0  0  0  0  0  0  0  0  0
  -22.5632   -7.5741   22.3759 C   0  0  0  0  0  0  0  0  0  0  0  0
  -24.5694  -14.5758   21.4715 C   0  0  0  0  0  0  0  0  0  0  0  0
  -24.5007  -16.7561   21.1947 C   0  0  0  0  0  0  0  0  0  0  0  0
  -30.2919  -25.9664   22.2970 C   0  0  0  0  0  0  0  0  0  0  0  0
  -23.1813  -15.9385   23.1542 C   0  0  0  0  0  0  0  0  0  0  0  0
  -22.9949  -29.6130   22.5426 C   0  0  0  0  0  0  0  0  0  0  0  0
  -21.3855  -26.9651   21.5831 C   0  0  0  0  0  0  0  0  0  0  0  0
  -22.2205  -23.6637   20.3911 C   0  0  0  0  0  0  0  0  0  0  0  0
  -28.6195  -19.1703   18.3295 C   0  0  0  0  0  0  0  0  0  0  0  0
  -21.8322  -34.2789   24.2558 C   0  0  0  0  0  0  0  0  0  0  0  0
  -23.5131  -29.5756   20.0756 C   0  0  0  0  0  0  0  0  0  0  0  0
  -23.8941  -26.9191   21.3177 C   0  0  0  0  0  0  0  0  0  0  0  0
  -29.7740  -27.3700   22.0328 C   0  0  0  0  0  0  0  0  0  0  0  0
  -21.1462  -32.9152   24.2513 C   0  0  0  0  0  0  0  0  0  0  0  0
  -26.8740  -16.5106   16.7306 C   0  0  0  0  0  0  0  0  0  0  0  0
  -22.1030  -31.8347   24.7451 C   0  0  0  0  0  0  0  0  0  0  0  0
  -26.0745  -15.8674   17.8660 C   0  0  0  0  0  0  0  0  0  0  0  0
  -30.9681  -27.4205   19.8549 C   0  0  0  0  0  0  0  0  0  0  0  0
  -28.2466  -16.9872   17.2026 C   0  0  0  0  0  0  0  0  0  0  0  0
  -31.2734  -25.9377   19.9779 C   0  0  0  0  0  0  0  0  0  0  0  0
  -27.4284  -17.2228   19.5144 C   0  0  0  0  0  0  0  0  0  0  0  0
  -23.3254  -31.7186   23.8265 C   0  0  1  0  0  0  0  0  0  0  0  0
  -22.6055  -29.0747   21.1949 C   0  0  1  0  0  0  0  0  0  0  0  0
  -26.0132  -16.7855   19.1025 C   0  0  2  0  0  0  0  0  0  0  0  0
  -29.6726  -27.7560   20.5684 C   0  0  1  0  0  0  0  0  0  1  0  0
  -27.6288  -21.2413   21.9427 C   0  0  0  0  0  0  0  0  0  0  0  0
  -32.4279  -22.6989   19.0755 C   0  0  0  0  0  0  0  0  0  0  0  0
  -20.9427  -22.0926   18.9091 C   0  0  0  0  0  0  0  0  0  0  0  0
  -20.3594  -25.7879   24.2044 C   0  0  0  0  0  0  0  0  0  0  0  0
  -20.5111  -23.5163   23.1628 C   0  0  0  0  0  0  0  0  0  0  0  0
  -18.9758  -25.2291   22.1975 C   0  0  0  0  0  0  0  0  0  0  0  0
  -24.4777  -23.4362   18.4905 C   0  0  0  0  0  0  0  0  0  0  0  0
  -31.7011  -24.0861   21.5579 C   0  0  0  0  0  0  0  0  0  0  0  0
  -21.4721  -25.4903   21.8937 C   0  0  1  0  0  0  0  0  0  0  0  0
  -22.0464  -23.1366   18.9782 C   0  0  2  0  0  0  0  0  0  0  0  0
  -20.3525  -25.0228   22.8660 C   0  0  0  0  0  0  0  0  0  0  0  0
  -25.3238  -14.8000   20.3924 N   0  0  0  0  0  0  0  0  0  0  0  0
  -25.2624  -16.1348   20.2492 N   0  0  0  0  0  0  0  0  0  0  0  0
  -31.1188  -25.4019   21.3290 N   0  0  0  0  0  0  0  0  0  0  0  0
  -22.5965  -27.6146   21.3047 N   0  0  0  0  0  0  0  0  0  0  0  0
  -28.1095  -17.8555   18.3740 N   0  0  0  0  0  0  0  0  0  0  0  0
  -24.3325  -18.0955   21.1988 N   0  0  0  0  0  0  0  0  0  0  0  0
  -22.7927  -14.8064   23.8834 N   0  0  0  0  0  0  0  0  0  0  0  0
  -28.4018  -19.9127   19.4896 N   0  0  0  0  0  0  0  0  0  0  0  0
  -22.9851  -30.9926   22.6217 N   0  0  0  0  0  0  0  0  0  0  0  0
  -21.4725  -24.8016   20.6075 N   0  0  0  0  0  0  0  0  0  0  0  0
  -23.3125  -22.5146   18.4977 N   0  3  0  0  0  0  0  0  0  0  0  0
  -30.0242  -25.4273   23.3750 O   0  0  0  0  0  0  0  0  0  0  0  0
  -22.7656  -17.0683   23.5067 O   0  0  0  0  0  0  0  0  0  0  0  0
  -23.2815  -28.8344   23.4444 O   0  0  0  0  0  0  0  0  0  0  0  0
  -20.2833  -27.5189   21.5803 O   0  0  0  0  0  0  0  0  0  0  0  0
  -22.9445  -23.1182   21.2210 O   0  0  0  0  0  0  0  0  0  0  0  0
  -29.1820  -19.6146   17.3254 O   0  0  0  0  0  0  0  0  0  0  0  0
  -23.8442   -9.3617   23.3569 O   0  0  0  0  0  0  0  0  0  0  0  0
  -28.5900  -27.0655   19.9522 O   0  0  0  0  0  0  0  0  0  1  0  0
  -18.9797   -6.9462   22.4054 F   0  0  0  0  0  0  0  0  0  0  0  0
  -23.6848   -7.0213   21.8940 F   0  0  0  0  0  0  0  0  0  0  0  0
  1  2  1  0  0  0  0
  1  5  2  0  0  0  0
  2  6  2  0  0  0  0
  3  8  2  0  0  0  0
  3 17  1  0  0  0  0
  4  9  1  0  0  0  0
  4 17  2  0  0  0  0
  5 19  1  0  0  0  0
  6 21  1  0  0  0  0
  7 10  2  0  0  0  0
  7 20  1  0  0  0  0
  8 27  1  0  0  0  0
  9 27  2  0  0  0  0
 10 28  1  0  0  0  0
 11 12  2  0  0  0  0
 11 29  1  0  0  0  0
 12 30  1  0  0  0  0
 13 22  1  0  0  0  0
 13 28  2  0  0  0  0
 14 23  1  0  0  0  0
 14 24  2  0  0  0  0
 15 25  1  0  0  0  0
 15 26  2  0  0  0  0
 16 30  2  0  0  0  0
 16 31  1  0  0  0  0
 17 32  1  0  0  0  0
 18 32  1  0  0  0  0
 18 33  2  0  0  0  0
 18 35  1  0  0  0  0
 19 21  2  0  0  0  0
 19 40  1  0  0  0  0
 20 22  2  0  0  0  0
 20 41  1  0  0  0  0
 21 52  1  0  0  0  0
 22 42  1  0  0  0  0
 23 25  2  0  0  0  0
 23 63  1  0  0  0  0
 24 26  1  0  0  0  0
 24 56  1  0  0  0  0
 25 57  1  0  0  0  0
 26 74  1  0  0  0  0
 27 84  1  0  0  0  0
 28 85  1  0  0  0  0
 29 31  2  0  0  0  0
 29 84  1  0  0  0  0
 30 86  1  0  0  0  0
 31 87  1  0  0  0  0
 32 67  2  0  0  0  0
 33 68  1  0  0  0  0
 33 72  1  0  0  0  0
 34 43  1  0  0  0  0
 34 69  1  0  0  0  0
 34 78  2  0  0  0  0
 35 73  1  0  0  0  0
 35 79  2  0  0  0  0
 36 53  1  0  0  0  0
 36 75  1  0  0  0  0
 36 80  2  0  0  0  0
 37 64  1  0  0  0  0
 37 70  1  0  0  0  0
 37 81  2  0  0  0  0
 38 65  1  0  0  0  0
 38 76  1  0  0  0  0
 38 82  2  0  0  0  0
 39 71  1  0  0  0  0
 39 74  1  0  0  0  0
 39 83  2  0  0  0  0
 40 44  1  0  0  0  0
 41 53  1  0  0  0  0
 42 70  1  0  0  0  0
 43 55  1  0  0  0  0
 44 46  1  0  0  0  0
 45 47  1  0  0  0  0
 45 49  1  0  0  0  0
 46 52  1  0  0  0  0
 47 54  1  0  0  0  0
 48 50  1  0  0  0  0
 48 55  1  0  0  0  0
 49 71  1  0  0  0  0
 50 69  1  0  0  0  0
 51 54  1  0  0  0  0
 51 71  1  0  0  0  0
 52 75  1  0  0  0  0
 53 70  1  0  0  0  0
 54 68  1  0  0  0  0
 55 85  1  0  0  0  0
 58 65  1  0  0  0  0
 59 66  1  0  0  0  0
 60 66  1  0  0  0  0
 61 66  1  0  0  0  0
 62 77  1  0  0  0  0
 63 69  1  0  0  0  0
 64 66  1  0  0  0  0
 64 76  1  0  0  0  0
 65 77  1  0  0  0  0
 67 68  1  0  0  0  0
M  CHG  1  77   1
M  ISO  4  39 100  55 101  74 100  85 101
M  END
> <Batch ID>
0052

> <Smiles>
CNC(C)C(=O)NC(C(=O)N1Cc2cc([101O:1][101CH:1]3CCN(Cc4cc(C)c([100NH:0][100C:0](=O)N5CCCC(n6nc(-c7ccc(Oc8ccc(F)cc8F)cc7)c(C(N)=O)c6N)C5)cc4C)C(=O)C3)ccc2CC1C(=O)NC1CCCc2ccccc21)C(C)(C)C

> <Shape>
0.246

> <Color>
0.071

> <Negative vol penalty>
0.000

$$$$

  -OEChem-04042322403D

 87 95  0     1  0  0  0  0  0999 V2000
  -23.2007  -10.3977   18.5681 C   0  0  0  0  0  0  0  0  0  0  0  0
  -22.4561  -11.5714   18.6265 C   0  0  0  0  0  0  0  0  0  0  0  0
  -28.9411  -26.5709   19.1464 C   0  0  0  0  0  0  0  0  0  0  0  0
  -28.4502  -26.4289   21.5077 C   0  0  0  0  0  0  0  0  0  0  0  0
  -24.4047  -10.3020   19.2646 C   0  0  0  0  0  0  0  0  0  0  0  0
  -22.9146  -12.6498   19.3823 C   0  0  0  0  0  0  0  0  0  0  0  0
  -22.9088  -19.8129   19.4655 C   0  0  0  0  0  0  0  0  0  0  0  0
  -18.7271  -26.6885   24.1080 C   0  0  0  0  0  0  0  0  0  0  0  0
  -30.2871  -26.7902   19.4393 C   0  0  0  0  0  0  0  0  0  0  0  0
  -29.7963  -26.6482   21.8007 C   0  0  0  0  0  0  0  0  0  0  0  0
  -22.5975  -20.8800   20.3070 C   0  0  0  0  0  0  0  0  0  0  0  0
  -33.1636  -26.8115   23.1618 C   0  0  0  0  0  0  0  0  0  0  0  0
  -33.7574  -26.0025   24.1305 C   0  0  0  0  0  0  0  0  0  0  0  0
  -17.4454  -27.0504   23.6936 C   0  0  0  0  0  0  0  0  0  0  0  0
  -24.7309  -20.6287   21.4047 C   0  0  0  0  0  0  0  0  0  0  0  0
  -18.2746  -29.2180   23.0219 C   0  0  0  0  0  0  0  0  0  0  0  0
  -33.2571  -24.0464   22.8037 C   0  0  0  0  0  0  0  0  0  0  0  0
  -28.0227  -26.3903   20.1806 C   0  0  0  0  0  0  0  0  0  0  0  0
  -25.9975  -24.9247   19.6723 C   0  0  0  0  0  0  0  0  0  0  0  0
  -24.8830  -11.3832   20.0215 C   0  0  0  0  0  0  0  0  0  0  0  0
  -24.1309  -19.1375   19.5947 C   0  0  0  0  0  0  0  0  0  0  0  0
  -24.1255  -12.5680   20.0906 C   0  0  0  0  0  0  0  0  0  0  0  0
  -25.0563  -19.5550   20.5619 C   0  0  0  0  0  0  0  0  0  0  0  0
  -19.7826  -27.5913   23.9795 C   0  0  0  0  0  0  0  0  0  0  0  0
  -19.5564  -28.8560   23.4365 C   0  0  0  0  0  0  0  0  0  0  0  0
  -30.7147  -26.8288   20.7664 C   0  0  0  0  0  0  0  0  0  0  0  0
  -23.5074  -21.2862   21.2787 C   0  0  0  0  0  0  0  0  0  0  0  0
  -32.6165  -26.2380   22.0139 C   0  0  0  0  0  0  0  0  0  0  0  0
  -33.8042  -24.6200   23.9515 C   0  0  0  0  0  0  0  0  0  0  0  0
  -32.6633  -24.8555   21.8349 C   0  0  0  0  0  0  0  0  0  0  0  0
  -17.2191  -28.3151   23.1505 C   0  0  0  0  0  0  0  0  0  0  0  0
  -26.6320  -26.1643   19.8786 C   0  0  0  0  0  0  0  0  0  0  0  0
  -24.6866  -25.2477   19.4201 C   0  0  0  0  0  0  0  0  0  0  0  0
  -21.1404  -24.3099   24.0220 C   0  0  0  0  0  0  0  0  0  0  0  0
  -21.7223  -23.1279   23.7751 C   0  0  0  0  0  0  0  0  0  0  0  0
  -26.5441  -23.5996   19.7058 C   0  0  0  0  0  0  0  0  0  0  0  0
  -21.0954  -24.8410   25.4151 C   0  0  0  0  0  0  0  0  0  0  0  0
  -24.9834  -16.1563   20.2941 C   0  0  0  0  0  0  0  0  0  0  0  0
  -27.9535  -17.2546   19.5910 C   0  0  0  0  0  0  0  0  0  0  0  0
  -30.0728  -19.9174   19.3366 C   0  0  0  0  0  0  0  0  0  0  0  0
  -21.2919  -29.9557   20.8905 C   0  0  0  0  0  0  0  0  0  0  0  0
  -26.1667  -11.2160   20.7954 C   0  0  0  0  0  0  0  0  0  0  0  0
  -24.4628  -18.0055   18.6615 C   0  0  0  0  0  0  0  0  0  0  0  0
  -26.3905  -18.8762   20.7280 C   0  0  0  0  0  0  0  0  0  0  0  0
  -26.7677  -12.5363   21.2706 C   0  0  0  0  0  0  0  0  0  0  0  0
  -21.9745  -28.7495   17.6109 C   0  0  0  0  0  0  0  0  0  0  0  0
  -25.6923  -13.4170   21.8990 C   0  0  0  0  0  0  0  0  0  0  0  0
  -23.1883  -27.8383   17.8016 C   0  0  0  0  0  0  0  0  0  0  0  0
  -22.0351  -29.9695   18.5275 C   0  0  0  0  0  0  0  0  0  0  0  0
  -23.4346  -28.7497   20.1484 C   0  0  0  0  0  0  0  0  0  0  0  0
  -24.6019  -13.7683   20.8796 C   0  0  1  0  0  0  0  0  0  0  0  0
  -25.5214  -17.0604   19.2214 C   0  0  1  0  0  0  0  0  0  0  0  0
  -23.3907  -27.4770   19.2854 C   0  0  2  0  0  0  0  0  0  0  0  0
  -32.4491  -20.4973   18.7759 C   0  0  0  0  0  0  0  0  0  0  0  0
  -28.8485  -16.2094   22.3143 C   0  0  0  0  0  0  0  0  0  0  0  0
  -30.9046  -17.6223   22.1032 C   0  0  0  0  0  0  0  0  0  0  0  0
  -30.4707  -15.8003   20.4554 C   0  0  0  0  0  0  0  0  0  0  0  0
  -21.0886  -26.8266   26.8759 C   0  0  0  0  0  0  0  0  0  0  0  0
  -29.2431  -21.6175   17.0605 C   0  0  0  0  0  0  0  0  0  0  0  0
  -21.1534  -27.1799   24.4333 C   0  0  0  0  0  0  0  0  0  0  0  0
  -20.6707  -29.8398   23.2905 C   0  0  0  0  0  0  0  0  0  0  0  0
  -21.8275  -22.5359   22.4066 C   0  0  0  0  0  0  0  0  0  1  0  0
  -29.0678  -17.9021   20.3772 C   0  0  1  0  0  0  0  0  0  0  0  0
  -31.0348  -20.3380   18.2401 C   0  0  2  0  0  0  0  0  0  0  0  0
  -29.7970  -16.8953   21.3109 C   0  0  0  0  0  0  0  0  0  0  0  0
  -25.7933  -27.1978   19.7669 N   0  0  0  0  0  0  0  0  0  0  0  0
  -24.6183  -26.6082   19.4876 N   0  0  0  0  0  0  0  0  0  0  0  0
  -26.6660  -17.7705   19.7958 N   0  0  0  0  0  0  0  0  0  0  0  0
  -22.2265  -29.5579   19.9203 N   0  0  0  0  0  0  0  0  0  0  0  0
  -23.5971  -24.4979   19.1493 N   0  0  0  0  0  0  0  0  0  0  0  0
  -27.9101  -23.4471   19.9799 N   0  0  0  0  0  0  0  0  0  0  0  0
  -25.0612  -14.8112   19.9874 N   0  0  0  0  0  0  0  0  0  0  0  0
  -29.9368  -18.5467   19.3986 N   0  0  0  0  0  0  0  0  0  0  0  0
  -21.5448  -29.5175   22.1847 N   0  0  0  0  0  0  0  0  0  0  0  0
  -21.1001  -26.2327   25.5453 N   0  0  0  0  0  0  0  0  0  0  0  0
  -30.6080  -21.6367   17.6467 N   0  3  0  0  0  0  0  0  0  0  0  0
  -25.8454  -22.5820   19.4827 O   0  0  0  0  0  0  0  0  0  0  0  0
  -21.0818  -24.0592   26.3671 O   0  0  0  0  0  0  0  0  0  0  0  0
  -24.5324  -16.6430   21.3244 O   0  0  0  0  0  0  0  0  0  0  0  0
  -28.2169  -16.3300   18.8181 O   0  0  0  0  0  0  0  0  0  0  0  0
  -29.5022  -20.7240   20.0676 O   0  0  0  0  0  0  0  0  0  0  0  0
  -20.3024  -30.6456   20.6223 O   0  0  0  0  0  0  0  0  0  0  0  0
  -32.0280  -27.0426   21.0527 O   0  0  0  0  0  0  0  0  0  0  0  0
  -23.2059  -22.3271   22.1018 O   0  0  0  0  0  0  0  0  0  1  0  0
  -34.3758  -23.8434   24.8812 F   0  0  0  0  0  0  0  0  0  0  0  0
  -32.1405  -24.2988   20.7337 F   0  0  0  0  0  0  0  0  0  0  0  0
  -15.6375  -28.7618   22.6410 Cl  0  0  0  0  0  0  0  0  0  0  0  0
  1  2  1  0  0  0  0
  1  5  2  0  0  0  0
  2  6  2  0  0  0  0
  3  9  2  0  0  0  0
  3 18  1  0  0  0  0
  4 10  1  0  0  0  0
  4 18  2  0  0  0  0
  5 20  1  0  0  0  0
  6 22  1  0  0  0  0
  7 11  2  0  0  0  0
  7 21  1  0  0  0  0
  8 14  2  0  0  0  0
  8 24  1  0  0  0  0
  9 26  1  0  0  0  0
 10 26  2  0  0  0  0
 11 27  1  0  0  0  0
 12 13  2  0  0  0  0
 12 28  1  0  0  0  0
 13 29  1  0  0  0  0
 14 31  1  0  0  0  0
 15 23  1  0  0  0  0
 15 27  2  0  0  0  0
 16 25  1  0  0  0  0
 16 31  2  0  0  0  0
 17 29  2  0  0  0  0
 17 30  1  0  0  0  0
 18 32  1  0  0  0  0
 19 32  1  0  0  0  0
 19 33  2  0  0  0  0
 19 36  1  0  0  0  0
 20 22  2  0  0  0  0
 20 42  1  0  0  0  0
 21 23  2  0  0  0  0
 21 43  1  0  0  0  0
 22 51  1  0  0  0  0
 23 44  1  0  0  0  0
 24 25  2  0  0  0  0
 24 60  1  0  0  0  0
 25 61  1  0  0  0  0
 26 83  1  0  0  0  0
 27 84  1  0  0  0  0
 28 30  2  0  0  0  0
 28 83  1  0  0  0  0
 29 85  1  0  0  0  0
 30 86  1  0  0  0  0
 31 87  1  0  0  0  0
 32 66  2  0  0  0  0
 33 67  1  0  0  0  0
 33 70  1  0  0  0  0
 34 35  2  0  0  0  0
 34 37  1  0  0  0  0
 35 62  1  0  0  0  0
 36 71  1  0  0  0  0
 36 77  2  0  0  0  0
 37 75  1  0  0  0  0
 37 78  2  0  0  0  0
 38 52  1  0  0  0  0
 38 72  1  0  0  0  0
 38 79  2  0  0  0  0
 39 63  1  0  0  0  0
 39 68  1  0  0  0  0
 39 80  2  0  0  0  0
 40 64  1  0  0  0  0
 40 73  1  0  0  0  0
 40 81  2  0  0  0  0
 41 69  1  0  0  0  0
 41 74  1  0  0  0  0
 41 82  2  0  0  0  0
 42 45  1  0  0  0  0
 43 52  1  0  0  0  0
 44 68  1  0  0  0  0
 45 47  1  0  0  0  0
 46 48  1  0  0  0  0
 46 49  1  0  0  0  0
 47 51  1  0  0  0  0
 48 53  1  0  0  0  0
 49 69  1  0  0  0  0
 50 53  1  0  0  0  0
 50 69  1  0  0  0  0
 51 72  1  0  0  0  0
 52 68  1  0  0  0  0
 53 67  1  0  0  0  0
 54 64  1  0  0  0  0
 55 65  1  0  0  0  0
 56 65  1  0  0  0  0
 57 65  1  0  0  0  0
 58 75  1  0  0  0  0
 59 76  1  0  0  0  0
 60 75  1  0  0  0  0
 61 74  1  0  0  0  0
 62 84  1  0  0  0  0
 63 65  1  0  0  0  0
 63 73  1  0  0  0  0
 64 76  1  0  0  0  0
 66 67  1  0  0  0  0
M  CHG  1  76   1
M  ISO  4  41 100  62 101  74 100  84 101
M  END
> <Batch ID>
0052

> <Smiles>
CNC(C)C(=O)NC(C(=O)N1Cc2cc([101O:1][101CH2:1]C=CC(=O)N(C)Cc3ccc(Cl)cc3C[100NH:0][100C:0](=O)N3CCCC(n4nc(-c5ccc(Oc6ccc(F)cc6F)cc5)c(C(N)=O)c4N)C3)ccc2CC1C(=O)NC1CCCc2ccccc21)C(C)(C)C

> <Shape>
0.212

> <Color>
0.071

> <Negative vol penalty>
0.000

$$$$

  -OEChem-04042322403D

 86 94  0     1  0  0  0  0  0999 V2000
  -19.7343  -13.6168   19.4960 C   0  0  0  0  0  0  0  0  0  0  0  0
  -20.2128  -14.9092   19.3057 C   0  0  0  0  0  0  0  0  0  0  0  0
  -20.0076  -27.7614   23.7751 C   0  0  0  0  0  0  0  0  0  0  0  0
  -20.1367  -26.5293   21.7008 C   0  0  0  0  0  0  0  0  0  0  0  0
  -20.4354  -12.7280   20.3099 C   0  0  0  0  0  0  0  0  0  0  0  0
  -21.3921  -15.3139   19.9301 C   0  0  0  0  0  0  0  0  0  0  0  0
  -27.0583  -19.5812   18.9300 C   0  0  0  0  0  0  0  0  0  0  0  0
  -30.5260  -25.5357   18.4621 C   0  0  0  0  0  0  0  0  0  0  0  0
  -18.6190  -27.6300   23.7668 C   0  0  0  0  0  0  0  0  0  0  0  0
  -18.7480  -26.3979   21.6925 C   0  0  0  0  0  0  0  0  0  0  0  0
  -27.7654  -20.5997   19.5675 C   0  0  0  0  0  0  0  0  0  0  0  0
  -16.0695  -28.3078   20.9123 C   0  0  0  0  0  0  0  0  0  0  0  0
  -31.1882  -26.2093   17.4358 C   0  0  0  0  0  0  0  0  0  0  0  0
  -15.4028  -28.5498   19.7113 C   0  0  0  0  0  0  0  0  0  0  0  0
  -28.9344  -18.9536   20.8877 C   0  0  0  0  0  0  0  0  0  0  0  0
  -29.9342  -28.2116   17.9409 C   0  0  0  0  0  0  0  0  0  0  0  0
  -14.5418  -26.2925   19.7344 C   0  0  0  0  0  0  0  0  0  0  0  0
  -20.7665  -27.2111   22.7421 C   0  0  0  0  0  0  0  0  0  0  0  0
  -23.1350  -26.4679   23.3299 C   0  0  0  0  0  0  0  0  0  0  0  0
  -21.6290  -13.1189   20.9368 C   0  0  0  0  0  0  0  0  0  0  0  0
  -27.2765  -18.2396   19.2749 C   0  0  0  0  0  0  0  0  0  0  0  0
  -22.1091  -14.4298   20.7542 C   0  0  0  0  0  0  0  0  0  0  0  0
  -28.2306  -17.9198   20.2514 C   0  0  0  0  0  0  0  0  0  0  0  0
  -29.5678  -26.2000   19.2277 C   0  0  0  0  0  0  0  0  0  0  0  0
  -29.2719  -27.5380   18.9671 C   0  0  0  0  0  0  0  0  0  0  0  0
  -17.9892  -26.9483   22.7255 C   0  0  0  0  0  0  0  0  0  0  0  0
  -28.7016  -20.2862   20.5485 C   0  0  0  0  0  0  0  0  0  0  0  0
  -15.9724  -27.0581   21.5244 C   0  0  0  0  0  0  0  0  0  0  0  0
  -30.8924  -27.5472   17.1752 C   0  0  0  0  0  0  0  0  0  0  0  0
  -14.6390  -27.5422   19.1223 C   0  0  0  0  0  0  0  0  0  0  0  0
  -15.2085  -26.0505   20.9354 C   0  0  0  0  0  0  0  0  0  0  0  0
  -22.2009  -27.3470   22.7498 C   0  0  0  0  0  0  0  0  0  0  0  0
  -24.3553  -27.0399   23.0651 C   0  0  0  0  0  0  0  0  0  0  0  0
  -29.3894  -27.6160   23.5003 C   0  0  0  0  0  0  0  0  0  0  0  0
  -29.7997  -26.3666   23.2546 C   0  0  0  0  0  0  0  0  0  0  0  0
  -22.9189  -25.2436   24.0442 C   0  0  0  0  0  0  0  0  0  0  0  0
  -25.4818  -15.9166   20.4940 C   0  0  0  0  0  0  0  0  0  0  0  0
  -28.1146  -14.1114   19.9180 C   0  0  0  0  0  0  0  0  0  0  0  0
  -29.9614  -23.5799   21.5738 C   0  0  0  0  0  0  0  0  0  0  0  0
  -31.4948  -13.9794   19.4665 C   0  0  0  0  0  0  0  0  0  0  0  0
  -27.9028  -29.5587   19.5904 C   0  0  0  0  0  0  0  0  0  0  0  0
  -22.3269  -12.1379   21.8453 C   0  0  0  0  0  0  0  0  0  0  0  0
  -26.5248  -17.1510   18.5591 C   0  0  0  0  0  0  0  0  0  0  0  0
  -28.5166  -16.4941   20.6438 C   0  0  0  0  0  0  0  0  0  0  0  0
  -23.7667  -12.5269   22.1706 C   0  0  0  0  0  0  0  0  0  0  0  0
  -25.5227  -31.6198   21.2530 C   0  0  0  0  0  0  0  0  0  0  0  0
  -23.8477  -14.0011   22.5539 C   0  0  0  0  0  0  0  0  0  0  0  0
  -24.5231  -30.6196   21.8383 C   0  0  0  0  0  0  0  0  0  0  0  0
  -26.0370  -31.1733   19.8856 C   0  0  0  0  0  0  0  0  0  0  0  0
  -25.5886  -28.8126   20.4289 C   0  0  0  0  0  0  0  0  0  0  0  0
  -23.3978  -14.8982   21.3945 C   0  0  1  0  0  0  0  0  0  0  0  0
  -26.4571  -15.8501   19.3530 C   0  0  1  0  0  0  0  0  0  0  0  0
  -25.0917  -29.1870   21.8348 C   0  0  2  0  0  0  0  0  0  0  0  0
  -33.3650  -12.3582   19.0526 C   0  0  0  0  0  0  0  0  0  0  0  0
  -28.0036  -13.2410   22.8403 C   0  0  0  0  0  0  0  0  0  0  0  0
  -30.3596  -12.4245   22.6141 C   0  0  0  0  0  0  0  0  0  0  0  0
  -28.5514  -11.4105   21.2267 C   0  0  0  0  0  0  0  0  0  0  0  0
  -32.1914  -15.2614   16.8916 C   0  0  0  0  0  0  0  0  0  0  0  0
  -28.8684  -25.4495   20.3240 C   0  0  0  0  0  0  0  0  0  0  0  0
  -30.5635  -25.9652   22.0355 C   0  0  0  0  0  0  0  0  0  0  0  0
  -29.1084  -22.6186   20.7731 C   0  0  0  0  0  0  0  0  0  1  0  0
  -29.3544  -13.7492   20.6995 C   0  0  1  0  0  0  0  0  0  0  0  0
  -32.3444  -13.2882   18.4154 C   0  0  2  0  0  0  0  0  0  0  0  0
  -29.0607  -12.7334   21.8394 C   0  0  0  0  0  0  0  0  0  0  0  0
  -22.7783  -28.3977   22.1611 N   0  0  0  0  0  0  0  0  0  0  0  0
  -24.0883  -28.1825   22.3699 N   0  0  0  0  0  0  0  0  0  0  0  0
  -27.7515  -15.4657   19.9196 N   0  0  0  0  0  0  0  0  0  0  0  0
  -26.5643  -29.8090   19.9600 N   0  0  0  0  0  0  0  0  0  0  0  0
  -25.6199  -26.6719   23.3614 N   0  0  0  0  0  0  0  0  0  0  0  0
  -21.6020  -24.8000   24.2266 N   0  0  0  0  0  0  0  0  0  0  0  0
  -28.3017  -28.2302   19.7335 N   0  0  0  0  0  0  0  0  0  0  0  0
  -24.4462  -15.0062   20.4027 N   0  0  0  0  0  0  0  0  0  0  0  0
  -30.3319  -13.2838   19.7215 N   0  0  0  0  0  0  0  0  0  0  0  0
  -29.8036  -24.9428   21.3208 N   0  0  0  0  0  0  0  0  0  0  0  0
  -33.0744  -14.2956   17.5949 N   0  3  0  0  0  0  0  0  0  0  0  0
  -23.8647  -24.5717   24.5211 O   0  0  0  0  0  0  0  0  0  0  0  0
  -25.6566  -16.7323   21.3916 O   0  0  0  0  0  0  0  0  0  0  0  0
  -27.4954  -13.2266   19.3220 O   0  0  0  0  0  0  0  0  0  0  0  0
  -30.7449  -23.1216   22.4111 O   0  0  0  0  0  0  0  0  0  0  0  0
  -31.8310  -15.0292   20.0100 O   0  0  0  0  0  0  0  0  0  0  0  0
  -28.6488  -30.4618   19.2032 O   0  0  0  0  0  0  0  0  0  0  0  0
  -16.6342  -26.8196   22.7172 O   0  0  0  0  0  0  0  0  0  0  0  0
  -29.3926  -21.2785   21.1728 O   0  0  0  0  0  0  0  0  0  1  0  0
  -31.5288  -28.1932   16.1894 F   0  0  0  0  0  0  0  0  0  0  0  0
  -13.9976  -27.7752   17.9697 F   0  0  0  0  0  0  0  0  0  0  0  0
  -15.1105  -24.8483   21.5194 F   0  0  0  0  0  0  0  0  0  0  0  0
  1  2  1  0  0  0  0
  1  5  2  0  0  0  0
  2  6  2  0  0  0  0
  3  9  2  0  0  0  0
  3 18  1  0  0  0  0
  4 10  1  0  0  0  0
  4 18  2  0  0  0  0
  5 20  1  0  0  0  0
  6 22  1  0  0  0  0
  7 11  2  0  0  0  0
  7 21  1  0  0  0  0
  8 13  2  0  0  0  0
  8 24  1  0  0  0  0
  9 26  1  0  0  0  0
 10 26  2  0  0  0  0
 11 27  1  0  0  0  0
 12 14  2  0  0  0  0
 12 28  1  0  0  0  0
 13 29  1  0  0  0  0
 14 30  1  0  0  0  0
 15 23  1  0  0  0  0
 15 27  2  0  0  0  0
 16 25  1  0  0  0  0
 16 29  2  0  0  0  0
 17 30  2  0  0  0  0
 17 31  1  0  0  0  0
 18 32  1  0  0  0  0
 19 32  1  0  0  0  0
 19 33  2  0  0  0  0
 19 36  1  0  0  0  0
 20 22  2  0  0  0  0
 20 42  1  0  0  0  0
 21 23  2  0  0  0  0
 21 43  1  0  0  0  0
 22 51  1  0  0  0  0
 23 44  1  0  0  0  0
 24 25  2  0  0  0  0
 24 59  1  0  0  0  0
 25 71  1  0  0  0  0
 26 82  1  0  0  0  0
 27 83  1  0  0  0  0
 28 31  2  0  0  0  0
 28 82  1  0  0  0  0
 29 84  1  0  0  0  0
 30 85  1  0  0  0  0
 31 86  1  0  0  0  0
 32 65  2  0  0  0  0
 33 66  1  0  0  0  0
 33 69  1  0  0  0  0
 34 35  2  0  0  0  0
 35 60  1  0  0  0  0
 36 70  1  0  0  0  0
 36 76  2  0  0  0  0
 37 52  1  0  0  0  0
 37 72  1  0  0  0  0
 37 77  2  0  0  0  0
 38 62  1  0  0  0  0
 38 67  1  0  0  0  0
 38 78  2  0  0  0  0
 39 61  1  0  0  0  0
 39 74  1  0  0  0  0
 39 79  2  0  0  0  0
 40 63  1  0  0  0  0
 40 73  1  0  0  0  0
 40 80  2  0  0  0  0
 41 68  1  0  0  0  0
 41 71  1  0  0  0  0
 41 81  2  0  0  0  0
 42 45  1  0  0  0  0
 43 52  1  0  0  0  0
 44 67  1  0  0  0  0
 45 47  1  0  0  0  0
 46 48  1  0  0  0  0
 46 49  1  0  0  0  0
 47 51  1  0  0  0  0
 48 53  1  0  0  0  0
 49 68  1  0  0  0  0
 50 53  1  0  0  0  0
 50 68  1  0  0  0  0
 51 72  1  0  0  0  0
 52 67  1  0  0  0  0
 53 66  1  0  0  0  0
 54 63  1  0  0  0  0
 55 64  1  0  0  0  0
 56 64  1  0  0  0  0
 57 64  1  0  0  0  0
 58 75  1  0  0  0  0
 59 74  1  0  0  0  0
 60 74  1  0  0  0  0
 61 83  1  0  0  0  0
 62 64  1  0  0  0  0
 62 73  1  0  0  0  0
 63 75  1  0  0  0  0
 65 66  1  0  0  0  0
M  CHG  1  75   1
M  ISO  4  41 100  61 101  71 100  83 101
M  END
> <Batch ID>
0052

> <Smiles>
C=CCN(Cc1ccc(F)cc1[100NH:0][100C:0](=O)N1CCCC(n2nc(-c3ccc(Oc4ccc(F)cc4F)cc3)c(C(N)=O)c2N)C1)C(=O)[101CH2:1][101O:1]c1ccc2c(c1)CN(C(=O)C(NC(=O)C(C)NC)C(C)(C)C)C(C(=O)NC1CCCc3ccccc31)C2

> <Shape>
0.261

> <Color>
0.052

> <Negative vol penalty>
0.000

$$$$

  -OEChem-04042322403D

 91100  0     1  0  0  0  0  0999 V2000
  -22.0898  -11.4626   22.2260 C   0  0  0  0  0  0  0  0  0  0  0  0
  -22.0547  -12.8154   22.5486 C   0  0  0  0  0  0  0  0  0  0  0  0
  -29.7000  -27.9468   16.8942 C   0  0  0  0  0  0  0  0  0  0  0  0
  -27.2971  -28.0155   16.6529 C   0  0  0  0  0  0  0  0  0  0  0  0
  -23.2013  -10.9316   21.5729 C   0  0  0  0  0  0  0  0  0  0  0  0
  -23.1315  -13.6378   22.2192 C   0  0  0  0  0  0  0  0  0  0  0  0
  -21.6645  -18.0414   20.1940 C   0  0  0  0  0  0  0  0  0  0  0  0
  -29.8389  -27.9284   15.5065 C   0  0  0  0  0  0  0  0  0  0  0  0
  -27.4359  -27.9972   15.2651 C   0  0  0  0  0  0  0  0  0  0  0  0
  -21.1945  -19.0196   21.0693 C   0  0  0  0  0  0  0  0  0  0  0  0
  -30.8144  -27.5005   12.0296 C   0  0  0  0  0  0  0  0  0  0  0  0
  -31.7221  -26.5956   11.4790 C   0  0  0  0  0  0  0  0  0  0  0  0
  -21.0613  -28.8810   20.7189 C   0  0  0  0  0  0  0  0  0  0  0  0
  -23.3402  -20.1187   20.9835 C   0  0  0  0  0  0  0  0  0  0  0  0
  -19.9799  -26.7206   20.7153 C   0  0  0  0  0  0  0  0  0  0  0  0
  -30.4861  -24.7628   12.4539 C   0  0  0  0  0  0  0  0  0  0  0  0
  -28.4291  -27.9903   17.4675 C   0  0  0  0  0  0  0  0  0  0  0  0
  -21.2697  -28.7744   22.0939 C   0  0  0  0  0  0  0  0  0  0  0  0
  -28.7290  -27.0322   19.8126 C   0  0  0  0  0  0  0  0  0  0  0  0
  -24.2881  -11.7498   21.2266 C   0  0  0  0  0  0  0  0  0  0  0  0
  -22.9815  -18.0886   19.7147 C   0  0  0  0  0  0  0  0  0  0  0  0
  -24.2591  -13.1170   21.5620 C   0  0  0  0  0  0  0  0  0  0  0  0
  -23.8237  -19.1413   20.1003 C   0  0  0  0  0  0  0  0  0  0  0  0
  -20.4163  -27.8541   20.0296 C   0  0  0  0  0  0  0  0  0  0  0  0
  -20.1883  -26.6140   22.0904 C   0  0  0  0  0  0  0  0  0  0  0  0
  -20.8333  -27.6409   22.7797 C   0  0  0  0  0  0  0  0  0  0  0  0
  -28.7069  -27.9537   14.6919 C   0  0  0  0  0  0  0  0  0  0  0  0
  -22.0333  -20.0568   21.4664 C   0  0  0  0  0  0  0  0  0  0  0  0
  -29.7427  -27.0365   12.7924 C   0  0  0  0  0  0  0  0  0  0  0  0
  -31.5579  -25.2268   11.6911 C   0  0  0  0  0  0  0  0  0  0  0  0
  -29.5786  -25.6677   13.0045 C   0  0  0  0  0  0  0  0  0  0  0  0
  -28.2849  -28.0087   18.9010 C   0  0  0  0  0  0  0  0  0  0  0  0
  -28.3527  -27.5142   21.0425 C   0  0  0  0  0  0  0  0  0  0  0  0
  -20.3111  -23.2974   23.8796 C   0  0  0  0  0  0  0  0  0  0  0  0
  -20.5041  -23.2480   25.2063 C   0  0  0  0  0  0  0  0  0  0  0  0
  -21.9597  -29.8843   22.8003 C   0  0  0  0  0  0  0  0  0  0  0  0
  -29.4199  -25.7996   19.5695 C   0  0  0  0  0  0  0  0  0  0  0  0
  -25.5189  -16.1870   19.9370 C   0  0  0  0  0  0  0  0  0  0  0  0
  -26.8101  -18.3160   17.8579 C   0  0  0  0  0  0  0  0  0  0  0  0
  -26.8398  -21.8992   17.4370 C   0  0  0  0  0  0  0  0  0  0  0  0
  -24.0561  -31.1978   22.8598 C   0  0  0  0  0  0  0  0  0  0  0  0
  -25.4879  -11.1210   20.5634 C   0  0  0  0  0  0  0  0  0  0  0  0
  -23.4649  -17.0406   18.7501 C   0  0  0  0  0  0  0  0  0  0  0  0
  -25.2396  -19.2487   19.5983 C   0  0  0  0  0  0  0  0  0  0  0  0
  -19.6234  -22.2001   23.1088 C   0  0  0  0  0  0  0  0  0  0  0  0
  -26.4267  -12.1352   19.9150 C   0  0  0  0  0  0  0  0  0  0  0  0
  -27.5289  -31.6278   23.3616 C   0  0  0  0  0  0  0  0  0  0  0  0
  -26.6935  -13.2988   20.8646 C   0  0  0  0  0  0  0  0  0  0  0  0
  -28.1612  -30.6483   22.3690 C   0  0  0  0  0  0  0  0  0  0  0  0
  -20.9551  -22.9948   21.1101 C   0  0  0  0  0  0  0  0  0  0  0  0
  -26.2793  -32.2921   22.7853 C   0  0  0  0  0  0  0  0  0  0  0  0
  -25.9025  -30.3928   21.2658 C   0  0  0  0  0  0  0  0  0  0  0  0
  -21.6773  -24.0023   22.0036 C   0  0  0  0  0  0  0  0  0  0  0  0
  -25.3970  -14.0463   21.1992 C   0  0  1  0  0  0  0  0  0  0  0  0
  -24.9841  -16.9031   18.7291 C   0  0  1  0  0  0  0  0  0  0  0  0
  -27.1238  -29.6455   21.8252 C   0  0  1  0  0  0  0  0  0  0  0  0
  -20.4538  -21.7826   21.8949 C   0  0  1  0  0  0  0  0  0  1  0  0
  -20.1930  -27.9681   18.5594 C   0  0  0  0  0  0  0  0  0  0  0  0
  -22.7389  -27.0689   26.0883 C   0  0  0  0  0  0  0  0  0  0  0  0
  -27.1271  -23.2971   15.3728 C   0  0  0  0  0  0  0  0  0  0  0  0
  -29.7572  -18.3578   18.6472 C   0  0  0  0  0  0  0  0  0  0  0  0
  -29.8535  -20.7432   17.8932 C   0  0  0  0  0  0  0  0  0  0  0  0
  -29.3091  -18.9408   16.2569 C   0  0  0  0  0  0  0  0  0  0  0  0
  -24.3036  -23.3451   17.9227 C   0  0  0  0  0  0  0  0  0  0  0  0
  -21.0553  -27.5233   24.2547 C   0  0  0  0  0  0  0  0  0  0  0  0
  -19.7089  -25.3843   22.8040 C   0  0  0  0  0  0  0  0  0  0  0  0
  -22.5073  -27.1555   24.5880 C   0  0  0  0  0  0  0  0  0  0  0  0
  -27.5915  -19.6008   17.9908 C   0  0  1  0  0  0  0  0  0  0  0  0
  -26.1334  -22.6927   16.3527 C   0  0  2  0  0  0  0  0  0  0  0  0
  -29.1091  -19.4025   17.7168 C   0  0  0  0  0  0  0  0  0  0  0  0
  -27.6732  -29.0335   19.5005 N   0  0  0  0  0  0  0  0  0  0  0  0
  -27.7301  -28.7037   20.8021 N   0  0  0  0  0  0  0  0  0  0  0  0
  -25.6678  -18.1963   18.6620 N   0  0  0  0  0  0  0  0  0  0  0  0
  -25.3440  -31.2752   22.3014 N   0  0  0  0  0  0  0  0  0  0  0  0
  -28.4969  -27.0324   22.2953 N   0  0  0  0  0  0  0  0  0  0  0  0
  -28.6623  -24.6401   19.3552 N   0  0  0  0  0  0  0  0  0  0  0  0
  -23.2533  -30.1662   22.3604 N   0  0  0  0  0  0  0  0  0  0  0  0
  -25.0151  -14.9111   20.1034 N   0  0  0  0  0  0  0  0  0  0  0  0
  -26.9457  -20.5647   17.1064 N   0  0  0  0  0  0  0  0  0  0  0  0
  -20.8232  -24.4430   23.1693 N   0  3  1  0  0  0  0  0  0  0  0  0
  -25.3364  -23.7982   16.9558 N   0  3  0  0  0  0  0  0  0  0  0  0
  -21.3596  -30.4997   23.6772 O   0  0  0  0  0  0  0  0  0  0  0  0
  -30.6720  -25.7255   19.5593 O   0  0  0  0  0  0  0  0  0  0  0  0
  -26.3297  -16.7498   20.6632 O   0  0  0  0  0  0  0  0  0  0  0  0
  -27.1950  -17.4534   17.0645 O   0  0  0  0  0  0  0  0  0  0  0  0
  -27.2594  -22.4125   18.4719 O   0  0  0  0  0  0  0  0  0  0  0  0
  -23.6675  -31.9571   23.7529 O   0  0  0  0  0  0  0  0  0  0  0  0
  -28.8420  -27.9360   13.3376 O   0  0  0  0  0  0  0  0  0  0  0  0
  -21.5773  -21.0125   22.3212 O   0  0  0  0  0  0  0  0  0  1  0  0
  -32.4287  -24.3579   11.1611 F   0  0  0  0  0  0  0  0  0  0  0  0
  -28.5502  -25.2159   13.7354 F   0  0  0  0  0  0  0  0  0  0  0  0
  1  2  1  0  0  0  0
  1  5  2  0  0  0  0
  2  6  2  0  0  0  0
  3  8  2  0  0  0  0
  3 17  1  0  0  0  0
  4  9  1  0  0  0  0
  4 17  2  0  0  0  0
  5 20  1  0  0  0  0
  6 22  1  0  0  0  0
  7 10  2  0  0  0  0
  7 21  1  0  0  0  0
  8 27  1  0  0  0  0
  9 27  2  0  0  0  0
 10 28  1  0  0  0  0
 11 12  2  0  0  0  0
 11 29  1  0  0  0  0
 12 30  1  0  0  0  0
 13 18  2  0  0  0  0
 13 24  1  0  0  0  0
 14 23  1  0  0  0  0
 14 28  2  0  0  0  0
 15 24  2  0  0  0  0
 15 25  1  0  0  0  0
 16 30  2  0  0  0  0
 16 31  1  0  0  0  0
 17 32  1  0  0  0  0
 18 26  1  0  0  0  0
 18 36  1  0  0  0  0
 19 32  1  0  0  0  0
 19 33  2  0  0  0  0
 19 37  1  0  0  0  0
 20 22  2  0  0  0  0
 20 42  1  0  0  0  0
 21 23  2  0  0  0  0
 21 43  1  0  0  0  0
 22 54  1  0  0  0  0
 23 44  1  0  0  0  0
 24 58  1  0  0  0  0
 25 26  2  0  0  0  0
 25 66  1  0  0  0  0
 26 65  1  0  0  0  0
 27 88  1  0  0  0  0
 28 89  1  0  0  0  0
 29 31  2  0  0  0  0
 29 88  1  0  0  0  0
 30 90  1  0  0  0  0
 31 91  1  0  0  0  0
 32 71  2  0  0  0  0
 33 72  1  0  0  0  0
 33 75  1  0  0  0  0
 34 35  2  0  0  0  0
 34 45  1  0  0  0  0
 34 80  1  0  0  0  0
 36 77  1  0  0  0  0
 36 82  2  0  0  0  0
 37 76  1  0  0  0  0
 37 83  2  0  0  0  0
 38 55  1  0  0  0  0
 38 78  1  0  0  0  0
 38 84  2  0  0  0  0
 39 68  1  0  0  0  0
 39 73  1  0  0  0  0
 39 85  2  0  0  0  0
 40 69  1  0  0  0  0
 40 79  1  0  0  0  0
 40 86  2  0  0  0  0
 41 74  1  0  0  0  0
 41 77  1  0  0  0  0
 41 87  2  0  0  0  0
 42 46  1  0  0  0  0
 43 55  1  0  0  0  0
 44 73  1  0  0  0  0
 45 57  1  0  0  0  0
 46 48  1  0  0  0  0
 47 49  1  0  0  0  0
 47 51  1  0  0  0  0
 48 54  1  0  0  0  0
 49 56  1  0  0  0  0
 50 53  1  0  0  0  0
 50 57  1  0  0  0  0
 51 74  1  0  0  0  0
 52 56  1  0  0  0  0
 52 74  1  0  0  0  0
 53 80  1  0  0  0  0
 54 78  1  0  0  0  0
 55 73  1  0  0  0  0
 56 72  1  0  0  0  0
 57 89  1  0  0  0  0
 59 67  1  0  0  0  0
 60 69  1  0  0  0  0
 61 70  1  0  0  0  0
 62 70  1  0  0  0  0
 63 70  1  0  0  0  0
 64 81  1  0  0  0  0
 65 67  1  0  0  0  0
 66 80  1  0  0  0  0
 68 70  1  0  0  0  0
 68 79  1  0  0  0  0
 69 81  1  0  0  0  0
 71 72  1  0  0  0  0
M  CHG  2  80   1  81   1
M  ISO  4  41 100  57 101  77 100  89 101
M  END
> <Batch ID>
0052

> <Smiles>
C=C1C[101CH:1]([101O:1]c2ccc3c(c2)CN(C(=O)C(NC(=O)C(C)NC)C(C)(C)C)C(C(=O)NC2CCCc4ccccc42)C3)CCN1Cc1cc(C)cc(C(=O)[100NH:0][100C:0](=O)N2CCCC(n3nc(-c4ccc(Oc5ccc(F)cc5F)cc4)c(C(N)=O)c3N)C2)c1CCC

> <Shape>
0.202

> <Color>
0.065

> <Negative vol penalty>
0.000

$$$$

  -OEChem-04042322403D

 87 95  0     1  0  0  0  0  0999 V2000
  -29.9829  -26.1165   16.8725 C   0  0  0  0  0  0  0  0  0  0  0  0
  -28.5981  -26.1375   17.0042 C   0  0  0  0  0  0  0  0  0  0  0  0
  -21.9554  -23.1025   17.5586 C   0  0  0  0  0  0  0  0  0  0  0  0
  -26.9469  -13.0405   21.6420 C   0  0  0  0  0  0  0  0  0  0  0  0
  -26.4985  -13.3875   19.2935 C   0  0  0  0  0  0  0  0  0  0  0  0
  -21.1008  -23.6822   18.4963 C   0  0  0  0  0  0  0  0  0  0  0  0
  -30.7896  -26.5063   17.9407 C   0  0  0  0  0  0  0  0  0  0  0  0
  -28.0193  -26.5472   18.2048 C   0  0  0  0  0  0  0  0  0  0  0  0
  -22.7748  -29.6326   18.8989 C   0  0  0  0  0  0  0  0  0  0  0  0
  -23.3292  -23.0635   17.7973 C   0  0  0  0  0  0  0  0  0  0  0  0
  -26.2114  -11.8559   21.6075 C   0  0  0  0  0  0  0  0  0  0  0  0
  -25.7630  -12.2028   19.2589 C   0  0  0  0  0  0  0  0  0  0  0  0
  -21.4797  -29.2225   19.2123 C   0  0  0  0  0  0  0  0  0  0  0  0
  -26.3920   -8.8859   19.1073 C   0  0  0  0  0  0  0  0  0  0  0  0
  -26.6142   -8.0179   18.0382 C   0  0  0  0  0  0  0  0  0  0  0  0
  -21.8824  -29.7446   21.5328 C   0  0  0  0  0  0  0  0  0  0  0  0
  -24.2936   -8.2157   17.3954 C   0  0  0  0  0  0  0  0  0  0  0  0
  -27.0905  -13.8064   20.4851 C   0  0  0  0  0  0  0  0  0  0  0  0
  -21.6199  -24.2229   19.6726 C   0  0  0  0  0  0  0  0  0  0  0  0
  -29.2282  -15.1830   20.2794 C   0  0  0  0  0  0  0  0  0  0  0  0
  -30.2202  -26.9303   19.1518 C   0  0  0  0  0  0  0  0  0  0  0  0
  -23.6385  -30.0923   19.9034 C   0  0  0  0  0  0  0  0  0  0  0  0
  -28.8191  -26.9418   19.2907 C   0  0  0  0  0  0  0  0  0  0  0  0
  -23.1871  -30.1623   21.2291 C   0  0  0  0  0  0  0  0  0  0  0  0
  -23.8483  -23.6043   18.9736 C   0  0  0  0  0  0  0  0  0  0  0  0
  -22.9937  -24.1840   19.9113 C   0  0  0  0  0  0  0  0  0  0  0  0
  -25.6194  -11.4370   20.4159 C   0  0  0  0  0  0  0  0  0  0  0  0
  -21.0342  -29.2757   20.5299 C   0  0  0  0  0  0  0  0  0  0  0  0
  -25.1206   -9.4187   19.3205 C   0  0  0  0  0  0  0  0  0  0  0  0
  -25.5650   -7.6828   17.1823 C   0  0  0  0  0  0  0  0  0  0  0  0
  -24.0715   -9.0836   18.4645 C   0  0  0  0  0  0  0  0  0  0  0  0
  -27.8497  -15.0305   20.5203 C   0  0  0  0  0  0  0  0  0  0  0  0
  -29.4569  -16.5285   20.4337 C   0  0  0  0  0  0  0  0  0  0  0  0
  -20.6844  -24.8323   20.6527 C   0  0  0  0  0  0  0  0  0  0  0  0
  -30.2139  -14.1967   19.9459 C   0  0  0  0  0  0  0  0  0  0  0  0
  -26.4332  -29.1294   21.0724 C   0  0  0  0  0  0  0  0  0  0  0  0
  -26.2345  -31.8894   22.7651 C   0  0  0  0  0  0  0  0  0  0  0  0
  -24.2626  -34.3359   24.0966 C   0  0  0  0  0  0  0  0  0  0  0  0
  -25.9235  -21.2163   19.8053 C   0  0  0  0  0  0  0  0  0  0  0  0
  -31.1337  -27.2973   20.2943 C   0  0  0  0  0  0  0  0  0  0  0  0
  -25.0237  -30.5562   19.5449 C   0  0  0  0  0  0  0  0  0  0  0  0
  -24.0684  -30.6671   22.3413 C   0  0  0  0  0  0  0  0  0  0  0  0
  -30.4355  -28.0752   21.4068 C   0  0  0  0  0  0  0  0  0  0  0  0
  -27.8075  -20.3631   22.7752 C   0  0  0  0  0  0  0  0  0  0  0  0
  -29.1087  -27.4150   21.7682 C   0  0  0  0  0  0  0  0  0  0  0  0
  -28.1622  -18.9006   22.5006 C   0  0  0  0  0  0  0  0  0  0  0  0
  -26.4055  -20.6956   22.2729 C   0  0  0  0  0  0  0  0  0  0  0  0
  -26.5343  -18.9341   20.5542 C   0  0  0  0  0  0  0  0  0  0  0  0
  -28.1533  -27.4036   20.5688 C   0  0  1  0  0  0  0  0  0  0  0  0
  -25.9894  -30.5223   20.7254 C   0  0  1  0  0  0  0  0  0  0  0  0
  -27.9485  -18.5409   21.0183 C   0  0  2  0  0  0  0  0  0  0  0  0
  -23.5540  -24.7628   21.1723 C   0  0  0  0  0  0  0  0  0  0  0  0
  -24.3836  -36.4399   25.4589 C   0  0  0  0  0  0  0  0  0  0  0  0
  -17.4531  -28.7031   22.7233 C   0  0  0  0  0  0  0  0  0  0  0  0
  -18.8848  -27.1851   24.1024 C   0  0  0  0  0  0  0  0  0  0  0  0
  -26.6773  -30.2287   25.2862 C   0  0  0  0  0  0  0  0  0  0  0  0
  -25.8532  -32.1746   26.6288 C   0  0  0  0  0  0  0  0  0  0  0  0
  -27.9121  -32.4030   25.2390 C   0  0  0  0  0  0  0  0  0  0  0  0
  -23.0991  -35.9563   21.9103 C   0  0  0  0  0  0  0  0  0  0  0  0
  -25.3229  -23.5481   19.2060 C   0  0  0  0  0  0  0  0  0  0  0  0
  -18.9994  -26.6144   21.0281 C   0  0  0  0  0  0  0  0  0  0  0  0
  -25.6567  -32.2839   24.1028 C   0  0  1  0  0  0  0  0  0  0  0  0
  -24.3708  -35.8496   24.0574 C   0  0  2  0  0  0  0  0  0  0  0  0
  -18.8909  -28.2781   23.0257 C   0  0  0  0  0  0  0  0  0  0  0  0
  -19.6391  -27.7955   21.7622 C   0  0  2  0  0  0  0  0  0  1  0  0
  -26.5086  -31.7611   25.2938 C   0  0  0  0  0  0  0  0  0  0  0  0
  -27.2451  -16.1867   20.8060 N   0  0  0  0  0  0  0  0  0  0  0  0
  -28.2486  -17.0786   20.7458 N   0  0  0  0  0  0  0  0  0  0  0  0
  -25.4165  -31.1033   21.9412 N   0  0  0  0  0  0  0  0  0  0  0  0
  -26.2741  -20.3466   20.8513 N   0  0  0  0  0  0  0  0  0  0  0  0
  -30.5718  -17.2829   20.3316 N   0  0  0  0  0  0  0  0  0  0  0  0
  -29.8083  -12.8604   19.8267 N   0  0  0  0  0  0  0  0  0  0  0  0
  -19.9302  -25.9048   20.1924 N   0  0  0  0  0  0  0  0  0  0  0  0
  -27.5564  -28.7092   20.3859 N   0  0  0  0  0  0  0  0  0  0  0  0
  -25.5029  -33.7343   24.0693 N   0  0  0  0  0  0  0  0  0  0  0  0
  -25.6868  -22.5355   20.1720 N   0  0  0  0  0  0  0  0  0  0  0  0
  -23.2190  -36.4322   23.3125 N   0  3  0  0  0  0  0  0  0  0  0  0
  -20.6383  -24.3856   21.7959 O   0  0  0  0  0  0  0  0  0  0  0  0
  -31.4218  -14.4892   19.7754 O   0  0  0  0  0  0  0  0  0  0  0  0
  -25.8040  -28.4841   21.9028 O   0  0  0  0  0  0  0  0  0  0  0  0
  -27.3670  -32.2708   22.4594 O   0  0  0  0  0  0  0  0  0  0  0  0
  -23.1855  -33.7463   24.1500 O   0  0  0  0  0  0  0  0  0  0  0  0
  -25.8333  -20.8457   18.6299 O   0  0  0  0  0  0  0  0  0  0  0  0
  -24.9018  -10.2809   20.3818 O   0  0  0  0  0  0  0  0  0  0  0  0
  -19.7708  -28.8754   20.8386 O   0  0  0  0  0  0  0  0  0  1  0  0
  -25.7789   -6.8505   16.1548 F   0  0  0  0  0  0  0  0  0  0  0  0
  -22.8482   -9.5933   18.6636 F   0  0  0  0  0  0  0  0  0  0  0  0
  1  2  1  0  0  0  0
  1  7  2  0  0  0  0
  2  8  2  0  0  0  0
  3  6  2  0  0  0  0
  3 10  1  0  0  0  0
  4 11  2  0  0  0  0
  4 18  1  0  0  0  0
  5 12  1  0  0  0  0
  5 18  2  0  0  0  0
  6 19  1  0  0  0  0
  7 21  1  0  0  0  0
  8 23  1  0  0  0  0
  9 13  2  0  0  0  0
  9 22  1  0  0  0  0
 10 25  2  0  0  0  0
 11 27  1  0  0  0  0
 12 27  2  0  0  0  0
 13 28  1  0  0  0  0
 14 15  2  0  0  0  0
 14 29  1  0  0  0  0
 15 30  1  0  0  0  0
 16 24  1  0  0  0  0
 16 28  2  0  0  0  0
 17 30  2  0  0  0  0
 17 31  1  0  0  0  0
 18 32  1  0  0  0  0
 19 26  2  0  0  0  0
 19 34  1  0  0  0  0
 20 32  1  0  0  0  0
 20 33  2  0  0  0  0
 20 35  1  0  0  0  0
 21 23  2  0  0  0  0
 21 40  1  0  0  0  0
 22 24  2  0  0  0  0
 22 41  1  0  0  0  0
 23 49  1  0  0  0  0
 24 42  1  0  0  0  0
 25 26  1  0  0  0  0
 25 60  1  0  0  0  0
 26 52  1  0  0  0  0
 27 84  1  0  0  0  0
 28 85  1  0  0  0  0
 29 31  2  0  0  0  0
 29 84  1  0  0  0  0
 30 86  1  0  0  0  0
 31 87  1  0  0  0  0
 32 67  2  0  0  0  0
 33 68  1  0  0  0  0
 33 71  1  0  0  0  0
 34 73  1  0  0  0  0
 34 78  2  0  0  0  0
 35 72  1  0  0  0  0
 35 79  2  0  0  0  0
 36 50  1  0  0  0  0
 36 74  1  0  0  0  0
 36 80  2  0  0  0  0
 37 62  1  0  0  0  0
 37 69  1  0  0  0  0
 37 81  2  0  0  0  0
 38 63  1  0  0  0  0
 38 75  1  0  0  0  0
 38 82  2  0  0  0  0
 39 70  1  0  0  0  0
 39 76  1  0  0  0  0
 39 83  2  0  0  0  0
 40 43  1  0  0  0  0
 41 50  1  0  0  0  0
 42 69  1  0  0  0  0
 43 45  1  0  0  0  0
 44 46  1  0  0  0  0
 44 47  1  0  0  0  0
 45 49  1  0  0  0  0
 46 51  1  0  0  0  0
 47 70  1  0  0  0  0
 48 51  1  0  0  0  0
 48 70  1  0  0  0  0
 49 74  1  0  0  0  0
 50 69  1  0  0  0  0
 51 68  1  0  0  0  0
 53 63  1  0  0  0  0
 54 64  1  0  0  0  0
 55 64  1  0  0  0  0
 56 66  1  0  0  0  0
 57 66  1  0  0  0  0
 58 66  1  0  0  0  0
 59 77  1  0  0  0  0
 60 76  1  0  0  0  0
 61 65  1  0  0  0  0
 61 73  1  0  0  0  0
 62 66  1  0  0  0  0
 62 75  1  0  0  0  0
 63 77  1  0  0  0  0
 64 65  1  0  0  0  0
 65 85  1  0  0  0  0
 67 68  1  0  0  0  0
M  CHG  1  77   1
M  ISO  4  39 100  65 101  76 100  85 101
M  END
> <Batch ID>
0052

> <Smiles>
CNC(C)C(=O)NC(C(=O)N1Cc2cc([101O:1][101CH:1](CNC(=O)c3cccc(C[100NH:0][100C:0](=O)N4CCCC(n5nc(-c6ccc(Oc7ccc(F)cc7F)cc6)c(C(N)=O)c5N)C4)c3C)C(C)C)ccc2CC1C(=O)NC1CCCc2ccccc21)C(C)(C)C

> <Shape>
0.303

> <Color>
0.087

> <Negative vol penalty>
0.000

$$$$

  -OEChem-04042322403D

 86 94  0     1  0  0  0  0  0999 V2000
  -29.6014  -18.1375   19.1405 C   0  0  0  0  0  0  0  0  0  0  0  0
  -28.8270  -19.0988   18.4990 C   0  0  0  0  0  0  0  0  0  0  0  0
  -17.5594  -27.4585   21.5903 C   0  0  0  0  0  0  0  0  0  0  0  0
  -25.6184  -16.4118   19.9948 C   0  0  0  0  0  0  0  0  0  0  0  0
  -23.7765  -15.1500   19.0717 C   0  0  0  0  0  0  0  0  0  0  0  0
  -29.8604  -18.2500   20.5058 C   0  0  0  0  0  0  0  0  0  0  0  0
  -28.3101  -20.1728   19.2228 C   0  0  0  0  0  0  0  0  0  0  0  0
  -26.6384  -27.1013   18.5039 C   0  0  0  0  0  0  0  0  0  0  0  0
  -18.3452  -28.6056   21.7007 C   0  0  0  0  0  0  0  0  0  0  0  0
  -26.2846  -15.2227   20.2911 C   0  0  0  0  0  0  0  0  0  0  0  0
  -24.4427  -13.9608   19.3679 C   0  0  0  0  0  0  0  0  0  0  0  0
  -25.5766  -27.9804   18.7128 C   0  0  0  0  0  0  0  0  0  0  0  0
  -28.6293  -12.5270   20.9626 C   0  0  0  0  0  0  0  0  0  0  0  0
  -29.9864  -12.4487   20.6501 C   0  0  0  0  0  0  0  0  0  0  0  0
  -17.7667  -26.3850   22.4565 C   0  0  0  0  0  0  0  0  0  0  0  0
  -26.1553  -28.1142   21.0508 C   0  0  0  0  0  0  0  0  0  0  0  0
  -19.5457  -27.6058   23.5436 C   0  0  0  0  0  0  0  0  0  0  0  0
  -29.4722  -12.8334   18.3210 C   0  0  0  0  0  0  0  0  0  0  0  0
  -24.3643  -16.3754   19.3851 C   0  0  0  0  0  0  0  0  0  0  0  0
  -23.7589  -18.3515   17.8897 C   0  0  0  0  0  0  0  0  0  0  0  0
  -29.3545  -19.3311   21.2448 C   0  0  0  0  0  0  0  0  0  0  0  0
  -27.4613  -26.7129   19.5708 C   0  0  0  0  0  0  0  0  0  0  0  0
  -28.5615  -20.2992   20.5996 C   0  0  0  0  0  0  0  0  0  0  0  0
  -27.2284  -27.2321   20.8524 C   0  0  0  0  0  0  0  0  0  0  0  0
  -19.3384  -28.6793   22.6774 C   0  0  0  0  0  0  0  0  0  0  0  0
  -25.6968  -13.9972   19.9776 C   0  0  0  0  0  0  0  0  0  0  0  0
  -25.3332  -28.4847   19.9869 C   0  0  0  0  0  0  0  0  0  0  0  0
  -27.6935  -12.7584   19.9543 C   0  0  0  0  0  0  0  0  0  0  0  0
  -30.4078  -12.6019   19.3293 C   0  0  0  0  0  0  0  0  0  0  0  0
  -28.1150  -12.9116   18.6335 C   0  0  0  0  0  0  0  0  0  0  0  0
  -18.7599  -26.4587   23.4332 C   0  0  0  0  0  0  0  0  0  0  0  0
  -23.6754  -17.6034   19.0793 C   0  0  0  0  0  0  0  0  0  0  0  0
  -22.9217  -19.4205   18.0968 C   0  0  0  0  0  0  0  0  0  0  0  0
  -20.1768  -22.8435   23.8590 C   0  0  0  0  0  0  0  0  0  0  0  0
  -20.1927  -24.1637   23.6652 C   0  0  0  0  0  0  0  0  0  0  0  0
  -24.5247  -18.1023   16.7035 C   0  0  0  0  0  0  0  0  0  0  0  0
  -21.1701  -22.0221   23.1382 C   0  0  0  0  0  0  0  0  0  0  0  0
  -28.1442  -23.9501   20.9865 C   0  0  0  0  0  0  0  0  0  0  0  0
  -30.2876  -25.7607   22.6144 C   0  0  0  0  0  0  0  0  0  0  0  0
  -22.2111  -29.6625   21.3770 C   0  0  0  0  0  0  0  0  0  0  0  0
  -31.2114  -28.8482   23.7372 C   0  0  0  0  0  0  0  0  0  0  0  0
  -29.6217  -19.3849   22.7281 C   0  0  0  0  0  0  0  0  0  0  0  0
  -28.6189  -25.7847   19.3238 C   0  0  0  0  0  0  0  0  0  0  0  0
  -28.0950  -26.8622   22.0274 C   0  0  0  0  0  0  0  0  0  0  0  0
  -29.3492  -20.7535   23.3469 C   0  0  0  0  0  0  0  0  0  0  0  0
  -19.0023  -20.7112   20.4899 C   0  0  0  0  0  0  0  0  0  0  0  0
  -28.0081  -21.2990   22.8667 C   0  0  0  0  0  0  0  0  0  0  0  0
  -19.9685  -19.7917   19.7477 C   0  0  0  0  0  0  0  0  0  0  0  0
  -19.2823  -20.7425   21.9916 C   0  0  0  0  0  0  0  0  0  0  0  0
  -21.6593  -20.1723   21.5853 C   0  0  0  0  0  0  0  0  0  0  0  0
  -28.0038  -21.4920   21.3455 C   0  0  1  0  0  0  0  0  0  0  0  0
  -29.0787  -25.0550   20.5822 C   0  0  1  0  0  0  0  0  0  0  0  0
  -21.4256  -20.1621   20.0665 C   0  0  1  0  0  0  0  0  0  0  0  0
  -32.9918  -30.0071   25.0729 C   0  0  0  0  0  0  0  0  0  0  0  0
  -29.0552  -24.6817   25.1887 C   0  0  0  0  0  0  0  0  0  0  0  0
  -30.1873  -26.5399   26.4272 C   0  0  0  0  0  0  0  0  0  0  0  0
  -31.5509  -24.8399   25.2134 C   0  0  0  0  0  0  0  0  0  0  0  0
  -32.0047  -30.5318   21.4361 C   0  0  0  0  0  0  0  0  0  0  0  0
  -20.1838  -29.9144   22.7956 C   0  0  0  0  0  0  0  0  0  0  0  0
  -23.6817  -29.3192   21.4810 C   0  0  0  0  0  0  0  0  0  1  0  0
  -30.2566  -26.5638   23.8923 C   0  0  1  0  0  0  0  0  0  0  0  0
  -32.5383  -29.5837   23.6845 C   0  0  2  0  0  0  0  0  0  0  0  0
  -30.2448  -25.6620   25.1589 C   0  0  0  0  0  0  0  0  0  0  0  0
  -22.8504  -18.1509   19.9758 N   0  0  0  0  0  0  0  0  0  0  0  0
  -22.4079  -19.2544   19.3492 N   0  0  0  0  0  0  0  0  0  0  0  0
  -20.6952  -21.0411   22.2696 N   0  0  0  0  0  0  0  0  0  0  0  0
  -29.2105  -25.9466   21.7363 N   0  0  0  0  0  0  0  0  0  0  0  0
  -22.5823  -20.4769   17.3280 N   0  0  0  0  0  0  0  0  0  0  0  0
  -25.3326  -16.9579   16.6578 N   0  0  0  0  0  0  0  0  0  0  0  0
  -28.7232  -22.6954   20.9867 N   0  0  0  0  0  0  0  0  0  0  0  0
  -21.5881  -29.6277   22.6147 N   0  0  0  0  0  0  0  0  0  0  0  0
  -31.3871  -27.4834   23.8241 N   0  0  0  0  0  0  0  0  0  0  0  0
  -32.4211  -30.8033   22.8360 N   0  3  0  0  0  0  0  0  0  0  0  0
  -24.5062  -18.8804   15.7197 O   0  0  0  0  0  0  0  0  0  0  0  0
  -22.3616  -22.2520   23.3533 O   0  0  0  0  0  0  0  0  0  0  0  0
  -26.9842  -24.2164   21.2783 O   0  0  0  0  0  0  0  0  0  0  0  0
  -31.2362  -25.0019   22.3999 O   0  0  0  0  0  0  0  0  0  0  0  0
  -21.6658  -29.9330   20.3105 O   0  0  0  0  0  0  0  0  0  0  0  0
  -30.1274  -29.4268   23.7082 O   0  0  0  0  0  0  0  0  0  0  0  0
  -19.6327  -25.6169   25.7398 O   0  0  0  0  0  0  0  0  0  0  0  0
  -17.7719  -24.3656   24.6036 O   0  0  0  0  0  0  0  0  0  0  0  0
  -26.3466  -12.8366   20.2664 O   0  0  0  0  0  0  0  0  0  0  0  0
  -24.2971  -29.3424   20.1937 O   0  0  0  0  0  0  0  0  0  1  0  0
  -31.7113  -12.5283   19.0295 F   0  0  0  0  0  0  0  0  0  0  0  0
  -27.2209  -13.1353   17.6608 F   0  0  0  0  0  0  0  0  0  0  0  0
  -19.0197  -25.1143   24.5161 S   0  0  0  0  0  0  0  0  0  0  0  0
  1  2  1  0  0  0  0
  1  6  2  0  0  0  0
  2  7  2  0  0  0  0
  3  9  2  0  0  0  0
  3 15  1  0  0  0  0
  4 10  2  0  0  0  0
  4 19  1  0  0  0  0
  5 11  1  0  0  0  0
  5 19  2  0  0  0  0
  6 21  1  0  0  0  0
  7 23  1  0  0  0  0
  8 12  2  0  0  0  0
  8 22  1  0  0  0  0
  9 25  1  0  0  0  0
 10 26  1  0  0  0  0
 11 26  2  0  0  0  0
 12 27  1  0  0  0  0
 13 14  2  0  0  0  0
 13 28  1  0  0  0  0
 14 29  1  0  0  0  0
 15 31  2  0  0  0  0
 16 24  1  0  0  0  0
 16 27  2  0  0  0  0
 17 25  2  0  0  0  0
 17 31  1  0  0  0  0
 18 29  2  0  0  0  0
 18 30  1  0  0  0  0
 19 32  1  0  0  0  0
 20 32  1  0  0  0  0
 20 33  2  0  0  0  0
 20 36  1  0  0  0  0
 21 23  2  0  0  0  0
 21 42  1  0  0  0  0
 22 24  2  0  0  0  0
 22 43  1  0  0  0  0
 23 51  1  0  0  0  0
 24 44  1  0  0  0  0
 25 59  1  0  0  0  0
 26 82  1  0  0  0  0
 27 83  1  0  0  0  0
 28 30  2  0  0  0  0
 28 82  1  0  0  0  0
 29 84  1  0  0  0  0
 30 85  1  0  0  0  0
 31 86  1  0  0  0  0
 32 64  2  0  0  0  0
 33 65  1  0  0  0  0
 33 68  1  0  0  0  0
 34 35  2  0  0  0  0
 34 37  1  0  0  0  0
 35 86  1  0  0  0  0
 36 69  1  0  0  0  0
 36 74  2  0  0  0  0
 37 66  1  0  0  0  0
 37 75  2  0  0  0  0
 38 52  1  0  0  0  0
 38 70  1  0  0  0  0
 38 76  2  0  0  0  0
 39 61  1  0  0  0  0
 39 67  1  0  0  0  0
 39 77  2  0  0  0  0
 40 60  1  0  0  0  0
 40 71  1  0  0  0  0
 40 78  2  0  0  0  0
 41 62  1  0  0  0  0
 41 72  1  0  0  0  0
 41 79  2  0  0  0  0
 42 45  1  0  0  0  0
 43 52  1  0  0  0  0
 44 67  1  0  0  0  0
 45 47  1  0  0  0  0
 46 48  1  0  0  0  0
 46 49  1  0  0  0  0
 47 51  1  0  0  0  0
 48 53  1  0  0  0  0
 49 66  1  0  0  0  0
 50 53  1  0  0  0  0
 50 66  1  0  0  0  0
 51 70  1  0  0  0  0
 52 67  1  0  0  0  0
 53 65  1  0  0  0  0
 54 62  1  0  0  0  0
 55 63  1  0  0  0  0
 56 63  1  0  0  0  0
 57 63  1  0  0  0  0
 58 73  1  0  0  0  0
 59 71  1  0  0  0  0
 60 83  1  0  0  0  0
 61 63  1  0  0  0  0
 61 72  1  0  0  0  0
 62 73  1  0  0  0  0
 64 65  1  0  0  0  0
 80 86  2  0  0  0  0
 81 86  2  0  0  0  0
M  CHG  1  73   1
M  ISO  4  34 100  37 100  60 101  83 101
M  END
> <Batch ID>
0052

> <Smiles>
CNC(C)C(=O)NC(C(=O)N1Cc2cc([101O:1][101CH2:1]C(=O)NCc3cccc(S(=O)(=O)C=[100CH:0][100C:0](=O)N4CCCC(n5nc(-c6ccc(Oc7ccc(F)cc7F)cc6)c(C(N)=O)c5N)C4)c3)ccc2CC1C(=O)NC1CCCc2ccccc21)C(C)(C)C

> <Shape>
0.228

> <Color>
0.057

> <Negative vol penalty>
0.000

$$$$

  -OEChem-04042322403D

 87 96  0     1  0  0  0  0  0999 V2000
  -29.6773  -23.5638   16.2134 C   0  0  0  0  0  0  0  0  0  0  0  0
  -29.7991  -22.2169   15.8871 C   0  0  0  0  0  0  0  0  0  0  0  0
  -25.9973  -29.0787   21.3857 C   0  0  0  0  0  0  0  0  0  0  0  0
  -23.7693  -29.2767   20.4725 C   0  0  0  0  0  0  0  0  0  0  0  0
  -29.8732  -23.9816   17.5290 C   0  0  0  0  0  0  0  0  0  0  0  0
  -30.1180  -21.2871   16.8762 C   0  0  0  0  0  0  0  0  0  0  0  0
  -25.7368  -15.7531   18.3150 C   0  0  0  0  0  0  0  0  0  0  0  0
  -23.1914  -17.2913   23.5775 C   0  0  0  0  0  0  0  0  0  0  0  0
  -22.5104  -16.3923   24.3984 C   0  0  0  0  0  0  0  0  0  0  0  0
  -25.9113  -30.3811   21.8778 C   0  0  0  0  0  0  0  0  0  0  0  0
  -23.6833  -30.5790   20.9646 C   0  0  0  0  0  0  0  0  0  0  0  0
  -25.0548  -14.5510   18.5048 C   0  0  0  0  0  0  0  0  0  0  0  0
  -24.4885  -31.9620   24.5063 C   0  0  0  0  0  0  0  0  0  0  0  0
  -24.9185  -32.1908   25.8133 C   0  0  0  0  0  0  0  0  0  0  0  0
  -26.5877  -13.9486   20.2756 C   0  0  0  0  0  0  0  0  0  0  0  0
  -22.5595  -15.9981   21.6370 C   0  0  0  0  0  0  0  0  0  0  0  0
  -26.5685  -33.7553   24.9966 C   0  0  0  0  0  0  0  0  0  0  0  0
  -24.9263  -28.5265   20.6831 C   0  0  0  0  0  0  0  0  0  0  0  0
  -25.9552  -26.6808   19.2539 C   0  0  0  0  0  0  0  0  0  0  0  0
  -30.1852  -23.0553   18.5366 C   0  0  0  0  0  0  0  0  0  0  0  0
  -26.8388  -16.0648   19.1161 C   0  0  0  0  0  0  0  0  0  0  0  0
  -30.3196  -21.6932   18.2063 C   0  0  0  0  0  0  0  0  0  0  0  0
  -27.2672  -15.1568   20.0984 C   0  0  0  0  0  0  0  0  0  0  0  0
  -23.2159  -17.0942   22.1968 C   0  0  0  0  0  0  0  0  0  0  0  0
  -21.8541  -15.2962   23.8386 C   0  0  0  0  0  0  0  0  0  0  0  0
  -21.8786  -15.0991   22.4579 C   0  0  0  0  0  0  0  0  0  0  0  0
  -24.7544  -31.1312   21.6672 C   0  0  0  0  0  0  0  0  0  0  0  0
  -25.4794  -13.6509   19.4825 C   0  0  0  0  0  0  0  0  0  0  0  0
  -25.0986  -32.6297   23.4444 C   0  0  0  0  0  0  0  0  0  0  0  0
  -25.9584  -33.0875   26.0585 C   0  0  0  0  0  0  0  0  0  0  0  0
  -26.1385  -33.5264   23.6895 C   0  0  0  0  0  0  0  0  0  0  0  0
  -25.0147  -27.1815   20.1741 C   0  0  0  0  0  0  0  0  0  0  0  0
  -25.6139  -25.3595   19.0987 C   0  0  0  0  0  0  0  0  0  0  0  0
  -21.1804  -11.5344   21.4452 C   0  0  0  0  0  0  0  0  0  0  0  0
  -20.5041  -10.7179   22.2671 C   0  0  0  0  0  0  0  0  0  0  0  0
  -27.0403  -27.3503   18.5981 C   0  0  0  0  0  0  0  0  0  0  0  0
  -29.5330  -18.5363   19.9580 C   0  0  0  0  0  0  0  0  0  0  0  0
  -28.4984  -17.4062   22.6156 C   0  0  0  0  0  0  0  0  0  0  0  0
  -27.5700  -16.9088   25.8603 C   0  0  0  0  0  0  0  0  0  0  0  0
  -24.2388  -20.5179   21.2471 C   0  0  0  0  0  0  0  0  0  0  0  0
  -30.4344  -23.5607   19.9355 C   0  0  0  0  0  0  0  0  0  0  0  0
  -27.6408  -17.3203   18.9056 C   0  0  0  0  0  0  0  0  0  0  0  0
  -28.4786  -15.5187   20.9135 C   0  0  0  0  0  0  0  0  0  0  0  0
  -21.2364  -11.3356   19.9548 C   0  0  0  0  0  0  0  0  0  0  0  0
  -30.4011  -22.4623   20.9950 C   0  0  0  0  0  0  0  0  0  0  0  0
  -22.6809  -11.3635   19.4700 C   0  0  0  0  0  0  0  0  0  0  0  0
  -21.5140  -22.8152   20.6182 C   0  0  0  0  0  0  0  0  0  0  0  0
  -31.2183  -21.2571   20.5404 C   0  0  0  0  0  0  0  0  0  0  0  0
  -22.2693  -24.1220   20.3693 C   0  0  0  0  0  0  0  0  0  0  0  0
  -22.1854  -21.9881   21.7106 C   0  0  0  0  0  0  0  0  0  0  0  0
  -24.3799  -22.9921   21.2108 C   0  0  0  0  0  0  0  0  0  0  0  0
  -23.3388  -12.6359   21.5468 C   0  0  0  0  0  0  0  0  0  0  0  0
  -30.6400  -20.6512   19.2560 C   0  0  1  0  0  0  0  0  0  0  0  0
  -28.1942  -17.9096   20.2155 C   0  0  1  0  0  0  0  0  0  0  0  0
  -23.7637  -23.8632   20.1011 C   0  0  2  0  0  0  0  0  0  0  0  0
  -23.4304  -12.5750   20.0242 C   0  0  1  0  0  0  0  0  0  1  0  0
  -21.1326  -14.3466   24.7376 C   0  0  0  0  0  0  0  0  0  0  0  0
  -28.4648  -17.0093   28.2027 C   0  0  0  0  0  0  0  0  0  0  0  0
  -29.9934  -14.7881   22.1528 C   0  0  0  0  0  0  0  0  0  0  0  0
  -30.0424  -14.4598   24.6343 C   0  0  0  0  0  0  0  0  0  0  0  0
  -31.1881  -16.4276   23.6155 C   0  0  0  0  0  0  0  0  0  0  0  0
  -25.6033  -18.9758   26.6468 C   0  0  0  0  0  0  0  0  0  0  0  0
  -23.9444  -18.0552   21.3195 C   0  0  0  0  0  0  0  0  0  0  0  0
  -21.1802  -13.9272   21.8333 C   0  0  0  0  0  0  0  0  0  0  0  0
  -28.6618  -16.3702   23.6988 C   0  0  1  0  0  0  0  0  0  0  0  0
  -27.7418  -17.7675   27.1003 C   0  0  2  0  0  0  0  0  0  0  0  0
  -29.9467  -15.5149   23.5117 C   0  0  0  0  0  0  0  0  0  0  0  0
  -24.1414  -26.2538   20.5751 N   0  0  0  0  0  0  0  0  0  0  0  0
  -24.5318  -25.1570   19.9037 N   0  0  0  0  0  0  0  0  0  0  0  0
  -28.4195  -16.9375   21.2986 N   0  0  0  0  0  0  0  0  0  0  0  0
  -23.6007  -21.7618   21.3855 N   0  0  0  0  0  0  0  0  0  0  0  0
  -26.1369  -24.3627   18.3535 N   0  0  0  0  0  0  0  0  0  0  0  0
  -26.7969  -27.9651   17.3623 N   0  0  0  0  0  0  0  0  0  0  0  0
  -29.4680  -19.8565   19.5551 N   0  0  0  0  0  0  0  0  0  0  0  0
  -28.6032  -17.0913   24.9656 N   0  0  0  0  0  0  0  0  0  0  0  0
  -23.4319  -19.4024   21.4350 N   0  0  0  0  0  0  0  0  0  0  0  0
  -21.9112  -12.6290   22.0364 N   0  3  1  0  0  0  0  0  0  0  0  0
  -26.4132  -18.1986   27.6199 N   0  3  0  0  0  0  0  0  0  0  0  0
  -28.1955  -27.3878   19.0856 O   0  0  0  0  0  0  0  0  0  0  0  0
  -30.5511  -17.8725   20.1145 O   0  0  0  0  0  0  0  0  0  0  0  0
  -28.4475  -18.5999   22.9254 O   0  0  0  0  0  0  0  0  0  0  0  0
  -26.6167  -16.1492   25.7029 O   0  0  0  0  0  0  0  0  0  0  0  0
  -25.4384  -20.4092   20.9709 O   0  0  0  0  0  0  0  0  0  0  0  0
  -24.6700  -32.4020   22.1474 O   0  0  0  0  0  0  0  0  0  0  0  0
  -24.8064  -12.4812   19.6655 O   0  0  0  0  0  0  0  0  0  1  0  0
  -26.3702  -33.3083   27.3138 F   0  0  0  0  0  0  0  0  0  0  0  0
  -26.7277  -34.1717   22.6735 F   0  0  0  0  0  0  0  0  0  0  0  0
  1  2  1  0  0  0  0
  1  5  2  0  0  0  0
  2  6  2  0  0  0  0
  3 10  2  0  0  0  0
  3 18  1  0  0  0  0
  4 11  1  0  0  0  0
  4 18  2  0  0  0  0
  5 20  1  0  0  0  0
  6 22  1  0  0  0  0
  7 12  2  0  0  0  0
  7 21  1  0  0  0  0
  8  9  2  0  0  0  0
  8 24  1  0  0  0  0
  9 25  1  0  0  0  0
 10 27  1  0  0  0  0
 11 27  2  0  0  0  0
 12 28  1  0  0  0  0
 13 14  2  0  0  0  0
 13 29  1  0  0  0  0
 14 30  1  0  0  0  0
 15 23  1  0  0  0  0
 15 28  2  0  0  0  0
 16 24  2  0  0  0  0
 16 26  1  0  0  0  0
 17 30  2  0  0  0  0
 17 31  1  0  0  0  0
 18 32  1  0  0  0  0
 19 32  1  0  0  0  0
 19 33  2  0  0  0  0
 19 36  1  0  0  0  0
 20 22  2  0  0  0  0
 20 41  1  0  0  0  0
 21 23  2  0  0  0  0
 21 42  1  0  0  0  0
 22 53  1  0  0  0  0
 23 43  1  0  0  0  0
 24 63  1  0  0  0  0
 25 26  2  0  0  0  0
 25 57  1  0  0  0  0
 26 64  1  0  0  0  0
 27 84  1  0  0  0  0
 28 85  1  0  0  0  0
 29 31  2  0  0  0  0
 29 84  1  0  0  0  0
 30 86  1  0  0  0  0
 31 87  1  0  0  0  0
 32 68  2  0  0  0  0
 33 69  1  0  0  0  0
 33 72  1  0  0  0  0
 34 35  2  0  0  0  0
 34 44  1  0  0  0  0
 34 77  1  0  0  0  0
 36 73  1  0  0  0  0
 36 79  2  0  0  0  0
 37 54  1  0  0  0  0
 37 74  1  0  0  0  0
 37 80  2  0  0  0  0
 38 65  1  0  0  0  0
 38 70  1  0  0  0  0
 38 81  2  0  0  0  0
 39 66  1  0  0  0  0
 39 75  1  0  0  0  0
 39 82  2  0  0  0  0
 40 71  1  0  0  0  0
 40 76  1  0  0  0  0
 40 83  2  0  0  0  0
 41 45  1  0  0  0  0
 42 54  1  0  0  0  0
 43 70  1  0  0  0  0
 44 46  1  0  0  0  0
 45 48  1  0  0  0  0
 46 56  1  0  0  0  0
 47 49  1  0  0  0  0
 47 50  1  0  0  0  0
 48 53  1  0  0  0  0
 49 55  1  0  0  0  0
 50 71  1  0  0  0  0
 51 55  1  0  0  0  0
 51 71  1  0  0  0  0
 52 56  1  0  0  0  0
 52 77  1  0  0  0  0
 53 74  1  0  0  0  0
 54 70  1  0  0  0  0
 55 69  1  0  0  0  0
 56 85  1  0  0  0  0
 58 66  1  0  0  0  0
 59 67  1  0  0  0  0
 60 67  1  0  0  0  0
 61 67  1  0  0  0  0
 62 78  1  0  0  0  0
 63 76  1  0  0  0  0
 64 77  1  0  0  0  0
 65 67  1  0  0  0  0
 65 75  1  0  0  0  0
 66 78  1  0  0  0  0
 68 69  1  0  0  0  0
M  CHG  2  77   1  78   1
M  ISO  4  40 100  56 101  76 100  85 101
M  END
> <Batch ID>
0052

> <Smiles>
C=C1CC[101CH:1]([101O:1]c2ccc3c(c2)CN(C(=O)C(NC(=O)C(C)NC)C(C)(C)C)C(C(=O)NC2CCCc4ccccc42)C3)CN1Cc1cc(C[100NH:0][100C:0](=O)N2CCCC(n3nc(-c4ccc(Oc5ccc(F)cc5F)cc4)c(C(N)=O)c3N)C2)ccc1C

> <Shape>
0.223

> <Color>
0.057

> <Negative vol penalty>
0.000

$$$$

  -OEChem-04042322403D

 87 96  0     1  0  0  0  0  0999 V2000
  -34.0706  -10.6379   20.2430 C   0  0  0  0  0  0  0  0  0  0  0  0
  -33.3694  -11.8039   19.9526 C   0  0  0  0  0  0  0  0  0  0  0  0
  -23.4583  -29.7430   25.4165 C   0  0  0  0  0  0  0  0  0  0  0  0
  -22.7366  -31.1706   23.6060 C   0  0  0  0  0  0  0  0  0  0  0  0
  -33.4551   -9.3973   20.0822 C   0  0  0  0  0  0  0  0  0  0  0  0
  -32.0526  -11.7298   19.5000 C   0  0  0  0  0  0  0  0  0  0  0  0
  -29.0181  -15.0705   21.7972 C   0  0  0  0  0  0  0  0  0  0  0  0
  -22.1284  -29.5316   25.7800 C   0  0  0  0  0  0  0  0  0  0  0  0
  -21.4066  -30.9592   23.9695 C   0  0  0  0  0  0  0  0  0  0  0  0
  -29.0848  -16.3940   21.3641 C   0  0  0  0  0  0  0  0  0  0  0  0
  -19.0757  -28.5423   23.5875 C   0  0  0  0  0  0  0  0  0  0  0  0
  -18.1630  -28.2673   22.5692 C   0  0  0  0  0  0  0  0  0  0  0  0
  -27.0959  -16.0553   20.0417 C   0  0  0  0  0  0  0  0  0  0  0  0
  -31.2601  -25.2360   16.0141 C   0  0  0  0  0  0  0  0  0  0  0  0
  -29.6516  -25.1491   18.2917 C   0  0  0  0  0  0  0  0  0  0  0  0
  -16.8932  -30.2307   23.1773 C   0  0  0  0  0  0  0  0  0  0  0  0
  -23.7624  -30.5625   24.3295 C   0  0  0  0  0  0  0  0  0  0  0  0
  -26.1533  -31.3497   24.7441 C   0  0  0  0  0  0  0  0  0  0  0  0
  -32.1268   -9.3083   19.6367 C   0  0  0  0  0  0  0  0  0  0  0  0
  -27.9943  -14.2249   21.3464 C   0  0  0  0  0  0  0  0  0  0  0  0
  -31.4191  -10.4867   19.3318 C   0  0  0  0  0  0  0  0  0  0  0  0
  -27.0170  -14.7222   20.4725 C   0  0  0  0  0  0  0  0  0  0  0  0
  -30.7186  -26.4130   16.5307 C   0  0  0  0  0  0  0  0  0  0  0  0
  -30.1931  -23.9720   17.7750 C   0  0  0  0  0  0  0  0  0  0  0  0
  -29.9144  -26.3696   17.6696 C   0  0  0  0  0  0  0  0  0  0  0  0
  -21.1025  -30.1397   25.0565 C   0  0  0  0  0  0  0  0  0  0  0  0
  -28.1253  -16.8858   20.4840 C   0  0  0  0  0  0  0  0  0  0  0  0
  -18.8972  -29.6614   24.4008 C   0  0  0  0  0  0  0  0  0  0  0  0
  -17.0718  -29.1116   22.3641 C   0  0  0  0  0  0  0  0  0  0  0  0
  -17.8059  -30.5057   24.1956 C   0  0  0  0  0  0  0  0  0  0  0  0
  -30.9973  -24.0155   16.6362 C   0  0  0  0  0  0  0  0  0  0  0  0
  -25.1361  -30.7817   23.9538 C   0  0  0  0  0  0  0  0  0  0  0  0
  -27.2640  -31.3354   23.9363 C   0  0  0  0  0  0  0  0  0  0  0  0
  -29.2409  -21.6813   17.7658 C   0  0  0  0  0  0  0  0  0  0  0  0
  -26.0990  -31.8457   26.0882 C   0  0  0  0  0  0  0  0  0  0  0  0
  -27.8892  -11.5237   19.6742 C   0  0  0  0  0  0  0  0  0  0  0  0
  -24.7290  -11.6583   20.3934 C   0  0  0  0  0  0  0  0  0  0  0  0
  -22.0331  -13.5640   21.2582 C   0  0  0  0  0  0  0  0  0  0  0  0
  -28.5387  -27.6779   19.3369 C   0  0  0  0  0  0  0  0  0  0  0  0
  -31.5193   -7.9430   19.4330 C   0  0  0  0  0  0  0  0  0  0  0  0
  -27.9210  -12.8073   21.8439 C   0  0  0  0  0  0  0  0  0  0  0  0
  -25.8859  -13.8610   19.9750 C   0  0  0  0  0  0  0  0  0  0  0  0
  -29.2621  -20.3200   18.4377 C   0  0  0  0  0  0  0  0  0  0  0  0
  -29.9982   -7.9658   19.3068 C   0  0  0  0  0  0  0  0  0  0  0  0
  -27.7199  -31.4205   19.1197 C   0  0  0  0  0  0  0  0  0  0  0  0
  -29.5586   -9.0672   18.3473 C   0  0  0  0  0  0  0  0  0  0  0  0
  -27.7535  -31.7739   20.6047 C   0  0  0  0  0  0  0  0  0  0  0  0
  -30.2857  -21.2651   20.4649 C   0  0  0  0  0  0  0  0  0  0  0  0
  -28.5333  -30.1714   18.8048 C   0  0  0  0  0  0  0  0  0  0  0  0
  -30.1214  -22.6665   19.8982 C   0  0  0  0  0  0  0  0  0  0  0  0
  -27.2701  -29.2698   20.7663 C   0  0  0  0  0  0  0  0  0  0  0  0
  -29.9810  -10.4484   18.8624 C   0  0  1  0  0  0  0  0  0  0  0  0
  -27.1292  -11.8892   20.9178 C   0  0  1  0  0  0  0  0  0  0  0  0
  -29.1675  -20.3715   19.9537 C   0  0  2  0  0  0  0  0  0  0  0  0
  -27.7061  -30.5353   21.5211 C   0  0  2  0  0  0  0  0  0  0  0  0
  -31.0162  -27.7061   15.8435 C   0  0  0  0  0  0  0  0  0  0  0  0
  -19.5757  -13.3973   21.7387 C   0  0  0  0  0  0  0  0  0  0  0  0
  -24.1657  -11.3879   17.4068 C   0  0  0  0  0  0  0  0  0  0  0  0
  -21.8290  -12.1713   17.8475 C   0  0  0  0  0  0  0  0  0  0  0  0
  -22.6480  -10.0532   18.8797 C   0  0  0  0  0  0  0  0  0  0  0  0
  -22.3869  -14.5682   24.0195 C   0  0  0  0  0  0  0  0  0  0  0  0
  -29.2647  -18.9721   20.5554 C   0  0  0  0  0  0  0  0  0  1  0  0
  -23.5098  -12.2673   19.7440 C   0  0  1  0  0  0  0  0  0  0  0  0
  -20.9757  -13.3845   22.3325 C   0  0  2  0  0  0  0  0  0  0  0  0
  -23.0604  -11.4859   18.4772 C   0  0  0  0  0  0  0  0  0  0  0  0
  -25.5627  -30.4323   22.7373 N   0  0  0  0  0  0  0  0  0  0  0  0
  -26.8603  -30.7817   22.7571 N   0  0  0  0  0  0  0  0  0  0  0  0
  -29.8984  -22.7224   18.4435 N   0  0  0  0  0  0  0  0  0  0  0  0
  -25.8612  -12.4802   20.4851 N   0  0  0  0  0  0  0  0  0  0  0  0
  -28.1446  -29.0093   19.6170 N   0  0  0  0  0  0  0  0  0  0  0  0
  -28.5369  -31.7427   24.1267 N   0  0  0  0  0  0  0  0  0  0  0  0
  -25.7791  -33.1953   26.2900 N   0  0  0  0  0  0  0  0  0  0  0  0
  -29.3565  -27.5549   18.2105 N   0  0  0  0  0  0  0  0  0  0  0  0
  -29.0921  -10.8883   19.9164 N   0  0  0  0  0  0  0  0  0  0  0  0
  -22.4920  -12.3525   20.7858 N   0  0  0  0  0  0  0  0  0  0  0  0
  -21.0692  -14.4793   23.3393 N   0  3  0  0  0  0  0  0  0  0  0  0
  -28.7076  -21.7725   16.6567 O   0  0  0  0  0  0  0  0  0  0  0  0
  -26.3434  -31.1178   27.0801 O   0  0  0  0  0  0  0  0  0  0  0  0
  -27.4183  -11.7965   18.5763 O   0  0  0  0  0  0  0  0  0  0  0  0
  -24.6763  -10.4987   20.8106 O   0  0  0  0  0  0  0  0  0  0  0  0
  -22.4113  -14.6683   20.8736 O   0  0  0  0  0  0  0  0  0  0  0  0
  -28.1867  -26.7348   20.0487 O   0  0  0  0  0  0  0  0  0  0  0  0
  -19.8046  -29.9334   25.4108 O   0  0  0  0  0  0  0  0  0  0  0  0
  -28.1885  -18.1771   20.0593 O   0  0  0  0  0  0  0  0  0  1  0  0
  -16.1962  -28.8483   21.3852 F   0  0  0  0  0  0  0  0  0  0  0  0
  -17.6298  -31.5830   24.9729 F   0  0  0  0  0  0  0  0  0  0  0  0
  -31.6872  -22.5816   15.9631 Cl  0  0  0  0  0  0  0  0  0  0  0  0
  1  2  1  0  0  0  0
  1  5  2  0  0  0  0
  2  6  2  0  0  0  0
  3  8  2  0  0  0  0
  3 17  1  0  0  0  0
  4  9  1  0  0  0  0
  4 17  2  0  0  0  0
  5 19  1  0  0  0  0
  6 21  1  0  0  0  0
  7 10  2  0  0  0  0
  7 20  1  0  0  0  0
  8 26  1  0  0  0  0
  9 26  2  0  0  0  0
 10 27  1  0  0  0  0
 11 12  2  0  0  0  0
 11 28  1  0  0  0  0
 12 29  1  0  0  0  0
 13 22  1  0  0  0  0
 13 27  2  0  0  0  0
 14 23  2  0  0  0  0
 14 31  1  0  0  0  0
 15 24  1  0  0  0  0
 15 25  2  0  0  0  0
 16 29  2  0  0  0  0
 16 30  1  0  0  0  0
 17 32  1  0  0  0  0
 18 32  1  0  0  0  0
 18 33  2  0  0  0  0
 18 35  1  0  0  0  0
 19 21  2  0  0  0  0
 19 40  1  0  0  0  0
 20 22  2  0  0  0  0
 20 41  1  0  0  0  0
 21 52  1  0  0  0  0
 22 42  1  0  0  0  0
 23 25  1  0  0  0  0
 23 56  1  0  0  0  0
 24 31  2  0  0  0  0
 24 68  1  0  0  0  0
 25 73  1  0  0  0  0
 26 83  1  0  0  0  0
 27 84  1  0  0  0  0
 28 30  2  0  0  0  0
 28 83  1  0  0  0  0
 29 85  1  0  0  0  0
 30 86  1  0  0  0  0
 31 87  1  0  0  0  0
 32 66  2  0  0  0  0
 33 67  1  0  0  0  0
 33 71  1  0  0  0  0
 34 43  1  0  0  0  0
 34 68  1  0  0  0  0
 34 77  2  0  0  0  0
 35 72  1  0  0  0  0
 35 78  2  0  0  0  0
 36 53  1  0  0  0  0
 36 74  1  0  0  0  0
 36 79  2  0  0  0  0
 37 63  1  0  0  0  0
 37 69  1  0  0  0  0
 37 80  2  0  0  0  0
 38 64  1  0  0  0  0
 38 75  1  0  0  0  0
 38 81  2  0  0  0  0
 39 70  1  0  0  0  0
 39 73  1  0  0  0  0
 39 82  2  0  0  0  0
 40 44  1  0  0  0  0
 41 53  1  0  0  0  0
 42 69  1  0  0  0  0
 43 54  1  0  0  0  0
 44 46  1  0  0  0  0
 45 47  1  0  0  0  0
 45 49  1  0  0  0  0
 46 52  1  0  0  0  0
 47 55  1  0  0  0  0
 48 50  1  0  0  0  0
 48 54  1  0  0  0  0
 49 70  1  0  0  0  0
 50 68  1  0  0  0  0
 51 55  1  0  0  0  0
 51 70  1  0  0  0  0
 52 74  1  0  0  0  0
 53 69  1  0  0  0  0
 54 62  1  0  0  0  0
 55 67  1  0  0  0  0
 57 64  1  0  0  0  0
 58 65  1  0  0  0  0
 59 65  1  0  0  0  0
 60 65  1  0  0  0  0
 61 76  1  0  0  0  0
 62 84  1  0  0  0  0
 63 65  1  0  0  0  0
 63 75  1  0  0  0  0
 64 76  1  0  0  0  0
 66 67  1  0  0  0  0
M  CHG  1  76   1
M  ISO  4  39 100  62 101  73 100  84 101
M  END
> <Batch ID>
0052

> <Smiles>
CNC(C)C(=O)NC(C(=O)N1Cc2cc([101O:1][101CH2:1]C3CCN(c4cc([100NH:0][100C:0](=O)N5CCCC(n6nc(-c7ccc(Oc8ccc(F)cc8F)cc7)c(C(N)=O)c6N)C5)c(C)cc4Cl)C(=O)C3)ccc2CC1C(=O)NC1CCCc2ccccc21)C(C)(C)C

> <Shape>
0.296

> <Color>
0.059

> <Negative vol penalty>
0.000

$$$$

  -OEChem-04042322403D

 89 98  0     1  0  0  0  0  0999 V2000
  -22.7813  -30.9449   24.3801 C   0  0  0  0  0  0  0  0  0  0  0  0
  -22.5390  -29.5764   24.3190 C   0  0  0  0  0  0  0  0  0  0  0  0
  -30.4944  -12.5425   18.9596 C   0  0  0  0  0  0  0  0  0  0  0  0
  -29.3018  -11.8977   18.6317 C   0  0  0  0  0  0  0  0  0  0  0  0
  -23.2627  -20.1438   24.9993 C   0  0  0  0  0  0  0  0  0  0  0  0
  -25.3031  -18.9291   25.4446 C   0  0  0  0  0  0  0  0  0  0  0  0
  -23.5299  -31.5646   23.3804 C   0  0  0  0  0  0  0  0  0  0  0  0
  -23.0443  -28.8268   23.2573 C   0  0  0  0  0  0  0  0  0  0  0  0
  -27.4851  -23.2753   24.4199 C   0  0  0  0  0  0  0  0  0  0  0  0
  -30.5375  -13.4205   20.0427 C   0  0  0  0  0  0  0  0  0  0  0  0
  -28.1524  -12.1308   19.3867 C   0  0  0  0  0  0  0  0  0  0  0  0
  -23.3050  -20.6859   26.2838 C   0  0  0  0  0  0  0  0  0  0  0  0
  -25.3455  -19.4713   26.7291 C   0  0  0  0  0  0  0  0  0  0  0  0
  -28.1707  -22.0699   24.5726 C   0  0  0  0  0  0  0  0  0  0  0  0
  -24.9577  -23.1600   27.8901 C   0  0  0  0  0  0  0  0  0  0  0  0
  -24.7088  -24.5257   28.0258 C   0  0  0  0  0  0  0  0  0  0  0  0
  -28.3274  -21.8425   22.1701 C   0  0  0  0  0  0  0  0  0  0  0  0
  -22.8231  -24.0399   29.4559 C   0  0  0  0  0  0  0  0  0  0  0  0
  -24.2617  -19.2653   24.5797 C   0  0  0  0  0  0  0  0  0  0  0  0
  -24.2380  -19.4059   22.0327 C   0  0  0  0  0  0  0  0  0  0  0  0
  -24.0528  -30.8206   22.3110 C   0  0  0  0  0  0  0  0  0  0  0  0
  -27.2312  -23.7771   23.1404 C   0  0  0  0  0  0  0  0  0  0  0  0
  -23.7995  -29.4373   22.2415 C   0  0  0  0  0  0  0  0  0  0  0  0
  -27.6520  -23.0555   22.0112 C   0  0  0  0  0  0  0  0  0  0  0  0
  -29.3881  -13.6536   20.7977 C   0  0  0  0  0  0  0  0  0  0  0  0
  -28.1955  -13.0088   20.4697 C   0  0  0  0  0  0  0  0  0  0  0  0
  -24.3464  -20.3497   27.1487 C   0  0  0  0  0  0  0  0  0  0  0  0
  -28.5906  -21.3553   23.4504 C   0  0  0  0  0  0  0  0  0  0  0  0
  -24.1392  -22.2342   28.5372 C   0  0  0  0  0  0  0  0  0  0  0  0
  -23.6415  -24.9657   28.8087 C   0  0  0  0  0  0  0  0  0  0  0  0
  -23.0720  -22.6741   29.3202 C   0  0  0  0  0  0  0  0  0  0  0  0
  -24.2182  -18.7045   23.2532 C   0  0  0  0  0  0  0  0  0  0  0  0
  -24.1785  -18.4257   21.0724 C   0  0  0  0  0  0  0  0  0  0  0  0
  -29.6929  -16.7607   20.8777 C   0  0  0  0  0  0  0  0  0  0  0  0
  -28.0030  -16.3946   17.6381 C   0  0  0  0  0  0  0  0  0  0  0  0
  -29.4047  -16.9040   19.5754 C   0  0  0  0  0  0  0  0  0  0  0  0
  -28.2899  -16.2513   18.9368 C   0  0  0  0  0  0  0  0  0  0  0  0
  -24.3044  -20.8172   21.7888 C   0  0  0  0  0  0  0  0  0  0  0  0
  -25.7463  -26.5261   21.0635 C   0  0  0  0  0  0  0  0  0  0  0  0
  -28.3917  -25.7309   19.7293 C   0  0  0  0  0  0  0  0  0  0  0  0
  -31.5574  -24.8513   18.8118 C   0  0  0  0  0  0  0  0  0  0  0  0
  -25.7608  -12.6639   21.0170 C   0  0  0  0  0  0  0  0  0  0  0  0
  -24.8161  -31.5426   21.2290 C   0  0  0  0  0  0  0  0  0  0  0  0
  -26.4422  -25.0404   22.9276 C   0  0  0  0  0  0  0  0  0  0  0  0
  -27.3265  -23.6165   20.6539 C   0  0  0  0  0  0  0  0  0  0  0  0
  -30.8587  -17.4440   21.5429 C   0  0  0  0  0  0  0  0  0  0  0  0
  -25.6325  -30.6125   20.3353 C   0  0  0  0  0  0  0  0  0  0  0  0
  -22.5253  -13.9901   20.3465 C   0  0  0  0  0  0  0  0  0  0  0  0
  -24.7938  -29.4130   19.9056 C   0  0  0  0  0  0  0  0  0  0  0  0
  -22.5960  -15.4154   20.8992 C   0  0  0  0  0  0  0  0  0  0  0  0
  -29.5227  -17.2998   23.6763 C   0  0  0  0  0  0  0  0  0  0  0  0
  -23.3074  -13.0058   21.2143 C   0  0  0  0  0  0  0  0  0  0  0  0
  -24.7717  -14.8097   22.0333 C   0  0  0  0  0  0  0  0  0  0  0  0
  -28.3598  -16.6767   22.9035 C   0  0  0  0  0  0  0  0  0  0  0  0
  -24.3517  -28.5859   21.1189 C   0  0  1  0  0  0  0  0  0  0  0  0
  -26.9206  -25.8530   21.7111 C   0  0  1  0  0  0  0  0  0  0  0  0
  -24.0526  -15.8483   21.1570 C   0  0  2  0  0  0  0  0  0  0  0  0
  -30.4191  -18.2130   22.8075 C   0  0  1  0  0  0  0  0  0  0  0  0
  -31.6650  -18.6169   23.6157 C   0  0  0  0  0  0  0  0  0  0  0  0
  -33.3169  -25.3399   17.0905 C   0  0  0  0  0  0  0  0  0  0  0  0
  -26.8400  -24.0866   17.6818 C   0  0  0  0  0  0  0  0  0  0  0  0
  -28.9706  -23.8068   16.3971 C   0  0  0  0  0  0  0  0  0  0  0  0
  -28.0141  -26.0847   16.7419 C   0  0  0  0  0  0  0  0  0  0  0  0
  -33.4711  -25.7887   20.8655 C   0  0  0  0  0  0  0  0  0  0  0  0
  -29.4640  -14.6030   21.9570 C   0  0  0  0  0  0  0  0  0  0  0  0
  -29.6643  -19.5007   22.4184 C   0  0  0  0  0  0  0  0  0  1  0  0
  -29.0796  -24.8795   18.6923 C   0  0  1  0  0  0  0  0  0  0  0  0
  -32.7762  -25.6886   18.4685 C   0  0  2  0  0  0  0  0  0  0  0  0
  -28.2244  -24.7062   17.4055 C   0  0  0  0  0  0  0  0  0  0  0  0
  -24.1511  -17.3810   23.0863 N   0  0  0  0  0  0  0  0  0  0  0  0
  -24.1282  -17.2429   21.7497 N   0  0  0  0  0  0  0  0  0  0  0  0
  -27.5607  -25.0689   20.6412 N   0  0  0  0  0  0  0  0  0  0  0  0
  -24.6791  -13.4791   21.4121 N   0  0  0  0  0  0  0  0  0  0  0  0
  -24.1646  -18.4687   19.7232 N   0  0  0  0  0  0  0  0  0  0  0  0
  -24.3601  -21.6835   22.8892 N   0  0  0  0  0  0  0  0  0  0  0  0
  -27.0171  -13.2325   21.2242 N   0  0  0  0  0  0  0  0  0  0  0  0
  -25.4438  -27.7648   21.5959 N   0  0  0  0  0  0  0  0  0  0  0  0
  -30.3853  -25.4892   18.4645 N   0  0  0  0  0  0  0  0  0  0  0  0
  -28.8212  -15.9327   21.6728 N   0  3  2  0  0  0  0  0  0  0  0  0
  -33.8579  -25.4632   19.4686 N   0  3  0  0  0  0  0  0  0  0  0  0
  -24.2974  -21.2967   20.6297 O   0  0  0  0  0  0  0  0  0  0  0  0
  -25.1579  -25.9646   20.1469 O   0  0  0  0  0  0  0  0  0  0  0  0
  -28.5797  -26.9507   19.7294 O   0  0  0  0  0  0  0  0  0  0  0  0
  -31.6372  -23.7408   19.3323 O   0  0  0  0  0  0  0  0  0  0  0  0
  -25.5847  -11.5551   20.5056 O   0  0  0  0  0  0  0  0  0  0  0  0
  -24.3881  -20.8787   28.4021 O   0  0  0  0  0  0  0  0  0  0  0  0
  -29.2634  -20.1815   23.6067 O   0  0  0  0  0  0  0  0  0  1  0  0
  -23.4035  -26.2773   28.9403 F   0  0  0  0  0  0  0  0  0  0  0  0
  -22.2830  -21.7895   29.9452 F   0  0  0  0  0  0  0  0  0  0  0  0
  1  2  1  0  0  0  0
  1  7  2  0  0  0  0
  2  8  2  0  0  0  0
  3  4  1  0  0  0  0
  3 10  2  0  0  0  0
  4 11  2  0  0  0  0
  5 12  2  0  0  0  0
  5 19  1  0  0  0  0
  6 13  1  0  0  0  0
  6 19  2  0  0  0  0
  7 21  1  0  0  0  0
  8 23  1  0  0  0  0
  9 14  2  0  0  0  0
  9 22  1  0  0  0  0
 10 25  1  0  0  0  0
 11 26  1  0  0  0  0
 12 27  1  0  0  0  0
 13 27  2  0  0  0  0
 14 28  1  0  0  0  0
 15 16  2  0  0  0  0
 15 29  1  0  0  0  0
 16 30  1  0  0  0  0
 17 24  1  0  0  0  0
 17 28  2  0  0  0  0
 18 30  2  0  0  0  0
 18 31  1  0  0  0  0
 19 32  1  0  0  0  0
 20 32  1  0  0  0  0
 20 33  2  0  0  0  0
 20 38  1  0  0  0  0
 21 23  2  0  0  0  0
 21 43  1  0  0  0  0
 22 24  2  0  0  0  0
 22 44  1  0  0  0  0
 23 55  1  0  0  0  0
 24 45  1  0  0  0  0
 25 26  2  0  0  0  0
 25 65  1  0  0  0  0
 26 76  1  0  0  0  0
 27 86  1  0  0  0  0
 28 87  1  0  0  0  0
 29 31  2  0  0  0  0
 29 86  1  0  0  0  0
 30 88  1  0  0  0  0
 31 89  1  0  0  0  0
 32 70  2  0  0  0  0
 33 71  1  0  0  0  0
 33 74  1  0  0  0  0
 34 36  2  0  0  0  0
 34 46  1  0  0  0  0
 34 79  1  0  0  0  0
 35 37  2  0  0  0  0
 36 37  1  0  0  0  0
 38 75  1  0  0  0  0
 38 81  2  0  0  0  0
 39 56  1  0  0  0  0
 39 77  1  0  0  0  0
 39 82  2  0  0  0  0
 40 67  1  0  0  0  0
 40 72  1  0  0  0  0
 40 83  2  0  0  0  0
 41 68  1  0  0  0  0
 41 78  1  0  0  0  0
 41 84  2  0  0  0  0
 42 73  1  0  0  0  0
 42 76  1  0  0  0  0
 42 85  2  0  0  0  0
 43 47  1  0  0  0  0
 44 56  1  0  0  0  0
 45 72  1  0  0  0  0
 46 58  1  0  0  0  0
 47 49  1  0  0  0  0
 48 50  1  0  0  0  0
 48 52  1  0  0  0  0
 49 55  1  0  0  0  0
 50 57  1  0  0  0  0
 51 54  1  0  0  0  0
 51 58  1  0  0  0  0
 52 73  1  0  0  0  0
 53 57  1  0  0  0  0
 53 73  1  0  0  0  0
 54 79  1  0  0  0  0
 55 77  1  0  0  0  0
 56 72  1  0  0  0  0
 57 71  1  0  0  0  0
 58 59  1  0  0  0  0
 58 66  1  0  0  0  0
 60 68  1  0  0  0  0
 61 69  1  0  0  0  0
 62 69  1  0  0  0  0
 63 69  1  0  0  0  0
 64 80  1  0  0  0  0
 65 79  1  0  0  0  0
 66 87  1  0  0  0  0
 67 69  1  0  0  0  0
 67 78  1  0  0  0  0
 68 80  1  0  0  0  0
 70 71  1  0  0  0  0
M  CHG  2  79   1  80   1
M  ISO  4  42 100  66 101  76 100  87 101
M  END
> <Batch ID>
0052

> <Smiles>
C=CC=C1CC(C)([101CH2:1][101O:1]c2ccc3c(c2)CN(C(=O)C(NC(=O)C(C)NC)C(C)(C)C)C(C(=O)NC2CCCc4ccccc42)C3)CCN1Cc1ccccc1[100NH:0][100C:0](=O)N1CCCC(n2nc(-c3ccc(Oc4ccc(F)cc4F)cc3)c(C(N)=O)c2N)C1

> <Shape>
0.199

> <Color>
0.066

> <Negative vol penalty>
0.000

$$$$

  -OEChem-04042322403D

 85 93  0     1  0  0  0  0  0999 V2000
  -24.3165   -6.6587   23.9654 C   0  0  0  0  0  0  0  0  0  0  0  0
  -25.4714   -7.3819   23.6852 C   0  0  0  0  0  0  0  0  0  0  0  0
  -24.4403  -30.6698   20.3785 C   0  0  0  0  0  0  0  0  0  0  0  0
  -24.1903  -29.3138   22.3624 C   0  0  0  0  0  0  0  0  0  0  0  0
  -31.2847  -21.1241   20.0995 C   0  0  0  0  0  0  0  0  0  0  0  0
  -23.1514   -6.8988   23.2383 C   0  0  0  0  0  0  0  0  0  0  0  0
  -25.4622   -8.3450   22.6768 C   0  0  0  0  0  0  0  0  0  0  0  0
  -28.5597  -13.6276   22.6027 C   0  0  0  0  0  0  0  0  0  0  0  0
  -30.0218  -21.6959   20.2527 C   0  0  0  0  0  0  0  0  0  0  0  0
  -23.5754  -31.6210   20.9196 C   0  0  0  0  0  0  0  0  0  0  0  0
  -23.3254  -30.2650   22.9036 C   0  0  0  0  0  0  0  0  0  0  0  0
  -29.7597  -14.0029   22.0002 C   0  0  0  0  0  0  0  0  0  0  0  0
  -21.7169  -34.5770   21.9310 C   0  0  0  0  0  0  0  0  0  0  0  0
  -22.0834  -35.9190   21.8297 C   0  0  0  0  0  0  0  0  0  0  0  0
  -28.5314  -14.9069   20.1311 C   0  0  0  0  0  0  0  0  0  0  0  0
  -29.3494  -20.7828   18.1193 C   0  0  0  0  0  0  0  0  0  0  0  0
  -24.0946  -35.4647   23.0891 C   0  0  0  0  0  0  0  0  0  0  0  0
  -24.7477  -29.5162   21.0999 C   0  0  0  0  0  0  0  0  0  0  0  0
  -31.5801  -20.3817   18.9561 C   0  0  0  0  0  0  0  0  0  0  0  0
  -27.0404  -28.4790   20.6810 C   0  0  0  0  0  0  0  0  0  0  0  0
  -23.1252   -7.8721   22.2270 C   0  0  0  0  0  0  0  0  0  0  0  0
  -27.3351  -13.8797   21.9678 C   0  0  0  0  0  0  0  0  0  0  0  0
  -24.2960   -8.5974   21.9345 C   0  0  0  0  0  0  0  0  0  0  0  0
  -27.3172  -14.5360   20.7289 C   0  0  0  0  0  0  0  0  0  0  0  0
  -30.6125  -20.2110   17.9660 C   0  0  0  0  0  0  0  0  0  0  0  0
  -29.0541  -21.5252   19.2627 C   0  0  0  0  0  0  0  0  0  0  0  0
  -23.0180  -31.4186   22.1821 C   0  0  0  0  0  0  0  0  0  0  0  0
  -29.7458  -14.6401   20.7629 C   0  0  0  0  0  0  0  0  0  0  0  0
  -22.5391  -33.6788   22.6115 C   0  0  0  0  0  0  0  0  0  0  0  0
  -23.2723  -36.3628   22.4087 C   0  0  0  0  0  0  0  0  0  0  0  0
  -23.7279  -34.1227   23.1905 C   0  0  0  0  0  0  0  0  0  0  0  0
  -25.6407  -28.5330   20.5413 C   0  0  0  0  0  0  0  0  0  0  0  0
  -27.4140  -27.3659   19.9683 C   0  0  0  0  0  0  0  0  0  0  0  0
  -27.9240  -29.3566   21.3916 C   0  0  0  0  0  0  0  0  0  0  0  0
  -32.9195  -19.7908   18.8204 C   0  0  0  0  0  0  0  0  0  0  0  0
  -24.9656  -12.0703   20.8652 C   0  0  0  0  0  0  0  0  0  0  0  0
  -23.5310  -14.9362   20.3646 C   0  0  0  0  0  0  0  0  0  0  0  0
  -32.2302  -17.6262   19.9677 C   0  0  0  0  0  0  0  0  0  0  0  0
  -23.8657  -18.2944   19.8573 C   0  0  0  0  0  0  0  0  0  0  0  0
  -26.6972  -22.0340   18.5330 C   0  0  0  0  0  0  0  0  0  0  0  0
  -21.8553   -8.0631   21.4361 C   0  0  0  0  0  0  0  0  0  0  0  0
  -26.0481  -13.4925   22.6433 C   0  0  0  0  0  0  0  0  0  0  0  0
  -26.0281  -14.8479   20.0152 C   0  0  0  0  0  0  0  0  0  0  0  0
  -21.8255   -9.3631   20.6365 C   0  0  0  0  0  0  0  0  0  0  0  0
  -24.7724  -24.4594   16.7752 C   0  0  0  0  0  0  0  0  0  0  0  0
  -23.1406   -9.5606   19.8893 C   0  0  0  0  0  0  0  0  0  0  0  0
  -24.9419  -25.7310   17.6098 C   0  0  0  0  0  0  0  0  0  0  0  0
  -24.6937  -23.2114   17.6527 C   0  0  0  0  0  0  0  0  0  0  0  0
  -25.9664  -24.3258   19.4436 C   0  0  0  0  0  0  0  0  0  0  0  0
  -24.3188   -9.6677   20.8650 C   0  0  1  0  0  0  0  0  0  0  0  0
  -24.8848  -13.3375   21.6686 C   0  0  1  0  0  0  0  0  0  0  0  0
  -26.1157  -25.6026   18.6003 C   0  0  2  0  0  0  0  0  0  0  0  0
  -30.9031  -19.4218   16.7313 C   0  0  0  0  0  0  0  0  0  0  0  0
  -22.5150  -20.3683   19.4429 C   0  0  0  0  0  0  0  0  0  0  0  0
  -23.0965  -14.0721   17.4707 C   0  0  0  0  0  0  0  0  0  0  0  0
  -22.6355  -16.4654   16.8984 C   0  0  0  0  0  0  0  0  0  0  0  0
  -21.1561  -15.2622   18.5066 C   0  0  0  0  0  0  0  0  0  0  0  0
  -24.8455  -19.5690   22.3421 C   0  0  0  0  0  0  0  0  0  0  0  0
  -32.9248  -16.3221   20.3339 C   0  0  0  0  0  0  0  0  0  0  0  0
  -32.0037  -15.3357   21.0351 C   0  0  0  0  0  0  0  0  0  1  0  0
  -23.4876  -15.9255   19.2251 C   0  0  1  0  0  0  0  0  0  0  0  0
  -23.1685  -19.4836   20.4931 C   0  0  2  0  0  0  0  0  0  0  0  0
  -22.6185  -15.4238   18.0375 C   0  0  0  0  0  0  0  0  0  0  0  0
  -25.1578  -27.5337   19.7980 N   0  0  0  0  0  0  0  0  0  0  0  0
  -26.2603  -26.8414   19.4643 N   0  0  0  0  0  0  0  0  0  0  0  0
  -24.7965  -14.4438   20.7134 N   0  0  0  0  0  0  0  0  0  0  0  0
  -25.8403  -23.1546   18.5621 N   0  0  0  0  0  0  0  0  0  0  0  0
  -28.6135  -26.7945   19.7297 N   0  0  0  0  0  0  0  0  0  0  0  0
  -27.3739  -30.4524   22.0703 N   0  0  0  0  0  0  0  0  0  0  0  0
  -27.7714  -22.1065   19.4193 N   0  0  0  0  0  0  0  0  0  0  0  0
  -33.1242  -18.5027   19.3224 N   0  0  0  0  0  0  0  0  0  0  0  0
  -24.3592  -10.9837   21.4659 N   0  0  0  0  0  0  0  0  0  0  0  0
  -23.0417  -17.1903   19.7994 N   0  0  0  0  0  0  0  0  0  0  0  0
  -24.1452  -20.3075   21.2599 N   0  3  0  0  0  0  0  0  0  0  0  0
  -29.1663  -29.1836   21.4100 O   0  0  0  0  0  0  0  0  0  0  0  0
  -25.5347  -12.0783   19.7800 O   0  0  0  0  0  0  0  0  0  0  0  0
  -22.4815  -14.6177   20.9292 O   0  0  0  0  0  0  0  0  0  0  0  0
  -31.0498  -17.8480   20.2178 O   0  0  0  0  0  0  0  0  0  0  0  0
  -25.0241  -18.3414   19.4492 O   0  0  0  0  0  0  0  0  0  0  0  0
  -26.5084  -21.0926   17.7583 O   0  0  0  0  0  0  0  0  0  0  0  0
  -22.1742  -32.3467   22.7106 O   0  0  0  0  0  0  0  0  0  0  0  0
  -30.9156  -15.0070   20.1723 O   0  0  0  0  0  0  0  0  0  1  0  0
  -23.6250  -37.6513   22.3099 F   0  0  0  0  0  0  0  0  0  0  0  0
  -24.5225  -33.2643   23.8444 F   0  0  0  0  0  0  0  0  0  0  0  0
  -34.1757  -20.6274   18.0829 S   0  0  0  0  0  0  0  0  0  0  0  0
  1  2  1  0  0  0  0
  1  6  2  0  0  0  0
  2  7  2  0  0  0  0
  3 10  2  0  0  0  0
  3 18  1  0  0  0  0
  4 11  1  0  0  0  0
  4 18  2  0  0  0  0
  5  9  2  0  0  0  0
  5 19  1  0  0  0  0
  6 21  1  0  0  0  0
  7 23  1  0  0  0  0
  8 12  2  0  0  0  0
  8 22  1  0  0  0  0
  9 26  1  0  0  0  0
 10 27  1  0  0  0  0
 11 27  2  0  0  0  0
 12 28  1  0  0  0  0
 13 14  2  0  0  0  0
 13 29  1  0  0  0  0
 14 30  1  0  0  0  0
 15 24  1  0  0  0  0
 15 28  2  0  0  0  0
 16 25  1  0  0  0  0
 16 26  2  0  0  0  0
 17 30  2  0  0  0  0
 17 31  1  0  0  0  0
 18 32  1  0  0  0  0
 19 25  2  0  0  0  0
 19 35  1  0  0  0  0
 20 32  1  0  0  0  0
 20 33  2  0  0  0  0
 20 34  1  0  0  0  0
 21 23  2  0  0  0  0
 21 41  1  0  0  0  0
 22 24  2  0  0  0  0
 22 42  1  0  0  0  0
 23 50  1  0  0  0  0
 24 43  1  0  0  0  0
 25 53  1  0  0  0  0
 26 70  1  0  0  0  0
 27 81  1  0  0  0  0
 28 82  1  0  0  0  0
 29 31  2  0  0  0  0
 29 81  1  0  0  0  0
 30 83  1  0  0  0  0
 31 84  1  0  0  0  0
 32 64  2  0  0  0  0
 33 65  1  0  0  0  0
 33 68  1  0  0  0  0
 34 69  1  0  0  0  0
 34 75  2  0  0  0  0
 35 71  1  0  0  0  0
 35 85  2  0  0  0  0
 36 51  1  0  0  0  0
 36 72  1  0  0  0  0
 36 76  2  0  0  0  0
 37 61  1  0  0  0  0
 37 66  1  0  0  0  0
 37 77  2  0  0  0  0
 38 59  1  0  0  0  0
 38 71  1  0  0  0  0
 38 78  2  0  0  0  0
 39 62  1  0  0  0  0
 39 73  1  0  0  0  0
 39 79  2  0  0  0  0
 40 67  1  0  0  0  0
 40 70  1  0  0  0  0
 40 80  2  0  0  0  0
 41 44  1  0  0  0  0
 42 51  1  0  0  0  0
 43 66  1  0  0  0  0
 44 46  1  0  0  0  0
 45 47  1  0  0  0  0
 45 48  1  0  0  0  0
 46 50  1  0  0  0  0
 47 52  1  0  0  0  0
 48 67  1  0  0  0  0
 49 52  1  0  0  0  0
 49 67  1  0  0  0  0
 50 72  1  0  0  0  0
 51 66  1  0  0  0  0
 52 65  1  0  0  0  0
 54 62  1  0  0  0  0
 55 63  1  0  0  0  0
 56 63  1  0  0  0  0
 57 63  1  0  0  0  0
 58 74  1  0  0  0  0
 59 60  1  0  0  0  0
 60 82  1  0  0  0  0
 61 63  1  0  0  0  0
 61 73  1  0  0  0  0
 62 74  1  0  0  0  0
 64 65  1  0  0  0  0
M  CHG  1  74   1
M  ISO  4  40 100  60 101  70 100  82 101
M  END
> <Batch ID>
0052

> <Smiles>
CNC(C)C(=O)NC(C(=O)N1Cc2cc([101O:1][101CH2:1]CC(=O)NC(=S)c3ccc([100NH:0][100C:0](=O)N4CCCC(n5nc(-c6ccc(Oc7ccc(F)cc7F)cc6)c(C(N)=O)c5N)C4)cc3C)ccc2CC1C(=O)NC1CCCc2ccccc21)C(C)(C)C

> <Shape>
0.238

> <Color>
0.099

> <Negative vol penalty>
0.000

$$$$

  -OEChem-04042322403D

 85 93  0     1  0  0  0  0  0999 V2000
  -32.3272  -31.9840   20.6094 C   0  0  0  0  0  0  0  0  0  0  0  0
  -31.4630  -31.0548   20.0390 C   0  0  0  0  0  0  0  0  0  0  0  0
  -26.6509  -12.4520   21.8039 C   0  0  0  0  0  0  0  0  0  0  0  0
  -25.9418  -13.9520   20.0477 C   0  0  0  0  0  0  0  0  0  0  0  0
  -32.1162  -32.4196   21.9169 C   0  0  0  0  0  0  0  0  0  0  0  0
  -30.3879  -30.5599   20.7763 C   0  0  0  0  0  0  0  0  0  0  0  0
  -26.0904  -30.4356   18.1004 C   0  0  0  0  0  0  0  0  0  0  0  0
  -25.3826  -11.8716   21.8203 C   0  0  0  0  0  0  0  0  0  0  0  0
  -24.6735  -13.3716   20.0641 C   0  0  0  0  0  0  0  0  0  0  0  0
  -25.9373  -29.3911   17.1897 C   0  0  0  0  0  0  0  0  0  0  0  0
  -23.6480   -9.6236   19.9844 C   0  0  0  0  0  0  0  0  0  0  0  0
  -23.5727   -8.2314   20.0251 C   0  0  0  0  0  0  0  0  0  0  0  0
  -27.9227  -23.9990   20.1942 C   0  0  0  0  0  0  0  0  0  0  0  0
  -24.5490  -28.2190   18.7766 C   0  0  0  0  0  0  0  0  0  0  0  0
  -29.0912  -22.6978   21.8611 C   0  0  0  0  0  0  0  0  0  0  0  0
  -22.3641   -8.3578   22.1132 C   0  0  0  0  0  0  0  0  0  0  0  0
  -26.9305  -13.4922   20.9176 C   0  0  0  0  0  0  0  0  0  0  0  0
  -27.9089  -22.8949   19.3420 C   0  0  0  0  0  0  0  0  0  0  0  0
  -29.3446  -13.7012   20.1202 C   0  0  0  0  0  0  0  0  0  0  0  0
  -31.0323  -31.9371   22.6673 C   0  0  0  0  0  0  0  0  0  0  0  0
  -25.4818  -30.3746   19.3623 C   0  0  0  0  0  0  0  0  0  0  0  0
  -30.1630  -30.9885   22.0956 C   0  0  0  0  0  0  0  0  0  0  0  0
  -24.6938  -29.2652   19.7005 C   0  0  0  0  0  0  0  0  0  0  0  0
  -28.4862  -21.6922   19.7493 C   0  0  0  0  0  0  0  0  0  0  0  0
  -29.0774  -21.5937   21.0089 C   0  0  0  0  0  0  0  0  0  0  0  0
  -24.3939  -12.3314   20.9504 C   0  0  0  0  0  0  0  0  0  0  0  0
  -25.1689  -28.2812   17.5288 C   0  0  0  0  0  0  0  0  0  0  0  0
  -23.0814  -10.3830   21.0082 C   0  0  0  0  0  0  0  0  0  0  0  0
  -22.9307   -7.5985   21.0894 C   0  0  0  0  0  0  0  0  0  0  0  0
  -28.5139  -23.9005   21.4538 C   0  0  0  0  0  0  0  0  0  0  0  0
  -22.4394   -9.7500   22.0726 C   0  0  0  0  0  0  0  0  0  0  0  0
  -28.2402  -14.0925   20.9006 C   0  0  0  0  0  0  0  0  0  0  0  0
  -30.3401  -14.5811   20.4685 C   0  0  0  0  0  0  0  0  0  0  0  0
  -27.2778  -23.0238   18.0132 C   0  0  0  0  0  0  0  0  0  0  0  0
  -29.4602  -12.6376   19.1657 C   0  0  0  0  0  0  0  0  0  0  0  0
  -26.5347  -30.3420   22.3612 C   0  0  0  0  0  0  0  0  0  0  0  0
  -23.3727  -30.5238   23.0619 C   0  0  0  0  0  0  0  0  0  0  0  0
  -20.1515  -29.9654   22.0827 C   0  0  0  0  0  0  0  0  0  0  0  0
  -30.2927  -20.1372   22.6666 C   0  0  0  0  0  0  0  0  0  0  0  0
  -30.8724  -32.4019   24.0931 C   0  0  0  0  0  0  0  0  0  0  0  0
  -25.6346  -31.5217   20.3231 C   0  0  0  0  0  0  0  0  0  0  0  0
  -24.0028  -29.1605   21.0346 C   0  0  0  0  0  0  0  0  0  0  0  0
  -29.4926  -32.1104   24.6776 C   0  0  0  0  0  0  0  0  0  0  0  0
  -31.8390  -17.2823   24.1279 C   0  0  0  0  0  0  0  0  0  0  0  0
  -29.0734  -30.6769   24.3675 C   0  0  0  0  0  0  0  0  0  0  0  0
  -31.1965  -16.1049   23.3908 C   0  0  0  0  0  0  0  0  0  0  0  0
  -30.8405  -18.4128   24.3699 C   0  0  0  0  0  0  0  0  0  0  0  0
  -29.4893  -17.7048   22.4355 C   0  0  0  0  0  0  0  0  0  0  0  0
  -28.9712  -30.4470   22.8548 C   0  0  1  0  0  0  0  0  0  0  0  0
  -25.3917  -31.1214   21.7750 C   0  0  1  0  0  0  0  0  0  0  0  0
  -30.4727  -16.5683   22.1114 C   0  0  2  0  0  0  0  0  0  0  0  0
  -28.4699  -20.5097   18.8317 C   0  0  0  0  0  0  0  0  0  0  0  0
  -17.7834  -30.1805   22.8848 C   0  0  0  0  0  0  0  0  0  0  0  0
  -23.7513  -28.0666   24.8308 C   0  0  0  0  0  0  0  0  0  0  0  0
  -21.2652  -27.7699   24.8310 C   0  0  0  0  0  0  0  0  0  0  0  0
  -22.2733  -29.8343   25.8031 C   0  0  0  0  0  0  0  0  0  0  0  0
  -19.4557  -31.8282   19.8907 C   0  0  0  0  0  0  0  0  0  0  0  0
  -25.3844  -24.9303   16.1983 C   0  0  0  0  0  0  0  0  0  0  0  0
  -25.2440  -23.5019   16.6973 C   0  0  0  0  0  0  0  0  0  0  0  0
  -24.8308  -25.9528   17.1827 C   0  0  0  0  0  0  0  0  0  1  0  0
  -22.2698  -29.5196   23.2945 C   0  0  1  0  0  0  0  0  0  0  0  0
  -18.9182  -30.8496   22.1250 C   0  0  2  0  0  0  0  0  0  0  0  0
  -22.4044  -28.7984   24.6654 C   0  0  0  0  0  0  0  0  0  0  0  0
  -28.5085  -15.1393   21.6856 N   0  0  0  0  0  0  0  0  0  0  0  0
  -29.7929  -15.4132   21.4003 N   0  0  0  0  0  0  0  0  0  0  0  0
  -24.1878  -30.3048   21.9423 N   0  0  0  0  0  0  0  0  0  0  0  0
  -30.1970  -18.8023   23.1133 N   0  0  0  0  0  0  0  0  0  0  0  0
  -31.6214  -14.7163   20.0656 N   0  0  0  0  0  0  0  0  0  0  0  0
  -28.0334  -22.8118   16.9357 N   0  0  0  0  0  0  0  0  0  0  0  0
  -28.3406  -11.8287   18.9278 N   0  0  0  0  0  0  0  0  0  0  0  0
  -29.6696  -20.3819   21.4433 N   0  0  0  0  0  0  0  0  0  0  0  0
  -27.7427  -31.0126   22.3395 N   0  0  0  0  0  0  0  0  0  0  0  0
  -21.0152  -30.2437   23.1209 N   0  0  0  0  0  0  0  0  0  0  0  0
  -25.9799  -23.3491   17.9525 N   0  3  0  0  0  0  0  0  0  0  0  0
  -18.4469  -31.1477   20.7430 N   0  3  0  0  0  0  0  0  0  0  0  0
  -30.5296  -12.4010   18.5542 O   0  0  0  0  0  0  0  0  0  0  0  0
  -26.3352  -29.2161   22.8020 O   0  0  0  0  0  0  0  0  0  0  0  0
  -23.5017  -31.4716   23.8407 O   0  0  0  0  0  0  0  0  0  0  0  0
  -20.3290  -29.1107   21.2176 O   0  0  0  0  0  0  0  0  0  0  0  0
  -30.9070  -20.9936   23.3078 O   0  0  0  0  0  0  0  0  0  0  0  0
  -23.1563  -11.7651   20.9660 O   0  0  0  0  0  0  0  0  0  0  0  0
  -25.0185  -27.2600   16.6421 O   0  0  0  0  0  0  0  0  0  1  0  0
  -22.8571   -6.2616   21.1276 F   0  0  0  0  0  0  0  0  0  0  0  0
  -28.5265  -24.9606   22.2725 F   0  0  0  0  0  0  0  0  0  0  0  0
  -21.8922  -10.4742   23.0584 F   0  0  0  0  0  0  0  0  0  0  0  0
  1  2  1  0  0  0  0
  1  5  2  0  0  0  0
  2  6  2  0  0  0  0
  3  8  2  0  0  0  0
  3 17  1  0  0  0  0
  4  9  1  0  0  0  0
  4 17  2  0  0  0  0
  5 20  1  0  0  0  0
  6 22  1  0  0  0  0
  7 10  2  0  0  0  0
  7 21  1  0  0  0  0
  8 26  1  0  0  0  0
  9 26  2  0  0  0  0
 10 27  1  0  0  0  0
 11 12  2  0  0  0  0
 11 28  1  0  0  0  0
 12 29  1  0  0  0  0
 13 18  1  0  0  0  0
 13 30  2  0  0  0  0
 14 23  1  0  0  0  0
 14 27  2  0  0  0  0
 15 25  2  0  0  0  0
 15 30  1  0  0  0  0
 16 29  2  0  0  0  0
 16 31  1  0  0  0  0
 17 32  1  0  0  0  0
 18 24  2  0  0  0  0
 18 34  1  0  0  0  0
 19 32  1  0  0  0  0
 19 33  2  0  0  0  0
 19 35  1  0  0  0  0
 20 22  2  0  0  0  0
 20 40  1  0  0  0  0
 21 23  2  0  0  0  0
 21 41  1  0  0  0  0
 22 49  1  0  0  0  0
 23 42  1  0  0  0  0
 24 25  1  0  0  0  0
 24 52  1  0  0  0  0
 25 71  1  0  0  0  0
 26 81  1  0  0  0  0
 27 82  1  0  0  0  0
 28 31  2  0  0  0  0
 28 81  1  0  0  0  0
 29 83  1  0  0  0  0
 30 84  1  0  0  0  0
 31 85  1  0  0  0  0
 32 64  2  0  0  0  0
 33 65  1  0  0  0  0
 33 68  1  0  0  0  0
 34 69  1  0  0  0  0
 34 74  2  0  0  0  0
 35 70  1  0  0  0  0
 35 76  2  0  0  0  0
 36 50  1  0  0  0  0
 36 72  1  0  0  0  0
 36 77  2  0  0  0  0
 37 61  1  0  0  0  0
 37 66  1  0  0  0  0
 37 78  2  0  0  0  0
 38 62  1  0  0  0  0
 38 73  1  0  0  0  0
 38 79  2  0  0  0  0
 39 67  1  0  0  0  0
 39 71  1  0  0  0  0
 39 80  2  0  0  0  0
 40 43  1  0  0  0  0
 41 50  1  0  0  0  0
 42 66  1  0  0  0  0
 43 45  1  0  0  0  0
 44 46  1  0  0  0  0
 44 47  1  0  0  0  0
 45 49  1  0  0  0  0
 46 51  1  0  0  0  0
 47 67  1  0  0  0  0
 48 51  1  0  0  0  0
 48 67  1  0  0  0  0
 49 72  1  0  0  0  0
 50 66  1  0  0  0  0
 51 65  1  0  0  0  0
 53 62  1  0  0  0  0
 54 63  1  0  0  0  0
 55 63  1  0  0  0  0
 56 63  1  0  0  0  0
 57 75  1  0  0  0  0
 58 59  1  0  0  0  0
 58 60  1  0  0  0  0
 59 74  1  0  0  0  0
 60 82  1  0  0  0  0
 61 63  1  0  0  0  0
 61 73  1  0  0  0  0
 62 75  1  0  0  0  0
 64 65  1  0  0  0  0
M  CHG  2  74   1  75   1
M  ISO  4  39 100  60 101  71 100  82 101
M  END
> <Batch ID>
0052

> <Smiles>
CNC(C)C(=O)NC(C(=O)N1Cc2cc([101O:1][101CH2:1]CCNC(=N)c3cc(F)cc([100NH:0][100C:0](=O)N4CCCC(n5nc(-c6ccc(Oc7ccc(F)cc7F)cc6)c(C(N)=O)c5N)C4)c3C)ccc2CC1C(=O)NC1CCCc2ccccc21)C(C)(C)C

> <Shape>
0.262

> <Color>
0.082

> <Negative vol penalty>
0.000

$$$$

  -OEChem-04042322403D

 91100  0     1  0  0  0  0  0999 V2000
  -22.3190   -8.2564   20.5755 C   0  0  0  0  0  0  0  0  0  0  0  0
  -21.8208   -9.5340   20.8098 C   0  0  0  0  0  0  0  0  0  0  0  0
  -31.2519  -25.0331   20.0388 C   0  0  0  0  0  0  0  0  0  0  0  0
  -30.5510  -25.6724   22.2607 C   0  0  0  0  0  0  0  0  0  0  0  0
  -23.5882   -7.9090   21.0362 C   0  0  0  0  0  0  0  0  0  0  0  0
  -22.5913  -10.4647   21.5060 C   0  0  0  0  0  0  0  0  0  0  0  0
  -22.7822  -16.5155   20.5798 C   0  0  0  0  0  0  0  0  0  0  0  0
  -32.5458  -24.8123   20.5105 C   0  0  0  0  0  0  0  0  0  0  0  0
  -31.8449  -25.4515   22.7325 C   0  0  0  0  0  0  0  0  0  0  0  0
  -22.1560  -17.5829   21.2219 C   0  0  0  0  0  0  0  0  0  0  0  0
  -34.8128  -27.0709   22.7166 C   0  0  0  0  0  0  0  0  0  0  0  0
  -35.3666  -28.0310   23.5634 C   0  0  0  0  0  0  0  0  0  0  0  0
  -24.1225  -17.9120   22.5797 C   0  0  0  0  0  0  0  0  0  0  0  0
  -20.7897  -26.0841   21.6382 C   0  0  0  0  0  0  0  0  0  0  0  0
  -20.3531  -28.3855   22.2301 C   0  0  0  0  0  0  0  0  0  0  0  0
  -35.6032  -26.3653   25.2973 C   0  0  0  0  0  0  0  0  0  0  0  0
  -30.2545  -25.4633   20.9139 C   0  0  0  0  0  0  0  0  0  0  0  0
  -28.0629  -24.7545   19.8174 C   0  0  0  0  0  0  0  0  0  0  0  0
  -24.3785   -8.8389   21.7300 C   0  0  0  0  0  0  0  0  0  0  0  0
  -24.0814  -16.1307   20.9410 C   0  0  0  0  0  0  0  0  0  0  0  0
  -23.8717  -10.1290   21.9776 C   0  0  0  0  0  0  0  0  0  0  0  0
  -24.7639  -16.8410   21.9389 C   0  0  0  0  0  0  0  0  0  0  0  0
  -19.5691  -25.7083   22.1988 C   0  0  0  0  0  0  0  0  0  0  0  0
  -19.1324  -28.0097   22.7907 C   0  0  0  0  0  0  0  0  0  0  0  0
  -18.7404  -26.6711   22.7750 C   0  0  0  0  0  0  0  0  0  0  0  0
  -21.1818  -27.4227   21.6538 C   0  0  0  0  0  0  0  0  0  0  0  0
  -32.8424  -25.0214   21.8573 C   0  0  0  0  0  0  0  0  0  0  0  0
  -22.8250  -18.2795   22.2240 C   0  0  0  0  0  0  0  0  0  0  0  0
  -34.6541  -25.7579   23.1602 C   0  0  0  0  0  0  0  0  0  0  0  0
  -35.7618  -27.6782   24.8537 C   0  0  0  0  0  0  0  0  0  0  0  0
  -35.0493  -25.4051   24.4505 C   0  0  0  0  0  0  0  0  0  0  0  0
  -28.9178  -25.6922   20.4271 C   0  0  0  0  0  0  0  0  0  0  0  0
  -26.9184  -25.4619   19.5415 C   0  0  0  0  0  0  0  0  0  0  0  0
  -20.6859  -23.2486   23.7675 C   0  0  0  0  0  0  0  0  0  0  0  0
  -21.3628  -24.0123   24.6382 C   0  0  0  0  0  0  0  0  0  0  0  0
  -28.2836  -23.3680   19.5265 C   0  0  0  0  0  0  0  0  0  0  0  0
  -25.3871  -13.4947   22.1454 C   0  0  0  0  0  0  0  0  0  0  0  0
  -28.1578  -15.1033   21.6376 C   0  0  0  0  0  0  0  0  0  0  0  0
  -29.7372  -18.1042   21.2540 C   0  0  0  0  0  0  0  0  0  0  0  0
  -22.9598  -29.0895   21.0158 C   0  0  0  0  0  0  0  0  0  0  0  0
  -25.7252   -8.4024   22.2499 C   0  0  0  0  0  0  0  0  0  0  0  0
  -24.7530  -14.9941   20.2203 C   0  0  0  0  0  0  0  0  0  0  0  0
  -26.1675  -16.4806   22.3497 C   0  0  0  0  0  0  0  0  0  0  0  0
  -21.2869  -22.0483   23.0874 C   0  0  0  0  0  0  0  0  0  0  0  0
  -26.6287   -9.5650   22.6528 C   0  0  0  0  0  0  0  0  0  0  0  0
  -25.9942  -30.4351   19.7280 C   0  0  0  0  0  0  0  0  0  0  0  0
  -25.8563  -10.5734   23.4974 C   0  0  0  0  0  0  0  0  0  0  0  0
  -26.9550  -29.2440   19.7450 C   0  0  0  0  0  0  0  0  0  0  0  0
  -18.9319  -21.1671   22.8994 C   0  0  0  0  0  0  0  0  0  0  0  0
  -25.0548  -30.4232   20.9327 C   0  0  0  0  0  0  0  0  0  0  0  0
  -25.2760  -27.9790   21.1477 C   0  0  0  0  0  0  0  0  0  0  0  0
  -18.4251  -22.3738   23.6858 C   0  0  0  0  0  0  0  0  0  0  0  0
  -24.6873  -11.1741   22.7074 C   0  0  1  0  0  0  0  0  0  0  0  0
  -25.8852  -14.3625   21.0245 C   0  0  1  0  0  0  0  0  0  0  0  0
  -20.3823  -20.8231   23.2659 C   0  0  1  0  0  0  0  0  0  0  0  0
  -26.1988  -27.9124   19.9198 C   0  0  2  0  0  0  0  0  0  0  0  0
  -17.4312  -26.2680   23.3756 C   0  0  0  0  0  0  0  0  0  0  0  0
  -32.0114  -19.1012   20.8917 C   0  0  0  0  0  0  0  0  0  0  0  0
  -28.8474  -14.5882   24.5649 C   0  0  0  0  0  0  0  0  0  0  0  0
  -30.6008  -16.3670   24.3925 C   0  0  0  0  0  0  0  0  0  0  0  0
  -30.7621  -14.3181   22.9789 C   0  0  0  0  0  0  0  0  0  0  0  0
  -28.9218  -19.3201   18.6819 C   0  0  0  0  0  0  0  0  0  0  0  0
  -19.1710  -24.2621   22.1696 C   0  0  0  0  0  0  0  0  0  0  0  0
  -20.8905  -19.6465   22.4356 C   0  0  0  0  0  0  0  0  0  1  0  0
  -29.0047  -16.0559   22.4466 C   0  0  1  0  0  0  0  0  0  0  0  0
  -30.7437  -18.5886   20.2261 C   0  0  2  0  0  0  0  0  0  0  0  0
  -18.2635  -29.0600   23.4013 C   0  0  0  0  0  0  0  0  0  0  0  0
  -29.7766  -15.3381   23.5896 C   0  0  0  0  0  0  0  0  0  0  0  0
  -28.3637  -26.9030   20.5325 N   0  0  0  0  0  0  0  0  0  0  0  0
  -27.1484  -26.7309   19.9852 N   0  0  0  0  0  0  0  0  0  0  0  0
  -26.7791  -15.3578   21.6199 N   0  0  0  0  0  0  0  0  0  0  0  0
  -24.3700  -29.1325   21.0322 N   0  0  0  0  0  0  0  0  0  0  0  0
  -25.7477  -25.1160   18.9651 N   0  0  0  0  0  0  0  0  0  0  0  0
  -27.9323  -22.4180   20.4952 N   0  0  0  0  0  0  0  0  0  0  0  0
  -22.4213  -27.8049   21.0835 N   0  0  0  0  0  0  0  0  0  0  0  0
  -25.1656  -12.1797   21.7831 N   0  0  0  0  0  0  0  0  0  0  0  0
  -29.8611  -16.7518   21.4924 N   0  0  0  0  0  0  0  0  0  0  0  0
  -19.3087  -23.5860   23.5057 N   0  3  2  0  0  0  0  0  0  0  0  0
  -30.1615  -19.6922   19.4111 N   0  3  0  0  0  0  0  0  0  0  0  0
  -28.7929  -22.9841   18.4463 O   0  0  0  0  0  0  0  0  0  0  0  0
  -25.2177  -13.9818   23.2570 O   0  0  0  0  0  0  0  0  0  0  0  0
  -28.7004  -14.1721   21.0376 O   0  0  0  0  0  0  0  0  0  0  0  0
  -28.9249  -18.8516   21.7945 O   0  0  0  0  0  0  0  0  0  0  0  0
  -22.2803  -30.1147   20.9194 O   0  0  0  0  0  0  0  0  0  0  0  0
  -34.1048  -24.8057   22.3180 O   0  0  0  0  0  0  0  0  0  0  0  0
  -22.2159  -19.3213   22.8528 O   0  0  0  0  0  0  0  0  0  1  0  0
  -36.2951  -28.6000   25.6662 F   0  0  0  0  0  0  0  0  0  0  0  0
  -34.9005  -24.1451   24.8819 F   0  0  0  0  0  0  0  0  0  0  0  0
  -18.7954  -30.3154   23.3324 F   0  0  0  0  0  0  0  0  0  0  0  0
  -17.0350  -29.1590   22.8148 F   0  0  0  0  0  0  0  0  0  0  0  0
  -18.0225  -28.8347   24.7248 F   0  0  0  0  0  0  0  0  0  0  0  0
  1  2  1  0  0  0  0
  1  5  2  0  0  0  0
  2  6  2  0  0  0  0
  3  8  2  0  0  0  0
  3 17  1  0  0  0  0
  4  9  1  0  0  0  0
  4 17  2  0  0  0  0
  5 19  1  0  0  0  0
  6 21  1  0  0  0  0
  7 10  2  0  0  0  0
  7 20  1  0  0  0  0
  8 27  1  0  0  0  0
  9 27  2  0  0  0  0
 10 28  1  0  0  0  0
 11 12  2  0  0  0  0
 11 29  1  0  0  0  0
 12 30  1  0  0  0  0
 13 22  1  0  0  0  0
 13 28  2  0  0  0  0
 14 23  1  0  0  0  0
 14 26  2  0  0  0  0
 15 24  2  0  0  0  0
 15 26  1  0  0  0  0
 16 30  2  0  0  0  0
 16 31  1  0  0  0  0
 17 32  1  0  0  0  0
 18 32  1  0  0  0  0
 18 33  2  0  0  0  0
 18 36  1  0  0  0  0
 19 21  2  0  0  0  0
 19 41  1  0  0  0  0
 20 22  2  0  0  0  0
 20 42  1  0  0  0  0
 21 53  1  0  0  0  0
 22 43  1  0  0  0  0
 23 25  2  0  0  0  0
 23 63  1  0  0  0  0
 24 25  1  0  0  0  0
 24 67  1  0  0  0  0
 25 57  1  0  0  0  0
 26 75  1  0  0  0  0
 27 85  1  0  0  0  0
 28 86  1  0  0  0  0
 29 31  2  0  0  0  0
 29 85  1  0  0  0  0
 30 87  1  0  0  0  0
 31 88  1  0  0  0  0
 32 69  2  0  0  0  0
 33 70  1  0  0  0  0
 33 73  1  0  0  0  0
 34 35  2  0  0  0  0
 34 44  1  0  0  0  0
 34 78  1  0  0  0  0
 36 74  1  0  0  0  0
 36 80  2  0  0  0  0
 37 54  1  0  0  0  0
 37 76  1  0  0  0  0
 37 81  2  0  0  0  0
 38 65  1  0  0  0  0
 38 71  1  0  0  0  0
 38 82  2  0  0  0  0
 39 66  1  0  0  0  0
 39 77  1  0  0  0  0
 39 83  2  0  0  0  0
 40 72  1  0  0  0  0
 40 75  1  0  0  0  0
 40 84  2  0  0  0  0
 41 45  1  0  0  0  0
 42 54  1  0  0  0  0
 43 71  1  0  0  0  0
 44 55  1  0  0  0  0
 45 47  1  0  0  0  0
 46 48  1  0  0  0  0
 46 50  1  0  0  0  0
 47 53  1  0  0  0  0
 48 56  1  0  0  0  0
 49 52  1  0  0  0  0
 49 55  1  0  0  0  0
 50 72  1  0  0  0  0
 51 56  1  0  0  0  0
 51 72  1  0  0  0  0
 52 78  1  0  0  0  0
 53 76  1  0  0  0  0
 54 71  1  0  0  0  0
 55 64  1  0  0  0  0
 56 70  1  0  0  0  0
 58 66  1  0  0  0  0
 59 68  1  0  0  0  0
 60 68  1  0  0  0  0
 61 68  1  0  0  0  0
 62 79  1  0  0  0  0
 63 78  1  0  0  0  0
 64 86  1  0  0  0  0
 65 68  1  0  0  0  0
 65 77  1  0  0  0  0
 66 79  1  0  0  0  0
 67 89  1  0  0  0  0
 67 90  1  0  0  0  0
 67 91  1  0  0  0  0
 69 70  1  0  0  0  0
M  CHG  2  78   1  79   1
M  ISO  4  40 100  64 101  75 100  86 101
M  END
> <Batch ID>
0052

> <Smiles>
C=C1CC([101CH2:1][101O:1]c2ccc3c(c2)CN(C(=O)C(NC(=O)C(C)NC)C(C)(C)C)C(C(=O)NC2CCCc4ccccc42)C3)CCN1Cc1cc([100NH:0][100C:0](=O)N2CCCC(n3nc(-c4ccc(Oc5ccc(F)cc5F)cc4)c(C(N)=O)c3N)C2)cc(C(F)(F)F)c1C

> <Shape>
0.248

> <Color>
0.064

> <Negative vol penalty>
0.000

$$$$

  -OEChem-04042322403D

 87 96  0     1  0  0  0  0  0999 V2000
  -24.2429  -14.5635   34.0743 C   0  0  0  0  0  0  0  0  0  0  0  0
  -24.9239  -15.0532   32.9644 C   0  0  0  0  0  0  0  0  0  0  0  0
  -31.4334  -19.3859   19.1251 C   0  0  0  0  0  0  0  0  0  0  0  0
  -23.3098  -10.2164   22.2396 C   0  0  0  0  0  0  0  0  0  0  0  0
  -23.5990   -9.5304   19.9411 C   0  0  0  0  0  0  0  0  0  0  0  0
  -23.0882  -15.2047   34.5210 C   0  0  0  0  0  0  0  0  0  0  0  0
  -24.4500  -16.1837   32.2998 C   0  0  0  0  0  0  0  0  0  0  0  0
  -27.7998  -20.5370   29.5918 C   0  0  0  0  0  0  0  0  0  0  0  0
  -31.6172  -18.3567   20.0483 C   0  0  0  0  0  0  0  0  0  0  0  0
  -22.5658   -9.0635   22.4901 C   0  0  0  0  0  0  0  0  0  0  0  0
  -22.8550   -8.3774   20.1916 C   0  0  0  0  0  0  0  0  0  0  0  0
  -28.1588  -20.7532   28.2620 C   0  0  0  0  0  0  0  0  0  0  0  0
  -19.4142   -7.9673   21.9513 C   0  0  0  0  0  0  0  0  0  0  0  0
  -18.2323   -8.1050   22.6790 C   0  0  0  0  0  0  0  0  0  0  0  0
  -30.2153  -20.0633   19.0691 C   0  0  0  0  0  0  0  0  0  0  0  0
  -26.3074  -22.2801   28.0169 C   0  0  0  0  0  0  0  0  0  0  0  0
  -19.1009   -6.6158   24.3716 C   0  0  0  0  0  0  0  0  0  0  0  0
  -23.8264  -10.4499   20.9650 C   0  0  0  0  0  0  0  0  0  0  0  0
  -24.1668  -12.9751   20.8426 C   0  0  0  0  0  0  0  0  0  0  0  0
  -22.6053  -16.3493   33.8674 C   0  0  0  0  0  0  0  0  0  0  0  0
  -26.6837  -21.1835   30.1419 C   0  0  0  0  0  0  0  0  0  0  0  0
  -23.2870  -16.8400   32.7374 C   0  0  0  0  0  0  0  0  0  0  0  0
  -25.9379  -22.0724   29.3546 C   0  0  0  0  0  0  0  0  0  0  0  0
  -30.5829  -18.0047   20.9155 C   0  0  0  0  0  0  0  0  0  0  0  0
  -29.3648  -18.6820   20.8595 C   0  0  0  0  0  0  0  0  0  0  0  0
  -22.3384   -8.1439   21.4661 C   0  0  0  0  0  0  0  0  0  0  0  0
  -27.4108  -21.6226   27.4735 C   0  0  0  0  0  0  0  0  0  0  0  0
  -20.4395   -7.1538   22.4336 C   0  0  0  0  0  0  0  0  0  0  0  0
  -18.0756   -7.4293   23.8892 C   0  0  0  0  0  0  0  0  0  0  0  0
  -20.2829   -6.4780   23.6438 C   0  0  0  0  0  0  0  0  0  0  0  0
  -29.1810  -19.7113   19.9363 C   0  0  0  0  0  0  0  0  0  0  0  0
  -24.5946  -11.6409   20.7055 C   0  0  0  0  0  0  0  0  0  0  0  0
  -25.2581  -13.7249   20.4775 C   0  0  0  0  0  0  0  0  0  0  0  0
  -26.8736  -19.8837   23.0676 C   0  0  0  0  0  0  0  0  0  0  0  0
  -22.8965  -13.4906   21.2625 C   0  0  0  0  0  0  0  0  0  0  0  0
  -23.9231  -20.2211   31.3896 C   0  0  0  0  0  0  0  0  0  0  0  0
  -23.5774  -23.3744   32.0677 C   0  0  0  0  0  0  0  0  0  0  0  0
  -24.4072  -26.6029   31.3367 C   0  0  0  0  0  0  0  0  0  0  0  0
  -30.7415  -14.7469   20.6589 C   0  0  0  0  0  0  0  0  0  0  0  0
  -21.3266  -16.9805   34.3585 C   0  0  0  0  0  0  0  0  0  0  0  0
  -26.3255  -20.9601   31.5856 C   0  0  0  0  0  0  0  0  0  0  0  0
  -24.7428  -22.8067   29.9032 C   0  0  0  0  0  0  0  0  0  0  0  0
  -26.7985  -20.9237   24.1679 C   0  0  0  0  0  0  0  0  0  0  0  0
  -21.1001  -18.3925   33.8245 C   0  0  0  0  0  0  0  0  0  0  0  0
  -29.6025  -12.3599   18.2753 C   0  0  0  0  0  0  0  0  0  0  0  0
  -21.3632  -18.4440   32.3229 C   0  0  0  0  0  0  0  0  0  0  0  0
  -28.1657  -12.0658   18.7101 C   0  0  0  0  0  0  0  0  0  0  0  0
  -29.1663  -20.5251   24.7569 C   0  0  0  0  0  0  0  0  0  0  0  0
  -30.5209  -12.5822   19.4750 C   0  0  0  0  0  0  0  0  0  0  0  0
  -29.2018  -19.3139   23.8460 C   0  0  0  0  0  0  0  0  0  0  0  0
  -28.6203  -13.3134   20.8632 C   0  0  0  0  0  0  0  0  0  0  0  0
  -22.8181  -18.0784   32.0048 C   0  0  1  0  0  0  0  0  0  0  0  0
  -24.8655  -21.2767   31.8949 C   0  0  1  0  0  0  0  0  0  0  0  0
  -27.6449  -13.1373   19.6868 C   0  0  2  0  0  0  0  0  0  0  0  0
  -27.7675  -20.7030   25.3140 C   0  0  1  0  0  0  0  0  0  1  0  0
  -23.9356  -28.9655   32.0391 C   0  0  0  0  0  0  0  0  0  0  0  0
  -20.8805  -23.2563   30.6454 C   0  0  0  0  0  0  0  0  0  0  0  0
  -20.9052  -25.7576   30.5397 C   0  0  0  0  0  0  0  0  0  0  0  0
  -20.8909  -24.6045   32.7517 C   0  0  0  0  0  0  0  0  0  0  0  0
  -27.2379  -27.0759   32.0595 C   0  0  0  0  0  0  0  0  0  0  0  0
  -28.2620  -18.2906   21.8001 C   0  0  0  0  0  0  0  0  0  0  0  0
  -30.8076  -16.8985   21.8940 C   0  0  0  0  0  0  0  0  0  0  0  0
  -22.9926  -24.5650   31.3470 C   0  0  1  0  0  0  0  0  0  0  0  0
  -24.8403  -27.7570   32.2227 C   0  0  2  0  0  0  0  0  0  0  0  0
  -21.4386  -24.5307   31.3097 C   0  0  0  0  0  0  0  0  0  0  0  0
  -25.8590  -11.5454   20.2859 N   0  0  0  0  0  0  0  0  0  0  0  0
  -26.2351  -12.8291   20.1561 N   0  0  0  0  0  0  0  0  0  0  0  0
  -28.1021  -19.2519   22.8830 N   0  0  0  0  0  0  0  0  0  0  0  0
  -24.4289  -22.5501   31.3186 N   0  0  0  0  0  0  0  0  0  0  0  0
  -29.9708  -13.6111   20.3608 N   0  0  0  0  0  0  0  0  0  0  0  0
  -25.4677  -15.0564   20.4032 N   0  0  0  0  0  0  0  0  0  0  0  0
  -21.8854  -12.5812   21.6017 N   0  0  0  0  0  0  0  0  0  0  0  0
  -23.6933  -19.1958   32.2871 N   0  0  0  0  0  0  0  0  0  0  0  0
  -23.5488  -25.7479   31.9949 N   0  0  0  0  0  0  0  0  0  0  0  0
  -30.1428  -15.6761   21.5009 N   0  0  0  0  0  0  0  0  0  0  0  0
  -26.2374  -28.1624   31.8992 N   0  3  0  0  0  0  0  0  0  0  0  0
  -25.8868  -19.7016   22.3491 O   0  0  0  0  0  0  0  0  0  0  0  0
  -22.6596  -14.7211   21.3191 O   0  0  0  0  0  0  0  0  0  0  0  0
  -23.4390  -20.3296   30.2691 O   0  0  0  0  0  0  0  0  0  0  0  0
  -23.2948  -23.1867   33.2537 O   0  0  0  0  0  0  0  0  0  0  0  0
  -24.7890  -26.4750   30.1755 O   0  0  0  0  0  0  0  0  0  0  0  0
  -31.8769  -14.9226   20.2039 O   0  0  0  0  0  0  0  0  0  0  0  0
  -21.6126   -7.0187   21.7103 O   0  0  0  0  0  0  0  0  0  0  0  0
  -27.7586  -21.8349   26.1751 O   0  0  0  0  0  0  0  0  0  1  0  0
  -16.9412   -7.5629   24.5887 F   0  0  0  0  0  0  0  0  0  0  0  0
  -21.2648   -5.6960   24.1128 F   0  0  0  0  0  0  0  0  0  0  0  0
  -27.6891  -20.5744   19.8347 Cl  0  0  0  0  0  0  0  0  0  0  0  0
  1  2  1  0  0  0  0
  1  6  2  0  0  0  0
  2  7  2  0  0  0  0
  3  9  2  0  0  0  0
  3 15  1  0  0  0  0
  4 10  2  0  0  0  0
  4 18  1  0  0  0  0
  5 11  1  0  0  0  0
  5 18  2  0  0  0  0
  6 20  1  0  0  0  0
  7 22  1  0  0  0  0
  8 12  2  0  0  0  0
  8 21  1  0  0  0  0
  9 24  1  0  0  0  0
 10 26  1  0  0  0  0
 11 26  2  0  0  0  0
 12 27  1  0  0  0  0
 13 14  2  0  0  0  0
 13 28  1  0  0  0  0
 14 29  1  0  0  0  0
 15 31  2  0  0  0  0
 16 23  1  0  0  0  0
 16 27  2  0  0  0  0
 17 29  2  0  0  0  0
 17 30  1  0  0  0  0
 18 32  1  0  0  0  0
 19 32  1  0  0  0  0
 19 33  2  0  0  0  0
 19 35  1  0  0  0  0
 20 22  2  0  0  0  0
 20 40  1  0  0  0  0
 21 23  2  0  0  0  0
 21 41  1  0  0  0  0
 22 52  1  0  0  0  0
 23 42  1  0  0  0  0
 24 25  2  0  0  0  0
 24 62  1  0  0  0  0
 25 31  1  0  0  0  0
 25 61  1  0  0  0  0
 26 83  1  0  0  0  0
 27 84  1  0  0  0  0
 28 30  2  0  0  0  0
 28 83  1  0  0  0  0
 29 85  1  0  0  0  0
 30 86  1  0  0  0  0
 31 87  1  0  0  0  0
 32 66  2  0  0  0  0
 33 67  1  0  0  0  0
 33 71  1  0  0  0  0
 34 43  1  0  0  0  0
 34 68  1  0  0  0  0
 34 77  2  0  0  0  0
 35 72  1  0  0  0  0
 35 78  2  0  0  0  0
 36 53  1  0  0  0  0
 36 73  1  0  0  0  0
 36 79  2  0  0  0  0
 37 63  1  0  0  0  0
 37 69  1  0  0  0  0
 37 80  2  0  0  0  0
 38 64  1  0  0  0  0
 38 74  1  0  0  0  0
 38 81  2  0  0  0  0
 39 70  1  0  0  0  0
 39 75  1  0  0  0  0
 39 82  2  0  0  0  0
 40 44  1  0  0  0  0
 41 53  1  0  0  0  0
 42 69  1  0  0  0  0
 43 55  1  0  0  0  0
 44 46  1  0  0  0  0
 45 47  1  0  0  0  0
 45 49  1  0  0  0  0
 46 52  1  0  0  0  0
 47 54  1  0  0  0  0
 48 50  1  0  0  0  0
 48 55  1  0  0  0  0
 49 70  1  0  0  0  0
 50 68  1  0  0  0  0
 51 54  1  0  0  0  0
 51 70  1  0  0  0  0
 52 73  1  0  0  0  0
 53 69  1  0  0  0  0
 54 67  1  0  0  0  0
 55 84  1  0  0  0  0
 56 64  1  0  0  0  0
 57 65  1  0  0  0  0
 58 65  1  0  0  0  0
 59 65  1  0  0  0  0
 60 76  1  0  0  0  0
 61 68  1  0  0  0  0
 62 75  1  0  0  0  0
 63 65  1  0  0  0  0
 63 74  1  0  0  0  0
 64 76  1  0  0  0  0
 66 67  1  0  0  0  0
M  CHG  1  76   1
M  ISO  4  39 100  55 101  75 100  84 101
M  END
> <Batch ID>
0052

> <Smiles>
CNC(C)C(=O)NC(C(=O)N1Cc2cc([101O:1][101CH:1]3CCN(Cc4c(Cl)cccc4C[100NH:0][100C:0](=O)N4CCCC(n5nc(-c6ccc(Oc7ccc(F)cc7F)cc6)c(C(N)=O)c5N)C4)C(=O)C3)ccc2CC1C(=O)NC1CCCc2ccccc21)C(C)(C)C

> <Shape>
0.177

> <Color>
0.191

> <Negative vol penalty>
0.000

$$$$

  -OEChem-04042322403D

 89 97  0     1  0  0  0  0  0999 V2000
  -19.6623  -33.8638   22.4307 C   0  0  0  0  0  0  0  0  0  0  0  0
  -20.9938  -33.5410   22.1889 C   0  0  0  0  0  0  0  0  0  0  0  0
  -29.8002  -23.6267   13.2359 C   0  0  0  0  0  0  0  0  0  0  0  0
  -25.2980  -16.4474   21.7199 C   0  0  0  0  0  0  0  0  0  0  0  0
  -24.9462  -16.4868   19.3300 C   0  0  0  0  0  0  0  0  0  0  0  0
  -30.5907  -23.8056   14.3710 C   0  0  0  0  0  0  0  0  0  0  0  0
  -18.8116  -32.9220   23.0079 C   0  0  0  0  0  0  0  0  0  0  0  0
  -21.4756  -32.2764   22.5252 C   0  0  0  0  0  0  0  0  0  0  0  0
  -25.7161  -29.0343   19.5232 C   0  0  0  0  0  0  0  0  0  0  0  0
  -28.4729  -23.2182   13.3675 C   0  0  0  0  0  0  0  0  0  0  0  0
  -24.0652  -15.8177   21.8910 C   0  0  0  0  0  0  0  0  0  0  0  0
  -23.7134  -15.8571   19.5010 C   0  0  0  0  0  0  0  0  0  0  0  0
  -27.0823  -28.8535   19.7347 C   0  0  0  0  0  0  0  0  0  0  0  0
  -21.1730  -13.8747   22.9278 C   0  0  0  0  0  0  0  0  0  0  0  0
  -21.1148  -12.7896   23.8023 C   0  0  0  0  0  0  0  0  0  0  0  0
  -26.6210  -26.8064   20.9245 C   0  0  0  0  0  0  0  0  0  0  0  0
  -22.7365  -11.6139   22.4513 C   0  0  0  0  0  0  0  0  0  0  0  0
  -25.7385  -16.7820   20.4394 C   0  0  0  0  0  0  0  0  0  0  0  0
  -30.0541  -23.5759   15.6379 C   0  0  0  0  0  0  0  0  0  0  0  0
  -28.2620  -16.8162   20.0676 C   0  0  0  0  0  0  0  0  0  0  0  0
  -19.2808  -31.6420   23.3426 C   0  0  0  0  0  0  0  0  0  0  0  0
  -24.7899  -28.1066   20.0211 C   0  0  0  0  0  0  0  0  0  0  0  0
  -20.6307  -31.3170   23.1087 C   0  0  0  0  0  0  0  0  0  0  0  0
  -25.2439  -26.9764   20.7158 C   0  0  0  0  0  0  0  0  0  0  0  0
  -27.9363  -22.9885   14.6343 C   0  0  0  0  0  0  0  0  0  0  0  0
  -28.7268  -23.1674   15.7696 C   0  0  0  0  0  0  0  0  0  0  0  0
  -23.2729  -15.5225   20.7816 C   0  0  0  0  0  0  0  0  0  0  0  0
  -27.5348  -27.7410   20.4380 C   0  0  0  0  0  0  0  0  0  0  0  0
  -22.0128  -13.8294   21.8150 C   0  0  0  0  0  0  0  0  0  0  0  0
  -21.8966  -11.6592   23.5641 C   0  0  0  0  0  0  0  0  0  0  0  0
  -22.7946  -12.6990   21.5768 C   0  0  0  0  0  0  0  0  0  0  0  0
  -27.0116  -17.4330   20.2621 C   0  0  0  0  0  0  0  0  0  0  0  0
  -29.1463  -17.8610   19.9539 C   0  0  0  0  0  0  0  0  0  0  0  0
  -30.9137  -23.7727   16.8223 C   0  0  0  0  0  0  0  0  0  0  0  0
  -28.5945  -15.4234   19.9961 C   0  0  0  0  0  0  0  0  0  0  0  0
  -22.3915  -28.2280   22.1035 C   0  0  0  0  0  0  0  0  0  0  0  0
  -21.8901  -25.1807   21.1110 C   0  0  0  0  0  0  0  0  0  0  0  0
  -32.0355  -26.7520   18.5320 C   0  0  0  0  0  0  0  0  0  0  0  0
  -23.1697  -22.3390   19.7205 C   0  0  0  0  0  0  0  0  0  0  0  0
  -28.5385  -23.5564   18.2514 C   0  0  0  0  0  0  0  0  0  0  0  0
  -18.3355  -30.6733   24.0080 C   0  0  0  0  0  0  0  0  0  0  0  0
  -23.3213  -28.3021   19.7613 C   0  0  0  0  0  0  0  0  0  0  0  0
  -24.2917  -25.9405   21.2533 C   0  0  0  0  0  0  0  0  0  0  0  0
  -18.8308  -29.2295   23.9904 C   0  0  0  0  0  0  0  0  0  0  0  0
  -29.7950  -22.3891   21.3716 C   0  0  0  0  0  0  0  0  0  0  0  0
  -20.2960  -29.1626   24.4095 C   0  0  0  0  0  0  0  0  0  0  0  0
  -29.3428  -20.9279   21.4207 C   0  0  0  0  0  0  0  0  0  0  0  0
  -28.7477  -23.2850   20.7126 C   0  0  0  0  0  0  0  0  0  0  0  0
  -27.8455  -21.3810   19.4359 C   0  0  0  0  0  0  0  0  0  0  0  0
  -21.1844  -29.9474   23.4367 C   0  0  1  0  0  0  0  0  0  0  0  0
  -22.4346  -27.5615   20.7576 C   0  0  1  0  0  0  0  0  0  0  0  0
  -28.8953  -20.4295   20.0326 C   0  0  2  0  0  0  0  0  0  0  0  0
  -26.5110  -22.5518   14.7428 C   0  0  0  0  0  0  0  0  0  0  0  0
  -34.7238  -25.3985   18.9070 C   0  0  0  0  0  0  0  0  0  0  0  0
  -23.1858  -20.0250   18.7497 C   0  0  0  0  0  0  0  0  0  0  0  0
  -21.9824  -24.3431   24.0436 C   0  0  0  0  0  0  0  0  0  0  0  0
  -22.2917  -21.9771   23.2858 C   0  0  0  0  0  0  0  0  0  0  0  0
  -20.2081  -23.2130   22.6912 C   0  0  0  0  0  0  0  0  0  0  0  0
  -22.6139  -23.3527   16.9961 C   0  0  0  0  0  0  0  0  0  0  0  0
  -33.7612  -25.0958   17.7676 C   0  0  0  0  0  0  0  0  0  0  0  0
  -31.1840  -28.1589   20.4033 C   0  0  0  0  0  0  0  0  0  0  0  0
  -29.7464  -28.5542   20.1168 C   0  0  0  0  0  0  0  0  0  1  0  0
  -22.3789  -23.8204   21.5465 C   0  0  1  0  0  0  0  0  0  0  0  0
  -32.3041  -25.3041   18.1708 C   0  0  2  0  0  0  0  0  0  0  0  0
  -22.6577  -21.4439   18.6064 C   0  0  2  0  0  0  0  0  0  0  0  0
  -21.7333  -23.3587   22.8835 C   0  0  0  0  0  0  0  0  0  0  0  0
  -27.0903  -18.7663   20.2720 N   0  0  0  0  0  0  0  0  0  0  0  0
  -28.4008  -18.9959   20.0825 N   0  0  0  0  0  0  0  0  0  0  0  0
  -22.8651  -26.1796   20.9790 N   0  0  0  0  0  0  0  0  0  0  0  0
  -28.3753  -22.7532   19.3999 N   0  0  0  0  0  0  0  0  0  0  0  0
  -30.4810  -17.9105   19.7575 N   0  0  0  0  0  0  0  0  0  0  0  0
  -31.1269  -22.7293   17.6241 N   0  0  0  0  0  0  0  0  0  0  0  0
  -27.5645  -14.4827   20.1330 N   0  0  0  0  0  0  0  0  0  0  0  0
  -28.1816  -22.9328   17.0562 N   0  0  0  0  0  0  0  0  0  0  0  0
  -21.4032  -29.1861   22.2256 N   0  0  0  0  0  0  0  0  0  0  0  0
  -31.5169  -26.8888   19.8150 N   0  0  0  0  0  0  0  0  0  0  0  0
  -22.1363  -22.9209   20.4238 N   0  0  0  0  0  0  0  0  0  0  0  0
  -31.4355  -24.9872   17.0359 N   0  3  0  0  0  0  0  0  0  0  0  0
  -23.0843  -21.9724   17.2799 N   0  3  0  0  0  0  0  0  0  0  0  0
  -29.7725  -15.0245   19.8327 O   0  0  0  0  0  0  0  0  0  0  0  0
  -23.1945  -27.8965   22.9678 O   0  0  0  0  0  0  0  0  0  0  0  0
  -20.6884  -25.3490   20.8891 O   0  0  0  0  0  0  0  0  0  0  0  0
  -32.2660  -27.6837   17.7644 O   0  0  0  0  0  0  0  0  0  0  0  0
  -24.3666  -22.5025   19.9467 O   0  0  0  0  0  0  0  0  0  0  0  0
  -28.9891  -24.7028   18.3199 O   0  0  0  0  0  0  0  0  0  0  0  0
  -22.0700  -14.9078   20.9481 O   0  0  0  0  0  0  0  0  0  0  0  0
  -28.8676  -27.5624   20.6464 O   0  0  0  0  0  0  0  0  0  1  0  0
  -21.8419  -10.6179   24.4048 F   0  0  0  0  0  0  0  0  0  0  0  0
  -23.6042  -12.6502   20.5100 F   0  0  0  0  0  0  0  0  0  0  0  0
  1  2  1  0  0  0  0
  1  7  2  0  0  0  0
  2  8  2  0  0  0  0
  3  6  2  0  0  0  0
  3 10  1  0  0  0  0
  4 11  2  0  0  0  0
  4 18  1  0  0  0  0
  5 12  1  0  0  0  0
  5 18  2  0  0  0  0
  6 19  1  0  0  0  0
  7 21  1  0  0  0  0
  8 23  1  0  0  0  0
  9 13  2  0  0  0  0
  9 22  1  0  0  0  0
 10 25  2  0  0  0  0
 11 27  1  0  0  0  0
 12 27  2  0  0  0  0
 13 28  1  0  0  0  0
 14 15  2  0  0  0  0
 14 29  1  0  0  0  0
 15 30  1  0  0  0  0
 16 24  1  0  0  0  0
 16 28  2  0  0  0  0
 17 30  2  0  0  0  0
 17 31  1  0  0  0  0
 18 32  1  0  0  0  0
 19 26  2  0  0  0  0
 19 34  1  0  0  0  0
 20 32  1  0  0  0  0
 20 33  2  0  0  0  0
 20 35  1  0  0  0  0
 21 23  2  0  0  0  0
 21 41  1  0  0  0  0
 22 24  2  0  0  0  0
 22 42  1  0  0  0  0
 23 50  1  0  0  0  0
 24 43  1  0  0  0  0
 25 26  1  0  0  0  0
 25 53  1  0  0  0  0
 26 74  1  0  0  0  0
 27 86  1  0  0  0  0
 28 87  1  0  0  0  0
 29 31  2  0  0  0  0
 29 86  1  0  0  0  0
 30 88  1  0  0  0  0
 31 89  1  0  0  0  0
 32 67  2  0  0  0  0
 33 68  1  0  0  0  0
 33 71  1  0  0  0  0
 34 72  1  0  0  0  0
 34 78  2  0  0  0  0
 35 73  1  0  0  0  0
 35 80  2  0  0  0  0
 36 51  1  0  0  0  0
 36 75  1  0  0  0  0
 36 81  2  0  0  0  0
 37 63  1  0  0  0  0
 37 69  1  0  0  0  0
 37 82  2  0  0  0  0
 38 64  1  0  0  0  0
 38 76  1  0  0  0  0
 38 83  2  0  0  0  0
 39 65  1  0  0  0  0
 39 77  1  0  0  0  0
 39 84  2  0  0  0  0
 40 70  1  0  0  0  0
 40 74  1  0  0  0  0
 40 85  2  0  0  0  0
 41 44  1  0  0  0  0
 42 51  1  0  0  0  0
 43 69  1  0  0  0  0
 44 46  1  0  0  0  0
 45 47  1  0  0  0  0
 45 48  1  0  0  0  0
 46 50  1  0  0  0  0
 47 52  1  0  0  0  0
 48 70  1  0  0  0  0
 49 52  1  0  0  0  0
 49 70  1  0  0  0  0
 50 75  1  0  0  0  0
 51 69  1  0  0  0  0
 52 68  1  0  0  0  0
 54 60  1  0  0  0  0
 55 65  1  0  0  0  0
 56 66  1  0  0  0  0
 57 66  1  0  0  0  0
 58 66  1  0  0  0  0
 59 79  1  0  0  0  0
 60 64  1  0  0  0  0
 61 62  1  0  0  0  0
 61 76  1  0  0  0  0
 62 87  1  0  0  0  0
 63 66  1  0  0  0  0
 63 77  1  0  0  0  0
 64 78  1  0  0  0  0
 65 79  1  0  0  0  0
 67 68  1  0  0  0  0
M  CHG  2  78   1  79   1
M  ISO  4  40 100  62 101  74 100  87 101
M  END
> <Batch ID>
0052

> <Smiles>
CCC(NC(=N)c1cccc(C)c1[100NH:0][100C:0](=O)N1CCCC(n2nc(-c3ccc(Oc4ccc(F)cc4F)cc3)c(C(N)=O)c2N)C1)C(=O)NC[101CH2:1][101O:1]c1ccc2c(c1)CN(C(=O)C(NC(=O)C(C)NC)C(C)(C)C)C(C(=O)NC1CCCc3ccccc31)C2

> <Shape>
0.224

> <Color>
0.075

> <Negative vol penalty>
0.000

$$$$

  -OEChem-04042322403D

 86 94  0     1  0  0  0  0  0999 V2000
  -16.8960  -29.1683   24.3309 C   0  0  0  0  0  0  0  0  0  0  0  0
  -17.3246  -28.1432   23.4937 C   0  0  0  0  0  0  0  0  0  0  0  0
  -26.4776  -10.6837   19.6526 C   0  0  0  0  0  0  0  0  0  0  0  0
  -25.9898  -12.6288   18.3051 C   0  0  0  0  0  0  0  0  0  0  0  0
  -17.5577  -30.3955   24.3234 C   0  0  0  0  0  0  0  0  0  0  0  0
  -18.4145  -28.3452   22.6476 C   0  0  0  0  0  0  0  0  0  0  0  0
  -22.6189  -24.2052   21.0078 C   0  0  0  0  0  0  0  0  0  0  0  0
  -28.1624  -21.7446   22.7318 C   0  0  0  0  0  0  0  0  0  0  0  0
  -28.7034  -20.4680   22.8841 C   0  0  0  0  0  0  0  0  0  0  0  0
  -25.2291  -10.1497   19.3338 C   0  0  0  0  0  0  0  0  0  0  0  0
  -24.7413  -12.0948   17.9862 C   0  0  0  0  0  0  0  0  0  0  0  0
  -22.7610  -23.4129   19.8695 C   0  0  0  0  0  0  0  0  0  0  0  0
  -22.0188  -10.5714   20.3037 C   0  0  0  0  0  0  0  0  0  0  0  0
  -21.2680  -10.0170   21.3403 C   0  0  0  0  0  0  0  0  0  0  0  0
  -28.4236  -20.0672   20.5180 C   0  0  0  0  0  0  0  0  0  0  0  0
  -24.2659  -25.0462   18.9279 C   0  0  0  0  0  0  0  0  0  0  0  0
  -21.2729   -7.8851   20.2036 C   0  0  0  0  0  0  0  0  0  0  0  0
  -26.8580  -11.9233   19.1383 C   0  0  0  0  0  0  0  0  0  0  0  0
  -27.8826  -21.3438   20.3657 C   0  0  0  0  0  0  0  0  0  0  0  0
  -29.3546  -12.2931   18.7670 C   0  0  0  0  0  0  0  0  0  0  0  0
  -18.6622  -30.6095   23.4839 C   0  0  0  0  0  0  0  0  0  0  0  0
  -23.2918  -25.4312   21.1102 C   0  0  0  0  0  0  0  0  0  0  0  0
  -19.0907  -29.5769   22.6279 C   0  0  0  0  0  0  0  0  0  0  0  0
  -24.1327  -25.8510   20.0696 C   0  0  0  0  0  0  0  0  0  0  0  0
  -27.7520  -22.1825   21.4726 C   0  0  0  0  0  0  0  0  0  0  0  0
  -28.8341  -19.6293   21.7772 C   0  0  0  0  0  0  0  0  0  0  0  0
  -24.3609  -10.8553   18.5006 C   0  0  0  0  0  0  0  0  0  0  0  0
  -23.5823  -23.8347   18.8281 C   0  0  0  0  0  0  0  0  0  0  0  0
  -22.3966   -9.7827   19.2170 C   0  0  0  0  0  0  0  0  0  0  0  0
  -20.8951   -8.6738   21.2902 C   0  0  0  0  0  0  0  0  0  0  0  0
  -22.0237   -8.4395   19.1669 C   0  0  0  0  0  0  0  0  0  0  0  0
  -28.1473  -12.4756   19.4677 C   0  0  0  0  0  0  0  0  0  0  0  0
  -30.2780  -13.0190   19.4790 C   0  0  0  0  0  0  0  0  0  0  0  0
  -27.4542  -21.7850   19.0134 C   0  0  0  0  0  0  0  0  0  0  0  0
  -29.6177  -11.5353   17.5786 C   0  0  0  0  0  0  0  0  0  0  0  0
  -22.3925  -28.4666   21.3959 C   0  0  0  0  0  0  0  0  0  0  0  0
  -25.5778  -28.9709   21.7448 C   0  0  0  0  0  0  0  0  0  0  0  0
  -28.7628  -27.8901   21.1660 C   0  0  0  0  0  0  0  0  0  0  0  0
  -29.8358  -17.7423   23.1121 C   0  0  0  0  0  0  0  0  0  0  0  0
  -19.3160  -31.9686   23.4765 C   0  0  0  0  0  0  0  0  0  0  0  0
  -23.1489  -26.2617   22.3562 C   0  0  0  0  0  0  0  0  0  0  0  0
  -24.8929  -27.1494   20.1391 C   0  0  0  0  0  0  0  0  0  0  0  0
  -20.6950  -31.9775   22.8219 C   0  0  0  0  0  0  0  0  0  0  0  0
  -31.2161  -14.5600   23.9151 C   0  0  0  0  0  0  0  0  0  0  0  0
  -20.6627  -31.2197   21.4985 C   0  0  0  0  0  0  0  0  0  0  0  0
  -30.7007  -13.6490   22.7986 C   0  0  0  0  0  0  0  0  0  0  0  0
  -30.1748  -15.5999   24.3248 C   0  0  0  0  0  0  0  0  0  0  0  0
  -29.1131  -15.4888   22.1045 C   0  0  0  0  0  0  0  0  0  0  0  0
  -20.2844  -29.7493   21.7139 C   0  0  1  0  0  0  0  0  0  0  0  0
  -23.4778  -27.7346   22.1335 C   0  0  1  0  0  0  0  0  0  0  0  0
  -30.1508  -14.4663   21.6132 C   0  0  2  0  0  0  0  0  0  0  0  0
  -27.1760  -23.5544   21.3376 C   0  0  0  0  0  0  0  0  0  0  0  0
  -31.2682  -27.8484   21.3014 C   0  0  0  0  0  0  0  0  0  0  0  0
  -25.3714  -31.0266   19.4995 C   0  0  0  0  0  0  0  0  0  0  0  0
  -27.8628  -30.9270   19.2736 C   0  0  0  0  0  0  0  0  0  0  0  0
  -26.8361  -31.7098   21.4080 C   0  0  0  0  0  0  0  0  0  0  0  0
  -24.3283  -19.3731   17.0914 C   0  0  0  0  0  0  0  0  0  0  0  0
  -24.0237  -21.2504   15.4539 C   0  0  0  0  0  0  0  0  0  0  0  0
  -28.7180  -26.2553   23.6327 C   0  0  0  0  0  0  0  0  0  0  0  0
  -25.9652  -21.3049   17.0877 C   0  0  0  0  0  0  0  0  0  0  0  0
  -23.5975  -21.6520   17.8838 C   0  0  0  0  0  0  0  0  0  1  0  0
  -26.7242  -29.2570   20.8052 C   0  0  1  0  0  0  0  0  0  0  0  0
  -29.9662  -27.7648   22.0828 C   0  0  2  0  0  0  0  0  0  0  0  0
  -26.6829  -30.7065   20.2441 C   0  0  0  0  0  0  0  0  0  0  0  0
  -24.4895  -20.8901   16.8765 C   0  0  0  0  0  0  0  0  0  0  0  0
  -28.2879  -13.2561   20.5425 N   0  0  0  0  0  0  0  0  0  0  0  0
  -29.5944  -13.5703   20.5225 N   0  0  0  0  0  0  0  0  0  0  0  0
  -24.7154  -27.9291   21.3753 N   0  0  0  0  0  0  0  0  0  0  0  0
  -29.7027  -16.3382   23.1513 N   0  0  0  0  0  0  0  0  0  0  0  0
  -31.5999  -13.2329   19.3080 N   0  0  0  0  0  0  0  0  0  0  0  0
  -28.5551  -10.8495   16.9746 N   0  0  0  0  0  0  0  0  0  0  0  0
  -29.3818  -18.3318   21.9327 N   0  0  0  0  0  0  0  0  0  0  0  0
  -26.4669  -21.0195   18.4053 N   0  0  0  0  0  0  0  0  0  0  0  0
  -21.4187  -29.0038   22.2159 N   0  0  0  0  0  0  0  0  0  0  0  0
  -27.9434  -28.9347   21.5386 N   0  0  0  0  0  0  0  0  0  0  0  0
  -29.9340  -26.4614   22.8046 N   0  3  0  0  0  0  0  0  0  0  0  0
  -27.9920  -22.7645   18.5035 O   0  0  0  0  0  0  0  0  0  0  0  0
  -30.7646  -11.4550   17.0768 O   0  0  0  0  0  0  0  0  0  0  0  0
  -22.4362  -28.5398   20.1735 O   0  0  0  0  0  0  0  0  0  0  0  0
  -25.4564  -29.6422   22.7726 O   0  0  0  0  0  0  0  0  0  0  0  0
  -28.5708  -27.1390   20.2123 O   0  0  0  0  0  0  0  0  0  0  0  0
  -30.3421  -18.3724   24.0441 O   0  0  0  0  0  0  0  0  0  0  0  0
  -23.1426  -10.3344   18.1890 O   0  0  0  0  0  0  0  0  0  0  0  0
  -23.7223  -23.0635   17.7156 O   0  0  0  0  0  0  0  0  0  1  0  0
  -20.1754   -8.1411   22.2865 F   0  0  0  0  0  0  0  0  0  0  0  0
  -22.3847   -7.6766   18.1261 F   0  0  0  0  0  0  0  0  0  0  0  0
  1  2  1  0  0  0  0
  1  5  2  0  0  0  0
  2  6  2  0  0  0  0
  3 10  2  0  0  0  0
  3 18  1  0  0  0  0
  4 11  1  0  0  0  0
  4 18  2  0  0  0  0
  5 21  1  0  0  0  0
  6 23  1  0  0  0  0
  7 12  2  0  0  0  0
  7 22  1  0  0  0  0
  8  9  2  0  0  0  0
  8 25  1  0  0  0  0
  9 26  1  0  0  0  0
 10 27  1  0  0  0  0
 11 27  2  0  0  0  0
 12 28  1  0  0  0  0
 13 14  2  0  0  0  0
 13 29  1  0  0  0  0
 14 30  1  0  0  0  0
 15 19  1  0  0  0  0
 15 26  2  0  0  0  0
 16 24  1  0  0  0  0
 16 28  2  0  0  0  0
 17 30  2  0  0  0  0
 17 31  1  0  0  0  0
 18 32  1  0  0  0  0
 19 25  2  0  0  0  0
 19 34  1  0  0  0  0
 20 32  1  0  0  0  0
 20 33  2  0  0  0  0
 20 35  1  0  0  0  0
 21 23  2  0  0  0  0
 21 40  1  0  0  0  0
 22 24  2  0  0  0  0
 22 41  1  0  0  0  0
 23 49  1  0  0  0  0
 24 42  1  0  0  0  0
 25 52  1  0  0  0  0
 26 72  1  0  0  0  0
 27 83  1  0  0  0  0
 28 84  1  0  0  0  0
 29 31  2  0  0  0  0
 29 83  1  0  0  0  0
 30 85  1  0  0  0  0
 31 86  1  0  0  0  0
 32 66  2  0  0  0  0
 33 67  1  0  0  0  0
 33 70  1  0  0  0  0
 34 73  1  0  0  0  0
 34 77  2  0  0  0  0
 35 71  1  0  0  0  0
 35 78  2  0  0  0  0
 36 50  1  0  0  0  0
 36 74  1  0  0  0  0
 36 79  2  0  0  0  0
 37 62  1  0  0  0  0
 37 68  1  0  0  0  0
 37 80  2  0  0  0  0
 38 63  1  0  0  0  0
 38 75  1  0  0  0  0
 38 81  2  0  0  0  0
 39 69  1  0  0  0  0
 39 72  1  0  0  0  0
 39 82  2  0  0  0  0
 40 43  1  0  0  0  0
 41 50  1  0  0  0  0
 42 68  1  0  0  0  0
 43 45  1  0  0  0  0
 44 46  1  0  0  0  0
 44 47  1  0  0  0  0
 45 49  1  0  0  0  0
 46 51  1  0  0  0  0
 47 69  1  0  0  0  0
 48 51  1  0  0  0  0
 48 69  1  0  0  0  0
 49 74  1  0  0  0  0
 50 68  1  0  0  0  0
 51 67  1  0  0  0  0
 53 63  1  0  0  0  0
 54 64  1  0  0  0  0
 55 64  1  0  0  0  0
 56 64  1  0  0  0  0
 57 65  1  0  0  0  0
 58 65  1  0  0  0  0
 59 76  1  0  0  0  0
 60 65  1  0  0  0  0
 60 73  1  0  0  0  0
 61 65  1  0  0  0  0
 61 84  1  0  0  0  0
 62 64  1  0  0  0  0
 62 75  1  0  0  0  0
 63 76  1  0  0  0  0
 66 67  1  0  0  0  0
M  CHG  1  76   1
M  ISO  4  39 100  61 101  72 100  84 101
M  END
> <Batch ID>
0052

> <Smiles>
CNC(C)C(=O)NC(C(=O)N1Cc2cc([101O:1][101CH2:1]C(C)(C)CNC(=O)c3cc([100NH:0][100C:0](=O)N4CCCC(n5nc(-c6ccc(Oc7ccc(F)cc7F)cc6)c(C(N)=O)c5N)C4)ccc3C)ccc2CC1C(=O)NC1CCCc2ccccc21)C(C)(C)C

> <Shape>
0.246

> <Color>
0.076

> <Negative vol penalty>
0.000

$$$$

  -OEChem-04042322403D

 86 94  0     1  0  0  0  0  0999 V2000
  -32.0744  -13.4648   21.0980 C   0  0  0  0  0  0  0  0  0  0  0  0
  -31.4228  -14.5401   21.6914 C   0  0  0  0  0  0  0  0  0  0  0  0
  -18.2267  -26.7159   23.1906 C   0  0  0  0  0  0  0  0  0  0  0  0
  -29.4108  -25.2147   20.0430 C   0  0  0  0  0  0  0  0  0  0  0  0
  -27.4406  -23.8346   19.8178 C   0  0  0  0  0  0  0  0  0  0  0  0
  -31.3795  -12.6279   20.2275 C   0  0  0  0  0  0  0  0  0  0  0  0
  -30.0731  -14.7718   21.4237 C   0  0  0  0  0  0  0  0  0  0  0  0
  -26.4049  -19.3037   23.1939 C   0  0  0  0  0  0  0  0  0  0  0  0
  -18.5126  -26.5537   21.8350 C   0  0  0  0  0  0  0  0  0  0  0  0
  -30.1328  -24.1103   20.4952 C   0  0  0  0  0  0  0  0  0  0  0  0
  -28.1626  -22.7301   20.2700 C   0  0  0  0  0  0  0  0  0  0  0  0
  -26.0017  -20.5487   22.7132 C   0  0  0  0  0  0  0  0  0  0  0  0
  -29.5811  -19.4681   21.0220 C   0  0  0  0  0  0  0  0  0  0  0  0
  -19.0924  -27.4478   24.0033 C   0  0  0  0  0  0  0  0  0  0  0  0
  -29.4305  -18.2664   20.3300 C   0  0  0  0  0  0  0  0  0  0  0  0
  -24.0135  -19.5418   21.7901 C   0  0  0  0  0  0  0  0  0  0  0  0
  -30.2445  -19.3241   18.3161 C   0  0  0  0  0  0  0  0  0  0  0  0
  -28.0646  -25.0769   19.7044 C   0  0  0  0  0  0  0  0  0  0  0  0
  -27.1682  -26.6485   17.9061 C   0  0  0  0  0  0  0  0  0  0  0  0
  -30.0240  -12.8574   19.9399 C   0  0  0  0  0  0  0  0  0  0  0  0
  -25.6194  -18.1645   22.9665 C   0  0  0  0  0  0  0  0  0  0  0  0
  -29.3482  -13.9242   20.5666 C   0  0  0  0  0  0  0  0  0  0  0  0
  -24.4076  -18.2839   22.2712 C   0  0  0  0  0  0  0  0  0  0  0  0
  -19.6643  -27.1233   21.2922 C   0  0  0  0  0  0  0  0  0  0  0  0
  -20.5301  -27.8553   22.1049 C   0  0  0  0  0  0  0  0  0  0  0  0
  -29.5087  -22.8679   20.6086 C   0  0  0  0  0  0  0  0  0  0  0  0
  -24.8073  -20.6675   22.0087 C   0  0  0  0  0  0  0  0  0  0  0  0
  -30.0633  -20.5978   20.3610 C   0  0  0  0  0  0  0  0  0  0  0  0
  -29.7622  -18.1944   18.9771 C   0  0  0  0  0  0  0  0  0  0  0  0
  -20.2441  -28.0175   23.4604 C   0  0  0  0  0  0  0  0  0  0  0  0
  -30.3951  -20.5258   19.0081 C   0  0  0  0  0  0  0  0  0  0  0  0
  -27.3181  -26.2175   19.2378 C   0  0  0  0  0  0  0  0  0  0  0  0
  -26.3744  -27.7659   17.9940 C   0  0  0  0  0  0  0  0  0  0  0  0
  -22.0290  -23.7665   19.9457 C   0  0  0  0  0  0  0  0  0  0  0  0
  -23.2867  -23.3069   20.0067 C   0  0  0  0  0  0  0  0  0  0  0  0
  -27.6990  -26.0888   16.6975 C   0  0  0  0  0  0  0  0  0  0  0  0
  -21.7733  -25.1893   19.5784 C   0  0  0  0  0  0  0  0  0  0  0  0
  -26.0475  -15.4146   21.4307 C   0  0  0  0  0  0  0  0  0  0  0  0
  -23.1556  -14.6970   22.7131 C   0  0  0  0  0  0  0  0  0  0  0  0
  -20.1972  -15.8148   23.9957 C   0  0  0  0  0  0  0  0  0  0  0  0
  -22.3415  -29.6030   22.0023 C   0  0  0  0  0  0  0  0  0  0  0  0
  -29.3182  -11.9157   18.9964 C   0  0  0  0  0  0  0  0  0  0  0  0
  -26.0551  -16.8333   23.5147 C   0  0  0  0  0  0  0  0  0  0  0  0
  -23.5181  -17.0951   22.0180 C   0  0  0  0  0  0  0  0  0  0  0  0
  -28.0254  -12.4967   18.4330 C   0  0  0  0  0  0  0  0  0  0  0  0
  -25.2689  -31.3489   20.9730 C   0  0  0  0  0  0  0  0  0  0  0  0
  -27.1716  -13.0555   19.5614 C   0  0  0  0  0  0  0  0  0  0  0  0
  -26.1103  -30.2717   20.2846 C   0  0  0  0  0  0  0  0  0  0  0  0
  -24.5150  -30.7943   22.1804 C   0  0  0  0  0  0  0  0  0  0  0  0
  -24.5425  -28.5250   21.2218 C   0  0  0  0  0  0  0  0  0  0  0  0
  -27.8886  -14.2138   20.2666 C   0  0  1  0  0  0  0  0  0  0  0  0
  -25.4304  -15.6512   22.7801 C   0  0  1  0  0  0  0  0  0  0  0  0
  -25.2695  -29.0211   19.9612 C   0  0  2  0  0  0  0  0  0  0  0  0
  -18.0162  -14.9912   24.9244 C   0  0  0  0  0  0  0  0  0  0  0  0
  -22.2113  -14.0228   19.8911 C   0  0  0  0  0  0  0  0  0  0  0  0
  -19.8543  -14.1368   20.7276 C   0  0  0  0  0  0  0  0  0  0  0  0
  -21.4261  -12.4391   21.6601 C   0  0  0  0  0  0  0  0  0  0  0  0
  -19.4062  -24.6010   19.2216 C   0  0  0  0  0  0  0  0  0  0  0  0
  -20.6888  -17.1099   26.6110 C   0  0  0  0  0  0  0  0  0  0  0  0
  -19.9464  -26.9320   19.8300 C   0  0  0  0  0  0  0  0  0  0  0  0
  -23.6268  -21.8915   20.3461 C   0  0  0  0  0  0  0  0  0  1  0  0
  -21.7204  -14.8726   22.2791 C   0  0  1  0  0  0  0  0  0  0  0  0
  -19.4347  -15.4316   25.2511 C   0  0  2  0  0  0  0  0  0  0  0  0
  -21.3205  -13.8901   21.1424 C   0  0  0  0  0  0  0  0  0  0  0  0
  -26.6716  -26.9977   20.1081 N   0  0  0  0  0  0  0  0  0  0  0  0
  -26.1078  -27.9301   19.3215 N   0  0  0  0  0  0  0  0  0  0  0  0
  -23.9906  -15.8140   22.5686 N   0  0  0  0  0  0  0  0  0  0  0  0
  -23.7375  -29.6137   21.7976 N   0  0  0  0  0  0  0  0  0  0  0  0
  -25.8855  -28.6142   17.0647 N   0  0  0  0  0  0  0  0  0  0  0  0
  -28.4952  -24.9388   16.7871 N   0  0  0  0  0  0  0  0  0  0  0  0
  -21.7043  -28.4405   21.5696 N   0  0  0  0  0  0  0  0  0  0  0  0
  -27.1456  -14.5762   21.4534 N   0  0  0  0  0  0  0  0  0  0  0  0
  -20.9110  -14.7505   23.4867 N   0  0  0  0  0  0  0  0  0  0  0  0
  -20.4333  -25.5850   19.5385 N   0  0  0  0  0  0  0  0  0  0  0  0
  -19.3636  -16.5887   26.1875 N   0  3  0  0  0  0  0  0  0  0  0  0
  -27.4874  -26.6029   15.5730 O   0  0  0  0  0  0  0  0  0  0  0  0
  -22.7197  -25.9304   19.3085 O   0  0  0  0  0  0  0  0  0  0  0  0
  -25.5623  -15.9518   20.4419 O   0  0  0  0  0  0  0  0  0  0  0  0
  -23.5206  -13.6110   23.1703 O   0  0  0  0  0  0  0  0  0  0  0  0
  -20.1601  -16.9443   23.5125 O   0  0  0  0  0  0  0  0  0  0  0  0
  -21.7509  -30.5659   22.4983 O   0  0  0  0  0  0  0  0  0  0  0  0
  -30.2130  -21.7899   21.0496 O   0  0  0  0  0  0  0  0  0  0  0  0
  -24.4118  -21.8814   21.5378 O   0  0  0  0  0  0  0  0  0  1  0  0
  -29.6190  -17.0399   18.3130 F   0  0  0  0  0  0  0  0  0  0  0  0
  -21.0683  -28.7189   24.2519 F   0  0  0  0  0  0  0  0  0  0  0  0
  -30.8600  -21.6075   18.3680 F   0  0  0  0  0  0  0  0  0  0  0  0
  1  2  1  0  0  0  0
  1  6  2  0  0  0  0
  2  7  2  0  0  0  0
  3  9  2  0  0  0  0
  3 14  1  0  0  0  0
  4 10  2  0  0  0  0
  4 18  1  0  0  0  0
  5 11  1  0  0  0  0
  5 18  2  0  0  0  0
  6 20  1  0  0  0  0
  7 22  1  0  0  0  0
  8 12  2  0  0  0  0
  8 21  1  0  0  0  0
  9 24  1  0  0  0  0
 10 26  1  0  0  0  0
 11 26  2  0  0  0  0
 12 27  1  0  0  0  0
 13 15  2  0  0  0  0
 13 28  1  0  0  0  0
 14 30  2  0  0  0  0
 15 29  1  0  0  0  0
 16 23  1  0  0  0  0
 16 27  2  0  0  0  0
 17 29  2  0  0  0  0
 17 31  1  0  0  0  0
 18 32  1  0  0  0  0
 19 32  1  0  0  0  0
 19 33  2  0  0  0  0
 19 36  1  0  0  0  0
 20 22  2  0  0  0  0
 20 42  1  0  0  0  0
 21 23  2  0  0  0  0
 21 43  1  0  0  0  0
 22 51  1  0  0  0  0
 23 44  1  0  0  0  0
 24 25  2  0  0  0  0
 24 60  1  0  0  0  0
 25 30  1  0  0  0  0
 25 71  1  0  0  0  0
 26 82  1  0  0  0  0
 27 83  1  0  0  0  0
 28 31  2  0  0  0  0
 28 82  1  0  0  0  0
 29 84  1  0  0  0  0
 30 85  1  0  0  0  0
 31 86  1  0  0  0  0
 32 65  2  0  0  0  0
 33 66  1  0  0  0  0
 33 69  1  0  0  0  0
 34 35  2  0  0  0  0
 34 37  1  0  0  0  0
 35 61  1  0  0  0  0
 36 70  1  0  0  0  0
 36 76  2  0  0  0  0
 37 74  1  0  0  0  0
 37 77  2  0  0  0  0
 38 52  1  0  0  0  0
 38 72  1  0  0  0  0
 38 78  2  0  0  0  0
 39 62  1  0  0  0  0
 39 67  1  0  0  0  0
 39 79  2  0  0  0  0
 40 63  1  0  0  0  0
 40 73  1  0  0  0  0
 40 80  2  0  0  0  0
 41 68  1  0  0  0  0
 41 71  1  0  0  0  0
 41 81  2  0  0  0  0
 42 45  1  0  0  0  0
 43 52  1  0  0  0  0
 44 67  1  0  0  0  0
 45 47  1  0  0  0  0
 46 48  1  0  0  0  0
 46 49  1  0  0  0  0
 47 51  1  0  0  0  0
 48 53  1  0  0  0  0
 49 68  1  0  0  0  0
 50 53  1  0  0  0  0
 50 68  1  0  0  0  0
 51 72  1  0  0  0  0
 52 67  1  0  0  0  0
 53 66  1  0  0  0  0
 54 63  1  0  0  0  0
 55 64  1  0  0  0  0
 56 64  1  0  0  0  0
 57 64  1  0  0  0  0
 58 74  1  0  0  0  0
 59 75  1  0  0  0  0
 60 74  1  0  0  0  0
 61 83  1  0  0  0  0
 62 64  1  0  0  0  0
 62 73  1  0  0  0  0
 63 75  1  0  0  0  0
 65 66  1  0  0  0  0
M  CHG  1  75   1
M  ISO  4  41 100  61 101  71 100  83 101
M  END
> <Batch ID>
0052

> <Smiles>
CNC(C)C(=O)NC(C(=O)N1Cc2cc([101O:1][101CH2:1]C=CC(=O)N(C)Cc3cccc(F)c3[100NH:0][100C:0](=O)N3CCCC(n4nc(-c5ccc(Oc6ccc(F)cc6F)cc5)c(C(N)=O)c4N)C3)ccc2CC1C(=O)NC1CCCc2ccccc21)C(C)(C)C

> <Shape>
0.256

> <Color>
0.067

> <Negative vol penalty>
0.000

$$$$

  -OEChem-04042322403D

 87 96  0     1  0  0  0  0  0999 V2000
  -16.5435  -29.7632   22.8426 C   0  0  0  0  0  0  0  0  0  0  0  0
  -17.5149  -30.6002   23.3821 C   0  0  0  0  0  0  0  0  0  0  0  0
  -32.8507  -27.0581   22.7259 C   0  0  0  0  0  0  0  0  0  0  0  0
  -25.1198  -17.1142   23.6652 C   0  0  0  0  0  0  0  0  0  0  0  0
  -27.1681  -17.7048   22.5282 C   0  0  0  0  0  0  0  0  0  0  0  0
  -16.8823  -28.4713   22.4423 C   0  0  0  0  0  0  0  0  0  0  0  0
  -18.8256  -30.1454   23.5227 C   0  0  0  0  0  0  0  0  0  0  0  0
  -25.5961  -32.4764   23.3158 C   0  0  0  0  0  0  0  0  0  0  0  0
  -33.2140  -28.1666   23.4906 C   0  0  0  0  0  0  0  0  0  0  0  0
  -31.7403  -26.2951   23.0872 C   0  0  0  0  0  0  0  0  0  0  0  0
  -24.7820  -16.2619   22.6140 C   0  0  0  0  0  0  0  0  0  0  0  0
  -26.8304  -16.8524   21.4770 C   0  0  0  0  0  0  0  0  0  0  0  0
  -26.7639  -32.4621   24.0773 C   0  0  0  0  0  0  0  0  0  0  0  0
  -23.5002  -16.5366   19.4986 C   0  0  0  0  0  0  0  0  0  0  0  0
  -22.1909  -16.5860   19.0203 C   0  0  0  0  0  0  0  0  0  0  0  0
  -27.2507  -30.2387   23.2781 C   0  0  0  0  0  0  0  0  0  0  0  0
  -21.8975  -14.2548   19.5829 C   0  0  0  0  0  0  0  0  0  0  0  0
  -26.3128  -17.8357   23.6223 C   0  0  0  0  0  0  0  0  0  0  0  0
  -26.8508  -18.3683   26.0584 C   0  0  0  0  0  0  0  0  0  0  0  0
  -18.1998  -28.0038   22.5691 C   0  0  0  0  0  0  0  0  0  0  0  0
  -25.2407  -31.3658   22.5369 C   0  0  0  0  0  0  0  0  0  0  0  0
  -19.1820  -28.8457   23.1250 C   0  0  0  0  0  0  0  0  0  0  0  0
  -26.0792  -30.2424   22.5056 C   0  0  0  0  0  0  0  0  0  0  0  0
  -32.4669  -28.5121   24.6167 C   0  0  0  0  0  0  0  0  0  0  0  0
  -31.3565  -27.7491   24.9781 C   0  0  0  0  0  0  0  0  0  0  0  0
  -30.9932  -26.6407   24.2133 C   0  0  0  0  0  0  0  0  0  0  0  0
  -25.6373  -16.1310   21.5199 C   0  0  0  0  0  0  0  0  0  0  0  0
  -27.5899  -31.3421   24.0608 C   0  0  0  0  0  0  0  0  0  0  0  0
  -24.0083  -15.3463   20.0189 C   0  0  0  0  0  0  0  0  0  0  0  0
  -21.3895  -15.4451   19.0625 C   0  0  0  0  0  0  0  0  0  0  0  0
  -23.2069  -14.2054   20.0611 C   0  0  0  0  0  0  0  0  0  0  0  0
  -26.6620  -18.7168   24.7076 C   0  0  0  0  0  0  0  0  0  0  0  0
  -27.1662  -19.5529   26.6778 C   0  0  0  0  0  0  0  0  0  0  0  0
  -31.3152  -31.4603   26.2350 C   0  0  0  0  0  0  0  0  0  0  0  0
  -26.7501  -17.0881   26.6962 C   0  0  0  0  0  0  0  0  0  0  0  0
  -22.7905  -29.3412   22.5033 C   0  0  0  0  0  0  0  0  0  0  0  0
  -24.2362  -28.2457   19.8140 C   0  0  0  0  0  0  0  0  0  0  0  0
  -27.6081  -27.5573   18.7308 C   0  0  0  0  0  0  0  0  0  0  0  0
  -29.6773  -24.4868   24.3311 C   0  0  0  0  0  0  0  0  0  0  0  0
  -18.5081  -26.5835   22.1662 C   0  0  0  0  0  0  0  0  0  0  0  0
  -23.9914  -31.4073   21.7002 C   0  0  0  0  0  0  0  0  0  0  0  0
  -25.7531  -29.0323   21.6702 C   0  0  0  0  0  0  0  0  0  0  0  0
  -20.0004  -26.3070   22.0023 C   0  0  0  0  0  0  0  0  0  0  0  0
  -26.0645  -24.1338   25.5748 C   0  0  0  0  0  0  0  0  0  0  0  0
  -20.7814  -26.8748   23.1832 C   0  0  0  0  0  0  0  0  0  0  0  0
  -26.1617  -22.7686   26.2517 C   0  0  0  0  0  0  0  0  0  0  0  0
  -30.6035  -31.8082   23.3898 C   0  0  0  0  0  0  0  0  0  0  0  0
  -27.4192  -24.8223   25.4663 C   0  0  0  0  0  0  0  0  0  0  0  0
  -32.0098  -31.4440   23.8580 C   0  0  0  0  0  0  0  0  0  0  0  0
  -28.1086  -22.5765   24.6077 C   0  0  0  0  0  0  0  0  0  0  0  0
  -20.6200  -28.3972   23.2706 C   0  0  1  0  0  0  0  0  0  0  0  0
  -30.5011  -32.6781   25.7876 C   0  0  1  0  0  0  0  0  0  0  0  0
  -23.4640  -30.0206   21.3447 C   0  0  1  0  0  0  0  0  0  0  0  0
  -27.4282  -21.9858   25.8524 C   0  0  2  0  0  0  0  0  0  0  0  0
  -29.7064  -32.3294   24.5193 C   0  0  2  0  0  0  0  0  0  1  0  0
  -30.5579  -28.1239   26.1871 C   0  0  0  0  0  0  0  0  0  0  0  0
  -29.6036  -33.1855   26.9159 C   0  0  0  0  0  0  0  0  0  0  0  0
  -28.6153  -27.5561   16.4324 C   0  0  0  0  0  0  0  0  0  0  0  0
  -23.6121  -25.2593   19.8572 C   0  0  0  0  0  0  0  0  0  0  0  0
  -25.7780  -24.8604   18.6664 C   0  0  0  0  0  0  0  0  0  0  0  0
  -23.9882  -26.2136   17.5763 C   0  0  0  0  0  0  0  0  0  0  0  0
  -29.7100  -29.4837   19.5246 C   0  0  0  0  0  0  0  0  0  0  0  0
  -32.8799  -29.7100   25.4221 C   0  0  0  0  0  0  0  0  0  0  0  0
  -25.2812  -27.1988   19.5127 C   0  0  1  0  0  0  0  0  0  0  0  0
  -28.4157  -28.3464   17.7162 C   0  0  2  0  0  0  0  0  0  0  0  0
  -24.6644  -25.8968   18.9280 C   0  0  0  0  0  0  0  0  0  0  0  0
  -26.8423  -20.0208   24.4815 N   0  0  0  0  0  0  0  0  0  0  0  0
  -27.1475  -20.5021   25.6986 N   0  0  0  0  0  0  0  0  0  0  0  0
  -32.0089  -30.8497   25.1875 N   0  0  0  0  0  0  0  0  0  0  0  0
  -24.5174  -29.1187   20.8745 N   0  0  0  0  0  0  0  0  0  0  0  0
  -28.4367  -23.9933   24.8040 N   0  0  0  0  0  0  0  0  0  0  0  0
  -27.4548  -19.8648   27.9591 N   0  0  0  0  0  0  0  0  0  0  0  0
  -27.8984  -16.2883   26.7739 N   0  0  0  0  0  0  0  0  0  0  0  0
  -29.8684  -25.8517   24.5617 N   0  0  0  0  0  0  0  0  0  0  0  0
  -21.4567  -29.0514   22.2875 N   0  0  0  0  0  0  0  0  0  0  0  0
  -26.2613  -27.8390   18.6421 N   0  0  0  0  0  0  0  0  0  0  0  0
  -29.7561  -28.6860   18.2722 N   0  3  0  0  0  0  0  0  0  0  0  0
  -31.3571  -31.0937   27.4084 O   0  0  0  0  0  0  0  0  0  0  0  0
  -25.6700  -16.6591   27.1682 O   0  0  0  0  0  0  0  0  0  0  0  0
  -23.4336  -29.0966   23.5173 O   0  0  0  0  0  0  0  0  0  0  0  0
  -23.2114  -28.2919   19.1289 O   0  0  0  0  0  0  0  0  0  0  0  0
  -28.1204  -26.7669   19.5204 O   0  0  0  0  0  0  0  0  0  0  0  0
  -30.4999  -23.7513   23.7812 O   0  0  0  0  0  0  0  0  0  0  0  0
  -25.3082  -15.2991   20.4941 O   0  0  0  0  0  0  0  0  0  0  0  0
  -28.7300  -31.3253   24.8037 O   0  0  0  0  0  0  0  0  0  1  0  0
  -20.1317  -15.4930   18.6046 F   0  0  0  0  0  0  0  0  0  0  0  0
  -23.6891  -13.0593   20.5610 F   0  0  0  0  0  0  0  0  0  0  0  0
  1  2  1  0  0  0  0
  1  6  2  0  0  0  0
  2  7  2  0  0  0  0
  3  9  2  0  0  0  0
  3 10  1  0  0  0  0
  4 11  2  0  0  0  0
  4 18  1  0  0  0  0
  5 12  1  0  0  0  0
  5 18  2  0  0  0  0
  6 20  1  0  0  0  0
  7 22  1  0  0  0  0
  8 13  2  0  0  0  0
  8 21  1  0  0  0  0
  9 24  1  0  0  0  0
 10 26  2  0  0  0  0
 11 27  1  0  0  0  0
 12 27  2  0  0  0  0
 13 28  1  0  0  0  0
 14 15  2  0  0  0  0
 14 29  1  0  0  0  0
 15 30  1  0  0  0  0
 16 23  1  0  0  0  0
 16 28  2  0  0  0  0
 17 30  2  0  0  0  0
 17 31  1  0  0  0  0
 18 32  1  0  0  0  0
 19 32  1  0  0  0  0
 19 33  2  0  0  0  0
 19 35  1  0  0  0  0
 20 22  2  0  0  0  0
 20 40  1  0  0  0  0
 21 23  2  0  0  0  0
 21 41  1  0  0  0  0
 22 51  1  0  0  0  0
 23 42  1  0  0  0  0
 24 25  2  0  0  0  0
 24 63  1  0  0  0  0
 25 26  1  0  0  0  0
 25 56  1  0  0  0  0
 26 74  1  0  0  0  0
 27 84  1  0  0  0  0
 28 85  1  0  0  0  0
 29 31  2  0  0  0  0
 29 84  1  0  0  0  0
 30 86  1  0  0  0  0
 31 87  1  0  0  0  0
 32 67  2  0  0  0  0
 33 68  1  0  0  0  0
 33 72  1  0  0  0  0
 34 52  1  0  0  0  0
 34 69  1  0  0  0  0
 34 78  2  0  0  0  0
 35 73  1  0  0  0  0
 35 79  2  0  0  0  0
 36 53  1  0  0  0  0
 36 75  1  0  0  0  0
 36 80  2  0  0  0  0
 37 64  1  0  0  0  0
 37 70  1  0  0  0  0
 37 81  2  0  0  0  0
 38 65  1  0  0  0  0
 38 76  1  0  0  0  0
 38 82  2  0  0  0  0
 39 71  1  0  0  0  0
 39 74  1  0  0  0  0
 39 83  2  0  0  0  0
 40 43  1  0  0  0  0
 41 53  1  0  0  0  0
 42 70  1  0  0  0  0
 43 45  1  0  0  0  0
 44 46  1  0  0  0  0
 44 48  1  0  0  0  0
 45 51  1  0  0  0  0
 46 54  1  0  0  0  0
 47 49  1  0  0  0  0
 47 55  1  0  0  0  0
 48 71  1  0  0  0  0
 49 69  1  0  0  0  0
 50 54  1  0  0  0  0
 50 71  1  0  0  0  0
 51 75  1  0  0  0  0
 52 55  1  0  0  0  0
 52 57  1  0  0  0  0
 53 70  1  0  0  0  0
 54 68  1  0  0  0  0
 55 85  1  0  0  0  0
 58 65  1  0  0  0  0
 59 66  1  0  0  0  0
 60 66  1  0  0  0  0
 61 66  1  0  0  0  0
 62 77  1  0  0  0  0
 63 69  1  0  0  0  0
 64 66  1  0  0  0  0
 64 76  1  0  0  0  0
 65 77  1  0  0  0  0
 67 68  1  0  0  0  0
M  CHG  1  77   1
M  ISO  4  39 100  55 101  74 100  85 101
M  END
> <Batch ID>
0052

> <Smiles>
CNC(C)C(=O)NC(C(=O)N1Cc2cc([101O:1][101CH:1]3CCN(Cc4cccc([100NH:0][100C:0](=O)N5CCCC(n6nc(-c7ccc(Oc8ccc(F)cc8F)cc7)c(C(N)=O)c6N)C5)c4C)C(=O)C3C)ccc2CC1C(=O)NC1CCCc2ccccc21)C(C)(C)C

> <Shape>
0.189

> <Color>
0.115

> <Negative vol penalty>
0.000

$$$$

  -OEChem-04042322403D

 85 93  0     1  0  0  0  0  0999 V2000
  -32.4457  -13.8671   20.2128 C   0  0  0  0  0  0  0  0  0  0  0  0
  -31.7137  -15.0079   20.5261 C   0  0  0  0  0  0  0  0  0  0  0  0
  -19.0250  -28.6252   23.5918 C   0  0  0  0  0  0  0  0  0  0  0  0
  -28.7061  -23.0943   18.6417 C   0  0  0  0  0  0  0  0  0  0  0  0
  -26.8858  -22.6349   20.1624 C   0  0  0  0  0  0  0  0  0  0  0  0
  -31.8005  -12.7493   19.6854 C   0  0  0  0  0  0  0  0  0  0  0  0
  -30.3362  -15.0320   20.3110 C   0  0  0  0  0  0  0  0  0  0  0  0
  -26.1286  -17.9012   23.7125 C   0  0  0  0  0  0  0  0  0  0  0  0
  -20.3478  -28.6828   23.1531 C   0  0  0  0  0  0  0  0  0  0  0  0
  -29.3950  -21.9845   19.1310 C   0  0  0  0  0  0  0  0  0  0  0  0
  -27.5746  -21.5250   20.6517 C   0  0  0  0  0  0  0  0  0  0  0  0
  -25.4779  -19.1252   23.5639 C   0  0  0  0  0  0  0  0  0  0  0  0
  -31.4745  -19.0629   19.7268 C   0  0  0  0  0  0  0  0  0  0  0  0
  -32.0749  -18.2116   18.7993 C   0  0  0  0  0  0  0  0  0  0  0  0
  -18.1241  -27.7544   22.9787 C   0  0  0  0  0  0  0  0  0  0  0  0
  -23.6112  -18.0002   22.5299 C   0  0  0  0  0  0  0  0  0  0  0  0
  -29.9176  -17.7758   17.8027 C   0  0  0  0  0  0  0  0  0  0  0  0
  -27.4515  -23.4195   19.1575 C   0  0  0  0  0  0  0  0  0  0  0  0
  -26.3205  -24.7910   17.3279 C   0  0  0  0  0  0  0  0  0  0  0  0
  -30.4129  -12.7563   19.4727 C   0  0  0  0  0  0  0  0  0  0  0  0
  -25.5293  -16.7168   23.2603 C   0  0  0  0  0  0  0  0  0  0  0  0
  -29.6720  -13.9138   19.7789 C   0  0  0  0  0  0  0  0  0  0  0  0
  -24.2553  -16.7622   22.6763 C   0  0  0  0  0  0  0  0  0  0  0  0
  -19.8689  -26.9988   21.4881 C   0  0  0  0  0  0  0  0  0  0  0  0
  -20.7698  -27.8696   22.1013 C   0  0  0  0  0  0  0  0  0  0  0  0
  -28.8292  -21.1998   20.1360 C   0  0  0  0  0  0  0  0  0  0  0  0
  -24.2202  -19.1752   22.9699 C   0  0  0  0  0  0  0  0  0  0  0  0
  -30.0956  -19.2706   19.6924 C   0  0  0  0  0  0  0  0  0  0  0  0
  -31.2965  -17.5681   17.8372 C   0  0  0  0  0  0  0  0  0  0  0  0
  -29.3171  -18.6271   18.7303 C   0  0  0  0  0  0  0  0  0  0  0  0
  -18.5461  -26.9413   21.9269 C   0  0  0  0  0  0  0  0  0  0  0  0
  -26.7397  -24.5661   18.6529 C   0  0  0  0  0  0  0  0  0  0  0  0
  -25.6939  -26.0126   17.3687 C   0  0  0  0  0  0  0  0  0  0  0  0
  -21.6401  -22.7041   21.2108 C   0  0  0  0  0  0  0  0  0  0  0  0
  -22.7265  -21.9202   21.2415 C   0  0  0  0  0  0  0  0  0  0  0  0
  -26.4828  -23.9692   16.1644 C   0  0  0  0  0  0  0  0  0  0  0  0
  -21.7394  -24.1086   20.7267 C   0  0  0  0  0  0  0  0  0  0  0  0
  -26.2710  -14.5130   21.0932 C   0  0  0  0  0  0  0  0  0  0  0  0
  -23.6743  -12.9994   22.3131 C   0  0  0  0  0  0  0  0  0  0  0  0
  -20.7020  -13.2285   23.9744 C   0  0  0  0  0  0  0  0  0  0  0  0
  -22.9606  -29.0550   21.7251 C   0  0  0  0  0  0  0  0  0  0  0  0
  -29.7668  -11.5409   18.8562 C   0  0  0  0  0  0  0  0  0  0  0  0
  -26.2328  -15.4013   23.4523 C   0  0  0  0  0  0  0  0  0  0  0  0
  -23.5599  -15.5169   22.1925 C   0  0  0  0  0  0  0  0  0  0  0  0
  -28.2481  -11.5150   19.0087 C   0  0  0  0  0  0  0  0  0  0  0  0
  -25.7223  -30.1576   19.7671 C   0  0  0  0  0  0  0  0  0  0  0  0
  -27.6521  -12.8719   18.6475 C   0  0  0  0  0  0  0  0  0  0  0  0
  -26.2548  -28.8702   19.1338 C   0  0  0  0  0  0  0  0  0  0  0  0
  -25.2266  -29.9252   21.1933 C   0  0  0  0  0  0  0  0  0  0  0  0
  -24.7827  -27.5510   20.7085 C   0  0  0  0  0  0  0  0  0  0  0  0
  -28.1725  -13.9697   19.5831 C   0  0  1  0  0  0  0  0  0  0  0  0
  -25.7513  -14.3202   22.4897 C   0  0  1  0  0  0  0  0  0  0  0  0
  -25.2335  -27.7215   19.2485 C   0  0  2  0  0  0  0  0  0  0  0  0
  -18.7878  -11.8256   24.7897 C   0  0  0  0  0  0  0  0  0  0  0  0
  -22.5988  -12.8150   19.4636 C   0  0  0  0  0  0  0  0  0  0  0  0
  -20.3448  -12.2968   20.4222 C   0  0  0  0  0  0  0  0  0  0  0  0
  -22.2609  -10.7555   20.8415 C   0  0  0  0  0  0  0  0  0  0  0  0
  -21.2091  -13.9689   26.7946 C   0  0  0  0  0  0  0  0  0  0  0  0
  -20.3354  -26.1286   20.3571 C   0  0  0  0  0  0  0  0  0  0  0  0
  -22.7001  -20.5009   21.7097 C   0  0  0  0  0  0  0  0  0  1  0  0
  -22.1960  -12.9980   22.0073 C   0  0  1  0  0  0  0  0  0  0  0  0
  -20.1356  -12.4371   25.1394 C   0  0  2  0  0  0  0  0  0  0  0  0
  -21.8638  -12.2402   20.6909 C   0  0  0  0  0  0  0  0  0  0  0  0
  -26.4076  -25.5648   19.4753 N   0  0  0  0  0  0  0  0  0  0  0  0
  -25.7731  -26.4290   18.6651 N   0  0  0  0  0  0  0  0  0  0  0  0
  -24.2913  -14.2556   22.3968 N   0  0  0  0  0  0  0  0  0  0  0  0
  -24.2595  -28.8259   21.2239 N   0  0  0  0  0  0  0  0  0  0  0  0
  -25.0884  -26.7604   16.4218 N   0  0  0  0  0  0  0  0  0  0  0  0
  -25.4873  -23.0287   15.8664 N   0  0  0  0  0  0  0  0  0  0  0  0
  -22.1187  -27.9445   21.6741 N   0  0  0  0  0  0  0  0  0  0  0  0
  -20.5157  -24.7549   20.7702 N   0  0  0  0  0  0  0  0  0  0  0  0
  -27.4924  -13.9105   20.8592 N   0  0  0  0  0  0  0  0  0  0  0  0
  -21.5349  -12.4583   23.1905 N   0  0  0  0  0  0  0  0  0  0  0  0
  -19.9575  -13.3194   26.3271 N   0  3  0  0  0  0  0  0  0  0  0  0
  -27.4891  -24.0546   15.4203 O   0  0  0  0  0  0  0  0  0  0  0  0
  -22.7960  -24.6008   20.3446 O   0  0  0  0  0  0  0  0  0  0  0  0
  -25.6121  -15.1593   20.2871 O   0  0  0  0  0  0  0  0  0  0  0  0
  -24.2586  -11.9257   22.4788 O   0  0  0  0  0  0  0  0  0  0  0  0
  -20.4297  -14.4107   23.7771 O   0  0  0  0  0  0  0  0  0  0  0  0
  -22.6118  -30.1625   22.1420 O   0  0  0  0  0  0  0  0  0  0  0  0
  -29.5010  -20.1167   20.6135 O   0  0  0  0  0  0  0  0  0  0  0  0
  -23.5831  -20.3687   22.8230 O   0  0  0  0  0  0  0  0  0  1  0  0
  -31.8734  -16.7518   16.9456 F   0  0  0  0  0  0  0  0  0  0  0  0
  -27.9921  -18.8236   18.6915 F   0  0  0  0  0  0  0  0  0  0  0  0
  -17.3986  -25.8779   21.1958 Cl  0  0  0  0  0  0  0  0  0  0  0  0
  1  2  1  0  0  0  0
  1  6  2  0  0  0  0
  2  7  2  0  0  0  0
  3  9  2  0  0  0  0
  3 15  1  0  0  0  0
  4 10  2  0  0  0  0
  4 18  1  0  0  0  0
  5 11  1  0  0  0  0
  5 18  2  0  0  0  0
  6 20  1  0  0  0  0
  7 22  1  0  0  0  0
  8 12  2  0  0  0  0
  8 21  1  0  0  0  0
  9 25  1  0  0  0  0
 10 26  1  0  0  0  0
 11 26  2  0  0  0  0
 12 27  1  0  0  0  0
 13 14  2  0  0  0  0
 13 28  1  0  0  0  0
 14 29  1  0  0  0  0
 15 31  2  0  0  0  0
 16 23  1  0  0  0  0
 16 27  2  0  0  0  0
 17 29  2  0  0  0  0
 17 30  1  0  0  0  0
 18 32  1  0  0  0  0
 19 32  1  0  0  0  0
 19 33  2  0  0  0  0
 19 36  1  0  0  0  0
 20 22  2  0  0  0  0
 20 42  1  0  0  0  0
 21 23  2  0  0  0  0
 21 43  1  0  0  0  0
 22 51  1  0  0  0  0
 23 44  1  0  0  0  0
 24 25  2  0  0  0  0
 24 31  1  0  0  0  0
 24 59  1  0  0  0  0
 25 70  1  0  0  0  0
 26 81  1  0  0  0  0
 27 82  1  0  0  0  0
 28 30  2  0  0  0  0
 28 81  1  0  0  0  0
 29 83  1  0  0  0  0
 30 84  1  0  0  0  0
 31 85  1  0  0  0  0
 32 64  2  0  0  0  0
 33 65  1  0  0  0  0
 33 68  1  0  0  0  0
 34 35  2  0  0  0  0
 34 37  1  0  0  0  0
 35 60  1  0  0  0  0
 36 69  1  0  0  0  0
 36 75  2  0  0  0  0
 37 71  1  0  0  0  0
 37 76  2  0  0  0  0
 38 52  1  0  0  0  0
 38 72  1  0  0  0  0
 38 77  2  0  0  0  0
 39 61  1  0  0  0  0
 39 66  1  0  0  0  0
 39 78  2  0  0  0  0
 40 62  1  0  0  0  0
 40 73  1  0  0  0  0
 40 79  2  0  0  0  0
 41 67  1  0  0  0  0
 41 70  1  0  0  0  0
 41 80  2  0  0  0  0
 42 45  1  0  0  0  0
 43 52  1  0  0  0  0
 44 66  1  0  0  0  0
 45 47  1  0  0  0  0
 46 48  1  0  0  0  0
 46 49  1  0  0  0  0
 47 51  1  0  0  0  0
 48 53  1  0  0  0  0
 49 67  1  0  0  0  0
 50 53  1  0  0  0  0
 50 67  1  0  0  0  0
 51 72  1  0  0  0  0
 52 66  1  0  0  0  0
 53 65  1  0  0  0  0
 54 62  1  0  0  0  0
 55 63  1  0  0  0  0
 56 63  1  0  0  0  0
 57 63  1  0  0  0  0
 58 74  1  0  0  0  0
 59 71  1  0  0  0  0
 60 82  1  0  0  0  0
 61 63  1  0  0  0  0
 61 73  1  0  0  0  0
 62 74  1  0  0  0  0
 64 65  1  0  0  0  0
M  CHG  1  74   1
M  ISO  4  41 100  60 101  70 100  82 101
M  END
> <Batch ID>
0052

> <Smiles>
CNC(C)C(=O)NC(C(=O)N1Cc2cc([101O:1][101CH2:1]C=CC(=O)NCc3c(Cl)cccc3[100NH:0][100C:0](=O)N3CCCC(n4nc(-c5ccc(Oc6ccc(F)cc6F)cc5)c(C(N)=O)c4N)C3)ccc2CC1C(=O)NC1CCCc2ccccc21)C(C)(C)C

> <Shape>
0.251

> <Color>
0.078

> <Negative vol penalty>
0.000

$$$$

  -OEChem-04042322403D

 81 89  0     1  0  0  0  0  0999 V2000
  -32.3964  -28.3233   21.2255 C   0  0  0  0  0  0  0  0  0  0  0  0
  -31.0423  -28.1864   21.5139 C   0  0  0  0  0  0  0  0  0  0  0  0
  -18.2907  -27.9301   23.0277 C   0  0  0  0  0  0  0  0  0  0  0  0
  -27.0101  -24.6350   15.2034 C   0  0  0  0  0  0  0  0  0  0  0  0
  -24.6267  -24.2400   15.2250 C   0  0  0  0  0  0  0  0  0  0  0  0
  -18.8403  -26.7008   22.6636 C   0  0  0  0  0  0  0  0  0  0  0  0
  -32.9863  -27.5152   20.2545 C   0  0  0  0  0  0  0  0  0  0  0  0
  -30.2771  -27.2419   20.8306 C   0  0  0  0  0  0  0  0  0  0  0  0
  -25.6051  -23.9741   23.0666 C   0  0  0  0  0  0  0  0  0  0  0  0
  -19.0346  -29.0999   22.8728 C   0  0  0  0  0  0  0  0  0  0  0  0
  -27.2138  -23.3754   14.6400 C   0  0  0  0  0  0  0  0  0  0  0  0
  -24.8304  -22.9803   14.6616 C   0  0  0  0  0  0  0  0  0  0  0  0
  -24.2229  -24.1376   22.9865 C   0  0  0  0  0  0  0  0  0  0  0  0
  -25.4673  -21.6958   11.6014 C   0  0  0  0  0  0  0  0  0  0  0  0
  -24.6354  -21.3166   10.5480 C   0  0  0  0  0  0  0  0  0  0  0  0
  -24.1569  -22.6137   21.1177 C   0  0  0  0  0  0  0  0  0  0  0  0
  -23.8616  -19.4270   11.8395 C   0  0  0  0  0  0  0  0  0  0  0  0
  -25.7165  -25.0673   15.4960 C   0  0  0  0  0  0  0  0  0  0  0  0
  -20.1337  -26.6413   22.1447 C   0  0  0  0  0  0  0  0  0  0  0  0
  -25.2980  -27.5817   15.3960 C   0  0  0  0  0  0  0  0  0  0  0  0
  -32.2301  -26.5537   19.5658 C   0  0  0  0  0  0  0  0  0  0  0  0
  -26.2762  -23.1362   22.1644 C   0  0  0  0  0  0  0  0  0  0  0  0
  -30.8572  -26.4211   19.8485 C   0  0  0  0  0  0  0  0  0  0  0  0
  -25.5474  -22.4393   21.1901 C   0  0  0  0  0  0  0  0  0  0  0  0
  -20.3279  -29.0404   22.3540 C   0  0  0  0  0  0  0  0  0  0  0  0
  -20.8775  -27.8111   21.9899 C   0  0  0  0  0  0  0  0  0  0  0  0
  -26.1239  -22.5481   14.3691 C   0  0  0  0  0  0  0  0  0  0  0  0
  -23.4989  -23.4596   22.0102 C   0  0  0  0  0  0  0  0  0  0  0  0
  -25.4964  -20.9407   12.7738 C   0  0  0  0  0  0  0  0  0  0  0  0
  -23.8325  -20.1822   10.6670 C   0  0  0  0  0  0  0  0  0  0  0  0
  -24.6935  -19.8063   12.8929 C   0  0  0  0  0  0  0  0  0  0  0  0
  -25.5055  -26.3681   16.0786 C   0  0  0  0  0  0  0  0  0  0  0  0
  -25.1514  -28.5155   16.3926 C   0  0  0  0  0  0  0  0  0  0  0  0
  -20.6872  -25.3124   21.7672 C   0  0  0  0  0  0  0  0  0  0  0  0
  -25.2426  -27.8418   13.9871 C   0  0  0  0  0  0  0  0  0  0  0  0
  -28.5219  -23.5596   19.9551 C   0  0  0  0  0  0  0  0  0  0  0  0
  -28.3988  -20.3235   19.7683 C   0  0  0  0  0  0  0  0  0  0  0  0
  -26.6081  -17.4594   20.2553 C   0  0  0  0  0  0  0  0  0  0  0  0
  -23.3700  -28.1646   22.0854 C   0  0  0  0  0  0  0  0  0  0  0  0
  -32.9013  -25.7357   18.4911 C   0  0  0  0  0  0  0  0  0  0  0  0
  -27.7642  -22.9497   22.2810 C   0  0  0  0  0  0  0  0  0  0  0  0
  -26.2178  -21.5122   20.2105 C   0  0  0  0  0  0  0  0  0  0  0  0
  -32.1036  -24.5017   18.0774 C   0  0  0  0  0  0  0  0  0  0  0  0
  -26.4848  -29.4199   20.9024 C   0  0  0  0  0  0  0  0  0  0  0  0
  -30.6382  -24.8628   17.8562 C   0  0  0  0  0  0  0  0  0  0  0  0
  -26.5654  -28.8953   19.4670 C   0  0  0  0  0  0  0  0  0  0  0  0
  -25.8309  -28.4069   21.8405 C   0  0  0  0  0  0  0  0  0  0  0  0
  -24.6015  -27.3851   19.9661 C   0  0  0  0  0  0  0  0  0  0  0  0
  -29.9994  -25.3910   19.1463 C   0  0  1  0  0  0  0  0  0  0  0  0
  -28.4097  -22.4707   20.9844 C   0  0  1  0  0  0  0  0  0  0  0  0
  -25.1938  -28.3966   18.9713 C   0  0  2  0  0  0  0  0  0  0  0  0
  -21.0995  -30.3112   22.2005 C   0  0  0  0  0  0  0  0  0  0  0  0
  -19.9625  -24.5066   20.7071 C   0  0  0  0  0  0  0  0  0  0  0  0
  -26.7586  -14.9703   19.9743 C   0  0  0  0  0  0  0  0  0  0  0  0
  -27.9605  -20.6385   16.7652 C   0  0  0  0  0  0  0  0  0  0  0  0
  -27.1836  -18.2593   16.6996 C   0  0  0  0  0  0  0  0  0  0  0  0
  -29.5174  -18.7884   17.4039 C   0  0  0  0  0  0  0  0  0  0  0  0
  -26.2714  -16.9947   23.1586 C   0  0  0  0  0  0  0  0  0  0  0  0
  -27.6002  -19.3289   18.9609 C   0  0  1  0  0  0  0  0  0  0  0  0
  -26.9735  -16.1434   20.9179 C   0  0  2  0  0  0  0  0  0  0  0  0
  -28.0528  -19.2727   17.4745 C   0  0  0  0  0  0  0  0  0  0  0  0
  -25.4928  -26.5145   17.4061 N   0  0  0  0  0  0  0  0  0  0  0  0
  -21.7615  -24.8946   22.3685 N   0  0  0  0  0  0  0  0  0  1  0  0
  -25.2756  -27.8311   17.5658 N   0  0  0  0  0  0  0  0  0  0  0  0
  -27.6752  -21.3680   20.3610 N   0  0  0  0  0  0  0  0  0  0  0  0
  -24.5339  -27.9829   21.3088 N   0  0  0  0  0  0  0  0  0  0  0  0
  -24.9298  -29.8470   16.3710 N   0  0  0  0  0  0  0  0  0  0  0  0
  -25.4132  -26.7683   13.1023 N   0  0  0  0  0  0  0  0  0  0  0  0
  -22.1916  -27.7538   21.4630 N   0  0  0  0  0  0  0  0  0  0  0  0
  -29.6876  -24.2967   20.0407 N   0  0  0  0  0  0  0  0  0  0  0  0
  -27.7027  -18.0553   19.6653 N   0  0  0  0  0  0  0  0  0  0  0  0
  -26.1400  -15.9269   22.1342 N   0  3  0  0  0  0  0  0  0  0  0  0
  -25.0639  -28.9947   13.5263 O   0  0  0  0  0  0  0  0  0  0  0  0
  -27.6186  -23.7182   19.1424 O   0  0  0  0  0  0  0  0  0  0  0  0
  -29.6187  -20.1751   19.8753 O   0  0  0  0  0  0  0  0  0  0  0  0
  -25.4653  -17.9116   20.2574 O   0  0  0  0  0  0  0  0  0  0  0  0
  -23.4120  -28.6740   23.2082 O   0  0  0  0  0  0  0  0  0  0  0  0
  -26.3223  -21.3190   13.8190 O   0  0  0  0  0  0  0  0  0  0  0  0
  -22.1497  -23.6180   21.9294 O   0  0  0  0  0  0  0  0  0  1  0  0
  -23.0325  -19.8190    9.6560 F   0  0  0  0  0  0  0  0  0  0  0  0
  -24.7163  -19.0775   14.0172 F   0  0  0  0  0  0  0  0  0  0  0  0
  1  2  1  0  0  0  0
  1  7  2  0  0  0  0
  2  8  2  0  0  0  0
  3  6  2  0  0  0  0
  3 10  1  0  0  0  0
  4 11  2  0  0  0  0
  4 18  1  0  0  0  0
  5 12  1  0  0  0  0
  5 18  2  0  0  0  0
  6 19  1  0  0  0  0
  7 21  1  0  0  0  0
  8 23  1  0  0  0  0
  9 13  2  0  0  0  0
  9 22  1  0  0  0  0
 10 25  2  0  0  0  0
 11 27  1  0  0  0  0
 12 27  2  0  0  0  0
 13 28  1  0  0  0  0
 14 15  2  0  0  0  0
 14 29  1  0  0  0  0
 15 30  1  0  0  0  0
 16 24  1  0  0  0  0
 16 28  2  0  0  0  0
 17 30  2  0  0  0  0
 17 31  1  0  0  0  0
 18 32  1  0  0  0  0
 19 26  2  0  0  0  0
 19 34  1  0  0  0  0
 20 32  1  0  0  0  0
 20 33  2  0  0  0  0
 20 35  1  0  0  0  0
 21 23  2  0  0  0  0
 21 40  1  0  0  0  0
 22 24  2  0  0  0  0
 22 41  1  0  0  0  0
 23 49  1  0  0  0  0
 24 42  1  0  0  0  0
 25 26  1  0  0  0  0
 25 52  1  0  0  0  0
 26 69  1  0  0  0  0
 27 78  1  0  0  0  0
 28 79  1  0  0  0  0
 29 31  2  0  0  0  0
 29 78  1  0  0  0  0
 30 80  1  0  0  0  0
 31 81  1  0  0  0  0
 32 62  2  0  0  0  0
 33 64  1  0  0  0  0
 33 67  1  0  0  0  0
 34 53  1  0  0  0  0
 34 63  2  0  0  0  0
 35 68  1  0  0  0  0
 35 73  2  0  0  0  0
 36 50  1  0  0  0  0
 36 70  1  0  0  0  0
 36 74  2  0  0  0  0
 37 59  1  0  0  0  0
 37 65  1  0  0  0  0
 37 75  2  0  0  0  0
 38 60  1  0  0  0  0
 38 71  1  0  0  0  0
 38 76  2  0  0  0  0
 39 66  1  0  0  0  0
 39 69  1  0  0  0  0
 39 77  2  0  0  0  0
 40 43  1  0  0  0  0
 41 50  1  0  0  0  0
 42 65  1  0  0  0  0
 43 45  1  0  0  0  0
 44 46  1  0  0  0  0
 44 47  1  0  0  0  0
 45 49  1  0  0  0  0
 46 51  1  0  0  0  0
 47 66  1  0  0  0  0
 48 51  1  0  0  0  0
 48 66  1  0  0  0  0
 49 70  1  0  0  0  0
 50 65  1  0  0  0  0
 51 64  1  0  0  0  0
 54 60  1  0  0  0  0
 55 61  1  0  0  0  0
 56 61  1  0  0  0  0
 57 61  1  0  0  0  0
 58 72  1  0  0  0  0
 59 61  1  0  0  0  0
 59 71  1  0  0  0  0
 60 72  1  0  0  0  0
 62 64  1  0  0  0  0
 63 79  1  0  0  0  0
M  CHG  1  72   1
M  ISO  4  39 100  63 101  69 100  79 101
M  END
> <Batch ID>
0052

> <Smiles>
CNC(C)C(=O)NC(C(=O)N1Cc2cc([101O:1][101N:1]=C(C)c3cccc(C)c3[100NH:0][100C:0](=O)N3CCCC(n4nc(-c5ccc(Oc6ccc(F)cc6F)cc5)c(C(N)=O)c4N)C3)ccc2CC1C(=O)NC1CCCc2ccccc21)C(C)(C)C

> <Shape>
0.173

> <Color>
0.071

> <Negative vol penalty>
0.000

$$$$

  -OEChem-04042322403D

 84 92  0     1  0  0  0  0  0999 V2000
  -19.6348  -32.5465   15.6943 C   0  0  0  0  0  0  0  0  0  0  0  0
  -20.5839  -31.5341   15.7928 C   0  0  0  0  0  0  0  0  0  0  0  0
  -23.3462   -9.3876   20.5156 C   0  0  0  0  0  0  0  0  0  0  0  0
  -23.2006  -11.0252   22.2859 C   0  0  0  0  0  0  0  0  0  0  0  0
  -19.8250  -33.7475   16.3764 C   0  0  0  0  0  0  0  0  0  0  0  0
  -21.7244  -31.7226   16.5727 C   0  0  0  0  0  0  0  0  0  0  0  0
  -24.6778  -27.4835   19.8610 C   0  0  0  0  0  0  0  0  0  0  0  0
  -28.8656  -18.4906   19.6403 C   0  0  0  0  0  0  0  0  0  0  0  0
  -22.5033   -8.5381   21.2321 C   0  0  0  0  0  0  0  0  0  0  0  0
  -22.3577  -10.1757   23.0024 C   0  0  0  0  0  0  0  0  0  0  0  0
  -25.8186  -26.7243   19.6045 C   0  0  0  0  0  0  0  0  0  0  0  0
  -20.6775   -5.7886   22.7586 C   0  0  0  0  0  0  0  0  0  0  0  0
  -21.0300   -4.4415   22.8416 C   0  0  0  0  0  0  0  0  0  0  0  0
  -29.1204  -19.8484   19.8328 C   0  0  0  0  0  0  0  0  0  0  0  0
  -27.1518  -28.3299   20.8144 C   0  0  0  0  0  0  0  0  0  0  0  0
  -31.0652  -17.9580   20.4862 C   0  0  0  0  0  0  0  0  0  0  0  0
  -23.1034   -5.0507   23.9221 C   0  0  0  0  0  0  0  0  0  0  0  0
  -23.6949  -10.6312   21.0425 C   0  0  0  0  0  0  0  0  0  0  0  0
  -24.1888  -12.4891   19.3656 C   0  0  0  0  0  0  0  0  0  0  0  0
  -20.9637  -33.9472   17.1727 C   0  0  0  0  0  0  0  0  0  0  0  0
  -24.7672  -28.6793   20.5880 C   0  0  0  0  0  0  0  0  0  0  0  0
  -21.9307  -32.9280   17.2650 C   0  0  0  0  0  0  0  0  0  0  0  0
  -26.0102  -29.1012   21.0809 C   0  0  0  0  0  0  0  0  0  0  0  0
  -31.3199  -19.3158   20.6786 C   0  0  0  0  0  0  0  0  0  0  0  0
  -29.8380  -17.5453   19.9671 C   0  0  0  0  0  0  0  0  0  0  0  0
  -22.0090   -8.9321   22.4755 C   0  0  0  0  0  0  0  0  0  0  0  0
  -27.0563  -27.1489   20.0787 C   0  0  0  0  0  0  0  0  0  0  0  0
  -21.5380   -6.7667   23.2573 C   0  0  0  0  0  0  0  0  0  0  0  0
  -22.2429   -4.0726   23.4234 C   0  0  0  0  0  0  0  0  0  0  0  0
  -22.7509   -6.3977   23.8390 C   0  0  0  0  0  0  0  0  0  0  0  0
  -30.3475  -20.2610   20.3519 C   0  0  0  0  0  0  0  0  0  0  0  0
  -24.5660  -11.5090   20.3031 C   0  0  0  0  0  0  0  0  0  0  0  0
  -25.3754  -13.0432   18.9518 C   0  0  0  0  0  0  0  0  0  0  0  0
  -22.8825  -12.8652   18.9098 C   0  0  0  0  0  0  0  0  0  0  0  0
  -24.1553  -31.7353   19.9634 C   0  0  0  0  0  0  0  0  0  0  0  0
  -24.8108  -32.1076   23.1184 C   0  0  0  0  0  0  0  0  0  0  0  0
  -26.3780  -30.9273   25.9108 C   0  0  0  0  0  0  0  0  0  0  0  0
  -30.4338  -15.0988   20.0428 C   0  0  0  0  0  0  0  0  0  0  0  0
  -21.1488  -35.2802   17.8535 C   0  0  0  0  0  0  0  0  0  0  0  0
  -23.5231  -29.4730   20.8791 C   0  0  0  0  0  0  0  0  0  0  0  0
  -26.1568  -30.3670   21.8839 C   0  0  0  0  0  0  0  0  0  0  0  0
  -22.2016  -35.2588   18.9586 C   0  0  0  0  0  0  0  0  0  0  0  0
  -30.1522  -11.5628   19.7347 C   0  0  0  0  0  0  0  0  0  0  0  0
  -23.4630  -34.5467   18.4805 C   0  0  0  0  0  0  0  0  0  0  0  0
  -28.6427  -11.3142   19.7780 C   0  0  0  0  0  0  0  0  0  0  0  0
  -30.5671  -12.6978   20.6693 C   0  0  0  0  0  0  0  0  0  0  0  0
  -28.3247  -13.7077   20.5245 C   0  0  0  0  0  0  0  0  0  0  0  0
  -23.1688  -33.0853   18.1208 C   0  0  1  0  0  0  0  0  0  0  0  0
  -23.8088  -30.9391   21.1896 C   0  0  1  0  0  0  0  0  0  0  0  0
  -27.8504  -12.6166   19.5507 C   0  0  2  0  0  0  0  0  0  0  0  0
  -32.6442  -19.7249   21.2358 C   0  0  0  0  0  0  0  0  0  0  0  0
  -26.7624  -31.4678   28.3310 C   0  0  0  0  0  0  0  0  0  0  0  0
  -26.8383  -34.2423   22.3171 C   0  0  0  0  0  0  0  0  0  0  0  0
  -27.8343  -34.0565   24.6066 C   0  0  0  0  0  0  0  0  0  0  0  0
  -25.4710  -34.8068   24.3336 C   0  0  0  0  0  0  0  0  0  0  0  0
  -25.0551  -28.4329   26.7978 C   0  0  0  0  0  0  0  0  0  0  0  0
  -29.2786  -24.3054   20.1431 C   0  0  0  0  0  0  0  0  0  0  0  0
  -28.0002  -24.9994   19.6982 C   0  0  0  0  0  0  0  0  0  1  0  0
  -29.1595  -22.7947   20.0436 C   0  0  0  0  0  0  0  0  0  0  0  0
  -26.0562  -32.3811   23.9265 C   0  0  1  0  0  0  0  0  0  0  0  0
  -25.8864  -30.7267   27.3330 C   0  0  2  0  0  0  0  0  0  0  0  0
  -26.5478  -33.8488   23.7792 C   0  0  0  0  0  0  0  0  0  0  0  0
  -25.8889  -11.4417   20.4747 N   0  0  0  0  0  0  0  0  0  0  0  0
  -31.7585  -22.3582   19.5808 N   0  0  0  0  0  0  0  0  0  0  0  0
  -26.3533  -12.3866   19.6394 N   0  0  0  0  0  0  0  0  0  0  0  0
  -24.9122  -31.1117   22.1367 N   0  0  0  0  0  0  0  0  0  0  0  0
  -29.7775  -13.8999   20.3931 N   0  0  0  0  0  0  0  0  0  0  0  0
  -25.6674  -14.0231   18.0704 N   0  0  0  0  0  0  0  0  0  0  0  0
  -21.7714  -12.1939   19.4384 N   0  0  0  0  0  0  0  0  0  0  0  0
  -29.5786  -16.1662   19.7711 N   0  0  0  0  0  0  0  0  0  0  0  0
  -23.0615  -32.2816   19.3195 N   0  0  0  0  0  0  0  0  0  0  0  0
  -25.7475  -31.9891   25.2975 N   0  0  0  0  0  0  0  0  0  0  0  0
  -25.8952  -29.2785   27.6846 N   0  3  0  0  0  0  0  0  0  0  0  0
  -22.7067  -13.7584   18.0468 O   0  0  0  0  0  0  0  0  0  0  0  0
  -25.3284  -31.8470   19.6271 O   0  0  0  0  0  0  0  0  0  0  0  0
  -23.7838  -32.7487   23.3544 O   0  0  0  0  0  0  0  0  0  0  0  0
  -27.2382  -30.2157   25.3967 O   0  0  0  0  0  0  0  0  0  0  0  0
  -31.6630  -15.1658   19.9614 O   0  0  0  0  0  0  0  0  0  0  0  0
  -30.6965  -22.2141   22.0212 O   0  0  0  0  0  0  0  0  0  0  0  0
  -21.1863   -8.1035   23.1748 O   0  0  0  0  0  0  0  0  0  0  0  0
  -28.1716  -26.4101   19.8292 O   0  0  0  0  0  0  0  0  0  1  0  0
  -22.5805   -2.7789   23.5044 F   0  0  0  0  0  0  0  0  0  0  0  0
  -23.5811   -7.3328   24.3209 F   0  0  0  0  0  0  0  0  0  0  0  0
  -30.6377  -21.9963   20.5831 S   0  0  2  0  0  0  0  0  0  0  0  0
  1  2  1  0  0  0  0
  1  5  2  0  0  0  0
  2  6  2  0  0  0  0
  3  9  2  0  0  0  0
  3 18  1  0  0  0  0
  4 10  1  0  0  0  0
  4 18  2  0  0  0  0
  5 20  1  0  0  0  0
  6 22  1  0  0  0  0
  7 11  2  0  0  0  0
  7 21  1  0  0  0  0
  8 14  2  0  0  0  0
  8 25  1  0  0  0  0
  9 26  1  0  0  0  0
 10 26  2  0  0  0  0
 11 27  1  0  0  0  0
 12 13  2  0  0  0  0
 12 28  1  0  0  0  0
 13 29  1  0  0  0  0
 14 31  1  0  0  0  0
 15 23  1  0  0  0  0
 15 27  2  0  0  0  0
 16 24  1  0  0  0  0
 16 25  2  0  0  0  0
 17 29  2  0  0  0  0
 17 30  1  0  0  0  0
 18 32  1  0  0  0  0
 19 32  1  0  0  0  0
 19 33  2  0  0  0  0
 19 34  1  0  0  0  0
 20 22  2  0  0  0  0
 20 39  1  0  0  0  0
 21 23  2  0  0  0  0
 21 40  1  0  0  0  0
 22 48  1  0  0  0  0
 23 41  1  0  0  0  0
 24 31  2  0  0  0  0
 24 51  1  0  0  0  0
 25 70  1  0  0  0  0
 26 80  1  0  0  0  0
 27 81  1  0  0  0  0
 28 30  2  0  0  0  0
 28 80  1  0  0  0  0
 29 82  1  0  0  0  0
 30 83  1  0  0  0  0
 31 84  1  0  0  0  0
 32 63  2  0  0  0  0
 33 65  1  0  0  0  0
 33 68  1  0  0  0  0
 34 69  1  0  0  0  0
 34 74  2  0  0  0  0
 35 49  1  0  0  0  0
 35 71  1  0  0  0  0
 35 75  2  0  0  0  0
 36 60  1  0  0  0  0
 36 66  1  0  0  0  0
 36 76  2  0  0  0  0
 37 61  1  0  0  0  0
 37 72  1  0  0  0  0
 37 77  2  0  0  0  0
 38 67  1  0  0  0  0
 38 70  1  0  0  0  0
 38 78  2  0  0  0  0
 39 42  1  0  0  0  0
 40 49  1  0  0  0  0
 41 66  1  0  0  0  0
 42 44  1  0  0  0  0
 43 45  1  0  0  0  0
 43 46  1  0  0  0  0
 44 48  1  0  0  0  0
 45 50  1  0  0  0  0
 46 67  1  0  0  0  0
 47 50  1  0  0  0  0
 47 67  1  0  0  0  0
 48 71  1  0  0  0  0
 49 66  1  0  0  0  0
 50 65  1  0  0  0  0
 52 61  1  0  0  0  0
 53 62  1  0  0  0  0
 54 62  1  0  0  0  0
 55 62  1  0  0  0  0
 56 73  1  0  0  0  0
 57 58  1  0  0  0  0
 57 59  1  0  0  0  0
 58 81  1  0  0  0  0
 59 84  1  0  0  0  0
 60 62  1  0  0  0  0
 60 72  1  0  0  0  0
 61 73  1  0  0  0  0
 63 65  1  0  0  0  0
 64 84  2  0  0  0  0
 79 84  2  0  0  0  0
M  CHG  1  73   1
M  ISO  4  38 100  58 101  70 100  81 101
M  END
> <Batch ID>
0052

> <Smiles>
CNC(C)C(=O)NC(C(=O)N1Cc2cc([101O:1][101CH2:1]CCS(=N)(=O)c3ccc([100NH:0][100C:0](=O)N4CCCC(n5nc(-c6ccc(Oc7ccc(F)cc7F)cc6)c(C(N)=O)c5N)C4)cc3C)ccc2CC1C(=O)NC1CCCc2ccccc21)C(C)(C)C

> <Shape>
0.326

> <Color>
0.150

> <Negative vol penalty>
0.000

$$$$

  -OEChem-04042322403D

 84 92  0     1  0  0  0  0  0999 V2000
  -21.1910  -35.2675   21.6493 C   0  0  0  0  0  0  0  0  0  0  0  0
  -22.3211  -34.5699   21.2349 C   0  0  0  0  0  0  0  0  0  0  0  0
  -32.8138  -20.1095   21.6335 C   0  0  0  0  0  0  0  0  0  0  0  0
  -24.1872  -12.4854   21.5245 C   0  0  0  0  0  0  0  0  0  0  0  0
  -25.1674  -12.0635   19.3570 C   0  0  0  0  0  0  0  0  0  0  0  0
  -20.3851  -34.7485   22.6618 C   0  0  0  0  0  0  0  0  0  0  0  0
  -22.6466  -33.3534   21.8337 C   0  0  0  0  0  0  0  0  0  0  0  0
  -25.2245  -28.4964   19.1374 C   0  0  0  0  0  0  0  0  0  0  0  0
  -32.2461  -19.6341   20.4514 C   0  0  0  0  0  0  0  0  0  0  0  0
  -32.7309  -21.4652   21.9512 C   0  0  0  0  0  0  0  0  0  0  0  0
  -23.2981  -11.4288   21.3282 C   0  0  0  0  0  0  0  0  0  0  0  0
  -24.2784  -11.0068   19.1606 C   0  0  0  0  0  0  0  0  0  0  0  0
  -26.5404  -28.0381   19.0906 C   0  0  0  0  0  0  0  0  0  0  0  0
  -23.3609   -8.0532   21.5143 C   0  0  0  0  0  0  0  0  0  0  0  0
  -23.1671   -7.1642   22.5714 C   0  0  0  0  0  0  0  0  0  0  0  0
  -26.0791  -26.5448   20.9281 C   0  0  0  0  0  0  0  0  0  0  0  0
  -31.5126  -21.8702   19.9045 C   0  0  0  0  0  0  0  0  0  0  0  0
  -20.8165   -7.7213   22.6090 C   0  0  0  0  0  0  0  0  0  0  0  0
  -25.1218  -12.8029   20.5389 C   0  0  0  0  0  0  0  0  0  0  0  0
  -27.3172  -13.8334   21.3302 C   0  0  0  0  0  0  0  0  0  0  0  0
  -20.6956  -33.5203   23.2666 C   0  0  0  0  0  0  0  0  0  0  0  0
  -24.3276  -27.9894   20.0886 C   0  0  0  0  0  0  0  0  0  0  0  0
  -21.8449  -32.8181   22.8561 C   0  0  0  0  0  0  0  0  0  0  0  0
  -24.7517  -26.9965   20.9832 C   0  0  0  0  0  0  0  0  0  0  0  0
  -31.5955  -20.5145   19.5869 C   0  0  0  0  0  0  0  0  0  0  0  0
  -32.0803  -22.3456   21.0867 C   0  0  0  0  0  0  0  0  0  0  0  0
  -23.3437  -10.6894   20.1463 C   0  0  0  0  0  0  0  0  0  0  0  0
  -26.9687  -27.0642   19.9880 C   0  0  0  0  0  0  0  0  0  0  0  0
  -22.2825   -8.7764   21.0045 C   0  0  0  0  0  0  0  0  0  0  0  0
  -21.8949   -6.9982   23.1188 C   0  0  0  0  0  0  0  0  0  0  0  0
  -21.0103   -8.6104   21.5518 C   0  0  0  0  0  0  0  0  0  0  0  0
  -26.0401  -13.8947   20.7409 C   0  0  0  0  0  0  0  0  0  0  0  0
  -27.7781  -15.1265   21.2860 C   0  0  0  0  0  0  0  0  0  0  0  0
  -28.0237  -12.7082   21.8692 C   0  0  0  0  0  0  0  0  0  0  0  0
  -22.6752  -29.2352   22.5014 C   0  0  0  0  0  0  0  0  0  0  0  0
  -21.3833  -26.2629   22.6398 C   0  0  0  0  0  0  0  0  0  0  0  0
  -30.0762  -25.2384   20.6929 C   0  0  0  0  0  0  0  0  0  0  0  0
  -21.6949  -22.9338   21.9568 C   0  0  0  0  0  0  0  0  0  0  0  0
  -28.5177  -19.9389   18.5586 C   0  0  0  0  0  0  0  0  0  0  0  0
  -19.8207  -33.0225   24.3897 C   0  0  0  0  0  0  0  0  0  0  0  0
  -22.9041  -28.4750   20.1085 C   0  0  0  0  0  0  0  0  0  0  0  0
  -23.8224  -26.4051   22.0104 C   0  0  0  0  0  0  0  0  0  0  0  0
  -20.0274  -31.5451   24.7138 C   0  0  0  0  0  0  0  0  0  0  0  0
  -25.3822  -19.4393   20.1697 C   0  0  0  0  0  0  0  0  0  0  0  0
  -21.5154  -31.2210   24.8020 C   0  0  0  0  0  0  0  0  0  0  0  0
  -25.3768  -17.9467   20.5046 C   0  0  0  0  0  0  0  0  0  0  0  0
  -26.0659  -19.7151   18.8323 C   0  0  0  0  0  0  0  0  0  0  0  0
  -27.4210  -17.6672   19.0411 C   0  0  0  0  0  0  0  0  0  0  0  0
  -22.2174  -31.4833   23.4642 C   0  0  1  0  0  0  0  0  0  0  0  0
  -22.2181  -28.2596   21.4540 C   0  0  1  0  0  0  0  0  0  0  0  0
  -26.7917  -17.3451   20.4073 C   0  0  2  0  0  0  0  0  0  0  0  0
  -20.4924  -20.7473   22.2228 C   0  0  0  0  0  0  0  0  0  0  0  0
  -22.1498  -26.2033   25.5926 C   0  0  0  0  0  0  0  0  0  0  0  0
  -21.8091  -23.7232   25.5592 C   0  0  0  0  0  0  0  0  0  0  0  0
  -19.8952  -25.2498   25.0805 C   0  0  0  0  0  0  0  0  0  0  0  0
  -29.8207  -23.6142   22.5767 C   0  0  0  0  0  0  0  0  0  0  0  0
  -21.5649  -22.5165   19.0297 C   0  0  0  0  0  0  0  0  0  0  0  0
  -30.9875  -20.0052   18.3239 C   0  0  0  0  0  0  0  0  0  0  0  0
  -31.9917  -23.8048   21.4284 C   0  0  0  0  0  0  0  0  0  0  0  0
  -28.6238  -25.6166   20.8940 C   0  0  0  0  0  0  0  0  0  1  0  0
  -21.7265  -24.9804   23.3584 C   0  0  1  0  0  0  0  0  0  0  0  0
  -20.7394  -21.9432   21.3163 C   0  0  2  0  0  0  0  0  0  0  0  0
  -21.4135  -25.0515   24.8797 C   0  0  0  0  0  0  0  0  0  0  0  0
  -25.7108  -15.1290   20.3511 N   0  0  0  0  0  0  0  0  0  0  0  0
  -26.7876  -15.8553   20.6962 N   0  0  0  0  0  0  0  0  0  0  0  0
  -22.4422  -26.9171   21.9942 N   0  0  0  0  0  0  0  0  0  0  0  0
  -27.4040  -19.1195   18.8057 N   0  0  0  0  0  0  0  0  0  0  0  0
  -28.9300  -15.6998   21.6945 N   0  0  0  0  0  0  0  0  0  0  0  0
  -27.4043  -11.4514   21.8346 N   0  0  0  0  0  0  0  0  0  0  0  0
  -21.9472  -30.4093   22.5326 N   0  0  0  0  0  0  0  0  0  0  0  0
  -21.0219  -23.9158   22.6524 N   0  0  0  0  0  0  0  0  0  0  0  0
  -29.7494  -19.2956   18.5569 N   0  0  0  0  0  0  0  0  0  0  0  0
  -30.6073  -24.2588   21.5324 N   0  0  0  0  0  0  0  0  0  0  0  0
  -21.2956  -21.4476   20.0255 N   0  3  0  0  0  0  0  0  0  0  0  0
  -29.1634  -12.8171   22.3817 O   0  0  0  0  0  0  0  0  0  0  0  0
  -23.6176  -28.9436   23.2284 O   0  0  0  0  0  0  0  0  0  0  0  0
  -20.2174  -26.6656   22.6448 O   0  0  0  0  0  0  0  0  0  0  0  0
  -30.7175  -25.8015   19.8004 O   0  0  0  0  0  0  0  0  0  0  0  0
  -22.9163  -22.8432   21.8537 O   0  0  0  0  0  0  0  0  0  0  0  0
  -28.4221  -21.1548   18.3598 O   0  0  0  0  0  0  0  0  0  0  0  0
  -22.4765   -9.6581   19.9544 O   0  0  0  0  0  0  0  0  0  0  0  0
  -28.2527  -26.6155   19.9449 O   0  0  0  0  0  0  0  0  0  1  0  0
  -21.7086   -6.1432   24.1329 F   0  0  0  0  0  0  0  0  0  0  0  0
  -19.9703   -9.3015   21.0655 F   0  0  0  0  0  0  0  0  0  0  0  0
  1  2  1  0  0  0  0
  1  6  2  0  0  0  0
  2  7  2  0  0  0  0
  3  9  1  0  0  0  0
  3 10  2  0  0  0  0
  4 11  2  0  0  0  0
  4 19  1  0  0  0  0
  5 12  1  0  0  0  0
  5 19  2  0  0  0  0
  6 21  1  0  0  0  0
  7 23  1  0  0  0  0
  8 13  2  0  0  0  0
  8 22  1  0  0  0  0
  9 25  2  0  0  0  0
 10 26  1  0  0  0  0
 11 27  1  0  0  0  0
 12 27  2  0  0  0  0
 13 28  1  0  0  0  0
 14 15  2  0  0  0  0
 14 29  1  0  0  0  0
 15 30  1  0  0  0  0
 16 24  1  0  0  0  0
 16 28  2  0  0  0  0
 17 25  1  0  0  0  0
 17 26  2  0  0  0  0
 18 30  2  0  0  0  0
 18 31  1  0  0  0  0
 19 32  1  0  0  0  0
 20 32  1  0  0  0  0
 20 33  2  0  0  0  0
 20 34  1  0  0  0  0
 21 23  2  0  0  0  0
 21 40  1  0  0  0  0
 22 24  2  0  0  0  0
 22 41  1  0  0  0  0
 23 49  1  0  0  0  0
 24 42  1  0  0  0  0
 25 58  1  0  0  0  0
 26 59  1  0  0  0  0
 27 81  1  0  0  0  0
 28 82  1  0  0  0  0
 29 31  2  0  0  0  0
 29 81  1  0  0  0  0
 30 83  1  0  0  0  0
 31 84  1  0  0  0  0
 32 64  2  0  0  0  0
 33 65  1  0  0  0  0
 33 68  1  0  0  0  0
 34 69  1  0  0  0  0
 34 75  2  0  0  0  0
 35 50  1  0  0  0  0
 35 70  1  0  0  0  0
 35 76  2  0  0  0  0
 36 61  1  0  0  0  0
 36 66  1  0  0  0  0
 36 77  2  0  0  0  0
 37 60  1  0  0  0  0
 37 73  1  0  0  0  0
 37 78  2  0  0  0  0
 38 62  1  0  0  0  0
 38 71  1  0  0  0  0
 38 79  2  0  0  0  0
 39 67  1  0  0  0  0
 39 72  1  0  0  0  0
 39 80  2  0  0  0  0
 40 43  1  0  0  0  0
 41 50  1  0  0  0  0
 42 66  1  0  0  0  0
 43 45  1  0  0  0  0
 44 46  1  0  0  0  0
 44 47  1  0  0  0  0
 45 49  1  0  0  0  0
 46 51  1  0  0  0  0
 47 67  1  0  0  0  0
 48 51  1  0  0  0  0
 48 67  1  0  0  0  0
 49 70  1  0  0  0  0
 50 66  1  0  0  0  0
 51 65  1  0  0  0  0
 52 62  1  0  0  0  0
 53 63  1  0  0  0  0
 54 63  1  0  0  0  0
 55 63  1  0  0  0  0
 56 73  1  0  0  0  0
 57 74  1  0  0  0  0
 58 72  1  0  0  0  0
 59 73  1  0  0  0  0
 60 82  1  0  0  0  0
 61 63  1  0  0  0  0
 61 71  1  0  0  0  0
 62 74  1  0  0  0  0
 64 65  1  0  0  0  0
M  CHG  1  74   1
M  ISO  4  39 100  60 101  72 100  82 101
M  END
> <Batch ID>
0052

> <Smiles>
CNC(C)C(=O)NC(C(=O)N1Cc2cc([101O:1][101CH2:1]C(=O)N(C)Cc3cccc(C[100NH:0][100C:0](=O)N4CCCC(n5nc(-c6ccc(Oc7ccc(F)cc7F)cc6)c(C(N)=O)c5N)C4)c3)ccc2CC1C(=O)NC1CCCc2ccccc21)C(C)(C)C

> <Shape>
0.214

> <Color>
0.088

> <Negative vol penalty>
0.000

$$$$

  -OEChem-04042322403D

 86 94  0     1  0  0  0  0  0999 V2000
  -35.7395  -34.2561   16.8897 C   0  0  0  0  0  0  0  0  0  0  0  0
  -36.2558  -32.9709   17.0206 C   0  0  0  0  0  0  0  0  0  0  0  0
  -23.0966   -9.8369   19.9878 C   0  0  0  0  0  0  0  0  0  0  0  0
  -23.8231   -9.9305   22.2901 C   0  0  0  0  0  0  0  0  0  0  0  0
  -34.7468  -34.6995   17.7625 C   0  0  0  0  0  0  0  0  0  0  0  0
  -35.7804  -32.1287   18.0252 C   0  0  0  0  0  0  0  0  0  0  0  0
  -34.5133  -25.2082   19.3734 C   0  0  0  0  0  0  0  0  0  0  0  0
  -32.5814  -17.6375   23.3602 C   0  0  0  0  0  0  0  0  0  0  0  0
  -32.0119  -16.7167   22.4808 C   0  0  0  0  0  0  0  0  0  0  0  0
  -22.3548   -8.6895   20.2685 C   0  0  0  0  0  0  0  0  0  0  0  0
  -23.0812   -8.7831   22.5708 C   0  0  0  0  0  0  0  0  0  0  0  0
  -34.7976  -24.2259   20.3211 C   0  0  0  0  0  0  0  0  0  0  0  0
  -19.8485   -7.9901   23.1553 C   0  0  0  0  0  0  0  0  0  0  0  0
  -19.0749   -7.9883   24.3159 C   0  0  0  0  0  0  0  0  0  0  0  0
  -33.0247  -25.0720   21.7212 C   0  0  0  0  0  0  0  0  0  0  0  0
  -29.8151  -17.5745   23.0053 C   0  0  0  0  0  0  0  0  0  0  0  0
  -20.3148   -6.0853   25.1395 C   0  0  0  0  0  0  0  0  0  0  0  0
  -23.8308  -10.4574   20.9986 C   0  0  0  0  0  0  0  0  0  0  0  0
  -24.1621  -12.9784   20.7926 C   0  0  0  0  0  0  0  0  0  0  0  0
  -34.2522  -33.8591   18.7722 C   0  0  0  0  0  0  0  0  0  0  0  0
  -33.4880  -26.1382   19.5979 C   0  0  0  0  0  0  0  0  0  0  0  0
  -34.7811  -32.5619   18.9132 C   0  0  0  0  0  0  0  0  0  0  0  0
  -32.7277  -26.0635   20.7737 C   0  0  0  0  0  0  0  0  0  0  0  0
  -31.7678  -18.5268   24.0622 C   0  0  0  0  0  0  0  0  0  0  0  0
  -30.3846  -18.4953   23.8847 C   0  0  0  0  0  0  0  0  0  0  0  0
  -30.6288  -16.6851   22.3034 C   0  0  0  0  0  0  0  0  0  0  0  0
  -22.3471   -8.1626   21.5600 C   0  0  0  0  0  0  0  0  0  0  0  0
  -34.0552  -24.1594   21.4964 C   0  0  0  0  0  0  0  0  0  0  0  0
  -20.8553   -7.0395   22.9867 C   0  0  0  0  0  0  0  0  0  0  0  0
  -19.3080   -7.0359   25.3080 C   0  0  0  0  0  0  0  0  0  0  0  0
  -21.0885   -6.0871   23.9788 C   0  0  0  0  0  0  0  0  0  0  0  0
  -24.5978  -11.6423   20.7092 C   0  0  0  0  0  0  0  0  0  0  0  0
  -25.2557  -13.7202   20.4182 C   0  0  0  0  0  0  0  0  0  0  0  0
  -22.8831  -13.5021   21.1743 C   0  0  0  0  0  0  0  0  0  0  0  0
  -33.3535  -29.2996   19.8995 C   0  0  0  0  0  0  0  0  0  0  0  0
  -30.1538  -28.7687   19.9460 C   0  0  0  0  0  0  0  0  0  0  0  0
  -33.4704  -21.3079   23.6586 C   0  0  0  0  0  0  0  0  0  0  0  0
  -27.5843  -26.6057   20.5513 C   0  0  0  0  0  0  0  0  0  0  0  0
  -30.7136  -14.8008   20.6335 C   0  0  0  0  0  0  0  0  0  0  0  0
  -33.2122  -34.3992   19.7217 C   0  0  0  0  0  0  0  0  0  0  0  0
  -33.1762  -27.1751   18.5538 C   0  0  0  0  0  0  0  0  0  0  0  0
  -31.6031  -27.0256   21.0534 C   0  0  0  0  0  0  0  0  0  0  0  0
  -32.4972  -33.3145   20.5231 C   0  0  0  0  0  0  0  0  0  0  0  0
  -29.6455  -12.2974   18.3381 C   0  0  0  0  0  0  0  0  0  0  0  0
  -33.5043  -32.3215   21.0944 C   0  0  0  0  0  0  0  0  0  0  0  0
  -28.2012  -12.0137   18.7572 C   0  0  0  0  0  0  0  0  0  0  0  0
  -30.5420  -12.5742   19.5437 C   0  0  0  0  0  0  0  0  0  0  0  0
  -28.6116  -13.3376   20.8704 C   0  0  0  0  0  0  0  0  0  0  0  0
  -34.2736  -31.6102   19.9747 C   0  0  1  0  0  0  0  0  0  0  0  0
  -32.4474  -28.3908   19.1180 C   0  0  1  0  0  0  0  0  0  0  0  0
  -27.6569  -13.1168   19.6858 C   0  0  2  0  0  0  0  0  0  0  0  0
  -25.0786  -26.4704   20.5374 C   0  0  0  0  0  0  0  0  0  0  0  0
  -30.0565  -30.3450   22.5567 C   0  0  0  0  0  0  0  0  0  0  0  0
  -27.7821  -29.3840   22.9711 C   0  0  0  0  0  0  0  0  0  0  0  0
  -28.1796  -30.8278   20.9761 C   0  0  0  0  0  0  0  0  0  0  0  0
  -27.5952  -24.4714   18.5011 C   0  0  0  0  0  0  0  0  0  0  0  0
  -32.4037  -19.5083   25.0037 C   0  0  0  0  0  0  0  0  0  0  0  0
  -33.2434  -22.7399   23.2232 C   0  0  0  0  0  0  0  0  0  1  0  0
  -29.1324  -28.4864   21.0213 C   0  0  1  0  0  0  0  0  0  0  0  0
  -26.3531  -26.2512   19.7372 C   0  0  2  0  0  0  0  0  0  0  0  0
  -29.4939  -19.4391   24.6240 C   0  0  0  0  0  0  0  0  0  0  0  0
  -28.8101  -29.7437   21.8772 C   0  0  0  0  0  0  0  0  0  0  0  0
  -25.8690  -11.5383   20.3128 N   0  0  0  0  0  0  0  0  0  0  0  0
  -26.2415  -12.8185   20.1437 N   0  0  0  0  0  0  0  0  0  0  0  0
  -31.3410  -28.0253   20.0048 N   0  0  0  0  0  0  0  0  0  0  0  0
  -29.9653  -13.6329   20.3752 N   0  0  0  0  0  0  0  0  0  0  0  0
  -25.4607  -15.0493   20.3003 N   0  0  0  0  0  0  0  0  0  0  0  0
  -21.8709  -12.6002   21.5296 N   0  0  0  0  0  0  0  0  0  0  0  0
  -30.0500  -15.7512   21.4087 N   0  0  0  0  0  0  0  0  0  0  0  0
  -33.4563  -30.5753   19.3784 N   0  0  0  0  0  0  0  0  0  0  0  0
  -32.4339  -20.8437   24.4533 N   0  0  0  0  0  0  0  0  0  0  0  0
  -27.9750  -27.9118   20.3441 N   0  0  0  0  0  0  0  0  0  0  0  0
  -26.4040  -24.8225   19.3164 N   0  3  0  0  0  0  0  0  0  0  0  0
  -22.6401  -14.7327   21.1839 O   0  0  0  0  0  0  0  0  0  0  0  0
  -33.9164  -28.8754   20.9019 O   0  0  0  0  0  0  0  0  0  0  0  0
  -29.9042  -29.6125   19.0815 O   0  0  0  0  0  0  0  0  0  0  0  0
  -34.4633  -20.6636   23.3317 O   0  0  0  0  0  0  0  0  0  0  0  0
  -28.1414  -25.8053   21.2993 O   0  0  0  0  0  0  0  0  0  0  0  0
  -31.8486  -14.9587   20.1764 O   0  0  0  0  0  0  0  0  0  0  0  0
  -21.6231   -7.0432   21.8343 O   0  0  0  0  0  0  0  0  0  0  0  0
  -34.3310  -23.2020   22.4233 O   0  0  0  0  0  0  0  0  0  1  0  0
  -18.5660   -7.0352   26.4231 F   0  0  0  0  0  0  0  0  0  0  0  0
  -22.0551   -5.1721   23.8230 F   0  0  0  0  0  0  0  0  0  0  0  0
  -28.1693  -19.2781   24.3356 F   0  0  0  0  0  0  0  0  0  0  0  0
  -29.5816  -19.3207   25.9811 F   0  0  0  0  0  0  0  0  0  0  0  0
  -29.7738  -20.7457   24.3498 F   0  0  0  0  0  0  0  0  0  0  0  0
  1  2  1  0  0  0  0
  1  5  2  0  0  0  0
  2  6  2  0  0  0  0
  3 10  2  0  0  0  0
  3 18  1  0  0  0  0
  4 11  1  0  0  0  0
  4 18  2  0  0  0  0
  5 20  1  0  0  0  0
  6 22  1  0  0  0  0
  7 12  2  0  0  0  0
  7 21  1  0  0  0  0
  8  9  2  0  0  0  0
  8 24  1  0  0  0  0
  9 26  1  0  0  0  0
 10 27  1  0  0  0  0
 11 27  2  0  0  0  0
 12 28  1  0  0  0  0
 13 14  2  0  0  0  0
 13 29  1  0  0  0  0
 14 30  1  0  0  0  0
 15 23  1  0  0  0  0
 15 28  2  0  0  0  0
 16 25  1  0  0  0  0
 16 26  2  0  0  0  0
 17 30  2  0  0  0  0
 17 31  1  0  0  0  0
 18 32  1  0  0  0  0
 19 32  1  0  0  0  0
 19 33  2  0  0  0  0
 19 34  1  0  0  0  0
 20 22  2  0  0  0  0
 20 40  1  0  0  0  0
 21 23  2  0  0  0  0
 21 41  1  0  0  0  0
 22 49  1  0  0  0  0
 23 42  1  0  0  0  0
 24 25  2  0  0  0  0
 24 57  1  0  0  0  0
 25 61  1  0  0  0  0
 26 69  1  0  0  0  0
 27 80  1  0  0  0  0
 28 81  1  0  0  0  0
 29 31  2  0  0  0  0
 29 80  1  0  0  0  0
 30 82  1  0  0  0  0
 31 83  1  0  0  0  0
 32 63  2  0  0  0  0
 33 64  1  0  0  0  0
 33 67  1  0  0  0  0
 34 68  1  0  0  0  0
 34 74  2  0  0  0  0
 35 50  1  0  0  0  0
 35 70  1  0  0  0  0
 35 75  2  0  0  0  0
 36 59  1  0  0  0  0
 36 65  1  0  0  0  0
 36 76  2  0  0  0  0
 37 58  1  0  0  0  0
 37 71  1  0  0  0  0
 37 77  2  0  0  0  0
 38 60  1  0  0  0  0
 38 72  1  0  0  0  0
 38 78  2  0  0  0  0
 39 66  1  0  0  0  0
 39 69  1  0  0  0  0
 39 79  2  0  0  0  0
 40 43  1  0  0  0  0
 41 50  1  0  0  0  0
 42 65  1  0  0  0  0
 43 45  1  0  0  0  0
 44 46  1  0  0  0  0
 44 47  1  0  0  0  0
 45 49  1  0  0  0  0
 46 51  1  0  0  0  0
 47 66  1  0  0  0  0
 48 51  1  0  0  0  0
 48 66  1  0  0  0  0
 49 70  1  0  0  0  0
 50 65  1  0  0  0  0
 51 64  1  0  0  0  0
 52 60  1  0  0  0  0
 53 62  1  0  0  0  0
 54 62  1  0  0  0  0
 55 62  1  0  0  0  0
 56 73  1  0  0  0  0
 57 71  1  0  0  0  0
 58 81  1  0  0  0  0
 59 62  1  0  0  0  0
 59 72  1  0  0  0  0
 60 73  1  0  0  0  0
 61 84  1  0  0  0  0
 61 85  1  0  0  0  0
 61 86  1  0  0  0  0
 63 64  1  0  0  0  0
M  CHG  1  73   1
M  ISO  4  39 100  58 101  69 100  81 101
M  END
> <Batch ID>
0052

> <Smiles>
CNC(C)C(=O)NC(C(=O)N1Cc2cc([101O:1][101CH2:1]C(=O)NCc3ccc([100NH:0][100C:0](=O)N4CCCC(n5nc(-c6ccc(Oc7ccc(F)cc7F)cc6)c(C(N)=O)c5N)C4)cc3C(F)(F)F)ccc2CC1C(=O)NC1CCCc2ccccc21)C(C)(C)C

> <Shape>
0.219

> <Color>
0.192

> <Negative vol penalty>
0.000

$$$$

  -OEChem-04042322403D

 83 91  0     1  0  0  0  0  0999 V2000
  -17.3177  -13.1379   20.8759 C   0  0  0  0  0  0  0  0  0  0  0  0
  -18.1311  -14.2613   20.7671 C   0  0  0  0  0  0  0  0  0  0  0  0
  -30.9181  -24.4478   19.4146 C   0  0  0  0  0  0  0  0  0  0  0  0
  -21.7936  -30.0330   21.0490 C   0  0  0  0  0  0  0  0  0  0  0  0
  -22.9191  -27.9955   21.6961 C   0  0  0  0  0  0  0  0  0  0  0  0
  -17.7730  -12.0128   21.5621 C   0  0  0  0  0  0  0  0  0  0  0  0
  -19.3999  -14.2606   21.3454 C   0  0  0  0  0  0  0  0  0  0  0  0
  -24.4284  -17.0149   19.1927 C   0  0  0  0  0  0  0  0  0  0  0  0
  -30.7871  -25.3723   18.3784 C   0  0  0  0  0  0  0  0  0  0  0  0
  -29.9639  -23.4435   19.5781 C   0  0  0  0  0  0  0  0  0  0  0  0
  -20.5710  -29.4774   21.4260 C   0  0  0  0  0  0  0  0  0  0  0  0
  -21.6966  -27.4399   22.0732 C   0  0  0  0  0  0  0  0  0  0  0  0
  -25.0410  -18.2274   19.5065 C   0  0  0  0  0  0  0  0  0  0  0  0
  -18.8683  -28.9160   24.2928 C   0  0  0  0  0  0  0  0  0  0  0  0
  -18.0001  -29.7085   25.0436 C   0  0  0  0  0  0  0  0  0  0  0  0
  -26.5357  -17.0762   21.0098 C   0  0  0  0  0  0  0  0  0  0  0  0
  -16.3287  -29.5206   23.3090 C   0  0  0  0  0  0  0  0  0  0  0  0
  -22.9677  -29.2921   21.1840 C   0  0  0  0  0  0  0  0  0  0  0  0
  -25.1124  -30.6085   21.6017 C   0  0  0  0  0  0  0  0  0  0  0  0
  -19.0518  -11.9949   22.1409 C   0  0  0  0  0  0  0  0  0  0  0  0
  -24.8584  -15.8235   19.7943 C   0  0  0  0  0  0  0  0  0  0  0  0
  -19.8722  -13.1348   22.0412 C   0  0  0  0  0  0  0  0  0  0  0  0
  -25.9286  -15.8496   20.7000 C   0  0  0  0  0  0  0  0  0  0  0  0
  -29.7019  -25.2926   17.5057 C   0  0  0  0  0  0  0  0  0  0  0  0
  -28.7477  -24.2883   17.6691 C   0  0  0  0  0  0  0  0  0  0  0  0
  -28.8788  -23.3638   18.7053 C   0  0  0  0  0  0  0  0  0  0  0  0
  -20.5225  -28.1808   21.9381 C   0  0  0  0  0  0  0  0  0  0  0  0
  -26.0929  -18.2586   20.4173 C   0  0  0  0  0  0  0  0  0  0  0  0
  -18.4668  -28.4258   23.0501 C   0  0  0  0  0  0  0  0  0  0  0  0
  -16.7303  -30.0108   24.5517 C   0  0  0  0  0  0  0  0  0  0  0  0
  -17.1970  -28.7281   22.5583 C   0  0  0  0  0  0  0  0  0  0  0  0
  -24.2308  -29.8653   20.7942 C   0  0  0  0  0  0  0  0  0  0  0  0
  -26.1592  -30.9215   20.7694 C   0  0  0  0  0  0  0  0  0  0  0  0
  -24.9956  -30.9825   22.9809 C   0  0  0  0  0  0  0  0  0  0  0  0
  -23.5135  -13.6552   21.6899 C   0  0  0  0  0  0  0  0  0  0  0  0
  -26.3100  -12.0798   21.2210 C   0  0  0  0  0  0  0  0  0  0  0  0
  -27.9184  -21.3494   19.8689 C   0  0  0  0  0  0  0  0  0  0  0  0
  -29.6241  -12.2353   20.4215 C   0  0  0  0  0  0  0  0  0  0  0  0
  -28.3372  -28.3577   15.8161 C   0  0  0  0  0  0  0  0  0  0  0  0
  -19.4819  -10.7730   22.9134 C   0  0  0  0  0  0  0  0  0  0  0  0
  -24.2047  -14.5202   19.4250 C   0  0  0  0  0  0  0  0  0  0  0  0
  -26.4413  -14.5956   21.3581 C   0  0  0  0  0  0  0  0  0  0  0  0
  -20.9846  -10.7161   23.1760 C   0  0  0  0  0  0  0  0  0  0  0  0
  -27.1728  -31.7048   16.1596 C   0  0  0  0  0  0  0  0  0  0  0  0
  -21.4900  -12.0645   23.6792 C   0  0  0  0  0  0  0  0  0  0  0  0
  -26.3663  -31.6800   17.4592 C   0  0  0  0  0  0  0  0  0  0  0  0
  -27.0155  -30.4054   15.3729 C   0  0  0  0  0  0  0  0  0  0  0  0
  -26.5096  -29.1546   17.4352 C   0  0  0  0  0  0  0  0  0  0  0  0
  -21.2644  -13.1634   22.6337 C   0  0  1  0  0  0  0  0  0  0  0  0
  -24.3860  -13.4390   20.4860 C   0  0  1  0  0  0  0  0  0  0  0  0
  -26.6810  -30.4216   18.2904 C   0  0  2  0  0  0  0  0  0  0  0  0
  -27.5852  -24.2067   16.7301 C   0  0  0  0  0  0  0  0  0  0  0  0
  -31.6569  -10.7877   20.1577 C   0  0  0  0  0  0  0  0  0  0  0  0
  -26.5739  -11.9016   24.2556 C   0  0  0  0  0  0  0  0  0  0  0  0
  -28.9913  -11.3305   23.9421 C   0  0  0  0  0  0  0  0  0  0  0  0
  -27.2266   -9.8229   23.0278 C   0  0  0  0  0  0  0  0  0  0  0  0
  -29.9114  -12.9586   17.5661 C   0  0  0  0  0  0  0  0  0  0  0  0
  -29.5857  -26.2952   16.4046 C   0  0  0  0  0  0  0  0  0  0  0  0
  -26.7112  -20.4437   19.7109 C   0  0  0  0  0  0  0  0  0  1  0  0
  -27.6509  -12.0526   21.9140 C   0  0  1  0  0  0  0  0  0  0  0  0
  -30.4665  -11.4220   19.4554 C   0  0  2  0  0  0  0  0  0  0  0  0
  -27.6000  -11.3010   23.2741 C   0  0  0  0  0  0  0  0  0  0  0  0
  -24.6785  -29.7151   19.5447 N   0  0  0  0  0  0  0  0  0  0  0  0
  -25.8528  -30.3685   19.5609 N   0  0  0  0  0  0  0  0  0  0  0  0
  -25.7653  -13.3469   20.9692 N   0  0  0  0  0  0  0  0  0  0  0  0
  -27.3302  -29.2508   16.2177 N   0  0  0  0  0  0  0  0  0  0  0  0
  -27.3027  -31.6131   20.9606 N   0  0  0  0  0  0  0  0  0  0  0  0
  -23.8554  -30.5783   23.6885 N   0  0  0  0  0  0  0  0  0  0  0  0
  -27.9230  -22.3365   18.8893 N   0  0  0  0  0  0  0  0  0  0  0  0
  -22.2617  -13.0788   21.5884 N   0  0  0  0  0  0  0  0  0  0  0  0
  -28.5947  -11.4889   20.9548 N   0  0  0  0  0  0  0  0  0  0  0  0
  -28.5765  -27.2940   16.6775 N   0  0  0  0  0  0  0  0  0  0  0  0
  -30.9767  -12.2893   18.3561 N   0  3  0  0  0  0  0  0  0  0  0  0
  -25.8686  -31.6693   23.5639 O   0  0  0  0  0  0  0  0  0  0  0  0
  -23.9446  -14.2962   22.6413 O   0  0  0  0  0  0  0  0  0  0  0  0
  -25.7693  -11.0162   20.9081 O   0  0  0  0  0  0  0  0  0  0  0  0
  -28.7395  -21.1753   20.7633 O   0  0  0  0  0  0  0  0  0  0  0  0
  -29.8583  -13.4138   20.6802 O   0  0  0  0  0  0  0  0  0  0  0  0
  -28.9795  -28.5009   14.7702 O   0  0  0  0  0  0  0  0  0  0  0  0
  -19.3297  -27.6384   22.3063 O   0  0  0  0  0  0  0  0  0  0  0  0
  -26.6922  -19.4408   20.7259 O   0  0  0  0  0  0  0  0  0  1  0  0
  -15.8960  -30.7706   25.2734 F   0  0  0  0  0  0  0  0  0  0  0  0
  -16.8053  -28.2590   21.3657 F   0  0  0  0  0  0  0  0  0  0  0  0
  1  2  1  0  0  0  0
  1  6  2  0  0  0  0
  2  7  2  0  0  0  0
  3  9  1  0  0  0  0
  3 10  2  0  0  0  0
  4 11  2  0  0  0  0
  4 18  1  0  0  0  0
  5 12  1  0  0  0  0
  5 18  2  0  0  0  0
  6 20  1  0  0  0  0
  7 22  1  0  0  0  0
  8 13  2  0  0  0  0
  8 21  1  0  0  0  0
  9 24  2  0  0  0  0
 10 26  1  0  0  0  0
 11 27  1  0  0  0  0
 12 27  2  0  0  0  0
 13 28  1  0  0  0  0
 14 15  2  0  0  0  0
 14 29  1  0  0  0  0
 15 30  1  0  0  0  0
 16 23  1  0  0  0  0
 16 28  2  0  0  0  0
 17 30  2  0  0  0  0
 17 31  1  0  0  0  0
 18 32  1  0  0  0  0
 19 32  1  0  0  0  0
 19 33  2  0  0  0  0
 19 34  1  0  0  0  0
 20 22  2  0  0  0  0
 20 40  1  0  0  0  0
 21 23  2  0  0  0  0
 21 41  1  0  0  0  0
 22 49  1  0  0  0  0
 23 42  1  0  0  0  0
 24 25  1  0  0  0  0
 24 58  1  0  0  0  0
 25 26  2  0  0  0  0
 25 52  1  0  0  0  0
 26 69  1  0  0  0  0
 27 80  1  0  0  0  0
 28 81  1  0  0  0  0
 29 31  2  0  0  0  0
 29 80  1  0  0  0  0
 30 82  1  0  0  0  0
 31 83  1  0  0  0  0
 32 63  2  0  0  0  0
 33 64  1  0  0  0  0
 33 67  1  0  0  0  0
 34 68  1  0  0  0  0
 34 74  2  0  0  0  0
 35 50  1  0  0  0  0
 35 70  1  0  0  0  0
 35 75  2  0  0  0  0
 36 60  1  0  0  0  0
 36 65  1  0  0  0  0
 36 76  2  0  0  0  0
 37 59  1  0  0  0  0
 37 69  1  0  0  0  0
 37 77  2  0  0  0  0
 38 61  1  0  0  0  0
 38 71  1  0  0  0  0
 38 78  2  0  0  0  0
 39 66  1  0  0  0  0
 39 72  1  0  0  0  0
 39 79  2  0  0  0  0
 40 43  1  0  0  0  0
 41 50  1  0  0  0  0
 42 65  1  0  0  0  0
 43 45  1  0  0  0  0
 44 46  1  0  0  0  0
 44 47  1  0  0  0  0
 45 49  1  0  0  0  0
 46 51  1  0  0  0  0
 47 66  1  0  0  0  0
 48 51  1  0  0  0  0
 48 66  1  0  0  0  0
 49 70  1  0  0  0  0
 50 65  1  0  0  0  0
 51 64  1  0  0  0  0
 53 61  1  0  0  0  0
 54 62  1  0  0  0  0
 55 62  1  0  0  0  0
 56 62  1  0  0  0  0
 57 73  1  0  0  0  0
 58 72  1  0  0  0  0
 59 81  1  0  0  0  0
 60 62  1  0  0  0  0
 60 71  1  0  0  0  0
 61 73  1  0  0  0  0
 63 64  1  0  0  0  0
M  CHG  1  73   1
M  ISO  4  39 100  59 101  72 100  81 101
M  END
> <Batch ID>
0052

> <Smiles>
CNC(C)C(=O)NC(C(=O)N1Cc2cc([101O:1][101CH2:1]C(=O)Nc3cccc(C[100NH:0][100C:0](=O)N4CCCC(n5nc(-c6ccc(Oc7ccc(F)cc7F)cc6)c(C(N)=O)c5N)C4)c3C)ccc2CC1C(=O)NC1CCCc2ccccc21)C(C)(C)C

> <Shape>
0.272

> <Color>
0.056

> <Negative vol penalty>
0.000

$$$$

  -OEChem-04042322403D

 86 95  0     1  0  0  0  0  0999 V2000
  -21.1958   -8.3058   24.4186 C   0  0  0  0  0  0  0  0  0  0  0  0
  -21.9628   -9.4422   24.6551 C   0  0  0  0  0  0  0  0  0  0  0  0
  -27.9428  -29.7625   21.8687 C   0  0  0  0  0  0  0  0  0  0  0  0
  -26.6162  -29.3230   19.8980 C   0  0  0  0  0  0  0  0  0  0  0  0
  -21.3943   -7.5617   23.2564 C   0  0  0  0  0  0  0  0  0  0  0  0
  -22.9294   -9.8345   23.7298 C   0  0  0  0  0  0  0  0  0  0  0  0
  -22.8237  -14.8117   22.8019 C   0  0  0  0  0  0  0  0  0  0  0  0
  -28.7095  -19.1726   24.0524 C   0  0  0  0  0  0  0  0  0  0  0  0
  -28.8675  -19.9269   22.8897 C   0  0  0  0  0  0  0  0  0  0  0  0
  -26.9617  -30.6381   22.3339 C   0  0  0  0  0  0  0  0  0  0  0  0
  -25.6350  -30.1986   20.3632 C   0  0  0  0  0  0  0  0  0  0  0  0
  -23.4047  -15.6492   23.7531 C   0  0  0  0  0  0  0  0  0  0  0  0
  -25.9765  -33.8164   21.7408 C   0  0  0  0  0  0  0  0  0  0  0  0
  -26.3952  -35.0434   22.2555 C   0  0  0  0  0  0  0  0  0  0  0  0
  -25.3880  -15.8120   22.3896 C   0  0  0  0  0  0  0  0  0  0  0  0
  -29.7733  -21.7477   24.1941 C   0  0  0  0  0  0  0  0  0  0  0  0
  -25.3901  -34.4941   24.3827 C   0  0  0  0  0  0  0  0  0  0  0  0
  -27.7701  -29.1049   20.6507 C   0  0  0  0  0  0  0  0  0  0  0  0
  -30.1279  -28.5050   19.8836 C   0  0  0  0  0  0  0  0  0  0  0  0
  -22.3572   -7.9505   22.3118 C   0  0  0  0  0  0  0  0  0  0  0  0
  -23.5259  -14.4587   21.6405 C   0  0  0  0  0  0  0  0  0  0  0  0
  -23.1418   -9.0941   22.5545 C   0  0  0  0  0  0  0  0  0  0  0  0
  -24.8127  -14.9720   21.4239 C   0  0  0  0  0  0  0  0  0  0  0  0
  -29.0833  -19.7059   25.2859 C   0  0  0  0  0  0  0  0  0  0  0  0
  -29.6153  -20.9934   25.3567 C   0  0  0  0  0  0  0  0  0  0  0  0
  -29.3995  -21.2144   22.9605 C   0  0  0  0  0  0  0  0  0  0  0  0
  -25.8078  -30.8561   21.5812 C   0  0  0  0  0  0  0  0  0  0  0  0
  -24.6881  -16.1472   23.5484 C   0  0  0  0  0  0  0  0  0  0  0  0
  -25.2645  -32.9283   22.5471 C   0  0  0  0  0  0  0  0  0  0  0  0
  -26.1021  -35.3822   23.5764 C   0  0  0  0  0  0  0  0  0  0  0  0
  -24.9713  -33.2671   23.8680 C   0  0  0  0  0  0  0  0  0  0  0  0
  -28.7834  -28.2008   20.1694 C   0  0  0  0  0  0  0  0  0  0  0  0
  -30.6670  -27.3145   19.4612 C   0  0  0  0  0  0  0  0  0  0  0  0
  -27.9778  -16.6707   25.9308 C   0  0  0  0  0  0  0  0  0  0  0  0
  -30.8269  -29.7523   19.9905 C   0  0  0  0  0  0  0  0  0  0  0  0
  -24.5772  -11.7286   20.3976 C   0  0  0  0  0  0  0  0  0  0  0  0
  -25.3615  -13.6260   17.8862 C   0  0  0  0  0  0  0  0  0  0  0  0
  -26.7998  -16.9001   17.4078 C   0  0  0  0  0  0  0  0  0  0  0  0
  -29.2438  -21.6005   20.4760 C   0  0  0  0  0  0  0  0  0  0  0  0
  -22.5682   -7.0877   21.0929 C   0  0  0  0  0  0  0  0  0  0  0  0
  -22.8748  -13.5758   20.6115 C   0  0  0  0  0  0  0  0  0  0  0  0
  -25.6008  -14.6395   20.1842 C   0  0  0  0  0  0  0  0  0  0  0  0
  -26.7742  -15.7439   25.9019 C   0  0  0  0  0  0  0  0  0  0  0  0
  -23.3544   -7.7820   19.9839 C   0  0  0  0  0  0  0  0  0  0  0  0
  -29.4588  -23.2111   17.3079 C   0  0  0  0  0  0  0  0  0  0  0  0
  -24.5839   -8.4795   20.5573 C   0  0  0  0  0  0  0  0  0  0  0  0
  -29.4385  -24.7011   17.6566 C   0  0  0  0  0  0  0  0  0  0  0  0
  -25.3347  -17.5552   26.8070 C   0  0  0  0  0  0  0  0  0  0  0  0
  -28.5482  -22.4007   18.2286 C   0  0  0  0  0  0  0  0  0  0  0  0
  -26.4527  -18.5613   26.5956 C   0  0  0  0  0  0  0  0  0  0  0  0
  -28.7654  -24.0850   20.0133 C   0  0  0  0  0  0  0  0  0  0  0  0
  -24.1831   -9.5658   21.5628 C   0  0  1  0  0  0  0  0  0  0  0  0
  -23.8807  -12.8681   19.7089 C   0  0  1  0  0  0  0  0  0  0  0  0
  -29.7176  -24.9332   19.1545 C   0  0  2  0  0  0  0  0  0  0  0  0
  -25.4285  -16.4365   25.7873 C   0  0  1  0  0  0  0  0  0  1  0  0
  -30.0244  -21.5842   26.6660 C   0  0  0  0  0  0  0  0  0  0  0  0
  -26.5433  -18.5350   15.5213 C   0  0  0  0  0  0  0  0  0  0  0  0
  -27.8970  -12.3240   16.7971 C   0  0  0  0  0  0  0  0  0  0  0  0
  -28.6561  -14.5899   16.0501 C   0  0  0  0  0  0  0  0  0  0  0  0
  -26.5703  -13.6008   15.1047 C   0  0  0  0  0  0  0  0  0  0  0  0
  -25.9183  -19.0519   19.2386 C   0  0  0  0  0  0  0  0  0  0  0  0
  -28.9030  -18.8753   26.5235 C   0  0  0  0  0  0  0  0  0  0  0  0
  -26.5766  -14.4308   17.4928 C   0  0  1  0  0  0  0  0  0  0  0  0
  -26.0827  -18.1449   16.9171 C   0  0  2  0  0  0  0  0  0  0  0  0
  -27.4185  -13.7316   16.3885 C   0  0  0  0  0  0  0  0  0  0  0  0
  -28.4866  -26.9176   19.9472 N   0  0  0  0  0  0  0  0  0  0  0  0
  -29.6522  -26.4050   19.5172 N   0  0  0  0  0  0  0  0  0  0  0  0
  -27.7729  -17.9629   26.4080 N   0  0  0  0  0  0  0  0  0  0  0  0
  -24.9235  -13.7673   19.2106 N   0  0  0  0  0  0  0  0  0  0  0  0
  -28.8733  -22.6682   19.6313 N   0  0  0  0  0  0  0  0  0  0  0  0
  -31.9054  -26.9673   19.0511 N   0  0  0  0  0  0  0  0  0  0  0  0
  -30.1222  -30.8767   20.4415 N   0  0  0  0  0  0  0  0  0  0  0  0
  -29.5620  -21.9802   21.7795 N   0  0  0  0  0  0  0  0  0  0  0  0
  -23.7233  -10.7505   20.8704 N   0  0  0  0  0  0  0  0  0  0  0  0
  -26.0873  -15.7545   17.1229 N   0  0  0  0  0  0  0  0  0  0  0  0
  -26.3443  -19.2892   17.8353 N   0  3  0  0  0  0  0  0  0  0  0  0
  -29.0815  -16.2215   25.6081 O   0  0  0  0  0  0  0  0  0  0  0  0
  -32.0364  -29.8699   19.6792 O   0  0  0  0  0  0  0  0  0  0  0  0
  -25.7990  -11.7355   20.4916 O   0  0  0  0  0  0  0  0  0  0  0  0
  -24.8166  -12.9043   17.0472 O   0  0  0  0  0  0  0  0  0  0  0  0
  -27.8854  -16.9398   17.9826 O   0  0  0  0  0  0  0  0  0  0  0  0
  -29.3027  -20.4386   20.0654 O   0  0  0  0  0  0  0  0  0  0  0  0
  -24.8502  -31.7103   22.0349 O   0  0  0  0  0  0  0  0  0  0  0  0
  -25.2578  -16.9643   24.4755 O   0  0  0  0  0  0  0  0  0  1  0  0
  -26.5056  -36.5598   24.0710 F   0  0  0  0  0  0  0  0  0  0  0  0
  -24.2887  -32.4175   24.6478 F   0  0  0  0  0  0  0  0  0  0  0  0
  1  2  1  0  0  0  0
  1  5  2  0  0  0  0
  2  6  2  0  0  0  0
  3 10  2  0  0  0  0
  3 18  1  0  0  0  0
  4 11  1  0  0  0  0
  4 18  2  0  0  0  0
  5 20  1  0  0  0  0
  6 22  1  0  0  0  0
  7 12  2  0  0  0  0
  7 21  1  0  0  0  0
  8  9  2  0  0  0  0
  8 24  1  0  0  0  0
  9 26  1  0  0  0  0
 10 27  1  0  0  0  0
 11 27  2  0  0  0  0
 12 28  1  0  0  0  0
 13 14  2  0  0  0  0
 13 29  1  0  0  0  0
 14 30  1  0  0  0  0
 15 23  1  0  0  0  0
 15 28  2  0  0  0  0
 16 25  1  0  0  0  0
 16 26  2  0  0  0  0
 17 30  2  0  0  0  0
 17 31  1  0  0  0  0
 18 32  1  0  0  0  0
 19 32  1  0  0  0  0
 19 33  2  0  0  0  0
 19 35  1  0  0  0  0
 20 22  2  0  0  0  0
 20 40  1  0  0  0  0
 21 23  2  0  0  0  0
 21 41  1  0  0  0  0
 22 52  1  0  0  0  0
 23 42  1  0  0  0  0
 24 25  2  0  0  0  0
 24 62  1  0  0  0  0
 25 56  1  0  0  0  0
 26 73  1  0  0  0  0
 27 83  1  0  0  0  0
 28 84  1  0  0  0  0
 29 31  2  0  0  0  0
 29 83  1  0  0  0  0
 30 85  1  0  0  0  0
 31 86  1  0  0  0  0
 32 66  2  0  0  0  0
 33 67  1  0  0  0  0
 33 71  1  0  0  0  0
 34 43  1  0  0  0  0
 34 68  1  0  0  0  0
 34 77  2  0  0  0  0
 35 72  1  0  0  0  0
 35 78  2  0  0  0  0
 36 53  1  0  0  0  0
 36 74  1  0  0  0  0
 36 79  2  0  0  0  0
 37 63  1  0  0  0  0
 37 69  1  0  0  0  0
 37 80  2  0  0  0  0
 38 64  1  0  0  0  0
 38 75  1  0  0  0  0
 38 81  2  0  0  0  0
 39 70  1  0  0  0  0
 39 73  1  0  0  0  0
 39 82  2  0  0  0  0
 40 44  1  0  0  0  0
 41 53  1  0  0  0  0
 42 69  1  0  0  0  0
 43 55  1  0  0  0  0
 44 46  1  0  0  0  0
 45 47  1  0  0  0  0
 45 49  1  0  0  0  0
 46 52  1  0  0  0  0
 47 54  1  0  0  0  0
 48 50  1  0  0  0  0
 48 55  1  0  0  0  0
 49 70  1  0  0  0  0
 50 68  1  0  0  0  0
 51 54  1  0  0  0  0
 51 70  1  0  0  0  0
 52 74  1  0  0  0  0
 53 69  1  0  0  0  0
 54 67  1  0  0  0  0
 55 84  1  0  0  0  0
 57 64  1  0  0  0  0
 58 65  1  0  0  0  0
 59 65  1  0  0  0  0
 60 65  1  0  0  0  0
 61 76  1  0  0  0  0
 62 68  1  0  0  0  0
 63 65  1  0  0  0  0
 63 75  1  0  0  0  0
 64 76  1  0  0  0  0
 66 67  1  0  0  0  0
M  CHG  1  76   1
M  ISO  4  39 100  55 101  73 100  84 101
M  END
> <Batch ID>
0052

> <Smiles>
CNC(C)C(=O)NC(C(=O)N1Cc2cc([101O:1][101CH:1]3CCN(Cc4ccc([100NH:0][100C:0](=O)N5CCCC(n6nc(-c7ccc(Oc8ccc(F)cc8F)cc7)c(C(N)=O)c6N)C5)cc4C)C(=O)C3)ccc2CC1C(=O)NC1CCCc2ccccc21)C(C)(C)C

> <Shape>
0.237

> <Color>
0.065

> <Negative vol penalty>
0.000

$$$$

  -OEChem-04042322403D

 88 96  0     1  0  0  0  0  0999 V2000
  -17.4509  -25.8891   20.1825 C   0  0  0  0  0  0  0  0  0  0  0  0
  -18.4642  -24.9812   19.8923 C   0  0  0  0  0  0  0  0  0  0  0  0
  -29.4681  -11.7481   18.9233 C   0  0  0  0  0  0  0  0  0  0  0  0
  -27.4379  -25.9312   19.1473 C   0  0  0  0  0  0  0  0  0  0  0  0
  -29.3418  -25.5283   20.5790 C   0  0  0  0  0  0  0  0  0  0  0  0
  -17.6683  -26.8989   21.1190 C   0  0  0  0  0  0  0  0  0  0  0  0
  -19.6961  -25.0832   20.5377 C   0  0  0  0  0  0  0  0  0  0  0  0
  -21.4257  -20.6023   22.1422 C   0  0  0  0  0  0  0  0  0  0  0  0
  -29.9813  -13.0189   19.1823 C   0  0  0  0  0  0  0  0  0  0  0  0
  -28.1723  -11.4239   19.3253 C   0  0  0  0  0  0  0  0  0  0  0  0
  -27.0284  -26.9694   19.9840 C   0  0  0  0  0  0  0  0  0  0  0  0
  -28.9323  -26.5666   21.4157 C   0  0  0  0  0  0  0  0  0  0  0  0
  -22.0027  -19.7641   21.1891 C   0  0  0  0  0  0  0  0  0  0  0  0
  -28.5857  -29.3465   23.7331 C   0  0  0  0  0  0  0  0  0  0  0  0
  -29.5556  -30.2480   24.1715 C   0  0  0  0  0  0  0  0  0  0  0  0
  -24.1960  -20.4553   21.9178 C   0  0  0  0  0  0  0  0  0  0  0  0
  -30.0344  -30.8470   21.8804 C   0  0  0  0  0  0  0  0  0  0  0  0
  -28.5946  -25.2106   19.4449 C   0  0  0  0  0  0  0  0  0  0  0  0
  -29.8746  -24.2300   17.4681 C   0  0  0  0  0  0  0  0  0  0  0  0
  -18.9002  -27.0075   21.7833 C   0  0  0  0  0  0  0  0  0  0  0  0
  -22.2308  -21.3827   22.9843 C   0  0  0  0  0  0  0  0  0  0  0  0
  -19.9307  -26.0962   21.4830 C   0  0  0  0  0  0  0  0  0  0  0  0
  -23.6268  -21.3006   22.8825 C   0  0  0  0  0  0  0  0  0  0  0  0
  -29.1988  -13.9656   19.8435 C   0  0  0  0  0  0  0  0  0  0  0  0
  -27.3898  -12.3706   19.9865 C   0  0  0  0  0  0  0  0  0  0  0  0
  -27.9030  -13.6415   20.2455 C   0  0  0  0  0  0  0  0  0  0  0  0
  -27.7756  -27.2871   21.1182 C   0  0  0  0  0  0  0  0  0  0  0  0
  -23.3879  -19.6927   21.0748 C   0  0  0  0  0  0  0  0  0  0  0  0
  -28.3402  -29.1952   22.3683 C   0  0  0  0  0  0  0  0  0  0  0  0
  -30.2799  -30.9983   23.2452 C   0  0  0  0  0  0  0  0  0  0  0  0
  -29.0645  -29.9455   21.4420 C   0  0  0  0  0  0  0  0  0  0  0  0
  -29.0178  -24.1377   18.5813 C   0  0  0  0  0  0  0  0  0  0  0  0
  -29.9606  -22.9440   16.9934 C   0  0  0  0  0  0  0  0  0  0  0  0
  -30.5340  -25.3757   16.9130 C   0  0  0  0  0  0  0  0  0  0  0  0
  -22.6078  -24.5016   23.4686 C   0  0  0  0  0  0  0  0  0  0  0  0
  -24.5347  -23.4988   25.8778 C   0  0  0  0  0  0  0  0  0  0  0  0
  -25.1668  -16.2145   20.5015 C   0  0  0  0  0  0  0  0  0  0  0  0
  -26.5091  -21.0356   27.1744 C   0  0  0  0  0  0  0  0  0  0  0  0
  -29.3119  -17.7159   19.6583 C   0  0  0  0  0  0  0  0  0  0  0  0
  -19.1043  -28.1444   22.7530 C   0  0  0  0  0  0  0  0  0  0  0  0
  -21.5934  -22.2617   24.0253 C   0  0  0  0  0  0  0  0  0  0  0  0
  -24.5358  -22.1026   23.7763 C   0  0  0  0  0  0  0  0  0  0  0  0
  -20.3119  -27.9557   23.6675 C   0  0  0  0  0  0  0  0  0  0  0  0
  -27.4701  -18.8634   16.7620 C   0  0  0  0  0  0  0  0  0  0  0  0
  -21.5274  -27.5092   22.8612 C   0  0  0  0  0  0  0  0  0  0  0  0
  -27.7471  -20.3673   16.8016 C   0  0  0  0  0  0  0  0  0  0  0  0
  -27.3028  -18.2949   18.1680 C   0  0  0  0  0  0  0  0  0  0  0  0
  -28.7284  -20.0642   19.1222 C   0  0  0  0  0  0  0  0  0  0  0  0
  -21.2722  -26.1591   22.1804 C   0  0  1  0  0  0  0  0  0  0  0  0
  -22.5008  -23.3991   24.4839 C   0  0  1  0  0  0  0  0  0  0  0  0
  -28.9298  -20.6949   17.7323 C   0  0  2  0  0  0  0  0  0  0  0  0
  -27.9823  -20.5218   29.1398 C   0  0  0  0  0  0  0  0  0  0  0  0
  -26.7206  -25.2720   24.6997 C   0  0  0  0  0  0  0  0  0  0  0  0
  -28.3870  -24.0193   26.0860 C   0  0  0  0  0  0  0  0  0  0  0  0
  -26.5706  -25.3200   27.1956 C   0  0  0  0  0  0  0  0  0  0  0  0
  -24.8159  -18.7508   27.9939 C   0  0  0  0  0  0  0  0  0  0  0  0
  -29.7720  -15.3195   20.1084 C   0  0  0  0  0  0  0  0  0  0  0  0
  -27.0608  -14.6605   20.9572 C   0  0  0  0  0  0  0  0  0  0  0  0
  -24.2150  -16.6084   19.3828 C   0  0  0  0  0  0  0  0  0  0  0  0
  -23.2334  -17.6952   19.7933 C   0  0  0  0  0  0  0  0  0  1  0  0
  -26.0012  -23.1637   26.0048 C   0  0  1  0  0  0  0  0  0  0  0  0
  -26.5783  -20.4266   28.5632 C   0  0  2  0  0  0  0  0  0  0  0  0
  -26.0053  -11.9982   20.4061 C   0  0  0  0  0  0  0  0  0  0  0  0
  -26.9030  -24.4299   25.9782 C   0  0  0  0  0  0  0  0  0  0  0  0
  -28.5898  -22.8916   18.8006 N   0  0  0  0  0  0  0  0  0  0  0  0
  -29.1801  -22.1891   17.8187 N   0  0  0  0  0  0  0  0  0  0  0  0
  -23.8647  -22.9521   24.7741 N   0  0  0  0  0  0  0  0  0  0  0  0
  -28.4703  -18.6258   18.9972 N   0  0  0  0  0  0  0  0  0  0  0  0
  -30.6268  -22.3967   15.9547 N   0  0  0  0  0  0  0  0  0  0  0  0
  -30.3370  -26.6214   17.5243 N   0  0  0  0  0  0  0  0  0  0  0  0
  -21.3975  -25.0795   23.1359 N   0  0  0  0  0  0  0  0  0  0  0  0
  -26.0472  -15.2226   20.0939 N   0  0  0  0  0  0  0  0  0  0  0  0
  -26.1331  -22.3615   27.2163 N   0  0  0  0  0  0  0  0  0  0  0  0
  -28.9948  -16.3730   19.4945 N   0  0  0  0  0  0  0  0  0  0  0  0
  -26.1849  -18.9899   28.5190 N   0  3  0  0  0  0  0  0  0  0  0  0
  -31.2629  -25.2999   15.8949 O   0  0  0  0  0  0  0  0  0  0  0  0
  -23.7073  -24.8064   23.0213 O   0  0  0  0  0  0  0  0  0  0  0  0
  -24.0016  -24.2134   26.7303 O   0  0  0  0  0  0  0  0  0  0  0  0
  -25.1412  -16.7241   21.6185 O   0  0  0  0  0  0  0  0  0  0  0  0
  -26.7666  -20.3997   26.1546 O   0  0  0  0  0  0  0  0  0  0  0  0
  -30.2785  -18.0735   20.3401 O   0  0  0  0  0  0  0  0  0  0  0  0
  -27.3764  -28.3003   21.9347 O   0  0  0  0  0  0  0  0  0  0  0  0
  -23.9536  -18.8759   20.1449 O   0  0  0  0  0  0  0  0  0  1  0  0
  -31.2102  -31.8651   23.6664 F   0  0  0  0  0  0  0  0  0  0  0  0
  -28.8323  -29.8053   20.1297 F   0  0  0  0  0  0  0  0  0  0  0  0
  -25.6611  -10.7193   20.0758 F   0  0  0  0  0  0  0  0  0  0  0  0
  -25.8023  -12.0873   21.7529 F   0  0  0  0  0  0  0  0  0  0  0  0
  -25.0548  -12.7939   19.8370 F   0  0  0  0  0  0  0  0  0  0  0  0
  1  2  1  0  0  0  0
  1  6  2  0  0  0  0
  2  7  2  0  0  0  0
  3  9  1  0  0  0  0
  3 10  2  0  0  0  0
  4 11  2  0  0  0  0
  4 18  1  0  0  0  0
  5 12  1  0  0  0  0
  5 18  2  0  0  0  0
  6 20  1  0  0  0  0
  7 22  1  0  0  0  0
  8 13  2  0  0  0  0
  8 21  1  0  0  0  0
  9 24  2  0  0  0  0
 10 25  1  0  0  0  0
 11 27  1  0  0  0  0
 12 27  2  0  0  0  0
 13 28  1  0  0  0  0
 14 15  2  0  0  0  0
 14 29  1  0  0  0  0
 15 30  1  0  0  0  0
 16 23  1  0  0  0  0
 16 28  2  0  0  0  0
 17 30  2  0  0  0  0
 17 31  1  0  0  0  0
 18 32  1  0  0  0  0
 19 32  1  0  0  0  0
 19 33  2  0  0  0  0
 19 34  1  0  0  0  0
 20 22  2  0  0  0  0
 20 40  1  0  0  0  0
 21 23  2  0  0  0  0
 21 41  1  0  0  0  0
 22 49  1  0  0  0  0
 23 42  1  0  0  0  0
 24 26  1  0  0  0  0
 24 57  1  0  0  0  0
 25 26  2  0  0  0  0
 25 63  1  0  0  0  0
 26 58  1  0  0  0  0
 27 82  1  0  0  0  0
 28 83  1  0  0  0  0
 29 31  2  0  0  0  0
 29 82  1  0  0  0  0
 30 84  1  0  0  0  0
 31 85  1  0  0  0  0
 32 65  2  0  0  0  0
 33 66  1  0  0  0  0
 33 69  1  0  0  0  0
 34 70  1  0  0  0  0
 34 76  2  0  0  0  0
 35 50  1  0  0  0  0
 35 71  1  0  0  0  0
 35 77  2  0  0  0  0
 36 61  1  0  0  0  0
 36 67  1  0  0  0  0
 36 78  2  0  0  0  0
 37 59  1  0  0  0  0
 37 72  1  0  0  0  0
 37 79  2  0  0  0  0
 38 62  1  0  0  0  0
 38 73  1  0  0  0  0
 38 80  2  0  0  0  0
 39 68  1  0  0  0  0
 39 74  1  0  0  0  0
 39 81  2  0  0  0  0
 40 43  1  0  0  0  0
 41 50  1  0  0  0  0
 42 67  1  0  0  0  0
 43 45  1  0  0  0  0
 44 46  1  0  0  0  0
 44 47  1  0  0  0  0
 45 49  1  0  0  0  0
 46 51  1  0  0  0  0
 47 68  1  0  0  0  0
 48 51  1  0  0  0  0
 48 68  1  0  0  0  0
 49 71  1  0  0  0  0
 50 67  1  0  0  0  0
 51 66  1  0  0  0  0
 52 62  1  0  0  0  0
 53 64  1  0  0  0  0
 54 64  1  0  0  0  0
 55 64  1  0  0  0  0
 56 75  1  0  0  0  0
 57 74  1  0  0  0  0
 58 72  1  0  0  0  0
 59 60  1  0  0  0  0
 60 83  1  0  0  0  0
 61 64  1  0  0  0  0
 61 73  1  0  0  0  0
 62 75  1  0  0  0  0
 63 86  1  0  0  0  0
 63 87  1  0  0  0  0
 63 88  1  0  0  0  0
 65 66  1  0  0  0  0
M  CHG  1  75   1
M  ISO  4  39 100  60 101  74 100  83 101
M  END
> <Batch ID>
0052

> <Smiles>
CNC(C)C(=O)NC(C(=O)N1Cc2cc([101O:1][101CH2:1]CC(=O)NCc3c(C[100NH:0][100C:0](=O)N4CCCC(n5nc(-c6ccc(Oc7ccc(F)cc7F)cc6)c(C(N)=O)c5N)C4)cccc3C(F)(F)F)ccc2CC1C(=O)NC1CCCc2ccccc21)C(C)(C)C

> <Shape>
0.215

> <Color>
0.066

> <Negative vol penalty>
0.000

$$$$

  -OEChem-04042322403D

 86 94  0     1  0  0  0  0  0999 V2000
  -25.9076   -7.8541   24.0901 C   0  0  0  0  0  0  0  0  0  0  0  0
  -26.8453   -8.8338   23.7799 C   0  0  0  0  0  0  0  0  0  0  0  0
  -19.8596  -27.7741   23.9523 C   0  0  0  0  0  0  0  0  0  0  0  0
  -19.9059  -27.5730   21.5451 C   0  0  0  0  0  0  0  0  0  0  0  0
  -24.7299   -7.7586   23.3498 C   0  0  0  0  0  0  0  0  0  0  0  0
  -26.6064   -9.7180   22.7284 C   0  0  0  0  0  0  0  0  0  0  0  0
  -28.2645  -15.6054   22.4198 C   0  0  0  0  0  0  0  0  0  0  0  0
  -31.3004  -23.6322   20.6746 C   0  0  0  0  0  0  0  0  0  0  0  0
  -18.5346  -28.2056   23.8908 C   0  0  0  0  0  0  0  0  0  0  0  0
  -18.5808  -28.0044   21.4836 C   0  0  0  0  0  0  0  0  0  0  0  0
  -29.3385  -16.2463   21.8037 C   0  0  0  0  0  0  0  0  0  0  0  0
  -15.5086  -26.6877   21.9818 C   0  0  0  0  0  0  0  0  0  0  0  0
  -31.2598  -24.6255   21.6530 C   0  0  0  0  0  0  0  0  0  0  0  0
  -14.6384  -25.9864   21.1472 C   0  0  0  0  0  0  0  0  0  0  0  0
  -27.9475  -16.7263   19.8921 C   0  0  0  0  0  0  0  0  0  0  0  0
  -14.2258  -28.0034   19.8828 C   0  0  0  0  0  0  0  0  0  0  0  0
  -20.5453  -27.4579   22.7795 C   0  0  0  0  0  0  0  0  0  0  0  0
  -22.3723  -25.6869   22.9617 C   0  0  0  0  0  0  0  0  0  0  0  0
  -24.4721   -8.6482   22.2949 C   0  0  0  0  0  0  0  0  0  0  0  0
  -27.0250  -15.5104   21.7710 C   0  0  0  0  0  0  0  0  0  0  0  0
  -25.4248   -9.6334   21.9724 C   0  0  0  0  0  0  0  0  0  0  0  0
  -26.8587  -16.0859   20.5032 C   0  0  0  0  0  0  0  0  0  0  0  0
  -30.3648  -23.6337   19.6399 C   0  0  0  0  0  0  0  0  0  0  0  0
  -29.3886  -24.6284   19.5839 C   0  0  0  0  0  0  0  0  0  0  0  0
  -29.3480  -25.6217   20.5623 C   0  0  0  0  0  0  0  0  0  0  0  0
  -17.8952  -28.3207   22.6564 C   0  0  0  0  0  0  0  0  0  0  0  0
  -29.1809  -16.8044   20.5385 C   0  0  0  0  0  0  0  0  0  0  0  0
  -15.7374  -28.0468   21.7670 C   0  0  0  0  0  0  0  0  0  0  0  0
  -13.9970  -26.6443   20.0977 C   0  0  0  0  0  0  0  0  0  0  0  0
  -30.2836  -25.6202   21.5969 C   0  0  0  0  0  0  0  0  0  0  0  0
  -15.0960  -28.7047   20.7175 C   0  0  0  0  0  0  0  0  0  0  0  0
  -21.9142  -27.0127   22.8423 C   0  0  0  0  0  0  0  0  0  0  0  0
  -23.7413  -25.7968   22.9780 C   0  0  0  0  0  0  0  0  0  0  0  0
  -21.6270  -24.4652   23.0499 C   0  0  0  0  0  0  0  0  0  0  0  0
  -25.2073  -13.1124   20.7467 C   0  0  0  0  0  0  0  0  0  0  0  0
  -23.1002  -15.4955   20.1116 C   0  0  0  0  0  0  0  0  0  0  0  0
  -30.7842  -20.3228   19.6888 C   0  0  0  0  0  0  0  0  0  0  0  0
  -22.5799  -18.8032   19.4518 C   0  0  0  0  0  0  0  0  0  0  0  0
  -28.4792  -27.9465   20.9945 C   0  0  0  0  0  0  0  0  0  0  0  0
  -23.2065   -8.4758   21.4929 C   0  0  0  0  0  0  0  0  0  0  0  0
  -25.8689  -14.8391   22.4604 C   0  0  0  0  0  0  0  0  0  0  0  0
  -25.5428  -16.0288   19.7728 C   0  0  0  0  0  0  0  0  0  0  0  0
  -22.8593   -9.6895   20.6345 C   0  0  0  0  0  0  0  0  0  0  0  0
  -26.7137  -29.8706   23.4149 C   0  0  0  0  0  0  0  0  0  0  0  0
  -24.0918  -10.1814   19.8823 C   0  0  0  0  0  0  0  0  0  0  0  0
  -25.3454  -29.1895   23.4915 C   0  0  0  0  0  0  0  0  0  0  0  0
  -27.2669  -29.8733   21.9909 C   0  0  0  0  0  0  0  0  0  0  0  0
  -25.9429  -27.8769   21.4162 C   0  0  0  0  0  0  0  0  0  0  0  0
  -25.1905  -10.6267   20.8550 C   0  0  1  0  0  0  0  0  0  0  0  0
  -24.7966  -14.3514   21.4910 C   0  0  1  0  0  0  0  0  0  0  0  0
  -25.3743  -27.7920   22.8421 C   0  0  2  0  0  0  0  0  0  0  0  0
  -28.3880  -24.6264   18.4708 C   0  0  0  0  0  0  0  0  0  0  0  0
  -20.7536  -20.4462   18.9394 C   0  0  0  0  0  0  0  0  0  0  0  0
  -22.9396  -14.4237   17.2594 C   0  0  0  0  0  0  0  0  0  0  0  0
  -21.8951  -16.5943   16.5768 C   0  0  0  0  0  0  0  0  0  0  0  0
  -20.7466  -15.1264   18.2348 C   0  0  0  0  0  0  0  0  0  0  0  0
  -32.6976  -21.5889   18.6854 C   0  0  0  0  0  0  0  0  0  0  0  0
  -23.1697  -20.3921   21.8780 C   0  0  0  0  0  0  0  0  0  0  0  0
  -30.4319  -22.5533   18.5995 C   0  0  0  0  0  0  0  0  0  0  0  0
  -31.8030  -19.2492   20.0572 C   0  0  0  0  0  0  0  0  0  0  0  0
  -31.1847  -18.0616   20.7840 C   0  0  0  0  0  0  0  0  0  1  0  0
  -22.8235  -16.3906   18.9279 C   0  0  1  0  0  0  0  0  0  0  0  0
  -21.5952  -19.8031   20.0306 C   0  0  2  0  0  0  0  0  0  0  0  0
  -22.1266  -15.6333   17.7624 C   0  0  0  0  0  0  0  0  0  0  0  0
  -22.9112  -27.8997   22.7869 N   0  0  0  0  0  0  0  0  0  0  0  0
  -24.0095  -27.1299   22.8719 N   0  0  0  0  0  0  0  0  0  0  0  0
  -24.4442  -15.3562   20.4858 N   0  0  0  0  0  0  0  0  0  0  0  0
  -27.2681  -28.5156   21.4419 N   0  0  0  0  0  0  0  0  0  0  0  0
  -24.7298  -24.8823   23.0728 N   0  0  0  0  0  0  0  0  0  0  0  0
  -20.2275  -24.5326   23.0181 N   0  0  0  0  0  0  0  0  0  0  0  0
  -28.3626  -26.6391   20.5235 N   0  0  0  0  0  0  0  0  0  0  0  0
  -24.8877  -11.9347   21.3951 N   0  0  0  0  0  0  0  0  0  0  0  0
  -22.0636  -17.5247   19.4425 N   0  0  0  0  0  0  0  0  0  0  0  0
  -31.2856  -21.4437   19.0178 N   0  0  0  0  0  0  0  0  0  0  0  0
  -22.3204  -20.8806   20.7613 N   0  3  0  0  0  0  0  0  0  0  0  0
  -22.1853  -23.3484   23.1704 O   0  0  0  0  0  0  0  0  0  0  0  0
  -25.7709  -13.2171   19.6636 O   0  0  0  0  0  0  0  0  0  0  0  0
  -22.1579  -14.9461   20.6876 O   0  0  0  0  0  0  0  0  0  0  0  0
  -29.5930  -20.1828   19.9783 O   0  0  0  0  0  0  0  0  0  0  0  0
  -23.6941  -19.1248   19.0449 O   0  0  0  0  0  0  0  0  0  0  0  0
  -29.5462  -28.5630   21.0521 O   0  0  0  0  0  0  0  0  0  0  0  0
  -16.6022  -28.7415   22.5960 O   0  0  0  0  0  0  0  0  0  0  0  0
  -30.2277  -17.4300   19.9345 O   0  0  0  0  0  0  0  0  0  1  0  0
  -13.1626  -25.9704   19.2953 F   0  0  0  0  0  0  0  0  0  0  0  0
  -30.2537  -26.5681   22.5447 F   0  0  0  0  0  0  0  0  0  0  0  0
  -15.3127  -30.0100   20.5054 F   0  0  0  0  0  0  0  0  0  0  0  0
  1  2  1  0  0  0  0
  1  5  2  0  0  0  0
  2  6  2  0  0  0  0
  3  9  2  0  0  0  0
  3 17  1  0  0  0  0
  4 10  1  0  0  0  0
  4 17  2  0  0  0  0
  5 19  1  0  0  0  0
  6 21  1  0  0  0  0
  7 11  2  0  0  0  0
  7 20  1  0  0  0  0
  8 13  2  0  0  0  0
  8 23  1  0  0  0  0
  9 26  1  0  0  0  0
 10 26  2  0  0  0  0
 11 27  1  0  0  0  0
 12 14  2  0  0  0  0
 12 28  1  0  0  0  0
 13 30  1  0  0  0  0
 14 29  1  0  0  0  0
 15 22  1  0  0  0  0
 15 27  2  0  0  0  0
 16 29  2  0  0  0  0
 16 31  1  0  0  0  0
 17 32  1  0  0  0  0
 18 32  1  0  0  0  0
 18 33  2  0  0  0  0
 18 34  1  0  0  0  0
 19 21  2  0  0  0  0
 19 40  1  0  0  0  0
 20 22  2  0  0  0  0
 20 41  1  0  0  0  0
 21 49  1  0  0  0  0
 22 42  1  0  0  0  0
 23 24  2  0  0  0  0
 23 59  1  0  0  0  0
 24 25  1  0  0  0  0
 24 52  1  0  0  0  0
 25 30  2  0  0  0  0
 25 71  1  0  0  0  0
 26 82  1  0  0  0  0
 27 83  1  0  0  0  0
 28 31  2  0  0  0  0
 28 82  1  0  0  0  0
 29 84  1  0  0  0  0
 30 85  1  0  0  0  0
 31 86  1  0  0  0  0
 32 65  2  0  0  0  0
 33 66  1  0  0  0  0
 33 69  1  0  0  0  0
 34 70  1  0  0  0  0
 34 76  2  0  0  0  0
 35 50  1  0  0  0  0
 35 72  1  0  0  0  0
 35 77  2  0  0  0  0
 36 62  1  0  0  0  0
 36 67  1  0  0  0  0
 36 78  2  0  0  0  0
 37 60  1  0  0  0  0
 37 74  1  0  0  0  0
 37 79  2  0  0  0  0
 38 63  1  0  0  0  0
 38 73  1  0  0  0  0
 38 80  2  0  0  0  0
 39 68  1  0  0  0  0
 39 71  1  0  0  0  0
 39 81  2  0  0  0  0
 40 43  1  0  0  0  0
 41 50  1  0  0  0  0
 42 67  1  0  0  0  0
 43 45  1  0  0  0  0
 44 46  1  0  0  0  0
 44 47  1  0  0  0  0
 45 49  1  0  0  0  0
 46 51  1  0  0  0  0
 47 68  1  0  0  0  0
 48 51  1  0  0  0  0
 48 68  1  0  0  0  0
 49 72  1  0  0  0  0
 50 67  1  0  0  0  0
 51 66  1  0  0  0  0
 53 63  1  0  0  0  0
 54 64  1  0  0  0  0
 55 64  1  0  0  0  0
 56 64  1  0  0  0  0
 57 74  1  0  0  0  0
 58 75  1  0  0  0  0
 59 74  1  0  0  0  0
 60 61  1  0  0  0  0
 61 83  1  0  0  0  0
 62 64  1  0  0  0  0
 62 73  1  0  0  0  0
 63 75  1  0  0  0  0
 65 66  1  0  0  0  0
M  CHG  1  75   1
M  ISO  4  39 100  61 101  71 100  83 101
M  END
> <Batch ID>
0052

> <Smiles>
CNC(C)C(=O)NC(C(=O)N1Cc2cc([101O:1][101CH2:1]CC(=O)N(C)Cc3ccc(F)c([100NH:0][100C:0](=O)N4CCCC(n5nc(-c6ccc(Oc7ccc(F)cc7F)cc6)c(C(N)=O)c5N)C4)c3C)ccc2CC1C(=O)NC1CCCc2ccccc21)C(C)(C)C

> <Shape>
0.220

> <Color>
0.082

> <Negative vol penalty>
0.000

$$$$

  -OEChem-04042322403D

 83 91  0     1  0  0  0  0  0999 V2000
  -20.3687  -27.4077   23.5648 C   0  0  0  0  0  0  0  0  0  0  0  0
  -20.4342  -26.0295   23.3870 C   0  0  0  0  0  0  0  0  0  0  0  0
  -23.1001  -10.7075   18.9533 C   0  0  0  0  0  0  0  0  0  0  0  0
  -24.4875  -10.8182   19.0441 C   0  0  0  0  0  0  0  0  0  0  0  0
  -29.8812  -23.7595   19.3349 C   0  0  0  0  0  0  0  0  0  0  0  0
  -28.4967  -23.7839   21.3147 C   0  0  0  0  0  0  0  0  0  0  0  0
  -20.2809  -28.2491   22.4565 C   0  0  0  0  0  0  0  0  0  0  0  0
  -20.4107  -25.4917   22.1006 C   0  0  0  0  0  0  0  0  0  0  0  0
  -23.8736  -21.8540   21.4524 C   0  0  0  0  0  0  0  0  0  0  0  0
  -22.2824  -11.6244   19.6139 C   0  0  0  0  0  0  0  0  0  0  0  0
  -25.0574  -11.8458   19.7957 C   0  0  0  0  0  0  0  0  0  0  0  0
  -29.6593  -25.1258   19.1629 C   0  0  0  0  0  0  0  0  0  0  0  0
  -28.2749  -25.1502   21.1428 C   0  0  0  0  0  0  0  0  0  0  0  0
  -23.5807  -20.5955   21.9761 C   0  0  0  0  0  0  0  0  0  0  0  0
  -27.0513  -28.5705   21.0231 C   0  0  0  0  0  0  0  0  0  0  0  0
  -25.7460  -29.0392   21.1719 C   0  0  0  0  0  0  0  0  0  0  0  0
  -22.9185  -19.8432   19.7818 C   0  0  0  0  0  0  0  0  0  0  0  0
  -25.0252  -27.6056   19.3657 C   0  0  0  0  0  0  0  0  0  0  0  0
  -29.2998  -23.0885   20.4108 C   0  0  0  0  0  0  0  0  0  0  0  0
  -30.5651  -21.0693   21.3215 C   0  0  0  0  0  0  0  0  0  0  0  0
  -20.2661  -27.7219   21.1555 C   0  0  0  0  0  0  0  0  0  0  0  0
  -23.6804  -22.1202   20.0892 C   0  0  0  0  0  0  0  0  0  0  0  0
  -20.3212  -26.3267   20.9739 C   0  0  0  0  0  0  0  0  0  0  0  0
  -23.2121  -21.1051   19.2428 C   0  0  0  0  0  0  0  0  0  0  0  0
  -22.8524  -12.6520   20.3656 C   0  0  0  0  0  0  0  0  0  0  0  0
  -24.2399  -12.7627   20.4565 C   0  0  0  0  0  0  0  0  0  0  0  0
  -28.8562  -25.8212   20.0668 C   0  0  0  0  0  0  0  0  0  0  0  0
  -23.1003  -19.5908   21.1413 C   0  0  0  0  0  0  0  0  0  0  0  0
  -27.3436  -27.6194   20.0455 C   0  0  0  0  0  0  0  0  0  0  0  0
  -24.7330  -28.5568   20.3433 C   0  0  0  0  0  0  0  0  0  0  0  0
  -26.3305  -27.1370   19.2168 C   0  0  0  0  0  0  0  0  0  0  0  0
  -29.5281  -21.6770   20.5886 C   0  0  0  0  0  0  0  0  0  0  0  0
  -30.3401  -19.7216   21.1818 C   0  0  0  0  0  0  0  0  0  0  0  0
  -31.6359  -21.6694   22.0624 C   0  0  0  0  0  0  0  0  0  0  0  0
  -21.8549  -24.1266   18.4322 C   0  0  0  0  0  0  0  0  0  0  0  0
  -23.5355  -22.9611   15.9143 C   0  0  0  0  0  0  0  0  0  0  0  0
  -22.0222  -16.0830   21.4589 C   0  0  0  0  0  0  0  0  0  0  0  0
  -25.3915  -20.4178   14.5979 C   0  0  0  0  0  0  0  0  0  0  0  0
  -26.0006  -16.0435   20.9529 C   0  0  0  0  0  0  0  0  0  0  0  0
  -20.1224  -28.6685   19.9902 C   0  0  0  0  0  0  0  0  0  0  0  0
  -24.0264  -23.4750   19.5349 C   0  0  0  0  0  0  0  0  0  0  0  0
  -23.0066  -21.3339   17.7684 C   0  0  0  0  0  0  0  0  0  0  0  0
  -20.4809  -28.0391   18.6465 C   0  0  0  0  0  0  0  0  0  0  0  0
  -27.8413  -16.9202   17.9628 C   0  0  0  0  0  0  0  0  0  0  0  0
  -19.8262  -26.6684   18.5073 C   0  0  0  0  0  0  0  0  0  0  0  0
  -28.5697  -18.1873   18.4146 C   0  0  0  0  0  0  0  0  0  0  0  0
  -26.4366  -16.8494   18.5543 C   0  0  0  0  0  0  0  0  0  0  0  0
  -27.1159  -18.2088   20.4945 C   0  0  0  0  0  0  0  0  0  0  0  0
  -20.3234  -25.7068   19.5934 C   0  0  1  0  0  0  0  0  0  0  0  0
  -23.3045  -23.7880   18.2279 C   0  0  1  0  0  0  0  0  0  0  0  0
  -28.5503  -18.3281   19.9482 C   0  0  2  0  0  0  0  0  0  0  0  0
  -26.8416  -19.2064   12.9465 C   0  0  0  0  0  0  0  0  0  0  0  0
  -20.8634  -22.3181   14.5891 C   0  0  0  0  0  0  0  0  0  0  0  0
  -22.0907  -20.8228   12.9998 C   0  0  0  0  0  0  0  0  0  0  0  0
  -22.5904  -23.2663   13.0487 C   0  0  0  0  0  0  0  0  0  0  0  0
  -27.8659  -21.5379   15.7733 C   0  0  0  0  0  0  0  0  0  0  0  0
  -21.9527  -13.6280   21.0671 C   0  0  0  0  0  0  0  0  0  0  0  0
  -24.8729  -13.8540   21.2558 C   0  0  0  0  0  0  0  0  0  0  0  0
  -22.3245  -17.3792   20.7377 C   0  0  0  0  0  0  0  0  0  1  0  0
  -23.3662  -21.8040   14.9597 C   0  0  1  0  0  0  0  0  0  0  0  0
  -26.7179  -20.4163   13.8595 C   0  0  2  0  0  0  0  0  0  0  0  0
  -22.2296  -22.0487   13.9274 C   0  0  0  0  0  0  0  0  0  0  0  0
  -28.7056  -20.7883   20.0251 N   0  0  0  0  0  0  0  0  0  0  0  0
  -29.2257  -19.6084   20.4038 N   0  0  0  0  0  0  0  0  0  0  0  0
  -23.3532  -22.6770   17.2752 N   0  0  0  0  0  0  0  0  0  0  0  0
  -26.4899  -16.9709   20.0181 N   0  0  0  0  0  0  0  0  0  0  0  0
  -30.9889  -18.6342   21.6498 N   0  0  0  0  0  0  0  0  0  0  0  0
  -31.7191  -23.0679   22.1024 N   0  0  0  0  0  0  0  0  0  0  0  0
  -21.6419  -25.2098   19.2633 N   0  0  0  0  0  0  0  0  0  0  0  0
  -22.1802  -14.9853   20.6276 N   0  0  0  0  0  0  0  0  0  0  0  0
  -24.6768  -21.5730   14.3618 N   0  0  0  0  0  0  0  0  0  0  0  0
  -25.4163  -14.9012   20.4196 N   0  0  0  0  0  0  0  0  0  0  0  0
  -27.8500  -20.3918   14.8282 N   0  3  0  0  0  0  0  0  0  0  0  0
  -32.5031  -20.9855   22.6573 O   0  0  0  0  0  0  0  0  0  0  0  0
  -20.9935  -23.4557   17.8758 O   0  0  0  0  0  0  0  0  0  0  0  0
  -23.8259  -24.0745   15.4697 O   0  0  0  0  0  0  0  0  0  0  0  0
  -21.6795  -16.0428   22.6375 O   0  0  0  0  0  0  0  0  0  0  0  0
  -25.0244  -19.4855   15.3098 O   0  0  0  0  0  0  0  0  0  0  0  0
  -26.0832  -16.2179   22.1735 O   0  0  0  0  0  0  0  0  0  0  0  0
  -28.6398  -27.1545   19.8995 O   0  0  0  0  0  0  0  0  0  0  0  0
  -22.8131  -18.3617   21.6500 O   0  0  0  0  0  0  0  0  0  1  0  0
  -23.4793  -29.0058   20.4874 F   0  0  0  0  0  0  0  0  0  0  0  0
  -26.6050  -26.2223   18.2767 F   0  0  0  0  0  0  0  0  0  0  0  0
  1  2  1  0  0  0  0
  1  7  2  0  0  0  0
  2  8  2  0  0  0  0
  3  4  1  0  0  0  0
  3 10  2  0  0  0  0
  4 11  2  0  0  0  0
  5 12  2  0  0  0  0
  5 19  1  0  0  0  0
  6 13  1  0  0  0  0
  6 19  2  0  0  0  0
  7 21  1  0  0  0  0
  8 23  1  0  0  0  0
  9 14  2  0  0  0  0
  9 22  1  0  0  0  0
 10 25  1  0  0  0  0
 11 26  1  0  0  0  0
 12 27  1  0  0  0  0
 13 27  2  0  0  0  0
 14 28  1  0  0  0  0
 15 16  2  0  0  0  0
 15 29  1  0  0  0  0
 16 30  1  0  0  0  0
 17 24  1  0  0  0  0
 17 28  2  0  0  0  0
 18 30  2  0  0  0  0
 18 31  1  0  0  0  0
 19 32  1  0  0  0  0
 20 32  1  0  0  0  0
 20 33  2  0  0  0  0
 20 34  1  0  0  0  0
 21 23  2  0  0  0  0
 21 40  1  0  0  0  0
 22 24  2  0  0  0  0
 22 41  1  0  0  0  0
 23 49  1  0  0  0  0
 24 42  1  0  0  0  0
 25 26  2  0  0  0  0
 25 57  1  0  0  0  0
 26 58  1  0  0  0  0
 27 80  1  0  0  0  0
 28 81  1  0  0  0  0
 29 31  2  0  0  0  0
 29 80  1  0  0  0  0
 30 82  1  0  0  0  0
 31 83  1  0  0  0  0
 32 63  2  0  0  0  0
 33 64  1  0  0  0  0
 33 67  1  0  0  0  0
 34 68  1  0  0  0  0
 34 74  2  0  0  0  0
 35 50  1  0  0  0  0
 35 69  1  0  0  0  0
 35 75  2  0  0  0  0
 36 60  1  0  0  0  0
 36 65  1  0  0  0  0
 36 76  2  0  0  0  0
 37 59  1  0  0  0  0
 37 70  1  0  0  0  0
 37 77  2  0  0  0  0
 38 61  1  0  0  0  0
 38 71  1  0  0  0  0
 38 78  2  0  0  0  0
 39 66  1  0  0  0  0
 39 72  1  0  0  0  0
 39 79  2  0  0  0  0
 40 43  1  0  0  0  0
 41 50  1  0  0  0  0
 42 65  1  0  0  0  0
 43 45  1  0  0  0  0
 44 46  1  0  0  0  0
 44 47  1  0  0  0  0
 45 49  1  0  0  0  0
 46 51  1  0  0  0  0
 47 66  1  0  0  0  0
 48 51  1  0  0  0  0
 48 66  1  0  0  0  0
 49 69  1  0  0  0  0
 50 65  1  0  0  0  0
 51 64  1  0  0  0  0
 52 61  1  0  0  0  0
 53 62  1  0  0  0  0
 54 62  1  0  0  0  0
 55 62  1  0  0  0  0
 56 73  1  0  0  0  0
 57 70  1  0  0  0  0
 58 72  1  0  0  0  0
 59 81  1  0  0  0  0
 60 62  1  0  0  0  0
 60 71  1  0  0  0  0
 61 73  1  0  0  0  0
 63 64  1  0  0  0  0
M  CHG  1  73   1
M  ISO  4  39 100  59 101  72 100  81 101
M  END
> <Batch ID>
0052

> <Smiles>
CNC(C)C(=O)NC(C(=O)N1Cc2cc([101O:1][101CH2:1]C(=O)NCc3ccccc3C[100NH:0][100C:0](=O)N3CCCC(n4nc(-c5ccc(Oc6ccc(F)cc6F)cc5)c(C(N)=O)c4N)C3)ccc2CC1C(=O)NC1CCCc2ccccc21)C(C)(C)C

> <Shape>
0.193

> <Color>
0.066

> <Negative vol penalty>
0.000

$$$$

  -OEChem-04042322403D

 86 94  0     1  0  0  0  0  0999 V2000
  -17.8944  -25.0544   25.5317 C   0  0  0  0  0  0  0  0  0  0  0  0
  -17.8985  -23.9992   24.6251 C   0  0  0  0  0  0  0  0  0  0  0  0
  -27.1718  -23.7022   20.5003 C   0  0  0  0  0  0  0  0  0  0  0  0
  -29.4648  -23.7483   21.2598 C   0  0  0  0  0  0  0  0  0  0  0  0
  -18.2901  -26.3266   25.1207 C   0  0  0  0  0  0  0  0  0  0  0  0
  -18.2972  -24.2158   23.3066 C   0  0  0  0  0  0  0  0  0  0  0  0
  -21.4242  -20.6137   21.6060 C   0  0  0  0  0  0  0  0  0  0  0  0
  -27.3041  -25.0057   20.0217 C   0  0  0  0  0  0  0  0  0  0  0  0
  -29.5972  -25.0517   20.7811 C   0  0  0  0  0  0  0  0  0  0  0  0
  -20.8513  -19.4007   21.2259 C   0  0  0  0  0  0  0  0  0  0  0  0
  -27.2912  -28.1381   21.2913 C   0  0  0  0  0  0  0  0  0  0  0  0
  -26.2615  -29.0372   21.5687 C   0  0  0  0  0  0  0  0  0  0  0  0
  -24.2828  -12.0830   19.9873 C   0  0  0  0  0  0  0  0  0  0  0  0
  -20.9691  -20.0768   18.9132 C   0  0  0  0  0  0  0  0  0  0  0  0
  -26.5426  -12.9089   19.7671 C   0  0  0  0  0  0  0  0  0  0  0  0
  -25.8980  -29.3514   19.2009 C   0  0  0  0  0  0  0  0  0  0  0  0
  -28.2521  -23.0735   21.1194 C   0  0  0  0  0  0  0  0  0  0  0  0
  -23.9611  -13.1772   20.7902 C   0  0  0  0  0  0  0  0  0  0  0  0
  -27.2113  -21.2679   22.5906 C   0  0  0  0  0  0  0  0  0  0  0  0
  -18.7031  -26.5568   23.7989 C   0  0  0  0  0  0  0  0  0  0  0  0
  -21.7643  -21.5734   20.6418 C   0  0  0  0  0  0  0  0  0  0  0  0
  -18.6976  -25.4925   22.8772 C   0  0  0  0  0  0  0  0  0  0  0  0
  -21.5485  -21.3001   19.2835 C   0  0  0  0  0  0  0  0  0  0  0  0
  -24.9301  -14.1373   21.0816 C   0  0  0  0  0  0  0  0  0  0  0  0
  -26.2208  -14.0032   20.5700 C   0  0  0  0  0  0  0  0  0  0  0  0
  -28.5168  -25.6804   20.1621 C   0  0  0  0  0  0  0  0  0  0  0  0
  -20.6211  -19.1333   19.8796 C   0  0  0  0  0  0  0  0  0  0  0  0
  -27.6243  -27.8457   19.9687 C   0  0  0  0  0  0  0  0  0  0  0  0
  -25.5649  -29.6439   20.5235 C   0  0  0  0  0  0  0  0  0  0  0  0
  -25.5736  -11.9488   19.4757 C   0  0  0  0  0  0  0  0  0  0  0  0
  -26.9277  -28.4523   18.9235 C   0  0  0  0  0  0  0  0  0  0  0  0
  -28.1159  -21.7273   21.6146 C   0  0  0  0  0  0  0  0  0  0  0  0
  -27.4802  -19.9258   22.7034 C   0  0  0  0  0  0  0  0  0  0  0  0
  -20.2876  -15.5692   19.5262 C   0  0  0  0  0  0  0  0  0  0  0  0
  -20.7194  -16.7970   19.8289 C   0  0  0  0  0  0  0  0  0  1  0  0
  -22.5746  -13.2920   21.3204 C   0  0  0  0  0  0  0  0  0  0  0  0
  -26.2169  -21.9899   23.3291 C   0  0  0  0  0  0  0  0  0  0  0  0
  -21.0973  -14.3779   19.9080 C   0  0  0  0  0  0  0  0  0  0  0  0
  -20.8506  -24.5546   20.0245 C   0  0  0  0  0  0  0  0  0  0  0  0
  -23.2223  -24.4103   17.8162 C   0  0  0  0  0  0  0  0  0  0  0  0
  -25.1985  -22.4838   15.8088 C   0  0  0  0  0  0  0  0  0  0  0  0
  -28.5451  -14.9624   20.4156 C   0  0  0  0  0  0  0  0  0  0  0  0
  -19.0770  -27.9593   23.3891 C   0  0  0  0  0  0  0  0  0  0  0  0
  -22.4060  -22.8659   21.0661 C   0  0  0  0  0  0  0  0  0  0  0  0
  -21.9143  -22.2887   18.2078 C   0  0  0  0  0  0  0  0  0  0  0  0
  -19.8428  -28.0247   22.0702 C   0  0  0  0  0  0  0  0  0  0  0  0
  -31.3049  -17.1667   20.8646 C   0  0  0  0  0  0  0  0  0  0  0  0
  -19.1657  -27.1546   21.0160 C   0  0  0  0  0  0  0  0  0  0  0  0
  -30.6469  -18.5119   21.1800 C   0  0  0  0  0  0  0  0  0  0  0  0
  -30.5062  -16.3728   19.8324 C   0  0  0  0  0  0  0  0  0  0  0  0
  -28.4280  -17.5312   20.4716 C   0  0  0  0  0  0  0  0  0  0  0  0
  -19.1471  -25.6824   21.4447 C   0  0  1  0  0  0  0  0  0  0  0  0
  -22.2394  -23.9812   20.0387 C   0  0  1  0  0  0  0  0  0  0  0  0
  -29.1619  -18.3388   21.5547 C   0  0  2  0  0  0  0  0  0  0  0  0
  -24.5834  -15.3116   21.9431 C   0  0  0  0  0  0  0  0  0  0  0  0
  -20.9719  -13.1754   18.9966 C   0  0  0  0  0  0  0  0  0  0  0  0
  -27.0171  -22.6529   14.0878 C   0  0  0  0  0  0  0  0  0  0  0  0
  -21.1698  -25.2909   15.7374 C   0  0  0  0  0  0  0  0  0  0  0  0
  -22.7544  -24.5327   13.9535 C   0  0  0  0  0  0  0  0  0  0  0  0
  -23.4150  -26.3683   15.5081 C   0  0  0  0  0  0  0  0  0  0  0  0
  -27.0866  -20.9379   17.4834 C   0  0  0  0  0  0  0  0  0  0  0  0
  -23.3108  -23.9931   16.3681 C   0  0  1  0  0  0  0  0  0  0  0  0
  -26.6969  -22.4899   15.5656 C   0  0  2  0  0  0  0  0  0  0  0  0
  -22.6537  -25.0282   15.4120 C   0  0  0  0  0  0  0  0  0  0  0  0
  -28.9009  -20.7558   21.1412 N   0  0  0  0  0  0  0  0  0  0  0  0
  -21.8377  -14.3992   20.9800 N   0  0  0  0  0  0  0  0  0  0  0  0
  -28.4904  -19.6727   21.8226 N   0  0  0  0  0  0  0  0  0  0  0  0
  -22.5334  -23.5407   18.6735 N   0  0  0  0  0  0  0  0  0  0  0  0
  -29.1102  -16.2454   20.2564 N   0  0  0  0  0  0  0  0  0  0  0  0
  -26.9488  -18.9492   23.4691 N   0  0  0  0  0  0  0  0  0  0  0  0
  -26.5814  -22.5663   24.5536 N   0  0  0  0  0  0  0  0  0  0  0  0
  -27.2213  -14.9657   20.8537 N   0  0  0  0  0  0  0  0  0  0  0  0
  -20.4461  -25.0792   21.2373 N   0  0  0  0  0  0  0  0  0  0  0  0
  -24.7233  -23.7449   16.1004 N   0  0  0  0  0  0  0  0  0  0  0  0
  -22.0705  -12.4258   22.1268 N   0  3  0  0  0  0  0  0  0  0  0  0
  -27.3039  -21.2142   16.0400 N   0  3  0  0  0  0  0  0  0  0  0  0
  -25.0356  -22.1061   22.9234 O   0  0  0  0  0  0  0  0  0  0  0  0
  -20.1951  -24.5247   18.9896 O   0  0  0  0  0  0  0  0  0  0  0  0
  -23.7514  -25.4653   18.1750 O   0  0  0  0  0  0  0  0  0  0  0  0
  -24.5171  -21.4630   15.7428 O   0  0  0  0  0  0  0  0  0  0  0  0
  -29.1968  -13.9359   20.2069 O   0  0  0  0  0  0  0  0  0  0  0  0
  -28.6463  -26.9523   19.6949 O   0  0  0  0  0  0  0  0  0  0  0  0
  -20.0615  -17.9505   19.5059 O   0  0  0  0  0  0  0  0  0  1  0  0
  -24.5751  -30.5061   20.7900 F   0  0  0  0  0  0  0  0  0  0  0  0
  -25.8830  -10.8971   18.7058 F   0  0  0  0  0  0  0  0  0  0  0  0
  -27.2424  -28.1744   17.6509 F   0  0  0  0  0  0  0  0  0  0  0  0
  1  2  1  0  0  0  0
  1  5  2  0  0  0  0
  2  6  2  0  0  0  0
  3  8  2  0  0  0  0
  3 17  1  0  0  0  0
  4  9  1  0  0  0  0
  4 17  2  0  0  0  0
  5 20  1  0  0  0  0
  6 22  1  0  0  0  0
  7 10  2  0  0  0  0
  7 21  1  0  0  0  0
  8 26  1  0  0  0  0
  9 26  2  0  0  0  0
 10 27  1  0  0  0  0
 11 12  2  0  0  0  0
 11 28  1  0  0  0  0
 12 29  1  0  0  0  0
 13 18  1  0  0  0  0
 13 30  2  0  0  0  0
 14 23  1  0  0  0  0
 14 27  2  0  0  0  0
 15 25  2  0  0  0  0
 15 30  1  0  0  0  0
 16 29  2  0  0  0  0
 16 31  1  0  0  0  0
 17 32  1  0  0  0  0
 18 24  2  0  0  0  0
 18 36  1  0  0  0  0
 19 32  1  0  0  0  0
 19 33  2  0  0  0  0
 19 37  1  0  0  0  0
 20 22  2  0  0  0  0
 20 43  1  0  0  0  0
 21 23  2  0  0  0  0
 21 44  1  0  0  0  0
 22 52  1  0  0  0  0
 23 45  1  0  0  0  0
 24 25  1  0  0  0  0
 24 55  1  0  0  0  0
 25 72  1  0  0  0  0
 26 82  1  0  0  0  0
 27 83  1  0  0  0  0
 28 31  2  0  0  0  0
 28 82  1  0  0  0  0
 29 84  1  0  0  0  0
 30 85  1  0  0  0  0
 31 86  1  0  0  0  0
 32 65  2  0  0  0  0
 33 67  1  0  0  0  0
 33 70  1  0  0  0  0
 34 35  2  0  0  0  0
 34 38  1  0  0  0  0
 35 83  1  0  0  0  0
 36 66  1  0  0  0  0
 36 75  2  0  0  0  0
 37 71  1  0  0  0  0
 37 77  2  0  0  0  0
 38 56  1  0  0  0  0
 38 66  2  0  0  0  0
 39 53  1  0  0  0  0
 39 73  1  0  0  0  0
 39 78  2  0  0  0  0
 40 62  1  0  0  0  0
 40 68  1  0  0  0  0
 40 79  2  0  0  0  0
 41 63  1  0  0  0  0
 41 74  1  0  0  0  0
 41 80  2  0  0  0  0
 42 69  1  0  0  0  0
 42 72  1  0  0  0  0
 42 81  2  0  0  0  0
 43 46  1  0  0  0  0
 44 53  1  0  0  0  0
 45 68  1  0  0  0  0
 46 48  1  0  0  0  0
 47 49  1  0  0  0  0
 47 50  1  0  0  0  0
 48 52  1  0  0  0  0
 49 54  1  0  0  0  0
 50 69  1  0  0  0  0
 51 54  1  0  0  0  0
 51 69  1  0  0  0  0
 52 73  1  0  0  0  0
 53 68  1  0  0  0  0
 54 67  1  0  0  0  0
 57 63  1  0  0  0  0
 58 64  1  0  0  0  0
 59 64  1  0  0  0  0
 60 64  1  0  0  0  0
 61 76  1  0  0  0  0
 62 64  1  0  0  0  0
 62 74  1  0  0  0  0
 63 76  1  0  0  0  0
 65 67  1  0  0  0  0
M  CHG  2  75   1  76   1
M  ISO  4  35 101  42 100  72 100  83 101
M  END
> <Batch ID>
0052

> <Smiles>
CNC(C)C(=O)NC(C(=O)N1Cc2cc([101O:1][101CH:1]=CC(C)=NC(=N)c3cc(F)cc([100NH:0][100C:0](=O)N4CCCC(n5nc(-c6ccc(Oc7ccc(F)cc7F)cc6)c(C(N)=O)c5N)C4)c3C)ccc2CC1C(=O)NC1CCCc2ccccc21)C(C)(C)C

> <Shape>
0.186

> <Color>
0.081

> <Negative vol penalty>
0.000

$$$$

  -OEChem-04042322403D

 85 93  0     1  0  0  0  0  0999 V2000
  -16.1763  -29.4513   23.4450 C   0  0  0  0  0  0  0  0  0  0  0  0
  -16.9731  -29.0282   22.3860 C   0  0  0  0  0  0  0  0  0  0  0  0
  -26.1033  -12.9473   21.6362 C   0  0  0  0  0  0  0  0  0  0  0  0
  -25.6801  -13.5258   19.3289 C   0  0  0  0  0  0  0  0  0  0  0  0
  -16.7080  -30.2887   24.4248 C   0  0  0  0  0  0  0  0  0  0  0  0
  -18.3020  -29.4432   22.3057 C   0  0  0  0  0  0  0  0  0  0  0  0
  -23.0428  -26.2163   20.1569 C   0  0  0  0  0  0  0  0  0  0  0  0
  -31.7157  -23.1724   16.0184 C   0  0  0  0  0  0  0  0  0  0  0  0
  -32.0602  -21.8359   16.2203 C   0  0  0  0  0  0  0  0  0  0  0  0
  -25.1416  -11.9399   21.5600 C   0  0  0  0  0  0  0  0  0  0  0  0
  -24.7184  -12.5183   19.2527 C   0  0  0  0  0  0  0  0  0  0  0  0
  -23.6910  -26.2103   18.9225 C   0  0  0  0  0  0  0  0  0  0  0  0
  -24.9215   -8.7932   20.3423 C   0  0  0  0  0  0  0  0  0  0  0  0
  -25.2422   -7.5487   20.8843 C   0  0  0  0  0  0  0  0  0  0  0  0
  -25.3522  -27.7268   19.7942 C   0  0  0  0  0  0  0  0  0  0  0  0
  -30.1623  -23.0510   17.8648 C   0  0  0  0  0  0  0  0  0  0  0  0
  -23.3764   -7.7318   22.4083 C   0  0  0  0  0  0  0  0  0  0  0  0
  -26.3725  -13.7404   20.5206 C   0  0  0  0  0  0  0  0  0  0  0  0
  -28.7402  -14.6680   20.3180 C   0  0  0  0  0  0  0  0  0  0  0  0
  -18.0468  -30.7063   24.3616 C   0  0  0  0  0  0  0  0  0  0  0  0
  -23.5392  -26.9874   21.2177 C   0  0  0  0  0  0  0  0  0  0  0  0
  -18.8517  -30.2880   23.2848 C   0  0  0  0  0  0  0  0  0  0  0  0
  -24.7100  -27.7388   21.0418 C   0  0  0  0  0  0  0  0  0  0  0  0
  -30.7668  -23.7799   16.8407 C   0  0  0  0  0  0  0  0  0  0  0  0
  -31.4557  -21.1069   17.2444 C   0  0  0  0  0  0  0  0  0  0  0  0
  -30.5067  -21.7145   18.0667 C   0  0  0  0  0  0  0  0  0  0  0  0
  -24.4492  -11.7254   20.3683 C   0  0  0  0  0  0  0  0  0  0  0  0
  -24.8442  -26.9679   18.7401 C   0  0  0  0  0  0  0  0  0  0  0  0
  -23.8284   -9.5071   20.8333 C   0  0  0  0  0  0  0  0  0  0  0  0
  -24.4696   -7.0179   21.9173 C   0  0  0  0  0  0  0  0  0  0  0  0
  -23.0558   -8.9764   21.8662 C   0  0  0  0  0  0  0  0  0  0  0  0
  -27.3655  -14.7816   20.5988 C   0  0  0  0  0  0  0  0  0  0  0  0
  -29.2413  -15.9273   20.5409 C   0  0  0  0  0  0  0  0  0  0  0  0
  -29.4967  -13.5264   19.8935 C   0  0  0  0  0  0  0  0  0  0  0  0
  -22.4260  -29.4183   22.9368 C   0  0  0  0  0  0  0  0  0  0  0  0
  -25.1433  -28.9473   24.6446 C   0  0  0  0  0  0  0  0  0  0  0  0
  -27.9064  -25.4949   16.7092 C   0  0  0  0  0  0  0  0  0  0  0  0
  -28.3385  -27.7517   24.7339 C   0  0  0  0  0  0  0  0  0  0  0  0
  -28.9232  -21.4608   20.0095 C   0  0  0  0  0  0  0  0  0  0  0  0
  -18.5636  -31.6498   25.4187 C   0  0  0  0  0  0  0  0  0  0  0  0
  -22.8435  -26.9621   22.5510 C   0  0  0  0  0  0  0  0  0  0  0  0
  -25.2951  -28.5677   22.1550 C   0  0  0  0  0  0  0  0  0  0  0  0
  -20.0867  -31.7412   25.4614 C   0  0  0  0  0  0  0  0  0  0  0  0
  -27.1170  -19.9835   22.6988 C   0  0  0  0  0  0  0  0  0  0  0  0
  -20.6514  -31.9053   24.0539 C   0  0  0  0  0  0  0  0  0  0  0  0
  -27.1337  -18.4891   22.3691 C   0  0  0  0  0  0  0  0  0  0  0  0
  -26.9888  -20.8404   21.4407 C   0  0  0  0  0  0  0  0  0  0  0  0
  -27.9948  -19.0627   20.0633 C   0  0  0  0  0  0  0  0  0  0  0  0
  -20.3048  -30.6966   23.1761 C   0  0  1  0  0  0  0  0  0  0  0  0
  -23.1480  -28.1875   23.4073 C   0  0  1  0  0  0  0  0  0  0  0  0
  -28.1878  -18.1610   21.2935 C   0  0  2  0  0  0  0  0  0  0  0  0
  -31.8435  -19.6767   17.4370 C   0  0  0  0  0  0  0  0  0  0  0  0
  -30.3223  -27.5442   26.2566 C   0  0  0  0  0  0  0  0  0  0  0  0
  -25.7674  -31.9052   24.2306 C   0  0  0  0  0  0  0  0  0  0  0  0
  -28.1289  -31.4310   24.9137 C   0  0  0  0  0  0  0  0  0  0  0  0
  -26.2646  -31.0455   26.5258 C   0  0  0  0  0  0  0  0  0  0  0  0
  -29.1153  -25.3385   14.5217 C   0  0  0  0  0  0  0  0  0  0  0  0
  -28.2842  -24.7960   24.5925 C   0  0  0  0  0  0  0  0  0  0  0  0
  -30.3968  -25.2186   16.6227 C   0  0  0  0  0  0  0  0  0  0  0  0
  -26.6261  -25.6290   15.8912 C   0  0  0  0  0  0  0  0  0  0  0  0
  -25.3781  -25.7758   16.7527 C   0  0  0  0  0  0  0  0  0  1  0  0
  -26.5573  -29.4707   24.5696 C   0  0  1  0  0  0  0  0  0  0  0  0
  -29.0578  -26.8741   25.7423 C   0  0  2  0  0  0  0  0  0  0  0  0
  -26.6677  -30.9491   25.0382 C   0  0  0  0  0  0  0  0  0  0  0  0
  -27.0155  -16.0154   20.9719 N   0  0  0  0  0  0  0  0  0  0  0  0
  -28.1777  -16.6888   20.9270 N   0  0  0  0  0  0  0  0  0  0  0  0
  -24.5749  -28.5151   23.4380 N   0  0  0  0  0  0  0  0  0  0  0  0
  -28.0223  -20.4768   20.4688 N   0  0  0  0  0  0  0  0  0  0  0  0
  -30.4836  -16.4464   20.4425 N   0  0  0  0  0  0  0  0  0  0  0  0
  -28.8251  -12.3097   19.7124 N   0  0  0  0  0  0  0  0  0  0  0  0
  -29.8822  -20.9909   19.1127 N   0  0  0  0  0  0  0  0  0  0  0  0
  -21.1699  -29.5796   23.4897 N   0  0  0  0  0  0  0  0  0  0  0  0
  -27.3787  -28.5386   25.3345 N   0  0  0  0  0  0  0  0  0  0  0  0
  -29.0922  -25.3562   15.9792 N   0  0  0  0  0  0  0  0  0  0  0  0
  -29.4348  -25.5731   25.1208 N   0  3  0  0  0  0  0  0  0  0  0  0
  -30.7344  -13.5797   19.6969 O   0  0  0  0  0  0  0  0  0  0  0  0
  -22.9689  -30.1671   22.1328 O   0  0  0  0  0  0  0  0  0  0  0  0
  -24.5669  -28.9164   25.7348 O   0  0  0  0  0  0  0  0  0  0  0  0
  -27.8676  -25.5119   17.9423 O   0  0  0  0  0  0  0  0  0  0  0  0
  -28.6043  -27.7430   23.5340 O   0  0  0  0  0  0  0  0  0  0  0  0
  -28.8664  -22.6280   20.4050 O   0  0  0  0  0  0  0  0  0  0  0  0
  -23.5109  -10.7423   20.2935 O   0  0  0  0  0  0  0  0  0  0  0  0
  -25.4784  -26.9643   17.5361 O   0  0  0  0  0  0  0  0  0  1  0  0
  -24.7767   -5.8220   22.4367 F   0  0  0  0  0  0  0  0  0  0  0  0
  -22.0037   -9.6570   22.3413 F   0  0  0  0  0  0  0  0  0  0  0  0
  1  2  1  0  0  0  0
  1  5  2  0  0  0  0
  2  6  2  0  0  0  0
  3 10  2  0  0  0  0
  3 18  1  0  0  0  0
  4 11  1  0  0  0  0
  4 18  2  0  0  0  0
  5 20  1  0  0  0  0
  6 22  1  0  0  0  0
  7 12  2  0  0  0  0
  7 21  1  0  0  0  0
  8  9  2  0  0  0  0
  8 24  1  0  0  0  0
  9 25  1  0  0  0  0
 10 27  1  0  0  0  0
 11 27  2  0  0  0  0
 12 28  1  0  0  0  0
 13 14  2  0  0  0  0
 13 29  1  0  0  0  0
 14 30  1  0  0  0  0
 15 23  1  0  0  0  0
 15 28  2  0  0  0  0
 16 24  2  0  0  0  0
 16 26  1  0  0  0  0
 17 30  2  0  0  0  0
 17 31  1  0  0  0  0
 18 32  1  0  0  0  0
 19 32  1  0  0  0  0
 19 33  2  0  0  0  0
 19 34  1  0  0  0  0
 20 22  2  0  0  0  0
 20 40  1  0  0  0  0
 21 23  2  0  0  0  0
 21 41  1  0  0  0  0
 22 49  1  0  0  0  0
 23 42  1  0  0  0  0
 24 59  1  0  0  0  0
 25 26  2  0  0  0  0
 25 52  1  0  0  0  0
 26 71  1  0  0  0  0
 27 82  1  0  0  0  0
 28 83  1  0  0  0  0
 29 31  2  0  0  0  0
 29 82  1  0  0  0  0
 30 84  1  0  0  0  0
 31 85  1  0  0  0  0
 32 65  2  0  0  0  0
 33 66  1  0  0  0  0
 33 69  1  0  0  0  0
 34 70  1  0  0  0  0
 34 76  2  0  0  0  0
 35 50  1  0  0  0  0
 35 72  1  0  0  0  0
 35 77  2  0  0  0  0
 36 62  1  0  0  0  0
 36 67  1  0  0  0  0
 36 78  2  0  0  0  0
 37 60  1  0  0  0  0
 37 74  1  0  0  0  0
 37 79  2  0  0  0  0
 38 63  1  0  0  0  0
 38 73  1  0  0  0  0
 38 80  2  0  0  0  0
 39 68  1  0  0  0  0
 39 71  1  0  0  0  0
 39 81  2  0  0  0  0
 40 43  1  0  0  0  0
 41 50  1  0  0  0  0
 42 67  1  0  0  0  0
 43 45  1  0  0  0  0
 44 46  1  0  0  0  0
 44 47  1  0  0  0  0
 45 49  1  0  0  0  0
 46 51  1  0  0  0  0
 47 68  1  0  0  0  0
 48 51  1  0  0  0  0
 48 68  1  0  0  0  0
 49 72  1  0  0  0  0
 50 67  1  0  0  0  0
 51 66  1  0  0  0  0
 53 63  1  0  0  0  0
 54 64  1  0  0  0  0
 55 64  1  0  0  0  0
 56 64  1  0  0  0  0
 57 74  1  0  0  0  0
 58 75  1  0  0  0  0
 59 74  1  0  0  0  0
 60 61  1  0  0  0  0
 61 83  1  0  0  0  0
 62 64  1  0  0  0  0
 62 73  1  0  0  0  0
 63 75  1  0  0  0  0
 65 66  1  0  0  0  0
M  CHG  1  75   1
M  ISO  4  39 100  61 101  71 100  83 101
M  END
> <Batch ID>
0052

> <Smiles>
CNC(C)C(=O)NC(C(=O)N1Cc2cc([101O:1][101CH2:1]CC(=O)N(C)Cc3ccc(C)c([100NH:0][100C:0](=O)N4CCCC(n5nc(-c6ccc(Oc7ccc(F)cc7F)cc6)c(C(N)=O)c5N)C4)c3)ccc2CC1C(=O)NC1CCCc2ccccc21)C(C)(C)C

> <Shape>
0.278

> <Color>
0.066

> <Negative vol penalty>
0.000

$$$$

  -OEChem-04042322403D

 86 94  0     1  0  0  0  0  0999 V2000
  -25.3290  -31.0443   17.5740 C   0  0  0  0  0  0  0  0  0  0  0  0
  -25.6913  -29.7132   17.3947 C   0  0  0  0  0  0  0  0  0  0  0  0
  -30.5356  -23.6115   20.1165 C   0  0  0  0  0  0  0  0  0  0  0  0
  -28.2687  -23.2238   20.8566 C   0  0  0  0  0  0  0  0  0  0  0  0
  -24.7473  -31.4517   18.7739 C   0  0  0  0  0  0  0  0  0  0  0  0
  -25.4731  -28.7888   18.4157 C   0  0  0  0  0  0  0  0  0  0  0  0
  -23.8546  -21.8869   19.4459 C   0  0  0  0  0  0  0  0  0  0  0  0
  -25.8320  -11.9478   19.9019 C   0  0  0  0  0  0  0  0  0  0  0  0
  -30.2743  -24.9791   20.0325 C   0  0  0  0  0  0  0  0  0  0  0  0
  -28.0074  -24.5914   20.7727 C   0  0  0  0  0  0  0  0  0  0  0  0
  -24.3097  -20.7657   20.1383 C   0  0  0  0  0  0  0  0  0  0  0  0
  -28.7372  -27.0939   17.8903 C   0  0  0  0  0  0  0  0  0  0  0  0
  -24.4765  -11.6358   20.0060 C   0  0  0  0  0  0  0  0  0  0  0  0
  -29.1809  -27.7692   16.7533 C   0  0  0  0  0  0  0  0  0  0  0  0
  -23.2251  -21.5678   22.1381 C   0  0  0  0  0  0  0  0  0  0  0  0
  -30.5417  -29.2071   18.1381 C   0  0  0  0  0  0  0  0  0  0  0  0
  -29.5328  -22.7338   20.5284 C   0  0  0  0  0  0  0  0  0  0  0  0
  -30.2871  -20.6147   21.7317 C   0  0  0  0  0  0  0  0  0  0  0  0
  -24.5130  -30.5300   19.8064 C   0  0  0  0  0  0  0  0  0  0  0  0
  -23.0892  -22.8642   20.0983 C   0  0  0  0  0  0  0  0  0  0  0  0
  -24.8890  -29.1845   19.6310 C   0  0  0  0  0  0  0  0  0  0  0  0
  -22.7594  -22.6993   21.4511 C   0  0  0  0  0  0  0  0  0  0  0  0
  -26.3552  -13.0294   20.6104 C   0  0  0  0  0  0  0  0  0  0  0  0
  -25.5228  -13.7991   21.4230 C   0  0  0  0  0  0  0  0  0  0  0  0
  -24.1673  -13.4872   21.5271 C   0  0  0  0  0  0  0  0  0  0  0  0
  -29.0102  -25.4690   20.3607 C   0  0  0  0  0  0  0  0  0  0  0  0
  -23.9974  -20.6074   21.4853 C   0  0  0  0  0  0  0  0  0  0  0  0
  -29.1958  -27.4753   19.1513 C   0  0  0  0  0  0  0  0  0  0  0  0
  -30.0831  -28.8257   16.8771 C   0  0  0  0  0  0  0  0  0  0  0  0
  -23.6441  -12.4055   20.8186 C   0  0  0  0  0  0  0  0  0  0  0  0
  -30.0980  -28.5319   19.2752 C   0  0  0  0  0  0  0  0  0  0  0  0
  -29.8019  -21.3209   20.6148 C   0  0  0  0  0  0  0  0  0  0  0  0
  -30.3697  -19.3119   21.3048 C   0  0  0  0  0  0  0  0  0  0  0  0
  -30.6323  -21.0935   23.0384 C   0  0  0  0  0  0  0  0  0  0  0  0
  -23.4664  -25.9564   20.7303 C   0  0  0  0  0  0  0  0  0  0  0  0
  -20.4235  -25.7046   21.8256 C   0  0  0  0  0  0  0  0  0  0  0  0
  -25.6085  -17.4004   22.3140 C   0  0  0  0  0  0  0  0  0  0  0  0
  -17.9472  -23.7120   23.0684 C   0  0  0  0  0  0  0  0  0  0  0  0
  -28.2092  -14.9263   18.6134 C   0  0  0  0  0  0  0  0  0  0  0  0
  -23.9250  -31.0267   21.1034 C   0  0  0  0  0  0  0  0  0  0  0  0
  -22.5834  -24.0546   19.3305 C   0  0  0  0  0  0  0  0  0  0  0  0
  -21.9236  -23.7095   22.1924 C   0  0  0  0  0  0  0  0  0  0  0  0
  -23.3844  -29.9109   21.9939 C   0  0  0  0  0  0  0  0  0  0  0  0
  -29.9647  -17.3353   16.6663 C   0  0  0  0  0  0  0  0  0  0  0  0
  -24.3889  -28.7665   22.0847 C   0  0  0  0  0  0  0  0  0  0  0  0
  -30.1131  -18.5303   17.6097 C   0  0  0  0  0  0  0  0  0  0  0  0
  -28.6264  -16.6260   16.8603 C   0  0  0  0  0  0  0  0  0  0  0  0
  -28.4852  -17.4135   19.1913 C   0  0  0  0  0  0  0  0  0  0  0  0
  -24.6457  -28.1472   20.7056 C   0  0  1  0  0  0  0  0  0  0  0  0
  -22.2444  -25.2427   20.2254 C   0  0  1  0  0  0  0  0  0  0  0  0
  -29.8426  -18.1273   19.0718 C   0  0  2  0  0  0  0  0  0  0  0  0
  -22.3881  -15.2531   21.5802 C   0  0  0  0  0  0  0  0  0  0  0  0
  -15.5833  -23.7983   23.9061 C   0  0  0  0  0  0  0  0  0  0  0  0
  -21.3999  -26.9198   24.4485 C   0  0  0  0  0  0  0  0  0  0  0  0
  -19.2892  -26.1137   25.5270 C   0  0  0  0  0  0  0  0  0  0  0  0
  -19.1825  -27.7713   23.6659 C   0  0  0  0  0  0  0  0  0  0  0  0
  -17.0051  -21.8783   20.9450 C   0  0  0  0  0  0  0  0  0  0  0  0
  -23.2570  -14.2970   22.3916 C   0  0  0  0  0  0  0  0  0  0  0  0
  -27.8100  -13.3415   20.4811 C   0  0  0  0  0  0  0  0  0  0  0  0
  -26.0864  -14.9630   22.1858 C   0  0  0  0  0  0  0  0  0  0  0  0
  -25.2214  -18.5690   21.4331 C   0  0  0  0  0  0  0  0  0  1  0  0
  -19.7898  -25.3709   23.1545 C   0  0  1  0  0  0  0  0  0  0  0  0
  -16.4811  -23.5781   22.6985 C   0  0  2  0  0  0  0  0  0  0  0  0
  -19.9327  -26.5257   24.1858 C   0  0  0  0  0  0  0  0  0  0  0  0
  -29.5911  -20.5322   19.5577 N   0  0  0  0  0  0  0  0  0  0  0  0
  -29.9457  -19.3168   20.0085 N   0  0  0  0  0  0  0  0  0  0  0  0
  -21.4580  -24.8595   21.3998 N   0  0  0  0  0  0  0  0  0  0  0  0
  -28.4320  -16.2694   18.2677 N   0  0  0  0  0  0  0  0  0  0  0  0
  -30.7630  -18.1740   21.9156 N   0  0  0  0  0  0  0  0  0  0  0  0
  -30.4874  -22.4611   23.3086 N   0  0  0  0  0  0  0  0  0  0  0  0
  -23.5521  -27.2765   20.3310 N   0  0  0  0  0  0  0  0  0  0  0  0
  -25.7282  -16.2273   21.5855 N   0  0  0  0  0  0  0  0  0  0  0  0
  -18.4100  -24.9950   22.8659 N   0  0  0  0  0  0  0  0  0  0  0  0
  -28.0412  -14.6740   19.9694 N   0  0  0  0  0  0  0  0  0  0  0  0
  -16.2070  -22.2195   22.1507 N   0  3  0  0  0  0  0  0  0  0  0  0
  -31.0722  -20.3339   23.9344 O   0  0  0  0  0  0  0  0  0  0  0  0
  -24.2711  -25.3545   21.4315 O   0  0  0  0  0  0  0  0  0  0  0  0
  -20.0108  -26.6749   21.1855 O   0  0  0  0  0  0  0  0  0  0  0  0
  -25.7861  -17.5107   23.5241 O   0  0  0  0  0  0  0  0  0  0  0  0
  -18.6143  -22.7733   23.4979 O   0  0  0  0  0  0  0  0  0  0  0  0
  -28.1687  -14.0184   17.7761 O   0  0  0  0  0  0  0  0  0  0  0  0
  -28.7550  -26.8035   20.2791 O   0  0  0  0  0  0  0  0  0  0  0  0
  -24.4409  -19.5142   22.1637 O   0  0  0  0  0  0  0  0  0  1  0  0
  -30.5102  -29.4730   15.7850 F   0  0  0  0  0  0  0  0  0  0  0  0
  -22.3429  -12.0968   20.9120 F   0  0  0  0  0  0  0  0  0  0  0  0
  -30.5430  -28.9020   20.4838 F   0  0  0  0  0  0  0  0  0  0  0  0
  1  2  1  0  0  0  0
  1  5  2  0  0  0  0
  2  6  2  0  0  0  0
  3  9  2  0  0  0  0
  3 17  1  0  0  0  0
  4 10  1  0  0  0  0
  4 17  2  0  0  0  0
  5 19  1  0  0  0  0
  6 21  1  0  0  0  0
  7 11  2  0  0  0  0
  7 20  1  0  0  0  0
  8 13  1  0  0  0  0
  8 23  2  0  0  0  0
  9 26  1  0  0  0  0
 10 26  2  0  0  0  0
 11 27  1  0  0  0  0
 12 14  2  0  0  0  0
 12 28  1  0  0  0  0
 13 30  2  0  0  0  0
 14 29  1  0  0  0  0
 15 22  1  0  0  0  0
 15 27  2  0  0  0  0
 16 29  2  0  0  0  0
 16 31  1  0  0  0  0
 17 32  1  0  0  0  0
 18 32  1  0  0  0  0
 18 33  2  0  0  0  0
 18 34  1  0  0  0  0
 19 21  2  0  0  0  0
 19 40  1  0  0  0  0
 20 22  2  0  0  0  0
 20 41  1  0  0  0  0
 21 49  1  0  0  0  0
 22 42  1  0  0  0  0
 23 24  1  0  0  0  0
 23 59  1  0  0  0  0
 24 25  2  0  0  0  0
 24 60  1  0  0  0  0
 25 30  1  0  0  0  0
 25 58  1  0  0  0  0
 26 82  1  0  0  0  0
 27 83  1  0  0  0  0
 28 31  2  0  0  0  0
 28 82  1  0  0  0  0
 29 84  1  0  0  0  0
 30 85  1  0  0  0  0
 31 86  1  0  0  0  0
 32 65  2  0  0  0  0
 33 66  1  0  0  0  0
 33 69  1  0  0  0  0
 34 70  1  0  0  0  0
 34 76  2  0  0  0  0
 35 50  1  0  0  0  0
 35 71  1  0  0  0  0
 35 77  2  0  0  0  0
 36 62  1  0  0  0  0
 36 67  1  0  0  0  0
 36 78  2  0  0  0  0
 37 61  1  0  0  0  0
 37 72  1  0  0  0  0
 37 79  2  0  0  0  0
 38 63  1  0  0  0  0
 38 73  1  0  0  0  0
 38 80  2  0  0  0  0
 39 68  1  0  0  0  0
 39 74  1  0  0  0  0
 39 81  2  0  0  0  0
 40 43  1  0  0  0  0
 41 50  1  0  0  0  0
 42 67  1  0  0  0  0
 43 45  1  0  0  0  0
 44 46  1  0  0  0  0
 44 47  1  0  0  0  0
 45 49  1  0  0  0  0
 46 51  1  0  0  0  0
 47 68  1  0  0  0  0
 48 51  1  0  0  0  0
 48 68  1  0  0  0  0
 49 71  1  0  0  0  0
 50 67  1  0  0  0  0
 51 66  1  0  0  0  0
 52 58  1  0  0  0  0
 53 63  1  0  0  0  0
 54 64  1  0  0  0  0
 55 64  1  0  0  0  0
 56 64  1  0  0  0  0
 57 75  1  0  0  0  0
 59 74  1  0  0  0  0
 60 72  1  0  0  0  0
 61 83  1  0  0  0  0
 62 64  1  0  0  0  0
 62 73  1  0  0  0  0
 63 75  1  0  0  0  0
 65 66  1  0  0  0  0
M  CHG  1  75   1
M  ISO  4  39 100  61 101  74 100  83 101
M  END
> <Batch ID>
0052

> <Smiles>
CCc1c(F)ccc(C[100NH:0][100C:0](=O)N2CCCC(n3nc(-c4ccc(Oc5ccc(F)cc5F)cc4)c(C(N)=O)c3N)C2)c1CNC(=O)[101CH2:1][101O:1]c1ccc2c(c1)CN(C(=O)C(NC(=O)C(C)NC)C(C)(C)C)C(C(=O)NC1CCCc3ccccc31)C2

> <Shape>
0.205

> <Color>
0.061

> <Negative vol penalty>
0.000

$$$$

  -OEChem-04042322403D

 85 93  0     1  0  0  0  0  0999 V2000
  -19.2062  -16.7756   21.1551 C   0  0  0  0  0  0  0  0  0  0  0  0
  -20.5891  -16.8906   21.0557 C   0  0  0  0  0  0  0  0  0  0  0  0
  -22.8101  -30.8913   20.7994 C   0  0  0  0  0  0  0  0  0  0  0  0
  -22.6628  -29.0259   22.3277 C   0  0  0  0  0  0  0  0  0  0  0  0
  -18.6455  -15.7184   21.8706 C   0  0  0  0  0  0  0  0  0  0  0  0
  -21.4121  -15.9492   21.6727 C   0  0  0  0  0  0  0  0  0  0  0  0
  -25.1970  -14.4173   18.6773 C   0  0  0  0  0  0  0  0  0  0  0  0
  -21.4259  -30.8620   20.6302 C   0  0  0  0  0  0  0  0  0  0  0  0
  -21.2785  -28.9966   22.1585 C   0  0  0  0  0  0  0  0  0  0  0  0
  -26.2892  -15.2734   18.5430 C   0  0  0  0  0  0  0  0  0  0  0  0
  -18.5958  -30.7124   23.2896 C   0  0  0  0  0  0  0  0  0  0  0  0
  -17.8074  -30.5801   24.4326 C   0  0  0  0  0  0  0  0  0  0  0  0
  -27.5150  -13.9510   20.1454 C   0  0  0  0  0  0  0  0  0  0  0  0
  -29.5492  -22.7915   20.4575 C   0  0  0  0  0  0  0  0  0  0  0  0
  -28.3386  -23.2039   22.5072 C   0  0  0  0  0  0  0  0  0  0  0  0
  -16.8782  -28.5301   23.5543 C   0  0  0  0  0  0  0  0  0  0  0  0
  -23.4286  -29.9732   21.6481 C   0  0  0  0  0  0  0  0  0  0  0  0
  -25.5826  -30.7327   22.7842 C   0  0  0  0  0  0  0  0  0  0  0  0
  -19.4619  -14.7581   22.4886 C   0  0  0  0  0  0  0  0  0  0  0  0
  -25.2518  -13.3261   19.5562 C   0  0  0  0  0  0  0  0  0  0  0  0
  -20.8618  -14.8790   22.3983 C   0  0  0  0  0  0  0  0  0  0  0  0
  -26.4231  -13.0811   20.2871 C   0  0  0  0  0  0  0  0  0  0  0  0
  -29.5164  -21.4208   20.7139 C   0  0  0  0  0  0  0  0  0  0  0  0
  -28.9603  -23.6830   21.3542 C   0  0  0  0  0  0  0  0  0  0  0  0
  -20.6601  -29.9147   21.3097 C   0  0  0  0  0  0  0  0  0  0  0  0
  -27.4474  -15.0420   19.2793 C   0  0  0  0  0  0  0  0  0  0  0  0
  -18.5253  -29.7536   22.2789 C   0  0  0  0  0  0  0  0  0  0  0  0
  -16.9486  -29.4889   24.5650 C   0  0  0  0  0  0  0  0  0  0  0  0
  -28.3058  -21.8331   22.7636 C   0  0  0  0  0  0  0  0  0  0  0  0
  -17.6666  -28.6625   22.4113 C   0  0  0  0  0  0  0  0  0  0  0  0
  -28.8947  -20.9416   21.8669 C   0  0  0  0  0  0  0  0  0  0  0  0
  -24.8585  -30.0025   21.8228 C   0  0  0  0  0  0  0  0  0  0  0  0
  -26.8968  -30.4221   22.5331 C   0  0  0  0  0  0  0  0  0  0  0  0
  -25.1096  -31.6130   23.8124 C   0  0  0  0  0  0  0  0  0  0  0  0
  -23.6381  -12.4533   22.1520 C   0  0  0  0  0  0  0  0  0  0  0  0
  -25.4076   -9.7495   21.8674 C   0  0  0  0  0  0  0  0  0  0  0  0
  -29.3079  -18.1298   19.4231 C   0  0  0  0  0  0  0  0  0  0  0  0
  -28.2399   -8.2507   20.6933 C   0  0  0  0  0  0  0  0  0  0  0  0
  -29.5664  -25.7165   19.9963 C   0  0  0  0  0  0  0  0  0  0  0  0
  -18.8106  -13.6596   23.2910 C   0  0  0  0  0  0  0  0  0  0  0  0
  -24.0748  -12.3965   19.6696 C   0  0  0  0  0  0  0  0  0  0  0  0
  -26.5401  -11.9117   21.2291 C   0  0  0  0  0  0  0  0  0  0  0  0
  -19.7469  -12.4943   23.6004 C   0  0  0  0  0  0  0  0  0  0  0  0
  -29.8219  -29.1172   18.9730 C   0  0  0  0  0  0  0  0  0  0  0  0
  -21.0930  -13.0092   24.1001 C   0  0  0  0  0  0  0  0  0  0  0  0
  -28.6476  -29.7978   19.6800 C   0  0  0  0  0  0  0  0  0  0  0  0
  -29.4646  -27.7058   18.5105 C   0  0  0  0  0  0  0  0  0  0  0  0
  -27.7428  -27.5109   20.2617 C   0  0  0  0  0  0  0  0  0  0  0  0
  -21.7874  -13.8638   23.0329 C   0  0  1  0  0  0  0  0  0  0  0  0
  -24.0561  -11.6130   20.9785 C   0  0  1  0  0  0  0  0  0  0  0  0
  -28.0754  -28.9108   20.8031 C   0  0  2  0  0  0  0  0  0  0  0  0
  -29.4254   -6.0394   20.6501 C   0  0  0  0  0  0  0  0  0  0  0  0
  -26.2670  -10.1563   24.7667 C   0  0  0  0  0  0  0  0  0  0  0  0
  -28.1269   -8.5277   24.3708 C   0  0  0  0  0  0  0  0  0  0  0  0
  -25.7550   -7.7866   24.1531 C   0  0  0  0  0  0  0  0  0  0  0  0
  -28.0933  -20.0864   18.4490 C   0  0  0  0  0  0  0  0  0  0  0  0
  -28.1260   -8.1162   17.7390 C   0  0  0  0  0  0  0  0  0  0  0  0
  -30.1523  -20.4636   19.7476 C   0  0  0  0  0  0  0  0  0  0  0  0
  -28.2387  -17.2386   18.8268 C   0  0  0  0  0  0  0  0  0  1  0  0
  -26.7507   -9.2916   22.3825 C   0  0  1  0  0  0  0  0  0  0  0  0
  -28.4517   -6.9572   19.9275 C   0  0  2  0  0  0  0  0  0  0  0  0
  -26.7223   -8.9638   23.9021 C   0  0  0  0  0  0  0  0  0  0  0  0
  -25.6472  -29.2824   21.0207 N   0  0  0  0  0  0  0  0  0  0  0  0
  -26.8805  -29.5587   21.4775 N   0  0  0  0  0  0  0  0  0  0  0  0
  -25.3601  -11.0351   21.3100 N   0  0  0  0  0  0  0  0  0  0  0  0
  -28.9332  -26.9225   19.6280 N   0  0  0  0  0  0  0  0  0  0  0  0
  -28.0530  -30.8062   23.1145 N   0  0  0  0  0  0  0  0  0  0  0  0
  -23.7286  -31.8204   23.9312 N   0  0  0  0  0  0  0  0  0  0  0  0
  -28.9920  -25.0754   21.0934 N   0  0  0  0  0  0  0  0  0  0  0  0
  -22.3849  -13.0203   22.0200 N   0  0  0  0  0  0  0  0  0  0  0  0
  -27.1522   -8.1724   21.5371 N   0  0  0  0  0  0  0  0  0  0  0  0
  -29.1886  -19.5041   19.2146 N   0  0  0  0  0  0  0  0  0  0  0  0
  -28.9945   -7.2424   18.5692 N   0  3  0  0  0  0  0  0  0  0  0  0
  -25.8896  -32.2111   24.5918 O   0  0  0  0  0  0  0  0  0  0  0  0
  -24.3959  -12.5767   23.1071 O   0  0  0  0  0  0  0  0  0  0  0  0
  -24.4379   -8.9915   21.9499 O   0  0  0  0  0  0  0  0  0  0  0  0
  -30.2238  -17.6082   20.0666 O   0  0  0  0  0  0  0  0  0  0  0  0
  -28.9688   -9.2311   20.5593 O   0  0  0  0  0  0  0  0  0  0  0  0
  -30.5624  -25.2983   19.4005 O   0  0  0  0  0  0  0  0  0  0  0  0
  -19.3093  -29.8860   21.1451 O   0  0  0  0  0  0  0  0  0  0  0  0
  -28.5146  -15.8765   19.1507 O   0  0  0  0  0  0  0  0  0  1  0  0
  -16.1927  -29.3612   25.6634 F   0  0  0  0  0  0  0  0  0  0  0  0
  -27.7087  -21.3730   23.8707 F   0  0  0  0  0  0  0  0  0  0  0  0
  -17.5955  -27.7375   21.4442 F   0  0  0  0  0  0  0  0  0  0  0  0
  -28.8589  -19.6264   22.1222 F   0  0  0  0  0  0  0  0  0  0  0  0
  1  2  1  0  0  0  0
  1  5  2  0  0  0  0
  2  6  2  0  0  0  0
  3  8  2  0  0  0  0
  3 17  1  0  0  0  0
  4  9  1  0  0  0  0
  4 17  2  0  0  0  0
  5 19  1  0  0  0  0
  6 21  1  0  0  0  0
  7 10  2  0  0  0  0
  7 20  1  0  0  0  0
  8 25  1  0  0  0  0
  9 25  2  0  0  0  0
 10 26  1  0  0  0  0
 11 12  2  0  0  0  0
 11 27  1  0  0  0  0
 12 28  1  0  0  0  0
 13 22  1  0  0  0  0
 13 26  2  0  0  0  0
 14 23  1  0  0  0  0
 14 24  2  0  0  0  0
 15 24  1  0  0  0  0
 15 29  2  0  0  0  0
 16 28  2  0  0  0  0
 16 30  1  0  0  0  0
 17 32  1  0  0  0  0
 18 32  1  0  0  0  0
 18 33  2  0  0  0  0
 18 34  1  0  0  0  0
 19 21  2  0  0  0  0
 19 40  1  0  0  0  0
 20 22  2  0  0  0  0
 20 41  1  0  0  0  0
 21 49  1  0  0  0  0
 22 42  1  0  0  0  0
 23 31  2  0  0  0  0
 23 58  1  0  0  0  0
 24 69  1  0  0  0  0
 25 80  1  0  0  0  0
 26 81  1  0  0  0  0
 27 30  2  0  0  0  0
 27 80  1  0  0  0  0
 28 82  1  0  0  0  0
 29 31  1  0  0  0  0
 29 83  1  0  0  0  0
 30 84  1  0  0  0  0
 31 85  1  0  0  0  0
 32 63  2  0  0  0  0
 33 64  1  0  0  0  0
 33 67  1  0  0  0  0
 34 68  1  0  0  0  0
 34 74  2  0  0  0  0
 35 50  1  0  0  0  0
 35 70  1  0  0  0  0
 35 75  2  0  0  0  0
 36 60  1  0  0  0  0
 36 65  1  0  0  0  0
 36 76  2  0  0  0  0
 37 59  1  0  0  0  0
 37 72  1  0  0  0  0
 37 77  2  0  0  0  0
 38 61  1  0  0  0  0
 38 71  1  0  0  0  0
 38 78  2  0  0  0  0
 39 66  1  0  0  0  0
 39 69  1  0  0  0  0
 39 79  2  0  0  0  0
 40 43  1  0  0  0  0
 41 50  1  0  0  0  0
 42 65  1  0  0  0  0
 43 45  1  0  0  0  0
 44 46  1  0  0  0  0
 44 47  1  0  0  0  0
 45 49  1  0  0  0  0
 46 51  1  0  0  0  0
 47 66  1  0  0  0  0
 48 51  1  0  0  0  0
 48 66  1  0  0  0  0
 49 70  1  0  0  0  0
 50 65  1  0  0  0  0
 51 64  1  0  0  0  0
 52 61  1  0  0  0  0
 53 62  1  0  0  0  0
 54 62  1  0  0  0  0
 55 62  1  0  0  0  0
 56 72  1  0  0  0  0
 57 73  1  0  0  0  0
 58 72  1  0  0  0  0
 59 81  1  0  0  0  0
 60 62  1  0  0  0  0
 60 71  1  0  0  0  0
 61 73  1  0  0  0  0
 63 64  1  0  0  0  0
M  CHG  1  73   1
M  ISO  4  39 100  59 101  69 100  81 101
M  END
> <Batch ID>
0052

> <Smiles>
CNC(C)C(=O)NC(C(=O)N1Cc2cc([101O:1][101CH2:1]C(=O)N(C)Cc3cc([100NH:0][100C:0](=O)N4CCCC(n5nc(-c6ccc(Oc7ccc(F)cc7F)cc6)c(C(N)=O)c5N)C4)cc(F)c3F)ccc2CC1C(=O)NC1CCCc2ccccc21)C(C)(C)C

> <Shape>
0.281

> <Color>
0.092

> <Negative vol penalty>
0.000

$$$$

  -OEChem-04042322403D

 87 96  0     1  0  0  0  0  0999 V2000
  -18.6252  -34.0728   22.9056 C   0  0  0  0  0  0  0  0  0  0  0  0
  -19.8005  -33.9422   22.1727 C   0  0  0  0  0  0  0  0  0  0  0  0
  -27.6643  -12.7544   18.4514 C   0  0  0  0  0  0  0  0  0  0  0  0
  -25.8294  -13.8378   19.5900 C   0  0  0  0  0  0  0  0  0  0  0  0
  -18.3319  -33.1610   23.9188 C   0  0  0  0  0  0  0  0  0  0  0  0
  -20.6837  -32.9003   22.4534 C   0  0  0  0  0  0  0  0  0  0  0  0
  -25.3541  -28.5219   19.2389 C   0  0  0  0  0  0  0  0  0  0  0  0
  -34.4001  -22.7849   17.3900 C   0  0  0  0  0  0  0  0  0  0  0  0
  -34.5042  -21.4087   17.1878 C   0  0  0  0  0  0  0  0  0  0  0  0
  -26.9272  -11.5720   18.3886 C   0  0  0  0  0  0  0  0  0  0  0  0
  -25.0922  -12.6553   19.5271 C   0  0  0  0  0  0  0  0  0  0  0  0
  -26.6767  -28.0934   19.3439 C   0  0  0  0  0  0  0  0  0  0  0  0
  -24.9654   -9.7078   21.1785 C   0  0  0  0  0  0  0  0  0  0  0  0
  -24.2923   -9.3017   22.3307 C   0  0  0  0  0  0  0  0  0  0  0  0
  -26.0277  -26.5314   21.0639 C   0  0  0  0  0  0  0  0  0  0  0  0
  -32.0368  -22.6782   16.8999 C   0  0  0  0  0  0  0  0  0  0  0  0
  -22.1916   -9.4127   21.1425 C   0  0  0  0  0  0  0  0  0  0  0  0
  -27.1155  -13.8874   19.0522 C   0  0  0  0  0  0  0  0  0  0  0  0
  -29.1203  -15.3029   19.7485 C   0  0  0  0  0  0  0  0  0  0  0  0
  -19.2074  -32.1018   24.2055 C   0  0  0  0  0  0  0  0  0  0  0  0
  -24.3587  -27.9651   20.0547 C   0  0  0  0  0  0  0  0  0  0  0  0
  -20.4025  -31.9743   23.4722 C   0  0  0  0  0  0  0  0  0  0  0  0
  -24.6929  -26.9528   20.9655 C   0  0  0  0  0  0  0  0  0  0  0  0
  -33.1664  -23.4196   17.2461 C   0  0  0  0  0  0  0  0  0  0  0  0
  -33.3746  -20.6673   16.8416 C   0  0  0  0  0  0  0  0  0  0  0  0
  -32.1408  -21.3020   16.6976 C   0  0  0  0  0  0  0  0  0  0  0  0
  -25.6412  -11.5224   18.9264 C   0  0  0  0  0  0  0  0  0  0  0  0
  -27.0142  -27.1000   20.2585 C   0  0  0  0  0  0  0  0  0  0  0  0
  -24.2517   -9.9664   20.0083 C   0  0  0  0  0  0  0  0  0  0  0  0
  -22.9054   -9.1541   22.3127 C   0  0  0  0  0  0  0  0  0  0  0  0
  -22.8648   -9.8188   19.9903 C   0  0  0  0  0  0  0  0  0  0  0  0
  -27.8766  -15.1090   19.1179 C   0  0  0  0  0  0  0  0  0  0  0  0
  -29.4150  -16.6259   19.5270 C   0  0  0  0  0  0  0  0  0  0  0  0
  -32.0401  -24.6466   19.6504 C   0  0  0  0  0  0  0  0  0  0  0  0
  -32.3583  -23.6009   20.4283 C   0  0  0  0  0  0  0  0  0  0  0  0
  -29.9362  -14.3703   20.4698 C   0  0  0  0  0  0  0  0  0  0  0  0
  -22.3876  -29.0961   22.2772 C   0  0  0  0  0  0  0  0  0  0  0  0
  -21.1638  -26.0942   22.1642 C   0  0  0  0  0  0  0  0  0  0  0  0
  -21.6417  -22.7964   21.4270 C   0  0  0  0  0  0  0  0  0  0  0  0
  -29.6897  -21.0592   16.1693 C   0  0  0  0  0  0  0  0  0  0  0  0
  -18.8704  -31.1688   25.3416 C   0  0  0  0  0  0  0  0  0  0  0  0
  -22.9321  -28.4195   19.9104 C   0  0  0  0  0  0  0  0  0  0  0  0
  -23.6579  -26.3086   21.8500 C   0  0  0  0  0  0  0  0  0  0  0  0
  -30.6427  -25.1939   19.5407 C   0  0  0  0  0  0  0  0  0  0  0  0
  -19.6782  -29.8736   25.3261 C   0  0  0  0  0  0  0  0  0  0  0  0
  -26.5492  -20.3784   17.7027 C   0  0  0  0  0  0  0  0  0  0  0  0
  -21.1560  -30.1689   25.0904 C   0  0  0  0  0  0  0  0  0  0  0  0
  -26.7169  -18.9628   18.2594 C   0  0  0  0  0  0  0  0  0  0  0  0
  -31.7161  -27.3931   18.9333 C   0  0  0  0  0  0  0  0  0  0  0  0
  -27.2653  -20.5499   16.3642 C   0  0  0  0  0  0  0  0  0  0  0  0
  -28.8495  -18.7472   16.9206 C   0  0  0  0  0  0  0  0  0  0  0  0
  -33.0937  -26.7770   19.1658 C   0  0  0  0  0  0  0  0  0  0  0  0
  -21.3738  -30.8429   23.7304 C   0  0  1  0  0  0  0  0  0  0  0  0
  -22.0893  -28.1457   21.1523 C   0  0  1  0  0  0  0  0  0  0  0  0
  -30.6398  -26.7075   19.7863 C   0  0  1  0  0  0  0  0  0  0  0  0
  -28.1999  -18.5449   18.2993 C   0  0  2  0  0  0  0  0  0  0  0  0
  -33.5159  -19.1947   16.6302 C   0  0  0  0  0  0  0  0  0  0  0  0
  -20.4708  -20.5774   21.4750 C   0  0  0  0  0  0  0  0  0  0  0  0
  -21.5575  -25.9545   25.1867 C   0  0  0  0  0  0  0  0  0  0  0  0
  -21.2861  -23.4701   25.0372 C   0  0  0  0  0  0  0  0  0  0  0  0
  -19.4090  -24.9705   24.3679 C   0  0  0  0  0  0  0  0  0  0  0  0
  -21.8881  -22.4723   18.4956 C   0  0  0  0  0  0  0  0  0  0  0  0
  -33.0553  -24.8999   17.4640 C   0  0  0  0  0  0  0  0  0  0  0  0
  -29.2611  -27.3011   19.5057 C   0  0  0  0  0  0  0  0  0  1  0  0
  -21.4469  -24.7965   22.8817 C   0  0  1  0  0  0  0  0  0  0  0  0
  -20.7988  -21.8072   20.6426 C   0  0  2  0  0  0  0  0  0  0  0  0
  -20.9450  -24.8112   24.3532 C   0  0  0  0  0  0  0  0  0  0  0  0
  -27.4131  -16.2201   18.5395 N   0  0  0  0  0  0  0  0  0  0  0  0
  -28.3705  -17.1248   18.8057 N   0  0  0  0  0  0  0  0  0  0  0  0
  -22.2780  -26.7914   21.6761 N   0  0  0  0  0  0  0  0  0  0  0  0
  -28.6662  -20.1387   16.4792 N   0  0  0  0  0  0  0  0  0  0  0  0
  -30.4631  -17.3997   19.8810 N   0  0  0  0  0  0  0  0  0  0  0  0
  -29.7391  -14.2392   21.8512 N   0  0  0  0  0  0  0  0  0  0  0  0
  -30.9819  -20.5660   16.3471 N   0  0  0  0  0  0  0  0  0  0  0  0
  -21.3073  -29.8653   22.6654 N   0  0  0  0  0  0  0  0  0  0  0  0
  -20.8628  -23.7407   22.0617 N   0  0  0  0  0  0  0  0  0  0  0  0
  -33.1033  -25.2869   18.9163 N   0  3  2  0  0  0  0  0  0  0  0  0
  -21.5237  -21.3659   19.4176 N   0  3  0  0  0  0  0  0  0  0  0  0
  -30.8251  -13.6858   19.9088 O   0  0  0  0  0  0  0  0  0  0  0  0
  -23.5142  -29.1281   22.7584 O   0  0  0  0  0  0  0  0  0  0  0  0
  -19.9965  -26.4716   22.0350 O   0  0  0  0  0  0  0  0  0  0  0  0
  -22.8683  -22.7352   21.4752 O   0  0  0  0  0  0  0  0  0  0  0  0
  -29.4383  -22.2095   15.8013 O   0  0  0  0  0  0  0  0  0  0  0  0
  -24.9215  -10.3688   18.8650 O   0  0  0  0  0  0  0  0  0  0  0  0
  -28.3044  -26.6804   20.3635 O   0  0  0  0  0  0  0  0  0  1  0  0
  -22.2592   -8.7627   23.4188 F   0  0  0  0  0  0  0  0  0  0  0  0
  -22.1738  -10.0646   18.8687 F   0  0  0  0  0  0  0  0  0  0  0  0
  1  2  1  0  0  0  0
  1  5  2  0  0  0  0
  2  6  2  0  0  0  0
  3 10  2  0  0  0  0
  3 18  1  0  0  0  0
  4 11  1  0  0  0  0
  4 18  2  0  0  0  0
  5 20  1  0  0  0  0
  6 22  1  0  0  0  0
  7 12  2  0  0  0  0
  7 21  1  0  0  0  0
  8  9  2  0  0  0  0
  8 24  1  0  0  0  0
  9 25  1  0  0  0  0
 10 27  1  0  0  0  0
 11 27  2  0  0  0  0
 12 28  1  0  0  0  0
 13 14  2  0  0  0  0
 13 29  1  0  0  0  0
 14 30  1  0  0  0  0
 15 23  1  0  0  0  0
 15 28  2  0  0  0  0
 16 24  2  0  0  0  0
 16 26  1  0  0  0  0
 17 30  2  0  0  0  0
 17 31  1  0  0  0  0
 18 32  1  0  0  0  0
 19 32  1  0  0  0  0
 19 33  2  0  0  0  0
 19 36  1  0  0  0  0
 20 22  2  0  0  0  0
 20 41  1  0  0  0  0
 21 23  2  0  0  0  0
 21 42  1  0  0  0  0
 22 53  1  0  0  0  0
 23 43  1  0  0  0  0
 24 63  1  0  0  0  0
 25 26  2  0  0  0  0
 25 57  1  0  0  0  0
 26 74  1  0  0  0  0
 27 84  1  0  0  0  0
 28 85  1  0  0  0  0
 29 31  2  0  0  0  0
 29 84  1  0  0  0  0
 30 86  1  0  0  0  0
 31 87  1  0  0  0  0
 32 68  2  0  0  0  0
 33 69  1  0  0  0  0
 33 72  1  0  0  0  0
 34 35  2  0  0  0  0
 34 44  1  0  0  0  0
 34 77  1  0  0  0  0
 36 73  1  0  0  0  0
 36 79  2  0  0  0  0
 37 54  1  0  0  0  0
 37 75  1  0  0  0  0
 37 80  2  0  0  0  0
 38 65  1  0  0  0  0
 38 70  1  0  0  0  0
 38 81  2  0  0  0  0
 39 66  1  0  0  0  0
 39 76  1  0  0  0  0
 39 82  2  0  0  0  0
 40 71  1  0  0  0  0
 40 74  1  0  0  0  0
 40 83  2  0  0  0  0
 41 45  1  0  0  0  0
 42 54  1  0  0  0  0
 43 70  1  0  0  0  0
 44 55  1  0  0  0  0
 45 47  1  0  0  0  0
 46 48  1  0  0  0  0
 46 50  1  0  0  0  0
 47 53  1  0  0  0  0
 48 56  1  0  0  0  0
 49 52  1  0  0  0  0
 49 55  1  0  0  0  0
 50 71  1  0  0  0  0
 51 56  1  0  0  0  0
 51 71  1  0  0  0  0
 52 77  1  0  0  0  0
 53 75  1  0  0  0  0
 54 70  1  0  0  0  0
 55 64  1  0  0  0  0
 56 69  1  0  0  0  0
 58 66  1  0  0  0  0
 59 67  1  0  0  0  0
 60 67  1  0  0  0  0
 61 67  1  0  0  0  0
 62 78  1  0  0  0  0
 63 77  1  0  0  0  0
 64 85  1  0  0  0  0
 65 67  1  0  0  0  0
 65 76  1  0  0  0  0
 66 78  1  0  0  0  0
 68 69  1  0  0  0  0
M  CHG  2  77   1  78   1
M  ISO  4  40 100  64 101  74 100  85 101
M  END
> <Batch ID>
0052

> <Smiles>
C=C1CC([101CH2:1][101O:1]c2ccc3c(c2)CN(C(=O)C(NC(=O)C(C)NC)C(C)(C)C)C(C(=O)NC2CCCc4ccccc42)C3)CCN1Cc1ccc(C)c([100NH:0][100C:0](=O)N2CCCC(n3nc(-c4ccc(Oc5ccc(F)cc5F)cc4)c(C(N)=O)c3N)C2)c1

> <Shape>
0.206

> <Color>
0.088

> <Negative vol penalty>
0.000

$$$$

  -OEChem-04042322403D

 88 96  0     1  0  0  0  0  0999 V2000
  -22.7011   -8.6823   22.0486 C   0  0  0  0  0  0  0  0  0  0  0  0
  -23.4354   -9.6343   22.7486 C   0  0  0  0  0  0  0  0  0  0  0  0
  -22.4286  -26.9878   20.4651 C   0  0  0  0  0  0  0  0  0  0  0  0
  -22.8018  -28.6411   22.1868 C   0  0  0  0  0  0  0  0  0  0  0  0
  -22.4812   -8.8406   20.6809 C   0  0  0  0  0  0  0  0  0  0  0  0
  -23.9512  -10.7446   22.0811 C   0  0  0  0  0  0  0  0  0  0  0  0
  -24.5804  -16.4147   24.3081 C   0  0  0  0  0  0  0  0  0  0  0  0
  -29.9871  -22.3900   22.2769 C   0  0  0  0  0  0  0  0  0  0  0  0
  -21.1922  -26.6773   21.0311 C   0  0  0  0  0  0  0  0  0  0  0  0
  -21.5653  -28.3307   22.7529 C   0  0  0  0  0  0  0  0  0  0  0  0
  -25.6714  -17.0949   24.8474 C   0  0  0  0  0  0  0  0  0  0  0  0
  -18.3481  -28.2267   24.4431 C   0  0  0  0  0  0  0  0  0  0  0  0
  -17.5270  -29.2857   24.8302 C   0  0  0  0  0  0  0  0  0  0  0  0
  -30.6769  -21.4663   23.0621 C   0  0  0  0  0  0  0  0  0  0  0  0
  -26.1094  -18.0881   22.6931 C   0  0  0  0  0  0  0  0  0  0  0  0
  -17.4883  -30.0886   22.5518 C   0  0  0  0  0  0  0  0  0  0  0  0
  -23.2335  -27.9697   21.0429 C   0  0  0  0  0  0  0  0  0  0  0  0
  -24.7756  -29.2588   19.4721 C   0  0  0  0  0  0  0  0  0  0  0  0
  -22.9863   -9.9584   19.9982 C   0  0  0  0  0  0  0  0  0  0  0  0
  -24.2517  -16.5578   22.9524 C   0  0  0  0  0  0  0  0  0  0  0  0
  -23.7390  -10.9173   20.7027 C   0  0  0  0  0  0  0  0  0  0  0  0
  -25.0122  -17.4106   22.1397 C   0  0  0  0  0  0  0  0  0  0  0  0
  -29.2773  -21.9601   21.1557 C   0  0  0  0  0  0  0  0  0  0  0  0
  -29.2573  -20.6064   20.8197 C   0  0  0  0  0  0  0  0  0  0  0  0
  -29.9471  -19.6827   21.6049 C   0  0  0  0  0  0  0  0  0  0  0  0
  -20.7605  -27.3488   22.1750 C   0  0  0  0  0  0  0  0  0  0  0  0
  -26.4378  -17.9295   24.0393 C   0  0  0  0  0  0  0  0  0  0  0  0
  -18.7394  -28.0986   23.1103 C   0  0  0  0  0  0  0  0  0  0  0  0
  -17.0970  -30.2166   23.8846 C   0  0  0  0  0  0  0  0  0  0  0  0
  -18.3094  -29.0295   22.1647 C   0  0  0  0  0  0  0  0  0  0  0  0
  -30.6569  -20.1127   22.7261 C   0  0  0  0  0  0  0  0  0  0  0  0
  -24.5111  -28.2904   20.4590 C   0  0  0  0  0  0  0  0  0  0  0  0
  -26.1302  -29.1734   19.2617 C   0  0  0  0  0  0  0  0  0  0  0  0
  -30.1752  -23.9592   17.2247 C   0  0  0  0  0  0  0  0  0  0  0  0
  -29.7538  -23.2222   18.2548 C   0  0  0  0  0  0  0  0  0  0  0  0
  -23.8772  -30.1554   18.8052 C   0  0  0  0  0  0  0  0  0  0  0  0
  -24.0909  -14.5877   20.4632 C   0  0  0  0  0  0  0  0  0  0  0  0
  -22.8848  -17.2016   18.9681 C   0  0  0  0  0  0  0  0  0  0  0  0
  -22.6377  -20.6024   18.8274 C   0  0  0  0  0  0  0  0  0  0  0  0
  -30.1348  -24.9110   19.9280 C   0  0  0  0  0  0  0  0  0  0  0  0
  -22.7629  -10.0622   18.5102 C   0  0  0  0  0  0  0  0  0  0  0  0
  -23.0557  -15.8380   22.3922 C   0  0  0  0  0  0  0  0  0  0  0  0
  -24.6889  -17.6143   20.6828 C   0  0  0  0  0  0  0  0  0  0  0  0
  -23.0252  -11.4581   17.9509 C   0  0  0  0  0  0  0  0  0  0  0  0
  -30.2066  -28.0182   21.4629 C   0  0  0  0  0  0  0  0  0  0  0  0
  -24.3394  -12.0118   18.4920 C   0  0  0  0  0  0  0  0  0  0  0  0
  -28.7821  -28.5444   21.2946 C   0  0  0  0  0  0  0  0  0  0  0  0
  -30.2011  -26.5317   21.7982 C   0  0  0  0  0  0  0  0  0  0  0  0
  -28.0584  -26.2036   20.6047 C   0  0  0  0  0  0  0  0  0  0  0  0
  -24.2937  -12.1480   20.0188 C   0  0  1  0  0  0  0  0  0  0  0  0
  -23.1216  -15.6579   20.8788 C   0  0  1  0  0  0  0  0  0  0  0  0
  -28.0047  -27.7073   20.2642 C   0  0  1  0  0  0  0  0  0  0  0  0
  -28.4960  -20.1489   19.6156 C   0  0  0  0  0  0  0  0  0  0  0  0
  -29.9229  -18.2321   21.2379 C   0  0  0  0  0  0  0  0  0  0  0  0
  -21.6141  -22.4487   17.4705 C   0  0  0  0  0  0  0  0  0  0  0  0
  -25.0169  -16.8032   16.8221 C   0  0  0  0  0  0  0  0  0  0  0  0
  -24.5743  -19.1423   16.0469 C   0  0  0  0  0  0  0  0  0  0  0  0
  -22.7604  -17.4327   15.9466 C   0  0  0  0  0  0  0  0  0  0  0  0
  -21.0438  -21.5662   21.1273 C   0  0  0  0  0  0  0  0  0  0  0  0
  -28.5484  -22.9702   20.3313 C   0  0  0  0  0  0  0  0  0  0  0  0
  -29.6385  -18.4188   25.6555 C   0  0  0  0  0  0  0  0  0  0  0  0
  -28.1882  -17.9705   25.6487 C   0  0  0  0  0  0  0  0  0  1  0  0
  -23.4721  -18.3546   18.1907 C   0  0  1  0  0  0  0  0  0  0  0  0
  -21.4392  -21.5193   18.6615 C   0  0  2  0  0  0  0  0  0  0  0  0
  -23.9635  -17.9281   16.7785 C   0  0  0  0  0  0  0  0  0  0  0  0
  -25.6094  -27.6377   20.8485 N   0  0  0  0  0  0  0  0  0  0  0  0
  -26.5772  -28.1969   20.1024 N   0  0  0  0  0  0  0  0  0  0  0  0
  -23.5137  -16.8837   20.1803 N   0  0  0  0  0  0  0  0  0  0  0  0
  -29.4481  -25.7657   20.8046 N   0  0  0  0  0  0  0  0  0  0  0  0
  -26.9706  -29.8391   18.4413 N   0  0  0  0  0  0  0  0  0  0  0  0
  -22.5173  -30.1112   19.1413 N   0  0  0  0  0  0  0  0  0  0  0  0
  -23.5387  -13.3226   20.3991 N   0  0  0  0  0  0  0  0  0  0  0  0
  -22.4541  -19.3996   18.1787 N   0  0  0  0  0  0  0  0  0  0  0  0
  -30.2887  -18.0241   24.3848 N   0  0  0  0  0  0  0  0  0  0  0  0
  -29.4551  -23.7595   19.4896 N   0  0  0  0  0  0  0  0  0  0  0  0
  -21.2506  -22.3515   19.8833 N   0  3  0  0  0  0  0  0  0  0  0  0
  -24.2663  -30.9602   17.9252 O   0  0  0  0  0  0  0  0  0  0  0  0
  -25.2533  -14.8877   20.2174 O   0  0  0  0  0  0  0  0  0  0  0  0
  -21.8998  -16.6094   18.5200 O   0  0  0  0  0  0  0  0  0  0  0  0
  -23.6382  -20.9228   19.4652 O   0  0  0  0  0  0  0  0  0  0  0  0
  -31.2962  -25.1568   19.5750 O   0  0  0  0  0  0  0  0  0  0  0  0
  -32.3761  -18.1557   22.8835 O   0  0  0  0  0  0  0  0  0  0  0  0
  -32.1424  -19.7440   24.8192 O   0  0  0  0  0  0  0  0  0  0  0  0
  -19.5539  -27.0463   22.7274 O   0  0  0  0  0  0  0  0  0  0  0  0
  -27.5036  -18.5941   24.5630 O   0  0  0  0  0  0  0  0  0  1  0  0
  -16.3073  -31.2327   24.2562 F   0  0  0  0  0  0  0  0  0  0  0  0
  -18.6810  -28.9111   20.8827 F   0  0  0  0  0  0  0  0  0  0  0  0
  -31.5445  -18.9735   23.7457 S   0  0  0  0  0  0  0  0  0  0  0  0
  1  2  1  0  0  0  0
  1  5  2  0  0  0  0
  2  6  2  0  0  0  0
  3  9  2  0  0  0  0
  3 17  1  0  0  0  0
  4 10  1  0  0  0  0
  4 17  2  0  0  0  0
  5 19  1  0  0  0  0
  6 21  1  0  0  0  0
  7 11  2  0  0  0  0
  7 20  1  0  0  0  0
  8 14  2  0  0  0  0
  8 23  1  0  0  0  0
  9 26  1  0  0  0  0
 10 26  2  0  0  0  0
 11 27  1  0  0  0  0
 12 13  2  0  0  0  0
 12 28  1  0  0  0  0
 13 29  1  0  0  0  0
 14 31  1  0  0  0  0
 15 22  1  0  0  0  0
 15 27  2  0  0  0  0
 16 29  2  0  0  0  0
 16 30  1  0  0  0  0
 17 32  1  0  0  0  0
 18 32  1  0  0  0  0
 18 33  2  0  0  0  0
 18 36  1  0  0  0  0
 19 21  2  0  0  0  0
 19 41  1  0  0  0  0
 20 22  2  0  0  0  0
 20 42  1  0  0  0  0
 21 50  1  0  0  0  0
 22 43  1  0  0  0  0
 23 24  2  0  0  0  0
 23 60  1  0  0  0  0
 24 25  1  0  0  0  0
 24 53  1  0  0  0  0
 25 31  2  0  0  0  0
 25 54  1  0  0  0  0
 26 84  1  0  0  0  0
 27 85  1  0  0  0  0
 28 30  2  0  0  0  0
 28 84  1  0  0  0  0
 29 86  1  0  0  0  0
 30 87  1  0  0  0  0
 31 88  1  0  0  0  0
 32 66  2  0  0  0  0
 33 67  1  0  0  0  0
 33 70  1  0  0  0  0
 34 35  2  0  0  0  0
 35 75  1  0  0  0  0
 36 71  1  0  0  0  0
 36 77  2  0  0  0  0
 37 51  1  0  0  0  0
 37 72  1  0  0  0  0
 37 78  2  0  0  0  0
 38 63  1  0  0  0  0
 38 68  1  0  0  0  0
 38 79  2  0  0  0  0
 39 64  1  0  0  0  0
 39 73  1  0  0  0  0
 39 80  2  0  0  0  0
 40 69  1  0  0  0  0
 40 75  1  0  0  0  0
 40 81  2  0  0  0  0
 41 44  1  0  0  0  0
 42 51  1  0  0  0  0
 43 68  1  0  0  0  0
 44 46  1  0  0  0  0
 45 47  1  0  0  0  0
 45 48  1  0  0  0  0
 46 50  1  0  0  0  0
 47 52  1  0  0  0  0
 48 69  1  0  0  0  0
 49 52  1  0  0  0  0
 49 69  1  0  0  0  0
 50 72  1  0  0  0  0
 51 68  1  0  0  0  0
 52 67  1  0  0  0  0
 55 64  1  0  0  0  0
 56 65  1  0  0  0  0
 57 65  1  0  0  0  0
 58 65  1  0  0  0  0
 59 76  1  0  0  0  0
 60 75  1  0  0  0  0
 61 62  1  0  0  0  0
 61 74  1  0  0  0  0
 62 85  1  0  0  0  0
 63 65  1  0  0  0  0
 63 73  1  0  0  0  0
 64 76  1  0  0  0  0
 66 67  1  0  0  0  0
 74 88  1  0  0  0  0
 82 88  2  0  0  0  0
 83 88  2  0  0  0  0
M  CHG  1  76   1
M  ISO  4  40 100  62 101  75 100  85 101
M  END
> <Batch ID>
0052

> <Smiles>
C=C[100N:0](Cc1ccc(S(=O)(=O)NC[101CH2:1][101O:1]c2ccc3c(c2)CN(C(=O)C(NC(=O)C(C)NC)C(C)(C)C)C(C(=O)NC2CCCc4ccccc42)C3)c(C)c1C)[100C:0](=O)N1CCCC(n2nc(-c3ccc(Oc4ccc(F)cc4F)cc3)c(C(N)=O)c2N)C1

> <Shape>
0.240

> <Color>
0.076

> <Negative vol penalty>
0.000

$$$$

  -OEChem-04042322403D

 83 91  0     1  0  0  0  0  0999 V2000
  -16.3977  -28.0610   22.0558 C   0  0  0  0  0  0  0  0  0  0  0  0
  -17.4457  -27.1508   21.9623 C   0  0  0  0  0  0  0  0  0  0  0  0
  -30.9503  -19.2423   19.9468 C   0  0  0  0  0  0  0  0  0  0  0  0
  -23.3783  -10.7893   22.3769 C   0  0  0  0  0  0  0  0  0  0  0  0
  -22.8323  -13.0207   21.6287 C   0  0  0  0  0  0  0  0  0  0  0  0
  -16.6255  -29.4130   21.8028 C   0  0  0  0  0  0  0  0  0  0  0  0
  -18.7220  -27.5921   21.6146 C   0  0  0  0  0  0  0  0  0  0  0  0
  -24.0611  -25.3808   23.6417 C   0  0  0  0  0  0  0  0  0  0  0  0
  -29.9170  -20.0833   19.5338 C   0  0  0  0  0  0  0  0  0  0  0  0
  -30.7907  -17.8580   19.8828 C   0  0  0  0  0  0  0  0  0  0  0  0
  -22.4037  -10.8839   23.3702 C   0  0  0  0  0  0  0  0  0  0  0  0
  -21.8576  -13.1152   22.6219 C   0  0  0  0  0  0  0  0  0  0  0  0
  -24.9731  -24.4809   23.0918 C   0  0  0  0  0  0  0  0  0  0  0  0
  -18.6974  -12.0264   23.1200 C   0  0  0  0  0  0  0  0  0  0  0  0
  -17.4547  -12.5467   22.7589 C   0  0  0  0  0  0  0  0  0  0  0  0
  -26.2699  -26.3268   22.2372 C   0  0  0  0  0  0  0  0  0  0  0  0
  -28.5644  -18.1558   18.9928 C   0  0  0  0  0  0  0  0  0  0  0  0
  -17.7330  -14.3278   24.3674 C   0  0  0  0  0  0  0  0  0  0  0  0
  -23.5927  -11.8578   21.5062 C   0  0  0  0  0  0  0  0  0  0  0  0
  -24.4328  -11.2801   19.1677 C   0  0  0  0  0  0  0  0  0  0  0  0
  -17.9072  -29.8725   21.4614 C   0  0  0  0  0  0  0  0  0  0  0  0
  -24.2411  -26.7625   23.4838 C   0  0  0  0  0  0  0  0  0  0  0  0
  -18.9668  -28.9514   21.3556 C   0  0  0  0  0  0  0  0  0  0  0  0
  -25.3601  -27.2421   22.7882 C   0  0  0  0  0  0  0  0  0  0  0  0
  -28.7241  -19.5401   19.0568 C   0  0  0  0  0  0  0  0  0  0  0  0
  -29.5978  -17.3148   19.4059 C   0  0  0  0  0  0  0  0  0  0  0  0
  -21.6433  -12.0468   23.4927 C   0  0  0  0  0  0  0  0  0  0  0  0
  -26.0761  -24.9538   22.3870 C   0  0  0  0  0  0  0  0  0  0  0  0
  -19.4580  -12.6567   24.1048 C   0  0  0  0  0  0  0  0  0  0  0  0
  -16.9725  -13.6975   23.3825 C   0  0  0  0  0  0  0  0  0  0  0  0
  -18.9758  -13.8074   24.7285 C   0  0  0  0  0  0  0  0  0  0  0  0
  -24.5998  -11.7609   20.4802 C   0  0  0  0  0  0  0  0  0  0  0  0
  -25.6777  -11.3949   18.5990 C   0  0  0  0  0  0  0  0  0  0  0  0
  -23.2574  -10.7750   18.5205 C   0  0  0  0  0  0  0  0  0  0  0  0
  -22.5816  -29.0979   22.1072 C   0  0  0  0  0  0  0  0  0  0  0  0
  -24.8637  -30.9777   23.4416 C   0  0  0  0  0  0  0  0  0  0  0  0
  -27.2753  -22.2833   20.2783 C   0  0  0  0  0  0  0  0  0  0  0  0
  -28.0353  -31.2542   24.6708 C   0  0  0  0  0  0  0  0  0  0  0  0
  -30.3625  -14.9338   19.7097 C   0  0  0  0  0  0  0  0  0  0  0  0
  -18.0947  -31.3365   21.1508 C   0  0  0  0  0  0  0  0  0  0  0  0
  -23.2627  -27.7206   24.1060 C   0  0  0  0  0  0  0  0  0  0  0  0
  -25.6098  -28.7164   22.6079 C   0  0  0  0  0  0  0  0  0  0  0  0
  -19.5561  -31.7775   21.1543 C   0  0  0  0  0  0  0  0  0  0  0  0
  -30.3300  -11.3735   19.7346 C   0  0  0  0  0  0  0  0  0  0  0  0
  -20.4137  -30.7899   20.3695 C   0  0  0  0  0  0  0  0  0  0  0  0
  -28.8414  -11.0250   19.8031 C   0  0  0  0  0  0  0  0  0  0  0  0
  -30.6598  -12.6172   20.5582 C   0  0  0  0  0  0  0  0  0  0  0  0
  -28.3532  -13.4497   20.3224 C   0  0  0  0  0  0  0  0  0  0  0  0
  -20.3706  -29.3951   21.0054 C   0  0  1  0  0  0  0  0  0  0  0  0
  -23.2686  -29.0948   23.4435 C   0  0  1  0  0  0  0  0  0  0  0  0
  -27.9613  -12.2418   19.4559 C   0  0  2  0  0  0  0  0  0  0  0  0
  -29.6278  -32.9253   25.6551 C   0  0  0  0  0  0  0  0  0  0  0  0
  -25.3381  -32.1561   20.6674 C   0  0  0  0  0  0  0  0  0  0  0  0
  -27.5096  -33.0773   21.5064 C   0  0  0  0  0  0  0  0  0  0  0  0
  -25.3609  -33.8267   22.5283 C   0  0  0  0  0  0  0  0  0  0  0  0
  -25.8041  -20.2614   20.2752 C   0  0  0  0  0  0  0  0  0  0  0  0
  -28.2408  -29.7394   27.2050 C   0  0  0  0  0  0  0  0  0  0  0  0
  -27.6122  -20.4458   18.6124 C   0  0  0  0  0  0  0  0  0  0  0  0
  -26.4644  -22.8044   21.4460 C   0  0  0  0  0  0  0  0  0  1  0  0
  -26.2131  -31.4946   23.0047 C   0  0  1  0  0  0  0  0  0  0  0  0
  -28.5696  -31.8736   25.9496 C   0  0  2  0  0  0  0  0  0  0  0  0
  -26.1000  -32.6108   21.9282 C   0  0  0  0  0  0  0  0  0  0  0  0
  -25.8522  -12.1519   20.7307 N   0  0  0  0  0  0  0  0  0  0  0  0
  -26.4834  -11.9168   19.5678 N   0  0  0  0  0  0  0  0  0  0  0  0
  -24.6213  -29.6132   23.2293 N   0  0  0  0  0  0  0  0  0  0  0  0
  -29.7897  -13.7300   20.1717 N   0  0  0  0  0  0  0  0  0  0  0  0
  -26.1508  -11.0993   17.3697 N   0  0  0  0  0  0  0  0  0  0  0  0
  -22.0616  -10.7262   19.2500 N   0  0  0  0  0  0  0  0  0  0  0  0
  -29.4363  -15.9086   19.3403 N   0  0  0  0  0  0  0  0  0  0  0  0
  -21.2237  -29.3456   22.1733 N   0  0  0  0  0  0  0  0  0  0  0  0
  -26.9063  -31.9054   24.2209 N   0  0  0  0  0  0  0  0  0  0  0  0
  -26.9113  -21.0468   19.7441 N   0  0  0  0  0  0  0  0  0  0  0  0
  -29.1772  -30.8259   26.8181 N   0  3  0  0  0  0  0  0  0  0  0  0
  -23.2709  -10.3633   17.3356 O   0  0  0  0  0  0  0  0  0  0  0  0
  -23.2352  -28.8924   21.0913 O   0  0  0  0  0  0  0  0  0  0  0  0
  -24.0572  -31.7546   23.9590 O   0  0  0  0  0  0  0  0  0  0  0  0
  -28.2075  -22.9705   19.8498 O   0  0  0  0  0  0  0  0  0  0  0  0
  -28.5686  -30.2916   24.1235 O   0  0  0  0  0  0  0  0  0  0  0  0
  -31.5844  -15.0788   19.6207 O   0  0  0  0  0  0  0  0  0  0  0  0
  -20.6919  -12.1393   24.4617 O   0  0  0  0  0  0  0  0  0  0  0  0
  -26.9675  -24.0777   21.8487 O   0  0  0  0  0  0  0  0  0  1  0  0
  -15.7797  -14.1979   23.0345 F   0  0  0  0  0  0  0  0  0  0  0  0
  -19.7024  -14.4181   25.6745 F   0  0  0  0  0  0  0  0  0  0  0  0
  1  2  1  0  0  0  0
  1  6  2  0  0  0  0
  2  7  2  0  0  0  0
  3  9  2  0  0  0  0
  3 10  1  0  0  0  0
  4 11  2  0  0  0  0
  4 19  1  0  0  0  0
  5 12  1  0  0  0  0
  5 19  2  0  0  0  0
  6 21  1  0  0  0  0
  7 23  1  0  0  0  0
  8 13  2  0  0  0  0
  8 22  1  0  0  0  0
  9 25  1  0  0  0  0
 10 26  2  0  0  0  0
 11 27  1  0  0  0  0
 12 27  2  0  0  0  0
 13 28  1  0  0  0  0
 14 15  2  0  0  0  0
 14 29  1  0  0  0  0
 15 30  1  0  0  0  0
 16 24  1  0  0  0  0
 16 28  2  0  0  0  0
 17 25  2  0  0  0  0
 17 26  1  0  0  0  0
 18 30  2  0  0  0  0
 18 31  1  0  0  0  0
 19 32  1  0  0  0  0
 20 32  1  0  0  0  0
 20 33  2  0  0  0  0
 20 34  1  0  0  0  0
 21 23  2  0  0  0  0
 21 40  1  0  0  0  0
 22 24  2  0  0  0  0
 22 41  1  0  0  0  0
 23 49  1  0  0  0  0
 24 42  1  0  0  0  0
 25 58  1  0  0  0  0
 26 69  1  0  0  0  0
 27 80  1  0  0  0  0
 28 81  1  0  0  0  0
 29 31  2  0  0  0  0
 29 80  1  0  0  0  0
 30 82  1  0  0  0  0
 31 83  1  0  0  0  0
 32 63  2  0  0  0  0
 33 64  1  0  0  0  0
 33 67  1  0  0  0  0
 34 68  1  0  0  0  0
 34 74  2  0  0  0  0
 35 50  1  0  0  0  0
 35 70  1  0  0  0  0
 35 75  2  0  0  0  0
 36 60  1  0  0  0  0
 36 65  1  0  0  0  0
 36 76  2  0  0  0  0
 37 59  1  0  0  0  0
 37 72  1  0  0  0  0
 37 77  2  0  0  0  0
 38 61  1  0  0  0  0
 38 71  1  0  0  0  0
 38 78  2  0  0  0  0
 39 66  1  0  0  0  0
 39 69  1  0  0  0  0
 39 79  2  0  0  0  0
 40 43  1  0  0  0  0
 41 50  1  0  0  0  0
 42 65  1  0  0  0  0
 43 45  1  0  0  0  0
 44 46  1  0  0  0  0
 44 47  1  0  0  0  0
 45 49  1  0  0  0  0
 46 51  1  0  0  0  0
 47 66  1  0  0  0  0
 48 51  1  0  0  0  0
 48 66  1  0  0  0  0
 49 70  1  0  0  0  0
 50 65  1  0  0  0  0
 51 64  1  0  0  0  0
 52 61  1  0  0  0  0
 53 62  1  0  0  0  0
 54 62  1  0  0  0  0
 55 62  1  0  0  0  0
 56 72  1  0  0  0  0
 57 73  1  0  0  0  0
 58 72  1  0  0  0  0
 59 81  1  0  0  0  0
 60 62  1  0  0  0  0
 60 71  1  0  0  0  0
 61 73  1  0  0  0  0
 63 64  1  0  0  0  0
M  CHG  1  73   1
M  ISO  4  39 100  59 101  69 100  81 101
M  END
> <Batch ID>
0052

> <Smiles>
CNC(C)C(=O)NC(C(=O)N1Cc2cc([101O:1][101CH2:1]C(=O)N(C)Cc3cccc([100NH:0][100C:0](=O)N4CCCC(n5nc(-c6ccc(Oc7ccc(F)cc7F)cc6)c(C(N)=O)c5N)C4)c3)ccc2CC1C(=O)NC1CCCc2ccccc21)C(C)(C)C

> <Shape>
0.244

> <Color>
0.081

> <Negative vol penalty>
0.000

$$$$

  -OEChem-04042322403D

 85 93  0     1  0  0  0  0  0999 V2000
  -17.8438  -26.1028   31.0626 C   0  0  0  0  0  0  0  0  0  0  0  0
  -18.3086  -25.2505   30.0662 C   0  0  0  0  0  0  0  0  0  0  0  0
  -23.0742   -9.8684   19.9419 C   0  0  0  0  0  0  0  0  0  0  0  0
  -23.8381   -9.8747   22.2339 C   0  0  0  0  0  0  0  0  0  0  0  0
  -18.6429  -27.1556   31.5065 C   0  0  0  0  0  0  0  0  0  0  0  0
  -19.5725  -25.4510   29.5123 C   0  0  0  0  0  0  0  0  0  0  0  0
  -23.4668  -21.1421   27.5698 C   0  0  0  0  0  0  0  0  0  0  0  0
  -31.5057  -18.4288   20.0474 C   0  0  0  0  0  0  0  0  0  0  0  0
  -22.3316   -8.7147   20.1925 C   0  0  0  0  0  0  0  0  0  0  0  0
  -23.0954   -8.7209   22.4846 C   0  0  0  0  0  0  0  0  0  0  0  0
  -23.7495  -20.6360   26.3018 C   0  0  0  0  0  0  0  0  0  0  0  0
  -19.8688   -7.9206   23.0922 C   0  0  0  0  0  0  0  0  0  0  0  0
  -19.1139   -7.8795   24.2643 C   0  0  0  0  0  0  0  0  0  0  0  0
  -31.2457  -19.4811   19.1696 C   0  0  0  0  0  0  0  0  0  0  0  0
  -25.6190  -22.1498   26.1210 C   0  0  0  0  0  0  0  0  0  0  0  0
  -29.2939  -18.6682   20.9896 C   0  0  0  0  0  0  0  0  0  0  0  0
  -20.3578   -5.9425   24.9976 C   0  0  0  0  0  0  0  0  0  0  0  0
  -23.8275  -10.4485   20.9626 C   0  0  0  0  0  0  0  0  0  0  0  0
  -24.1674  -12.9739   20.8433 C   0  0  0  0  0  0  0  0  0  0  0  0
  -19.9211  -27.3633   30.9646 C   0  0  0  0  0  0  0  0  0  0  0  0
  -24.2529  -22.1651   28.1193 C   0  0  0  0  0  0  0  0  0  0  0  0
  -20.3889  -26.5084   29.9485 C   0  0  0  0  0  0  0  0  0  0  0  0
  -25.3458  -22.6653   27.3972 C   0  0  0  0  0  0  0  0  0  0  0  0
  -30.5298  -18.0223   20.9574 C   0  0  0  0  0  0  0  0  0  0  0  0
  -29.0339  -19.7206   20.1119 C   0  0  0  0  0  0  0  0  0  0  0  0
  -22.3421   -8.1409   21.4638 C   0  0  0  0  0  0  0  0  0  0  0  0
  -24.8239  -21.1418   25.5760 C   0  0  0  0  0  0  0  0  0  0  0  0
  -20.8682   -6.9726   22.8727 C   0  0  0  0  0  0  0  0  0  0  0  0
  -19.3584   -6.8905   25.2171 C   0  0  0  0  0  0  0  0  0  0  0  0
  -21.1127   -5.9836   23.8254 C   0  0  0  0  0  0  0  0  0  0  0  0
  -30.0098  -20.1271   19.2018 C   0  0  0  0  0  0  0  0  0  0  0  0
  -24.5954  -11.6400   20.7042 C   0  0  0  0  0  0  0  0  0  0  0  0
  -25.2585  -13.7243   20.4786 C   0  0  0  0  0  0  0  0  0  0  0  0
  -22.8973  -13.4886   21.2647 C   0  0  0  0  0  0  0  0  0  0  0  0
  -23.7093  -25.1524   29.0599 C   0  0  0  0  0  0  0  0  0  0  0  0
  -26.7811  -24.9749   30.0868 C   0  0  0  0  0  0  0  0  0  0  0  0
  -26.3755  -20.5443   22.3016 C   0  0  0  0  0  0  0  0  0  0  0  0
  -29.8506  -23.5103   29.8036 C   0  0  0  0  0  0  0  0  0  0  0  0
  -30.7418  -14.7470   20.6581 C   0  0  0  0  0  0  0  0  0  0  0  0
  -20.7295  -28.5432   31.4433 C   0  0  0  0  0  0  0  0  0  0  0  0
  -23.9511  -22.6817   29.4994 C   0  0  0  0  0  0  0  0  0  0  0  0
  -26.2328  -23.7495   27.9507 C   0  0  0  0  0  0  0  0  0  0  0  0
  -22.2071  -28.4614   31.0687 C   0  0  0  0  0  0  0  0  0  0  0  0
  -29.6018  -12.3630   18.2720 C   0  0  0  0  0  0  0  0  0  0  0  0
  -22.3654  -28.0643   29.6045 C   0  0  0  0  0  0  0  0  0  0  0  0
  -28.1653  -12.0681   18.7073 C   0  0  0  0  0  0  0  0  0  0  0  0
  -30.5208  -12.5838   19.4715 C   0  0  0  0  0  0  0  0  0  0  0  0
  -28.6209  -13.3129   20.8617 C   0  0  0  0  0  0  0  0  0  0  0  0
  -21.7643  -26.6785   29.3405 C   0  0  1  0  0  0  0  0  0  0  0  0
  -24.5062  -24.0807   29.7484 C   0  0  1  0  0  0  0  0  0  0  0  0
  -27.6449  -13.1382   19.6856 C   0  0  2  0  0  0  0  0  0  0  0  0
  -32.1722  -23.6025   30.7518 C   0  0  0  0  0  0  0  0  0  0  0  0
  -27.3308  -27.5147   28.4876 C   0  0  0  0  0  0  0  0  0  0  0  0
  -29.7783  -27.0253   28.6842 C   0  0  0  0  0  0  0  0  0  0  0  0
  -28.4225  -27.4411   30.7365 C   0  0  0  0  0  0  0  0  0  0  0  0
  -28.3575  -22.0159   21.9035 C   0  0  0  0  0  0  0  0  0  0  0  0
  -29.6954  -20.7143   30.7612 C   0  0  0  0  0  0  0  0  0  0  0  0
  -30.8083  -16.8970   21.8960 C   0  0  0  0  0  0  0  0  0  0  0  0
  -27.6912  -20.3891   20.1778 C   0  0  0  0  0  0  0  0  0  0  0  0
  -26.2174  -21.2144   23.6502 C   0  0  0  0  0  0  0  0  0  1  0  0
  -28.1307  -25.2682   29.4774 C   0  0  1  0  0  0  0  0  0  0  0  0
  -30.8007  -22.9525   30.8479 C   0  0  2  0  0  0  0  0  0  0  0  0
  -28.3979  -26.7932   29.3349 C   0  0  0  0  0  0  0  0  0  0  0  0
  -25.8596  -11.5453   20.2837 N   0  0  0  0  0  0  0  0  0  0  0  0
  -26.2354  -12.8292   20.1554 N   0  0  0  0  0  0  0  0  0  0  0  0
  -25.8930  -24.2262   29.3016 N   0  0  0  0  0  0  0  0  0  0  0  0
  -29.9710  -13.6115   20.3589 N   0  0  0  0  0  0  0  0  0  0  0  0
  -25.4678  -15.0560   20.4059 N   0  0  0  0  0  0  0  0  0  0  0  0
  -21.8866  -12.5786   21.6032 N   0  0  0  0  0  0  0  0  0  0  0  0
  -22.6579  -25.6420   29.8112 N   0  0  0  0  0  0  0  0  0  0  0  0
  -29.1106  -24.5639   30.2973 N   0  0  0  0  0  0  0  0  0  0  0  0
  -30.1435  -15.6750   21.5017 N   0  0  0  0  0  0  0  0  0  0  0  0
  -27.4322  -20.9666   21.4942 N   0  0  0  0  0  0  0  0  0  0  0  0
  -30.9637  -21.4822   30.6672 N   0  3  0  0  0  0  0  0  0  0  0  0
  -22.6603  -14.7191   21.3231 O   0  0  0  0  0  0  0  0  0  0  0  0
  -24.0257  -25.5097   27.9313 O   0  0  0  0  0  0  0  0  0  0  0  0
  -26.5269  -25.3886   31.2208 O   0  0  0  0  0  0  0  0  0  0  0  0
  -25.5765  -19.6588   21.9819 O   0  0  0  0  0  0  0  0  0  0  0  0
  -29.7752  -23.0591   28.6629 O   0  0  0  0  0  0  0  0  0  0  0  0
  -31.8769  -14.9235   20.2027 O   0  0  0  0  0  0  0  0  0  0  0  0
  -21.6174   -7.0152   21.7088 O   0  0  0  0  0  0  0  0  0  0  0  0
  -25.1016  -20.6501   24.3379 O   0  0  0  0  0  0  0  0  0  1  0  0
  -18.6344   -6.8521   26.3434 F   0  0  0  0  0  0  0  0  0  0  0  0
  -22.0723   -5.0709   23.6207 F   0  0  0  0  0  0  0  0  0  0  0  0
  -29.7235  -21.4250   18.1007 Cl  0  0  0  0  0  0  0  0  0  0  0  0
  1  2  1  0  0  0  0
  1  5  2  0  0  0  0
  2  6  2  0  0  0  0
  3  9  2  0  0  0  0
  3 18  1  0  0  0  0
  4 10  1  0  0  0  0
  4 18  2  0  0  0  0
  5 20  1  0  0  0  0
  6 22  1  0  0  0  0
  7 11  2  0  0  0  0
  7 21  1  0  0  0  0
  8 14  2  0  0  0  0
  8 24  1  0  0  0  0
  9 26  1  0  0  0  0
 10 26  2  0  0  0  0
 11 27  1  0  0  0  0
 12 13  2  0  0  0  0
 12 28  1  0  0  0  0
 13 29  1  0  0  0  0
 14 31  1  0  0  0  0
 15 23  1  0  0  0  0
 15 27  2  0  0  0  0
 16 24  2  0  0  0  0
 16 25  1  0  0  0  0
 17 29  2  0  0  0  0
 17 30  1  0  0  0  0
 18 32  1  0  0  0  0
 19 32  1  0  0  0  0
 19 33  2  0  0  0  0
 19 34  1  0  0  0  0
 20 22  2  0  0  0  0
 20 40  1  0  0  0  0
 21 23  2  0  0  0  0
 21 41  1  0  0  0  0
 22 49  1  0  0  0  0
 23 42  1  0  0  0  0
 24 58  1  0  0  0  0
 25 31  2  0  0  0  0
 25 59  1  0  0  0  0
 26 81  1  0  0  0  0
 27 82  1  0  0  0  0
 28 30  2  0  0  0  0
 28 81  1  0  0  0  0
 29 83  1  0  0  0  0
 30 84  1  0  0  0  0
 31 85  1  0  0  0  0
 32 64  2  0  0  0  0
 33 65  1  0  0  0  0
 33 68  1  0  0  0  0
 34 69  1  0  0  0  0
 34 75  2  0  0  0  0
 35 50  1  0  0  0  0
 35 70  1  0  0  0  0
 35 76  2  0  0  0  0
 36 61  1  0  0  0  0
 36 66  1  0  0  0  0
 36 77  2  0  0  0  0
 37 60  1  0  0  0  0
 37 73  1  0  0  0  0
 37 78  2  0  0  0  0
 38 62  1  0  0  0  0
 38 71  1  0  0  0  0
 38 79  2  0  0  0  0
 39 67  1  0  0  0  0
 39 72  1  0  0  0  0
 39 80  2  0  0  0  0
 40 43  1  0  0  0  0
 41 50  1  0  0  0  0
 42 66  1  0  0  0  0
 43 45  1  0  0  0  0
 44 46  1  0  0  0  0
 44 47  1  0  0  0  0
 45 49  1  0  0  0  0
 46 51  1  0  0  0  0
 47 67  1  0  0  0  0
 48 51  1  0  0  0  0
 48 67  1  0  0  0  0
 49 70  1  0  0  0  0
 50 66  1  0  0  0  0
 51 65  1  0  0  0  0
 52 62  1  0  0  0  0
 53 63  1  0  0  0  0
 54 63  1  0  0  0  0
 55 63  1  0  0  0  0
 56 73  1  0  0  0  0
 57 74  1  0  0  0  0
 58 72  1  0  0  0  0
 59 73  1  0  0  0  0
 60 82  1  0  0  0  0
 61 63  1  0  0  0  0
 61 71  1  0  0  0  0
 62 74  1  0  0  0  0
 64 65  1  0  0  0  0
M  CHG  1  74   1
M  ISO  4  39 100  60 101  72 100  82 101
M  END
> <Batch ID>
0052

> <Smiles>
CNC(C)C(=O)NC(C(=O)N1Cc2cc([101O:1][101CH2:1]C(=O)N(C)Cc3cc(C[100NH:0][100C:0](=O)N4CCCC(n5nc(-c6ccc(Oc7ccc(F)cc7F)cc6)c(C(N)=O)c5N)C4)ccc3Cl)ccc2CC1C(=O)NC1CCCc2ccccc21)C(C)(C)C

> <Shape>
0.201

> <Color>
0.196

> <Negative vol penalty>
0.000

$$$$

  -OEChem-04042322403D

 95105  0     1  0  0  0  0  0999 V2000
  -27.0254  -36.2032   23.7073 C   0  0  0  0  0  0  0  0  0  0  0  0
  -27.4201  -34.8931   23.4558 C   0  0  0  0  0  0  0  0  0  0  0  0
  -22.8495  -11.2096   22.4998 C   0  0  0  0  0  0  0  0  0  0  0  0
  -23.3735   -9.5731   20.8015 C   0  0  0  0  0  0  0  0  0  0  0  0
  -25.7255  -36.4683   24.1363 C   0  0  0  0  0  0  0  0  0  0  0  0
  -26.5153  -33.8472   23.6341 C   0  0  0  0  0  0  0  0  0  0  0  0
  -26.6130  -30.5219   19.8160 C   0  0  0  0  0  0  0  0  0  0  0  0
  -21.9751  -10.3049   23.1018 C   0  0  0  0  0  0  0  0  0  0  0  0
  -22.4991   -8.6683   21.4036 C   0  0  0  0  0  0  0  0  0  0  0  0
  -27.6612  -29.6027   19.7989 C   0  0  0  0  0  0  0  0  0  0  0  0
  -22.5196   -6.5777   24.0586 C   0  0  0  0  0  0  0  0  0  0  0  0
  -22.9581   -5.2632   24.2182 C   0  0  0  0  0  0  0  0  0  0  0  0
  -31.8186  -19.1431   22.0712 C   0  0  0  0  0  0  0  0  0  0  0  0
  -32.0435  -16.8374   21.3856 C   0  0  0  0  0  0  0  0  0  0  0  0
  -26.1987  -27.9267   20.7324 C   0  0  0  0  0  0  0  0  0  0  0  0
  -21.1187   -4.4845   22.8591 C   0  0  0  0  0  0  0  0  0  0  0  0
  -23.5487  -10.8437   21.3496 C   0  0  0  0  0  0  0  0  0  0  0  0
  -32.6067  -18.0049   21.9009 C   0  0  0  0  0  0  0  0  0  0  0  0
  -24.1355  -13.0465   20.2044 C   0  0  0  0  0  0  0  0  0  0  0  0
  -24.8015  -35.4260   24.3106 C   0  0  0  0  0  0  0  0  0  0  0  0
  -25.3506  -30.1529   20.3024 C   0  0  0  0  0  0  0  0  0  0  0  0
  -25.2022  -34.0985   24.0670 C   0  0  0  0  0  0  0  0  0  0  0  0
  -25.1355  -28.8423   20.7523 C   0  0  0  0  0  0  0  0  0  0  0  0
  -30.4673  -19.1138   21.7264 C   0  0  0  0  0  0  0  0  0  0  0  0
  -29.9042  -17.9464   21.2111 C   0  0  0  0  0  0  0  0  0  0  0  0
  -30.6922  -16.8081   21.0407 C   0  0  0  0  0  0  0  0  0  0  0  0
  -21.7999   -9.0343   22.5538 C   0  0  0  0  0  0  0  0  0  0  0  0
  -27.4549  -28.3057   20.2598 C   0  0  0  0  0  0  0  0  0  0  0  0
  -21.3805   -6.8455   23.2993 C   0  0  0  0  0  0  0  0  0  0  0  0
  -22.2577   -4.2166   23.6185 C   0  0  0  0  0  0  0  0  0  0  0  0
  -20.6801   -5.7989   22.6995 C   0  0  0  0  0  0  0  0  0  0  0  0
  -24.4517  -11.7781   20.7269 C   0  0  0  0  0  0  0  0  0  0  0  0
  -25.3303  -13.5300   19.7301 C   0  0  0  0  0  0  0  0  0  0  0  0
  -34.5403  -17.2030   23.2028 C   0  0  0  0  0  0  0  0  0  0  0  0
  -34.0434  -18.0366   22.2688 C   0  0  0  0  0  0  0  0  0  0  0  0
  -29.4990  -23.9734   20.9707 C   0  0  0  0  0  0  0  0  0  0  0  0
  -30.4776  -21.8357   20.1915 C   0  0  0  0  0  0  0  0  0  0  0  0
  -31.2147  -21.3430   19.1844 C   0  0  0  0  0  0  0  0  0  0  0  0
  -29.4307  -25.2657   20.6201 C   0  0  0  0  0  0  0  0  0  0  0  0
  -22.8745  -13.7268   20.1526 C   0  0  0  0  0  0  0  0  0  0  0  0
  -23.5045  -31.1123   22.7056 C   0  0  0  0  0  0  0  0  0  0  0  0
  -21.3671  -29.0744   21.3637 C   0  0  0  0  0  0  0  0  0  0  0  0
  -20.8113  -26.3362   19.4041 C   0  0  0  0  0  0  0  0  0  0  0  0
  -30.8002  -14.4042   20.2953 C   0  0  0  0  0  0  0  0  0  0  0  0
  -23.4216  -35.7571   24.8213 C   0  0  0  0  0  0  0  0  0  0  0  0
  -24.2232  -31.1485   20.2894 C   0  0  0  0  0  0  0  0  0  0  0  0
  -23.7936  -28.3903   21.2655 C   0  0  0  0  0  0  0  0  0  0  0  0
  -35.9794  -17.1904   23.6324 C   0  0  0  0  0  0  0  0  0  0  0  0
  -34.9253  -19.0437   21.5651 C   0  0  0  0  0  0  0  0  0  0  0  0
  -30.7628  -23.1642   20.8452 C   0  0  0  0  0  0  0  0  0  0  0  0
  -28.3069  -23.2073   21.4823 C   0  0  0  0  0  0  0  0  0  0  0  0
  -22.4126  -34.6284   24.6256 C   0  0  0  0  0  0  0  0  0  0  0  0
  -36.7780  -18.3948   23.1364 C   0  0  0  0  0  0  0  0  0  0  0  0
  -36.4193  -18.7336   21.6950 C   0  0  0  0  0  0  0  0  0  0  0  0
  -29.7855  -11.2221   19.0617 C   0  0  0  0  0  0  0  0  0  0  0  0
  -23.0104  -33.2958   25.0657 C   0  0  0  0  0  0  0  0  0  0  0  0
  -28.2813  -11.1874   19.3420 C   0  0  0  0  0  0  0  0  0  0  0  0
  -30.5533  -11.9345   20.1737 C   0  0  0  0  0  0  0  0  0  0  0  0
  -28.5579  -13.2434   20.7854 C   0  0  0  0  0  0  0  0  0  0  0  0
  -28.0954  -21.9302   20.6692 C   0  0  0  0  0  0  0  0  0  0  0  0
  -24.2423  -32.9393   24.2250 C   0  0  1  0  0  0  0  0  0  0  0  0
  -23.1175  -30.8121   21.2851 C   0  0  1  0  0  0  0  0  0  0  0  0
  -27.7351  -12.5928   19.6614 C   0  0  2  0  0  0  0  0  0  0  0  0
  -28.2407  -18.0169   19.3364 C   0  0  0  0  0  0  0  0  0  0  0  0
  -18.9615  -24.8880   18.5216 C   0  0  0  0  0  0  0  0  0  0  0  0
  -21.1046  -27.7473   24.0986 C   0  0  0  0  0  0  0  0  0  0  0  0
  -20.0280  -25.7899   22.9680 C   0  0  0  0  0  0  0  0  0  0  0  0
  -18.9468  -28.0358   22.8676 C   0  0  0  0  0  0  0  0  0  0  0  0
  -21.4851  -26.9860   16.5965 C   0  0  0  0  0  0  0  0  0  0  0  0
  -28.4537  -17.9204   20.8428 C   0  0  0  0  0  0  0  0  0  0  0  0
  -29.6418  -20.3518   21.9188 C   0  0  0  0  0  0  0  0  0  0  0  0
  -28.1947  -26.0954   20.7319 C   0  0  0  0  0  0  0  0  0  1  0  0
  -21.0436  -27.6082   21.5212 C   0  0  1  0  0  0  0  0  0  0  0  0
  -19.8452  -26.0972   18.2577 C   0  0  2  0  0  0  0  0  0  0  0  0
  -20.3067  -27.3041   22.8560 C   0  0  0  0  0  0  0  0  0  0  0  0
  -25.7460  -11.4748   20.5967 N   0  0  0  0  0  0  0  0  0  0  0  0
  -26.2535  -12.5595   19.9869 N   0  0  0  0  0  0  0  0  0  0  0  0
  -22.7246  -29.4022   21.2385 N   0  0  0  0  0  0  0  0  0  0  0  0
  -29.9825  -13.2609   20.4183 N   0  0  0  0  0  0  0  0  0  0  0  0
  -25.6707  -14.6864   19.1223 N   0  0  0  0  0  0  0  0  0  0  0  0
  -22.0570  -13.5342   19.0305 N   0  0  0  0  0  0  0  0  0  0  0  0
  -30.1400  -15.6119   20.5193 N   0  0  0  0  0  0  0  0  0  0  0  0
  -23.8411  -32.4336   22.9297 N   0  0  0  0  0  0  0  0  0  0  0  0
  -20.2994  -27.2238   20.3267 N   0  0  0  0  0  0  0  0  0  0  0  0
  -29.3375  -21.0631   20.6297 N   0  3  2  0  0  0  0  0  0  0  0  0
  -20.5933  -25.8649   16.9898 N   0  3  0  0  0  0  0  0  0  0  0  0
  -22.4914  -14.4959   21.0665 O   0  0  0  0  0  0  0  0  0  0  0  0
  -23.4968  -30.2121   23.5370 O   0  0  0  0  0  0  0  0  0  0  0  0
  -20.4487  -29.8977   21.3450 O   0  0  0  0  0  0  0  0  0  0  0  0
  -21.9085  -25.7872   19.4759 O   0  0  0  0  0  0  0  0  0  0  0  0
  -31.9913  -14.3199   19.9854 O   0  0  0  0  0  0  0  0  0  0  0  0
  -20.9469   -8.1511   23.1411 O   0  0  0  0  0  0  0  0  0  0  0  0
  -28.4764  -27.4068   20.2448 O   0  0  0  0  0  0  0  0  0  1  0  0
  -22.6799   -2.9546   23.7706 F   0  0  0  0  0  0  0  0  0  0  0  0
  -19.5859   -6.0502   21.9679 F   0  0  0  0  0  0  0  0  0  0  0  0
  1  2  1  0  0  0  0
  1  5  2  0  0  0  0
  2  6  2  0  0  0  0
  3  8  2  0  0  0  0
  3 17  1  0  0  0  0
  4  9  1  0  0  0  0
  4 17  2  0  0  0  0
  5 20  1  0  0  0  0
  6 22  1  0  0  0  0
  7 10  2  0  0  0  0
  7 21  1  0  0  0  0
  8 27  1  0  0  0  0
  9 27  2  0  0  0  0
 10 28  1  0  0  0  0
 11 12  2  0  0  0  0
 11 29  1  0  0  0  0
 12 30  1  0  0  0  0
 13 18  2  0  0  0  0
 13 24  1  0  0  0  0
 14 18  1  0  0  0  0
 14 26  2  0  0  0  0
 15 23  1  0  0  0  0
 15 28  2  0  0  0  0
 16 30  2  0  0  0  0
 16 31  1  0  0  0  0
 17 32  1  0  0  0  0
 18 35  1  0  0  0  0
 19 32  1  0  0  0  0
 19 33  2  0  0  0  0
 19 40  1  0  0  0  0
 20 22  2  0  0  0  0
 20 45  1  0  0  0  0
 21 23  2  0  0  0  0
 21 46  1  0  0  0  0
 22 61  1  0  0  0  0
 23 47  1  0  0  0  0
 24 25  2  0  0  0  0
 24 71  1  0  0  0  0
 25 26  1  0  0  0  0
 25 70  1  0  0  0  0
 26 82  1  0  0  0  0
 27 92  1  0  0  0  0
 28 93  1  0  0  0  0
 29 31  2  0  0  0  0
 29 92  1  0  0  0  0
 30 94  1  0  0  0  0
 31 95  1  0  0  0  0
 32 76  2  0  0  0  0
 33 77  1  0  0  0  0
 33 80  1  0  0  0  0
 34 35  2  0  0  0  0
 34 48  1  0  0  0  0
 35 49  1  0  0  0  0
 36 39  2  0  0  0  0
 36 50  1  0  0  0  0
 36 51  1  0  0  0  0
 37 38  2  0  0  0  0
 37 50  1  0  0  0  0
 37 85  1  0  0  0  0
 39 72  1  0  0  0  0
 40 81  1  0  0  0  0
 40 87  2  0  0  0  0
 41 62  1  0  0  0  0
 41 83  1  0  0  0  0
 41 88  2  0  0  0  0
 42 73  1  0  0  0  0
 42 78  1  0  0  0  0
 42 89  2  0  0  0  0
 43 74  1  0  0  0  0
 43 84  1  0  0  0  0
 43 90  2  0  0  0  0
 44 79  1  0  0  0  0
 44 82  1  0  0  0  0
 44 91  2  0  0  0  0
 45 52  1  0  0  0  0
 46 62  1  0  0  0  0
 47 78  1  0  0  0  0
 48 53  1  0  0  0  0
 49 54  1  0  0  0  0
 51 60  1  0  0  0  0
 52 56  1  0  0  0  0
 53 54  1  0  0  0  0
 55 57  1  0  0  0  0
 55 58  1  0  0  0  0
 56 61  1  0  0  0  0
 57 63  1  0  0  0  0
 58 79  1  0  0  0  0
 59 63  1  0  0  0  0
 59 79  1  0  0  0  0
 60 85  1  0  0  0  0
 61 83  1  0  0  0  0
 62 78  1  0  0  0  0
 63 77  1  0  0  0  0
 64 70  1  0  0  0  0
 65 74  1  0  0  0  0
 66 75  1  0  0  0  0
 67 75  1  0  0  0  0
 68 75  1  0  0  0  0
 69 86  1  0  0  0  0
 71 85  1  0  0  0  0
 72 93  1  0  0  0  0
 73 75  1  0  0  0  0
 73 84  1  0  0  0  0
 74 86  1  0  0  0  0
 76 77  1  0  0  0  0
M  CHG  2  85   1  86   1
M  ISO  4  44 100  72 101  82 100  93 101
M  END
> <Batch ID>
0052

> <Smiles>
C=C1CC(=C[101CH2:1][101O:1]c2ccc3c(c2)CN(C(=O)C(NC(=O)C(C)NC)C(C)(C)C)C(C(=O)NC2CCCc4ccccc42)C3)CCN1Cc1cc(C2=CCCCC2)cc([100NH:0][100C:0](=O)N2CCCC(n3nc(-c4ccc(Oc5ccc(F)cc5F)cc4)c(C(N)=O)c3N)C2)c1CC

> <Shape>
0.391

> <Color>
0.138

> <Negative vol penalty>
0.000

$$$$

  -OEChem-04042322403D

 95105  0     1  0  0  0  0  0999 V2000
  -28.1114  -35.7814   26.2747 C   0  0  0  0  0  0  0  0  0  0  0  0
  -28.6688  -34.8785   25.3751 C   0  0  0  0  0  0  0  0  0  0  0  0
  -32.1488  -17.6970   22.7565 C   0  0  0  0  0  0  0  0  0  0  0  0
  -24.3433  -14.8153   23.1954 C   0  0  0  0  0  0  0  0  0  0  0  0
  -24.8411  -16.1254   21.2274 C   0  0  0  0  0  0  0  0  0  0  0  0
  -26.8863  -35.4976   26.8767 C   0  0  0  0  0  0  0  0  0  0  0  0
  -28.0019  -33.6905   25.0777 C   0  0  0  0  0  0  0  0  0  0  0  0
  -26.9476  -29.0748   19.7019 C   0  0  0  0  0  0  0  0  0  0  0  0
  -31.1100  -18.6239   22.8419 C   0  0  0  0  0  0  0  0  0  0  0  0
  -32.0023  -16.5559   21.9677 C   0  0  0  0  0  0  0  0  0  0  0  0
  -24.0137  -15.9805   23.8876 C   0  0  0  0  0  0  0  0  0  0  0  0
  -24.5115  -17.2906   21.9196 C   0  0  0  0  0  0  0  0  0  0  0  0
  -27.0353  -27.7124   19.4192 C   0  0  0  0  0  0  0  0  0  0  0  0
  -25.6455  -18.5052   25.4328 C   0  0  0  0  0  0  0  0  0  0  0  0
  -26.1429  -18.6516   26.7277 C   0  0  0  0  0  0  0  0  0  0  0  0
  -24.8867  -27.3646   20.4593 C   0  0  0  0  0  0  0  0  0  0  0  0
  -26.8634  -23.1845   17.3017 C   0  0  0  0  0  0  0  0  0  0  0  0
  -29.7781  -17.2685   21.3499 C   0  0  0  0  0  0  0  0  0  0  0  0
  -23.8861  -18.7902   27.5790 C   0  0  0  0  0  0  0  0  0  0  0  0
  -24.7570  -14.8877   21.8652 C   0  0  0  0  0  0  0  0  0  0  0  0
  -27.2896  -21.2953   19.3062 C   0  0  0  0  0  0  0  0  0  0  0  0
  -24.2613  -12.5821   20.8927 C   0  0  0  0  0  0  0  0  0  0  0  0
  -26.1993  -34.3101   26.5792 C   0  0  0  0  0  0  0  0  0  0  0  0
  -25.8319  -29.5915   20.3762 C   0  0  0  0  0  0  0  0  0  0  0  0
  -26.7670  -33.3899   25.6773 C   0  0  0  0  0  0  0  0  0  0  0  0
  -24.7861  -28.7343   20.7471 C   0  0  0  0  0  0  0  0  0  0  0  0
  -27.3617  -22.6641   19.6324 C   0  0  0  0  0  0  0  0  0  0  0  0
  -29.9246  -18.4096   22.1386 C   0  0  0  0  0  0  0  0  0  0  0  0
  -27.1549  -23.5984   18.6032 C   0  0  0  0  0  0  0  0  0  0  0  0
  -26.7718  -21.8276   17.0041 C   0  0  0  0  0  0  0  0  0  0  0  0
  -26.9807  -20.8807   18.0039 C   0  0  0  0  0  0  0  0  0  0  0  0
  -30.8169  -16.3416   21.2645 C   0  0  0  0  0  0  0  0  0  0  0  0
  -24.0978  -17.2182   23.2498 C   0  0  0  0  0  0  0  0  0  0  0  0
  -26.0060  -26.8566   19.8005 C   0  0  0  0  0  0  0  0  0  0  0  0
  -24.2683  -18.5015   25.2110 C   0  0  0  0  0  0  0  0  0  0  0  0
  -25.2633  -18.7940   27.8008 C   0  0  0  0  0  0  0  0  0  0  0  0
  -23.3887  -18.6439   26.2841 C   0  0  0  0  0  0  0  0  0  0  0  0
  -25.0982  -13.6845   21.1497 C   0  0  0  0  0  0  0  0  0  0  0  0
  -25.0511  -11.7090   20.1854 C   0  0  0  0  0  0  0  0  0  0  0  0
  -27.4970  -20.2292   20.3132 C   0  0  0  0  0  0  0  0  0  0  0  0
  -29.7688  -21.0662   20.7213 C   0  0  0  0  0  0  0  0  0  0  0  0
  -30.5130  -20.8743   19.6207 C   0  0  0  0  0  0  0  0  0  0  0  0
  -22.8923  -12.3666   21.2604 C   0  0  0  0  0  0  0  0  0  0  0  0
  -25.3779  -31.0858   23.1447 C   0  0  0  0  0  0  0  0  0  0  0  0
  -22.3389  -31.3706   22.0468 C   0  0  0  0  0  0  0  0  0  0  0  0
  -19.8757  -30.1925   19.9995 C   0  0  0  0  0  0  0  0  0  0  0  0
  -29.5617  -14.8077   19.6958 C   0  0  0  0  0  0  0  0  0  0  0  0
  -24.9005  -34.0250   27.2908 C   0  0  0  0  0  0  0  0  0  0  0  0
  -25.7403  -31.0677   20.6499 C   0  0  0  0  0  0  0  0  0  0  0  0
  -27.6583  -23.1815   21.0255 C   0  0  0  0  0  0  0  0  0  0  0  0
  -23.5577  -29.2423   21.4551 C   0  0  0  0  0  0  0  0  0  0  0  0
  -29.9890  -22.2276   21.6513 C   0  0  0  0  0  0  0  0  0  0  0  0
  -24.0781  -32.9174   26.6372 C   0  0  0  0  0  0  0  0  0  0  0  0
  -29.1503  -23.4581   21.2685 C   0  0  0  0  0  0  0  0  0  0  0  0
  -29.8207  -10.9728   20.0003 C   0  0  0  0  0  0  0  0  0  0  0  0
  -24.9627  -31.7190   26.3084 C   0  0  0  0  0  0  0  0  0  0  0  0
  -28.3314  -10.8743   20.3057 C   0  0  0  0  0  0  0  0  0  0  0  0
  -30.3008  -12.4120   20.1663 C   0  0  0  0  0  0  0  0  0  0  0  0
  -28.3368  -12.8859   18.7000 C   0  0  0  0  0  0  0  0  0  0  0  0
  -26.0621  -32.1021   25.3103 C   0  0  1  0  0  0  0  0  0  0  0  0
  -24.7937  -31.4050   21.7977 C   0  0  1  0  0  0  0  0  0  0  0  0
  -27.5016  -11.7749   19.3689 C   0  0  2  0  0  0  0  0  0  0  0  0
  -26.4465  -21.4186   15.6042 C   0  0  0  0  0  0  0  0  0  0  0  0
  -26.9028  -19.4300   17.6411 C   0  0  0  0  0  0  0  0  0  0  0  0
  -17.4881  -30.6089   19.3488 C   0  0  0  0  0  0  0  0  0  0  0  0
  -21.4081  -30.1088   24.6643 C   0  0  0  0  0  0  0  0  0  0  0  0
  -19.1879  -29.6826   23.5885 C   0  0  0  0  0  0  0  0  0  0  0  0
  -20.0059  -32.0221   23.8720 C   0  0  0  0  0  0  0  0  0  0  0  0
  -20.6126  -30.7095   17.1802 C   0  0  0  0  0  0  0  0  0  0  0  0
  -28.8067  -19.4076   22.2309 C   0  0  0  0  0  0  0  0  0  0  0  0
  -27.2570  -25.0731   18.8465 C   0  0  0  0  0  0  0  0  0  1  0  0
  -21.0863  -30.5329   22.1379 C   0  0  1  0  0  0  0  0  0  0  0  0
  -18.9462  -30.9012   19.0309 C   0  0  2  0  0  0  0  0  0  0  0  0
  -20.4459  -30.5764   23.5541 C   0  0  0  0  0  0  0  0  0  0  0  0
  -26.3257  -13.5284   20.6468 N   0  0  0  0  0  0  0  0  0  0  0  0
  -26.2659  -12.3176   20.0667 N   0  0  0  0  0  0  0  0  0  0  0  0
  -28.7051  -20.2266   21.0274 N   0  0  0  0  0  0  0  0  0  0  0  0
  -23.5177  -30.6924   21.7059 N   0  0  0  0  0  0  0  0  0  0  0  0
  -29.4019  -13.4058   19.5614 N   0  0  0  0  0  0  0  0  0  0  0  0
  -24.8181  -10.4876   19.6597 N   0  0  0  0  0  0  0  0  0  0  0  0
  -22.2301  -13.3662   21.9861 N   0  0  0  0  0  0  0  0  0  0  0  0
  -30.6686  -15.1821   20.4623 N   0  0  0  0  0  0  0  0  0  0  0  0
  -25.5218  -32.1845   23.9703 N   0  0  0  0  0  0  0  0  0  0  0  0
  -20.2069  -30.9960   21.0700 N   0  0  0  0  0  0  0  0  0  0  0  0
  -19.2201  -30.4605   17.6338 N   0  3  0  0  0  0  0  0  0  0  0  0
  -26.5710  -19.4380   20.4873 O   0  0  0  0  0  0  0  0  0  0  0  0
  -22.2795  -11.3117   20.9686 O   0  0  0  0  0  0  0  0  0  0  0  0
  -25.6748  -29.9281   23.4156 O   0  0  0  0  0  0  0  0  0  0  0  0
  -22.2724  -32.5832   22.2629 O   0  0  0  0  0  0  0  0  0  0  0  0
  -20.2657  -29.0400   19.8259 O   0  0  0  0  0  0  0  0  0  0  0  0
  -28.7803  -15.6022   19.1687 O   0  0  0  0  0  0  0  0  0  0  0  0
  -23.7760  -18.3554   23.9249 O   0  0  0  0  0  0  0  0  0  0  0  0
  -26.0900  -25.5163   19.5244 O   0  0  0  0  0  0  0  0  0  1  0  0
  -25.7411  -18.9329   29.0444 F   0  0  0  0  0  0  0  0  0  0  0  0
  -22.0646  -18.6399   26.0774 F   0  0  0  0  0  0  0  0  0  0  0  0
  1  2  1  0  0  0  0
  1  6  2  0  0  0  0
  2  7  2  0  0  0  0
  3  9  2  0  0  0  0
  3 10  1  0  0  0  0
  4 11  2  0  0  0  0
  4 20  1  0  0  0  0
  5 12  1  0  0  0  0
  5 20  2  0  0  0  0
  6 23  1  0  0  0  0
  7 25  1  0  0  0  0
  8 13  2  0  0  0  0
  8 24  1  0  0  0  0
  9 28  1  0  0  0  0
 10 32  2  0  0  0  0
 11 33  1  0  0  0  0
 12 33  2  0  0  0  0
 13 34  1  0  0  0  0
 14 15  2  0  0  0  0
 14 35  1  0  0  0  0
 15 36  1  0  0  0  0
 16 26  1  0  0  0  0
 16 34  2  0  0  0  0
 17 29  2  0  0  0  0
 17 30  1  0  0  0  0
 18 28  2  0  0  0  0
 18 32  1  0  0  0  0
 19 36  2  0  0  0  0
 19 37  1  0  0  0  0
 20 38  1  0  0  0  0
 21 27  2  0  0  0  0
 21 31  1  0  0  0  0
 21 40  1  0  0  0  0
 22 38  1  0  0  0  0
 22 39  2  0  0  0  0
 22 43  1  0  0  0  0
 23 25  2  0  0  0  0
 23 48  1  0  0  0  0
 24 26  2  0  0  0  0
 24 49  1  0  0  0  0
 25 60  1  0  0  0  0
 26 51  1  0  0  0  0
 27 29  1  0  0  0  0
 27 50  1  0  0  0  0
 28 70  1  0  0  0  0
 29 71  1  0  0  0  0
 30 31  2  0  0  0  0
 30 63  1  0  0  0  0
 31 64  1  0  0  0  0
 32 82  1  0  0  0  0
 33 92  1  0  0  0  0
 34 93  1  0  0  0  0
 35 37  2  0  0  0  0
 35 92  1  0  0  0  0
 36 94  1  0  0  0  0
 37 95  1  0  0  0  0
 38 75  2  0  0  0  0
 39 76  1  0  0  0  0
 39 80  1  0  0  0  0
 40 77  1  0  0  0  0
 40 86  2  0  0  0  0
 41 42  2  0  0  0  0
 41 52  1  0  0  0  0
 41 77  1  0  0  0  0
 43 81  1  0  0  0  0
 43 87  2  0  0  0  0
 44 61  1  0  0  0  0
 44 83  1  0  0  0  0
 44 88  2  0  0  0  0
 45 72  1  0  0  0  0
 45 78  1  0  0  0  0
 45 89  2  0  0  0  0
 46 73  1  0  0  0  0
 46 84  1  0  0  0  0
 46 90  2  0  0  0  0
 47 79  1  0  0  0  0
 47 82  1  0  0  0  0
 47 91  2  0  0  0  0
 48 53  1  0  0  0  0
 49 61  1  0  0  0  0
 50 54  1  0  0  0  0
 51 78  1  0  0  0  0
 52 54  1  0  0  0  0
 53 56  1  0  0  0  0
 55 57  1  0  0  0  0
 55 58  1  0  0  0  0
 56 60  1  0  0  0  0
 57 62  1  0  0  0  0
 58 79  1  0  0  0  0
 59 62  1  0  0  0  0
 59 79  1  0  0  0  0
 60 83  1  0  0  0  0
 61 78  1  0  0  0  0
 62 76  1  0  0  0  0
 65 73  1  0  0  0  0
 66 74  1  0  0  0  0
 67 74  1  0  0  0  0
 68 74  1  0  0  0  0
 69 85  1  0  0  0  0
 70 77  1  0  0  0  0
 71 93  1  0  0  0  0
 72 74  1  0  0  0  0
 72 84  1  0  0  0  0
 73 85  1  0  0  0  0
 75 76  1  0  0  0  0
M  CHG  1  85   1
M  ISO  4  47 100  71 101  82 100  93 101
M  END
> <Batch ID>
0052

> <Smiles>
C=C1CCCc2c([101CH2:1][101O:1]c3ccc4c(c3)CN(C(=O)C(NC(=O)C(C)NC)C(C)(C)C)C(C(=O)NC3CCCc5ccccc53)C4)cc(C)c(C)c2C(=O)N1Cc1cccc([100NH:0][100C:0](=O)N2CCCC(n3nc(-c4ccc(Oc5ccc(F)cc5F)cc4)c(C(N)=O)c3N)C2)c1

> <Shape>
0.292

> <Color>
0.085

> <Negative vol penalty>
0.000

$$$$

  -OEChem-04042322403D

 84 92  0     1  0  0  0  0  0999 V2000
  -32.3806  -14.2464   20.8162 C   0  0  0  0  0  0  0  0  0  0  0  0
  -31.5922  -15.3883   20.9149 C   0  0  0  0  0  0  0  0  0  0  0  0
  -22.6704  -27.6170   25.4619 C   0  0  0  0  0  0  0  0  0  0  0  0
  -28.3298  -24.4400   21.1182 C   0  0  0  0  0  0  0  0  0  0  0  0
  -29.3242  -25.7325   19.3356 C   0  0  0  0  0  0  0  0  0  0  0  0
  -22.6858  -28.6166   24.4893 C   0  0  0  0  0  0  0  0  0  0  0  0
  -31.8207  -13.0507   20.3680 C   0  0  0  0  0  0  0  0  0  0  0  0
  -30.2436  -15.3356   20.5644 C   0  0  0  0  0  0  0  0  0  0  0  0
  -25.6410  -18.4297   23.1620 C   0  0  0  0  0  0  0  0  0  0  0  0
  -22.1538  -26.3572   25.1591 C   0  0  0  0  0  0  0  0  0  0  0  0
  -28.7181  -23.2618   20.4806 C   0  0  0  0  0  0  0  0  0  0  0  0
  -29.7125  -24.5542   18.6979 C   0  0  0  0  0  0  0  0  0  0  0  0
  -24.9783  -19.6024   22.8023 C   0  0  0  0  0  0  0  0  0  0  0  0
  -27.6502  -21.3584   17.8997 C   0  0  0  0  0  0  0  0  0  0  0  0
  -26.7123  -20.3296   17.8136 C   0  0  0  0  0  0  0  0  0  0  0  0
  -23.2554  -18.2942   21.7349 C   0  0  0  0  0  0  0  0  0  0  0  0
  -28.1917  -18.8772   19.0542 C   0  0  0  0  0  0  0  0  0  0  0  0
  -28.6328  -25.6754   20.5457 C   0  0  0  0  0  0  0  0  0  0  0  0
  -22.1847  -28.3565   23.2138 C   0  0  0  0  0  0  0  0  0  0  0  0
  -21.6680  -27.0967   22.9110 C   0  0  0  0  0  0  0  0  0  0  0  0
  -28.9683  -27.6308   22.1493 C   0  0  0  0  0  0  0  0  0  0  0  0
  -30.4623  -12.9809   20.0210 C   0  0  0  0  0  0  0  0  0  0  0  0
  -25.1206  -17.1787   22.8008 C   0  0  0  0  0  0  0  0  0  0  0  0
  -29.6653  -14.1382   20.1099 C   0  0  0  0  0  0  0  0  0  0  0  0
  -23.9121  -17.1071   22.0934 C   0  0  0  0  0  0  0  0  0  0  0  0
  -21.6526  -26.0970   23.8837 C   0  0  0  0  0  0  0  0  0  0  0  0
  -29.4095  -23.3189   19.2705 C   0  0  0  0  0  0  0  0  0  0  0  0
  -23.7868  -19.5349   22.0861 C   0  0  0  0  0  0  0  0  0  0  0  0
  -28.8589  -21.1467   18.5629 C   0  0  0  0  0  0  0  0  0  0  0  0
  -26.9830  -19.0890   18.3909 C   0  0  0  0  0  0  0  0  0  0  0  0
  -29.1296  -19.9061   19.1402 C   0  0  0  0  0  0  0  0  0  0  0  0
  -28.2315  -26.8929   21.2036 C   0  0  0  0  0  0  0  0  0  0  0  0
  -28.1561  -28.6925   22.4648 C   0  0  0  0  0  0  0  0  0  0  0  0
  -22.0022  -26.3479   20.6693 C   0  0  0  0  0  0  0  0  0  0  0  0
  -21.1406  -26.8209   21.5771 C   0  0  0  0  0  0  0  0  0  0  0  0
  -22.2243  -29.4379   22.2210 C   0  0  0  0  0  0  0  0  0  0  0  0
  -30.2706  -27.3791   22.6938 C   0  0  0  0  0  0  0  0  0  0  0  0
  -26.1342  -14.7624   21.0014 C   0  0  0  0  0  0  0  0  0  0  0  0
  -23.4655  -13.3088   22.1359 C   0  0  0  0  0  0  0  0  0  0  0  0
  -22.0404  -22.6613   22.5792 C   0  0  0  0  0  0  0  0  0  0  0  0
  -20.3347  -13.6228   23.4573 C   0  0  0  0  0  0  0  0  0  0  0  0
  -29.9130  -11.6778   19.4968 C   0  0  0  0  0  0  0  0  0  0  0  0
  -25.8337  -15.9223   23.2195 C   0  0  0  0  0  0  0  0  0  0  0  0
  -23.3010  -15.7882   21.6990 C   0  0  0  0  0  0  0  0  0  0  0  0
  -28.3878  -11.6138   19.5016 C   0  0  0  0  0  0  0  0  0  0  0  0
  -24.7039  -31.4534   20.6301 C   0  0  0  0  0  0  0  0  0  0  0  0
  -27.7979  -12.8951   18.9211 C   0  0  0  0  0  0  0  0  0  0  0  0
  -25.9558  -30.5750   20.6670 C   0  0  0  0  0  0  0  0  0  0  0  0
  -23.4391  -30.6237   20.4243 C   0  0  0  0  0  0  0  0  0  0  0  0
  -24.5150  -28.6426   21.4355 C   0  0  0  0  0  0  0  0  0  0  0  0
  -28.1926  -14.1148   19.7626 C   0  0  1  0  0  0  0  0  0  0  0  0
  -25.4799  -14.7174   22.3532 C   0  0  1  0  0  0  0  0  0  0  0  0
  -25.8073  -29.4351   21.6922 C   0  0  1  0  0  0  0  0  0  0  0  0
  -19.7053  -27.0593   21.2111 C   0  0  0  0  0  0  0  0  0  0  0  0
  -18.3831  -12.2564   24.2457 C   0  0  0  0  0  0  0  0  0  0  0  0
  -22.6908  -12.7478   19.2384 C   0  0  0  0  0  0  0  0  0  0  0  0
  -20.3645  -12.2636   20.0272 C   0  0  0  0  0  0  0  0  0  0  0  0
  -22.2659  -10.8552   20.8170 C   0  0  0  0  0  0  0  0  0  0  0  0
  -20.5332  -14.7109   26.2024 C   0  0  0  0  0  0  0  0  0  0  0  0
  -21.1054  -24.7284   23.5981 C   0  0  0  0  0  0  0  0  0  0  0  0
  -23.2871  -21.8028   22.5986 C   0  0  0  0  0  0  0  0  0  1  0  0
  -22.0265  -13.2162   21.6890 C   0  0  1  0  0  0  0  0  0  0  0  0
  -19.6725  -12.9547   24.6488 C   0  0  2  0  0  0  0  0  0  0  0  0
  -21.8492  -12.2958   20.4485 C   0  0  0  0  0  0  0  0  0  0  0  0
  -27.0426  -27.4394   20.9359 N   0  0  0  0  0  0  0  0  0  0  0  0
  -27.0260  -28.5320   21.7182 N   0  0  0  0  0  0  0  0  0  0  0  0
  -23.3585  -29.5493   21.4132 N   0  0  0  0  0  0  0  0  0  0  0  0
  -24.0391  -14.5881   22.1262 N   0  0  0  0  0  0  0  0  0  0  0  0
  -28.3054  -29.7383   23.3053 N   0  0  0  0  0  0  0  0  0  0  0  0
  -30.9679  -26.2432   22.2603 N   0  0  0  0  0  0  0  0  0  0  0  0
  -27.3878  -14.1821   20.9635 N   0  0  0  0  0  0  0  0  0  0  0  0
  -22.1555  -23.7510   23.4279 N   0  0  0  0  0  0  0  0  0  0  0  0
  -21.2621  -12.7965   22.8586 N   0  0  0  0  0  0  0  0  0  0  0  0
  -19.3523  -13.9644   25.6970 N   0  3  0  0  0  0  0  0  0  0  0  0
  -21.2440  -30.1803   22.1866 O   0  0  0  0  0  0  0  0  0  0  0  0
  -30.7933  -28.1300   23.5520 O   0  0  0  0  0  0  0  0  0  0  0  0
  -25.5448  -15.2835   20.0619 O   0  0  0  0  0  0  0  0  0  0  0  0
  -24.0565  -12.2848   22.4876 O   0  0  0  0  0  0  0  0  0  0  0  0
  -21.0622  -22.3964   21.8857 O   0  0  0  0  0  0  0  0  0  0  0  0
  -20.0544  -14.7623   23.0918 O   0  0  0  0  0  0  0  0  0  0  0  0
  -29.7887  -22.1693   18.6481 O   0  0  0  0  0  0  0  0  0  0  0  0
  -23.1382  -20.6780   21.7332 O   0  0  0  0  0  0  0  0  0  1  0  0
  -26.0816  -18.1016   18.3096 F   0  0  0  0  0  0  0  0  0  0  0  0
  -30.2886  -19.6970   19.7796 F   0  0  0  0  0  0  0  0  0  0  0  0
  1  2  1  0  0  0  0
  1  7  2  0  0  0  0
  2  8  2  0  0  0  0
  3  6  2  0  0  0  0
  3 10  1  0  0  0  0
  4 11  2  0  0  0  0
  4 18  1  0  0  0  0
  5 12  1  0  0  0  0
  5 18  2  0  0  0  0
  6 19  1  0  0  0  0
  7 22  1  0  0  0  0
  8 24  1  0  0  0  0
  9 13  2  0  0  0  0
  9 23  1  0  0  0  0
 10 26  2  0  0  0  0
 11 27  1  0  0  0  0
 12 27  2  0  0  0  0
 13 28  1  0  0  0  0
 14 15  2  0  0  0  0
 14 29  1  0  0  0  0
 15 30  1  0  0  0  0
 16 25  1  0  0  0  0
 16 28  2  0  0  0  0
 17 30  2  0  0  0  0
 17 31  1  0  0  0  0
 18 32  1  0  0  0  0
 19 20  2  0  0  0  0
 19 36  1  0  0  0  0
 20 26  1  0  0  0  0
 20 35  1  0  0  0  0
 21 32  1  0  0  0  0
 21 33  2  0  0  0  0
 21 37  1  0  0  0  0
 22 24  2  0  0  0  0
 22 42  1  0  0  0  0
 23 25  2  0  0  0  0
 23 43  1  0  0  0  0
 24 51  1  0  0  0  0
 25 44  1  0  0  0  0
 26 60  1  0  0  0  0
 27 81  1  0  0  0  0
 28 82  1  0  0  0  0
 29 31  2  0  0  0  0
 29 81  1  0  0  0  0
 30 83  1  0  0  0  0
 31 84  1  0  0  0  0
 32 65  2  0  0  0  0
 33 66  1  0  0  0  0
 33 69  1  0  0  0  0
 34 35  2  0  0  0  0
 35 54  1  0  0  0  0
 36 67  1  0  0  0  0
 36 75  2  0  0  0  0
 37 70  1  0  0  0  0
 37 76  2  0  0  0  0
 38 52  1  0  0  0  0
 38 71  1  0  0  0  0
 38 77  2  0  0  0  0
 39 62  1  0  0  0  0
 39 68  1  0  0  0  0
 39 78  2  0  0  0  0
 40 61  1  0  0  0  0
 40 72  1  0  0  0  0
 40 79  2  0  0  0  0
 41 63  1  0  0  0  0
 41 73  1  0  0  0  0
 41 80  2  0  0  0  0
 42 45  1  0  0  0  0
 43 52  1  0  0  0  0
 44 68  1  0  0  0  0
 45 47  1  0  0  0  0
 46 48  1  0  0  0  0
 46 49  1  0  0  0  0
 47 51  1  0  0  0  0
 48 53  1  0  0  0  0
 49 67  1  0  0  0  0
 50 53  1  0  0  0  0
 50 67  1  0  0  0  0
 51 71  1  0  0  0  0
 52 68  1  0  0  0  0
 53 66  1  0  0  0  0
 55 63  1  0  0  0  0
 56 64  1  0  0  0  0
 57 64  1  0  0  0  0
 58 64  1  0  0  0  0
 59 74  1  0  0  0  0
 60 72  1  0  0  0  0
 61 82  1  0  0  0  0
 62 64  1  0  0  0  0
 62 73  1  0  0  0  0
 63 74  1  0  0  0  0
 65 66  1  0  0  0  0
M  CHG  1  74   1
M  ISO  4  19 100  36 100  61 101  82 101
M  END
> <Batch ID>
0052

> <Smiles>
C=C(C)c1c(CNC(=O)[101CH2:1][101O:1]c2ccc3c(c2)CN(C(=O)C(NC(=O)C(C)NC)C(C)(C)C)C(C(=O)NC2CCCc4ccccc42)C3)ccc[100c:0]1[100C:0](=O)N1CCCC(n2nc(-c3ccc(Oc4ccc(F)cc4F)cc3)c(C(N)=O)c2N)C1

> <Shape>
0.255

> <Color>
0.066

> <Negative vol penalty>
0.000

$$$$

  -OEChem-04042322403D

 89 97  0     1  0  0  0  0  0999 V2000
  -16.6747  -29.0606   22.7704 C   0  0  0  0  0  0  0  0  0  0  0  0
  -17.8298  -29.0058   21.9970 C   0  0  0  0  0  0  0  0  0  0  0  0
  -26.2974  -13.0660   21.7609 C   0  0  0  0  0  0  0  0  0  0  0  0
  -25.2638  -14.5245   20.1356 C   0  0  0  0  0  0  0  0  0  0  0  0
  -16.7590  -28.9385   24.1568 C   0  0  0  0  0  0  0  0  0  0  0  0
  -19.0700  -28.8300   22.6097 C   0  0  0  0  0  0  0  0  0  0  0  0
  -23.8629  -25.7264   20.3957 C   0  0  0  0  0  0  0  0  0  0  0  0
  -25.1050  -12.3519   21.8784 C   0  0  0  0  0  0  0  0  0  0  0  0
  -24.0713  -13.8104   20.2531 C   0  0  0  0  0  0  0  0  0  0  0  0
  -25.0201  -26.1347   19.7339 C   0  0  0  0  0  0  0  0  0  0  0  0
  -22.4403   -9.9223   22.3385 C   0  0  0  0  0  0  0  0  0  0  0  0
  -27.1807  -22.8586   17.2854 C   0  0  0  0  0  0  0  0  0  0  0  0
  -22.5159   -8.5296   22.3403 C   0  0  0  0  0  0  0  0  0  0  0  0
  -25.8019  -22.6683   17.3763 C   0  0  0  0  0  0  0  0  0  0  0  0
  -26.2144  -26.1265   21.8298 C   0  0  0  0  0  0  0  0  0  0  0  0
  -25.9870  -22.4744   19.7774 C   0  0  0  0  0  0  0  0  0  0  0  0
  -23.5179   -8.5812   20.1424 C   0  0  0  0  0  0  0  0  0  0  0  0
  -26.3768  -14.1523   20.8895 C   0  0  0  0  0  0  0  0  0  0  0  0
  -28.6644  -14.6407   19.8717 C   0  0  0  0  0  0  0  0  0  0  0  0
  -17.9999  -28.7515   24.7859 C   0  0  0  0  0  0  0  0  0  0  0  0
  -23.8700  -25.5253   21.7835 C   0  0  0  0  0  0  0  0  0  0  0  0
  -19.1711  -28.7067   24.0058 C   0  0  0  0  0  0  0  0  0  0  0  0
  -25.0567  -25.7132   22.5064 C   0  0  0  0  0  0  0  0  0  0  0  0
  -27.3659  -22.6647   19.6864 C   0  0  0  0  0  0  0  0  0  0  0  0
  -23.9920  -12.7241   21.1245 C   0  0  0  0  0  0  0  0  0  0  0  0
  -26.1954  -26.3376   20.4513 C   0  0  0  0  0  0  0  0  0  0  0  0
  -27.9627  -22.8568   18.4404 C   0  0  0  0  0  0  0  0  0  0  0  0
  -22.9034  -10.6446   21.2387 C   0  0  0  0  0  0  0  0  0  0  0  0
  -23.0548   -7.8590   21.2422 C   0  0  0  0  0  0  0  0  0  0  0  0
  -23.4422   -9.9740   20.1407 C   0  0  0  0  0  0  0  0  0  0  0  0
  -25.2051  -22.4762   18.6223 C   0  0  0  0  0  0  0  0  0  0  0  0
  -27.6081  -14.8907   20.7681 C   0  0  0  0  0  0  0  0  0  0  0  0
  -29.5918  -15.6138   20.1539 C   0  0  0  0  0  0  0  0  0  0  0  0
  -28.7955  -13.6202   18.8732 C   0  0  0  0  0  0  0  0  0  0  0  0
  -22.3475  -26.8346   24.2475 C   0  0  0  0  0  0  0  0  0  0  0  0
  -23.8337  -24.4822   25.9148 C   0  0  0  0  0  0  0  0  0  0  0  0
  -26.4334  -22.2816   26.1295 C   0  0  0  0  0  0  0  0  0  0  0  0
  -30.8868  -25.4610   18.8531 C   0  0  0  0  0  0  0  0  0  0  0  0
  -29.1653  -21.0736   22.5744 C   0  0  0  0  0  0  0  0  0  0  0  0
  -18.0458  -28.6719   26.2913 C   0  0  0  0  0  0  0  0  0  0  0  0
  -22.6203  -25.0591   22.4786 C   0  0  0  0  0  0  0  0  0  0  0  0
  -25.1221  -25.4914   23.9947 C   0  0  0  0  0  0  0  0  0  0  0  0
  -19.3594  -28.1128   26.8319 C   0  0  0  0  0  0  0  0  0  0  0  0
  -31.1597  -18.3646   23.7407 C   0  0  0  0  0  0  0  0  0  0  0  0
  -20.5465  -28.7740   26.1388 C   0  0  0  0  0  0  0  0  0  0  0  0
  -30.5710  -17.1445   23.0302 C   0  0  0  0  0  0  0  0  0  0  0  0
  -30.0772  -19.3707   24.1252 C   0  0  0  0  0  0  0  0  0  0  0  0
  -28.6181  -18.5789   22.3036 C   0  0  0  0  0  0  0  0  0  0  0  0
  -20.5323  -28.4923   24.6315 C   0  0  1  0  0  0  0  0  0  0  0  0
  -22.6102  -25.3815   23.9696 C   0  0  1  0  0  0  0  0  0  0  0  0
  -29.6778  -17.5619   21.8464 C   0  0  2  0  0  0  0  0  0  0  0  0
  -27.8204  -20.3977   27.0374 C   0  0  0  0  0  0  0  0  0  0  0  0
  -31.5504  -25.4273   16.4266 C   0  0  0  0  0  0  0  0  0  0  0  0
  -32.1730  -23.5131   17.9029 C   0  0  0  0  0  0  0  0  0  0  0  0
  -24.9078  -26.6502   27.7738 C   0  0  0  0  0  0  0  0  0  0  0  0
  -26.5779  -24.9924   28.6285 C   0  0  0  0  0  0  0  0  0  0  0  0
  -24.1379  -24.5713   28.9311 C   0  0  0  0  0  0  0  0  0  0  0  0
  -24.9343  -20.2684   24.5615 C   0  0  0  0  0  0  0  0  0  0  0  0
  -28.1879  -22.6577   20.9329 C   0  0  0  0  0  0  0  0  0  0  0  0
  -29.6309  -27.4162   19.7256 C   0  0  0  0  0  0  0  0  0  0  0  0
  -28.4946  -26.9257   20.6049 C   0  0  0  0  0  0  0  0  0  1  0  0
  -29.7664  -23.8466   17.2477 C   0  0  0  0  0  0  0  0  0  0  0  0
  -25.1576  -24.3500   26.6282 C   0  0  1  0  0  0  0  0  0  0  0  0
  -26.4742  -20.7995   26.4550 C   0  0  2  0  0  0  0  0  0  0  0  0
  -31.0838  -24.5600   17.6127 C   0  0  0  0  0  0  0  0  0  0  0  0
  -25.1939  -25.1471   27.9627 C   0  0  0  0  0  0  0  0  0  0  0  0
  -27.8418  -15.9402   21.5605 N   0  0  0  0  0  0  0  0  0  0  0  0
  -29.0556  -16.3582   21.1631 N   0  0  0  0  0  0  0  0  0  0  0  0
  -23.8723  -25.0418   24.6299 N   0  0  0  0  0  0  0  0  0  0  0  0
  -29.2667  -19.7262   22.9579 N   0  0  0  0  0  0  0  0  0  0  0  0
  -30.8054  -15.8966   19.6348 N   0  0  0  0  0  0  0  0  0  0  0  0
  -27.7490  -12.7014   18.7153 N   0  0  0  0  0  0  0  0  0  0  0  0
  -21.0076  -27.1520   24.3633 N   0  0  0  0  0  0  0  0  0  0  0  0
  -29.9485  -26.4730   18.6864 N   0  0  0  0  0  0  0  0  0  0  0  0
  -25.3983  -22.9191   26.7802 N   0  0  0  0  0  0  0  0  0  0  0  0
  -28.3829  -21.3229   21.4535 N   0  0  0  0  0  0  0  0  0  0  0  0
  -26.2343  -19.9923   25.2254 N   0  3  0  0  0  0  0  0  0  0  0  0
  -29.8178  -13.5158   18.1537 O   0  0  0  0  0  0  0  0  0  0  0  0
  -23.2907  -27.6101   24.3508 O   0  0  0  0  0  0  0  0  0  0  0  0
  -22.8042  -24.0963   26.4741 O   0  0  0  0  0  0  0  0  0  0  0  0
  -27.2414  -22.8208   25.3765 O   0  0  0  0  0  0  0  0  0  0  0  0
  -31.5194  -25.2887   19.8956 O   0  0  0  0  0  0  0  0  0  0  0  0
  -29.7346  -21.9864   23.1825 O   0  0  0  0  0  0  0  0  0  0  0  0
  -22.8283  -12.0274   21.2388 O   0  0  0  0  0  0  0  0  0  0  0  0
  -27.3261  -26.7367   19.8079 O   0  0  0  0  0  0  0  0  0  1  0  0
  -29.3153  -23.0448   18.3336 O   0  0  0  0  0  0  0  0  0  0  0  0
  -23.1288   -6.5216   21.2447 F   0  0  0  0  0  0  0  0  0  0  0  0
  -23.8898  -10.6625   19.0817 F   0  0  0  0  0  0  0  0  0  0  0  0
  -23.5042  -22.2413   18.7351 Cl  0  0  0  0  0  0  0  0  0  0  0  0
  1  2  1  0  0  0  0
  1  5  2  0  0  0  0
  2  6  2  0  0  0  0
  3  8  2  0  0  0  0
  3 18  1  0  0  0  0
  4  9  1  0  0  0  0
  4 18  2  0  0  0  0
  5 20  1  0  0  0  0
  6 22  1  0  0  0  0
  7 10  2  0  0  0  0
  7 21  1  0  0  0  0
  8 25  1  0  0  0  0
  9 25  2  0  0  0  0
 10 26  1  0  0  0  0
 11 13  2  0  0  0  0
 11 28  1  0  0  0  0
 12 14  2  0  0  0  0
 12 27  1  0  0  0  0
 13 29  1  0  0  0  0
 14 31  1  0  0  0  0
 15 23  1  0  0  0  0
 15 26  2  0  0  0  0
 16 24  1  0  0  0  0
 16 31  2  0  0  0  0
 17 29  2  0  0  0  0
 17 30  1  0  0  0  0
 18 32  1  0  0  0  0
 19 32  1  0  0  0  0
 19 33  2  0  0  0  0
 19 34  1  0  0  0  0
 20 22  2  0  0  0  0
 20 40  1  0  0  0  0
 21 23  2  0  0  0  0
 21 41  1  0  0  0  0
 22 49  1  0  0  0  0
 23 42  1  0  0  0  0
 24 27  2  0  0  0  0
 24 59  1  0  0  0  0
 25 84  1  0  0  0  0
 26 85  1  0  0  0  0
 27 86  1  0  0  0  0
 28 30  2  0  0  0  0
 28 84  1  0  0  0  0
 29 87  1  0  0  0  0
 30 88  1  0  0  0  0
 31 89  1  0  0  0  0
 32 67  2  0  0  0  0
 33 68  1  0  0  0  0
 33 71  1  0  0  0  0
 34 72  1  0  0  0  0
 34 78  2  0  0  0  0
 35 50  1  0  0  0  0
 35 73  1  0  0  0  0
 35 79  2  0  0  0  0
 36 63  1  0  0  0  0
 36 69  1  0  0  0  0
 36 80  2  0  0  0  0
 37 64  1  0  0  0  0
 37 75  1  0  0  0  0
 37 81  2  0  0  0  0
 38 65  1  0  0  0  0
 38 74  1  0  0  0  0
 38 82  2  0  0  0  0
 39 70  1  0  0  0  0
 39 76  1  0  0  0  0
 39 83  2  0  0  0  0
 40 43  1  0  0  0  0
 41 50  1  0  0  0  0
 42 69  1  0  0  0  0
 43 45  1  0  0  0  0
 44 46  1  0  0  0  0
 44 47  1  0  0  0  0
 45 49  1  0  0  0  0
 46 51  1  0  0  0  0
 47 70  1  0  0  0  0
 48 51  1  0  0  0  0
 48 70  1  0  0  0  0
 49 73  1  0  0  0  0
 50 69  1  0  0  0  0
 51 68  1  0  0  0  0
 52 64  1  0  0  0  0
 53 65  1  0  0  0  0
 54 65  1  0  0  0  0
 55 66  1  0  0  0  0
 56 66  1  0  0  0  0
 57 66  1  0  0  0  0
 58 77  1  0  0  0  0
 59 76  1  0  0  0  0
 60 61  1  0  0  0  0
 60 74  1  0  0  0  0
 61 85  1  0  0  0  0
 62 65  1  0  0  0  0
 62 86  1  0  0  0  0
 63 66  1  0  0  0  0
 63 75  1  0  0  0  0
 64 77  1  0  0  0  0
 67 68  1  0  0  0  0
M  CHG  1  77   1
M  ISO  4  39 100  61 101  76 100  85 101
M  END
> <Batch ID>
0052

> <Smiles>
CNC(C)C(=O)NC(C(=O)N1Cc2cc([101O:1][101CH2:1]CNC(=O)C(C)(C)COc3ccc(Cl)cc3C[100NH:0][100C:0](=O)N3CCCC(n4nc(-c5ccc(Oc6ccc(F)cc6F)cc5)c(C(N)=O)c4N)C3)ccc2CC1C(=O)NC1CCCc2ccccc21)C(C)(C)C

> <Shape>
0.226

> <Color>
0.071

> <Negative vol penalty>
0.000

$$$$

  -OEChem-04042322403D

 84 92  0     1  0  0  0  0  0999 V2000
  -32.8987  -34.0969   20.5097 C   0  0  0  0  0  0  0  0  0  0  0  0
  -32.3722  -32.8156   20.3814 C   0  0  0  0  0  0  0  0  0  0  0  0
  -24.0825   -9.4797   21.4662 C   0  0  0  0  0  0  0  0  0  0  0  0
  -24.6656  -10.6008   23.5254 C   0  0  0  0  0  0  0  0  0  0  0  0
  -32.2873  -35.0188   21.3584 C   0  0  0  0  0  0  0  0  0  0  0  0
  -31.2345  -32.4550   21.1026 C   0  0  0  0  0  0  0  0  0  0  0  0
  -26.7647  -28.6840   19.2844 C   0  0  0  0  0  0  0  0  0  0  0  0
  -31.0279  -20.1491   21.1626 C   0  0  0  0  0  0  0  0  0  0  0  0
  -30.7565  -18.8559   20.7161 C   0  0  0  0  0  0  0  0  0  0  0  0
  -23.6596   -8.3663   22.1921 C   0  0  0  0  0  0  0  0  0  0  0  0
  -24.2426   -9.4874   24.2513 C   0  0  0  0  0  0  0  0  0  0  0  0
  -26.5118  -27.3370   19.5404 C   0  0  0  0  0  0  0  0  0  0  0  0
  -20.9454   -7.4469   23.9868 C   0  0  0  0  0  0  0  0  0  0  0  0
  -19.7320   -6.8609   23.6266 C   0  0  0  0  0  0  0  0  0  0  0  0
  -28.3924  -19.2446   21.0273 C   0  0  0  0  0  0  0  0  0  0  0  0
  -25.0105  -27.9637   21.3215 C   0  0  0  0  0  0  0  0  0  0  0  0
  -20.8735   -4.7828   23.1621 C   0  0  0  0  0  0  0  0  0  0  0  0
  -24.5856  -10.5970   22.1328 C   0  0  0  0  0  0  0  0  0  0  0  0
  -28.6638  -20.5379   21.4739 C   0  0  0  0  0  0  0  0  0  0  0  0
  -24.2470  -12.8571   20.9993 C   0  0  0  0  0  0  0  0  0  0  0  0
  -31.1359  -34.6724   22.0830 C   0  0  0  0  0  0  0  0  0  0  0  0
  -26.1497  -29.6824   20.0535 C   0  0  0  0  0  0  0  0  0  0  0  0
  -30.6079  -33.3727   21.9628 C   0  0  0  0  0  0  0  0  0  0  0  0
  -25.2552  -29.3226   21.0716 C   0  0  0  0  0  0  0  0  0  0  0  0
  -29.9816  -20.9901   21.5416 C   0  0  0  0  0  0  0  0  0  0  0  0
  -29.4388  -18.4036   20.6484 C   0  0  0  0  0  0  0  0  0  0  0  0
  -23.7396   -8.3701   23.5847 C   0  0  0  0  0  0  0  0  0  0  0  0
  -25.6368  -26.9766   20.5609 C   0  0  0  0  0  0  0  0  0  0  0  0
  -22.1229   -6.7009   23.9346 C   0  0  0  0  0  0  0  0  0  0  0  0
  -19.6960   -5.5289   23.2142 C   0  0  0  0  0  0  0  0  0  0  0  0
  -22.0870   -5.3689   23.5223 C   0  0  0  0  0  0  0  0  0  0  0  0
  -25.0232  -11.7473   21.3835 C   0  0  0  0  0  0  0  0  0  0  0  0
  -25.1199  -13.6655   20.3130 C   0  0  0  0  0  0  0  0  0  0  0  0
  -27.5415  -21.4130   21.8704 C   0  0  0  0  0  0  0  0  0  0  0  0
  -22.8609  -13.1327   21.2412 C   0  0  0  0  0  0  0  0  0  0  0  0
  -27.1864  -31.9780   21.9923 C   0  0  0  0  0  0  0  0  0  0  0  0
  -24.0559  -32.8273   22.0240 C   0  0  0  0  0  0  0  0  0  0  0  0
  -26.3494  -23.5522   21.4545 C   0  0  0  0  0  0  0  0  0  0  0  0
  -20.7979  -31.8994   21.6101 C   0  0  0  0  0  0  0  0  0  0  0  0
  -30.0853  -16.1284   19.7814 C   0  0  0  0  0  0  0  0  0  0  0  0
  -30.5376  -35.6878   23.0240 C   0  0  0  0  0  0  0  0  0  0  0  0
  -26.4125  -31.1314   19.7472 C   0  0  0  0  0  0  0  0  0  0  0  0
  -24.5538  -30.3564   21.9128 C   0  0  0  0  0  0  0  0  0  0  0  0
  -29.1175  -35.3453   23.4669 C   0  0  0  0  0  0  0  0  0  0  0  0
  -29.8093  -12.7702   18.6308 C   0  0  0  0  0  0  0  0  0  0  0  0
  -29.0268  -33.8806   23.8831 C   0  0  0  0  0  0  0  0  0  0  0  0
  -28.4757  -12.2960   19.2127 C   0  0  0  0  0  0  0  0  0  0  0  0
  -30.5517  -13.6948   19.5940 C   0  0  0  0  0  0  0  0  0  0  0  0
  -28.4368  -14.3633   20.6660 C   0  0  0  0  0  0  0  0  0  0  0  0
  -29.3608  -32.9518   22.7095 C   0  0  1  0  0  0  0  0  0  0  0  0
  -26.1274  -32.0531   20.9290 C   0  0  1  0  0  0  0  0  0  0  0  0
  -27.6225  -13.4813   19.7054 C   0  0  2  0  0  0  0  0  0  0  0  0
  -30.2977  -22.3709   22.0154 C   0  0  0  0  0  0  0  0  0  0  0  0
  -18.4604  -32.8031   21.7408 C   0  0  0  0  0  0  0  0  0  0  0  0
  -24.1855  -32.7154   25.0704 C   0  0  0  0  0  0  0  0  0  0  0  0
  -21.6824  -32.6798   25.1061 C   0  0  0  0  0  0  0  0  0  0  0  0
  -22.8866  -34.6449   24.1517 C   0  0  0  0  0  0  0  0  0  0  0  0
  -20.2950  -31.3335   18.7490 C   0  0  0  0  0  0  0  0  0  0  0  0
  -26.4378  -24.7376   20.5306 C   0  0  0  0  0  0  0  0  0  1  0  0
  -22.8586  -32.4660   22.8696 C   0  0  1  0  0  0  0  0  0  0  0  0
  -19.6577  -32.5413   20.8403 C   0  0  2  0  0  0  0  0  0  0  0  0
  -22.9178  -33.1068   24.2851 C   0  0  0  0  0  0  0  0  0  0  0  0
  -26.2916  -11.8388   20.9751 N   0  0  0  0  0  0  0  0  0  0  0  0
  -26.3191  -13.0159   20.3270 N   0  0  0  0  0  0  0  0  0  0  0  0
  -24.8483  -31.7597   21.5788 N   0  0  0  0  0  0  0  0  0  0  0  0
  -29.6830  -14.7962   20.0147 N   0  0  0  0  0  0  0  0  0  0  0  0
  -24.9710  -14.8615   19.7049 N   0  0  0  0  0  0  0  0  0  0  0  0
  -22.1095  -12.1956   21.9633 N   0  0  0  0  0  0  0  0  0  0  0  0
  -29.1636  -17.0897   20.1947 N   0  0  0  0  0  0  0  0  0  0  0  0
  -27.3743  -22.5656   21.2075 N   0  0  0  0  0  0  0  0  0  0  0  0
  -28.2359  -32.8570   21.8040 N   0  0  0  0  0  0  0  0  0  0  0  0
  -21.6821  -32.8409   22.0928 N   0  0  0  0  0  0  0  0  0  0  0  0
  -26.7567  -21.0022   22.8661 N   0  3  0  0  0  0  0  0  0  0  0  0
  -19.2218  -31.6544   19.7248 N   0  3  0  0  0  0  0  0  0  0  0  0
  -22.3012  -14.1713   20.8151 O   0  0  0  0  0  0  0  0  0  0  0  0
  -27.0599  -31.1827   22.9159 O   0  0  0  0  0  0  0  0  0  0  0  0
  -24.2756  -34.0125   21.7619 O   0  0  0  0  0  0  0  0  0  0  0  0
  -25.5114  -23.4056   22.3326 O   0  0  0  0  0  0  0  0  0  0  0  0
  -20.8925  -30.6845   21.7705 O   0  0  0  0  0  0  0  0  0  0  0  0
  -31.1556  -16.3958   19.2292 O   0  0  0  0  0  0  0  0  0  0  0  0
  -23.3267   -7.2839   24.2934 O   0  0  0  0  0  0  0  0  0  0  0  0
  -25.3887  -25.6626   20.8133 O   0  0  0  0  0  0  0  0  0  1  0  0
  -18.5305   -4.9658   22.8698 F   0  0  0  0  0  0  0  0  0  0  0  0
  -23.2147   -4.6468   23.4712 F   0  0  0  0  0  0  0  0  0  0  0  0
  1  2  1  0  0  0  0
  1  5  2  0  0  0  0
  2  6  2  0  0  0  0
  3 10  2  0  0  0  0
  3 18  1  0  0  0  0
  4 11  1  0  0  0  0
  4 18  2  0  0  0  0
  5 21  1  0  0  0  0
  6 23  1  0  0  0  0
  7 12  2  0  0  0  0
  7 22  1  0  0  0  0
  8  9  2  0  0  0  0
  8 25  1  0  0  0  0
  9 26  1  0  0  0  0
 10 27  1  0  0  0  0
 11 27  2  0  0  0  0
 12 28  1  0  0  0  0
 13 14  2  0  0  0  0
 13 29  1  0  0  0  0
 14 30  1  0  0  0  0
 15 19  1  0  0  0  0
 15 26  2  0  0  0  0
 16 24  1  0  0  0  0
 16 28  2  0  0  0  0
 17 30  2  0  0  0  0
 17 31  1  0  0  0  0
 18 32  1  0  0  0  0
 19 25  2  0  0  0  0
 19 34  1  0  0  0  0
 20 32  1  0  0  0  0
 20 33  2  0  0  0  0
 20 35  1  0  0  0  0
 21 23  2  0  0  0  0
 21 41  1  0  0  0  0
 22 24  2  0  0  0  0
 22 42  1  0  0  0  0
 23 50  1  0  0  0  0
 24 43  1  0  0  0  0
 25 53  1  0  0  0  0
 26 69  1  0  0  0  0
 27 81  1  0  0  0  0
 28 82  1  0  0  0  0
 29 31  2  0  0  0  0
 29 81  1  0  0  0  0
 30 83  1  0  0  0  0
 31 84  1  0  0  0  0
 32 63  2  0  0  0  0
 33 64  1  0  0  0  0
 33 67  1  0  0  0  0
 34 70  1  0  0  0  0
 34 73  2  0  0  0  0
 35 68  1  0  0  0  0
 35 75  2  0  0  0  0
 36 51  1  0  0  0  0
 36 71  1  0  0  0  0
 36 76  2  0  0  0  0
 37 60  1  0  0  0  0
 37 65  1  0  0  0  0
 37 77  2  0  0  0  0
 38 59  1  0  0  0  0
 38 70  1  0  0  0  0
 38 78  2  0  0  0  0
 39 61  1  0  0  0  0
 39 72  1  0  0  0  0
 39 79  2  0  0  0  0
 40 66  1  0  0  0  0
 40 69  1  0  0  0  0
 40 80  2  0  0  0  0
 41 44  1  0  0  0  0
 42 51  1  0  0  0  0
 43 65  1  0  0  0  0
 44 46  1  0  0  0  0
 45 47  1  0  0  0  0
 45 48  1  0  0  0  0
 46 50  1  0  0  0  0
 47 52  1  0  0  0  0
 48 66  1  0  0  0  0
 49 52  1  0  0  0  0
 49 66  1  0  0  0  0
 50 71  1  0  0  0  0
 51 65  1  0  0  0  0
 52 64  1  0  0  0  0
 54 61  1  0  0  0  0
 55 62  1  0  0  0  0
 56 62  1  0  0  0  0
 57 62  1  0  0  0  0
 58 74  1  0  0  0  0
 59 82  1  0  0  0  0
 60 62  1  0  0  0  0
 60 72  1  0  0  0  0
 61 74  1  0  0  0  0
 63 64  1  0  0  0  0
M  CHG  2  73   1  74   1
M  ISO  4  40 100  59 101  69 100  82 101
M  END
> <Batch ID>
0052

> <Smiles>
CNC(C)C(=O)NC(C(=O)N1Cc2cc([101O:1][101CH2:1]C(=O)NC(=N)c3cc([100NH:0][100C:0](=O)N4CCCC(n5nc(-c6ccc(Oc7ccc(F)cc7F)cc6)c(C(N)=O)c5N)C4)ccc3C)ccc2CC1C(=O)NC1CCCc2ccccc21)C(C)(C)C

> <Shape>
0.250

> <Color>
0.124

> <Negative vol penalty>
0.000

$$$$

  -OEChem-04042322403D

 85 93  0     1  0  0  0  0  0999 V2000
  -18.3280  -28.7569   22.5933 C   0  0  0  0  0  0  0  0  0  0  0  0
  -18.2947  -27.4729   22.0588 C   0  0  0  0  0  0  0  0  0  0  0  0
  -29.4288  -22.6873   21.2480 C   0  0  0  0  0  0  0  0  0  0  0  0
  -29.2986  -22.2124   18.8827 C   0  0  0  0  0  0  0  0  0  0  0  0
  -19.5217  -29.2691   23.0998 C   0  0  0  0  0  0  0  0  0  0  0  0
  -19.4554  -26.7007   22.0297 C   0  0  0  0  0  0  0  0  0  0  0  0
  -19.8554  -20.6280   22.7137 C   0  0  0  0  0  0  0  0  0  0  0  0
  -24.3102  -11.8596   21.2966 C   0  0  0  0  0  0  0  0  0  0  0  0
  -29.8454  -23.9878   20.9640 C   0  0  0  0  0  0  0  0  0  0  0  0
  -29.7152  -23.5130   18.5987 C   0  0  0  0  0  0  0  0  0  0  0  0
  -19.9642  -19.5856   21.7942 C   0  0  0  0  0  0  0  0  0  0  0  0
  -28.4289  -26.9025   19.9993 C   0  0  0  0  0  0  0  0  0  0  0  0
  -25.4688  -11.1473   21.6062 C   0  0  0  0  0  0  0  0  0  0  0  0
  -27.8359  -27.9436   20.7134 C   0  0  0  0  0  0  0  0  0  0  0  0
  -22.3597  -19.5928   22.0786 C   0  0  0  0  0  0  0  0  0  0  0  0
  -30.0003  -28.5866   21.5732 C   0  0  0  0  0  0  0  0  0  0  0  0
  -29.1555  -21.7995   20.2073 C   0  0  0  0  0  0  0  0  0  0  0  0
  -27.4027  -20.0030   20.6636 C   0  0  0  0  0  0  0  0  0  0  0  0
  -20.6954  -28.4992   23.0857 C   0  0  0  0  0  0  0  0  0  0  0  0
  -21.0008  -21.1688   23.3154 C   0  0  0  0  0  0  0  0  0  0  0  0
  -20.6662  -27.2036   22.5353 C   0  0  0  0  0  0  0  0  0  0  0  0
  -22.2625  -20.6402   23.0073 C   0  0  0  0  0  0  0  0  0  0  0  0
  -24.3082  -12.7585   20.2300 C   0  0  0  0  0  0  0  0  0  0  0  0
  -25.4648  -12.9452   19.4730 C   0  0  0  0  0  0  0  0  0  0  0  0
  -26.6234  -12.2329   19.7826 C   0  0  0  0  0  0  0  0  0  0  0  0
  -29.9886  -24.4007   19.6394 C   0  0  0  0  0  0  0  0  0  0  0  0
  -21.2167  -19.0698   21.4743 C   0  0  0  0  0  0  0  0  0  0  0  0
  -29.8076  -26.7033   20.0721 C   0  0  0  0  0  0  0  0  0  0  0  0
  -28.6216  -28.7857   21.5003 C   0  0  0  0  0  0  0  0  0  0  0  0
  -26.6254  -11.3340   20.8493 C   0  0  0  0  0  0  0  0  0  0  0  0
  -30.5932  -27.5454   20.8590 C   0  0  0  0  0  0  0  0  0  0  0  0
  -28.7256  -20.4558   20.5001 C   0  0  0  0  0  0  0  0  0  0  0  0
  -27.5291  -18.6606   20.9252 C   0  0  0  0  0  0  0  0  0  0  0  0
  -26.1699  -20.7308   20.5858 C   0  0  0  0  0  0  0  0  0  0  0  0
  -22.3815  -24.0318   23.3415 C   0  0  0  0  0  0  0  0  0  0  0  0
  -24.3342  -22.6390   25.5256 C   0  0  0  0  0  0  0  0  0  0  0  0
  -22.0659  -15.7783   20.2122 C   0  0  0  0  0  0  0  0  0  0  0  0
  -25.6835  -19.7727   26.7944 C   0  0  0  0  0  0  0  0  0  0  0  0
  -29.8219  -13.6875   19.8500 C   0  0  0  0  0  0  0  0  0  0  0  0
  -21.9727  -29.1134   23.6016 C   0  0  0  0  0  0  0  0  0  0  0  0
  -20.8643  -22.2750   24.3253 C   0  0  0  0  0  0  0  0  0  0  0  0
  -23.5213  -21.1721   23.6407 C   0  0  0  0  0  0  0  0  0  0  0  0
  -23.0731  -28.0912   23.8747 C   0  0  0  0  0  0  0  0  0  0  0  0
  -31.6208  -15.8861   21.9963 C   0  0  0  0  0  0  0  0  0  0  0  0
  -23.1977  -27.1164   22.7081 C   0  0  0  0  0  0  0  0  0  0  0  0
  -30.9229  -17.2342   21.8070 C   0  0  0  0  0  0  0  0  0  0  0  0
  -31.6795  -15.0931   20.6926 C   0  0  0  0  0  0  0  0  0  0  0  0
  -29.6809  -16.2519   19.8343 C   0  0  0  0  0  0  0  0  0  0  0  0
  -21.8988  -26.3261   22.5084 C   0  0  1  0  0  0  0  0  0  0  0  0
  -22.1407  -23.0941   24.4906 C   0  0  1  0  0  0  0  0  0  0  0  0
  -29.5477  -17.0640   21.1340 C   0  0  2  0  0  0  0  0  0  0  0  0
  -25.4621  -13.9088   18.3291 C   0  0  0  0  0  0  0  0  0  0  0  0
  -27.2757  -18.9555   28.5536 C   0  0  0  0  0  0  0  0  0  0  0  0
  -26.6900  -23.5388   23.8079 C   0  0  0  0  0  0  0  0  0  0  0  0
  -28.1321  -21.9212   25.0618 C   0  0  0  0  0  0  0  0  0  0  0  0
  -27.0326  -23.8059   26.2708 C   0  0  0  0  0  0  0  0  0  0  0  0
  -23.5673  -18.2075   28.1475 C   0  0  0  0  0  0  0  0  0  0  0  0
  -23.0476  -13.5122   19.9183 C   0  0  0  0  0  0  0  0  0  0  0  0
  -27.8736  -12.4160   18.9857 C   0  0  0  0  0  0  0  0  0  0  0  0
  -22.4174  -17.1499   20.7477 C   0  0  0  0  0  0  0  0  0  1  0  0
  -25.6286  -21.8649   25.4624 C   0  0  1  0  0  0  0  0  0  0  0  0
  -25.8259  -19.2716   28.2203 C   0  0  2  0  0  0  0  0  0  0  0  0
  -26.8475  -22.7737   25.1372 C   0  0  0  0  0  0  0  0  0  0  0  0
  -29.6262  -19.4802   20.6458 N   0  0  0  0  0  0  0  0  0  0  0  0
  -28.8679  -18.4011   20.9037 N   0  0  0  0  0  0  0  0  0  0  0  0
  -23.3362  -22.2581   24.6174 N   0  0  0  0  0  0  0  0  0  0  0  0
  -30.3430  -14.9664   20.1064 N   0  0  0  0  0  0  0  0  0  0  0  0
  -26.6246  -17.6888   21.1694 N   0  0  0  0  0  0  0  0  0  0  0  0
  -26.2208  -22.1037   20.3082 N   0  0  0  0  0  0  0  0  0  0  0  0
  -21.7919  -25.2721   23.4944 N   0  0  0  0  0  0  0  0  0  0  0  0
  -23.1196  -14.8886   20.3510 N   0  0  0  0  0  0  0  0  0  0  0  0
  -25.7382  -21.1489   26.7288 N   0  0  0  0  0  0  0  0  0  0  0  0
  -28.5464  -13.6569   19.2996 N   0  0  0  0  0  0  0  0  0  0  0  0
  -25.0179  -18.0351   28.4179 N   0  3  0  0  0  0  0  0  0  0  0  0
  -25.0570  -20.1833   20.7737 O   0  0  0  0  0  0  0  0  0  0  0  0
  -23.0539  -23.6582   22.3876 O   0  0  0  0  0  0  0  0  0  0  0  0
  -24.2103  -23.5436   26.3551 O   0  0  0  0  0  0  0  0  0  0  0  0
  -20.9717  -15.5179   19.7194 O   0  0  0  0  0  0  0  0  0  0  0  0
  -25.5420  -19.0185   25.8343 O   0  0  0  0  0  0  0  0  0  0  0  0
  -30.4449  -12.6496   20.0984 O   0  0  0  0  0  0  0  0  0  0  0  0
  -30.3949  -25.6697   19.3619 O   0  0  0  0  0  0  0  0  0  0  0  0
  -21.3258  -18.0529   20.5767 O   0  0  0  0  0  0  0  0  0  1  0  0
  -28.0522  -29.7864   22.1849 F   0  0  0  0  0  0  0  0  0  0  0  0
  -27.7334  -10.6440   21.1549 F   0  0  0  0  0  0  0  0  0  0  0  0
  -31.9184  -27.3598   20.9320 F   0  0  0  0  0  0  0  0  0  0  0  0
  1  2  1  0  0  0  0
  1  5  2  0  0  0  0
  2  6  2  0  0  0  0
  3  9  2  0  0  0  0
  3 17  1  0  0  0  0
  4 10  1  0  0  0  0
  4 17  2  0  0  0  0
  5 19  1  0  0  0  0
  6 21  1  0  0  0  0
  7 11  2  0  0  0  0
  7 20  1  0  0  0  0
  8 13  2  0  0  0  0
  8 23  1  0  0  0  0
  9 26  1  0  0  0  0
 10 26  2  0  0  0  0
 11 27  1  0  0  0  0
 12 14  2  0  0  0  0
 12 28  1  0  0  0  0
 13 30  1  0  0  0  0
 14 29  1  0  0  0  0
 15 22  1  0  0  0  0
 15 27  2  0  0  0  0
 16 29  2  0  0  0  0
 16 31  1  0  0  0  0
 17 32  1  0  0  0  0
 18 32  1  0  0  0  0
 18 33  2  0  0  0  0
 18 34  1  0  0  0  0
 19 21  2  0  0  0  0
 19 40  1  0  0  0  0
 20 22  2  0  0  0  0
 20 41  1  0  0  0  0
 21 49  1  0  0  0  0
 22 42  1  0  0  0  0
 23 24  2  0  0  0  0
 23 58  1  0  0  0  0
 24 25  1  0  0  0  0
 24 52  1  0  0  0  0
 25 30  2  0  0  0  0
 25 59  1  0  0  0  0
 26 81  1  0  0  0  0
 27 82  1  0  0  0  0
 28 31  2  0  0  0  0
 28 81  1  0  0  0  0
 29 83  1  0  0  0  0
 30 84  1  0  0  0  0
 31 85  1  0  0  0  0
 32 64  2  0  0  0  0
 33 65  1  0  0  0  0
 33 68  1  0  0  0  0
 34 69  1  0  0  0  0
 34 75  2  0  0  0  0
 35 50  1  0  0  0  0
 35 70  1  0  0  0  0
 35 76  2  0  0  0  0
 36 61  1  0  0  0  0
 36 66  1  0  0  0  0
 36 77  2  0  0  0  0
 37 60  1  0  0  0  0
 37 71  1  0  0  0  0
 37 78  2  0  0  0  0
 38 62  1  0  0  0  0
 38 72  1  0  0  0  0
 38 79  2  0  0  0  0
 39 67  1  0  0  0  0
 39 73  1  0  0  0  0
 39 80  2  0  0  0  0
 40 43  1  0  0  0  0
 41 50  1  0  0  0  0
 42 66  1  0  0  0  0
 43 45  1  0  0  0  0
 44 46  1  0  0  0  0
 44 47  1  0  0  0  0
 45 49  1  0  0  0  0
 46 51  1  0  0  0  0
 47 67  1  0  0  0  0
 48 51  1  0  0  0  0
 48 67  1  0  0  0  0
 49 70  1  0  0  0  0
 50 66  1  0  0  0  0
 51 65  1  0  0  0  0
 53 62  1  0  0  0  0
 54 63  1  0  0  0  0
 55 63  1  0  0  0  0
 56 63  1  0  0  0  0
 57 74  1  0  0  0  0
 58 71  1  0  0  0  0
 59 73  1  0  0  0  0
 60 82  1  0  0  0  0
 61 63  1  0  0  0  0
 61 72  1  0  0  0  0
 62 74  1  0  0  0  0
 64 65  1  0  0  0  0
M  CHG  1  74   1
M  ISO  4  39 100  60 101  73 100  82 101
M  END
> <Batch ID>
0052

> <Smiles>
CNC(C)C(=O)NC(C(=O)N1Cc2cc([101O:1][101CH2:1]C(=O)NCc3ccc(F)c(C[100NH:0][100C:0](=O)N4CCCC(n5nc(-c6ccc(Oc7ccc(F)cc7F)cc6)c(C(N)=O)c5N)C4)c3C)ccc2CC1C(=O)NC1CCCc2ccccc21)C(C)(C)C

> <Shape>
0.250

> <Color>
0.048

> <Negative vol penalty>
0.000

$$$$

  -OEChem-04042322403D

 90 98  0     1  0  0  0  0  0999 V2000
  -19.0399  -26.9384   22.4866 C   0  0  0  0  0  0  0  0  0  0  0  0
  -20.1940  -26.2646   22.8732 C   0  0  0  0  0  0  0  0  0  0  0  0
  -23.0684   -9.8767   19.9490 C   0  0  0  0  0  0  0  0  0  0  0  0
  -23.8287   -9.8899   22.2422 C   0  0  0  0  0  0  0  0  0  0  0  0
  -17.8252  -26.2572   22.4214 C   0  0  0  0  0  0  0  0  0  0  0  0
  -20.1338  -24.9093   23.1958 C   0  0  0  0  0  0  0  0  0  0  0  0
  -24.0373  -18.9121   22.8609 C   0  0  0  0  0  0  0  0  0  0  0  0
  -28.9092  -18.2861   24.8530 C   0  0  0  0  0  0  0  0  0  0  0  0
  -22.3223   -8.7259   20.2029 C   0  0  0  0  0  0  0  0  0  0  0  0
  -23.0825   -8.7391   22.4962 C   0  0  0  0  0  0  0  0  0  0  0  0
  -24.4866  -17.8726   23.6741 C   0  0  0  0  0  0  0  0  0  0  0  0
  -20.5020   -5.5782   20.1554 C   0  0  0  0  0  0  0  0  0  0  0  0
  -20.5632   -4.5445   19.2209 C   0  0  0  0  0  0  0  0  0  0  0  0
  -28.3290  -19.4213   24.2872 C   0  0  0  0  0  0  0  0  0  0  0  0
  -22.3478  -16.7800   23.4490 C   0  0  0  0  0  0  0  0  0  0  0  0
  -29.3712  -18.8993   22.1710 C   0  0  0  0  0  0  0  0  0  0  0  0
  -22.9477   -4.3709   19.5689 C   0  0  0  0  0  0  0  0  0  0  0  0
  -23.8216  -10.4587   20.9686 C   0  0  0  0  0  0  0  0  0  0  0  0
  -24.1683  -12.9828   20.8401 C   0  0  0  0  0  0  0  0  0  0  0  0
  -17.7518  -24.8906   22.7340 C   0  0  0  0  0  0  0  0  0  0  0  0
  -22.7340  -18.8987   22.3436 C   0  0  0  0  0  0  0  0  0  0  0  0
  -18.9167  -24.2095   23.1360 C   0  0  0  0  0  0  0  0  0  0  0  0
  -21.8852  -17.8192   22.6274 C   0  0  0  0  0  0  0  0  0  0  0  0
  -29.7206  -17.4575   24.0778 C   0  0  0  0  0  0  0  0  0  0  0  0
  -29.9515  -17.7641   22.7368 C   0  0  0  0  0  0  0  0  0  0  0  0
  -22.3294   -8.1570   21.4765 C   0  0  0  0  0  0  0  0  0  0  0  0
  -23.6409  -16.8078   23.9707 C   0  0  0  0  0  0  0  0  0  0  0  0
  -21.6637   -6.0083   20.7966 C   0  0  0  0  0  0  0  0  0  0  0  0
  -21.7860   -3.9408   18.9277 C   0  0  0  0  0  0  0  0  0  0  0  0
  -22.8865   -5.4047   20.5034 C   0  0  0  0  0  0  0  0  0  0  0  0
  -28.5599  -19.7279   22.9462 C   0  0  0  0  0  0  0  0  0  0  0  0
  -24.5929  -11.6472   20.7068 C   0  0  0  0  0  0  0  0  0  0  0  0
  -25.2619  -13.7289   20.4741 C   0  0  0  0  0  0  0  0  0  0  0  0
  -22.8989  -13.5025   21.2575 C   0  0  0  0  0  0  0  0  0  0  0  0
  -20.1852  -20.7752   22.6361 C   0  0  0  0  0  0  0  0  0  0  0  0
  -18.9580  -18.8038   20.3712 C   0  0  0  0  0  0  0  0  0  0  0  0
  -28.6343  -15.0322   26.0916 C   0  0  0  0  0  0  0  0  0  0  0  0
  -25.6853  -14.0234   25.0188 C   0  0  0  0  0  0  0  0  0  0  0  0
  -19.0089  -15.7467   18.8552 C   0  0  0  0  0  0  0  0  0  0  0  0
  -30.7476  -14.7380   20.6582 C   0  0  0  0  0  0  0  0  0  0  0  0
  -16.4075  -24.2080   22.6945 C   0  0  0  0  0  0  0  0  0  0  0  0
  -22.2734  -20.0144   21.4461 C   0  0  0  0  0  0  0  0  0  0  0  0
  -20.4838  -17.7473   22.0803 C   0  0  0  0  0  0  0  0  0  0  0  0
  -16.4980  -22.6842   22.6909 C   0  0  0  0  0  0  0  0  0  0  0  0
  -29.6050  -12.3477   18.2796 C   0  0  0  0  0  0  0  0  0  0  0  0
  -17.4846  -22.2055   23.7512 C   0  0  0  0  0  0  0  0  0  0  0  0
  -28.1670  -12.0582   18.7137 C   0  0  0  0  0  0  0  0  0  0  0  0
  -30.5227  -12.5707   19.4796 C   0  0  0  0  0  0  0  0  0  0  0  0
  -28.6226  -13.3102   20.8640 C   0  0  0  0  0  0  0  0  0  0  0  0
  -18.8964  -22.7336   23.4697 C   0  0  1  0  0  0  0  0  0  0  0  0
  -20.7549  -20.1510   21.3938 C   0  0  1  0  0  0  0  0  0  0  0  0
  -27.6479  -13.1335   19.6871 C   0  0  2  0  0  0  0  0  0  0  0  0
  -17.8621  -14.4180   17.0617 C   0  0  0  0  0  0  0  0  0  0  0  0
  -16.5758  -18.3612   22.2257 C   0  0  0  0  0  0  0  0  0  0  0  0
  -15.9668  -16.3590   20.8514 C   0  0  0  0  0  0  0  0  0  0  0  0
  -15.9827  -18.6260   19.8106 C   0  0  0  0  0  0  0  0  0  0  0  0
  -30.2972  -16.5806   27.1496 C   0  0  0  0  0  0  0  0  0  0  0  0
  -27.3307  -12.1637   25.3127 C   0  0  0  0  0  0  0  0  0  0  0  0
  -21.5125  -15.4632   17.3026 C   0  0  0  0  0  0  0  0  0  0  0  0
  -30.3351  -16.2415   24.7087 C   0  0  0  0  0  0  0  0  0  0  0  0
  -30.8178  -16.8925   21.8878 C   0  0  0  0  0  0  0  0  0  0  0  0
  -28.1445  -14.4286   24.7872 C   0  0  0  0  0  0  0  0  0  0  0  0
  -25.4720  -15.4947   24.7316 C   0  0  0  0  0  0  0  0  0  1  0  0
  -18.1775  -17.5117   20.3876 C   0  0  1  0  0  0  0  0  0  0  0  0
  -19.0189  -15.3489   17.3903 C   0  0  2  0  0  0  0  0  0  0  0  0
  -16.7014  -17.7165   20.8309 C   0  0  0  0  0  0  0  0  0  0  0  0
  -25.8576  -11.5476   20.2886 N   0  0  0  0  0  0  0  0  0  0  0  0
  -26.2369  -12.8300   20.1559 N   0  0  0  0  0  0  0  0  0  0  0  0
  -20.0777  -18.8654   21.2128 N   0  0  0  0  0  0  0  0  0  0  0  0
  -29.9743  -13.6033   20.3622 N   0  0  0  0  0  0  0  0  0  0  0  0
  -25.4748  -15.0597   20.3966 N   0  0  0  0  0  0  0  0  0  0  0  0
  -21.8853  -12.5964   21.5979 N   0  0  0  0  0  0  0  0  0  0  0  0
  -19.5216  -21.9667   22.4136 N   0  0  0  0  0  0  0  0  0  0  0  0
  -18.3269  -16.9277   19.0590 N   0  0  0  0  0  0  0  0  0  0  0  0
  -30.1504  -15.6708   21.4972 N   0  0  0  0  0  0  0  0  0  0  0  0
  -29.7135  -15.9168   25.9865 N   0  0  0  0  0  0  0  0  0  0  0  0
  -27.0000  -13.5567   25.0389 N   0  0  0  0  0  0  0  0  0  0  0  0
  -20.2926  -14.6535   17.0511 N   0  3  0  0  0  0  0  0  0  0  0  0
  -22.6650  -14.7337   21.3107 O   0  0  0  0  0  0  0  0  0  0  0  0
  -20.3351  -20.2165   23.7164 O   0  0  0  0  0  0  0  0  0  0  0  0
  -18.5919  -19.7221   19.6333 O   0  0  0  0  0  0  0  0  0  0  0  0
  -28.0941  -14.7441   27.1629 O   0  0  0  0  0  0  0  0  0  0  0  0
  -24.6988  -13.3107   25.2277 O   0  0  0  0  0  0  0  0  0  0  0  0
  -19.5485  -15.0750   19.7316 O   0  0  0  0  0  0  0  0  0  0  0  0
  -31.8838  -14.9097   20.2038 O   0  0  0  0  0  0  0  0  0  0  0  0
  -21.6013   -7.0342   21.7248 O   0  0  0  0  0  0  0  0  0  0  0  0
  -24.0767  -15.7922   24.7647 O   0  0  0  0  0  0  0  0  0  1  0  0
  -21.8443   -2.9471   18.0314 F   0  0  0  0  0  0  0  0  0  0  0  0
  -24.0058   -5.8128   21.1171 F   0  0  0  0  0  0  0  0  0  0  0  0
  -27.8453  -21.1293   22.2491 Cl  0  0  0  0  0  0  0  0  0  0  0  0
  1  2  1  0  0  0  0
  1  5  2  0  0  0  0
  2  6  2  0  0  0  0
  3  9  2  0  0  0  0
  3 18  1  0  0  0  0
  4 10  1  0  0  0  0
  4 18  2  0  0  0  0
  5 20  1  0  0  0  0
  6 22  1  0  0  0  0
  7 11  2  0  0  0  0
  7 21  1  0  0  0  0
  8 14  2  0  0  0  0
  8 24  1  0  0  0  0
  9 26  1  0  0  0  0
 10 26  2  0  0  0  0
 11 27  1  0  0  0  0
 12 13  2  0  0  0  0
 12 28  1  0  0  0  0
 13 29  1  0  0  0  0
 14 31  1  0  0  0  0
 15 23  1  0  0  0  0
 15 27  2  0  0  0  0
 16 25  1  0  0  0  0
 16 31  2  0  0  0  0
 17 29  2  0  0  0  0
 17 30  1  0  0  0  0
 18 32  1  0  0  0  0
 19 32  1  0  0  0  0
 19 33  2  0  0  0  0
 19 34  1  0  0  0  0
 20 22  2  0  0  0  0
 20 41  1  0  0  0  0
 21 23  2  0  0  0  0
 21 42  1  0  0  0  0
 22 50  1  0  0  0  0
 23 43  1  0  0  0  0
 24 25  2  0  0  0  0
 24 60  1  0  0  0  0
 25 61  1  0  0  0  0
 26 86  1  0  0  0  0
 27 87  1  0  0  0  0
 28 30  2  0  0  0  0
 28 86  1  0  0  0  0
 29 88  1  0  0  0  0
 30 89  1  0  0  0  0
 31 90  1  0  0  0  0
 32 67  2  0  0  0  0
 33 68  1  0  0  0  0
 33 71  1  0  0  0  0
 34 72  1  0  0  0  0
 34 79  2  0  0  0  0
 35 51  1  0  0  0  0
 35 73  1  0  0  0  0
 35 80  2  0  0  0  0
 36 64  1  0  0  0  0
 36 69  1  0  0  0  0
 36 81  2  0  0  0  0
 37 62  1  0  0  0  0
 37 76  1  0  0  0  0
 37 82  2  0  0  0  0
 38 63  1  0  0  0  0
 38 77  1  0  0  0  0
 38 83  2  0  0  0  0
 39 65  1  0  0  0  0
 39 74  1  0  0  0  0
 39 84  2  0  0  0  0
 40 70  1  0  0  0  0
 40 75  1  0  0  0  0
 40 85  2  0  0  0  0
 41 44  1  0  0  0  0
 42 51  1  0  0  0  0
 43 69  1  0  0  0  0
 44 46  1  0  0  0  0
 45 47  1  0  0  0  0
 45 48  1  0  0  0  0
 46 50  1  0  0  0  0
 47 52  1  0  0  0  0
 48 70  1  0  0  0  0
 49 52  1  0  0  0  0
 49 70  1  0  0  0  0
 50 73  1  0  0  0  0
 51 69  1  0  0  0  0
 52 68  1  0  0  0  0
 53 65  1  0  0  0  0
 54 66  1  0  0  0  0
 55 66  1  0  0  0  0
 56 66  1  0  0  0  0
 57 76  1  0  0  0  0
 58 77  1  0  0  0  0
 59 78  1  0  0  0  0
 60 76  1  0  0  0  0
 61 75  1  0  0  0  0
 62 77  1  0  0  0  0
 63 87  1  0  0  0  0
 64 66  1  0  0  0  0
 64 74  1  0  0  0  0
 65 78  1  0  0  0  0
 67 68  1  0  0  0  0
M  CHG  1  78   1
M  ISO  4  40 100  63 101  75 100  87 101
M  END
> <Batch ID>
0052

> <Smiles>
CNC(C)C(=O)NC(C(=O)N1Cc2cc([101O:1][101CH2:1]C(=O)N(C)CC(=O)N(C)Cc3ccc(Cl)cc3C[100NH:0][100C:0](=O)N3CCCC(n4nc(-c5ccc(Oc6ccc(F)cc6F)cc5)c(C(N)=O)c4N)C3)ccc2CC1C(=O)NC1CCCc2ccccc21)C(C)(C)C

> <Shape>
0.177

> <Color>
0.192

> <Negative vol penalty>
0.000

$$$$

  -OEChem-04042322403D

 88 97  0     1  0  0  0  0  0999 V2000
  -30.1085  -25.7683   16.3140 C   0  0  0  0  0  0  0  0  0  0  0  0
  -30.0251  -25.4807   17.6726 C   0  0  0  0  0  0  0  0  0  0  0  0
  -22.6817  -10.1651   20.2589 C   0  0  0  0  0  0  0  0  0  0  0  0
  -24.2609   -9.5599   21.9843 C   0  0  0  0  0  0  0  0  0  0  0  0
  -29.2494  -26.7092   15.7478 C   0  0  0  0  0  0  0  0  0  0  0  0
  -29.0832  -26.1348   18.4660 C   0  0  0  0  0  0  0  0  0  0  0  0
  -26.6485  -22.9798   21.5906 C   0  0  0  0  0  0  0  0  0  0  0  0
  -32.5541  -17.6336   23.4233 C   0  0  0  0  0  0  0  0  0  0  0  0
  -31.9760  -16.7233   22.5386 C   0  0  0  0  0  0  0  0  0  0  0  0
  -21.9454   -9.0114   20.5281 C   0  0  0  0  0  0  0  0  0  0  0  0
  -23.5246   -8.4062   22.2536 C   0  0  0  0  0  0  0  0  0  0  0  0
  -27.3250  -22.5745   22.7404 C   0  0  0  0  0  0  0  0  0  0  0  0
  -19.7074   -7.9670   22.8376 C   0  0  0  0  0  0  0  0  0  0  0  0
  -18.3210   -8.0894   22.9288 C   0  0  0  0  0  0  0  0  0  0  0  0
  -26.0995  -24.2047   24.0287 C   0  0  0  0  0  0  0  0  0  0  0  0
  -30.3640  -18.4978   23.9653 C   0  0  0  0  0  0  0  0  0  0  0  0
  -18.0632   -6.5322   21.0996 C   0  0  0  0  0  0  0  0  0  0  0  0
  -23.8395  -10.4393   20.9869 C   0  0  0  0  0  0  0  0  0  0  0  0
  -24.1566  -12.9635   20.7977 C   0  0  0  0  0  0  0  0  0  0  0  0
  -28.2900  -27.3681   16.5327 C   0  0  0  0  0  0  0  0  0  0  0  0
  -25.6988  -24.0098   21.6494 C   0  0  0  0  0  0  0  0  0  0  0  0
  -28.2113  -27.0863   17.9100 C   0  0  0  0  0  0  0  0  0  0  0  0
  -25.4106  -24.6195   22.8788 C   0  0  0  0  0  0  0  0  0  0  0  0
  -31.7481  -18.5208   24.1367 C   0  0  0  0  0  0  0  0  0  0  0  0
  -29.7859  -17.5875   23.0805 C   0  0  0  0  0  0  0  0  0  0  0  0
  -30.5919  -16.7003   22.3671 C   0  0  0  0  0  0  0  0  0  0  0  0
  -22.3668   -8.1320   21.5255 C   0  0  0  0  0  0  0  0  0  0  0  0
  -27.0526  -23.1889   23.9591 C   0  0  0  0  0  0  0  0  0  0  0  0
  -20.2718   -7.1273   21.8774 C   0  0  0  0  0  0  0  0  0  0  0  0
  -17.4989   -7.3720   22.0598 C   0  0  0  0  0  0  0  0  0  0  0  0
  -19.4497   -6.4099   21.0084 C   0  0  0  0  0  0  0  0  0  0  0  0
  -24.6008  -11.6306   20.7089 C   0  0  0  0  0  0  0  0  0  0  0  0
  -25.2478  -13.7141   20.4340 C   0  0  0  0  0  0  0  0  0  0  0  0
  -31.8697  -21.7713   24.2641 C   0  0  0  0  0  0  0  0  0  0  0  0
  -30.6320  -20.7834   26.2230 C   0  0  0  0  0  0  0  0  0  0  0  0
  -32.6298  -21.5801   23.1674 C   0  0  0  0  0  0  0  0  0  0  0  0
  -22.8723  -13.4771   21.1753 C   0  0  0  0  0  0  0  0  0  0  0  0
  -25.4318  -26.8924   20.3368 C   0  0  0  0  0  0  0  0  0  0  0  0
  -22.5064  -26.8309   21.7370 C   0  0  0  0  0  0  0  0  0  0  0  0
  -20.4938  -25.5719   24.1888 C   0  0  0  0  0  0  0  0  0  0  0  0
  -30.6977  -14.8265   20.6867 C   0  0  0  0  0  0  0  0  0  0  0  0
  -27.4149  -28.4119   15.8853 C   0  0  0  0  0  0  0  0  0  0  0  0
  -24.9584  -24.4171   20.4050 C   0  0  0  0  0  0  0  0  0  0  0  0
  -24.3852  -25.7161   22.9990 C   0  0  0  0  0  0  0  0  0  0  0  0
  -31.3866  -23.1763   24.5296 C   0  0  0  0  0  0  0  0  0  0  0  0
  -29.5893  -21.8904   26.2740 C   0  0  0  0  0  0  0  0  0  0  0  0
  -26.1939  -28.7869   16.7213 C   0  0  0  0  0  0  0  0  0  0  0  0
  -29.8984  -23.3678   24.2655 C   0  0  0  0  0  0  0  0  0  0  0  0
  -29.6579  -12.3303   18.3704 C   0  0  0  0  0  0  0  0  0  0  0  0
  -26.5943  -29.0258   18.1737 C   0  0  0  0  0  0  0  0  0  0  0  0
  -28.2130  -12.0354   18.7796 C   0  0  0  0  0  0  0  0  0  0  0  0
  -30.5457  -12.6054   19.5827 C   0  0  0  0  0  0  0  0  0  0  0  0
  -28.6033  -13.3492   20.9030 C   0  0  0  0  0  0  0  0  0  0  0  0
  -27.1862  -27.7567   18.7987 C   0  0  1  0  0  0  0  0  0  0  0  0
  -24.3826  -25.8274   20.4870 C   0  0  1  0  0  0  0  0  0  0  0  0
  -27.6567  -13.1297   19.7116 C   0  0  2  0  0  0  0  0  0  0  0  0
  -29.0356  -22.2934   24.9162 C   0  0  2  0  0  0  0  0  0  1  0  0
  -28.3007  -17.5872   22.9145 C   0  0  0  0  0  0  0  0  0  0  0  0
  -18.1631  -25.7397   25.1037 C   0  0  0  0  0  0  0  0  0  0  0  0
  -23.2131  -29.4970   23.0418 C   0  0  0  0  0  0  0  0  0  0  0  0
  -21.3140  -29.1416   24.6341 C   0  0  0  0  0  0  0  0  0  0  0  0
  -20.8675  -29.3427   22.1881 C   0  0  0  0  0  0  0  0  0  0  0  0
  -19.9481  -22.7155   23.6395 C   0  0  0  0  0  0  0  0  0  0  0  0
  -32.3707  -19.5022   25.0872 C   0  0  0  0  0  0  0  0  0  0  0  0
  -21.9555  -27.2424   23.0809 C   0  0  1  0  0  0  0  0  0  0  0  0
  -19.0864  -25.0048   24.1444 C   0  0  2  0  0  0  0  0  0  0  0  0
  -21.8583  -28.7866   23.2340 C   0  0  0  0  0  0  0  0  0  0  0  0
  -25.8749  -11.5367   20.3191 N   0  0  0  0  0  0  0  0  0  0  0  0
  -26.2406  -12.8200   20.1597 N   0  0  0  0  0  0  0  0  0  0  0  0
  -31.5864  -20.7448   25.1886 N   0  0  0  0  0  0  0  0  0  0  0  0
  -23.6925  -26.0834   21.7529 N   0  0  0  0  0  0  0  0  0  0  0  0
  -29.9579  -13.6556   20.4172 N   0  0  0  0  0  0  0  0  0  0  0  0
  -25.4453  -15.0451   20.3251 N   0  0  0  0  0  0  0  0  0  0  0  0
  -21.8636  -12.5670   21.5194 N   0  0  0  0  0  0  0  0  0  0  0  0
  -30.0239  -15.7682   21.4637 N   0  0  0  0  0  0  0  0  0  0  0  0
  -26.1335  -26.8272   19.1482 N   0  0  0  0  0  0  0  0  0  0  0  0
  -20.6825  -26.5457   23.2310 N   0  0  0  0  0  0  0  0  0  0  0  0
  -19.0975  -23.5616   24.5156 N   0  3  0  0  0  0  0  0  0  0  0  0
  -30.5833  -19.9326   27.1228 O   0  0  0  0  0  0  0  0  0  0  0  0
  -22.6217  -14.7061   21.1907 O   0  0  0  0  0  0  0  0  0  0  0  0
  -25.5918  -27.7134   21.2323 O   0  0  0  0  0  0  0  0  0  0  0  0
  -21.9026  -27.1545   20.7111 O   0  0  0  0  0  0  0  0  0  0  0  0
  -21.3399  -25.1919   24.9951 O   0  0  0  0  0  0  0  0  0  0  0  0
  -31.8342  -14.9939   20.2369 O   0  0  0  0  0  0  0  0  0  0  0  0
  -21.6485   -7.0063   21.7887 O   0  0  0  0  0  0  0  0  0  0  0  0
  -27.7119  -22.7957   25.0828 O   0  0  0  0  0  0  0  0  0  1  0  0
  -16.1674   -7.4884   22.1485 F   0  0  0  0  0  0  0  0  0  0  0  0
  -19.9861   -5.6006   20.0847 F   0  0  0  0  0  0  0  0  0  0  0  0
  1  2  1  0  0  0  0
  1  5  2  0  0  0  0
  2  6  2  0  0  0  0
  3 10  2  0  0  0  0
  3 18  1  0  0  0  0
  4 11  1  0  0  0  0
  4 18  2  0  0  0  0
  5 20  1  0  0  0  0
  6 22  1  0  0  0  0
  7 12  2  0  0  0  0
  7 21  1  0  0  0  0
  8  9  2  0  0  0  0
  8 24  1  0  0  0  0
  9 26  1  0  0  0  0
 10 27  1  0  0  0  0
 11 27  2  0  0  0  0
 12 28  1  0  0  0  0
 13 14  2  0  0  0  0
 13 29  1  0  0  0  0
 14 30  1  0  0  0  0
 15 23  1  0  0  0  0
 15 28  2  0  0  0  0
 16 24  2  0  0  0  0
 16 25  1  0  0  0  0
 17 30  2  0  0  0  0
 17 31  1  0  0  0  0
 18 32  1  0  0  0  0
 19 32  1  0  0  0  0
 19 33  2  0  0  0  0
 19 37  1  0  0  0  0
 20 22  2  0  0  0  0
 20 42  1  0  0  0  0
 21 23  2  0  0  0  0
 21 43  1  0  0  0  0
 22 54  1  0  0  0  0
 23 44  1  0  0  0  0
 24 64  1  0  0  0  0
 25 26  2  0  0  0  0
 25 58  1  0  0  0  0
 26 75  1  0  0  0  0
 27 85  1  0  0  0  0
 28 86  1  0  0  0  0
 29 31  2  0  0  0  0
 29 85  1  0  0  0  0
 30 87  1  0  0  0  0
 31 88  1  0  0  0  0
 32 68  2  0  0  0  0
 33 69  1  0  0  0  0
 33 73  1  0  0  0  0
 34 36  2  0  0  0  0
 34 45  1  0  0  0  0
 34 70  1  0  0  0  0
 35 46  1  0  0  0  0
 35 70  1  0  0  0  0
 35 79  2  0  0  0  0
 37 74  1  0  0  0  0
 37 80  2  0  0  0  0
 38 55  1  0  0  0  0
 38 76  1  0  0  0  0
 38 81  2  0  0  0  0
 39 65  1  0  0  0  0
 39 71  1  0  0  0  0
 39 82  2  0  0  0  0
 40 66  1  0  0  0  0
 40 77  1  0  0  0  0
 40 83  2  0  0  0  0
 41 72  1  0  0  0  0
 41 75  1  0  0  0  0
 41 84  2  0  0  0  0
 42 47  1  0  0  0  0
 43 55  1  0  0  0  0
 44 71  1  0  0  0  0
 45 48  1  0  0  0  0
 46 57  1  0  0  0  0
 47 50  1  0  0  0  0
 48 57  1  0  0  0  0
 49 51  1  0  0  0  0
 49 52  1  0  0  0  0
 50 54  1  0  0  0  0
 51 56  1  0  0  0  0
 52 72  1  0  0  0  0
 53 56  1  0  0  0  0
 53 72  1  0  0  0  0
 54 76  1  0  0  0  0
 55 71  1  0  0  0  0
 56 69  1  0  0  0  0
 57 86  1  0  0  0  0
 59 66  1  0  0  0  0
 60 67  1  0  0  0  0
 61 67  1  0  0  0  0
 62 67  1  0  0  0  0
 63 78  1  0  0  0  0
 64 70  1  0  0  0  0
 65 67  1  0  0  0  0
 65 77  1  0  0  0  0
 66 78  1  0  0  0  0
 68 69  1  0  0  0  0
M  CHG  1  78   1
M  ISO  4  41 100  57 101  75 100  86 101
M  END
> <Batch ID>
0052

> <Smiles>
C=C1CC[101CH:1]([101O:1]c2ccc3c(c2)CN(C(=O)C(NC(=O)C(C)NC)C(C)(C)C)C(C(=O)NC2CCCc4ccccc42)C3)CC(=O)N1Cc1ccc([100NH:0][100C:0](=O)N2CCCC(n3nc(-c4ccc(Oc5ccc(F)cc5F)cc4)c(C(N)=O)c3N)C2)c(C)c1

> <Shape>
0.228

> <Color>
0.190

> <Negative vol penalty>
0.000

$$$$

  -OEChem-04042322403D

 85 93  0     1  0  0  0  0  0999 V2000
  -27.8485  -10.4833   24.9877 C   0  0  0  0  0  0  0  0  0  0  0  0
  -28.3922  -11.7036   24.5995 C   0  0  0  0  0  0  0  0  0  0  0  0
  -22.7931  -28.4305   23.0515 C   0  0  0  0  0  0  0  0  0  0  0  0
  -22.5665  -29.7100   21.0148 C   0  0  0  0  0  0  0  0  0  0  0  0
  -26.8051   -9.9213   24.2535 C   0  0  0  0  0  0  0  0  0  0  0  0
  -27.8934  -12.3621   23.4761 C   0  0  0  0  0  0  0  0  0  0  0  0
  -27.3873  -18.4129   22.6776 C   0  0  0  0  0  0  0  0  0  0  0  0
  -28.5212  -28.5122   22.0231 C   0  0  0  0  0  0  0  0  0  0  0  0
  -23.1771  -29.5848   23.7340 C   0  0  0  0  0  0  0  0  0  0  0  0
  -22.9505  -30.8644   21.6972 C   0  0  0  0  0  0  0  0  0  0  0  0
  -28.1877  -19.3416   22.0138 C   0  0  0  0  0  0  0  0  0  0  0  0
  -24.5648  -32.1286   25.9310 C   0  0  0  0  0  0  0  0  0  0  0  0
  -25.6598  -32.0416   26.7906 C   0  0  0  0  0  0  0  0  0  0  0  0
  -29.9010  -28.3262   22.1072 C   0  0  0  0  0  0  0  0  0  0  0  0
  -26.7818  -19.1499   20.0630 C   0  0  0  0  0  0  0  0  0  0  0  0
  -27.0617  -31.3791   24.9378 C   0  0  0  0  0  0  0  0  0  0  0  0
  -22.4879  -28.4931   21.6919 C   0  0  0  0  0  0  0  0  0  0  0  0
  -20.7842  -26.8061   20.8205 C   0  0  0  0  0  0  0  0  0  0  0  0
  -26.2868  -10.5778   23.1261 C   0  0  0  0  0  0  0  0  0  0  0  0
  -26.2827  -17.8365   22.0342 C   0  0  0  0  0  0  0  0  0  0  0  0
  -26.8429  -11.8076   22.7253 C   0  0  0  0  0  0  0  0  0  0  0  0
  -25.9675  -18.2160   20.7217 C   0  0  0  0  0  0  0  0  0  0  0  0
  -27.7425  -27.6282   21.2762 C   0  0  0  0  0  0  0  0  0  0  0  0
  -29.7235  -26.3724   20.6972 C   0  0  0  0  0  0  0  0  0  0  0  0
  -28.3436  -26.5583   20.6132 C   0  0  0  0  0  0  0  0  0  0  0  0
  -23.2558  -30.8017   23.0569 C   0  0  0  0  0  0  0  0  0  0  0  0
  -27.8868  -19.7081   20.7053 C   0  0  0  0  0  0  0  0  0  0  0  0
  -24.7182  -31.8407   24.5748 C   0  0  0  0  0  0  0  0  0  0  0  0
  -26.9083  -31.6669   26.2940 C   0  0  0  0  0  0  0  0  0  0  0  0
  -25.9666  -31.4660   24.0782 C   0  0  0  0  0  0  0  0  0  0  0  0
  -30.5022  -27.2564   21.4442 C   0  0  0  0  0  0  0  0  0  0  0  0
  -22.0917  -27.3010   20.9862 C   0  0  0  0  0  0  0  0  0  0  0  0
  -20.9423  -25.6592   20.0815 C   0  0  0  0  0  0  0  0  0  0  0  0
  -19.5382  -27.3357   21.2924 C   0  0  0  0  0  0  0  0  0  0  0  0
  -25.4585  -14.8796   21.2090 C   0  0  0  0  0  0  0  0  0  0  0  0
  -22.6712  -16.3090   20.3663 C   0  0  0  0  0  0  0  0  0  0  0  0
  -29.4929  -22.8717   20.0400 C   0  0  0  0  0  0  0  0  0  0  0  0
  -21.0447  -19.1584   19.4271 C   0  0  0  0  0  0  0  0  0  0  0  0
  -26.3554  -25.9358   19.1819 C   0  0  0  0  0  0  0  0  0  0  0  0
  -25.1900   -9.9083   22.3365 C   0  0  0  0  0  0  0  0  0  0  0  0
  -25.4136  -16.8563   22.7732 C   0  0  0  0  0  0  0  0  0  0  0  0
  -24.7808  -17.6417   19.9934 C   0  0  0  0  0  0  0  0  0  0  0  0
  -24.4677  -10.8507   21.3772 C   0  0  0  0  0  0  0  0  0  0  0  0
  -24.5868  -22.5317   19.5701 C   0  0  0  0  0  0  0  0  0  0  0  0
  -25.4734  -11.6859   20.5910 C   0  0  0  0  0  0  0  0  0  0  0  0
  -23.2954  -23.2251   19.9855 C   0  0  0  0  0  0  0  0  0  0  0  0
  -25.7614  -23.5019   19.6619 C   0  0  0  0  0  0  0  0  0  0  0  0
  -24.2330  -24.9586   18.3300 C   0  0  0  0  0  0  0  0  0  0  0  0
  -26.3123  -12.5643   21.5269 C   0  0  1  0  0  0  0  0  0  0  0  0
  -24.6141  -15.9479   21.8442 C   0  0  1  0  0  0  0  0  0  0  0  0
  -22.9929  -24.4413   19.0875 C   0  0  2  0  0  0  0  0  0  0  0  0
  -26.2667  -27.8536   21.2068 C   0  0  0  0  0  0  0  0  0  0  0  0
  -19.1163  -20.6522   18.8377 C   0  0  0  0  0  0  0  0  0  0  0  0
  -22.9931  -15.0313   17.6142 C   0  0  0  0  0  0  0  0  0  0  0  0
  -21.2763  -16.6338   16.7464 C   0  0  0  0  0  0  0  0  0  0  0  0
  -20.6616  -14.9886   18.5180 C   0  0  0  0  0  0  0  0  0  0  0  0
  -30.5899  -23.8918   22.0421 C   0  0  0  0  0  0  0  0  0  0  0  0
  -20.6155  -19.9148   22.2560 C   0  0  0  0  0  0  0  0  0  0  0  0
  -30.3614  -25.2185   19.9790 C   0  0  0  0  0  0  0  0  0  0  0  0
  -29.3118  -21.6064   20.8518 C   0  0  0  0  0  0  0  0  0  1  0  0
  -22.1376  -16.9540   19.1100 C   0  0  1  0  0  0  0  0  0  0  0  0
  -19.7527  -19.7883   19.9154 C   0  0  2  0  0  0  0  0  0  0  0  0
  -21.7907  -15.9115   18.0099 C   0  0  0  0  0  0  0  0  0  0  0  0
  -23.0125  -26.5314   20.3998 N   0  0  0  0  0  0  0  0  0  0  0  0
  -22.2826  -25.5413   19.8584 N   0  0  0  0  0  0  0  0  0  0  0  0
  -23.9652  -16.6824   20.7563 N   0  0  0  0  0  0  0  0  0  0  0  0
  -25.4743  -24.8288   19.0973 N   0  0  0  0  0  0  0  0  0  0  0  0
  -20.0641  -24.7502   19.6073 N   0  0  0  0  0  0  0  0  0  0  0  0
  -19.5561  -28.5229   22.0371 N   0  0  0  0  0  0  0  0  0  0  0  0
  -27.5487  -25.6616   19.8556 N   0  0  0  0  0  0  0  0  0  0  0  0
  -25.5514  -13.7191   21.9533 N   0  0  0  0  0  0  0  0  0  0  0  0
  -21.0110  -17.7834   19.5239 N   0  0  0  0  0  0  0  0  0  0  0  0
  -30.1227  -23.9499   20.6625 N   0  0  0  0  0  0  0  0  0  0  0  0
  -20.0114  -20.6414   21.1097 N   0  3  0  0  0  0  0  0  0  0  0  0
  -18.4431  -26.7642   21.0745 O   0  0  0  0  0  0  0  0  0  0  0  0
  -25.9855  -15.0920   20.1232 O   0  0  0  0  0  0  0  0  0  0  0  0
  -21.9632  -15.5089   20.9829 O   0  0  0  0  0  0  0  0  0  0  0  0
  -29.0868  -22.8916   18.8740 O   0  0  0  0  0  0  0  0  0  0  0  0
  -21.9880  -19.8198   18.9989 O   0  0  0  0  0  0  0  0  0  0  0  0
  -26.0694  -27.0302   18.6917 O   0  0  0  0  0  0  0  0  0  0  0  0
  -23.6302  -31.9283   23.7225 O   0  0  0  0  0  0  0  0  0  0  0  0
  -28.6667  -20.6138   20.0549 O   0  0  0  0  0  0  0  0  0  1  0  0
  -27.9601  -31.5849   27.1193 F   0  0  0  0  0  0  0  0  0  0  0  0
  -26.1203  -31.1895   22.7760 F   0  0  0  0  0  0  0  0  0  0  0  0
  -32.2133  -27.0640   21.5725 Cl  0  0  0  0  0  0  0  0  0  0  0  0
  1  2  1  0  0  0  0
  1  5  2  0  0  0  0
  2  6  2  0  0  0  0
  3  9  2  0  0  0  0
  3 17  1  0  0  0  0
  4 10  1  0  0  0  0
  4 17  2  0  0  0  0
  5 19  1  0  0  0  0
  6 21  1  0  0  0  0
  7 11  2  0  0  0  0
  7 20  1  0  0  0  0
  8 14  1  0  0  0  0
  8 23  2  0  0  0  0
  9 26  1  0  0  0  0
 10 26  2  0  0  0  0
 11 27  1  0  0  0  0
 12 13  2  0  0  0  0
 12 28  1  0  0  0  0
 13 29  1  0  0  0  0
 14 31  2  0  0  0  0
 15 22  1  0  0  0  0
 15 27  2  0  0  0  0
 16 29  2  0  0  0  0
 16 30  1  0  0  0  0
 17 32  1  0  0  0  0
 18 32  1  0  0  0  0
 18 33  2  0  0  0  0
 18 34  1  0  0  0  0
 19 21  2  0  0  0  0
 19 40  1  0  0  0  0
 20 22  2  0  0  0  0
 20 41  1  0  0  0  0
 21 49  1  0  0  0  0
 22 42  1  0  0  0  0
 23 25  1  0  0  0  0
 23 52  1  0  0  0  0
 24 25  2  0  0  0  0
 24 31  1  0  0  0  0
 24 59  1  0  0  0  0
 25 70  1  0  0  0  0
 26 81  1  0  0  0  0
 27 82  1  0  0  0  0
 28 30  2  0  0  0  0
 28 81  1  0  0  0  0
 29 83  1  0  0  0  0
 30 84  1  0  0  0  0
 31 85  1  0  0  0  0
 32 64  2  0  0  0  0
 33 65  1  0  0  0  0
 33 68  1  0  0  0  0
 34 69  1  0  0  0  0
 34 75  2  0  0  0  0
 35 50  1  0  0  0  0
 35 71  1  0  0  0  0
 35 76  2  0  0  0  0
 36 61  1  0  0  0  0
 36 66  1  0  0  0  0
 36 77  2  0  0  0  0
 37 60  1  0  0  0  0
 37 73  1  0  0  0  0
 37 78  2  0  0  0  0
 38 62  1  0  0  0  0
 38 72  1  0  0  0  0
 38 79  2  0  0  0  0
 39 67  1  0  0  0  0
 39 70  1  0  0  0  0
 39 80  2  0  0  0  0
 40 43  1  0  0  0  0
 41 50  1  0  0  0  0
 42 66  1  0  0  0  0
 43 45  1  0  0  0  0
 44 46  1  0  0  0  0
 44 47  1  0  0  0  0
 45 49  1  0  0  0  0
 46 51  1  0  0  0  0
 47 67  1  0  0  0  0
 48 51  1  0  0  0  0
 48 67  1  0  0  0  0
 49 71  1  0  0  0  0
 50 66  1  0  0  0  0
 51 65  1  0  0  0  0
 53 62  1  0  0  0  0
 54 63  1  0  0  0  0
 55 63  1  0  0  0  0
 56 63  1  0  0  0  0
 57 73  1  0  0  0  0
 58 74  1  0  0  0  0
 59 73  1  0  0  0  0
 60 82  1  0  0  0  0
 61 63  1  0  0  0  0
 61 72  1  0  0  0  0
 62 74  1  0  0  0  0
 64 65  1  0  0  0  0
M  CHG  1  74   1
M  ISO  4  39 100  60 101  70 100  82 101
M  END
> <Batch ID>
0052

> <Smiles>
CNC(C)C(=O)NC(C(=O)N1Cc2cc([101O:1][101CH2:1]C(=O)N(C)Cc3c(Cl)ccc(C)c3[100NH:0][100C:0](=O)N3CCCC(n4nc(-c5ccc(Oc6ccc(F)cc6F)cc5)c(C(N)=O)c4N)C3)ccc2CC1C(=O)NC1CCCc2ccccc21)C(C)(C)C

> <Shape>
0.236

> <Color>
0.069

> <Negative vol penalty>
0.000

$$$$

  -OEChem-04042322403D

 93101  0     1  0  0  0  0  0999 V2000
  -21.3433  -29.2114   15.1276 C   0  0  0  0  0  0  0  0  0  0  0  0
  -22.1629  -28.3872   15.8919 C   0  0  0  0  0  0  0  0  0  0  0  0
  -22.6794  -10.3311   20.1623 C   0  0  0  0  0  0  0  0  0  0  0  0
  -23.6036  -10.0963   22.3821 C   0  0  0  0  0  0  0  0  0  0  0  0
  -21.2396  -30.5675   15.4345 C   0  0  0  0  0  0  0  0  0  0  0  0
  -22.8803  -28.9188   16.9630 C   0  0  0  0  0  0  0  0  0  0  0  0
  -22.6313  -26.0117   21.1020 C   0  0  0  0  0  0  0  0  0  0  0  0
  -31.4346  -17.1390   23.9965 C   0  0  0  0  0  0  0  0  0  0  0  0
  -21.7898   -9.2887   20.4224 C   0  0  0  0  0  0  0  0  0  0  0  0
  -22.7139   -9.0540   22.6423 C   0  0  0  0  0  0  0  0  0  0  0  0
  -23.4405  -24.8769   21.1327 C   0  0  0  0  0  0  0  0  0  0  0  0
  -22.4524   -5.7622   21.9165 C   0  0  0  0  0  0  0  0  0  0  0  0
  -22.9573   -4.6183   22.5344 C   0  0  0  0  0  0  0  0  0  0  0  0
  -30.8388  -18.0113   24.9075 C   0  0  0  0  0  0  0  0  0  0  0  0
  -25.0328  -26.0569   22.5080 C   0  0  0  0  0  0  0  0  0  0  0  0
  -21.4369   -4.9459   24.3833 C   0  0  0  0  0  0  0  0  0  0  0  0
  -23.5864  -10.7349   21.1421 C   0  0  0  0  0  0  0  0  0  0  0  0
  -24.2986  -13.1842   21.1056 C   0  0  0  0  0  0  0  0  0  0  0  0
  -21.9486  -31.1141   16.5158 C   0  0  0  0  0  0  0  0  0  0  0  0
  -23.0226  -27.1831   21.7662 C   0  0  0  0  0  0  0  0  0  0  0  0
  -22.7871  -30.2838   17.2838 C   0  0  0  0  0  0  0  0  0  0  0  0
  -24.2255  -27.2044   22.4864 C   0  0  0  0  0  0  0  0  0  0  0  0
  -30.8624  -16.9463   22.7390 C   0  0  0  0  0  0  0  0  0  0  0  0
  -29.6945  -17.6257   22.3926 C   0  0  0  0  0  0  0  0  0  0  0  0
  -21.8070   -8.6502   21.6624 C   0  0  0  0  0  0  0  0  0  0  0  0
  -24.6429  -24.9002   21.8333 C   0  0  0  0  0  0  0  0  0  0  0  0
  -21.4397   -6.4981   22.5319 C   0  0  0  0  0  0  0  0  0  0  0  0
  -22.4496   -4.2101   23.7678 C   0  0  0  0  0  0  0  0  0  0  0  0
  -20.9320   -6.0900   23.7653 C   0  0  0  0  0  0  0  0  0  0  0  0
  -29.0987  -18.4979   23.3036 C   0  0  0  0  0  0  0  0  0  0  0  0
  -29.6709  -18.6906   24.5611 C   0  0  0  0  0  0  0  0  0  0  0  0
  -24.5060  -11.8112   20.8738 C   0  0  0  0  0  0  0  0  0  0  0  0
  -25.4613  -13.7827   20.6857 C   0  0  0  0  0  0  0  0  0  0  0  0
  -23.1571  -13.8582   21.6516 C   0  0  0  0  0  0  0  0  0  0  0  0
  -23.6940  -30.1560   20.8635 C   0  0  0  0  0  0  0  0  0  0  0  0
  -23.8712  -30.6718   24.0611 C   0  0  0  0  0  0  0  0  0  0  0  0
  -26.7045  -22.2065   20.5520 C   0  0  0  0  0  0  0  0  0  0  0  0
  -27.7554  -19.2415   19.8999 C   0  0  0  0  0  0  0  0  0  0  0  0
  -24.3764  -29.3823   27.1802 C   0  0  0  0  0  0  0  0  0  0  0  0
  -31.0346  -13.9653   20.4596 C   0  0  0  0  0  0  0  0  0  0  0  0
  -21.8413  -32.5952   16.7799 C   0  0  0  0  0  0  0  0  0  0  0  0
  -22.1256  -28.3903   21.7457 C   0  0  0  0  0  0  0  0  0  0  0  0
  -24.6812  -28.4305   23.2330 C   0  0  0  0  0  0  0  0  0  0  0  0
  -22.3437  -33.0054   18.1617 C   0  0  0  0  0  0  0  0  0  0  0  0
  -29.3690  -11.9139   18.0734 C   0  0  0  0  0  0  0  0  0  0  0  0
  -23.6871  -32.3466   18.4586 C   0  0  0  0  0  0  0  0  0  0  0  0
  -27.9407  -11.8126   18.6116 C   0  0  0  0  0  0  0  0  0  0  0  0
  -30.3977  -11.9284   19.2019 C   0  0  0  0  0  0  0  0  0  0  0  0
  -28.7404  -12.8541   20.7736 C   0  0  0  0  0  0  0  0  0  0  0  0
  -23.5618  -30.8183   18.4687 C   0  0  1  0  0  0  0  0  0  0  0  0
  -22.8688  -29.6919   22.0302 C   0  0  1  0  0  0  0  0  0  0  0  0
  -27.6644  -12.8924   19.6750 C   0  0  2  0  0  0  0  0  0  0  0  0
  -24.4976  -30.0561   29.5945 C   0  0  0  0  0  0  0  0  0  0  0  0
  -27.9416  -21.5582   16.7625 C   0  0  0  0  0  0  0  0  0  0  0  0
  -26.6256  -19.4456   17.0661 C   0  0  0  0  0  0  0  0  0  0  0  0
  -26.6473  -31.8477   23.5911 C   0  0  0  0  0  0  0  0  0  0  0  0
  -27.0840  -31.6173   26.0456 C   0  0  0  0  0  0  0  0  0  0  0  0
  -25.2484  -33.1026   25.2412 C   0  0  0  0  0  0  0  0  0  0  0  0
  -30.2602  -19.3055   19.9937 C   0  0  0  0  0  0  0  0  0  0  0  0
  -22.0970  -27.6380   27.9015 C   0  0  0  0  0  0  0  0  0  0  0  0
  -31.5210  -16.0094   21.7804 C   0  0  0  0  0  0  0  0  0  0  0  0
  -29.0645  -17.4310   21.0438 C   0  0  0  0  0  0  0  0  0  0  0  0
  -25.3859  -22.9282   20.7311 C   0  0  0  0  0  0  0  0  0  1  0  0
  -24.9661  -30.5943   25.0975 C   0  0  1  0  0  0  0  0  0  0  0  0
  -27.8030  -20.5330   19.0762 C   0  0  1  0  0  0  0  0  0  0  0  0
  -23.6023  -29.5467   28.4756 C   0  0  2  0  0  0  0  0  0  0  0  0
  -27.8325  -20.2532   17.5570 C   0  0  0  0  0  0  0  0  0  0  0  0
  -25.9791  -31.7678   24.9783 C   0  0  0  0  0  0  0  0  0  0  0  0
  -25.7060  -11.5526   20.3474 N   0  0  0  0  0  0  0  0  0  0  0  0
  -26.2631  -12.7712   20.2448 N   0  0  0  0  0  0  0  0  0  0  0  0
  -23.7725  -29.5875   23.1777 N   0  0  0  0  0  0  0  0  0  0  0  0
  -30.0791  -12.9757   20.1754 N   0  0  0  0  0  0  0  0  0  0  0  0
  -25.8659  -15.0702   20.6542 N   0  0  0  0  0  0  0  0  0  0  0  0
  -22.0471  -13.0916   22.0319 N   0  0  0  0  0  0  0  0  0  0  0  0
  -22.9659  -30.3683   19.7084 N   0  0  0  0  0  0  0  0  0  0  0  0
  -24.2980  -30.5108   26.3917 N   0  0  0  0  0  0  0  0  0  0  0  0
  -26.6736  -21.3447   19.4669 N   0  0  0  0  0  0  0  0  0  0  0  0
  -30.6496  -14.9239   21.3890 N   0  0  0  0  0  0  0  0  0  0  0  0
  -28.9760  -18.6833   20.2955 N   0  0  0  0  0  0  0  0  0  0  0  0
  -23.0174  -28.2428   28.8985 N   0  3  0  0  0  0  0  0  0  0  0  0
  -23.1160  -15.1051   21.7828 O   0  0  0  0  0  0  0  0  0  0  0  0
  -24.9017  -30.3115   21.0014 O   0  0  0  0  0  0  0  0  0  0  0  0
  -23.1262  -31.6548   24.0408 O   0  0  0  0  0  0  0  0  0  0  0  0
  -27.6654  -22.3840   21.2958 O   0  0  0  0  0  0  0  0  0  0  0  0
  -26.6659  -18.7157   20.1547 O   0  0  0  0  0  0  0  0  0  0  0  0
  -24.9923  -28.3570   26.8978 O   0  0  0  0  0  0  0  0  0  0  0  0
  -32.1462  -13.9957   19.9208 O   0  0  0  0  0  0  0  0  0  0  0  0
  -20.9389   -7.6332   21.9167 O   0  0  0  0  0  0  0  0  0  0  0  0
  -25.4350  -23.7941   21.8643 O   0  0  0  0  0  0  0  0  0  1  0  0
  -22.9335   -3.1106   24.3605 F   0  0  0  0  0  0  0  0  0  0  0  0
  -19.9583   -6.7922   24.3608 F   0  0  0  0  0  0  0  0  0  0  0  0
  -27.9750  -19.1487   22.9658 F   0  0  0  0  0  0  0  0  0  0  0  0
  -28.9391  -19.7632   25.6915 Cl  0  0  0  0  0  0  0  0  0  0  0  0
  1  2  1  0  0  0  0
  1  5  2  0  0  0  0
  2  6  2  0  0  0  0
  3  9  2  0  0  0  0
  3 17  1  0  0  0  0
  4 10  1  0  0  0  0
  4 17  2  0  0  0  0
  5 19  1  0  0  0  0
  6 21  1  0  0  0  0
  7 11  2  0  0  0  0
  7 20  1  0  0  0  0
  8 14  1  0  0  0  0
  8 23  2  0  0  0  0
  9 25  1  0  0  0  0
 10 25  2  0  0  0  0
 11 26  1  0  0  0  0
 12 13  2  0  0  0  0
 12 27  1  0  0  0  0
 13 28  1  0  0  0  0
 14 31  2  0  0  0  0
 15 22  1  0  0  0  0
 15 26  2  0  0  0  0
 16 28  2  0  0  0  0
 16 29  1  0  0  0  0
 17 32  1  0  0  0  0
 18 32  1  0  0  0  0
 18 33  2  0  0  0  0
 18 34  1  0  0  0  0
 19 21  2  0  0  0  0
 19 41  1  0  0  0  0
 20 22  2  0  0  0  0
 20 42  1  0  0  0  0
 21 50  1  0  0  0  0
 22 43  1  0  0  0  0
 23 24  1  0  0  0  0
 23 61  1  0  0  0  0
 24 30  2  0  0  0  0
 24 62  1  0  0  0  0
 25 88  1  0  0  0  0
 26 89  1  0  0  0  0
 27 29  2  0  0  0  0
 27 88  1  0  0  0  0
 28 90  1  0  0  0  0
 29 91  1  0  0  0  0
 30 31  1  0  0  0  0
 30 92  1  0  0  0  0
 31 93  1  0  0  0  0
 32 69  2  0  0  0  0
 33 70  1  0  0  0  0
 33 73  1  0  0  0  0
 34 74  1  0  0  0  0
 34 81  2  0  0  0  0
 35 51  1  0  0  0  0
 35 75  1  0  0  0  0
 35 82  2  0  0  0  0
 36 64  1  0  0  0  0
 36 71  1  0  0  0  0
 36 83  2  0  0  0  0
 37 63  1  0  0  0  0
 37 77  1  0  0  0  0
 37 84  2  0  0  0  0
 38 65  1  0  0  0  0
 38 79  1  0  0  0  0
 38 85  2  0  0  0  0
 39 66  1  0  0  0  0
 39 76  1  0  0  0  0
 39 86  2  0  0  0  0
 40 72  1  0  0  0  0
 40 78  1  0  0  0  0
 40 87  2  0  0  0  0
 41 44  1  0  0  0  0
 42 51  1  0  0  0  0
 43 71  1  0  0  0  0
 44 46  1  0  0  0  0
 45 47  1  0  0  0  0
 45 48  1  0  0  0  0
 46 50  1  0  0  0  0
 47 52  1  0  0  0  0
 48 72  1  0  0  0  0
 49 52  1  0  0  0  0
 49 72  1  0  0  0  0
 50 75  1  0  0  0  0
 51 71  1  0  0  0  0
 52 70  1  0  0  0  0
 53 66  1  0  0  0  0
 54 67  1  0  0  0  0
 55 67  1  0  0  0  0
 56 68  1  0  0  0  0
 57 68  1  0  0  0  0
 58 68  1  0  0  0  0
 59 79  1  0  0  0  0
 60 80  1  0  0  0  0
 61 78  1  0  0  0  0
 62 79  1  0  0  0  0
 63 89  1  0  0  0  0
 64 68  1  0  0  0  0
 64 76  1  0  0  0  0
 65 67  1  0  0  0  0
 65 77  1  0  0  0  0
 66 80  1  0  0  0  0
 69 70  1  0  0  0  0
M  CHG  1  80   1
M  ISO  4  40 100  63 101  78 100  89 101
M  END
> <Batch ID>
0052

> <Smiles>
CNC(C)C(=O)NC(C(=O)N1Cc2cc([101O:1][101CH2:1]C(=O)NC(C(=O)N(C)Cc3c(C[100NH:0][100C:0](=O)N4CCCC(n5nc(-c6ccc(Oc7ccc(F)cc7F)cc6)c(C(N)=O)c5N)C4)ccc(Cl)c3F)C(C)C)ccc2CC1C(=O)NC1CCCc2ccccc21)C(C)(C)C

> <Shape>
0.317

> <Color>
0.172

> <Negative vol penalty>
0.000

$$$$

  -OEChem-04042322403D

 87 95  0     1  0  0  0  0  0999 V2000
  -16.0370  -18.8191   29.6354 C   0  0  0  0  0  0  0  0  0  0  0  0
  -17.3247  -18.8563   29.1100 C   0  0  0  0  0  0  0  0  0  0  0  0
  -23.0744   -9.8723   19.9433 C   0  0  0  0  0  0  0  0  0  0  0  0
  -23.8406   -9.8717   22.2345 C   0  0  0  0  0  0  0  0  0  0  0  0
  -15.4133  -20.0009   30.0333 C   0  0  0  0  0  0  0  0  0  0  0  0
  -17.9890  -20.0755   28.9812 C   0  0  0  0  0  0  0  0  0  0  0  0
  -22.7969  -19.8439   30.5546 C   0  0  0  0  0  0  0  0  0  0  0  0
  -22.3295   -8.7196   20.1920 C   0  0  0  0  0  0  0  0  0  0  0  0
  -23.0957   -8.7190   22.4834 C   0  0  0  0  0  0  0  0  0  0  0  0
  -23.7216  -19.2571   29.6919 C   0  0  0  0  0  0  0  0  0  0  0  0
  -19.8680   -7.9244   23.0926 C   0  0  0  0  0  0  0  0  0  0  0  0
  -19.1142   -7.8823   24.2654 C   0  0  0  0  0  0  0  0  0  0  0  0
  -31.9170  -18.3224   24.1915 C   0  0  0  0  0  0  0  0  0  0  0  0
  -24.4456  -21.4478   28.9877 C   0  0  0  0  0  0  0  0  0  0  0  0
  -32.0807  -16.5761   22.5299 C   0  0  0  0  0  0  0  0  0  0  0  0
  -20.3547   -5.9409   24.9930 C   0  0  0  0  0  0  0  0  0  0  0  0
  -23.8300  -10.4483   20.9645 C   0  0  0  0  0  0  0  0  0  0  0  0
  -30.5290  -18.3238   24.0532 C   0  0  0  0  0  0  0  0  0  0  0  0
  -24.1754  -12.9733   20.8506 C   0  0  0  0  0  0  0  0  0  0  0  0
  -16.0740  -21.2341   29.9183 C   0  0  0  0  0  0  0  0  0  0  0  0
  -22.6818  -21.2393   30.6325 C   0  0  0  0  0  0  0  0  0  0  0  0
  -17.3730  -21.2750   29.3767 C   0  0  0  0  0  0  0  0  0  0  0  0
  -23.5204  -22.0498   29.8541 C   0  0  0  0  0  0  0  0  0  0  0  0
  -29.9169  -17.4513   23.1534 C   0  0  0  0  0  0  0  0  0  0  0  0
  -30.6927  -16.5775   22.3917 C   0  0  0  0  0  0  0  0  0  0  0  0
  -22.3401   -8.1429   21.4621 C   0  0  0  0  0  0  0  0  0  0  0  0
  -24.5441  -20.0590   28.9061 C   0  0  0  0  0  0  0  0  0  0  0  0
  -20.8651   -6.9747   22.8699 C   0  0  0  0  0  0  0  0  0  0  0  0
  -32.6929  -17.4486   23.4298 C   0  0  0  0  0  0  0  0  0  0  0  0
  -19.3576   -6.8906   25.2157 C   0  0  0  0  0  0  0  0  0  0  0  0
  -21.1084   -5.9830   23.8201 C   0  0  0  0  0  0  0  0  0  0  0  0
  -24.6002  -11.6388   20.7080 C   0  0  0  0  0  0  0  0  0  0  0  0
  -25.2677  -13.7221   20.4864 C   0  0  0  0  0  0  0  0  0  0  0  0
  -29.7302  -19.2661   24.8785 C   0  0  0  0  0  0  0  0  0  0  0  0
  -22.9069  -13.4899   21.2745 C   0  0  0  0  0  0  0  0  0  0  0  0
  -20.3676  -23.3358   30.0389 C   0  0  0  0  0  0  0  0  0  0  0  0
  -27.7948  -19.2832   27.5016 C   0  0  0  0  0  0  0  0  0  0  0  0
  -22.4943  -25.4466   31.2816 C   0  0  0  0  0  0  0  0  0  0  0  0
  -25.7478  -26.2206   31.9615 C   0  0  0  0  0  0  0  0  0  0  0  0
  -30.7359  -14.7589   20.6489 C   0  0  0  0  0  0  0  0  0  0  0  0
  -15.3412  -22.4903   30.3178 C   0  0  0  0  0  0  0  0  0  0  0  0
  -21.6979  -21.8570   31.5878 C   0  0  0  0  0  0  0  0  0  0  0  0
  -23.4505  -23.5531   29.9156 C   0  0  0  0  0  0  0  0  0  0  0  0
  -16.2566  -23.6988   30.4963 C   0  0  0  0  0  0  0  0  0  0  0  0
  -29.6113  -12.3535   18.2770 C   0  0  0  0  0  0  0  0  0  0  0  0
  -17.2291  -23.8093   29.3264 C   0  0  0  0  0  0  0  0  0  0  0  0
  -28.1724  -12.0629   18.7097 C   0  0  0  0  0  0  0  0  0  0  0  0
  -30.5301  -12.5775   19.4767 C   0  0  0  0  0  0  0  0  0  0  0  0
  -28.6280  -13.3010   20.8653 C   0  0  0  0  0  0  0  0  0  0  0  0
  -18.1358  -22.5753   29.2443 C   0  0  1  0  0  0  0  0  0  0  0  0
  -21.3104  -23.2827   31.2076 C   0  0  1  0  0  0  0  0  0  0  0  0
  -27.6517  -13.1325   19.6897 C   0  0  2  0  0  0  0  0  0  0  0  0
  -28.4270  -17.4537   23.0045 C   0  0  0  0  0  0  0  0  0  0  0  0
  -27.1770  -28.0321   32.9481 C   0  0  0  0  0  0  0  0  0  0  0  0
  -22.1458  -27.1014   28.7419 C   0  0  0  0  0  0  0  0  0  0  0  0
  -24.2381  -28.3377   29.3438 C   0  0  0  0  0  0  0  0  0  0  0  0
  -22.2538  -28.4392   30.8522 C   0  0  0  0  0  0  0  0  0  0  0  0
  -26.7601  -24.4253   34.0854 C   0  0  0  0  0  0  0  0  0  0  0  0
  -34.7794  -16.5282   22.7553 C   0  0  0  0  0  0  0  0  0  0  0  0
  -29.1199  -19.9436   27.1861 C   0  0  0  0  0  0  0  0  0  0  0  0
  -26.6428  -20.2220   27.7992 C   0  0  0  0  0  0  0  0  0  1  0  0
  -23.6020  -26.3045   30.7195 C   0  0  1  0  0  0  0  0  0  0  0  0
  -26.4172  -26.7431   33.2198 C   0  0  2  0  0  0  0  0  0  0  0  0
  -23.0601  -27.5174   29.9115 C   0  0  0  0  0  0  0  0  0  0  0  0
  -25.8638  -11.5422   20.2859 N   0  0  0  0  0  0  0  0  0  0  0  0
  -26.2423  -12.8255   20.1601 N   0  0  0  0  0  0  0  0  0  0  0  0
  -22.4680  -24.1095   30.8604 N   0  0  0  0  0  0  0  0  0  0  0  0
  -29.9751  -13.6067   20.3585 N   0  0  0  0  0  0  0  0  0  0  0  0
  -25.4799  -15.0535   20.4165 N   0  0  0  0  0  0  0  0  0  0  0  0
  -21.8945  -12.5813   21.6120 N   0  0  0  0  0  0  0  0  0  0  0  0
  -30.0922  -15.6827   21.4717 N   0  0  0  0  0  0  0  0  0  0  0  0
  -29.8449  -19.1262   26.2594 N   0  0  0  0  0  0  0  0  0  0  0  0
  -19.1841  -22.6513   30.2391 N   0  0  0  0  0  0  0  0  0  0  0  0
  -24.4490  -26.6698   31.8497 N   0  0  0  0  0  0  0  0  0  0  0  0
  -27.3770  -25.7352   33.7526 N   0  3  0  0  0  0  0  0  0  0  0  0
  -29.0092  -20.0893   24.3209 O   0  0  0  0  0  0  0  0  0  0  0  0
  -22.6726  -14.7207   21.3359 O   0  0  0  0  0  0  0  0  0  0  0  0
  -20.6895  -23.9535   29.0306 O   0  0  0  0  0  0  0  0  0  0  0  0
  -27.6681  -18.0607   27.5662 O   0  0  0  0  0  0  0  0  0  0  0  0
  -21.6866  -25.9425   32.0711 O   0  0  0  0  0  0  0  0  0  0  0  0
  -26.3212  -25.4904   31.1561 O   0  0  0  0  0  0  0  0  0  0  0  0
  -31.8640  -14.9273   20.1786 O   0  0  0  0  0  0  0  0  0  0  0  0
  -21.6131   -7.0182   21.7053 O   0  0  0  0  0  0  0  0  0  0  0  0
  -34.0473  -17.4471   23.5647 O   0  0  0  0  0  0  0  0  0  0  0  0
  -25.4471  -19.4889   28.0627 O   0  0  0  0  0  0  0  0  0  1  0  0
  -18.6347   -6.8513   26.3426 F   0  0  0  0  0  0  0  0  0  0  0  0
  -22.0658   -5.0686   23.6123 F   0  0  0  0  0  0  0  0  0  0  0  0
  1  2  1  0  0  0  0
  1  5  2  0  0  0  0
  2  6  2  0  0  0  0
  3  8  2  0  0  0  0
  3 17  1  0  0  0  0
  4  9  1  0  0  0  0
  4 17  2  0  0  0  0
  5 20  1  0  0  0  0
  6 22  1  0  0  0  0
  7 10  2  0  0  0  0
  7 21  1  0  0  0  0
  8 26  1  0  0  0  0
  9 26  2  0  0  0  0
 10 27  1  0  0  0  0
 11 12  2  0  0  0  0
 11 28  1  0  0  0  0
 12 30  1  0  0  0  0
 13 18  1  0  0  0  0
 13 29  2  0  0  0  0
 14 23  1  0  0  0  0
 14 27  2  0  0  0  0
 15 25  2  0  0  0  0
 15 29  1  0  0  0  0
 16 30  2  0  0  0  0
 16 31  1  0  0  0  0
 17 32  1  0  0  0  0
 18 24  2  0  0  0  0
 18 34  1  0  0  0  0
 19 32  1  0  0  0  0
 19 33  2  0  0  0  0
 19 35  1  0  0  0  0
 20 22  2  0  0  0  0
 20 41  1  0  0  0  0
 21 23  2  0  0  0  0
 21 42  1  0  0  0  0
 22 50  1  0  0  0  0
 23 43  1  0  0  0  0
 24 25  1  0  0  0  0
 24 53  1  0  0  0  0
 25 71  1  0  0  0  0
 26 83  1  0  0  0  0
 27 85  1  0  0  0  0
 28 31  2  0  0  0  0
 28 83  1  0  0  0  0
 29 84  1  0  0  0  0
 30 86  1  0  0  0  0
 31 87  1  0  0  0  0
 32 65  2  0  0  0  0
 33 66  1  0  0  0  0
 33 69  1  0  0  0  0
 34 72  1  0  0  0  0
 34 76  2  0  0  0  0
 35 70  1  0  0  0  0
 35 77  2  0  0  0  0
 36 51  1  0  0  0  0
 36 73  1  0  0  0  0
 36 78  2  0  0  0  0
 37 60  1  0  0  0  0
 37 61  1  0  0  0  0
 37 79  2  0  0  0  0
 38 62  1  0  0  0  0
 38 67  1  0  0  0  0
 38 80  2  0  0  0  0
 39 63  1  0  0  0  0
 39 74  1  0  0  0  0
 39 81  2  0  0  0  0
 40 68  1  0  0  0  0
 40 71  1  0  0  0  0
 40 82  2  0  0  0  0
 41 44  1  0  0  0  0
 42 51  1  0  0  0  0
 43 67  1  0  0  0  0
 44 46  1  0  0  0  0
 45 47  1  0  0  0  0
 45 48  1  0  0  0  0
 46 50  1  0  0  0  0
 47 52  1  0  0  0  0
 48 68  1  0  0  0  0
 49 52  1  0  0  0  0
 49 68  1  0  0  0  0
 50 73  1  0  0  0  0
 51 67  1  0  0  0  0
 52 66  1  0  0  0  0
 54 63  1  0  0  0  0
 55 64  1  0  0  0  0
 56 64  1  0  0  0  0
 57 64  1  0  0  0  0
 58 75  1  0  0  0  0
 59 84  1  0  0  0  0
 60 72  1  0  0  0  0
 61 85  1  0  0  0  0
 62 64  1  0  0  0  0
 62 74  1  0  0  0  0
 63 75  1  0  0  0  0
 65 66  1  0  0  0  0
M  CHG  1  75   1
M  ISO  4  40 100  61 101  71 100  85 101
M  END
> <Batch ID>
0052

> <Smiles>
CNC(C)C(=O)NC(C(=O)N1Cc2cc([101O:1][101CH2:1]C(=O)CNC(=O)c3cc(OC)cc([100NH:0][100C:0](=O)N4CCCC(n5nc(-c6ccc(Oc7ccc(F)cc7F)cc6)c(C(N)=O)c5N)C4)c3C)ccc2CC1C(=O)NC1CCCc2ccccc21)C(C)(C)C

> <Shape>
0.165

> <Color>
0.184

> <Negative vol penalty>
0.000

$$$$

  -OEChem-04042322403D

 85 93  0     1  0  0  0  0  0999 V2000
  -27.7057  -34.3494   16.9443 C   0  0  0  0  0  0  0  0  0  0  0  0
  -27.4566  -32.9881   16.8018 C   0  0  0  0  0  0  0  0  0  0  0  0
  -29.4948  -19.4342   23.6721 C   0  0  0  0  0  0  0  0  0  0  0  0
  -22.8592  -10.1450   20.0458 C   0  0  0  0  0  0  0  0  0  0  0  0
  -23.6531  -10.0624   22.3262 C   0  0  0  0  0  0  0  0  0  0  0  0
  -27.8274  -34.9051   18.2172 C   0  0  0  0  0  0  0  0  0  0  0  0
  -27.3301  -32.1815   17.9322 C   0  0  0  0  0  0  0  0  0  0  0  0
  -23.6460  -27.3357   18.6035 C   0  0  0  0  0  0  0  0  0  0  0  0
  -30.2915  -18.3132   23.4397 C   0  0  0  0  0  0  0  0  0  0  0  0
  -22.0302   -9.0512   20.2948 C   0  0  0  0  0  0  0  0  0  0  0  0
  -22.8240   -8.9687   22.5752 C   0  0  0  0  0  0  0  0  0  0  0  0
  -23.8717  -25.9640   18.4974 C   0  0  0  0  0  0  0  0  0  0  0  0
  -22.8416   -5.6415   21.9749 C   0  0  0  0  0  0  0  0  0  0  0  0
  -23.3849   -4.5616   22.6707 C   0  0  0  0  0  0  0  0  0  0  0  0
  -28.7010  -19.9503   22.6476 C   0  0  0  0  0  0  0  0  0  0  0  0
  -24.1754  -25.8352   20.8870 C   0  0  0  0  0  0  0  0  0  0  0  0
  -21.7296   -4.8475   24.4071 C   0  0  0  0  0  0  0  0  0  0  0  0
  -23.6707  -10.6505   21.0615 C   0  0  0  0  0  0  0  0  0  0  0  0
  -24.2100  -13.1420   20.9649 C   0  0  0  0  0  0  0  0  0  0  0  0
  -27.6927  -34.1066   19.3640 C   0  0  0  0  0  0  0  0  0  0  0  0
  -23.6942  -27.9704   19.8530 C   0  0  0  0  0  0  0  0  0  0  0  0
  -27.4515  -32.7268   19.2216 C   0  0  0  0  0  0  0  0  0  0  0  0
  -23.9474  -27.2146   21.0066 C   0  0  0  0  0  0  0  0  0  0  0  0
  -30.2947  -17.7082   22.1828 C   0  0  0  0  0  0  0  0  0  0  0  0
  -29.5010  -18.2242   21.1584 C   0  0  0  0  0  0  0  0  0  0  0  0
  -22.0125   -8.4631   21.5595 C   0  0  0  0  0  0  0  0  0  0  0  0
  -24.1393  -25.2140   19.6389 C   0  0  0  0  0  0  0  0  0  0  0  0
  -21.7423   -6.3245   22.4952 C   0  0  0  0  0  0  0  0  0  0  0  0
  -22.8289   -4.1645   23.8868 C   0  0  0  0  0  0  0  0  0  0  0  0
  -21.1863   -5.9275   23.7113 C   0  0  0  0  0  0  0  0  0  0  0  0
  -28.7042  -19.3453   21.3908 C   0  0  0  0  0  0  0  0  0  0  0  0
  -24.5278  -11.7800   20.8048 C   0  0  0  0  0  0  0  0  0  0  0  0
  -25.3523  -13.8073   20.5922 C   0  0  0  0  0  0  0  0  0  0  0  0
  -22.9911  -13.7514   21.4108 C   0  0  0  0  0  0  0  0  0  0  0  0
  -25.4946  -30.2504   21.1428 C   0  0  0  0  0  0  0  0  0  0  0  0
  -23.4036  -29.9666   23.6064 C   0  0  0  0  0  0  0  0  0  0  0  0
  -21.1481  -28.0312   25.2838 C   0  0  0  0  0  0  0  0  0  0  0  0
  -30.9019  -14.3865   20.7012 C   0  0  0  0  0  0  0  0  0  0  0  0
  -27.8793  -34.7437   20.7182 C   0  0  0  0  0  0  0  0  0  0  0  0
  -23.4220  -29.4462   19.9537 C   0  0  0  0  0  0  0  0  0  0  0  0
  -23.9901  -27.8447   22.3739 C   0  0  0  0  0  0  0  0  0  0  0  0
  -27.3596  -33.8882   21.8707 C   0  0  0  0  0  0  0  0  0  0  0  0
  -29.5415  -12.1303   18.3064 C   0  0  0  0  0  0  0  0  0  0  0  0
  -27.8268  -32.4443   21.7166 C   0  0  0  0  0  0  0  0  0  0  0  0
  -28.0922  -11.9458   18.7597 C   0  0  0  0  0  0  0  0  0  0  0  0
  -30.4919  -12.2624   19.4943 C   0  0  0  0  0  0  0  0  0  0  0  0
  -28.6761  -13.1239   20.9206 C   0  0  0  0  0  0  0  0  0  0  0  0
  -27.2833  -31.8235   20.4241 C   0  0  1  0  0  0  0  0  0  0  0  0
  -24.0039  -30.0763   21.2154 C   0  0  1  0  0  0  0  0  0  0  0  0
  -27.6729  -13.0421   19.7574 C   0  0  2  0  0  0  0  0  0  0  0  0
  -29.5108  -17.5685   19.8136 C   0  0  0  0  0  0  0  0  0  0  0  0
  -19.6293  -28.0588   27.2813 C   0  0  0  0  0  0  0  0  0  0  0  0
  -25.8102  -29.5663   25.4388 C   0  0  0  0  0  0  0  0  0  0  0  0
  -24.2484  -28.6716   27.1791 C   0  0  0  0  0  0  0  0  0  0  0  0
  -24.0109  -31.0239   26.3834 C   0  0  0  0  0  0  0  0  0  0  0  0
  -18.7412  -27.6506   23.6042 C   0  0  0  0  0  0  0  0  0  0  0  0
  -31.1576  -16.5091   21.9615 C   0  0  0  0  0  0  0  0  0  0  0  0
  -25.9161  -22.0815   19.8797 C   0  0  0  0  0  0  0  0  0  0  0  0
  -25.2287  -23.2856   20.5051 C   0  0  0  0  0  0  0  0  0  1  0  0
  -26.8704  -21.4128   20.8536 C   0  0  0  0  0  0  0  0  0  0  0  0
  -23.3336  -29.1250   24.8577 C   0  0  1  0  0  0  0  0  0  0  0  0
  -19.7470  -28.3253   25.7887 C   0  0  2  0  0  0  0  0  0  0  0  0
  -24.3519  -29.5849   25.9389 C   0  0  0  0  0  0  0  0  0  0  0  0
  -25.7743  -11.5897   20.3645 N   0  0  0  0  0  0  0  0  0  0  0  0
  -26.6077  -18.9546   19.8301 N   0  0  0  0  0  0  0  0  0  0  0  0
  -26.2499  -12.8409   20.2447 N   0  0  0  0  0  0  0  0  0  0  0  0
  -23.7238  -29.2920   22.4198 N   0  0  0  0  0  0  0  0  0  0  0  0
  -30.0387  -13.3199   20.4011 N   0  0  0  0  0  0  0  0  0  0  0  0
  -25.6666  -15.1187   20.5310 N   0  0  0  0  0  0  0  0  0  0  0  0
  -21.9157  -12.9210   21.7543 N   0  0  0  0  0  0  0  0  0  0  0  0
  -25.8945  -31.4509   20.5875 N   0  0  0  0  0  0  0  0  0  0  0  0
  -21.9421  -29.1584   25.2948 N   0  0  0  0  0  0  0  0  0  0  0  0
  -30.3916  -15.3490   21.5637 N   0  0  0  0  0  0  0  0  0  0  0  0
  -18.7513  -27.4733   25.0792 N   0  3  0  0  0  0  0  0  0  0  0  0
  -22.8542  -14.9960   21.4862 O   0  0  0  0  0  0  0  0  0  0  0  0
  -26.2277  -29.3620   21.5611 O   0  0  0  0  0  0  0  0  0  0  0  0
  -23.1753  -31.1767   23.6780 O   0  0  0  0  0  0  0  0  0  0  0  0
  -21.5038  -26.9124   24.9199 O   0  0  0  0  0  0  0  0  0  0  0  0
  -32.0410  -14.4773   20.2308 O   0  0  0  0  0  0  0  0  0  0  0  0
  -28.5857  -20.5947   19.1220 O   0  0  0  0  0  0  0  0  0  0  0  0
  -21.2035   -7.3960   21.8029 O   0  0  0  0  0  0  0  0  0  0  0  0
  -24.3606  -23.8751   19.5380 O   0  0  0  0  0  0  0  0  0  1  0  0
  -23.3498   -3.1265   24.5541 F   0  0  0  0  0  0  0  0  0  0  0  0
  -20.1294   -6.5790   24.2156 F   0  0  0  0  0  0  0  0  0  0  0  0
  -27.6811  -20.0313   20.1135 S   0  0  2  0  0  0  0  0  0  0  0  0
  1  2  1  0  0  0  0
  1  6  2  0  0  0  0
  2  7  2  0  0  0  0
  3  9  1  0  0  0  0
  3 15  2  0  0  0  0
  4 10  2  0  0  0  0
  4 18  1  0  0  0  0
  5 11  1  0  0  0  0
  5 18  2  0  0  0  0
  6 20  1  0  0  0  0
  7 22  1  0  0  0  0
  8 12  2  0  0  0  0
  8 21  1  0  0  0  0
  9 24  2  0  0  0  0
 10 26  1  0  0  0  0
 11 26  2  0  0  0  0
 12 27  1  0  0  0  0
 13 14  2  0  0  0  0
 13 28  1  0  0  0  0
 14 29  1  0  0  0  0
 15 31  1  0  0  0  0
 16 23  1  0  0  0  0
 16 27  2  0  0  0  0
 17 29  2  0  0  0  0
 17 30  1  0  0  0  0
 18 32  1  0  0  0  0
 19 32  1  0  0  0  0
 19 33  2  0  0  0  0
 19 34  1  0  0  0  0
 20 22  2  0  0  0  0
 20 39  1  0  0  0  0
 21 23  2  0  0  0  0
 21 40  1  0  0  0  0
 22 48  1  0  0  0  0
 23 41  1  0  0  0  0
 24 25  1  0  0  0  0
 24 57  1  0  0  0  0
 25 31  2  0  0  0  0
 25 51  1  0  0  0  0
 26 81  1  0  0  0  0
 27 82  1  0  0  0  0
 28 30  2  0  0  0  0
 28 81  1  0  0  0  0
 29 83  1  0  0  0  0
 30 84  1  0  0  0  0
 31 85  1  0  0  0  0
 32 64  2  0  0  0  0
 33 66  1  0  0  0  0
 33 69  1  0  0  0  0
 34 70  1  0  0  0  0
 34 75  2  0  0  0  0
 35 49  1  0  0  0  0
 35 71  1  0  0  0  0
 35 76  2  0  0  0  0
 36 61  1  0  0  0  0
 36 67  1  0  0  0  0
 36 77  2  0  0  0  0
 37 62  1  0  0  0  0
 37 72  1  0  0  0  0
 37 78  2  0  0  0  0
 38 68  1  0  0  0  0
 38 73  1  0  0  0  0
 38 79  2  0  0  0  0
 39 42  1  0  0  0  0
 40 49  1  0  0  0  0
 41 67  1  0  0  0  0
 42 44  1  0  0  0  0
 43 45  1  0  0  0  0
 43 46  1  0  0  0  0
 44 48  1  0  0  0  0
 45 50  1  0  0  0  0
 46 68  1  0  0  0  0
 47 50  1  0  0  0  0
 47 68  1  0  0  0  0
 48 71  1  0  0  0  0
 49 67  1  0  0  0  0
 50 66  1  0  0  0  0
 52 62  1  0  0  0  0
 53 63  1  0  0  0  0
 54 63  1  0  0  0  0
 55 63  1  0  0  0  0
 56 74  1  0  0  0  0
 57 73  1  0  0  0  0
 58 59  1  0  0  0  0
 58 60  1  0  0  0  0
 59 82  1  0  0  0  0
 60 85  1  0  0  0  0
 61 63  1  0  0  0  0
 61 72  1  0  0  0  0
 62 74  1  0  0  0  0
 64 66  1  0  0  0  0
 65 85  2  0  0  0  0
 80 85  2  0  0  0  0
M  CHG  1  74   1
M  ISO  4  38 100  59 101  73 100  82 101
M  END
> <Batch ID>
0052

> <Smiles>
CNC(C)C(=O)NC(C(=O)N1Cc2cc([101O:1][101CH2:1]CCS(=N)(=O)c3cccc(C[100NH:0][100C:0](=O)N4CCCC(n5nc(-c6ccc(Oc7ccc(F)cc7F)cc6)c(C(N)=O)c5N)C4)c3C)ccc2CC1C(=O)NC1CCCc2ccccc21)C(C)(C)C

> <Shape>
0.317

> <Color>
0.207

> <Negative vol penalty>
0.000

$$$$

  -OEChem-04042322403D

 86 95  0     1  0  0  0  0  0999 V2000
  -33.5519  -19.3495   22.0447 C   0  0  0  0  0  0  0  0  0  0  0  0
  -32.5822  -20.2569   21.6305 C   0  0  0  0  0  0  0  0  0  0  0  0
  -29.3958  -26.5015   17.9698 C   0  0  0  0  0  0  0  0  0  0  0  0
  -29.2280  -26.0828   20.3433 C   0  0  0  0  0  0  0  0  0  0  0  0
  -33.4639  -18.0125   21.6593 C   0  0  0  0  0  0  0  0  0  0  0  0
  -31.5244  -19.8280   20.8295 C   0  0  0  0  0  0  0  0  0  0  0  0
  -24.6928  -20.6153   22.9745 C   0  0  0  0  0  0  0  0  0  0  0  0
  -30.7013  -26.0104   17.9754 C   0  0  0  0  0  0  0  0  0  0  0  0
  -30.5335  -25.5916   20.3490 C   0  0  0  0  0  0  0  0  0  0  0  0
  -23.3541  -20.9215   23.2203 C   0  0  0  0  0  0  0  0  0  0  0  0
  -32.2276  -22.9934   18.0072 C   0  0  0  0  0  0  0  0  0  0  0  0
  -32.5929  -22.1116   16.9901 C   0  0  0  0  0  0  0  0  0  0  0  0
  -22.7076  -19.7691   21.1950 C   0  0  0  0  0  0  0  0  0  0  0  0
  -19.7024  -26.4624   22.8408 C   0  0  0  0  0  0  0  0  0  0  0  0
  -18.7050  -27.5461   20.9256 C   0  0  0  0  0  0  0  0  0  0  0  0
  -18.3961  -25.1746   21.2685 C   0  0  0  0  0  0  0  0  0  0  0  0
  -34.3177  -23.6466   16.2787 C   0  0  0  0  0  0  0  0  0  0  0  0
  -28.6591  -26.5378   19.1537 C   0  0  0  0  0  0  0  0  0  0  0  0
  -26.2181  -26.5488   18.4128 C   0  0  0  0  0  0  0  0  0  0  0  0
  -32.3992  -17.5650   20.8613 C   0  0  0  0  0  0  0  0  0  0  0  0
  -25.0428  -19.8708   21.8447 C   0  0  0  0  0  0  0  0  0  0  0  0
  -31.4227  -18.4840   20.4320 C   0  0  0  0  0  0  0  0  0  0  0  0
  -24.0456  -19.4487   20.9501 C   0  0  0  0  0  0  0  0  0  0  0  0
  -19.4730  -27.6141   22.0881 C   0  0  0  0  0  0  0  0  0  0  0  0
  -19.1640  -25.2426   22.4309 C   0  0  0  0  0  0  0  0  0  0  0  0
  -31.2702  -25.5554   19.1650 C   0  0  0  0  0  0  0  0  0  0  0  0
  -22.3640  -20.4996   22.3326 C   0  0  0  0  0  0  0  0  0  0  0  0
  -32.9073  -24.2019   18.1601 C   0  0  0  0  0  0  0  0  0  0  0  0
  -33.6380  -22.4381   16.1259 C   0  0  0  0  0  0  0  0  0  0  0  0
  -33.9523  -24.5284   17.2959 C   0  0  0  0  0  0  0  0  0  0  0  0
  -18.1666  -26.3263   20.5158 C   0  0  0  0  0  0  0  0  0  0  0  0
  -27.3107  -27.0455   19.1486 C   0  0  0  0  0  0  0  0  0  0  0  0
  -25.1721  -27.3710   18.7541 C   0  0  0  0  0  0  0  0  0  0  0  0
  -19.0041  -23.9309   24.5422 C   0  0  0  0  0  0  0  0  0  0  0  0
  -17.9985  -24.5971   25.1425 C   0  0  0  0  0  0  0  0  0  0  0  0
  -26.1544  -25.4431   17.5023 C   0  0  0  0  0  0  0  0  0  0  0  0
  -27.7817  -18.2728   19.8395 C   0  0  0  0  0  0  0  0  0  0  0  0
  -25.4147  -16.3214   19.8288 C   0  0  0  0  0  0  0  0  0  0  0  0
  -22.7457  -14.2783   20.4113 C   0  0  0  0  0  0  0  0  0  0  0  0
  -22.2082  -30.1390   22.5880 C   0  0  0  0  0  0  0  0  0  0  0  0
  -32.3722  -16.1198   20.4308 C   0  0  0  0  0  0  0  0  0  0  0  0
  -26.4781  -19.5706   21.5078 C   0  0  0  0  0  0  0  0  0  0  0  0
  -24.4722  -18.6798   19.7296 C   0  0  0  0  0  0  0  0  0  0  0  0
  -19.7667  -22.9158   25.3715 C   0  0  0  0  0  0  0  0  0  0  0  0
  -31.0167  -15.6701   19.8916 C   0  0  0  0  0  0  0  0  0  0  0  0
  -20.0830  -21.6483   24.5915 C   0  0  0  0  0  0  0  0  0  0  0  0
  -25.1151  -31.7415   21.3000 C   0  0  0  0  0  0  0  0  0  0  0  0
  -30.4683  -16.6951   18.9040 C   0  0  0  0  0  0  0  0  0  0  0  0
  -25.8578  -30.6207   20.5706 C   0  0  0  0  0  0  0  0  0  0  0  0
  -24.4304  -31.2335   22.5670 C   0  0  0  0  0  0  0  0  0  0  0  0
  -24.2803  -28.9559   21.6377 C   0  0  0  0  0  0  0  0  0  0  0  0
  -19.9343  -22.9263   22.4348 C   0  0  0  0  0  0  0  0  0  0  0  0
  -30.2467  -18.0520   19.5832 C   0  0  1  0  0  0  0  0  0  0  0  0
  -26.6667  -18.1963   20.8407 C   0  0  1  0  0  0  0  0  0  0  0  0
  -24.9403  -29.4080   20.3238 C   0  0  2  0  0  0  0  0  0  0  0  0
  -20.7945  -22.0018   23.2943 C   0  0  2  0  0  0  0  0  0  1  0  0
  -21.8591  -11.9936   19.8712 C   0  0  0  0  0  0  0  0  0  0  0  0
  -24.6671  -17.2771   17.0303 C   0  0  0  0  0  0  0  0  0  0  0  0
  -23.0178  -15.3976   16.9061 C   0  0  0  0  0  0  0  0  0  0  0  0
  -25.4513  -14.9053   17.1482 C   0  0  0  0  0  0  0  0  0  0  0  0
  -22.7182  -13.4877   23.2632 C   0  0  0  0  0  0  0  0  0  0  0  0
  -20.0484  -28.9182   22.5262 C   0  0  0  0  0  0  0  0  0  0  0  0
  -24.1740  -15.8417   19.1190 C   0  0  1  0  0  0  0  0  0  0  0  0
  -22.6644  -12.8287   20.8546 C   0  0  2  0  0  0  0  0  0  0  0  0
  -24.3262  -15.8745   17.5720 C   0  0  0  0  0  0  0  0  0  0  0  0
  -26.9887  -28.1015   19.9004 N   0  0  0  0  0  0  0  0  0  0  0  0
  -25.6820  -28.2751   19.6388 N   0  0  0  0  0  0  0  0  0  0  0  0
  -19.3987  -24.0669   23.2001 N   0  0  0  0  0  0  0  0  0  0  0  0
  -25.5025  -17.6939   20.0916 N   0  0  0  0  0  0  0  0  0  0  0  0
  -23.5739  -30.0844   22.2639 N   0  0  0  0  0  0  0  0  0  0  0  0
  -23.8752  -27.4015   18.3807 N   0  0  0  0  0  0  0  0  0  0  0  0
  -25.8381  -24.1760   18.0111 N   0  0  0  0  0  0  0  0  0  0  0  0
  -29.0335  -18.0302   20.3720 N   0  0  0  0  0  0  0  0  0  0  0  0
  -23.8778  -14.5206   19.6624 N   0  0  0  0  0  0  0  0  0  0  0  0
  -21.4668  -29.0102   22.2611 N   0  0  0  0  0  0  0  0  0  0  0  0
  -22.0171  -12.7320   22.1935 N   0  3  0  0  0  0  0  0  0  0  0  0
  -26.3876  -25.5718   16.2765 O   0  0  0  0  0  0  0  0  0  0  0  0
  -27.5262  -18.5312   18.6692 O   0  0  0  0  0  0  0  0  0  0  0  0
  -26.2867  -15.5044   20.1380 O   0  0  0  0  0  0  0  0  0  0  0  0
  -21.8887  -15.1114   20.6974 O   0  0  0  0  0  0  0  0  0  0  0  0
  -21.6872  -31.1230   23.1239 O   0  0  0  0  0  0  0  0  0  0  0  0
  -32.5440  -25.0759   19.1709 O   0  0  0  0  0  0  0  0  0  0  0  0
  -21.0587  -20.7980   22.5810 O   0  0  0  0  0  0  0  0  0  1  0  0
  -33.9897  -21.5905   15.1502 F   0  0  0  0  0  0  0  0  0  0  0  0
  -34.6098  -25.6874   17.4385 F   0  0  0  0  0  0  0  0  0  0  0  0
  -17.2189  -26.2414   19.0815 Cl  0  0  0  0  0  0  0  0  0  0  0  0
  1  2  1  0  0  0  0
  1  5  2  0  0  0  0
  2  6  2  0  0  0  0
  3  8  2  0  0  0  0
  3 18  1  0  0  0  0
  4  9  1  0  0  0  0
  4 18  2  0  0  0  0
  5 20  1  0  0  0  0
  6 22  1  0  0  0  0
  7 10  2  0  0  0  0
  7 21  1  0  0  0  0
  8 26  1  0  0  0  0
  9 26  2  0  0  0  0
 10 27  1  0  0  0  0
 11 12  2  0  0  0  0
 11 28  1  0  0  0  0
 12 29  1  0  0  0  0
 13 23  1  0  0  0  0
 13 27  2  0  0  0  0
 14 24  1  0  0  0  0
 14 25  2  0  0  0  0
 15 24  2  0  0  0  0
 15 31  1  0  0  0  0
 16 25  1  0  0  0  0
 16 31  2  0  0  0  0
 17 29  2  0  0  0  0
 17 30  1  0  0  0  0
 18 32  1  0  0  0  0
 19 32  1  0  0  0  0
 19 33  2  0  0  0  0
 19 36  1  0  0  0  0
 20 22  2  0  0  0  0
 20 41  1  0  0  0  0
 21 23  2  0  0  0  0
 21 42  1  0  0  0  0
 22 53  1  0  0  0  0
 23 43  1  0  0  0  0
 24 62  1  0  0  0  0
 25 68  1  0  0  0  0
 26 82  1  0  0  0  0
 27 83  1  0  0  0  0
 28 30  2  0  0  0  0
 28 82  1  0  0  0  0
 29 84  1  0  0  0  0
 30 85  1  0  0  0  0
 31 86  1  0  0  0  0
 32 66  2  0  0  0  0
 33 67  1  0  0  0  0
 33 71  1  0  0  0  0
 34 35  2  0  0  0  0
 34 44  1  0  0  0  0
 34 68  1  0  0  0  0
 36 72  1  0  0  0  0
 36 77  2  0  0  0  0
 37 54  1  0  0  0  0
 37 73  1  0  0  0  0
 37 78  2  0  0  0  0
 38 63  1  0  0  0  0
 38 69  1  0  0  0  0
 38 79  2  0  0  0  0
 39 64  1  0  0  0  0
 39 74  1  0  0  0  0
 39 80  2  0  0  0  0
 40 70  1  0  0  0  0
 40 75  1  0  0  0  0
 40 81  2  0  0  0  0
 41 45  1  0  0  0  0
 42 54  1  0  0  0  0
 43 69  1  0  0  0  0
 44 46  1  0  0  0  0
 45 48  1  0  0  0  0
 46 56  1  0  0  0  0
 47 49  1  0  0  0  0
 47 50  1  0  0  0  0
 48 53  1  0  0  0  0
 49 55  1  0  0  0  0
 50 70  1  0  0  0  0
 51 55  1  0  0  0  0
 51 70  1  0  0  0  0
 52 56  1  0  0  0  0
 52 68  1  0  0  0  0
 53 73  1  0  0  0  0
 54 69  1  0  0  0  0
 55 67  1  0  0  0  0
 56 83  1  0  0  0  0
 57 64  1  0  0  0  0
 58 65  1  0  0  0  0
 59 65  1  0  0  0  0
 60 65  1  0  0  0  0
 61 76  1  0  0  0  0
 62 75  1  0  0  0  0
 63 65  1  0  0  0  0
 63 74  1  0  0  0  0
 64 76  1  0  0  0  0
 66 67  1  0  0  0  0
M  CHG  1  76   1
M  ISO  4  40 100  56 101  75 100  83 101
M  END
> <Batch ID>
0052

> <Smiles>
C=C1CC[101CH:1]([101O:1]c2ccc3c(c2)CN(C(=O)C(NC(=O)C(C)NC)C(C)(C)C)C(C(=O)NC2CCCc4ccccc42)C3)CN1c1cc(Cl)cc(C[100NH:0][100C:0](=O)N2CCCC(n3nc(-c4ccc(Oc5ccc(F)cc5F)cc4)c(C(N)=O)c3N)C2)c1

> <Shape>
0.205

> <Color>
0.078

> <Negative vol penalty>
0.000

$$$$

  -OEChem-04042322403D

 88 97  0     1  0  0  0  0  0999 V2000
  -30.2414  -35.3778   21.0028 C   0  0  0  0  0  0  0  0  0  0  0  0
  -30.1566  -33.9893   20.9836 C   0  0  0  0  0  0  0  0  0  0  0  0
  -22.9772  -11.8506   22.7678 C   0  0  0  0  0  0  0  0  0  0  0  0
  -24.2137   -9.8418   22.2456 C   0  0  0  0  0  0  0  0  0  0  0  0
  -29.3551  -36.1185   21.7836 C   0  0  0  0  0  0  0  0  0  0  0  0
  -29.1859  -33.3407   21.7462 C   0  0  0  0  0  0  0  0  0  0  0  0
  -26.8358  -29.6626   19.1783 C   0  0  0  0  0  0  0  0  0  0  0  0
  -30.3204  -20.0407   18.2138 C   0  0  0  0  0  0  0  0  0  0  0  0
  -30.2086  -18.6704   18.4493 C   0  0  0  0  0  0  0  0  0  0  0  0
  -22.3174  -11.1772   23.7959 C   0  0  0  0  0  0  0  0  0  0  0  0
  -23.5540   -9.1684   23.2737 C   0  0  0  0  0  0  0  0  0  0  0  0
  -27.5161  -28.4548   19.0300 C   0  0  0  0  0  0  0  0  0  0  0  0
  -20.5393   -7.7211   23.7713 C   0  0  0  0  0  0  0  0  0  0  0  0
  -20.0519   -6.4425   23.5005 C   0  0  0  0  0  0  0  0  0  0  0  0
  -26.2240  -27.5122   20.8359 C   0  0  0  0  0  0  0  0  0  0  0  0
  -28.0077  -20.1098   17.5180 C   0  0  0  0  0  0  0  0  0  0  0  0
  -21.4461   -5.5394   25.2548 C   0  0  0  0  0  0  0  0  0  0  0  0
  -23.9253  -11.1828   21.9926 C   0  0  0  0  0  0  0  0  0  0  0  0
  -24.0246  -12.4866   19.8022 C   0  0  0  0  0  0  0  0  0  0  0  0
  -28.3668  -35.4791   22.5486 C   0  0  0  0  0  0  0  0  0  0  0  0
  -25.8504  -29.8080   20.1653 C   0  0  0  0  0  0  0  0  0  0  0  0
  -28.2863  -34.0734   22.5390 C   0  0  0  0  0  0  0  0  0  0  0  0
  -25.5308  -28.7222   20.9930 C   0  0  0  0  0  0  0  0  0  0  0  0
  -29.2199  -20.7604   17.7482 C   0  0  0  0  0  0  0  0  0  0  0  0
  -27.8960  -18.7395   17.7535 C   0  0  0  0  0  0  0  0  0  0  0  0
  -28.9964  -18.0198   18.2192 C   0  0  0  0  0  0  0  0  0  0  0  0
  -22.6059   -9.8362   24.0489 C   0  0  0  0  0  0  0  0  0  0  0  0
  -27.2123  -27.3803   19.8608 C   0  0  0  0  0  0  0  0  0  0  0  0
  -21.4802   -7.9088   24.7839 C   0  0  0  0  0  0  0  0  0  0  0  0
  -20.5053   -5.3517   24.2422 C   0  0  0  0  0  0  0  0  0  0  0  0
  -21.9335   -6.8180   25.5257 C   0  0  0  0  0  0  0  0  0  0  0  0
  -24.6067  -11.8777   20.9301 C   0  0  0  0  0  0  0  0  0  0  0  0
  -25.0883  -13.0040   19.1041 C   0  0  0  0  0  0  0  0  0  0  0  0
  -29.9616  -24.3405   18.5180 C   0  0  0  0  0  0  0  0  0  0  0  0
  -33.2326  -23.7152   20.0651 C   0  0  0  0  0  0  0  0  0  0  0  0
  -31.2124  -24.5378   18.9613 C   0  0  0  0  0  0  0  0  0  0  0  0
  -31.9855  -23.5179   19.6234 C   0  0  0  0  0  0  0  0  0  0  0  0
  -22.6457  -12.5766   19.4198 C   0  0  0  0  0  0  0  0  0  0  0  0
  -25.4947  -31.6598   22.7243 C   0  0  0  0  0  0  0  0  0  0  0  0
  -22.5615  -30.2790   22.8335 C   0  0  0  0  0  0  0  0  0  0  0  0
  -21.1862  -26.9770   22.3621 C   0  0  0  0  0  0  0  0  0  0  0  0
  -29.9108  -15.7817   18.9273 C   0  0  0  0  0  0  0  0  0  0  0  0
  -27.4615  -36.3196   23.4138 C   0  0  0  0  0  0  0  0  0  0  0  0
  -25.1069  -31.1091   20.2948 C   0  0  0  0  0  0  0  0  0  0  0  0
  -24.4671  -28.8204   22.0547 C   0  0  0  0  0  0  0  0  0  0  0  0
  -29.1575  -25.4110   17.8262 C   0  0  0  0  0  0  0  0  0  0  0  0
  -26.2213  -35.5750   23.9012 C   0  0  0  0  0  0  0  0  0  0  0  0
  -30.0672  -12.3082   19.6936 C   0  0  0  0  0  0  0  0  0  0  0  0
  -26.6009  -34.1968   24.4336 C   0  0  0  0  0  0  0  0  0  0  0  0
  -28.6127  -11.9366   19.9908 C   0  0  0  0  0  0  0  0  0  0  0  0
  -27.1101  -24.1813   18.6601 C   0  0  0  0  0  0  0  0  0  0  0  0
  -30.4102  -13.7076   20.2014 C   0  0  0  0  0  0  0  0  0  0  0  0
  -28.0512  -14.4001   20.0448 C   0  0  0  0  0  0  0  0  0  0  0  0
  -28.0137  -23.2104   19.4188 C   0  0  0  0  0  0  0  0  0  0  0  0
  -27.2311  -33.3346   23.3332 C   0  0  1  0  0  0  0  0  0  0  0  0
  -24.4818  -31.3056   21.6725 C   0  0  1  0  0  0  0  0  0  0  0  0
  -27.6404  -13.0247   19.4944 C   0  0  2  0  0  0  0  0  0  0  0  0
  -27.7706  -25.5445   18.4554 C   0  0  1  0  0  0  0  0  0  1  0  0
  -26.5861  -18.0679   17.4954 C   0  0  0  0  0  0  0  0  0  0  0  0
  -18.8963  -26.2518   21.6353 C   0  0  0  0  0  0  0  0  0  0  0  0
  -21.9777  -30.1240   25.8243 C   0  0  0  0  0  0  0  0  0  0  0  0
  -20.6216  -28.0664   25.3821 C   0  0  0  0  0  0  0  0  0  0  0  0
  -19.9468  -30.2442   24.3699 C   0  0  0  0  0  0  0  0  0  0  0  0
  -22.2782  -25.3550   20.1405 C   0  0  0  0  0  0  0  0  0  0  0  0
  -29.3409  -22.2338   17.4927 C   0  0  0  0  0  0  0  0  0  0  0  0
  -21.9854  -29.0424   23.4799 C   0  0  1  0  0  0  0  0  0  0  0  0
  -20.3310  -26.5062   21.1996 C   0  0  2  0  0  0  0  0  0  0  0  0
  -21.1602  -29.3705   24.7562 C   0  0  0  0  0  0  0  0  0  0  0  0
  -25.9370  -11.9963   20.9512 N   0  0  0  0  0  0  0  0  0  0  0  0
  -26.1996  -12.6856   19.8278 N   0  0  0  0  0  0  0  0  0  0  0  0
  -23.7726  -30.1153   22.1463 N   0  0  0  0  0  0  0  0  0  0  0  0
  -29.4495  -14.6861   19.6872 N   0  0  0  0  0  0  0  0  0  0  0  0
  -25.1721  -13.6957   17.9478 N   0  0  0  0  0  0  0  0  0  0  0  0
  -21.6821  -11.9902   20.2516 N   0  0  0  0  0  0  0  0  0  0  0  0
  -28.9032  -16.6273   18.4644 N   0  0  0  0  0  0  0  0  0  0  0  0
  -26.2083  -32.8116   22.4530 N   0  0  0  0  0  0  0  0  0  0  0  0
  -21.2291  -28.3529   22.4402 N   0  0  0  0  0  0  0  0  0  0  0  0
  -29.3614  -23.0510   18.7548 N   0  3  1  0  0  0  0  0  0  0  0  0
  -20.8803  -25.2431   20.6306 N   0  3  0  0  0  0  0  0  0  0  0  0
  -22.2804  -13.1455   18.3632 O   0  0  0  0  0  0  0  0  0  0  0  0
  -25.6187  -30.9420   23.7098 O   0  0  0  0  0  0  0  0  0  0  0  0
  -21.9555  -31.3493   22.9285 O   0  0  0  0  0  0  0  0  0  0  0  0
  -21.7559  -26.2016   23.1268 O   0  0  0  0  0  0  0  0  0  0  0  0
  -31.1089  -15.9420   18.6806 O   0  0  0  0  0  0  0  0  0  0  0  0
  -21.9625   -9.1789   25.0521 O   0  0  0  0  0  0  0  0  0  0  0  0
  -27.8753  -26.2004   19.7186 O   0  0  0  0  0  0  0  0  0  1  0  0
  -20.0360   -4.1242   23.9830 F   0  0  0  0  0  0  0  0  0  0  0  0
  -22.8364   -6.9923   26.5005 F   0  0  0  0  0  0  0  0  0  0  0  0
  1  2  1  0  0  0  0
  1  5  2  0  0  0  0
  2  6  2  0  0  0  0
  3 10  2  0  0  0  0
  3 18  1  0  0  0  0
  4 11  1  0  0  0  0
  4 18  2  0  0  0  0
  5 20  1  0  0  0  0
  6 22  1  0  0  0  0
  7 12  2  0  0  0  0
  7 21  1  0  0  0  0
  8  9  2  0  0  0  0
  8 24  1  0  0  0  0
  9 26  1  0  0  0  0
 10 27  1  0  0  0  0
 11 27  2  0  0  0  0
 12 28  1  0  0  0  0
 13 14  2  0  0  0  0
 13 29  1  0  0  0  0
 14 30  1  0  0  0  0
 15 23  1  0  0  0  0
 15 28  2  0  0  0  0
 16 24  2  0  0  0  0
 16 25  1  0  0  0  0
 17 30  2  0  0  0  0
 17 31  1  0  0  0  0
 18 32  1  0  0  0  0
 19 32  1  0  0  0  0
 19 33  2  0  0  0  0
 19 38  1  0  0  0  0
 20 22  2  0  0  0  0
 20 43  1  0  0  0  0
 21 23  2  0  0  0  0
 21 44  1  0  0  0  0
 22 55  1  0  0  0  0
 23 45  1  0  0  0  0
 24 65  1  0  0  0  0
 25 26  2  0  0  0  0
 25 59  1  0  0  0  0
 26 75  1  0  0  0  0
 27 85  1  0  0  0  0
 28 86  1  0  0  0  0
 29 31  2  0  0  0  0
 29 85  1  0  0  0  0
 30 87  1  0  0  0  0
 31 88  1  0  0  0  0
 32 69  2  0  0  0  0
 33 70  1  0  0  0  0
 33 73  1  0  0  0  0
 34 36  2  0  0  0  0
 34 46  1  0  0  0  0
 34 78  1  0  0  0  0
 35 37  2  0  0  0  0
 36 37  1  0  0  0  0
 38 74  1  0  0  0  0
 38 80  2  0  0  0  0
 39 56  1  0  0  0  0
 39 76  1  0  0  0  0
 39 81  2  0  0  0  0
 40 66  1  0  0  0  0
 40 71  1  0  0  0  0
 40 82  2  0  0  0  0
 41 67  1  0  0  0  0
 41 77  1  0  0  0  0
 41 83  2  0  0  0  0
 42 72  1  0  0  0  0
 42 75  1  0  0  0  0
 42 84  2  0  0  0  0
 43 47  1  0  0  0  0
 44 56  1  0  0  0  0
 45 71  1  0  0  0  0
 46 58  1  0  0  0  0
 47 49  1  0  0  0  0
 48 50  1  0  0  0  0
 48 52  1  0  0  0  0
 49 55  1  0  0  0  0
 50 57  1  0  0  0  0
 51 54  1  0  0  0  0
 51 58  1  0  0  0  0
 52 72  1  0  0  0  0
 53 57  1  0  0  0  0
 53 72  1  0  0  0  0
 54 78  1  0  0  0  0
 55 76  1  0  0  0  0
 56 71  1  0  0  0  0
 57 70  1  0  0  0  0
 58 86  1  0  0  0  0
 60 67  1  0  0  0  0
 61 68  1  0  0  0  0
 62 68  1  0  0  0  0
 63 68  1  0  0  0  0
 64 79  1  0  0  0  0
 65 78  1  0  0  0  0
 66 68  1  0  0  0  0
 66 77  1  0  0  0  0
 67 79  1  0  0  0  0
 69 70  1  0  0  0  0
M  CHG  2  78   1  79   1
M  ISO  4  42 100  58 101  75 100  86 101
M  END
> <Batch ID>
0052

> <Smiles>
C=CC=C1C[101CH:1]([101O:1]c2ccc3c(c2)CN(C(=O)C(NC(=O)C(C)NC)C(C)(C)C)C(C(=O)NC2CCCc4ccccc42)C3)CCN1Cc1ccc([100NH:0][100C:0](=O)N2CCCC(n3nc(-c4ccc(Oc5ccc(F)cc5F)cc4)c(C(N)=O)c3N)C2)c(C)c1

> <Shape>
0.311

> <Color>
0.090

> <Negative vol penalty>
0.000

$$$$

  -OEChem-04042322403D

 84 92  0     1  0  0  0  0  0999 V2000
  -32.5109  -19.4785   25.9471 C   0  0  0  0  0  0  0  0  0  0  0  0
  -31.2913  -20.0870   26.2262 C   0  0  0  0  0  0  0  0  0  0  0  0
  -29.0425  -26.1264   20.5422 C   0  0  0  0  0  0  0  0  0  0  0  0
  -27.2390  -26.1241   18.9345 C   0  0  0  0  0  0  0  0  0  0  0  0
  -32.7091  -18.8475   24.7197 C   0  0  0  0  0  0  0  0  0  0  0  0
  -30.2696  -20.0657   25.2774 C   0  0  0  0  0  0  0  0  0  0  0  0
  -23.1285  -19.8184   24.7680 C   0  0  0  0  0  0  0  0  0  0  0  0
  -29.4409  -24.8660   20.0970 C   0  0  0  0  0  0  0  0  0  0  0  0
  -27.6375  -24.8637   18.4893 C   0  0  0  0  0  0  0  0  0  0  0  0
  -22.0680  -20.4907   24.1621 C   0  0  0  0  0  0  0  0  0  0  0  0
  -27.3359  -21.6528   19.5043 C   0  0  0  0  0  0  0  0  0  0  0  0
  -26.3444  -20.6917   19.3073 C   0  0  0  0  0  0  0  0  0  0  0  0
  -22.4967  -19.3025   22.1070 C   0  0  0  0  0  0  0  0  0  0  0  0
  -19.5164  -27.7040   21.7011 C   0  0  0  0  0  0  0  0  0  0  0  0
  -17.6185  -26.7264   22.8322 C   0  0  0  0  0  0  0  0  0  0  0  0
  -18.2444  -29.0163   23.2814 C   0  0  0  0  0  0  0  0  0  0  0  0
  -26.9665  -20.5272   16.9786 C   0  0  0  0  0  0  0  0  0  0  0  0
  -27.9415  -26.7555   19.9610 C   0  0  0  0  0  0  0  0  0  0  0  0
  -27.9601  -29.3063   19.9351 C   0  0  0  0  0  0  0  0  0  0  0  0
  -31.6860  -18.8102   23.7593 C   0  0  0  0  0  0  0  0  0  0  0  0
  -23.8892  -18.8895   24.0436 C   0  0  0  0  0  0  0  0  0  0  0  0
  -30.4548  -19.4348   24.0355 C   0  0  0  0  0  0  0  0  0  0  0  0
  -23.5647  -18.6178   22.7068 C   0  0  0  0  0  0  0  0  0  0  0  0
  -18.6751  -26.6149   21.9284 C   0  0  0  0  0  0  0  0  0  0  0  0
  -19.3011  -28.9048   22.3777 C   0  0  0  0  0  0  0  0  0  0  0  0
  -28.7385  -24.2346   19.0706 C   0  0  0  0  0  0  0  0  0  0  0  0
  -21.7538  -20.2349   22.8306 C   0  0  0  0  0  0  0  0  0  0  0  0
  -28.1427  -22.0511   18.4384 C   0  0  0  0  0  0  0  0  0  0  0  0
  -26.1597  -20.1289   18.0445 C   0  0  0  0  0  0  0  0  0  0  0  0
  -27.9580  -21.4883   17.1756 C   0  0  0  0  0  0  0  0  0  0  0  0
  -17.4032  -27.9272   23.5087 C   0  0  0  0  0  0  0  0  0  0  0  0
  -27.5290  -28.0572   20.4208 C   0  0  0  0  0  0  0  0  0  0  0  0
  -27.2790  -30.2243   20.6966 C   0  0  0  0  0  0  0  0  0  0  0  0
  -28.8926  -29.6095   18.8892 C   0  0  0  0  0  0  0  0  0  0  0  0
  -26.9411  -18.6753   23.1812 C   0  0  0  0  0  0  0  0  0  0  0  0
  -26.0279  -15.7542   22.1062 C   0  0  0  0  0  0  0  0  0  0  0  0
  -19.8143  -23.0443   21.6083 C   0  0  0  0  0  0  0  0  0  0  0  0
  -23.5096  -13.7256   21.0153 C   0  0  0  0  0  0  0  0  0  0  0  0
  -22.1120  -29.9896   23.7130 C   0  0  0  0  0  0  0  0  0  0  0  0
  -31.9633  -18.1572   22.4283 C   0  0  0  0  0  0  0  0  0  0  0  0
  -25.0131  -18.1531   24.7194 C   0  0  0  0  0  0  0  0  0  0  0  0
  -24.3377  -17.6149   21.8912 C   0  0  0  0  0  0  0  0  0  0  0  0
  -30.7018  -17.8544   21.6238 C   0  0  0  0  0  0  0  0  0  0  0  0
  -25.3242  -30.7841   25.0274 C   0  0  0  0  0  0  0  0  0  0  0  0
  -29.7687  -19.0612   21.6199 C   0  0  0  0  0  0  0  0  0  0  0  0
  -26.2924  -30.2880   23.9520 C   0  0  0  0  0  0  0  0  0  0  0  0
  -24.1143  -29.8626   25.1660 C   0  0  0  0  0  0  0  0  0  0  0  0
  -24.3568  -29.1040   22.8337 C   0  0  0  0  0  0  0  0  0  0  0  0
  -29.3137  -19.4114   23.0418 C   0  0  1  0  0  0  0  0  0  0  0  0
  -26.0445  -17.6056   23.7376 C   0  0  1  0  0  0  0  0  0  0  0  0
  -25.5653  -30.0311   22.6184 C   0  0  2  0  0  0  0  0  0  0  0  0
  -23.0771  -11.4020   20.1721 C   0  0  0  0  0  0  0  0  0  0  0  0
  -27.2119  -16.5183   19.3999 C   0  0  0  0  0  0  0  0  0  0  0  0
  -25.9371  -14.6182   18.3839 C   0  0  0  0  0  0  0  0  0  0  0  0
  -27.6756  -14.1672   20.1150 C   0  0  0  0  0  0  0  0  0  0  0  0
  -21.6903  -13.1214   23.2700 C   0  0  0  0  0  0  0  0  0  0  0  0
  -18.9065  -25.3233   21.1988 C   0  0  0  0  0  0  0  0  0  0  0  0
  -20.2003  -30.0692   22.1325 C   0  0  0  0  0  0  0  0  0  0  0  0
  -20.4262  -22.2044   22.7091 C   0  0  0  0  0  0  0  0  0  1  0  0
  -25.4815  -15.2164   20.8057 C   0  0  1  0  0  0  0  0  0  0  0  0
  -23.1234  -12.3071   21.3934 C   0  0  2  0  0  0  0  0  0  0  0  0
  -26.5630  -15.1504   19.6907 C   0  0  0  0  0  0  0  0  0  0  0  0
  -26.6429  -28.1680   21.4140 N   0  0  0  0  0  0  0  0  0  0  0  0
  -26.5116  -29.4977   21.5587 N   0  0  0  0  0  0  0  0  0  0  0  0
  -25.4316  -16.9252   22.5949 N   0  0  0  0  0  0  0  0  0  0  0  0
  -23.4691  -29.6612   23.8663 N   0  0  0  0  0  0  0  0  0  0  0  0
  -27.2678  -31.5742   20.7062 N   0  0  0  0  0  0  0  0  0  0  0  0
  -29.5019  -28.5467   18.2084 N   0  0  0  0  0  0  0  0  0  0  0  0
  -28.2787  -18.4999   23.4802 N   0  0  0  0  0  0  0  0  0  0  0  0
  -19.5035  -24.3207   22.0505 N   0  0  0  0  0  0  0  0  0  0  0  0
  -24.8691  -13.9303   21.1211 N   0  0  0  0  0  0  0  0  0  0  0  0
  -21.5803  -29.7739   22.4475 N   0  0  0  0  0  0  0  0  0  0  0  0
  -21.7816  -12.2908   22.0416 N   0  3  0  0  0  0  0  0  0  0  0  0
  -29.1896  -30.7881   18.5789 O   0  0  0  0  0  0  0  0  0  0  0  0
  -26.4555  -19.5911   22.5276 O   0  0  0  0  0  0  0  0  0  0  0  0
  -26.9450  -15.1533   22.6713 O   0  0  0  0  0  0  0  0  0  0  0  0
  -19.6276  -22.6170   20.4723 O   0  0  0  0  0  0  0  0  0  0  0  0
  -22.6879  -14.5669   20.6579 O   0  0  0  0  0  0  0  0  0  0  0  0
  -21.4266  -30.4466   24.6340 O   0  0  0  0  0  0  0  0  0  0  0  0
  -29.1272  -23.0048   18.6358 O   0  0  0  0  0  0  0  0  0  0  0  0
  -20.7195  -20.8902   22.2366 O   0  0  0  0  0  0  0  0  0  1  0  0
  -25.2085  -19.2049   17.8558 F   0  0  0  0  0  0  0  0  0  0  0  0
  -28.7308  -21.8661   16.1480 F   0  0  0  0  0  0  0  0  0  0  0  0
  -16.1002  -28.0644   24.6248 Cl  0  0  0  0  0  0  0  0  0  0  0  0
  1  2  1  0  0  0  0
  1  5  2  0  0  0  0
  2  6  2  0  0  0  0
  3  8  2  0  0  0  0
  3 18  1  0  0  0  0
  4  9  1  0  0  0  0
  4 18  2  0  0  0  0
  5 20  1  0  0  0  0
  6 22  1  0  0  0  0
  7 10  2  0  0  0  0
  7 21  1  0  0  0  0
  8 26  1  0  0  0  0
  9 26  2  0  0  0  0
 10 27  1  0  0  0  0
 11 12  2  0  0  0  0
 11 28  1  0  0  0  0
 12 29  1  0  0  0  0
 13 23  1  0  0  0  0
 13 27  2  0  0  0  0
 14 24  2  0  0  0  0
 14 25  1  0  0  0  0
 15 24  1  0  0  0  0
 15 31  2  0  0  0  0
 16 25  2  0  0  0  0
 16 31  1  0  0  0  0
 17 29  2  0  0  0  0
 17 30  1  0  0  0  0
 18 32  1  0  0  0  0
 19 32  1  0  0  0  0
 19 33  2  0  0  0  0
 19 34  1  0  0  0  0
 20 22  2  0  0  0  0
 20 40  1  0  0  0  0
 21 23  2  0  0  0  0
 21 41  1  0  0  0  0
 22 49  1  0  0  0  0
 23 42  1  0  0  0  0
 24 57  1  0  0  0  0
 25 58  1  0  0  0  0
 26 80  1  0  0  0  0
 27 81  1  0  0  0  0
 28 30  2  0  0  0  0
 28 80  1  0  0  0  0
 29 82  1  0  0  0  0
 30 83  1  0  0  0  0
 31 84  1  0  0  0  0
 32 63  2  0  0  0  0
 33 64  1  0  0  0  0
 33 67  1  0  0  0  0
 34 68  1  0  0  0  0
 34 74  2  0  0  0  0
 35 50  1  0  0  0  0
 35 69  1  0  0  0  0
 35 75  2  0  0  0  0
 36 60  1  0  0  0  0
 36 65  1  0  0  0  0
 36 76  2  0  0  0  0
 37 59  1  0  0  0  0
 37 70  1  0  0  0  0
 37 77  2  0  0  0  0
 38 61  1  0  0  0  0
 38 71  1  0  0  0  0
 38 78  2  0  0  0  0
 39 66  1  0  0  0  0
 39 72  1  0  0  0  0
 39 79  2  0  0  0  0
 40 43  1  0  0  0  0
 41 50  1  0  0  0  0
 42 65  1  0  0  0  0
 43 45  1  0  0  0  0
 44 46  1  0  0  0  0
 44 47  1  0  0  0  0
 45 49  1  0  0  0  0
 46 51  1  0  0  0  0
 47 66  1  0  0  0  0
 48 51  1  0  0  0  0
 48 66  1  0  0  0  0
 49 69  1  0  0  0  0
 50 65  1  0  0  0  0
 51 64  1  0  0  0  0
 52 61  1  0  0  0  0
 53 62  1  0  0  0  0
 54 62  1  0  0  0  0
 55 62  1  0  0  0  0
 56 73  1  0  0  0  0
 57 70  1  0  0  0  0
 58 72  1  0  0  0  0
 59 81  1  0  0  0  0
 60 62  1  0  0  0  0
 60 71  1  0  0  0  0
 61 73  1  0  0  0  0
 63 64  1  0  0  0  0
M  CHG  1  73   1
M  ISO  4  39 100  59 101  72 100  81 101
M  END
> <Batch ID>
0052

> <Smiles>
CNC(C)C(=O)NC(C(=O)N1Cc2cc([101O:1][101CH2:1]C(=O)NCc3cc(Cl)cc(C[100NH:0][100C:0](=O)N4CCCC(n5nc(-c6ccc(Oc7ccc(F)cc7F)cc6)c(C(N)=O)c5N)C4)c3)ccc2CC1C(=O)NC1CCCc2ccccc21)C(C)(C)C

> <Shape>
0.209

> <Color>
0.077

> <Negative vol penalty>
0.000

$$$$

  -OEChem-04042322403D

 87 96  0     1  0  0  0  0  0999 V2000
  -24.0952   -8.1635   21.3976 C   0  0  0  0  0  0  0  0  0  0  0  0
  -24.4402   -9.2133   20.5525 C   0  0  0  0  0  0  0  0  0  0  0  0
  -24.3128  -28.4867   23.5672 C   0  0  0  0  0  0  0  0  0  0  0  0
  -24.7889  -29.6495   21.5036 C   0  0  0  0  0  0  0  0  0  0  0  0
  -22.9460   -8.2505   22.1822 C   0  0  0  0  0  0  0  0  0  0  0  0
  -23.6356  -10.3505   20.4908 C   0  0  0  0  0  0  0  0  0  0  0  0
  -26.3249  -14.6405   20.5811 C   0  0  0  0  0  0  0  0  0  0  0  0
  -22.9518  -28.7387   23.3952 C   0  0  0  0  0  0  0  0  0  0  0  0
  -23.4278  -29.9015   21.3316 C   0  0  0  0  0  0  0  0  0  0  0  0
  -26.9484  -15.0262   19.3952 C   0  0  0  0  0  0  0  0  0  0  0  0
  -20.3965  -27.4813   21.5725 C   0  0  0  0  0  0  0  0  0  0  0  0
  -19.5091  -26.4285   21.7952 C   0  0  0  0  0  0  0  0  0  0  0  0
  -25.1615  -16.5903   18.9713 C   0  0  0  0  0  0  0  0  0  0  0  0
  -30.0317  -21.1220   20.1721 C   0  0  0  0  0  0  0  0  0  0  0  0
  -28.5738  -19.9478   22.2405 C   0  0  0  0  0  0  0  0  0  0  0  0
  -18.4284  -27.7077   23.5367 C   0  0  0  0  0  0  0  0  0  0  0  0
  -25.2314  -28.9421   22.6214 C   0  0  0  0  0  0  0  0  0  0  0  0
  -27.4489  -29.0932   23.8735 C   0  0  0  0  0  0  0  0  0  0  0  0
  -22.1320   -9.3934   22.1373 C   0  0  0  0  0  0  0  0  0  0  0  0
  -25.1073  -15.2200   20.9661 C   0  0  0  0  0  0  0  0  0  0  0  0
  -22.4737  -10.4524   21.2746 C   0  0  0  0  0  0  0  0  0  0  0  0
  -24.5258  -16.2120   20.1638 C   0  0  0  0  0  0  0  0  0  0  0  0
  -29.7690  -19.7524   20.1499 C   0  0  0  0  0  0  0  0  0  0  0  0
  -29.0400  -19.1652   21.1841 C   0  0  0  0  0  0  0  0  0  0  0  0
  -29.5656  -21.9046   21.2285 C   0  0  0  0  0  0  0  0  0  0  0  0
  -22.5093  -29.4461   22.2774 C   0  0  0  0  0  0  0  0  0  0  0  0
  -26.3653  -15.9991   18.5887 C   0  0  0  0  0  0  0  0  0  0  0  0
  -20.2999  -28.6473   22.3320 C   0  0  0  0  0  0  0  0  0  0  0  0
  -18.5250  -26.5416   22.7772 C   0  0  0  0  0  0  0  0  0  0  0  0
  -19.3158  -28.7605   23.3140 C   0  0  0  0  0  0  0  0  0  0  0  0
  -28.8366  -21.3175   22.2627 C   0  0  0  0  0  0  0  0  0  0  0  0
  -26.6376  -28.6826   22.7988 C   0  0  0  0  0  0  0  0  0  0  0  0
  -28.6943  -28.5988   23.5720 C   0  0  0  0  0  0  0  0  0  0  0  0
  -30.2691  -18.7482   16.5854 C   0  0  0  0  0  0  0  0  0  0  0  0
  -30.7943  -19.7266   15.8327 C   0  0  0  0  0  0  0  0  0  0  0  0
  -27.1072  -29.8533   25.0402 C   0  0  0  0  0  0  0  0  0  0  0  0
  -22.1654  -14.1291   21.4745 C   0  0  0  0  0  0  0  0  0  0  0  0
  -21.6299  -17.1690   22.4718 C   0  0  0  0  0  0  0  0  0  0  0  0
  -22.5339  -20.4916   21.3944 C   0  0  0  0  0  0  0  0  0  0  0  0
  -30.5657  -23.9989   20.2487 C   0  0  0  0  0  0  0  0  0  0  0  0
  -20.8741   -9.4219   22.9688 C   0  0  0  0  0  0  0  0  0  0  0  0
  -24.4610  -14.8122   22.2616 C   0  0  0  0  0  0  0  0  0  0  0  0
  -23.2298  -16.8795   20.5425 C   0  0  0  0  0  0  0  0  0  0  0  0
  -30.4268  -17.2879   16.2592 C   0  0  0  0  0  0  0  0  0  0  0  0
  -20.2777  -10.8186   23.1235 C   0  0  0  0  0  0  0  0  0  0  0  0
  -29.0705  -16.5932   16.2674 C   0  0  0  0  0  0  0  0  0  0  0  0
  -31.4531  -27.4226   19.8384 C   0  0  0  0  0  0  0  0  0  0  0  0
  -20.2307  -11.5313   21.7756 C   0  0  0  0  0  0  0  0  0  0  0  0
  -30.3964  -28.1712   20.6538 C   0  0  0  0  0  0  0  0  0  0  0  0
  -30.8659  -26.2001   19.1353 C   0  0  0  0  0  0  0  0  0  0  0  0
  -29.0821  -26.0194   20.8248 C   0  0  0  0  0  0  0  0  0  0  0  0
  -28.1510  -18.4358   17.7247 C   0  0  0  0  0  0  0  0  0  0  0  0
  -21.6397  -11.7128   21.1982 C   0  0  1  0  0  0  0  0  0  0  0  0
  -22.9632  -15.0997   22.2986 C   0  0  1  0  0  0  0  0  0  0  0  0
  -29.6404  -27.2216   21.6037 C   0  0  2  0  0  0  0  0  0  0  0  0
  -28.2820  -16.9270   17.5337 C   0  0  1  0  0  0  0  0  0  1  0  0
  -28.7449  -17.7011   21.1799 C   0  0  0  0  0  0  0  0  0  0  0  0
  -22.7825  -22.6193   22.7014 C   0  0  0  0  0  0  0  0  0  0  0  0
  -18.7310  -17.6659   21.6600 C   0  0  0  0  0  0  0  0  0  0  0  0
  -19.2993  -20.0872   21.3733 C   0  0  0  0  0  0  0  0  0  0  0  0
  -19.5126  -19.0148   23.6154 C   0  0  0  0  0  0  0  0  0  0  0  0
  -25.3004  -20.8998   20.4255 C   0  0  0  0  0  0  0  0  0  0  0  0
  -30.2795  -18.9314   19.0026 C   0  0  0  0  0  0  0  0  0  0  0  0
  -21.1866  -18.4498   21.8070 C   0  0  1  0  0  0  0  0  0  0  0  0
  -23.5061  -21.4357   22.0785 C   0  0  2  0  0  0  0  0  0  0  0  0
  -19.6967  -18.7844   22.0996 C   0  0  0  0  0  0  0  0  0  0  0  0
  -27.3111  -27.9816   21.8828 N   0  0  0  0  0  0  0  0  0  0  0  0
  -28.5587  -27.9479   22.3812 N   0  0  0  0  0  0  0  0  0  0  0  0
  -22.6332  -16.4420   21.8154 N   0  0  0  0  0  0  0  0  0  0  0  0
  -30.1687  -25.3444   20.0979 N   0  0  0  0  0  0  0  0  0  0  0  0
  -29.8813  -28.6619   24.2119 N   0  0  0  0  0  0  0  0  0  0  0  0
  -25.7818  -30.2826   25.1934 N   0  0  0  0  0  0  0  0  0  0  0  0
  -29.8522  -23.2922   21.2162 N   0  0  0  0  0  0  0  0  0  0  0  0
  -22.3178  -12.8095   21.8554 N   0  0  0  0  0  0  0  0  0  0  0  0
  -22.1260  -19.4796   22.2375 N   0  0  0  0  0  0  0  0  0  0  0  0
  -29.4904  -19.1310   17.7382 N   0  3  1  0  0  0  0  0  0  0  0  0
  -24.5001  -21.9558   21.0974 N   0  3  0  0  0  0  0  0  0  0  0  0
  -27.9557  -30.1573   25.9126 O   0  0  0  0  0  0  0  0  0  0  0  0
  -21.4624  -14.5465   20.5617 O   0  0  0  0  0  0  0  0  0  0  0  0
  -21.1104  -16.8297   23.5379 O   0  0  0  0  0  0  0  0  0  0  0  0
  -22.1697  -20.6393   20.2300 O   0  0  0  0  0  0  0  0  0  0  0  0
  -31.4902  -23.5172   19.5889 O   0  0  0  0  0  0  0  0  0  0  0  0
  -21.1812  -29.6920   22.1092 O   0  0  0  0  0  0  0  0  0  0  0  0
  -26.9715  -16.3769   17.4304 O   0  0  0  0  0  0  0  0  0  1  0  0
  -17.6719  -25.5311   22.9899 F   0  0  0  0  0  0  0  0  0  0  0  0
  -19.2174  -29.8787   24.0460 F   0  0  0  0  0  0  0  0  0  0  0  0
  -28.1779  -22.3350   23.7241 Br  0  0  0  0  0  0  0  0  0  0  0  0
  1  2  1  0  0  0  0
  1  5  2  0  0  0  0
  2  6  2  0  0  0  0
  3  8  2  0  0  0  0
  3 17  1  0  0  0  0
  4  9  1  0  0  0  0
  4 17  2  0  0  0  0
  5 19  1  0  0  0  0
  6 21  1  0  0  0  0
  7 10  2  0  0  0  0
  7 20  1  0  0  0  0
  8 26  1  0  0  0  0
  9 26  2  0  0  0  0
 10 27  1  0  0  0  0
 11 12  2  0  0  0  0
 11 28  1  0  0  0  0
 12 29  1  0  0  0  0
 13 22  1  0  0  0  0
 13 27  2  0  0  0  0
 14 23  1  0  0  0  0
 14 25  2  0  0  0  0
 15 24  1  0  0  0  0
 15 31  2  0  0  0  0
 16 29  2  0  0  0  0
 16 30  1  0  0  0  0
 17 32  1  0  0  0  0
 18 32  1  0  0  0  0
 18 33  2  0  0  0  0
 18 36  1  0  0  0  0
 19 21  2  0  0  0  0
 19 41  1  0  0  0  0
 20 22  2  0  0  0  0
 20 42  1  0  0  0  0
 21 53  1  0  0  0  0
 22 43  1  0  0  0  0
 23 24  2  0  0  0  0
 23 63  1  0  0  0  0
 24 57  1  0  0  0  0
 25 31  1  0  0  0  0
 25 73  1  0  0  0  0
 26 83  1  0  0  0  0
 27 84  1  0  0  0  0
 28 30  2  0  0  0  0
 28 83  1  0  0  0  0
 29 85  1  0  0  0  0
 30 86  1  0  0  0  0
 31 87  1  0  0  0  0
 32 67  2  0  0  0  0
 33 68  1  0  0  0  0
 33 71  1  0  0  0  0
 34 35  2  0  0  0  0
 34 44  1  0  0  0  0
 34 76  1  0  0  0  0
 36 72  1  0  0  0  0
 36 78  2  0  0  0  0
 37 54  1  0  0  0  0
 37 74  1  0  0  0  0
 37 79  2  0  0  0  0
 38 64  1  0  0  0  0
 38 69  1  0  0  0  0
 38 80  2  0  0  0  0
 39 65  1  0  0  0  0
 39 75  1  0  0  0  0
 39 81  2  0  0  0  0
 40 70  1  0  0  0  0
 40 73  1  0  0  0  0
 40 82  2  0  0  0  0
 41 45  1  0  0  0  0
 42 54  1  0  0  0  0
 43 69  1  0  0  0  0
 44 46  1  0  0  0  0
 45 48  1  0  0  0  0
 46 56  1  0  0  0  0
 47 49  1  0  0  0  0
 47 50  1  0  0  0  0
 48 53  1  0  0  0  0
 49 55  1  0  0  0  0
 50 70  1  0  0  0  0
 51 55  1  0  0  0  0
 51 70  1  0  0  0  0
 52 56  1  0  0  0  0
 52 76  1  0  0  0  0
 53 74  1  0  0  0  0
 54 69  1  0  0  0  0
 55 68  1  0  0  0  0
 56 84  1  0  0  0  0
 58 65  1  0  0  0  0
 59 66  1  0  0  0  0
 60 66  1  0  0  0  0
 61 66  1  0  0  0  0
 62 77  1  0  0  0  0
 63 76  1  0  0  0  0
 64 66  1  0  0  0  0
 64 75  1  0  0  0  0
 65 77  1  0  0  0  0
 67 68  1  0  0  0  0
M  CHG  2  76   1  77   1
M  ISO  4  40 100  56 101  73 100  84 101
M  END
> <Batch ID>
0052

> <Smiles>
C=C1CC[101CH:1]([101O:1]c2ccc3c(c2)CN(C(=O)C(NC(=O)C(C)NC)C(C)(C)C)C(C(=O)NC2CCCc4ccccc42)C3)CN1Cc1cc([100NH:0][100C:0](=O)N2CCCC(n3nc(-c4ccc(Oc5ccc(F)cc5F)cc4)c(C(N)=O)c3N)C2)c(Br)cc1C

> <Shape>
0.259

> <Color>
0.061

> <Negative vol penalty>
0.000

$$$$

  -OEChem-04042322403D

 88 97  0     1  0  0  0  0  0999 V2000
  -22.6566  -10.8696   18.6436 C   0  0  0  0  0  0  0  0  0  0  0  0
  -22.2308  -12.1914   18.5603 C   0  0  0  0  0  0  0  0  0  0  0  0
  -29.9853  -27.0537   18.7948 C   0  0  0  0  0  0  0  0  0  0  0  0
  -29.9872  -27.7424   21.1106 C   0  0  0  0  0  0  0  0  0  0  0  0
  -23.7373  -10.5366   19.4591 C   0  0  0  0  0  0  0  0  0  0  0  0
  -22.8850  -13.1809   19.2932 C   0  0  0  0  0  0  0  0  0  0  0  0
  -23.8317  -18.9918   17.6071 C   0  0  0  0  0  0  0  0  0  0  0  0
  -31.3787  -26.9926   18.8118 C   0  0  0  0  0  0  0  0  0  0  0  0
  -31.3806  -27.6812   21.1276 C   0  0  0  0  0  0  0  0  0  0  0  0
  -23.1633  -20.1772   17.9102 C   0  0  0  0  0  0  0  0  0  0  0  0
  -33.7648  -25.2984   21.3692 C   0  0  0  0  0  0  0  0  0  0  0  0
  -34.3716  -24.6815   22.4632 C   0  0  0  0  0  0  0  0  0  0  0  0
  -24.7558  -20.6186   19.6676 C   0  0  0  0  0  0  0  0  0  0  0  0
  -17.9222  -27.2225   22.3432 C   0  0  0  0  0  0  0  0  0  0  0  0
  -19.3752  -29.1432   22.1527 C   0  0  0  0  0  0  0  0  0  0  0  0
  -35.5283  -26.7384   22.9814 C   0  0  0  0  0  0  0  0  0  0  0  0
  -29.2895  -27.4287   19.9442 C   0  0  0  0  0  0  0  0  0  0  0  0
  -26.9557  -26.4399   19.6557 C   0  0  0  0  0  0  0  0  0  0  0  0
  -24.4112  -11.5241   20.1950 C   0  0  0  0  0  0  0  0  0  0  0  0
  -24.9626  -18.6049   18.3403 C   0  0  0  0  0  0  0  0  0  0  0  0
  -23.9750  -12.8607   20.1204 C   0  0  0  0  0  0  0  0  0  0  0  0
  -25.4382  -19.4291   19.3701 C   0  0  0  0  0  0  0  0  0  0  0  0
  -18.1079  -28.5714   22.0407 C   0  0  0  0  0  0  0  0  0  0  0  0
  -19.0038  -26.4453   22.7578 C   0  0  0  0  0  0  0  0  0  0  0  0
  -20.2711  -27.0171   22.8698 C   0  0  0  0  0  0  0  0  0  0  0  0
  -20.4569  -28.3661   22.5673 C   0  0  0  0  0  0  0  0  0  0  0  0
  -32.0764  -27.3063   19.9781 C   0  0  0  0  0  0  0  0  0  0  0  0
  -23.6236  -20.9894   18.9425 C   0  0  0  0  0  0  0  0  0  0  0  0
  -34.0398  -26.6352   21.0812 C   0  0  0  0  0  0  0  0  0  0  0  0
  -35.2533  -25.4015   23.2693 C   0  0  0  0  0  0  0  0  0  0  0  0
  -34.9215  -27.3552   21.8873 C   0  0  0  0  0  0  0  0  0  0  0  0
  -27.8502  -27.4926   19.9271 C   0  0  0  0  0  0  0  0  0  0  0  0
  -25.7110  -27.0105   19.7641 C   0  0  0  0  0  0  0  0  0  0  0  0
  -18.8052  -24.2352   20.7195 C   0  0  0  0  0  0  0  0  0  0  0  0
  -27.2257  -25.0689   19.3345 C   0  0  0  0  0  0  0  0  0  0  0  0
  -25.6933  -16.1309   20.1975 C   0  0  0  0  0  0  0  0  0  0  0  0
  -28.6346  -17.4988   20.1980 C   0  0  0  0  0  0  0  0  0  0  0  0
  -30.5184  -20.3188   19.8157 C   0  0  0  0  0  0  0  0  0  0  0  0
  -22.0709  -30.2935   22.4050 C   0  0  0  0  0  0  0  0  0  0  0  0
  -25.5444  -11.1087   21.0994 C   0  0  0  0  0  0  0  0  0  0  0  0
  -25.6881  -17.3365   17.9834 C   0  0  0  0  0  0  0  0  0  0  0  0
  -26.6598  -19.0689   20.1741 C   0  0  0  0  0  0  0  0  0  0  0  0
  -19.4005  -23.2094   19.7754 C   0  0  0  0  0  0  0  0  0  0  0  0
  -26.4197  -12.2740   21.5535 C   0  0  0  0  0  0  0  0  0  0  0  0
  -24.3359  -31.8664   20.1527 C   0  0  0  0  0  0  0  0  0  0  0  0
  -25.5552  -13.4406   22.0210 C   0  0  0  0  0  0  0  0  0  0  0  0
  -25.3786  -30.7821   19.8709 C   0  0  0  0  0  0  0  0  0  0  0  0
  -21.2291  -22.6964   21.4431 C   0  0  0  0  0  0  0  0  0  0  0  0
  -23.8539  -31.8267   21.6018 C   0  0  0  0  0  0  0  0  0  0  0  0
  -20.0950  -22.9863   22.4248 C   0  0  0  0  0  0  0  0  0  0  0  0
  -24.4124  -29.4338   21.7776 C   0  0  0  0  0  0  0  0  0  0  0  0
  -24.6746  -13.9662   20.8810 C   0  0  1  0  0  0  0  0  0  0  0  0
  -26.5269  -16.7845   19.1318 C   0  0  1  0  0  0  0  0  0  0  0  0
  -20.9092  -23.1197   20.0014 C   0  0  1  0  0  0  0  0  0  0  0  0
  -24.8802  -29.3924   20.3137 C   0  0  2  0  0  0  0  0  0  0  0  0
  -16.9512  -29.4026   21.5988 C   0  0  0  0  0  0  0  0  0  0  0  0
  -21.4281  -26.1791   23.3160 C   0  0  0  0  0  0  0  0  0  0  0  0
  -32.8906  -21.1313   19.9136 C   0  0  0  0  0  0  0  0  0  0  0  0
  -28.5334  -17.4196   23.2466 C   0  0  0  0  0  0  0  0  0  0  0  0
  -30.4252  -19.0592   23.2825 C   0  0  0  0  0  0  0  0  0  0  0  0
  -30.7483  -16.8069   22.2600 C   0  0  0  0  0  0  0  0  0  0  0  0
  -30.4726  -21.1515   16.9761 C   0  0  0  0  0  0  0  0  0  0  0  0
  -18.7761  -24.9965   23.0791 C   0  0  0  0  0  0  0  0  0  0  0  0
  -21.5683  -22.1848   18.9912 C   0  0  0  0  0  0  0  0  0  1  0  0
  -29.3367  -18.5240   21.0554 C   0  0  1  0  0  0  0  0  0  0  0  0
  -31.7859  -20.5837   19.0234 C   0  0  2  0  0  0  0  0  0  0  0  0
  -29.7367  -17.9586   22.4474 C   0  0  0  0  0  0  0  0  0  0  0  0
  -27.2268  -28.6446   20.1880 N   0  0  0  0  0  0  0  0  0  0  0  0
  -25.9272  -28.3193   20.0811 N   0  0  0  0  0  0  0  0  0  0  0  0
  -19.2718  -24.1222   22.0293 N   0  0  0  0  0  0  0  0  0  0  0  0
  -27.3308  -17.8157   19.7911 N   0  0  0  0  0  0  0  0  0  0  0  0
  -23.3929  -30.4807   21.9489 N   0  0  0  0  0  0  0  0  0  0  0  0
  -24.4636  -26.5153   19.6181 N   0  0  0  0  0  0  0  0  0  0  0  0
  -27.3247  -24.1441   20.3830 N   0  0  0  0  0  0  0  0  0  0  0  0
  -21.7359  -28.9667   22.6731 N   0  0  0  0  0  0  0  0  0  0  0  0
  -25.4528  -14.7878   19.9789 N   0  0  0  0  0  0  0  0  0  0  0  0
  -30.4599  -19.0166   20.2653 N   0  0  0  0  0  0  0  0  0  0  0  0
  -31.5222  -21.5720   17.9396 N   0  3  0  0  0  0  0  0  0  0  0  0
  -17.9774  -25.0551   20.3257 O   0  0  0  0  0  0  0  0  0  0  0  0
  -27.3911  -24.6786   18.1539 O   0  0  0  0  0  0  0  0  0  0  0  0
  -25.2989  -16.7955   21.1485 O   0  0  0  0  0  0  0  0  0  0  0  0
  -29.2239  -16.4586   19.8945 O   0  0  0  0  0  0  0  0  0  0  0  0
  -29.6672  -21.1818   20.0188 O   0  0  0  0  0  0  0  0  0  0  0  0
  -21.2847  -31.2372   22.5212 O   0  0  0  0  0  0  0  0  0  0  0  0
  -33.4360  -27.2465   19.9952 O   0  0  0  0  0  0  0  0  0  0  0  0
  -22.9728  -22.1466   19.2408 O   0  0  0  0  0  0  0  0  0  1  0  0
  -35.8348  -24.8094   24.3208 F   0  0  0  0  0  0  0  0  0  0  0  0
  -35.1887  -28.6401   21.6164 F   0  0  0  0  0  0  0  0  0  0  0  0
  1  2  1  0  0  0  0
  1  5  2  0  0  0  0
  2  6  2  0  0  0  0
  3  8  2  0  0  0  0
  3 17  1  0  0  0  0
  4  9  1  0  0  0  0
  4 17  2  0  0  0  0
  5 19  1  0  0  0  0
  6 21  1  0  0  0  0
  7 10  2  0  0  0  0
  7 20  1  0  0  0  0
  8 27  1  0  0  0  0
  9 27  2  0  0  0  0
 10 28  1  0  0  0  0
 11 12  2  0  0  0  0
 11 29  1  0  0  0  0
 12 30  1  0  0  0  0
 13 22  1  0  0  0  0
 13 28  2  0  0  0  0
 14 23  2  0  0  0  0
 14 24  1  0  0  0  0
 15 23  1  0  0  0  0
 15 26  2  0  0  0  0
 16 30  2  0  0  0  0
 16 31  1  0  0  0  0
 17 32  1  0  0  0  0
 18 32  1  0  0  0  0
 18 33  2  0  0  0  0
 18 35  1  0  0  0  0
 19 21  2  0  0  0  0
 19 40  1  0  0  0  0
 20 22  2  0  0  0  0
 20 41  1  0  0  0  0
 21 52  1  0  0  0  0
 22 42  1  0  0  0  0
 23 56  1  0  0  0  0
 24 25  2  0  0  0  0
 24 63  1  0  0  0  0
 25 26  1  0  0  0  0
 25 57  1  0  0  0  0
 26 75  1  0  0  0  0
 27 85  1  0  0  0  0
 28 86  1  0  0  0  0
 29 31  2  0  0  0  0
 29 85  1  0  0  0  0
 30 87  1  0  0  0  0
 31 88  1  0  0  0  0
 32 68  2  0  0  0  0
 33 69  1  0  0  0  0
 33 73  1  0  0  0  0
 34 43  1  0  0  0  0
 34 70  1  0  0  0  0
 34 79  2  0  0  0  0
 35 74  1  0  0  0  0
 35 80  2  0  0  0  0
 36 53  1  0  0  0  0
 36 76  1  0  0  0  0
 36 81  2  0  0  0  0
 37 65  1  0  0  0  0
 37 71  1  0  0  0  0
 37 82  2  0  0  0  0
 38 66  1  0  0  0  0
 38 77  1  0  0  0  0
 38 83  2  0  0  0  0
 39 72  1  0  0  0  0
 39 75  1  0  0  0  0
 39 84  2  0  0  0  0
 40 44  1  0  0  0  0
 41 53  1  0  0  0  0
 42 71  1  0  0  0  0
 43 54  1  0  0  0  0
 44 46  1  0  0  0  0
 45 47  1  0  0  0  0
 45 49  1  0  0  0  0
 46 52  1  0  0  0  0
 47 55  1  0  0  0  0
 48 50  1  0  0  0  0
 48 54  1  0  0  0  0
 49 72  1  0  0  0  0
 50 70  1  0  0  0  0
 51 55  1  0  0  0  0
 51 72  1  0  0  0  0
 52 76  1  0  0  0  0
 53 71  1  0  0  0  0
 54 64  1  0  0  0  0
 55 69  1  0  0  0  0
 58 66  1  0  0  0  0
 59 67  1  0  0  0  0
 60 67  1  0  0  0  0
 61 67  1  0  0  0  0
 62 78  1  0  0  0  0
 63 70  1  0  0  0  0
 64 86  1  0  0  0  0
 65 67  1  0  0  0  0
 65 77  1  0  0  0  0
 66 78  1  0  0  0  0
 68 69  1  0  0  0  0
M  CHG  1  78   1
M  ISO  4  39 100  64 101  75 100  86 101
M  END
> <Batch ID>
0052

> <Smiles>
CNC(C)C(=O)NC(C(=O)N1Cc2cc([101O:1][101CH2:1]C3CCN(Cc4cc(C)cc([100NH:0][100C:0](=O)N5CCCC(n6nc(-c7ccc(Oc8ccc(F)cc8F)cc7)c(C(N)=O)c6N)C5)c4C)C(=O)C3)ccc2CC1C(=O)NC1CCCc2ccccc21)C(C)(C)C

> <Shape>
0.243

> <Color>
0.097

> <Negative vol penalty>
0.000

$$$$

  -OEChem-04042322403D

 86 95  0     1  0  0  0  0  0999 V2000
  -27.5434  -35.9793   23.1808 C   0  0  0  0  0  0  0  0  0  0  0  0
  -27.8794  -34.6457   22.9706 C   0  0  0  0  0  0  0  0  0  0  0  0
  -22.0138  -17.4649   22.9857 C   0  0  0  0  0  0  0  0  0  0  0  0
  -23.3607  -16.8889   24.9070 C   0  0  0  0  0  0  0  0  0  0  0  0
  -26.2859  -36.3091   23.6846 C   0  0  0  0  0  0  0  0  0  0  0  0
  -26.9583  -33.6411   23.2652 C   0  0  0  0  0  0  0  0  0  0  0  0
  -26.6839  -30.1294   19.6269 C   0  0  0  0  0  0  0  0  0  0  0  0
  -32.9004  -22.4091   18.0595 C   0  0  0  0  0  0  0  0  0  0  0  0
  -21.0433  -18.0065   23.8285 C   0  0  0  0  0  0  0  0  0  0  0  0
  -22.3901  -17.4306   25.7498 C   0  0  0  0  0  0  0  0  0  0  0  0
  -27.6999  -29.1755   19.5846 C   0  0  0  0  0  0  0  0  0  0  0  0
  -20.5752  -20.8629   25.5764 C   0  0  0  0  0  0  0  0  0  0  0  0
  -33.6476  -21.3718   18.6174 C   0  0  0  0  0  0  0  0  0  0  0  0
  -20.0344  -22.1012   25.2305 C   0  0  0  0  0  0  0  0  0  0  0  0
  -26.2574  -27.5983   20.7030 C   0  0  0  0  0  0  0  0  0  0  0  0
  -30.8763  -21.4218   18.9344 C   0  0  0  0  0  0  0  0  0  0  0  0
  -17.8356  -21.1071   25.1098 C   0  0  0  0  0  0  0  0  0  0  0  0
  -23.1725  -16.9060   23.5250 C   0  0  0  0  0  0  0  0  0  0  0  0
  -24.0138  -15.2839   21.7449 C   0  0  0  0  0  0  0  0  0  0  0  0
  -25.3455  -35.3085   23.9764 C   0  0  0  0  0  0  0  0  0  0  0  0
  -25.4487  -29.8278   20.2182 C   0  0  0  0  0  0  0  0  0  0  0  0
  -25.6875  -33.9577   23.7747 C   0  0  0  0  0  0  0  0  0  0  0  0
  -25.2265  -28.5492   20.7491 C   0  0  0  0  0  0  0  0  0  0  0  0
  -31.5147  -22.4342   18.2181 C   0  0  0  0  0  0  0  0  0  0  0  0
  -31.6235  -20.3844   19.4923 C   0  0  0  0  0  0  0  0  0  0  0  0
  -21.2314  -17.9894   25.2105 C   0  0  0  0  0  0  0  0  0  0  0  0
  -27.4878  -27.9107   20.1253 C   0  0  0  0  0  0  0  0  0  0  0  0
  -19.7463  -19.7466   25.6889 C   0  0  0  0  0  0  0  0  0  0  0  0
  -18.6646  -22.2233   24.9972 C   0  0  0  0  0  0  0  0  0  0  0  0
  -33.0092  -20.3594   19.3338 C   0  0  0  0  0  0  0  0  0  0  0  0
  -18.3765  -19.8688   25.4557 C   0  0  0  0  0  0  0  0  0  0  0  0
  -24.1752  -16.3458   22.6550 C   0  0  0  0  0  0  0  0  0  0  0  0
  -25.2509  -15.1363   21.1667 C   0  0  0  0  0  0  0  0  0  0  0  0
  -30.0738  -25.8851   17.7383 C   0  0  0  0  0  0  0  0  0  0  0  0
  -30.7451  -26.8100   17.0355 C   0  0  0  0  0  0  0  0  0  0  0  0
  -22.8498  -14.5011   21.4486 C   0  0  0  0  0  0  0  0  0  0  0  0
  -23.8078  -30.9669   22.6908 C   0  0  0  0  0  0  0  0  0  0  0  0
  -21.5199  -28.9385   21.6078 C   0  0  0  0  0  0  0  0  0  0  0  0
  -21.3838  -25.5775   20.3029 C   0  0  0  0  0  0  0  0  0  0  0  0
  -29.6061  -19.2244   20.4766 C   0  0  0  0  0  0  0  0  0  0  0  0
  -24.0160  -35.7110   24.5639 C   0  0  0  0  0  0  0  0  0  0  0  0
  -24.3538  -30.8591   20.2319 C   0  0  0  0  0  0  0  0  0  0  0  0
  -23.9114  -28.1688   21.3770 C   0  0  0  0  0  0  0  0  0  0  0  0
  -28.5776  -25.9155   17.9159 C   0  0  0  0  0  0  0  0  0  0  0  0
  -22.9620  -34.6087   24.4974 C   0  0  0  0  0  0  0  0  0  0  0  0
  -29.6889  -16.1684   22.7958 C   0  0  0  0  0  0  0  0  0  0  0  0
  -23.5489  -33.2801   24.9633 C   0  0  0  0  0  0  0  0  0  0  0  0
  -28.4328  -15.4482   22.3110 C   0  0  0  0  0  0  0  0  0  0  0  0
  -28.9705  -24.6245   20.0556 C   0  0  0  0  0  0  0  0  0  0  0  0
  -30.2586  -17.1089   21.7413 C   0  0  0  0  0  0  0  0  0  0  0  0
  -27.8697  -17.8342   21.5897 C   0  0  0  0  0  0  0  0  0  0  0  0
  -30.4785  -24.7449   19.8404 C   0  0  0  0  0  0  0  0  0  0  0  0
  -24.7066  -32.8409   24.0587 C   0  0  1  0  0  0  0  0  0  0  0  0
  -23.3120  -30.6100   21.3181 C   0  0  1  0  0  0  0  0  0  0  0  0
  -27.5143  -16.3451   21.4576 C   0  0  2  0  0  0  0  0  0  0  0  0
  -28.1995  -25.7640   19.3895 C   0  0  1  0  0  0  0  0  0  1  0  0
  -19.7404  -24.4980   18.7437 C   0  0  0  0  0  0  0  0  0  0  0  0
  -20.1297  -28.0293   24.1672 C   0  0  0  0  0  0  0  0  0  0  0  0
  -19.6373  -25.8476   23.0421 C   0  0  0  0  0  0  0  0  0  0  0  0
  -18.6936  -27.9650   22.1208 C   0  0  0  0  0  0  0  0  0  0  0  0
  -23.5229  -24.7607   18.4277 C   0  0  0  0  0  0  0  0  0  0  0  0
  -30.7116  -23.5499   17.6172 C   0  0  0  0  0  0  0  0  0  0  0  0
  -21.1642  -27.4937   21.8631 C   0  0  1  0  0  0  0  0  0  0  0  0
  -21.0987  -25.1704   18.8685 C   0  0  2  0  0  0  0  0  0  0  0  0
  -19.9329  -27.3433   22.8006 C   0  0  0  0  0  0  0  0  0  0  0  0
  -25.4169  -16.8378   22.6584 N   0  0  0  0  0  0  0  0  0  0  0  0
  -26.0471  -16.0817   21.7434 N   0  0  0  0  0  0  0  0  0  0  0  0
  -22.8743  -29.2136   21.3719 N   0  0  0  0  0  0  0  0  0  0  0  0
  -29.2738  -18.0781   21.2394 N   0  0  0  0  0  0  0  0  0  0  0  0
  -25.7245  -14.2913   20.2264 N   0  0  0  0  0  0  0  0  0  0  0  0
  -22.6229  -13.3340   22.1907 N   0  0  0  0  0  0  0  0  0  0  0  0
  -30.9734  -19.3568   20.2205 N   0  0  0  0  0  0  0  0  0  0  0  0
  -24.1993  -32.2856   22.8223 N   0  0  0  0  0  0  0  0  0  0  0  0
  -20.9956  -26.8770   20.5518 N   0  0  0  0  0  0  0  0  0  0  0  0
  -30.8378  -24.8418   18.3762 N   0  3  1  0  0  0  0  0  0  0  0  0
  -22.1396  -24.2208   18.3829 N   0  3  0  0  0  0  0  0  0  0  0  0
  -22.0437  -14.8181   20.5412 O   0  0  0  0  0  0  0  0  0  0  0  0
  -23.8320  -30.1098   23.5663 O   0  0  0  0  0  0  0  0  0  0  0  0
  -20.6278  -29.7904   21.6103 O   0  0  0  0  0  0  0  0  0  0  0  0
  -21.8961  -24.8175   21.1218 O   0  0  0  0  0  0  0  0  0  0  0  0
  -28.7434  -20.0094   20.0775 O   0  0  0  0  0  0  0  0  0  0  0  0
  -20.2847  -18.5181   26.0331 O   0  0  0  0  0  0  0  0  0  0  0  0
  -28.4780  -26.9781   20.0860 O   0  0  0  0  0  0  0  0  0  1  0  0
  -18.1451  -23.4129   24.6666 F   0  0  0  0  0  0  0  0  0  0  0  0
  -33.7375  -19.3671   19.8650 F   0  0  0  0  0  0  0  0  0  0  0  0
  -17.5750  -18.8002   25.5634 F   0  0  0  0  0  0  0  0  0  0  0  0
  1  2  1  0  0  0  0
  1  5  2  0  0  0  0
  2  6  2  0  0  0  0
  3  9  2  0  0  0  0
  3 18  1  0  0  0  0
  4 10  1  0  0  0  0
  4 18  2  0  0  0  0
  5 20  1  0  0  0  0
  6 22  1  0  0  0  0
  7 11  2  0  0  0  0
  7 21  1  0  0  0  0
  8 13  2  0  0  0  0
  8 24  1  0  0  0  0
  9 26  1  0  0  0  0
 10 26  2  0  0  0  0
 11 27  1  0  0  0  0
 12 14  2  0  0  0  0
 12 28  1  0  0  0  0
 13 30  1  0  0  0  0
 14 29  1  0  0  0  0
 15 23  1  0  0  0  0
 15 27  2  0  0  0  0
 16 24  2  0  0  0  0
 16 25  1  0  0  0  0
 17 29  2  0  0  0  0
 17 31  1  0  0  0  0
 18 32  1  0  0  0  0
 19 32  1  0  0  0  0
 19 33  2  0  0  0  0
 19 36  1  0  0  0  0
 20 22  2  0  0  0  0
 20 41  1  0  0  0  0
 21 23  2  0  0  0  0
 21 42  1  0  0  0  0
 22 53  1  0  0  0  0
 23 43  1  0  0  0  0
 24 62  1  0  0  0  0
 25 30  2  0  0  0  0
 25 72  1  0  0  0  0
 26 82  1  0  0  0  0
 27 83  1  0  0  0  0
 28 31  2  0  0  0  0
 28 82  1  0  0  0  0
 29 84  1  0  0  0  0
 30 85  1  0  0  0  0
 31 86  1  0  0  0  0
 32 66  2  0  0  0  0
 33 67  1  0  0  0  0
 33 70  1  0  0  0  0
 34 35  2  0  0  0  0
 34 44  1  0  0  0  0
 34 75  1  0  0  0  0
 36 71  1  0  0  0  0
 36 77  2  0  0  0  0
 37 54  1  0  0  0  0
 37 73  1  0  0  0  0
 37 78  2  0  0  0  0
 38 63  1  0  0  0  0
 38 68  1  0  0  0  0
 38 79  2  0  0  0  0
 39 64  1  0  0  0  0
 39 74  1  0  0  0  0
 39 80  2  0  0  0  0
 40 69  1  0  0  0  0
 40 72  1  0  0  0  0
 40 81  2  0  0  0  0
 41 45  1  0  0  0  0
 42 54  1  0  0  0  0
 43 68  1  0  0  0  0
 44 56  1  0  0  0  0
 45 47  1  0  0  0  0
 46 48  1  0  0  0  0
 46 50  1  0  0  0  0
 47 53  1  0  0  0  0
 48 55  1  0  0  0  0
 49 52  1  0  0  0  0
 49 56  1  0  0  0  0
 50 69  1  0  0  0  0
 51 55  1  0  0  0  0
 51 69  1  0  0  0  0
 52 75  1  0  0  0  0
 53 73  1  0  0  0  0
 54 68  1  0  0  0  0
 55 67  1  0  0  0  0
 56 83  1  0  0  0  0
 57 64  1  0  0  0  0
 58 65  1  0  0  0  0
 59 65  1  0  0  0  0
 60 65  1  0  0  0  0
 61 76  1  0  0  0  0
 62 75  1  0  0  0  0
 63 65  1  0  0  0  0
 63 74  1  0  0  0  0
 64 76  1  0  0  0  0
 66 67  1  0  0  0  0
M  CHG  2  75   1  76   1
M  ISO  4  40 100  56 101  72 100  83 101
M  END
> <Batch ID>
0052

> <Smiles>
C=C1C[101CH:1]([101O:1]c2ccc3c(c2)CN(C(=O)C(NC(=O)C(C)NC)C(C)(C)C)C(C(=O)NC2CCCc4ccccc42)C3)CCN1Cc1ccc(F)c([100NH:0][100C:0](=O)N2CCCC(n3nc(-c4ccc(Oc5ccc(F)cc5F)cc4)c(C(N)=O)c3N)C2)c1

> <Shape>
0.257

> <Color>
0.094

> <Negative vol penalty>
0.000

$$$$

  -OEChem-04042322403D

 83 91  0     1  0  0  0  0  0999 V2000
  -32.5305  -19.4565   25.9102 C   0  0  0  0  0  0  0  0  0  0  0  0
  -31.3120  -20.0646   26.1947 C   0  0  0  0  0  0  0  0  0  0  0  0
  -17.4152  -27.9098   23.5430 C   0  0  0  0  0  0  0  0  0  0  0  0
  -29.0463  -26.1307   20.5351 C   0  0  0  0  0  0  0  0  0  0  0  0
  -27.2386  -26.1327   18.9322 C   0  0  0  0  0  0  0  0  0  0  0  0
  -32.7245  -18.8281   24.6808 C   0  0  0  0  0  0  0  0  0  0  0  0
  -30.2871  -20.0455   25.2494 C   0  0  0  0  0  0  0  0  0  0  0  0
  -23.1442  -19.8002   24.7640 C   0  0  0  0  0  0  0  0  0  0  0  0
  -17.6292  -26.7112   22.8625 C   0  0  0  0  0  0  0  0  0  0  0  0
  -18.2542  -29.0006   23.3150 C   0  0  0  0  0  0  0  0  0  0  0  0
  -29.4448  -24.8723   20.0842 C   0  0  0  0  0  0  0  0  0  0  0  0
  -27.6371  -24.8743   18.4813 C   0  0  0  0  0  0  0  0  0  0  0  0
  -22.0817  -20.4740   24.1631 C   0  0  0  0  0  0  0  0  0  0  0  0
  -27.3412  -21.6594   19.4850 C   0  0  0  0  0  0  0  0  0  0  0  0
  -26.3501  -20.6981   19.2870 C   0  0  0  0  0  0  0  0  0  0  0  0
  -22.5033  -19.2900   22.1041 C   0  0  0  0  0  0  0  0  0  0  0  0
  -19.5211  -27.6941   21.7261 C   0  0  0  0  0  0  0  0  0  0  0  0
  -26.9663  -20.5428   16.9561 C   0  0  0  0  0  0  0  0  0  0  0  0
  -27.9432  -26.7609   19.9592 C   0  0  0  0  0  0  0  0  0  0  0  0
  -27.9593  -29.3118   19.9428 C   0  0  0  0  0  0  0  0  0  0  0  0
  -31.6981  -18.7929   23.7237 C   0  0  0  0  0  0  0  0  0  0  0  0
  -23.9023  -18.8728   24.0349 C   0  0  0  0  0  0  0  0  0  0  0  0
  -30.4679  -19.4171   24.0055 C   0  0  0  0  0  0  0  0  0  0  0  0
  -23.5732  -18.6039   22.6987 C   0  0  0  0  0  0  0  0  0  0  0  0
  -18.6821  -26.6033   21.9541 C   0  0  0  0  0  0  0  0  0  0  0  0
  -19.3071  -28.8928   22.4066 C   0  0  0  0  0  0  0  0  0  0  0  0
  -28.7402  -24.2441   19.0573 C   0  0  0  0  0  0  0  0  0  0  0  0
  -21.7629  -20.2210   22.8321 C   0  0  0  0  0  0  0  0  0  0  0  0
  -28.1448  -22.0625   18.4185 C   0  0  0  0  0  0  0  0  0  0  0  0
  -26.1626  -20.1398   18.0226 C   0  0  0  0  0  0  0  0  0  0  0  0
  -27.9574  -21.5042   17.1541 C   0  0  0  0  0  0  0  0  0  0  0  0
  -27.5307  -28.0605   20.4249 C   0  0  0  0  0  0  0  0  0  0  0  0
  -27.2794  -30.2263   20.7095 C   0  0  0  0  0  0  0  0  0  0  0  0
  -28.8888  -29.6198   18.8955 C   0  0  0  0  0  0  0  0  0  0  0  0
  -26.9512  -18.6599   23.1616 C   0  0  0  0  0  0  0  0  0  0  0  0
  -26.0339  -15.7412   22.0836 C   0  0  0  0  0  0  0  0  0  0  0  0
  -19.8196  -23.0332   21.6225 C   0  0  0  0  0  0  0  0  0  0  0  0
  -23.5116  -13.7153   20.9971 C   0  0  0  0  0  0  0  0  0  0  0  0
  -22.1206  -29.9754   23.7385 C   0  0  0  0  0  0  0  0  0  0  0  0
  -31.9707  -18.1427   22.3905 C   0  0  0  0  0  0  0  0  0  0  0  0
  -25.0285  -18.1347   24.7054 C   0  0  0  0  0  0  0  0  0  0  0  0
  -24.3432  -17.6026   21.8784 C   0  0  0  0  0  0  0  0  0  0  0  0
  -30.7064  -17.8418   21.5897 C   0  0  0  0  0  0  0  0  0  0  0  0
  -25.3354  -30.7680   25.0475 C   0  0  0  0  0  0  0  0  0  0  0  0
  -29.7735  -19.0487   21.5914 C   0  0  0  0  0  0  0  0  0  0  0  0
  -26.3012  -30.2769   23.9677 C   0  0  0  0  0  0  0  0  0  0  0  0
  -24.1268  -29.8449   25.1858 C   0  0  0  0  0  0  0  0  0  0  0  0
  -24.3639  -29.0952   22.8501 C   0  0  0  0  0  0  0  0  0  0  0  0
  -29.3235  -19.3960   23.0156 C   0  0  1  0  0  0  0  0  0  0  0  0
  -26.0563  -17.5892   23.7188 C   0  0  1  0  0  0  0  0  0  0  0  0
  -25.5709  -30.0243   22.6350 C   0  0  2  0  0  0  0  0  0  0  0  0
  -23.0758  -11.3935   20.1505 C   0  0  0  0  0  0  0  0  0  0  0  0
  -27.2088  -16.5109   19.3749 C   0  0  0  0  0  0  0  0  0  0  0  0
  -25.9302  -14.6131   18.3592 C   0  0  0  0  0  0  0  0  0  0  0  0
  -27.6745  -14.1582   20.0835 C   0  0  0  0  0  0  0  0  0  0  0  0
  -21.6999  -13.1065   23.2567 C   0  0  0  0  0  0  0  0  0  0  0  0
  -18.9109  -25.3132   21.2209 C   0  0  0  0  0  0  0  0  0  0  0  0
  -20.2046  -30.0591   22.1634 C   0  0  0  0  0  0  0  0  0  0  0  0
  -20.4353  -22.1909   22.7193 C   0  0  0  0  0  0  0  0  0  1  0  0
  -25.4829  -15.2062   20.7839 C   0  0  1  0  0  0  0  0  0  0  0  0
  -23.1265  -12.2960   21.3735 C   0  0  2  0  0  0  0  0  0  0  0  0
  -26.5606  -15.1424   19.6650 C   0  0  0  0  0  0  0  0  0  0  0  0
  -26.6471  -28.1668   21.4209 N   0  0  0  0  0  0  0  0  0  0  0  0
  -26.5149  -29.4957   21.5709 N   0  0  0  0  0  0  0  0  0  0  0  0
  -25.4394  -16.9113   22.5769 N   0  0  0  0  0  0  0  0  0  0  0  0
  -23.4784  -29.6477   23.8871 N   0  0  0  0  0  0  0  0  0  0  0  0
  -27.2669  -31.5762   20.7241 N   0  0  0  0  0  0  0  0  0  0  0  0
  -29.4973  -28.5601   18.2092 N   0  0  0  0  0  0  0  0  0  0  0  0
  -28.2898  -18.4837   23.4557 N   0  0  0  0  0  0  0  0  0  0  0  0
  -19.5106  -24.3087   22.0684 N   0  0  0  0  0  0  0  0  0  0  0  0
  -24.8714  -13.9196   21.0986 N   0  0  0  0  0  0  0  0  0  0  0  0
  -21.5857  -29.7639   22.4737 N   0  0  0  0  0  0  0  0  0  0  0  0
  -21.7869  -12.2786   22.0263 N   0  3  0  0  0  0  0  0  0  0  0  0
  -29.1839  -30.7998   18.5889 O   0  0  0  0  0  0  0  0  0  0  0  0
  -26.4635  -19.5772   22.5117 O   0  0  0  0  0  0  0  0  0  0  0  0
  -26.9529  -15.1390   22.6444 O   0  0  0  0  0  0  0  0  0  0  0  0
  -19.6290  -22.6083   20.4863 O   0  0  0  0  0  0  0  0  0  0  0  0
  -22.6888  -14.5574   20.6443 O   0  0  0  0  0  0  0  0  0  0  0  0
  -21.4372  -30.4283   24.6630 O   0  0  0  0  0  0  0  0  0  0  0  0
  -29.1289  -23.0164   18.6168 O   0  0  0  0  0  0  0  0  0  0  0  0
  -20.7268  -20.8777   22.2431 O   0  0  0  0  0  0  0  0  0  1  0  0
  -25.2118  -19.2156   17.8330 F   0  0  0  0  0  0  0  0  0  0  0  0
  -28.7271  -21.8865   16.1259 F   0  0  0  0  0  0  0  0  0  0  0  0
  1  2  1  0  0  0  0
  1  6  2  0  0  0  0
  2  7  2  0  0  0  0
  3  9  2  0  0  0  0
  3 10  1  0  0  0  0
  4 11  2  0  0  0  0
  4 19  1  0  0  0  0
  5 12  1  0  0  0  0
  5 19  2  0  0  0  0
  6 21  1  0  0  0  0
  7 23  1  0  0  0  0
  8 13  2  0  0  0  0
  8 22  1  0  0  0  0
  9 25  1  0  0  0  0
 10 26  2  0  0  0  0
 11 27  1  0  0  0  0
 12 27  2  0  0  0  0
 13 28  1  0  0  0  0
 14 15  2  0  0  0  0
 14 29  1  0  0  0  0
 15 30  1  0  0  0  0
 16 24  1  0  0  0  0
 16 28  2  0  0  0  0
 17 25  2  0  0  0  0
 17 26  1  0  0  0  0
 18 30  2  0  0  0  0
 18 31  1  0  0  0  0
 19 32  1  0  0  0  0
 20 32  1  0  0  0  0
 20 33  2  0  0  0  0
 20 34  1  0  0  0  0
 21 23  2  0  0  0  0
 21 40  1  0  0  0  0
 22 24  2  0  0  0  0
 22 41  1  0  0  0  0
 23 49  1  0  0  0  0
 24 42  1  0  0  0  0
 25 57  1  0  0  0  0
 26 58  1  0  0  0  0
 27 80  1  0  0  0  0
 28 81  1  0  0  0  0
 29 31  2  0  0  0  0
 29 80  1  0  0  0  0
 30 82  1  0  0  0  0
 31 83  1  0  0  0  0
 32 63  2  0  0  0  0
 33 64  1  0  0  0  0
 33 67  1  0  0  0  0
 34 68  1  0  0  0  0
 34 74  2  0  0  0  0
 35 50  1  0  0  0  0
 35 69  1  0  0  0  0
 35 75  2  0  0  0  0
 36 60  1  0  0  0  0
 36 65  1  0  0  0  0
 36 76  2  0  0  0  0
 37 59  1  0  0  0  0
 37 70  1  0  0  0  0
 37 77  2  0  0  0  0
 38 61  1  0  0  0  0
 38 71  1  0  0  0  0
 38 78  2  0  0  0  0
 39 66  1  0  0  0  0
 39 72  1  0  0  0  0
 39 79  2  0  0  0  0
 40 43  1  0  0  0  0
 41 50  1  0  0  0  0
 42 65  1  0  0  0  0
 43 45  1  0  0  0  0
 44 46  1  0  0  0  0
 44 47  1  0  0  0  0
 45 49  1  0  0  0  0
 46 51  1  0  0  0  0
 47 66  1  0  0  0  0
 48 51  1  0  0  0  0
 48 66  1  0  0  0  0
 49 69  1  0  0  0  0
 50 65  1  0  0  0  0
 51 64  1  0  0  0  0
 52 61  1  0  0  0  0
 53 62  1  0  0  0  0
 54 62  1  0  0  0  0
 55 62  1  0  0  0  0
 56 73  1  0  0  0  0
 57 70  1  0  0  0  0
 58 72  1  0  0  0  0
 59 81  1  0  0  0  0
 60 62  1  0  0  0  0
 60 71  1  0  0  0  0
 61 73  1  0  0  0  0
 63 64  1  0  0  0  0
M  CHG  1  73   1
M  ISO  4  39 100  59 101  72 100  81 101
M  END
> <Batch ID>
0052

> <Smiles>
CNC(C)C(=O)NC(C(=O)N1Cc2cc([101O:1][101CH2:1]C(=O)NCc3cccc(C[100NH:0][100C:0](=O)N4CCCC(n5nc(-c6ccc(Oc7ccc(F)cc7F)cc6)c(C(N)=O)c5N)C4)c3)ccc2CC1C(=O)NC1CCCc2ccccc21)C(C)(C)C

> <Shape>
0.208

> <Color>
0.077

> <Negative vol penalty>
0.000

$$$$

  -OEChem-04042322403D

 87 96  0     1  0  0  0  0  0999 V2000
  -23.0681   -7.9244   21.2087 C   0  0  0  0  0  0  0  0  0  0  0  0
  -22.4534   -8.7216   20.2485 C   0  0  0  0  0  0  0  0  0  0  0  0
  -28.5205  -28.1495   20.6995 C   0  0  0  0  0  0  0  0  0  0  0  0
  -27.0021  -26.5365   19.7350 C   0  0  0  0  0  0  0  0  0  0  0  0
  -23.6599   -8.5120   22.3260 C   0  0  0  0  0  0  0  0  0  0  0  0
  -22.4292  -10.1069   20.4056 C   0  0  0  0  0  0  0  0  0  0  0  0
  -22.5649  -16.1625   16.5810 C   0  0  0  0  0  0  0  0  0  0  0  0
  -17.2927  -24.2940   21.0912 C   0  0  0  0  0  0  0  0  0  0  0  0
  -18.1525  -25.2321   21.6624 C   0  0  0  0  0  0  0  0  0  0  0  0
  -29.5979  -27.3181   20.3937 C   0  0  0  0  0  0  0  0  0  0  0  0
  -28.0796  -25.7051   19.4292 C   0  0  0  0  0  0  0  0  0  0  0  0
  -21.8587  -17.3545   16.4259 C   0  0  0  0  0  0  0  0  0  0  0  0
  -30.4877  -25.5192   17.0656 C   0  0  0  0  0  0  0  0  0  0  0  0
  -30.5184  -24.9410   15.7966 C   0  0  0  0  0  0  0  0  0  0  0  0
  -22.9825  -18.2646   18.3567 C   0  0  0  0  0  0  0  0  0  0  0  0
  -18.2445  -24.7454   18.9169 C   0  0  0  0  0  0  0  0  0  0  0  0
  -30.4933  -22.7423   16.7978 C   0  0  0  0  0  0  0  0  0  0  0  0
  -27.2225  -27.7587   20.3702 C   0  0  0  0  0  0  0  0  0  0  0  0
  -25.8934  -29.9317   20.2319 C   0  0  0  0  0  0  0  0  0  0  0  0
  -23.6514   -9.9059   22.4921 C   0  0  0  0  0  0  0  0  0  0  0  0
  -23.4788  -16.0085   17.6334 C   0  0  0  0  0  0  0  0  0  0  0  0
  -23.0203  -10.7137   21.5269 C   0  0  0  0  0  0  0  0  0  0  0  0
  -23.7010  -17.0706   18.5215 C   0  0  0  0  0  0  0  0  0  0  0  0
  -17.3388  -24.0505   19.7185 C   0  0  0  0  0  0  0  0  0  0  0  0
  -19.1043  -25.6836   19.4881 C   0  0  0  0  0  0  0  0  0  0  0  0
  -19.0582  -25.9270   20.8608 C   0  0  0  0  0  0  0  0  0  0  0  0
  -29.3775  -26.0959   19.7586 C   0  0  0  0  0  0  0  0  0  0  0  0
  -22.0652  -18.4048   17.3156 C   0  0  0  0  0  0  0  0  0  0  0  0
  -30.4599  -24.7090   18.2007 C   0  0  0  0  0  0  0  0  0  0  0  0
  -30.5212  -23.5526   15.6627 C   0  0  0  0  0  0  0  0  0  0  0  0
  -30.4626  -23.3206   18.0668 C   0  0  0  0  0  0  0  0  0  0  0  0
  -26.1091  -28.6168   20.6863 C   0  0  0  0  0  0  0  0  0  0  0  0
  -24.7057  -30.3049   20.8122 C   0  0  0  0  0  0  0  0  0  0  0  0
  -17.0027  -21.7545   17.0688 C   0  0  0  0  0  0  0  0  0  0  0  0
  -26.6948  -30.7430   19.3630 C   0  0  0  0  0  0  0  0  0  0  0  0
  -23.7041  -14.0708   20.1430 C   0  0  0  0  0  0  0  0  0  0  0  0
  -26.5750  -15.5325   20.5221 C   0  0  0  0  0  0  0  0  0  0  0  0
  -28.5322  -18.2678   19.9440 C   0  0  0  0  0  0  0  0  0  0  0  0
  -19.9916  -27.2235   22.8087 C   0  0  0  0  0  0  0  0  0  0  0  0
  -24.2627  -10.4921   23.7400 C   0  0  0  0  0  0  0  0  0  0  0  0
  -24.2524  -14.7259   17.7711 C   0  0  0  0  0  0  0  0  0  0  0  0
  -24.6860  -16.9630   19.6558 C   0  0  0  0  0  0  0  0  0  0  0  0
  -17.7958  -20.5649   16.5650 C   0  0  0  0  0  0  0  0  0  0  0  0
  -24.5215  -11.9935   23.6442 C   0  0  0  0  0  0  0  0  0  0  0  0
  -22.0073  -29.4827   24.6822 C   0  0  0  0  0  0  0  0  0  0  0  0
  -23.3031  -12.7096   23.0702 C   0  0  0  0  0  0  0  0  0  0  0  0
  -23.2657  -29.6414   23.8258 C   0  0  0  0  0  0  0  0  0  0  0  0
  -19.1580  -20.5375   18.6939 C   0  0  0  0  0  0  0  0  0  0  0  0
  -21.4622  -28.0565   24.6303 C   0  0  0  0  0  0  0  0  0  0  0  0
  -17.8234  -20.9967   19.2788 C   0  0  0  0  0  0  0  0  0  0  0  0
  -22.4920  -27.6867   22.4231 C   0  0  0  0  0  0  0  0  0  0  0  0
  -22.9950  -12.2218   21.6494 C   0  0  1  0  0  0  0  0  0  0  0  0
  -24.7800  -14.4950   19.1838 C   0  0  1  0  0  0  0  0  0  0  0  0
  -19.2032  -20.5984   17.1595 C   0  0  1  0  0  0  0  0  0  0  0  0
  -23.0408  -29.1225   22.3920 C   0  0  2  0  0  0  0  0  0  0  0  0
  -20.0623  -26.4154   18.6049 C   0  0  0  0  0  0  0  0  0  0  0  0
  -30.8202  -19.1870   20.4104 C   0  0  0  0  0  0  0  0  0  0  0  0
  -25.7357  -16.1612   23.3875 C   0  0  0  0  0  0  0  0  0  0  0  0
  -27.5836  -17.8476   23.4848 C   0  0  0  0  0  0  0  0  0  0  0  0
  -28.1156  -15.4361   23.1328 C   0  0  0  0  0  0  0  0  0  0  0  0
  -29.1881  -18.4132   17.0617 C   0  0  0  0  0  0  0  0  0  0  0  0
  -16.4116  -23.0424   19.1035 C   0  0  0  0  0  0  0  0  0  0  0  0
  -20.0755  -19.4847   16.5872 C   0  0  0  0  0  0  0  0  0  1  0  0
  -27.0614  -16.7598   21.2544 C   0  0  1  0  0  0  0  0  0  0  0  0
  -29.9575  -18.3978   19.4380 C   0  0  2  0  0  0  0  0  0  0  0  0
  -27.1040  -16.5528   22.7947 C   0  0  0  0  0  0  0  0  0  0  0  0
  -25.1366  -28.1840   21.4932 N   0  0  0  0  0  0  0  0  0  0  0  0
  -24.2984  -29.2329   21.5504 N   0  0  0  0  0  0  0  0  0  0  0  0
  -17.1358  -21.9709   18.4405 N   0  0  0  0  0  0  0  0  0  0  0  0
  -25.4133  -15.6866   19.7523 N   0  0  0  0  0  0  0  0  0  0  0  0
  -21.2702  -27.6345   23.2412 N   0  0  0  0  0  0  0  0  0  0  0  0
  -23.9807  -31.4424   20.7580 N   0  0  0  0  0  0  0  0  0  0  0  0
  -26.4545  -30.6836   17.9835 N   0  0  0  0  0  0  0  0  0  0  0  0
  -19.9232  -26.8760   21.4600 N   0  0  0  0  0  0  0  0  0  0  0  0
  -23.9072  -12.8225   20.6999 N   0  0  0  0  0  0  0  0  0  0  0  0
  -28.3492  -17.1049   20.6620 N   0  0  0  0  0  0  0  0  0  0  0  0
  -29.9779  -19.0935   18.1202 N   0  3  0  0  0  0  0  0  0  0  0  0
  -16.3061  -22.4218   16.3060 O   0  0  0  0  0  0  0  0  0  0  0  0
  -27.6083  -31.4859   19.7956 O   0  0  0  0  0  0  0  0  0  0  0  0
  -22.7605  -14.8210   20.3628 O   0  0  0  0  0  0  0  0  0  0  0  0
  -27.2067  -14.4778   20.6235 O   0  0  0  0  0  0  0  0  0  0  0  0
  -27.6686  -19.1151   19.7275 O   0  0  0  0  0  0  0  0  0  0  0  0
  -19.0222  -27.2087   23.5717 O   0  0  0  0  0  0  0  0  0  0  0  0
  -30.4286  -25.2845   19.4598 O   0  0  0  0  0  0  0  0  0  0  0  0
  -21.3767  -19.5691   17.1669 O   0  0  0  0  0  0  0  0  0  1  0  0
  -30.5491  -22.9975   14.4440 F   0  0  0  0  0  0  0  0  0  0  0  0
  -30.4348  -22.5370   19.1536 F   0  0  0  0  0  0  0  0  0  0  0  0
  1  2  1  0  0  0  0
  1  5  2  0  0  0  0
  2  6  2  0  0  0  0
  3 10  2  0  0  0  0
  3 18  1  0  0  0  0
  4 11  1  0  0  0  0
  4 18  2  0  0  0  0
  5 20  1  0  0  0  0
  6 22  1  0  0  0  0
  7 12  2  0  0  0  0
  7 21  1  0  0  0  0
  8  9  2  0  0  0  0
  8 24  1  0  0  0  0
  9 26  1  0  0  0  0
 10 27  1  0  0  0  0
 11 27  2  0  0  0  0
 12 28  1  0  0  0  0
 13 14  2  0  0  0  0
 13 29  1  0  0  0  0
 14 30  1  0  0  0  0
 15 23  1  0  0  0  0
 15 28  2  0  0  0  0
 16 24  2  0  0  0  0
 16 25  1  0  0  0  0
 17 30  2  0  0  0  0
 17 31  1  0  0  0  0
 18 32  1  0  0  0  0
 19 32  1  0  0  0  0
 19 33  2  0  0  0  0
 19 35  1  0  0  0  0
 20 22  2  0  0  0  0
 20 40  1  0  0  0  0
 21 23  2  0  0  0  0
 21 41  1  0  0  0  0
 22 52  1  0  0  0  0
 23 42  1  0  0  0  0
 24 62  1  0  0  0  0
 25 26  2  0  0  0  0
 25 56  1  0  0  0  0
 26 74  1  0  0  0  0
 27 84  1  0  0  0  0
 28 85  1  0  0  0  0
 29 31  2  0  0  0  0
 29 84  1  0  0  0  0
 30 86  1  0  0  0  0
 31 87  1  0  0  0  0
 32 67  2  0  0  0  0
 33 68  1  0  0  0  0
 33 72  1  0  0  0  0
 34 43  1  0  0  0  0
 34 69  1  0  0  0  0
 34 78  2  0  0  0  0
 35 73  1  0  0  0  0
 35 79  2  0  0  0  0
 36 53  1  0  0  0  0
 36 75  1  0  0  0  0
 36 80  2  0  0  0  0
 37 64  1  0  0  0  0
 37 70  1  0  0  0  0
 37 81  2  0  0  0  0
 38 65  1  0  0  0  0
 38 76  1  0  0  0  0
 38 82  2  0  0  0  0
 39 71  1  0  0  0  0
 39 74  1  0  0  0  0
 39 83  2  0  0  0  0
 40 44  1  0  0  0  0
 41 53  1  0  0  0  0
 42 70  1  0  0  0  0
 43 54  1  0  0  0  0
 44 46  1  0  0  0  0
 45 47  1  0  0  0  0
 45 49  1  0  0  0  0
 46 52  1  0  0  0  0
 47 55  1  0  0  0  0
 48 50  1  0  0  0  0
 48 54  1  0  0  0  0
 49 71  1  0  0  0  0
 50 69  1  0  0  0  0
 51 55  1  0  0  0  0
 51 71  1  0  0  0  0
 52 75  1  0  0  0  0
 53 70  1  0  0  0  0
 54 63  1  0  0  0  0
 55 68  1  0  0  0  0
 57 65  1  0  0  0  0
 58 66  1  0  0  0  0
 59 66  1  0  0  0  0
 60 66  1  0  0  0  0
 61 77  1  0  0  0  0
 62 69  1  0  0  0  0
 63 85  1  0  0  0  0
 64 66  1  0  0  0  0
 64 76  1  0  0  0  0
 65 77  1  0  0  0  0
 67 68  1  0  0  0  0
M  CHG  1  77   1
M  ISO  4  39 100  63 101  74 100  85 101
M  END
> <Batch ID>
0052

> <Smiles>
CNC(C)C(=O)NC(C(=O)N1Cc2cc([101O:1][101CH2:1]C3CCN(Cc4ccc([100NH:0][100C:0](=O)N5CCCC(n6nc(-c7ccc(Oc8ccc(F)cc8F)cc7)c(C(N)=O)c6N)C5)c(C)c4)C(=O)C3)ccc2CC1C(=O)NC1CCCc2ccccc21)C(C)(C)C

> <Shape>
0.254

> <Color>
0.058

> <Negative vol penalty>
0.000

$$$$

  -OEChem-04042322403D

 87 95  0     1  0  0  0  0  0999 V2000
  -15.2525  -23.3302   23.1933 C   0  0  0  0  0  0  0  0  0  0  0  0
  -16.2795  -23.0264   22.3054 C   0  0  0  0  0  0  0  0  0  0  0  0
  -23.0737   -9.8702   19.9407 C   0  0  0  0  0  0  0  0  0  0  0  0
  -23.8314   -9.8771   22.2349 C   0  0  0  0  0  0  0  0  0  0  0  0
  -15.4751  -23.2535   24.5675 C   0  0  0  0  0  0  0  0  0  0  0  0
  -17.5302  -22.6468   22.7914 C   0  0  0  0  0  0  0  0  0  0  0  0
  -21.3851  -18.6062   20.2776 C   0  0  0  0  0  0  0  0  0  0  0  0
  -22.3287   -8.7177   20.1902 C   0  0  0  0  0  0  0  0  0  0  0  0
  -23.0863   -8.7246   22.4844 C   0  0  0  0  0  0  0  0  0  0  0  0
  -22.5115  -18.7612   19.4708 C   0  0  0  0  0  0  0  0  0  0  0  0
  -19.3784   -7.9237   21.6388 C   0  0  0  0  0  0  0  0  0  0  0  0
  -18.0720   -7.8784   21.1522 C   0  0  0  0  0  0  0  0  0  0  0  0
  -23.9218  -18.6177   21.4227 C   0  0  0  0  0  0  0  0  0  0  0  0
  -30.2387  -19.2002   22.6739 C   0  0  0  0  0  0  0  0  0  0  0  0
  -30.7743  -19.1473   20.3186 C   0  0  0  0  0  0  0  0  0  0  0  0
  -18.6315   -5.9346   19.8310 C   0  0  0  0  0  0  0  0  0  0  0  0
  -23.8251  -10.4499   20.9631 C   0  0  0  0  0  0  0  0  0  0  0  0
  -24.1691  -12.9748   20.8428 C   0  0  0  0  0  0  0  0  0  0  0  0
  -16.7263  -22.8634   25.0705 C   0  0  0  0  0  0  0  0  0  0  0  0
  -21.5181  -18.4666   21.6665 C   0  0  0  0  0  0  0  0  0  0  0  0
  -17.7701  -22.5661   24.1736 C   0  0  0  0  0  0  0  0  0  0  0  0
  -22.7956  -18.4586   22.2446 C   0  0  0  0  0  0  0  0  0  0  0  0
  -30.0698  -17.8156   22.6666 C   0  0  0  0  0  0  0  0  0  0  0  0
  -30.6054  -17.7627   20.3113 C   0  0  0  0  0  0  0  0  0  0  0  0
  -30.2532  -17.0969   21.4853 C   0  0  0  0  0  0  0  0  0  0  0  0
  -22.3350   -8.1449   21.4620 C   0  0  0  0  0  0  0  0  0  0  0  0
  -23.7800  -18.7698   20.0436 C   0  0  0  0  0  0  0  0  0  0  0  0
  -20.3115   -6.9745   21.2214 C   0  0  0  0  0  0  0  0  0  0  0  0
  -17.6985   -6.8838   20.2484 C   0  0  0  0  0  0  0  0  0  0  0  0
  -19.9380   -5.9800   20.3175 C   0  0  0  0  0  0  0  0  0  0  0  0
  -30.5909  -19.8661   21.4999 C   0  0  0  0  0  0  0  0  0  0  0  0
  -24.5954  -11.6401   20.7058 C   0  0  0  0  0  0  0  0  0  0  0  0
  -25.2621  -13.7233   20.4804 C   0  0  0  0  0  0  0  0  0  0  0  0
  -28.1737  -18.1682   18.6607 C   0  0  0  0  0  0  0  0  0  0  0  0
  -27.2207  -19.0845   18.8822 C   0  0  0  0  0  0  0  0  0  0  0  0
  -22.8986  -13.4917   21.2603 C   0  0  0  0  0  0  0  0  0  0  0  0
  -29.2203  -18.4172   17.6277 C   0  0  0  0  0  0  0  0  0  0  0  0
  -20.5589  -20.1422   24.1915 C   0  0  0  0  0  0  0  0  0  0  0  0
  -21.7773  -17.6254   25.8358 C   0  0  0  0  0  0  0  0  0  0  0  0
  -24.2468  -15.0623   26.4269 C   0  0  0  0  0  0  0  0  0  0  0  0
  -30.7290  -14.7647   20.6603 C   0  0  0  0  0  0  0  0  0  0  0  0
  -16.9332  -22.8408   26.5642 C   0  0  0  0  0  0  0  0  0  0  0  0
  -20.2947  -18.2736   22.5199 C   0  0  0  0  0  0  0  0  0  0  0  0
  -22.9936  -18.2918   23.7283 C   0  0  0  0  0  0  0  0  0  0  0  0
  -18.1772  -22.0681   26.9952 C   0  0  0  0  0  0  0  0  0  0  0  0
  -29.6150  -12.3512   18.2915 C   0  0  0  0  0  0  0  0  0  0  0  0
  -19.3752  -22.4643   26.1381 C   0  0  0  0  0  0  0  0  0  0  0  0
  -28.1747  -12.0608   18.7197 C   0  0  0  0  0  0  0  0  0  0  0  0
  -30.5291  -12.5795   19.4940 C   0  0  0  0  0  0  0  0  0  0  0  0
  -28.6214  -13.3058   20.8732 C   0  0  0  0  0  0  0  0  0  0  0  0
  -19.1334  -22.1265   24.6620 C   0  0  1  0  0  0  0  0  0  0  0  0
  -20.5183  -18.6552   23.9800 C   0  0  1  0  0  0  0  0  0  0  0  0
  -27.6496  -13.1330   19.6944 C   0  0  2  0  0  0  0  0  0  0  0  0
  -29.6921  -17.1304   23.9400 C   0  0  0  0  0  0  0  0  0  0  0  0
  -24.3351  -13.2508   28.1613 C   0  0  0  0  0  0  0  0  0  0  0  0
  -23.4384  -19.6299   27.4272 C   0  0  0  0  0  0  0  0  0  0  0  0
  -24.8674  -17.7255   28.2014 C   0  0  0  0  0  0  0  0  0  0  0  0
  -22.4441  -17.7838   28.7902 C   0  0  0  0  0  0  0  0  0  0  0  0
  -31.5508  -18.0547   16.9104 C   0  0  0  0  0  0  0  0  0  0  0  0
  -24.5306  -12.9500   24.3734 C   0  0  0  0  0  0  0  0  0  0  0  0
  -30.8096  -17.0167   19.0244 C   0  0  0  0  0  0  0  0  0  0  0  0
  -26.1497  -18.9211   19.9119 C   0  0  0  0  0  0  0  0  0  1  0  0
  -23.1293  -17.2771   26.4100 C   0  0  1  0  0  0  0  0  0  0  0  0
  -23.9828  -13.5970   26.7229 C   0  0  2  0  0  0  0  0  0  0  0  0
  -23.4663  -18.1092   27.6794 C   0  0  0  0  0  0  0  0  0  0  0  0
  -25.8606  -11.5432   20.2888 N   0  0  0  0  0  0  0  0  0  0  0  0
  -26.2386  -12.8265   20.1605 N   0  0  0  0  0  0  0  0  0  0  0  0
  -21.7661  -18.1127   24.5212 N   0  0  0  0  0  0  0  0  0  0  0  0
  -29.9701  -13.6110   20.3706 N   0  0  0  0  0  0  0  0  0  0  0  0
  -25.4737  -15.0546   20.4073 N   0  0  0  0  0  0  0  0  0  0  0  0
  -21.8856  -12.5834   21.5968 N   0  0  0  0  0  0  0  0  0  0  0  0
  -30.0815  -15.6904   21.4778 N   0  0  0  0  0  0  0  0  0  0  0  0
  -19.3221  -20.7105   24.4300 N   0  0  0  0  0  0  0  0  0  0  0  0
  -23.1217  -15.8343   26.6258 N   0  0  0  0  0  0  0  0  0  0  0  0
  -30.4680  -17.8313   17.8598 N   0  0  0  0  0  0  0  0  0  0  0  0
  -24.7928  -12.7319   25.8194 N   0  3  0  0  0  0  0  0  0  0  0  0
  -22.6632  -14.7225   21.3172 O   0  0  0  0  0  0  0  0  0  0  0  0
  -28.9619  -19.1269   16.6545 O   0  0  0  0  0  0  0  0  0  0  0  0
  -21.6330  -20.7302   24.1435 O   0  0  0  0  0  0  0  0  0  0  0  0
  -20.7675  -17.4641   26.5258 O   0  0  0  0  0  0  0  0  0  0  0  0
  -25.3425  -15.4808   26.0597 O   0  0  0  0  0  0  0  0  0  0  0  0
  -31.8587  -14.9324   20.1938 O   0  0  0  0  0  0  0  0  0  0  0  0
  -21.6079   -7.0204   21.7059 O   0  0  0  0  0  0  0  0  0  0  0  0
  -24.8811  -18.9215   19.2585 O   0  0  0  0  0  0  0  0  0  1  0  0
  -16.4435   -6.8395   19.7824 F   0  0  0  0  0  0  0  0  0  0  0  0
  -20.8296   -5.0646   19.9138 F   0  0  0  0  0  0  0  0  0  0  0  0
  -30.7994  -21.5745   21.5089 Cl  0  0  0  0  0  0  0  0  0  0  0  0
  1  2  1  0  0  0  0
  1  5  2  0  0  0  0
  2  6  2  0  0  0  0
  3  8  2  0  0  0  0
  3 17  1  0  0  0  0
  4  9  1  0  0  0  0
  4 17  2  0  0  0  0
  5 19  1  0  0  0  0
  6 21  1  0  0  0  0
  7 10  2  0  0  0  0
  7 20  1  0  0  0  0
  8 26  1  0  0  0  0
  9 26  2  0  0  0  0
 10 27  1  0  0  0  0
 11 12  2  0  0  0  0
 11 28  1  0  0  0  0
 12 29  1  0  0  0  0
 13 22  1  0  0  0  0
 13 27  2  0  0  0  0
 14 23  2  0  0  0  0
 14 31  1  0  0  0  0
 15 24  1  0  0  0  0
 15 31  2  0  0  0  0
 16 29  2  0  0  0  0
 16 30  1  0  0  0  0
 17 32  1  0  0  0  0
 18 32  1  0  0  0  0
 18 33  2  0  0  0  0
 18 36  1  0  0  0  0
 19 21  2  0  0  0  0
 19 42  1  0  0  0  0
 20 22  2  0  0  0  0
 20 43  1  0  0  0  0
 21 51  1  0  0  0  0
 22 44  1  0  0  0  0
 23 25  1  0  0  0  0
 23 54  1  0  0  0  0
 24 25  2  0  0  0  0
 24 61  1  0  0  0  0
 25 72  1  0  0  0  0
 26 83  1  0  0  0  0
 27 84  1  0  0  0  0
 28 30  2  0  0  0  0
 28 83  1  0  0  0  0
 29 85  1  0  0  0  0
 30 86  1  0  0  0  0
 31 87  1  0  0  0  0
 32 66  2  0  0  0  0
 33 67  1  0  0  0  0
 33 70  1  0  0  0  0
 34 35  2  0  0  0  0
 34 37  1  0  0  0  0
 35 62  1  0  0  0  0
 36 71  1  0  0  0  0
 36 77  2  0  0  0  0
 37 75  1  0  0  0  0
 37 78  2  0  0  0  0
 38 52  1  0  0  0  0
 38 73  1  0  0  0  0
 38 79  2  0  0  0  0
 39 63  1  0  0  0  0
 39 68  1  0  0  0  0
 39 80  2  0  0  0  0
 40 64  1  0  0  0  0
 40 74  1  0  0  0  0
 40 81  2  0  0  0  0
 41 69  1  0  0  0  0
 41 72  1  0  0  0  0
 41 82  2  0  0  0  0
 42 45  1  0  0  0  0
 43 52  1  0  0  0  0
 44 68  1  0  0  0  0
 45 47  1  0  0  0  0
 46 48  1  0  0  0  0
 46 49  1  0  0  0  0
 47 51  1  0  0  0  0
 48 53  1  0  0  0  0
 49 69  1  0  0  0  0
 50 53  1  0  0  0  0
 50 69  1  0  0  0  0
 51 73  1  0  0  0  0
 52 68  1  0  0  0  0
 53 67  1  0  0  0  0
 55 64  1  0  0  0  0
 56 65  1  0  0  0  0
 57 65  1  0  0  0  0
 58 65  1  0  0  0  0
 59 75  1  0  0  0  0
 60 76  1  0  0  0  0
 61 75  1  0  0  0  0
 62 84  1  0  0  0  0
 63 65  1  0  0  0  0
 63 74  1  0  0  0  0
 64 76  1  0  0  0  0
 66 67  1  0  0  0  0
M  CHG  1  76   1
M  ISO  4  41 100  62 101  72 100  84 101
M  END
> <Batch ID>
0052

> <Smiles>
CNC(C)C(=O)NC(C(=O)N1Cc2cc([101O:1][101CH2:1]C=CC(=O)N(C)Cc3cc(Cl)cc(C)c3[100NH:0][100C:0](=O)N3CCCC(n4nc(-c5ccc(Oc6ccc(F)cc6F)cc5)c(C(N)=O)c4N)C3)ccc2CC1C(=O)NC1CCCc2ccccc21)C(C)(C)C

> <Shape>
0.178

> <Color>
0.196

> <Negative vol penalty>
0.000

$$$$

  -OEChem-04042322403D

 83 91  0     1  0  0  0  0  0999 V2000
  -25.9467  -17.2247   12.2546 C   0  0  0  0  0  0  0  0  0  0  0  0
  -26.8948  -16.9628   13.2385 C   0  0  0  0  0  0  0  0  0  0  0  0
  -26.2117  -28.0818   18.9304 C   0  0  0  0  0  0  0  0  0  0  0  0
  -26.4256  -27.8458   21.3253 C   0  0  0  0  0  0  0  0  0  0  0  0
  -24.6399  -17.5492   12.6162 C   0  0  0  0  0  0  0  0  0  0  0  0
  -26.5368  -17.0263   14.5846 C   0  0  0  0  0  0  0  0  0  0  0  0
  -28.6756  -13.5261   19.1321 C   0  0  0  0  0  0  0  0  0  0  0  0
  -29.2634  -20.0631   25.7559 C   0  0  0  0  0  0  0  0  0  0  0  0
  -28.5556  -20.6071   24.6842 C   0  0  0  0  0  0  0  0  0  0  0  0
  -25.2513  -29.0766   19.1142 C   0  0  0  0  0  0  0  0  0  0  0  0
  -25.4653  -28.8407   21.5091 C   0  0  0  0  0  0  0  0  0  0  0  0
  -29.6606  -13.7387   20.0957 C   0  0  0  0  0  0  0  0  0  0  0  0
  -22.8095  -31.0648   22.6089 C   0  0  0  0  0  0  0  0  0  0  0  0
  -21.8130  -30.8366   23.5578 C   0  0  0  0  0  0  0  0  0  0  0  0
  -29.1547  -18.7035   23.3223 C   0  0  0  0  0  0  0  0  0  0  0  0
  -27.9657  -14.4282   21.6676 C   0  0  0  0  0  0  0  0  0  0  0  0
  -21.0996  -28.8773   22.3373 C   0  0  0  0  0  0  0  0  0  0  0  0
  -26.7988  -27.4664   20.0359 C   0  0  0  0  0  0  0  0  0  0  0  0
  -29.8625  -18.1595   24.3941 C   0  0  0  0  0  0  0  0  0  0  0  0
  -29.1835  -26.6104   19.7394 C   0  0  0  0  0  0  0  0  0  0  0  0
  -24.2633  -17.6073   13.9673 C   0  0  0  0  0  0  0  0  0  0  0  0
  -27.3271  -13.7739   19.4262 C   0  0  0  0  0  0  0  0  0  0  0  0
  -25.2240  -17.3533   14.9647 C   0  0  0  0  0  0  0  0  0  0  0  0
  -26.9652  -14.2156   20.7068 C   0  0  0  0  0  0  0  0  0  0  0  0
  -29.9169  -18.8393   25.6109 C   0  0  0  0  0  0  0  0  0  0  0  0
  -28.5012  -19.9273   23.4674 C   0  0  0  0  0  0  0  0  0  0  0  0
  -24.8782  -29.4560   20.4035 C   0  0  0  0  0  0  0  0  0  0  0  0
  -29.3060  -14.1926   21.3627 C   0  0  0  0  0  0  0  0  0  0  0  0
  -22.9510  -30.1994   21.5241 C   0  0  0  0  0  0  0  0  0  0  0  0
  -20.9580  -29.7428   23.4221 C   0  0  0  0  0  0  0  0  0  0  0  0
  -22.0960  -29.1056   21.3884 C   0  0  0  0  0  0  0  0  0  0  0  0
  -27.7904  -26.4383   19.8467 C   0  0  0  0  0  0  0  0  0  0  0  0
  -29.6746  -25.3388   19.5711 C   0  0  0  0  0  0  0  0  0  0  0  0
  -30.5487  -16.8544   24.2124 C   0  0  0  0  0  0  0  0  0  0  0  0
  -29.9639  -27.8122   19.7876 C   0  0  0  0  0  0  0  0  0  0  0  0
  -25.1098  -15.7484   18.2910 C   0  0  0  0  0  0  0  0  0  0  0  0
  -23.1657  -14.0881   20.2876 C   0  0  0  0  0  0  0  0  0  0  0  0
  -22.8543  -12.1462   23.0766 C   0  0  0  0  0  0  0  0  0  0  0  0
  -27.6302  -19.9372   21.1036 C   0  0  0  0  0  0  0  0  0  0  0  0
  -22.8505  -18.0086   14.3105 C   0  0  0  0  0  0  0  0  0  0  0  0
  -26.2739  -13.5141   18.3842 C   0  0  0  0  0  0  0  0  0  0  0  0
  -25.5295  -14.4771   21.0792 C   0  0  0  0  0  0  0  0  0  0  0  0
  -22.4591  -17.6880   15.7507 C   0  0  0  0  0  0  0  0  0  0  0  0
  -28.4489  -21.0521   17.8228 C   0  0  0  0  0  0  0  0  0  0  0  0
  -23.5560  -18.1315   16.7134 C   0  0  0  0  0  0  0  0  0  0  0  0
  -28.5057  -22.5752   17.9611 C   0  0  0  0  0  0  0  0  0  0  0  0
  -27.3458  -20.4448   18.6877 C   0  0  0  0  0  0  0  0  0  0  0  0
  -27.4412  -22.3535   20.2425 C   0  0  0  0  0  0  0  0  0  0  0  0
  -24.8680  -17.3879   16.4351 C   0  0  1  0  0  0  0  0  0  0  0  0
  -24.9842  -14.2904   18.6317 C   0  0  1  0  0  0  0  0  0  0  0  0
  -28.5793  -23.0044   19.4396 C   0  0  2  0  0  0  0  0  0  0  0  0
  -30.6677  -18.2793   26.7748 C   0  0  0  0  0  0  0  0  0  0  0  0
  -21.1349  -10.9729   24.4781 C   0  0  0  0  0  0  0  0  0  0  0  0
  -22.3239  -16.7632   21.4898 C   0  0  0  0  0  0  0  0  0  0  0  0
  -21.3841  -15.5103   23.4431 C   0  0  0  0  0  0  0  0  0  0  0  0
  -20.4555  -15.1341   21.1587 C   0  0  0  0  0  0  0  0  0  0  0  0
  -24.0793   -9.4999   22.5711 C   0  0  0  0  0  0  0  0  0  0  0  0
  -32.2540  -15.6107   22.9083 C   0  0  0  0  0  0  0  0  0  0  0  0
  -31.5592  -14.7849   21.8404 C   0  0  0  0  0  0  0  0  0  1  0  0
  -22.7451  -14.2273   21.7307 C   0  0  1  0  0  0  0  0  0  0  0  0
  -22.1121  -10.8445   23.3199 C   0  0  2  0  0  0  0  0  0  0  0  0
  -21.7545  -15.4057   21.9483 C   0  0  0  0  0  0  0  0  0  0  0  0
  -27.4203  -25.1583   19.7542 N   0  0  0  0  0  0  0  0  0  0  0  0
  -28.5881  -24.5145   19.5868 N   0  0  0  0  0  0  0  0  0  0  0  0
  -24.5370  -14.2143   20.0240 N   0  0  0  0  0  0  0  0  0  0  0  0
  -27.4819  -20.8922   20.0756 N   0  0  0  0  0  0  0  0  0  0  0  0
  -30.9254  -24.8565   19.4125 N   0  0  0  0  0  0  0  0  0  0  0  0
  -29.2998  -29.0334   19.9665 N   0  0  0  0  0  0  0  0  0  0  0  0
  -27.7838  -20.4814   22.3783 N   0  0  0  0  0  0  0  0  0  0  0  0
  -31.5200  -16.8082   23.2202 N   0  0  0  0  0  0  0  0  0  0  0  0
  -24.8128  -16.0462   16.9748 N   0  0  0  0  0  0  0  0  0  0  0  0
  -22.2222  -12.9255   22.1309 N   0  0  0  0  0  0  0  0  0  0  0  0
  -23.0740   -9.7509   23.6357 N   0  3  0  0  0  0  0  0  0  0  0  0
  -30.2198  -15.9010   24.9133 O   0  0  0  0  0  0  0  0  0  0  0  0
  -31.2117  -27.8051   19.6590 O   0  0  0  0  0  0  0  0  0  0  0  0
  -25.4496  -16.5445   19.1585 O   0  0  0  0  0  0  0  0  0  0  0  0
  -22.3099  -13.8682   19.4268 O   0  0  0  0  0  0  0  0  0  0  0  0
  -23.8892  -12.4437   23.6691 O   0  0  0  0  0  0  0  0  0  0  0  0
  -27.6488  -18.7266   20.8669 O   0  0  0  0  0  0  0  0  0  0  0  0
  -23.9413  -30.4269   20.5833 O   0  0  0  0  0  0  0  0  0  0  0  0
  -30.2655  -14.4015   22.3048 O   0  0  0  0  0  0  0  0  0  1  0  0
  -20.0021  -29.5229   24.3342 F   0  0  0  0  0  0  0  0  0  0  0  0
  -22.2279  -28.2700   20.3490 F   0  0  0  0  0  0  0  0  0  0  0  0
  1  2  1  0  0  0  0
  1  5  2  0  0  0  0
  2  6  2  0  0  0  0
  3 10  2  0  0  0  0
  3 18  1  0  0  0  0
  4 11  1  0  0  0  0
  4 18  2  0  0  0  0
  5 21  1  0  0  0  0
  6 23  1  0  0  0  0
  7 12  2  0  0  0  0
  7 22  1  0  0  0  0
  8  9  2  0  0  0  0
  8 25  1  0  0  0  0
  9 26  1  0  0  0  0
 10 27  1  0  0  0  0
 11 27  2  0  0  0  0
 12 28  1  0  0  0  0
 13 14  2  0  0  0  0
 13 29  1  0  0  0  0
 14 30  1  0  0  0  0
 15 19  1  0  0  0  0
 15 26  2  0  0  0  0
 16 24  1  0  0  0  0
 16 28  2  0  0  0  0
 17 30  2  0  0  0  0
 17 31  1  0  0  0  0
 18 32  1  0  0  0  0
 19 25  2  0  0  0  0
 19 34  1  0  0  0  0
 20 32  1  0  0  0  0
 20 33  2  0  0  0  0
 20 35  1  0  0  0  0
 21 23  2  0  0  0  0
 21 40  1  0  0  0  0
 22 24  2  0  0  0  0
 22 41  1  0  0  0  0
 23 49  1  0  0  0  0
 24 42  1  0  0  0  0
 25 52  1  0  0  0  0
 26 69  1  0  0  0  0
 27 80  1  0  0  0  0
 28 81  1  0  0  0  0
 29 31  2  0  0  0  0
 29 80  1  0  0  0  0
 30 82  1  0  0  0  0
 31 83  1  0  0  0  0
 32 63  2  0  0  0  0
 33 64  1  0  0  0  0
 33 67  1  0  0  0  0
 34 70  1  0  0  0  0
 34 74  2  0  0  0  0
 35 68  1  0  0  0  0
 35 75  2  0  0  0  0
 36 50  1  0  0  0  0
 36 71  1  0  0  0  0
 36 76  2  0  0  0  0
 37 60  1  0  0  0  0
 37 65  1  0  0  0  0
 37 77  2  0  0  0  0
 38 61  1  0  0  0  0
 38 72  1  0  0  0  0
 38 78  2  0  0  0  0
 39 66  1  0  0  0  0
 39 69  1  0  0  0  0
 39 79  2  0  0  0  0
 40 43  1  0  0  0  0
 41 50  1  0  0  0  0
 42 65  1  0  0  0  0
 43 45  1  0  0  0  0
 44 46  1  0  0  0  0
 44 47  1  0  0  0  0
 45 49  1  0  0  0  0
 46 51  1  0  0  0  0
 47 66  1  0  0  0  0
 48 51  1  0  0  0  0
 48 66  1  0  0  0  0
 49 71  1  0  0  0  0
 50 65  1  0  0  0  0
 51 64  1  0  0  0  0
 53 61  1  0  0  0  0
 54 62  1  0  0  0  0
 55 62  1  0  0  0  0
 56 62  1  0  0  0  0
 57 73  1  0  0  0  0
 58 59  1  0  0  0  0
 58 70  1  0  0  0  0
 59 81  1  0  0  0  0
 60 62  1  0  0  0  0
 60 72  1  0  0  0  0
 61 73  1  0  0  0  0
 63 64  1  0  0  0  0
M  CHG  1  73   1
M  ISO  4  39 100  59 101  69 100  81 101
M  END
> <Batch ID>
0052

> <Smiles>
CNC(C)C(=O)NC(C(=O)N1Cc2cc([101O:1][101CH2:1]CNC(=O)c3cc([100NH:0][100C:0](=O)N4CCCC(n5nc(-c6ccc(Oc7ccc(F)cc7F)cc6)c(C(N)=O)c5N)C4)ccc3C)ccc2CC1C(=O)NC1CCCc2ccccc21)C(C)(C)C

> <Shape>
0.231

> <Color>
0.056

> <Negative vol penalty>
0.000

$$$$

  -OEChem-04042322403D

 85 93  0     1  0  0  0  0  0999 V2000
  -23.5354   -8.0155   21.6655 C   0  0  0  0  0  0  0  0  0  0  0  0
  -24.4118   -9.0532   21.3645 C   0  0  0  0  0  0  0  0  0  0  0  0
  -21.2006  -28.2929   19.4986 C   0  0  0  0  0  0  0  0  0  0  0  0
  -22.0404  -26.6125   21.0178 C   0  0  0  0  0  0  0  0  0  0  0  0
  -22.1595   -8.2405   21.6518 C   0  0  0  0  0  0  0  0  0  0  0  0
  -23.9126  -10.3163   21.0486 C   0  0  0  0  0  0  0  0  0  0  0  0
  -26.4450  -15.7227   22.4139 C   0  0  0  0  0  0  0  0  0  0  0  0
  -29.1336  -22.8822   22.3222 C   0  0  0  0  0  0  0  0  0  0  0  0
  -20.0224  -27.5628   19.3423 C   0  0  0  0  0  0  0  0  0  0  0  0
  -20.8622  -25.8823   20.8615 C   0  0  0  0  0  0  0  0  0  0  0  0
  -27.2288  -16.6054   21.6722 C   0  0  0  0  0  0  0  0  0  0  0  0
  -17.9274  -23.7550   21.1429 C   0  0  0  0  0  0  0  0  0  0  0  0
  -17.3277  -23.2366   22.2906 C   0  0  0  0  0  0  0  0  0  0  0  0
  -29.6028  -23.2791   23.5743 C   0  0  0  0  0  0  0  0  0  0  0  0
  -25.2565  -17.8760   21.1113 C   0  0  0  0  0  0  0  0  0  0  0  0
  -30.7188  -25.1657   22.5581 C   0  0  0  0  0  0  0  0  0  0  0  0
  -17.0905  -25.4718   23.1763 C   0  0  0  0  0  0  0  0  0  0  0  0
  -22.2096  -27.8177   20.3364 C   0  0  0  0  0  0  0  0  0  0  0  0
  -23.6889  -29.5683   21.4564 C   0  0  0  0  0  0  0  0  0  0  0  0
  -21.6436   -9.5094   21.3451 C   0  0  0  0  0  0  0  0  0  0  0  0
  -25.0572  -15.9041   22.5011 C   0  0  0  0  0  0  0  0  0  0  0  0
  -22.5285  -10.5581   21.0295 C   0  0  0  0  0  0  0  0  0  0  0  0
  -24.4576  -16.9957   21.8569 C   0  0  0  0  0  0  0  0  0  0  0  0
  -29.4570  -23.6270   21.1880 C   0  0  0  0  0  0  0  0  0  0  0  0
  -30.2496  -24.7687   21.3060 C   0  0  0  0  0  0  0  0  0  0  0  0
  -19.8532  -26.3576   20.0237 C   0  0  0  0  0  0  0  0  0  0  0  0
  -26.6343  -17.6806   21.0183 C   0  0  0  0  0  0  0  0  0  0  0  0
  -18.1087  -25.1318   21.0119 C   0  0  0  0  0  0  0  0  0  0  0  0
  -16.9092  -24.0950   23.3073 C   0  0  0  0  0  0  0  0  0  0  0  0
  -17.6902  -25.9902   22.0286 C   0  0  0  0  0  0  0  0  0  0  0  0
  -30.3954  -24.4208   23.6923 C   0  0  0  0  0  0  0  0  0  0  0  0
  -23.4271  -28.5712   20.4978 C   0  0  0  0  0  0  0  0  0  0  0  0
  -24.9753  -29.9702   21.1913 C   0  0  0  0  0  0  0  0  0  0  0  0
  -22.8449  -30.0850   22.4939 C   0  0  0  0  0  0  0  0  0  0  0  0
  -22.5141  -14.2021   21.6413 C   0  0  0  0  0  0  0  0  0  0  0  0
  -20.9028  -16.5494   23.1958 C   0  0  0  0  0  0  0  0  0  0  0  0
  -28.1343  -20.8204   20.0655 C   0  0  0  0  0  0  0  0  0  0  0  0
  -20.8478  -19.7715   24.3190 C   0  0  0  0  0  0  0  0  0  0  0  0
  -29.6328  -27.2694   18.5713 C   0  0  0  0  0  0  0  0  0  0  0  0
  -20.1473   -9.6924   21.2968 C   0  0  0  0  0  0  0  0  0  0  0  0
  -24.2292  -14.9584   23.3272 C   0  0  0  0  0  0  0  0  0  0  0  0
  -22.9746  -17.2464   21.9358 C   0  0  0  0  0  0  0  0  0  0  0  0
  -19.7115  -11.1553   21.3180 C   0  0  0  0  0  0  0  0  0  0  0  0
  -28.1174  -30.3421   17.6025 C   0  0  0  0  0  0  0  0  0  0  0  0
  -20.5394  -11.9732   20.3318 C   0  0  0  0  0  0  0  0  0  0  0  0
  -26.7671  -30.3267   18.3212 C   0  0  0  0  0  0  0  0  0  0  0  0
  -28.5203  -28.9476   17.1282 C   0  0  0  0  0  0  0  0  0  0  0  0
  -27.1630  -27.8952   18.8957 C   0  0  0  0  0  0  0  0  0  0  0  0
  -22.0262  -11.9486   20.7062 C   0  0  1  0  0  0  0  0  0  0  0  0
  -22.7578  -14.9447   22.9246 C   0  0  1  0  0  0  0  0  0  0  0  0
  -26.7404  -29.2699   19.4417 C   0  0  2  0  0  0  0  0  0  0  0  0
  -19.3797  -21.4139   25.5209 C   0  0  0  0  0  0  0  0  0  0  0  0
  -19.2410  -16.9138   20.6629 C   0  0  0  0  0  0  0  0  0  0  0  0
  -18.4830  -19.1242   21.5618 C   0  0  0  0  0  0  0  0  0  0  0  0
  -17.9347  -17.0248   22.7926 C   0  0  0  0  0  0  0  0  0  0  0  0
  -26.5241  -22.7327   20.0102 C   0  0  0  0  0  0  0  0  0  0  0  0
  -22.7960  -20.0743   26.5263 C   0  0  0  0  0  0  0  0  0  0  0  0
  -28.9413  -23.1800   19.8506 C   0  0  0  0  0  0  0  0  0  0  0  0
  -30.6100  -25.5810   20.1054 C   0  0  0  0  0  0  0  0  0  0  0  0
  -26.9448  -19.8939   20.2055 C   0  0  0  0  0  0  0  0  0  1  0  0
  -20.3131  -17.8823   22.8027 C   0  0  1  0  0  0  0  0  0  0  0  0
  -20.4692  -20.3628   25.6650 C   0  0  2  0  0  0  0  0  0  0  0  0
  -19.0207  -17.7307   21.9517 C   0  0  0  0  0  0  0  0  0  0  0  0
  -24.4638  -28.3531   19.6843 N   0  0  0  0  0  0  0  0  0  0  0  0
  -25.3895  -29.2189   20.1310 N   0  0  0  0  0  0  0  0  0  0  0  0
  -22.2068  -16.2902   22.7506 N   0  0  0  0  0  0  0  0  0  0  0  0
  -28.4759  -27.9933   18.2388 N   0  0  0  0  0  0  0  0  0  0  0  0
  -25.7811  -30.8896   21.7639 N   0  0  0  0  0  0  0  0  0  0  0  0
  -21.5521  -29.5602   22.6269 N   0  0  0  0  0  0  0  0  0  0  0  0
  -22.2848  -12.8497   21.8087 N   0  0  0  0  0  0  0  0  0  0  0  0
  -20.1280  -18.6284   24.0426 N   0  0  0  0  0  0  0  0  0  0  0  0
  -29.5061  -26.3910   19.6405 N   0  0  0  0  0  0  0  0  0  0  0  0
  -27.8762  -22.1888   19.9790 N   0  0  0  0  0  0  0  0  0  0  0  0
  -21.6557  -21.0000   26.3030 N   0  3  0  0  0  0  0  0  0  0  0  0
  -23.2200  -30.9969   23.2693 O   0  0  0  0  0  0  0  0  0  0  0  0
  -22.5312  -14.8113   20.5781 O   0  0  0  0  0  0  0  0  0  0  0  0
  -20.2339  -15.7700   23.8789 O   0  0  0  0  0  0  0  0  0  0  0  0
  -29.2677  -20.3310   20.0419 O   0  0  0  0  0  0  0  0  0  0  0  0
  -21.6946  -20.2756   23.5845 O   0  0  0  0  0  0  0  0  0  0  0  0
  -30.7009  -27.4003   17.9640 O   0  0  0  0  0  0  0  0  0  0  0  0
  -18.7036  -25.6450   19.8715 O   0  0  0  0  0  0  0  0  0  0  0  0
  -27.3970  -18.5433   20.2931 O   0  0  0  0  0  0  0  0  0  1  0  0
  -16.3319  -23.5971   24.4087 F   0  0  0  0  0  0  0  0  0  0  0  0
  -17.8607  -27.3139   21.9079 F   0  0  0  0  0  0  0  0  0  0  0  0
  -30.9755  -24.9090   25.2369 Cl  0  0  0  0  0  0  0  0  0  0  0  0
  1  2  1  0  0  0  0
  1  5  2  0  0  0  0
  2  6  2  0  0  0  0
  3  9  2  0  0  0  0
  3 18  1  0  0  0  0
  4 10  1  0  0  0  0
  4 18  2  0  0  0  0
  5 20  1  0  0  0  0
  6 22  1  0  0  0  0
  7 11  2  0  0  0  0
  7 21  1  0  0  0  0
  8 14  2  0  0  0  0
  8 24  1  0  0  0  0
  9 26  1  0  0  0  0
 10 26  2  0  0  0  0
 11 27  1  0  0  0  0
 12 13  2  0  0  0  0
 12 28  1  0  0  0  0
 13 29  1  0  0  0  0
 14 31  1  0  0  0  0
 15 23  1  0  0  0  0
 15 27  2  0  0  0  0
 16 25  1  0  0  0  0
 16 31  2  0  0  0  0
 17 29  2  0  0  0  0
 17 30  1  0  0  0  0
 18 32  1  0  0  0  0
 19 32  1  0  0  0  0
 19 33  2  0  0  0  0
 19 34  1  0  0  0  0
 20 22  2  0  0  0  0
 20 40  1  0  0  0  0
 21 23  2  0  0  0  0
 21 41  1  0  0  0  0
 22 49  1  0  0  0  0
 23 42  1  0  0  0  0
 24 25  2  0  0  0  0
 24 58  1  0  0  0  0
 25 59  1  0  0  0  0
 26 81  1  0  0  0  0
 27 82  1  0  0  0  0
 28 30  2  0  0  0  0
 28 81  1  0  0  0  0
 29 83  1  0  0  0  0
 30 84  1  0  0  0  0
 31 85  1  0  0  0  0
 32 64  2  0  0  0  0
 33 65  1  0  0  0  0
 33 68  1  0  0  0  0
 34 69  1  0  0  0  0
 34 75  2  0  0  0  0
 35 50  1  0  0  0  0
 35 70  1  0  0  0  0
 35 76  2  0  0  0  0
 36 61  1  0  0  0  0
 36 66  1  0  0  0  0
 36 77  2  0  0  0  0
 37 60  1  0  0  0  0
 37 73  1  0  0  0  0
 37 78  2  0  0  0  0
 38 62  1  0  0  0  0
 38 71  1  0  0  0  0
 38 79  2  0  0  0  0
 39 67  1  0  0  0  0
 39 72  1  0  0  0  0
 39 80  2  0  0  0  0
 40 43  1  0  0  0  0
 41 50  1  0  0  0  0
 42 66  1  0  0  0  0
 43 45  1  0  0  0  0
 44 46  1  0  0  0  0
 44 47  1  0  0  0  0
 45 49  1  0  0  0  0
 46 51  1  0  0  0  0
 47 67  1  0  0  0  0
 48 51  1  0  0  0  0
 48 67  1  0  0  0  0
 49 70  1  0  0  0  0
 50 66  1  0  0  0  0
 51 65  1  0  0  0  0
 52 62  1  0  0  0  0
 53 63  1  0  0  0  0
 54 63  1  0  0  0  0
 55 63  1  0  0  0  0
 56 73  1  0  0  0  0
 57 74  1  0  0  0  0
 58 73  1  0  0  0  0
 59 72  1  0  0  0  0
 60 82  1  0  0  0  0
 61 63  1  0  0  0  0
 61 71  1  0  0  0  0
 62 74  1  0  0  0  0
 64 65  1  0  0  0  0
M  CHG  1  74   1
M  ISO  4  39 100  60 101  72 100  82 101
M  END
> <Batch ID>
0052

> <Smiles>
CNC(C)C(=O)NC(C(=O)N1Cc2cc([101O:1][101CH2:1]C(=O)N(C)Cc3ccc(Cl)cc3C[100NH:0][100C:0](=O)N3CCCC(n4nc(-c5ccc(Oc6ccc(F)cc6F)cc5)c(C(N)=O)c4N)C3)ccc2CC1C(=O)NC1CCCc2ccccc21)C(C)(C)C

> <Shape>
0.198

> <Color>
0.103

> <Negative vol penalty>
0.000

$$$$

  -OEChem-04042322403D

 87 95  0     1  0  0  0  0  0999 V2000
  -21.8484  -35.7861   21.5205 C   0  0  0  0  0  0  0  0  0  0  0  0
  -22.9730  -35.0218   21.2264 C   0  0  0  0  0  0  0  0  0  0  0  0
  -30.0223  -26.3608   13.3733 C   0  0  0  0  0  0  0  0  0  0  0  0
  -29.5628  -17.4886   20.8394 C   0  0  0  0  0  0  0  0  0  0  0  0
  -31.5629  -18.6413   20.1265 C   0  0  0  0  0  0  0  0  0  0  0  0
  -20.8777  -35.2901   22.3897 C   0  0  0  0  0  0  0  0  0  0  0  0
  -23.1281  -33.7614   21.8023 C   0  0  0  0  0  0  0  0  0  0  0  0
  -25.7044  -28.8333   19.2367 C   0  0  0  0  0  0  0  0  0  0  0  0
  -31.3994  -26.4924   13.5513 C   0  0  0  0  0  0  0  0  0  0  0  0
  -29.2382  -25.8051   14.3843 C   0  0  0  0  0  0  0  0  0  0  0  0
  -30.1942  -16.2628   20.6288 C   0  0  0  0  0  0  0  0  0  0  0  0
  -32.1943  -17.4155   19.9160 C   0  0  0  0  0  0  0  0  0  0  0  0
  -26.9791  -28.2786   19.3430 C   0  0  0  0  0  0  0  0  0  0  0  0
  -30.9487  -14.2681   18.0066 C   0  0  0  0  0  0  0  0  0  0  0  0
  -30.2294  -13.2752   17.3415 C   0  0  0  0  0  0  0  0  0  0  0  0
  -26.1683  -26.7531   21.0266 C   0  0  0  0  0  0  0  0  0  0  0  0
  -30.4388  -11.8327   19.2683 C   0  0  0  0  0  0  0  0  0  0  0  0
  -30.2472  -18.6779   20.5882 C   0  0  0  0  0  0  0  0  0  0  0  0
  -29.5821  -20.7016   21.9916 C   0  0  0  0  0  0  0  0  0  0  0  0
  -21.0162  -34.0190   22.9690 C   0  0  0  0  0  0  0  0  0  0  0  0
  -24.6528  -28.3585   20.0337 C   0  0  0  0  0  0  0  0  0  0  0  0
  -22.1589  -33.2484   22.6811 C   0  0  0  0  0  0  0  0  0  0  0  0
  -24.8806  -27.3017   20.9267 C   0  0  0  0  0  0  0  0  0  0  0  0
  -31.9926  -26.0681   14.7403 C   0  0  0  0  0  0  0  0  0  0  0  0
  -31.2086  -25.5124   15.7514 C   0  0  0  0  0  0  0  0  0  0  0  0
  -29.8314  -25.3809   15.5733 C   0  0  0  0  0  0  0  0  0  0  0  0
  -31.5100  -16.2262   20.1672 C   0  0  0  0  0  0  0  0  0  0  0  0
  -27.2119  -27.2404   20.2402 C   0  0  0  0  0  0  0  0  0  0  0  0
  -31.4132  -14.0433   19.3025 C   0  0  0  0  0  0  0  0  0  0  0  0
  -29.9744  -12.0576   17.9723 C   0  0  0  0  0  0  0  0  0  0  0  0
  -31.1581  -12.8256   19.9334 C   0  0  0  0  0  0  0  0  0  0  0  0
  -29.5953  -19.9444   20.8049 C   0  0  0  0  0  0  0  0  0  0  0  0
  -28.8336  -21.8111   21.6827 C   0  0  0  0  0  0  0  0  0  0  0  0
  -30.1919  -20.4268   23.2598 C   0  0  0  0  0  0  0  0  0  0  0  0
  -22.7777  -29.6296   22.2634 C   0  0  0  0  0  0  0  0  0  0  0  0
  -21.2747  -26.7608   22.0814 C   0  0  0  0  0  0  0  0  0  0  0  0
  -30.9834  -25.6038   19.3005 C   0  0  0  0  0  0  0  0  0  0  0  0
  -21.4434  -23.4472   21.2823 C   0  0  0  0  0  0  0  0  0  0  0  0
  -27.6352  -24.6273   16.5507 C   0  0  0  0  0  0  0  0  0  0  0  0
  -19.9636  -33.5449   23.9395 C   0  0  0  0  0  0  0  0  0  0  0  0
  -23.2774  -28.9495   19.8878 C   0  0  0  0  0  0  0  0  0  0  0  0
  -23.7808  -26.7424   21.7903 C   0  0  0  0  0  0  0  0  0  0  0  0
  -20.0205  -32.0445   24.2149 C   0  0  0  0  0  0  0  0  0  0  0  0
  -25.2690  -23.2465   18.8248 C   0  0  0  0  0  0  0  0  0  0  0  0
  -21.4562  -31.6053   24.4844 C   0  0  0  0  0  0  0  0  0  0  0  0
  -26.1098  -22.3166   19.7026 C   0  0  0  0  0  0  0  0  0  0  0  0
  -25.7448  -23.2399   17.3732 C   0  0  0  0  0  0  0  0  0  0  0  0
  -28.0163  -22.5837   18.0653 C   0  0  0  0  0  0  0  0  0  0  0  0
  -22.3508  -31.8662   23.2666 C   0  0  1  0  0  0  0  0  0  0  0  0
  -22.4008  -28.7337   21.1176 C   0  0  1  0  0  0  0  0  0  0  0  0
  -27.6158  -22.6063   19.5495 C   0  0  2  0  0  0  0  0  0  0  0  0
  -20.6397  -21.1020   20.8934 C   0  0  0  0  0  0  0  0  0  0  0  0
  -21.6249  -26.5265   25.1034 C   0  0  0  0  0  0  0  0  0  0  0  0
  -21.1197  -24.0827   24.9024 C   0  0  0  0  0  0  0  0  0  0  0  0
  -19.4003  -25.7678   24.2491 C   0  0  0  0  0  0  0  0  0  0  0  0
  -20.7408  -24.0311   18.4673 C   0  0  0  0  0  0  0  0  0  0  0  0
  -31.8516  -25.0573   17.0295 C   0  0  0  0  0  0  0  0  0  0  0  0
  -30.8586  -26.7787   20.2579 C   0  0  0  0  0  0  0  0  0  0  0  0
  -29.5636  -27.5558   20.0788 C   0  0  0  0  0  0  0  0  0  1  0  0
  -21.4262  -25.4286   22.7751 C   0  0  1  0  0  0  0  0  0  0  0  0
  -20.5175  -22.5581   20.4721 C   0  0  2  0  0  0  0  0  0  0  0  0
  -33.4694  -26.2205   14.9050 C   0  0  0  0  0  0  0  0  0  0  0  0
  -20.9142  -25.4630   24.2428 C   0  0  0  0  0  0  0  0  0  0  0  0
  -28.9095  -20.5238   19.8159 N   0  0  0  0  0  0  0  0  0  0  0  0
  -28.4583  -21.6568   20.3806 N   0  0  0  0  0  0  0  0  0  0  0  0
  -22.4548  -27.3578   21.6157 N   0  0  0  0  0  0  0  0  0  0  0  0
  -27.1796  -23.5259   17.3057 N   0  0  0  0  0  0  0  0  0  0  0  0
  -28.4664  -22.8937   22.4006 N   0  0  0  0  0  0  0  0  0  0  0  0
  -30.9259  -19.2417   23.4053 N   0  0  0  0  0  0  0  0  0  0  0  0
  -29.0158  -24.8198   16.5872 N   0  0  0  0  0  0  0  0  0  0  0  0
  -22.1360  -30.8534   22.2554 N   0  0  0  0  0  0  0  0  0  0  0  0
  -31.6039  -25.9766   18.1168 N   0  0  0  0  0  0  0  0  0  0  0  0
  -20.7519  -24.4492   21.9298 N   0  0  0  0  0  0  0  0  0  0  0  0
  -20.8434  -22.6564   19.0212 N   0  3  0  0  0  0  0  0  0  0  0  0
  -30.0753  -21.2010   24.2398 O   0  0  0  0  0  0  0  0  0  0  0  0
  -23.5894  -29.2389   23.0942 O   0  0  0  0  0  0  0  0  0  0  0  0
  -20.1499  -27.2502   21.9510 O   0  0  0  0  0  0  0  0  0  0  0  0
  -30.5785  -24.4747   19.5634 O   0  0  0  0  0  0  0  0  0  0  0  0
  -22.6580  -23.2684   21.3385 O   0  0  0  0  0  0  0  0  0  0  0  0
  -26.8552  -25.3629   15.9404 O   0  0  0  0  0  0  0  0  0  0  0  0
  -32.1265  -15.0303   19.9618 O   0  0  0  0  0  0  0  0  0  0  0  0
  -28.4553  -26.6977   20.3465 O   0  0  0  0  0  0  0  0  0  1  0  0
  -29.2823  -11.1048   17.3340 F   0  0  0  0  0  0  0  0  0  0  0  0
  -31.6007  -12.6043   21.1788 F   0  0  0  0  0  0  0  0  0  0  0  0
  -33.8504  -26.4073   16.2053 F   0  0  0  0  0  0  0  0  0  0  0  0
  -33.9780  -27.2991   14.2353 F   0  0  0  0  0  0  0  0  0  0  0  0
  -34.2999  -24.7598   14.2977 Cl  0  0  0  0  0  0  0  0  0  0  0  0
  1  2  1  0  0  0  0
  1  6  2  0  0  0  0
  2  7  2  0  0  0  0
  3  9  2  0  0  0  0
  3 10  1  0  0  0  0
  4 11  2  0  0  0  0
  4 18  1  0  0  0  0
  5 12  1  0  0  0  0
  5 18  2  0  0  0  0
  6 20  1  0  0  0  0
  7 22  1  0  0  0  0
  8 13  2  0  0  0  0
  8 21  1  0  0  0  0
  9 24  1  0  0  0  0
 10 26  2  0  0  0  0
 11 27  1  0  0  0  0
 12 27  2  0  0  0  0
 13 28  1  0  0  0  0
 14 15  2  0  0  0  0
 14 29  1  0  0  0  0
 15 30  1  0  0  0  0
 16 23  1  0  0  0  0
 16 28  2  0  0  0  0
 17 30  2  0  0  0  0
 17 31  1  0  0  0  0
 18 32  1  0  0  0  0
 19 32  1  0  0  0  0
 19 33  2  0  0  0  0
 19 34  1  0  0  0  0
 20 22  2  0  0  0  0
 20 40  1  0  0  0  0
 21 23  2  0  0  0  0
 21 41  1  0  0  0  0
 22 49  1  0  0  0  0
 23 42  1  0  0  0  0
 24 25  2  0  0  0  0
 24 62  1  0  0  0  0
 25 26  1  0  0  0  0
 25 57  1  0  0  0  0
 26 70  1  0  0  0  0
 27 81  1  0  0  0  0
 28 82  1  0  0  0  0
 29 31  2  0  0  0  0
 29 81  1  0  0  0  0
 30 83  1  0  0  0  0
 31 84  1  0  0  0  0
 32 64  2  0  0  0  0
 33 65  1  0  0  0  0
 33 68  1  0  0  0  0
 34 69  1  0  0  0  0
 34 75  2  0  0  0  0
 35 50  1  0  0  0  0
 35 71  1  0  0  0  0
 35 76  2  0  0  0  0
 36 60  1  0  0  0  0
 36 66  1  0  0  0  0
 36 77  2  0  0  0  0
 37 58  1  0  0  0  0
 37 72  1  0  0  0  0
 37 78  2  0  0  0  0
 38 61  1  0  0  0  0
 38 73  1  0  0  0  0
 38 79  2  0  0  0  0
 39 67  1  0  0  0  0
 39 70  1  0  0  0  0
 39 80  2  0  0  0  0
 40 43  1  0  0  0  0
 41 50  1  0  0  0  0
 42 66  1  0  0  0  0
 43 45  1  0  0  0  0
 44 46  1  0  0  0  0
 44 47  1  0  0  0  0
 45 49  1  0  0  0  0
 46 51  1  0  0  0  0
 47 67  1  0  0  0  0
 48 51  1  0  0  0  0
 48 67  1  0  0  0  0
 49 71  1  0  0  0  0
 50 66  1  0  0  0  0
 51 65  1  0  0  0  0
 52 61  1  0  0  0  0
 53 63  1  0  0  0  0
 54 63  1  0  0  0  0
 55 63  1  0  0  0  0
 56 74  1  0  0  0  0
 57 72  1  0  0  0  0
 58 59  1  0  0  0  0
 59 82  1  0  0  0  0
 60 63  1  0  0  0  0
 60 73  1  0  0  0  0
 61 74  1  0  0  0  0
 62 85  1  0  0  0  0
 62 86  1  0  0  0  0
 62 87  1  0  0  0  0
 64 65  1  0  0  0  0
M  CHG  1  74   1
M  ISO  4  39 100  59 101  70 100  82 101
M  END
> <Batch ID>
0052

> <Smiles>
CNC(C)C(=O)NC(C(=O)N1Cc2cc([101O:1][101CH2:1]CC(=O)NCc3c([100NH:0][100C:0](=O)N4CCCC(n5nc(-c6ccc(Oc7ccc(F)cc7F)cc6)c(C(N)=O)c5N)C4)cccc3C(F)(F)Cl)ccc2CC1C(=O)NC1CCCc2ccccc21)C(C)(C)C

> <Shape>
0.204

> <Color>
0.090

> <Negative vol penalty>
0.000

$$$$

  -OEChem-04042322403D

 89 98  0     1  0  0  0  0  0999 V2000
  -24.5467  -21.1593   29.2125 C   0  0  0  0  0  0  0  0  0  0  0  0
  -25.5634  -22.1007   29.0874 C   0  0  0  0  0  0  0  0  0  0  0  0
  -26.7016  -12.7614   20.9527 C   0  0  0  0  0  0  0  0  0  0  0  0
  -25.3358  -14.4306   19.8640 C   0  0  0  0  0  0  0  0  0  0  0  0
  -23.7365  -20.8603   28.1179 C   0  0  0  0  0  0  0  0  0  0  0  0
  -25.7710  -22.7429   27.8672 C   0  0  0  0  0  0  0  0  0  0  0  0
  -27.9026  -29.0209   25.1542 C   0  0  0  0  0  0  0  0  0  0  0  0
  -28.2618  -24.7100   19.2637 C   0  0  0  0  0  0  0  0  0  0  0  0
  -27.3584  -23.9520   20.0085 C   0  0  0  0  0  0  0  0  0  0  0  0
  -25.5512  -12.1107   21.3984 C   0  0  0  0  0  0  0  0  0  0  0  0
  -24.1853  -13.7799   20.3097 C   0  0  0  0  0  0  0  0  0  0  0  0
  -28.8131  -29.5445   24.2374 C   0  0  0  0  0  0  0  0  0  0  0  0
  -23.2196  -10.0199   20.1235 C   0  0  0  0  0  0  0  0  0  0  0  0
  -23.1686   -8.6320   19.9943 C   0  0  0  0  0  0  0  0  0  0  0  0
  -27.3008  -29.0058   22.4369 C   0  0  0  0  0  0  0  0  0  0  0  0
  -22.9183   -8.4183   22.3878 C   0  0  0  0  0  0  0  0  0  0  0  0
  -26.5939  -13.9214   20.1855 C   0  0  0  0  0  0  0  0  0  0  0  0
  -28.4716  -14.3716   18.5183 C   0  0  0  0  0  0  0  0  0  0  0  0
  -23.9281  -21.5062   26.8864 C   0  0  0  0  0  0  0  0  0  0  0  0
  -26.6870  -28.4749   24.7175 C   0  0  0  0  0  0  0  0  0  0  0  0
  -24.9635  -22.4513   26.7547 C   0  0  0  0  0  0  0  0  0  0  0  0
  -26.3755  -28.4782   23.3504 C   0  0  0  0  0  0  0  0  0  0  0  0
  -29.5111  -24.1829   18.9363 C   0  0  0  0  0  0  0  0  0  0  0  0
  -27.7043  -22.6668   20.4260 C   0  0  0  0  0  0  0  0  0  0  0  0
  -29.8570  -22.8977   19.3539 C   0  0  0  0  0  0  0  0  0  0  0  0
  -28.9536  -22.1396   20.0987 C   0  0  0  0  0  0  0  0  0  0  0  0
  -24.2930  -12.6199   21.0769 C   0  0  0  0  0  0  0  0  0  0  0  0
  -28.5135  -29.5344   22.8783 C   0  0  0  0  0  0  0  0  0  0  0  0
  -23.1201  -10.6071   21.3849 C   0  0  0  0  0  0  0  0  0  0  0  0
  -23.0179   -7.8312   21.1264 C   0  0  0  0  0  0  0  0  0  0  0  0
  -22.9694   -9.8063   22.5170 C   0  0  0  0  0  0  0  0  0  0  0  0
  -27.7820  -14.5943   19.7253 C   0  0  0  0  0  0  0  0  0  0  0  0
  -29.5218  -15.2559   18.5547 C   0  0  0  0  0  0  0  0  0  0  0  0
  -30.8704  -28.7042   18.9828 C   0  0  0  0  0  0  0  0  0  0  0  0
  -31.2977  -28.6349   20.2515 C   0  0  0  0  0  0  0  0  0  0  0  0
  -30.4668  -27.4888   18.2254 C   0  0  0  0  0  0  0  0  0  0  0  0
  -28.1880  -13.4480   17.4590 C   0  0  0  0  0  0  0  0  0  0  0  0
  -25.3417  -25.5983   24.8558 C   0  0  0  0  0  0  0  0  0  0  0  0
  -22.7938  -27.1582   23.5917 C   0  0  0  0  0  0  0  0  0  0  0  0
  -21.6212  -29.8140   21.7977 C   0  0  0  0  0  0  0  0  0  0  0  0
  -30.3721  -20.4714   21.3442 C   0  0  0  0  0  0  0  0  0  0  0  0
  -23.0575  -21.1155   25.7185 C   0  0  0  0  0  0  0  0  0  0  0  0
  -25.7040  -27.9382   25.7215 C   0  0  0  0  0  0  0  0  0  0  0  0
  -25.0752  -27.9221   22.8320 C   0  0  0  0  0  0  0  0  0  0  0  0
  -31.4628  -27.3195   20.9532 C   0  0  0  0  0  0  0  0  0  0  0  0
  -23.1025  -22.1136   24.5644 C   0  0  0  0  0  0  0  0  0  0  0  0
  -32.3826  -17.5475   21.6368 C   0  0  0  0  0  0  0  0  0  0  0  0
  -24.5437  -22.5032   24.2514 C   0  0  0  0  0  0  0  0  0  0  0  0
  -31.4961  -16.4391   21.0643 C   0  0  0  0  0  0  0  0  0  0  0  0
  -31.6733  -26.1811   19.9660 C   0  0  0  0  0  0  0  0  0  0  0  0
  -31.5692  -18.5774   22.4187 C   0  0  0  0  0  0  0  0  0  0  0  0
  -29.5463  -18.0461   21.1169 C   0  0  0  0  0  0  0  0  0  0  0  0
  -25.2041  -23.1872   25.4545 C   0  0  1  0  0  0  0  0  0  0  0  0
  -24.7195  -26.9404   25.1194 C   0  0  1  0  0  0  0  0  0  0  0  0
  -30.3124  -17.0200   20.2662 C   0  0  2  0  0  0  0  0  0  0  0  0
  -26.7150  -21.8795   21.2231 C   0  0  0  0  0  0  0  0  0  0  0  0
  -31.1999  -22.3390   19.0002 C   0  0  0  0  0  0  0  0  0  0  0  0
  -19.4962  -30.7976   20.8955 C   0  0  0  0  0  0  0  0  0  0  0  0
  -22.7625  -25.0560   21.3805 C   0  0  0  0  0  0  0  0  0  0  0  0
  -21.2965  -26.5838   20.0445 C   0  0  0  0  0  0  0  0  0  0  0  0
  -20.5038  -25.7010   22.2388 C   0  0  0  0  0  0  0  0  0  0  0  0
  -21.9605  -32.2926   23.3791 C   0  0  0  0  0  0  0  0  0  0  0  0
  -30.4642  -25.0207   18.1339 C   0  0  0  0  0  0  0  0  0  0  0  0
  -31.6180  -29.8641   21.0485 C   0  0  0  0  0  0  0  0  0  0  0  0
  -30.7848  -29.9640   22.3192 C   0  0  0  0  0  0  0  0  0  1  0  0
  -22.3142  -27.4651   22.1936 C   0  0  1  0  0  0  0  0  0  0  0  0
  -20.4780  -30.7786   22.0567 C   0  0  2  0  0  0  0  0  0  0  0  0
  -21.7447  -26.2103   21.4736 C   0  0  0  0  0  0  0  0  0  0  0  0
  -28.3468  -15.5454   20.4739 N   0  0  0  0  0  0  0  0  0  0  0  0
  -29.4024  -15.9281   19.7354 N   0  0  0  0  0  0  0  0  0  0  0  0
  -30.7922  -26.2681   18.8072 N   0  0  0  0  0  0  0  0  0  0  0  0
  -24.1495  -27.4031   23.8524 N   0  0  0  0  0  0  0  0  0  0  0  0
  -30.4683  -19.0868   21.5982 N   0  0  0  0  0  0  0  0  0  0  0  0
  -30.5267  -15.5163   17.6917 N   0  0  0  0  0  0  0  0  0  0  0  0
  -27.0696  -12.6124   17.5826 N   0  0  0  0  0  0  0  0  0  0  0  0
  -29.3035  -20.8344   20.5251 N   0  0  0  0  0  0  0  0  0  0  0  0
  -24.7614  -24.5610   25.5605 N   0  0  0  0  0  0  0  0  0  0  0  0
  -21.3634  -28.5644   22.3203 N   0  0  0  0  0  0  0  0  0  0  0  0
  -21.0005  -32.1604   22.2531 N   0  3  0  0  0  0  0  0  0  0  0  0
  -29.8755  -27.6318   17.1559 O   0  0  0  0  0  0  0  0  0  0  0  0
  -28.9146  -13.3546   16.4407 O   0  0  0  0  0  0  0  0  0  0  0  0
  -26.2778  -25.5103   24.0699 O   0  0  0  0  0  0  0  0  0  0  0  0
  -21.9935  -26.7242   24.4240 O   0  0  0  0  0  0  0  0  0  0  0  0
  -22.6394  -30.1359   21.1892 O   0  0  0  0  0  0  0  0  0  0  0  0
  -31.1941  -21.2727   21.7960 O   0  0  0  0  0  0  0  0  0  0  0  0
  -23.1702  -11.9851   21.5115 O   0  0  0  0  0  0  0  0  0  0  0  0
  -29.4008  -30.0443   21.9812 O   0  0  0  0  0  0  0  0  0  1  0  0
  -22.9674   -6.4985   21.0020 F   0  0  0  0  0  0  0  0  0  0  0  0
  -22.8721  -10.3647   23.7313 F   0  0  0  0  0  0  0  0  0  0  0  0
  1  2  1  0  0  0  0
  1  5  2  0  0  0  0
  2  6  2  0  0  0  0
  3 10  2  0  0  0  0
  3 17  1  0  0  0  0
  4 11  1  0  0  0  0
  4 17  2  0  0  0  0
  5 19  1  0  0  0  0
  6 21  1  0  0  0  0
  7 12  2  0  0  0  0
  7 20  1  0  0  0  0
  8  9  2  0  0  0  0
  8 23  1  0  0  0  0
  9 24  1  0  0  0  0
 10 27  1  0  0  0  0
 11 27  2  0  0  0  0
 12 28  1  0  0  0  0
 13 14  2  0  0  0  0
 13 29  1  0  0  0  0
 14 30  1  0  0  0  0
 15 22  1  0  0  0  0
 15 28  2  0  0  0  0
 16 30  2  0  0  0  0
 16 31  1  0  0  0  0
 17 32  1  0  0  0  0
 18 32  1  0  0  0  0
 18 33  2  0  0  0  0
 18 37  1  0  0  0  0
 19 21  2  0  0  0  0
 19 42  1  0  0  0  0
 20 22  2  0  0  0  0
 20 43  1  0  0  0  0
 21 53  1  0  0  0  0
 22 44  1  0  0  0  0
 23 25  2  0  0  0  0
 23 63  1  0  0  0  0
 24 26  2  0  0  0  0
 24 56  1  0  0  0  0
 25 26  1  0  0  0  0
 25 57  1  0  0  0  0
 26 76  1  0  0  0  0
 27 86  1  0  0  0  0
 28 87  1  0  0  0  0
 29 31  2  0  0  0  0
 29 86  1  0  0  0  0
 30 88  1  0  0  0  0
 31 89  1  0  0  0  0
 32 69  2  0  0  0  0
 33 70  1  0  0  0  0
 33 74  1  0  0  0  0
 34 35  2  0  0  0  0
 34 36  1  0  0  0  0
 35 45  1  0  0  0  0
 35 64  1  0  0  0  0
 36 71  1  0  0  0  0
 36 80  2  0  0  0  0
 37 75  1  0  0  0  0
 37 81  2  0  0  0  0
 38 54  1  0  0  0  0
 38 77  1  0  0  0  0
 38 82  2  0  0  0  0
 39 66  1  0  0  0  0
 39 72  1  0  0  0  0
 39 83  2  0  0  0  0
 40 67  1  0  0  0  0
 40 78  1  0  0  0  0
 40 84  2  0  0  0  0
 41 73  1  0  0  0  0
 41 76  1  0  0  0  0
 41 85  2  0  0  0  0
 42 46  1  0  0  0  0
 43 54  1  0  0  0  0
 44 72  1  0  0  0  0
 45 50  1  0  0  0  0
 46 48  1  0  0  0  0
 47 49  1  0  0  0  0
 47 51  1  0  0  0  0
 48 53  1  0  0  0  0
 49 55  1  0  0  0  0
 50 71  1  0  0  0  0
 51 73  1  0  0  0  0
 52 55  1  0  0  0  0
 52 73  1  0  0  0  0
 53 77  1  0  0  0  0
 54 72  1  0  0  0  0
 55 70  1  0  0  0  0
 58 67  1  0  0  0  0
 59 68  1  0  0  0  0
 60 68  1  0  0  0  0
 61 68  1  0  0  0  0
 62 79  1  0  0  0  0
 63 71  1  0  0  0  0
 64 65  1  0  0  0  0
 65 87  1  0  0  0  0
 66 68  1  0  0  0  0
 66 78  1  0  0  0  0
 67 79  1  0  0  0  0
 69 70  1  0  0  0  0
M  CHG  1  79   1
M  ISO  4  41 100  65 101  76 100  87 101
M  END
> <Batch ID>
0052

> <Smiles>
CNC(C)C(=O)NC(C(=O)N1Cc2cc([101O:1][101CH2:1]C=C3CCN(Cc4ccc(C)c([100NH:0][100C:0](=O)N5CCCC(n6nc(-c7ccc(Oc8ccc(F)cc8F)cc7)c(C(N)=O)c6N)C5)c4C)C(=O)C3)ccc2CC1C(=O)NC1CCCc2ccccc21)C(C)(C)C

> <Shape>
0.241

> <Color>
0.041

> <Negative vol penalty>
0.000

$$$$

  -OEChem-04042322403D

 87 96  0     1  0  0  0  0  0999 V2000
  -28.9418  -37.2846   22.6248 C   0  0  0  0  0  0  0  0  0  0  0  0
  -29.2738  -36.1964   21.8242 C   0  0  0  0  0  0  0  0  0  0  0  0
  -23.1726   -9.9593   21.4966 C   0  0  0  0  0  0  0  0  0  0  0  0
  -24.7734  -10.2647   23.2802 C   0  0  0  0  0  0  0  0  0  0  0  0
  -28.1624  -37.0973   23.7656 C   0  0  0  0  0  0  0  0  0  0  0  0
  -28.8274  -34.9199   22.1646 C   0  0  0  0  0  0  0  0  0  0  0  0
  -26.7481  -28.7510   19.1751 C   0  0  0  0  0  0  0  0  0  0  0  0
  -22.6173   -8.8777   22.1802 C   0  0  0  0  0  0  0  0  0  0  0  0
  -24.2181   -9.1831   23.9638 C   0  0  0  0  0  0  0  0  0  0  0  0
  -27.0158  -27.3838   19.2293 C   0  0  0  0  0  0  0  0  0  0  0  0
  -20.5000   -8.3899   24.7709 C   0  0  0  0  0  0  0  0  0  0  0  0
  -19.1093   -8.3183   24.8505 C   0  0  0  0  0  0  0  0  0  0  0  0
  -25.6091  -27.1918   21.1796 C   0  0  0  0  0  0  0  0  0  0  0  0
  -30.7063  -20.4562   21.8832 C   0  0  0  0  0  0  0  0  0  0  0  0
  -31.2575  -18.2652   21.0271 C   0  0  0  0  0  0  0  0  0  0  0  0
  -19.1534   -6.1911   23.7058 C   0  0  0  0  0  0  0  0  0  0  0  0
  -24.2507  -10.6528   22.0466 C   0  0  0  0  0  0  0  0  0  0  0  0
  -24.1761  -12.9596   20.9599 C   0  0  0  0  0  0  0  0  0  0  0  0
  -27.6982  -35.8194   24.1149 C   0  0  0  0  0  0  0  0  0  0  0  0
  -25.9162  -29.3518   20.1309 C   0  0  0  0  0  0  0  0  0  0  0  0
  -28.0422  -34.7152   23.3119 C   0  0  0  0  0  0  0  0  0  0  0  0
  -25.3304  -28.5663   21.1338 C   0  0  0  0  0  0  0  0  0  0  0  0
  -29.3483  -20.1589   21.7700 C   0  0  0  0  0  0  0  0  0  0  0  0
  -28.9448  -18.9147   21.2854 C   0  0  0  0  0  0  0  0  0  0  0  0
  -29.8994  -17.9679   20.9139 C   0  0  0  0  0  0  0  0  0  0  0  0
  -23.1400   -8.4896   23.4138 C   0  0  0  0  0  0  0  0  0  0  0  0
  -26.4486  -26.6045   20.2333 C   0  0  0  0  0  0  0  0  0  0  0  0
  -21.2174   -7.3622   24.1587 C   0  0  0  0  0  0  0  0  0  0  0  0
  -18.4359   -7.2188   24.3179 C   0  0  0  0  0  0  0  0  0  0  0  0
  -20.5441   -6.2628   23.6262 C   0  0  0  0  0  0  0  0  0  0  0  0
  -31.6610  -19.5094   21.5117 C   0  0  0  0  0  0  0  0  0  0  0  0
  -24.8252  -11.7699   21.3407 C   0  0  0  0  0  0  0  0  0  0  0  0
  -25.1475  -13.6918   20.3222 C   0  0  0  0  0  0  0  0  0  0  0  0
  -26.4218  -22.4516   21.3966 C   0  0  0  0  0  0  0  0  0  0  0  0
  -25.2961  -21.8174   21.0354 C   0  0  0  0  0  0  0  0  0  0  0  0
  -22.8166  -13.3665   21.1643 C   0  0  0  0  0  0  0  0  0  0  0  0
  -26.3002  -31.6049   22.3399 C   0  0  0  0  0  0  0  0  0  0  0  0
  -23.0974  -31.2440   22.7060 C   0  0  0  0  0  0  0  0  0  0  0  0
  -20.7515  -28.5050   22.8148 C   0  0  0  0  0  0  0  0  0  0  0  0
  -30.3472  -15.6590   20.0111 C   0  0  0  0  0  0  0  0  0  0  0  0
  -26.8981  -35.6593   25.3833 C   0  0  0  0  0  0  0  0  0  0  0  0
  -25.6160  -30.8231   20.0428 C   0  0  0  0  0  0  0  0  0  0  0  0
  -24.4142  -29.1593   22.1718 C   0  0  0  0  0  0  0  0  0  0  0  0
  -26.4230  -23.7553   22.1523 C   0  0  0  0  0  0  0  0  0  0  0  0
  -26.1518  -34.3304   25.4690 C   0  0  0  0  0  0  0  0  0  0  0  0
  -29.7803  -12.3710   18.7683 C   0  0  0  0  0  0  0  0  0  0  0  0
  -27.0709  -33.1761   25.0821 C   0  0  0  0  0  0  0  0  0  0  0  0
  -28.3872  -12.0193   19.2954 C   0  0  0  0  0  0  0  0  0  0  0  0
  -28.6870  -24.1718   21.1034 C   0  0  0  0  0  0  0  0  0  0  0  0
  -30.5771  -13.1958   19.7776 C   0  0  0  0  0  0  0  0  0  0  0  0
  -28.5031  -14.0480   20.7981 C   0  0  0  0  0  0  0  0  0  0  0  0
  -28.5396  -22.8830   20.2958 C   0  0  0  0  0  0  0  0  0  0  0  0
  -27.5562  -33.3188   23.6345 C   0  0  1  0  0  0  0  0  0  0  0  0
  -25.1657  -31.4216   21.3719 C   0  0  1  0  0  0  0  0  0  0  0  0
  -27.6390  -13.2727   19.7902 C   0  0  2  0  0  0  0  0  0  0  0  0
  -27.3339  -24.7788   21.4740 C   0  0  1  0  0  0  0  0  0  1  0  0
  -27.4865  -18.6001   21.1658 C   0  0  0  0  0  0  0  0  0  0  0  0
  -18.3100  -28.4243   22.2404 C   0  0  0  0  0  0  0  0  0  0  0  0
  -22.6765  -31.7575   25.6841 C   0  0  0  0  0  0  0  0  0  0  0  0
  -20.7315  -30.1828   25.6096 C   0  0  0  0  0  0  0  0  0  0  0  0
  -20.6957  -32.2718   24.2467 C   0  0  0  0  0  0  0  0  0  0  0  0
  -21.1579  -26.2912   20.8932 C   0  0  0  0  0  0  0  0  0  0  0  0
  -28.3421  -21.1949   22.1764 C   0  0  0  0  0  0  0  0  0  0  0  0
  -22.2107  -30.3685   23.5582 C   0  0  1  0  0  0  0  0  0  0  0  0
  -19.7244  -28.1456   21.7563 C   0  0  2  0  0  0  0  0  0  0  0  0
  -21.6045  -31.1366   24.7664 C   0  0  0  0  0  0  0  0  0  0  0  0
  -26.1097  -11.7436   20.9753 N   0  0  0  0  0  0  0  0  0  0  0  0
  -26.2755  -12.9259   20.3581 N   0  0  0  0  0  0  0  0  0  0  0  0
  -24.1563  -30.6034   22.0471 N   0  0  0  0  0  0  0  0  0  0  0  0
  -29.8075  -14.3688   20.1979 N   0  0  0  0  0  0  0  0  0  0  0  0
  -25.1384  -14.9097   19.7399 N   0  0  0  0  0  0  0  0  0  0  0  0
  -21.9520  -12.4933   21.8384 N   0  0  0  0  0  0  0  0  0  0  0  0
  -29.5114  -16.6982   20.4188 N   0  0  0  0  0  0  0  0  0  0  0  0
  -26.5164  -32.9183   22.7110 N   0  0  0  0  0  0  0  0  0  0  0  0
  -21.2181  -29.7929   22.6571 N   0  0  0  0  0  0  0  0  0  0  0  0
  -27.6786  -21.8635   21.0043 N   0  3  1  0  0  0  0  0  0  0  0  0
  -19.8252  -26.7005   21.4063 N   0  3  0  0  0  0  0  0  0  0  0  0
  -22.3771  -14.4647   20.7468 O   0  0  0  0  0  0  0  0  0  0  0  0
  -26.9317  -30.6271   22.7229 O   0  0  0  0  0  0  0  0  0  0  0  0
  -22.8550  -32.4506   22.6222 O   0  0  0  0  0  0  0  0  0  0  0  0
  -21.1018  -27.7229   23.6958 O   0  0  0  0  0  0  0  0  0  0  0  0
  -31.4569  -15.8306   19.5001 O   0  0  0  0  0  0  0  0  0  0  0  0
  -22.5982   -7.4344   24.0812 O   0  0  0  0  0  0  0  0  0  0  0  0
  -26.7088  -25.2699   20.2888 O   0  0  0  0  0  0  0  0  0  1  0  0
  -17.1005   -7.1494   24.3958 F   0  0  0  0  0  0  0  0  0  0  0  0
  -21.2280   -5.2718   23.0379 F   0  0  0  0  0  0  0  0  0  0  0  0
  -33.3364  -19.8770   21.6503 Cl  0  0  0  0  0  0  0  0  0  0  0  0
  1  2  1  0  0  0  0
  1  5  2  0  0  0  0
  2  6  2  0  0  0  0
  3  8  2  0  0  0  0
  3 17  1  0  0  0  0
  4  9  1  0  0  0  0
  4 17  2  0  0  0  0
  5 19  1  0  0  0  0
  6 21  1  0  0  0  0
  7 10  2  0  0  0  0
  7 20  1  0  0  0  0
  8 26  1  0  0  0  0
  9 26  2  0  0  0  0
 10 27  1  0  0  0  0
 11 12  2  0  0  0  0
 11 28  1  0  0  0  0
 12 29  1  0  0  0  0
 13 22  1  0  0  0  0
 13 27  2  0  0  0  0
 14 23  1  0  0  0  0
 14 31  2  0  0  0  0
 15 25  2  0  0  0  0
 15 31  1  0  0  0  0
 16 29  2  0  0  0  0
 16 30  1  0  0  0  0
 17 32  1  0  0  0  0
 18 32  1  0  0  0  0
 18 33  2  0  0  0  0
 18 36  1  0  0  0  0
 19 21  2  0  0  0  0
 19 41  1  0  0  0  0
 20 22  2  0  0  0  0
 20 42  1  0  0  0  0
 21 53  1  0  0  0  0
 22 43  1  0  0  0  0
 23 24  2  0  0  0  0
 23 63  1  0  0  0  0
 24 25  1  0  0  0  0
 24 57  1  0  0  0  0
 25 73  1  0  0  0  0
 26 83  1  0  0  0  0
 27 84  1  0  0  0  0
 28 30  2  0  0  0  0
 28 83  1  0  0  0  0
 29 85  1  0  0  0  0
 30 86  1  0  0  0  0
 31 87  1  0  0  0  0
 32 67  2  0  0  0  0
 33 68  1  0  0  0  0
 33 71  1  0  0  0  0
 34 35  2  0  0  0  0
 34 44  1  0  0  0  0
 34 76  1  0  0  0  0
 36 72  1  0  0  0  0
 36 78  2  0  0  0  0
 37 54  1  0  0  0  0
 37 74  1  0  0  0  0
 37 79  2  0  0  0  0
 38 64  1  0  0  0  0
 38 69  1  0  0  0  0
 38 80  2  0  0  0  0
 39 65  1  0  0  0  0
 39 75  1  0  0  0  0
 39 81  2  0  0  0  0
 40 70  1  0  0  0  0
 40 73  1  0  0  0  0
 40 82  2  0  0  0  0
 41 45  1  0  0  0  0
 42 54  1  0  0  0  0
 43 69  1  0  0  0  0
 44 56  1  0  0  0  0
 45 47  1  0  0  0  0
 46 48  1  0  0  0  0
 46 50  1  0  0  0  0
 47 53  1  0  0  0  0
 48 55  1  0  0  0  0
 49 52  1  0  0  0  0
 49 56  1  0  0  0  0
 50 70  1  0  0  0  0
 51 55  1  0  0  0  0
 51 70  1  0  0  0  0
 52 76  1  0  0  0  0
 53 74  1  0  0  0  0
 54 69  1  0  0  0  0
 55 68  1  0  0  0  0
 56 84  1  0  0  0  0
 58 65  1  0  0  0  0
 59 66  1  0  0  0  0
 60 66  1  0  0  0  0
 61 66  1  0  0  0  0
 62 77  1  0  0  0  0
 63 76  1  0  0  0  0
 64 66  1  0  0  0  0
 64 75  1  0  0  0  0
 65 77  1  0  0  0  0
 67 68  1  0  0  0  0
M  CHG  2  76   1  77   1
M  ISO  4  40 100  56 101  73 100  84 101
M  END
> <Batch ID>
0052

> <Smiles>
C=C1C[101CH:1]([101O:1]c2ccc3c(c2)CN(C(=O)C(NC(=O)C(C)NC)C(C)(C)C)C(C(=O)NC2CCCc4ccccc42)C3)CCN1Cc1cc(Cl)cc([100NH:0][100C:0](=O)N2CCCC(n3nc(-c4ccc(Oc5ccc(F)cc5F)cc4)c(C(N)=O)c3N)C2)c1C

> <Shape>
0.344

> <Color>
0.174

> <Negative vol penalty>
0.000

$$$$

  -OEChem-04042322403D

 94103  0     1  0  0  0  0  0999 V2000
  -25.9104  -34.9602   23.9004 C   0  0  0  0  0  0  0  0  0  0  0  0
  -26.4764  -33.7135   23.6543 C   0  0  0  0  0  0  0  0  0  0  0  0
  -30.1829  -21.3119   21.3237 C   0  0  0  0  0  0  0  0  0  0  0  0
  -23.6333  -19.9008   15.9281 C   0  0  0  0  0  0  0  0  0  0  0  0
  -23.9494   -9.9784   22.4041 C   0  0  0  0  0  0  0  0  0  0  0  0
  -22.3465  -10.5436   20.6870 C   0  0  0  0  0  0  0  0  0  0  0  0
  -29.1617  -21.0338   20.4153 C   0  0  0  0  0  0  0  0  0  0  0  0
  -24.5548  -35.0601   24.2107 C   0  0  0  0  0  0  0  0  0  0  0  0
  -25.6873  -32.5657   23.7194 C   0  0  0  0  0  0  0  0  0  0  0  0
  -26.5200  -29.4131   19.8448 C   0  0  0  0  0  0  0  0  0  0  0  0
  -30.7703  -22.5769   21.3470 C   0  0  0  0  0  0  0  0  0  0  0  0
  -24.9649  -19.8423   15.5170 C   0  0  0  0  0  0  0  0  0  0  0  0
  -23.0565   -9.0451   22.9305 C   0  0  0  0  0  0  0  0  0  0  0  0
  -21.4535   -9.6102   21.2135 C   0  0  0  0  0  0  0  0  0  0  0  0
  -27.6653  -28.6203   19.9038 C   0  0  0  0  0  0  0  0  0  0  0  0
  -21.3404   -6.2568   24.5102 C   0  0  0  0  0  0  0  0  0  0  0  0
  -21.8430   -5.0032   24.8585 C   0  0  0  0  0  0  0  0  0  0  0  0
  -23.3247  -20.2278   17.2486 C   0  0  0  0  0  0  0  0  0  0  0  0
  -29.3153  -23.2855   19.5532 C   0  0  0  0  0  0  0  0  0  0  0  0
  -26.3292  -26.7563   20.6517 C   0  0  0  0  0  0  0  0  0  0  0  0
  -22.5369   -4.6460   22.5720 C   0  0  0  0  0  0  0  0  0  0  0  0
  -23.5944  -10.7277   21.2823 C   0  0  0  0  0  0  0  0  0  0  0  0
  -28.7279  -22.0205   19.5300 C   0  0  0  0  0  0  0  0  0  0  0  0
  -25.6794  -20.4380   17.7467 C   0  0  0  0  0  0  0  0  0  0  0  0
  -25.4949  -11.4702   19.7512 C   0  0  0  0  0  0  0  0  0  0  0  0
  -23.7466  -33.9139   24.2702 C   0  0  0  0  0  0  0  0  0  0  0  0
  -25.2701  -28.8856   20.1998 C   0  0  0  0  0  0  0  0  0  0  0  0
  -24.3199  -32.6502   24.0321 C   0  0  0  0  0  0  0  0  0  0  0  0
  -25.1691  -27.5437   20.5939 C   0  0  0  0  0  0  0  0  0  0  0  0
  -30.3365  -23.5637   20.4617 C   0  0  0  0  0  0  0  0  0  0  0  0
  -25.9879  -20.1109   16.4263 C   0  0  0  0  0  0  0  0  0  0  0  0
  -21.8086   -8.8610   22.3352 C   0  0  0  0  0  0  0  0  0  0  0  0
  -27.5704  -27.2925   20.3101 C   0  0  0  0  0  0  0  0  0  0  0  0
  -21.4359   -6.7050   23.1927 C   0  0  0  0  0  0  0  0  0  0  0  0
  -22.4414   -4.1978   23.8895 C   0  0  0  0  0  0  0  0  0  0  0  0
  -22.0342   -5.8996   22.2237 C   0  0  0  0  0  0  0  0  0  0  0  0
  -24.3478  -20.4964   18.1579 C   0  0  0  0  0  0  0  0  0  0  0  0
  -24.5161  -11.6924   20.7384 C   0  0  0  0  0  0  0  0  0  0  0  0
  -26.1004  -12.6921   19.5870 C   0  0  0  0  0  0  0  0  0  0  0  0
  -27.6634  -21.7302   18.5819 C   0  0  0  0  0  0  0  0  0  0  0  0
  -26.7696  -20.7198   18.6973 C   0  0  0  0  0  0  0  0  0  0  0  0
  -25.8271  -10.2670   19.0458 C   0  0  0  0  0  0  0  0  0  0  0  0
  -23.1132  -29.5415   22.4407 C   0  0  0  0  0  0  0  0  0  0  0  0
  -21.3594  -27.3235   20.8509 C   0  0  0  0  0  0  0  0  0  0  0  0
  -21.3077  -24.6124   18.7787 C   0  0  0  0  0  0  0  0  0  0  0  0
  -24.1831  -18.1963   20.4619 C   0  0  0  0  0  0  0  0  0  0  0  0
  -29.3718  -26.5259   21.6062 C   0  0  0  0  0  0  0  0  0  1  0  0
  -22.2966  -34.0673   24.6560 C   0  0  0  0  0  0  0  0  0  0  0  0
  -24.0403  -29.7463   20.1051 C   0  0  0  0  0  0  0  0  0  0  0  0
  -23.8479  -26.9238   20.9660 C   0  0  0  0  0  0  0  0  0  0  0  0
  -21.4483  -32.8389   24.3370 C   0  0  0  0  0  0  0  0  0  0  0  0
  -27.1157  -16.7207   21.9570 C   0  0  0  0  0  0  0  0  0  0  0  0
  -22.1547  -31.5680   24.7979 C   0  0  0  0  0  0  0  0  0  0  0  0
  -26.8643  -15.2310   21.7184 C   0  0  0  0  0  0  0  0  0  0  0  0
  -25.8205  -17.4590   22.2855 C   0  0  0  0  0  0  0  0  0  0  0  0
  -24.4917  -15.8012   21.0344 C   0  0  0  0  0  0  0  0  0  0  0  0
  -23.4913  -31.3844   24.0690 C   0  0  1  0  0  0  0  0  0  0  0  0
  -22.8951  -29.2507   20.9827 C   0  0  1  0  0  0  0  0  0  0  0  0
  -25.7611  -15.0129   20.6666 C   0  0  2  0  0  0  0  0  0  0  0  0
  -27.4019  -20.0359   15.9439 C   0  0  0  0  0  0  0  0  0  0  0  0
  -19.7277  -22.9962   17.6885 C   0  0  0  0  0  0  0  0  0  0  0  0
  -21.0050  -25.8773   23.5142 C   0  0  0  0  0  0  0  0  0  0  0  0
  -20.2716  -23.8523   22.2374 C   0  0  0  0  0  0  0  0  0  0  0  0
  -18.9497  -25.9628   22.0919 C   0  0  0  0  0  0  0  0  0  0  0  0
  -31.3230  -25.6243   22.8331 C   0  0  0  0  0  0  0  0  0  0  0  0
  -22.1546  -25.4357   16.0650 C   0  0  0  0  0  0  0  0  0  0  0  0
  -30.9681  -24.9255   20.4880 C   0  0  0  0  0  0  0  0  0  0  0  0
  -21.1961  -25.8254   20.9399 C   0  0  1  0  0  0  0  0  0  0  0  0
  -20.4848  -24.3067   17.5403 C   0  0  2  0  0  0  0  0  0  0  0  0
  -20.3809  -25.3914   22.1907 C   0  0  0  0  0  0  0  0  0  0  0  0
  -24.4975  -12.9559   21.1709 N   0  0  0  0  0  0  0  0  0  0  0  0
  -25.4722  -13.5387   20.4522 N   0  0  0  0  0  0  0  0  0  0  0  0
  -22.6751  -27.8079   20.8634 N   0  0  0  0  0  0  0  0  0  0  0  0
  -24.8131  -17.2165   21.2464 N   0  0  0  0  0  0  0  0  0  0  0  0
  -27.1036  -13.1141   18.7883 N   0  0  0  0  0  0  0  0  0  0  0  0
  -25.1056   -9.1012   19.3366 N   0  0  0  0  0  0  0  0  0  0  0  0
  -23.2716  -30.8836   22.7291 N   0  0  0  0  0  0  0  0  0  0  0  0
  -20.6138  -25.4022   19.6709 N   0  0  0  0  0  0  0  0  0  0  0  0
  -24.5531  -19.5693   20.6740 N   0  0  0  0  0  0  0  0  0  0  0  0
  -30.5132  -25.7166   21.6268 N   0  0  0  0  0  0  0  0  0  0  0  0
  -21.3674  -24.2069   16.3436 N   0  3  0  0  0  0  0  0  0  0  0  0
  -26.7477  -10.2231   18.1949 O   0  0  0  0  0  0  0  0  0  0  0  0
  -23.1347  -28.6168   23.2446 O   0  0  0  0  0  0  0  0  0  0  0  0
  -20.3569  -28.0372   20.7661 O   0  0  0  0  0  0  0  0  0  0  0  0
  -22.4504  -24.1895   18.9403 O   0  0  0  0  0  0  0  0  0  0  0  0
  -23.3442  -17.9111   19.6065 O   0  0  0  0  0  0  0  0  0  0  0  0
  -28.9794  -27.1936   22.5624 O   0  0  0  0  0  0  0  0  0  0  0  0
  -24.6345  -22.1033   20.1669 O   0  0  0  0  0  0  0  0  0  0  0  0
  -22.4511  -20.8733   19.9159 O   0  0  0  0  0  0  0  0  0  0  0  0
  -20.9371   -7.9502   22.8486 O   0  0  0  0  0  0  0  0  0  0  0  0
  -28.6869  -26.5166   20.3692 O   0  0  0  0  0  0  0  0  0  1  0  0
  -22.9254   -2.9946   24.2245 F   0  0  0  0  0  0  0  0  0  0  0  0
  -22.1300   -6.3253   20.9566 F   0  0  0  0  0  0  0  0  0  0  0  0
  -23.8976  -20.9042   19.8175 S   0  0  0  0  0  0  0  0  0  0  0  0
  1  2  1  0  0  0  0
  1  8  2  0  0  0  0
  2  9  2  0  0  0  0
  3  7  1  0  0  0  0
  3 11  2  0  0  0  0
  4 12  1  0  0  0  0
  4 18  2  0  0  0  0
  5 13  2  0  0  0  0
  5 22  1  0  0  0  0
  6 14  1  0  0  0  0
  6 22  2  0  0  0  0
  7 23  2  0  0  0  0
  8 26  1  0  0  0  0
  9 28  1  0  0  0  0
 10 15  2  0  0  0  0
 10 27  1  0  0  0  0
 11 30  1  0  0  0  0
 12 31  2  0  0  0  0
 13 32  1  0  0  0  0
 14 32  2  0  0  0  0
 15 33  1  0  0  0  0
 16 17  2  0  0  0  0
 16 34  1  0  0  0  0
 17 35  1  0  0  0  0
 18 37  1  0  0  0  0
 19 23  1  0  0  0  0
 19 30  2  0  0  0  0
 20 29  1  0  0  0  0
 20 33  2  0  0  0  0
 21 35  2  0  0  0  0
 21 36  1  0  0  0  0
 22 38  1  0  0  0  0
 23 40  1  0  0  0  0
 24 31  1  0  0  0  0
 24 37  2  0  0  0  0
 24 41  1  0  0  0  0
 25 38  1  0  0  0  0
 25 39  2  0  0  0  0
 25 42  1  0  0  0  0
 26 28  2  0  0  0  0
 26 48  1  0  0  0  0
 27 29  2  0  0  0  0
 27 49  1  0  0  0  0
 28 57  1  0  0  0  0
 29 50  1  0  0  0  0
 30 67  1  0  0  0  0
 31 60  1  0  0  0  0
 32 90  1  0  0  0  0
 33 91  1  0  0  0  0
 34 36  2  0  0  0  0
 34 90  1  0  0  0  0
 35 92  1  0  0  0  0
 36 93  1  0  0  0  0
 37 94  1  0  0  0  0
 38 71  2  0  0  0  0
 39 72  1  0  0  0  0
 39 75  1  0  0  0  0
 40 41  2  0  0  0  0
 42 76  1  0  0  0  0
 42 82  2  0  0  0  0
 43 58  1  0  0  0  0
 43 77  1  0  0  0  0
 43 83  2  0  0  0  0
 44 68  1  0  0  0  0
 44 73  1  0  0  0  0
 44 84  2  0  0  0  0
 45 69  1  0  0  0  0
 45 78  1  0  0  0  0
 45 85  2  0  0  0  0
 46 74  1  0  0  0  0
 46 79  1  0  0  0  0
 46 86  2  0  0  0  0
 47 80  1  0  0  0  0
 47 87  2  0  0  0  0
 47 91  1  0  0  0  0
 48 51  1  0  0  0  0
 49 58  1  0  0  0  0
 50 73  1  0  0  0  0
 51 53  1  0  0  0  0
 52 54  1  0  0  0  0
 52 55  1  0  0  0  0
 53 57  1  0  0  0  0
 54 59  1  0  0  0  0
 55 74  1  0  0  0  0
 56 59  1  0  0  0  0
 56 74  1  0  0  0  0
 57 77  1  0  0  0  0
 58 73  1  0  0  0  0
 59 72  1  0  0  0  0
 61 69  1  0  0  0  0
 62 70  1  0  0  0  0
 63 70  1  0  0  0  0
 64 70  1  0  0  0  0
 65 80  1  0  0  0  0
 66 81  1  0  0  0  0
 67 80  1  0  0  0  0
 68 70  1  0  0  0  0
 68 78  1  0  0  0  0
 69 81  1  0  0  0  0
 71 72  1  0  0  0  0
 79 94  1  0  0  0  0
 88 94  2  0  0  0  0
 89 94  2  0  0  0  0
M  CHG  1  81   1
M  ISO  4  46 100  47 101  79 100  91 101
M  END
> <Batch ID>
0052

> <Smiles>
CNC(C)C(=O)NC(C(=O)N1Cc2cc([101O:1][101C:1](=O)N(C)Cc3cccc(C=Cc4c(C)cccc4S(=O)(=O)[100NH:0][100C:0](=O)N4CCCC(n5nc(-c6ccc(Oc7ccc(F)cc7F)cc6)c(C(N)=O)c5N)C4)c3)ccc2CC1C(=O)NC1CCCc2ccccc21)C(C)(C)C

> <Shape>
0.285

> <Color>
0.074

> <Negative vol penalty>
0.000

$$$$

  -OEChem-04042322403D

 85 93  0     1  0  0  0  0  0999 V2000
  -18.7611  -26.2894   25.0087 C   0  0  0  0  0  0  0  0  0  0  0  0
  -19.7350  -25.8536   24.1160 C   0  0  0  0  0  0  0  0  0  0  0  0
  -23.4934   -9.0263   20.3302 C   0  0  0  0  0  0  0  0  0  0  0  0
  -23.1190  -10.8456   21.8752 C   0  0  0  0  0  0  0  0  0  0  0  0
  -18.2320  -27.5738   24.8890 C   0  0  0  0  0  0  0  0  0  0  0  0
  -20.1796  -26.7016   23.1022 C   0  0  0  0  0  0  0  0  0  0  0  0
  -25.2202  -26.6726   22.6161 C   0  0  0  0  0  0  0  0  0  0  0  0
  -22.5899   -8.2365   21.0412 C   0  0  0  0  0  0  0  0  0  0  0  0
  -22.2155  -10.0558   22.5862 C   0  0  0  0  0  0  0  0  0  0  0  0
  -25.7893  -25.5887   21.9491 C   0  0  0  0  0  0  0  0  0  0  0  0
  -22.5795   -6.4114   23.8861 C   0  0  0  0  0  0  0  0  0  0  0  0
  -22.9477   -5.0945   24.1611 C   0  0  0  0  0  0  0  0  0  0  0  0
  -25.9743  -26.9244   19.9489 C   0  0  0  0  0  0  0  0  0  0  0  0
  -31.0124  -17.7710   20.1783 C   0  0  0  0  0  0  0  0  0  0  0  0
  -28.9139  -18.1395   19.0391 C   0  0  0  0  0  0  0  0  0  0  0  0
  -21.0230   -4.3004   22.9355 C   0  0  0  0  0  0  0  0  0  0  0  0
  -23.7580  -10.3308   20.7472 C   0  0  0  0  0  0  0  0  0  0  0  0
  -24.4057  -12.0047   18.9344 C   0  0  0  0  0  0  0  0  0  0  0  0
  -18.6772  -28.4413   23.8792 C   0  0  0  0  0  0  0  0  0  0  0  0
  -25.0135  -27.8893   21.9503 C   0  0  0  0  0  0  0  0  0  0  0  0
  -19.6549  -27.9983   22.9680 C   0  0  0  0  0  0  0  0  0  0  0  0
  -25.4047  -28.0230   20.6104 C   0  0  0  0  0  0  0  0  0  0  0  0
  -31.2197  -19.1488   20.2422 C   0  0  0  0  0  0  0  0  0  0  0  0
  -30.2741  -20.0221   19.7047 C   0  0  0  0  0  0  0  0  0  0  0  0
  -29.8595  -17.2663   19.5766 C   0  0  0  0  0  0  0  0  0  0  0  0
  -21.9510   -8.7512   22.1692 C   0  0  0  0  0  0  0  0  0  0  0  0
  -26.1638  -25.7135   20.6145 C   0  0  0  0  0  0  0  0  0  0  0  0
  -21.4329   -6.6729   23.1359 C   0  0  0  0  0  0  0  0  0  0  0  0
  -22.1695   -4.0390   23.6858 C   0  0  0  0  0  0  0  0  0  0  0  0
  -29.1212  -19.5174   19.1031 C   0  0  0  0  0  0  0  0  0  0  0  0
  -20.6547   -5.6174   22.6606 C   0  0  0  0  0  0  0  0  0  0  0  0
  -24.6916  -11.1470   20.0134 C   0  0  0  0  0  0  0  0  0  0  0  0
  -25.6216  -12.5452   18.5939 C   0  0  0  0  0  0  0  0  0  0  0  0
  -23.1530  -12.2877   18.2969 C   0  0  0  0  0  0  0  0  0  0  0  0
  -22.4637  -29.6393   21.2156 C   0  0  0  0  0  0  0  0  0  0  0  0
  -24.6967  -31.7584   20.1931 C   0  0  0  0  0  0  0  0  0  0  0  0
  -28.5649  -23.1182   19.8866 C   0  0  0  0  0  0  0  0  0  0  0  0
  -27.8709  -32.3040   19.0648 C   0  0  0  0  0  0  0  0  0  0  0  0
  -30.4863  -14.8627   19.9963 C   0  0  0  0  0  0  0  0  0  0  0  0
  -18.0416  -29.8039   23.7604 C   0  0  0  0  0  0  0  0  0  0  0  0
  -24.4229  -29.0573   22.6916 C   0  0  0  0  0  0  0  0  0  0  0  0
  -25.2228  -29.3140   19.8563 C   0  0  0  0  0  0  0  0  0  0  0  0
  -18.8364  -30.7729   22.8888 C   0  0  0  0  0  0  0  0  0  0  0  0
  -30.3043  -11.3075   20.0642 C   0  0  0  0  0  0  0  0  0  0  0  0
  -19.2647  -30.0953   21.5910 C   0  0  0  0  0  0  0  0  0  0  0  0
  -28.8044  -11.0194   19.9683 C   0  0  0  0  0  0  0  0  0  0  0  0
  -30.5903  -12.5515   20.9034 C   0  0  0  0  0  0  0  0  0  0  0  0
  -28.3612  -13.4702   20.3971 C   0  0  0  0  0  0  0  0  0  0  0  0
  -20.1807  -28.8976   21.8703 C   0  0  1  0  0  0  0  0  0  0  0  0
  -23.7860  -30.0910   21.7679 C   0  0  1  0  0  0  0  0  0  0  0  0
  -28.0198  -12.2635   19.5077 C   0  0  2  0  0  0  0  0  0  0  0  0
  -32.4612  -19.6660   20.8916 C   0  0  0  0  0  0  0  0  0  0  0  0
  -29.3932  -34.1360   18.2750 C   0  0  0  0  0  0  0  0  0  0  0  0
  -23.2375  -31.8126   17.5140 C   0  0  0  0  0  0  0  0  0  0  0  0
  -25.2730  -32.8652   16.5057 C   0  0  0  0  0  0  0  0  0  0  0  0
  -24.0279  -34.0453   18.3167 C   0  0  0  0  0  0  0  0  0  0  0  0
  -29.2655  -21.7954   21.8895 C   0  0  0  0  0  0  0  0  0  0  0  0
  -29.7911  -31.8146   21.2631 C   0  0  0  0  0  0  0  0  0  0  0  0
  -30.4777  -21.5084   19.7643 C   0  0  0  0  0  0  0  0  0  0  0  0
  -27.4796  -23.7366   20.7424 C   0  0  0  0  0  0  0  0  0  1  0  0
  -25.4140  -32.0097   18.8888 C   0  0  1  0  0  0  0  0  0  0  0  0
  -28.9230  -33.3207   19.4696 C   0  0  2  0  0  0  0  0  0  0  0  0
  -24.4899  -32.6581   17.8197 C   0  0  0  0  0  0  0  0  0  0  0  0
  -25.9875  -11.1396   20.3369 N   0  0  0  0  0  0  0  0  0  0  0  0
  -26.5267  -11.9993   19.4559 N   0  0  0  0  0  0  0  0  0  0  0  0
  -24.6353  -30.4252   20.6228 N   0  0  0  0  0  0  0  0  0  0  0  0
  -29.8159  -13.6908   20.4063 N   0  0  0  0  0  0  0  0  0  0  0  0
  -25.9942  -13.4293   17.6442 N   0  0  0  0  0  0  0  0  0  0  0  0
  -22.0013  -11.6459   18.7724 N   0  0  0  0  0  0  0  0  0  0  0  0
  -29.6485  -15.8666   19.5117 N   0  0  0  0  0  0  0  0  0  0  0  0
  -21.5203  -29.3477   22.1823 N   0  0  0  0  0  0  0  0  0  0  0  0
  -26.5942  -32.8016   19.2180 N   0  0  0  0  0  0  0  0  0  0  0  0
  -29.4017  -22.1788   20.4898 N   0  0  0  0  0  0  0  0  0  0  0  0
  -30.1046  -32.6346   20.0646 N   0  3  0  0  0  0  0  0  0  0  0  0
  -23.0603  -13.0735   17.3236 O   0  0  0  0  0  0  0  0  0  0  0  0
  -22.3101  -29.5626   20.0023 O   0  0  0  0  0  0  0  0  0  0  0  0
  -24.2150  -32.7108   20.8117 O   0  0  0  0  0  0  0  0  0  0  0  0
  -28.6563  -23.4626   18.7043 O   0  0  0  0  0  0  0  0  0  0  0  0
  -28.1536  -31.1819   18.6504 O   0  0  0  0  0  0  0  0  0  0  0  0
  -31.7154  -14.9577   20.0443 O   0  0  0  0  0  0  0  0  0  0  0  0
  -21.0691   -7.9809   22.8631 O   0  0  0  0  0  0  0  0  0  0  0  0
  -26.7189  -24.6569   19.9609 O   0  0  0  0  0  0  0  0  0  1  0  0
  -22.5241   -2.7743   23.9486 F   0  0  0  0  0  0  0  0  0  0  0  0
  -28.2051  -20.3481   18.5858 F   0  0  0  0  0  0  0  0  0  0  0  0
  -19.5528   -5.8624   21.9384 F   0  0  0  0  0  0  0  0  0  0  0  0
  1  2  1  0  0  0  0
  1  5  2  0  0  0  0
  2  6  2  0  0  0  0
  3  8  2  0  0  0  0
  3 17  1  0  0  0  0
  4  9  1  0  0  0  0
  4 17  2  0  0  0  0
  5 19  1  0  0  0  0
  6 21  1  0  0  0  0
  7 10  2  0  0  0  0
  7 20  1  0  0  0  0
  8 26  1  0  0  0  0
  9 26  2  0  0  0  0
 10 27  1  0  0  0  0
 11 12  2  0  0  0  0
 11 28  1  0  0  0  0
 12 29  1  0  0  0  0
 13 22  1  0  0  0  0
 13 27  2  0  0  0  0
 14 23  2  0  0  0  0
 14 25  1  0  0  0  0
 15 25  2  0  0  0  0
 15 30  1  0  0  0  0
 16 29  2  0  0  0  0
 16 31  1  0  0  0  0
 17 32  1  0  0  0  0
 18 32  1  0  0  0  0
 18 33  2  0  0  0  0
 18 34  1  0  0  0  0
 19 21  2  0  0  0  0
 19 40  1  0  0  0  0
 20 22  2  0  0  0  0
 20 41  1  0  0  0  0
 21 49  1  0  0  0  0
 22 42  1  0  0  0  0
 23 24  1  0  0  0  0
 23 52  1  0  0  0  0
 24 30  2  0  0  0  0
 24 59  1  0  0  0  0
 25 70  1  0  0  0  0
 26 81  1  0  0  0  0
 27 82  1  0  0  0  0
 28 31  2  0  0  0  0
 28 81  1  0  0  0  0
 29 83  1  0  0  0  0
 30 84  1  0  0  0  0
 31 85  1  0  0  0  0
 32 64  2  0  0  0  0
 33 65  1  0  0  0  0
 33 68  1  0  0  0  0
 34 69  1  0  0  0  0
 34 75  2  0  0  0  0
 35 50  1  0  0  0  0
 35 71  1  0  0  0  0
 35 76  2  0  0  0  0
 36 61  1  0  0  0  0
 36 66  1  0  0  0  0
 36 77  2  0  0  0  0
 37 60  1  0  0  0  0
 37 73  1  0  0  0  0
 37 78  2  0  0  0  0
 38 62  1  0  0  0  0
 38 72  1  0  0  0  0
 38 79  2  0  0  0  0
 39 67  1  0  0  0  0
 39 70  1  0  0  0  0
 39 80  2  0  0  0  0
 40 43  1  0  0  0  0
 41 50  1  0  0  0  0
 42 66  1  0  0  0  0
 43 45  1  0  0  0  0
 44 46  1  0  0  0  0
 44 47  1  0  0  0  0
 45 49  1  0  0  0  0
 46 51  1  0  0  0  0
 47 67  1  0  0  0  0
 48 51  1  0  0  0  0
 48 67  1  0  0  0  0
 49 71  1  0  0  0  0
 50 66  1  0  0  0  0
 51 65  1  0  0  0  0
 53 62  1  0  0  0  0
 54 63  1  0  0  0  0
 55 63  1  0  0  0  0
 56 63  1  0  0  0  0
 57 73  1  0  0  0  0
 58 74  1  0  0  0  0
 59 73  1  0  0  0  0
 60 82  1  0  0  0  0
 61 63  1  0  0  0  0
 61 72  1  0  0  0  0
 62 74  1  0  0  0  0
 64 65  1  0  0  0  0
M  CHG  1  74   1
M  ISO  4  39 100  60 101  70 100  82 101
M  END
> <Batch ID>
0052

> <Smiles>
CNC(C)C(=O)NC(C(=O)N1Cc2cc([101O:1][101CH2:1]C(=O)N(C)Cc3c(C)cc([100NH:0][100C:0](=O)N4CCCC(n5nc(-c6ccc(Oc7ccc(F)cc7F)cc6)c(C(N)=O)c5N)C4)cc3F)ccc2CC1C(=O)NC1CCCc2ccccc21)C(C)(C)C

> <Shape>
0.284

> <Color>
0.130

> <Negative vol penalty>
0.000

$$$$

  -OEChem-04042322403D

 84 92  0     1  0  0  0  0  0999 V2000
  -17.5494  -29.2179   25.7334 C   0  0  0  0  0  0  0  0  0  0  0  0
  -18.1893  -28.0912   26.2397 C   0  0  0  0  0  0  0  0  0  0  0  0
  -18.0204  -19.2593   22.6962 C   0  0  0  0  0  0  0  0  0  0  0  0
  -29.0392  -15.8605   18.9962 C   0  0  0  0  0  0  0  0  0  0  0  0
  -28.5299  -16.5699   21.2488 C   0  0  0  0  0  0  0  0  0  0  0  0
  -17.6698  -29.5383   24.3818 C   0  0  0  0  0  0  0  0  0  0  0  0
  -18.9493  -27.2835   25.3944 C   0  0  0  0  0  0  0  0  0  0  0  0
  -24.7874  -23.1322   25.4002 C   0  0  0  0  0  0  0  0  0  0  0  0
  -18.3607  -17.9072   22.6582 C   0  0  0  0  0  0  0  0  0  0  0  0
  -30.0476  -16.8213   18.9216 C   0  0  0  0  0  0  0  0  0  0  0  0
  -29.5384  -17.5307   21.1743 C   0  0  0  0  0  0  0  0  0  0  0  0
  -25.1942  -21.8453   25.0506 C   0  0  0  0  0  0  0  0  0  0  0  0
  -31.7383  -20.4107   21.4486 C   0  0  0  0  0  0  0  0  0  0  0  0
  -31.4491  -21.6920   21.9178 C   0  0  0  0  0  0  0  0  0  0  0  0
  -18.9995  -20.2179   22.9575 C   0  0  0  0  0  0  0  0  0  0  0  0
  -25.3962  -22.5407   22.7496 C   0  0  0  0  0  0  0  0  0  0  0  0
  -29.6697  -21.8846   20.2948 C   0  0  0  0  0  0  0  0  0  0  0  0
  -28.2803  -15.7348   20.1598 C   0  0  0  0  0  0  0  0  0  0  0  0
  -20.6592  -18.4721   23.1430 C   0  0  0  0  0  0  0  0  0  0  0  0
  -27.3613  -13.4135   20.6840 C   0  0  0  0  0  0  0  0  0  0  0  0
  -18.4395  -28.7395   23.5215 C   0  0  0  0  0  0  0  0  0  0  0  0
  -24.6712  -24.1318   24.4236 C   0  0  0  0  0  0  0  0  0  0  0  0
  -19.0791  -27.5928   24.0298 C   0  0  0  0  0  0  0  0  0  0  0  0
  -24.9901  -23.8402   23.0897 C   0  0  0  0  0  0  0  0  0  0  0  0
  -19.6801  -17.5135   22.8816 C   0  0  0  0  0  0  0  0  0  0  0  0
  -30.2973  -17.6563   20.0106 C   0  0  0  0  0  0  0  0  0  0  0  0
  -25.4959  -21.5487   23.7247 C   0  0  0  0  0  0  0  0  0  0  0  0
  -30.9934  -19.8663   20.4024 C   0  0  0  0  0  0  0  0  0  0  0  0
  -30.4147  -22.4289   21.3409 C   0  0  0  0  0  0  0  0  0  0  0  0
  -29.9591  -20.6033   19.8256 C   0  0  0  0  0  0  0  0  0  0  0  0
  -20.3189  -19.8243   23.1809 C   0  0  0  0  0  0  0  0  0  0  0  0
  -27.2381  -14.7429   20.2373 C   0  0  0  0  0  0  0  0  0  0  0  0
  -26.0963  -12.8921   20.5631 C   0  0  0  0  0  0  0  0  0  0  0  0
  -22.0462  -18.0370   23.3795 C   0  0  0  0  0  0  0  0  0  0  0  0
  -28.5158  -12.7127   21.1652 C   0  0  0  0  0  0  0  0  0  0  0  0
  -22.2829  -25.9030   23.2997 C   0  0  0  0  0  0  0  0  0  0  0  0
  -24.6621  -27.3698   21.6535 C   0  0  0  0  0  0  0  0  0  0  0  0
  -27.8000  -27.1941   20.3232 C   0  0  0  0  0  0  0  0  0  0  0  0
  -20.6481  -15.3755   20.5336 C   0  0  0  0  0  0  0  0  0  0  0  0
  -18.5017  -29.0996   22.0582 C   0  0  0  0  0  0  0  0  0  0  0  0
  -24.2567  -25.5220   24.8213 C   0  0  0  0  0  0  0  0  0  0  0  0
  -24.9010  -24.8831   22.0068 C   0  0  0  0  0  0  0  0  0  0  0  0
  -19.6317  -28.4009   21.3065 C   0  0  0  0  0  0  0  0  0  0  0  0
  -22.0896  -13.3459   17.9880 C   0  0  0  0  0  0  0  0  0  0  0  0
  -19.6660  -26.9160   21.6542 C   0  0  0  0  0  0  0  0  0  0  0  0
  -23.5836  -13.3538   18.3162 C   0  0  0  0  0  0  0  0  0  0  0  0
  -21.4390  -14.6948   18.2869 C   0  0  0  0  0  0  0  0  0  0  0  0
  -23.1513  -15.2058   19.9841 C   0  0  0  0  0  0  0  0  0  0  0  0
  -19.9326  -26.7057   23.1496 C   0  0  1  0  0  0  0  0  0  0  0  0
  -23.6779  -26.3275   23.6621 C   0  0  1  0  0  0  0  0  0  0  0  0
  -23.8398  -13.8499   19.7520 C   0  0  2  0  0  0  0  0  0  0  0  0
  -29.4577  -28.5375   19.0024 C   0  0  0  0  0  0  0  0  0  0  0  0
  -23.0528  -26.8533   19.1131 C   0  0  0  0  0  0  0  0  0  0  0  0
  -25.1226  -27.3314   17.7881 C   0  0  0  0  0  0  0  0  0  0  0  0
  -24.1268  -29.1090   19.2273 C   0  0  0  0  0  0  0  0  0  0  0  0
  -29.7900  -27.1067   22.5121 C   0  0  0  0  0  0  0  0  0  0  0  0
  -20.0117  -16.0571   22.8335 C   0  0  0  0  0  0  0  0  0  0  0  0
  -25.4014  -18.3320   22.0884 C   0  0  0  0  0  0  0  0  0  0  0  0
  -24.3116  -17.8722   23.0464 C   0  0  0  0  0  0  0  0  0  0  0  0
  -25.5666  -19.8466   22.0652 C   0  0  0  0  0  0  0  0  0  1  0  0
  -25.3194  -27.1607   20.3107 C   0  0  1  0  0  0  0  0  0  0  0  0
  -28.9782  -28.1488   20.3922 C   0  0  2  0  0  0  0  0  0  0  0  0
  -24.4053  -27.5932   19.1297 C   0  0  0  0  0  0  0  0  0  0  0  0
  -25.9933  -15.0471   19.8606 N   0  0  0  0  0  0  0  0  0  0  0  0
  -23.0212  -18.4255   22.6326 N   0  0  0  0  0  0  0  0  0  0  0  0
  -25.3227  -13.9014   20.0702 N   0  0  0  0  0  0  0  0  0  0  0  0
  -24.4851  -26.2258   22.4446 N   0  0  0  0  0  0  0  0  0  0  0  0
  -21.7185  -15.1072   19.6644 N   0  0  0  0  0  0  0  0  0  0  0  0
  -25.5815  -11.6734   20.8313 N   0  0  0  0  0  0  0  0  0  0  0  0
  -29.7368  -13.3982   21.2246 N   0  0  0  0  0  0  0  0  0  0  0  0
  -21.3361  -26.8990   23.4449 N   0  0  0  0  0  0  0  0  0  0  0  0
  -26.5960  -27.8647   20.3671 N   0  0  0  0  0  0  0  0  0  0  0  0
  -21.0008  -15.7543   21.8231 N   0  0  0  0  0  0  0  0  0  0  0  0
  -30.1142  -27.5177   21.1218 N   0  3  0  0  0  0  0  0  0  0  0  0
  -28.4696  -11.5093   21.5162 O   0  0  0  0  0  0  0  0  0  0  0  0
  -22.0807  -24.7570   22.9154 O   0  0  0  0  0  0  0  0  0  0  0  0
  -24.3249  -28.5072   21.9912 O   0  0  0  0  0  0  0  0  0  0  0  0
  -27.9343  -25.9756   20.2351 O   0  0  0  0  0  0  0  0  0  0  0  0
  -19.4658  -15.2791   20.1876 O   0  0  0  0  0  0  0  0  0  0  0  0
  -31.2813  -18.5938   19.9383 O   0  0  0  0  0  0  0  0  0  0  0  0
  -25.8927  -20.2932   23.3807 O   0  0  0  0  0  0  0  0  0  1  0  0
  -30.1360  -23.6588   21.7926 F   0  0  0  0  0  0  0  0  0  0  0  0
  -29.2391  -20.0851   18.8211 F   0  0  0  0  0  0  0  0  0  0  0  0
  -21.4975  -21.0466   23.4997 Cl  0  0  0  0  0  0  0  0  0  0  0  0
  1  2  1  0  0  0  0
  1  6  2  0  0  0  0
  2  7  2  0  0  0  0
  3  9  2  0  0  0  0
  3 15  1  0  0  0  0
  4 10  2  0  0  0  0
  4 18  1  0  0  0  0
  5 11  1  0  0  0  0
  5 18  2  0  0  0  0
  6 21  1  0  0  0  0
  7 23  1  0  0  0  0
  8 12  2  0  0  0  0
  8 22  1  0  0  0  0
  9 25  1  0  0  0  0
 10 26  1  0  0  0  0
 11 26  2  0  0  0  0
 12 27  1  0  0  0  0
 13 14  2  0  0  0  0
 13 28  1  0  0  0  0
 14 29  1  0  0  0  0
 15 31  2  0  0  0  0
 16 24  1  0  0  0  0
 16 27  2  0  0  0  0
 17 29  2  0  0  0  0
 17 30  1  0  0  0  0
 18 32  1  0  0  0  0
 19 25  2  0  0  0  0
 19 31  1  0  0  0  0
 19 34  1  0  0  0  0
 20 32  1  0  0  0  0
 20 33  2  0  0  0  0
 20 35  1  0  0  0  0
 21 23  2  0  0  0  0
 21 40  1  0  0  0  0
 22 24  2  0  0  0  0
 22 41  1  0  0  0  0
 23 49  1  0  0  0  0
 24 42  1  0  0  0  0
 25 57  1  0  0  0  0
 26 80  1  0  0  0  0
 27 81  1  0  0  0  0
 28 30  2  0  0  0  0
 28 80  1  0  0  0  0
 29 82  1  0  0  0  0
 30 83  1  0  0  0  0
 31 84  1  0  0  0  0
 32 64  2  0  0  0  0
 33 66  1  0  0  0  0
 33 69  1  0  0  0  0
 34 65  2  0  0  0  0
 35 70  1  0  0  0  0
 35 75  2  0  0  0  0
 36 50  1  0  0  0  0
 36 71  1  0  0  0  0
 36 76  2  0  0  0  0
 37 61  1  0  0  0  0
 37 67  1  0  0  0  0
 37 77  2  0  0  0  0
 38 62  1  0  0  0  0
 38 72  1  0  0  0  0
 38 78  2  0  0  0  0
 39 68  1  0  0  0  0
 39 73  1  0  0  0  0
 39 79  2  0  0  0  0
 40 43  1  0  0  0  0
 41 50  1  0  0  0  0
 42 67  1  0  0  0  0
 43 45  1  0  0  0  0
 44 46  1  0  0  0  0
 44 47  1  0  0  0  0
 45 49  1  0  0  0  0
 46 51  1  0  0  0  0
 47 68  1  0  0  0  0
 48 51  1  0  0  0  0
 48 68  1  0  0  0  0
 49 71  1  0  0  0  0
 50 67  1  0  0  0  0
 51 66  1  0  0  0  0
 52 62  1  0  0  0  0
 53 63  1  0  0  0  0
 54 63  1  0  0  0  0
 55 63  1  0  0  0  0
 56 74  1  0  0  0  0
 57 73  1  0  0  0  0
 58 59  1  0  0  0  0
 58 60  1  0  0  0  0
 59 65  1  0  0  0  0
 60 81  1  0  0  0  0
 61 63  1  0  0  0  0
 61 72  1  0  0  0  0
 62 74  1  0  0  0  0
 64 66  1  0  0  0  0
M  CHG  1  74   1
M  ISO  4  39 100  60 101  73 100  81 101
M  END
> <Batch ID>
0052

> <Smiles>
CNC(C)C(=O)NC(C(=O)N1Cc2cc([101O:1][101CH2:1]CCN=Cc3c(Cl)cccc3C[100NH:0][100C:0](=O)N3CCCC(n4nc(-c5ccc(Oc6ccc(F)cc6F)cc5)c(C(N)=O)c4N)C3)ccc2CC1C(=O)NC1CCCc2ccccc21)C(C)(C)C

> <Shape>
0.194

> <Color>
0.058

> <Negative vol penalty>
0.000

$$$$

  -OEChem-04042322403D

 88 96  0     1  0  0  0  0  0999 V2000
  -28.6149  -14.3325   20.6104 C   0  0  0  0  0  0  0  0  0  0  0  0
  -28.0120  -15.1702   21.5432 C   0  0  0  0  0  0  0  0  0  0  0  0
  -22.1885  -14.1661   22.2272 C   0  0  0  0  0  0  0  0  0  0  0  0
  -24.1909  -15.0325   21.1895 C   0  0  0  0  0  0  0  0  0  0  0  0
  -29.7145  -14.7814   19.8800 C   0  0  0  0  0  0  0  0  0  0  0  0
  -28.5090  -16.4570   21.7469 C   0  0  0  0  0  0  0  0  0  0  0  0
  -25.2775  -21.4802   23.0999 C   0  0  0  0  0  0  0  0  0  0  0  0
  -22.3187  -12.9868   21.4938 C   0  0  0  0  0  0  0  0  0  0  0  0
  -24.3211  -13.8532   20.4562 C   0  0  0  0  0  0  0  0  0  0  0  0
  -25.0197  -22.1336   24.3043 C   0  0  0  0  0  0  0  0  0  0  0  0
  -22.3248   -9.6041   20.1626 C   0  0  0  0  0  0  0  0  0  0  0  0
  -22.1418   -8.3972   20.8375 C   0  0  0  0  0  0  0  0  0  0  0  0
  -21.3725  -28.2225   22.7938 C   0  0  0  0  0  0  0  0  0  0  0  0
  -26.8464  -23.6473   23.8671 C   0  0  0  0  0  0  0  0  0  0  0  0
  -20.5404  -27.0217   20.8696 C   0  0  0  0  0  0  0  0  0  0  0  0
  -23.9742   -8.9448   22.3138 C   0  0  0  0  0  0  0  0  0  0  0  0
  -23.1246  -15.1890   22.0750 C   0  0  0  0  0  0  0  0  0  0  0  0
  -22.3213  -27.2227   23.0075 C   0  0  0  0  0  0  0  0  0  0  0  0
  -23.5300  -16.6830   24.1026 C   0  0  0  0  0  0  0  0  0  0  0  0
  -30.2192  -16.0777   20.0680 C   0  0  0  0  0  0  0  0  0  0  0  0
  -26.3303  -21.8994   22.2739 C   0  0  0  0  0  0  0  0  0  0  0  0
  -29.6171  -16.9232   21.0193 C   0  0  0  0  0  0  0  0  0  0  0  0
  -27.1138  -22.9992   22.6516 C   0  0  0  0  0  0  0  0  0  0  0  0
  -21.4893  -26.0219   21.0832 C   0  0  0  0  0  0  0  0  0  0  0  0
  -22.3798  -26.1224   22.1522 C   0  0  0  0  0  0  0  0  0  0  0  0
  -23.3850  -12.8303   20.6083 C   0  0  0  0  0  0  0  0  0  0  0  0
  -25.8060  -23.2155   24.6894 C   0  0  0  0  0  0  0  0  0  0  0  0
  -23.3326  -10.4814   20.5633 C   0  0  0  0  0  0  0  0  0  0  0  0
  -22.9665   -8.0676   21.9131 C   0  0  0  0  0  0  0  0  0  0  0  0
  -20.4819  -28.1220   21.7249 C   0  0  0  0  0  0  0  0  0  0  0  0
  -24.1572  -10.1518   21.6389 C   0  0  0  0  0  0  0  0  0  0  0  0
  -22.9904  -16.4077   22.8319 C   0  0  0  0  0  0  0  0  0  0  0  0
  -23.1201  -17.9644   24.3795 C   0  0  0  0  0  0  0  0  0  0  0  0
  -23.2538  -27.3517   24.1452 C   0  0  0  0  0  0  0  0  0  0  0  0
  -24.3303  -15.8546   24.9564 C   0  0  0  0  0  0  0  0  0  0  0  0
  -29.0064  -20.5630   21.1987 C   0  0  0  0  0  0  0  0  0  0  0  0
  -29.2194  -23.3014   19.4730 C   0  0  0  0  0  0  0  0  0  0  0  0
  -28.3705  -26.5902   19.1411 C   0  0  0  0  0  0  0  0  0  0  0  0
  -21.6825  -22.4811   20.8599 C   0  0  0  0  0  0  0  0  0  0  0  0
  -31.4391  -16.5018   19.2890 C   0  0  0  0  0  0  0  0  0  0  0  0
  -26.5785  -21.2008   20.9652 C   0  0  0  0  0  0  0  0  0  0  0  0
  -28.2433  -23.5012   21.7909 C   0  0  0  0  0  0  0  0  0  0  0  0
  -31.6721  -18.0104   19.2960 C   0  0  0  0  0  0  0  0  0  0  0  0
  -19.5850  -21.0508   23.4390 C   0  0  0  0  0  0  0  0  0  0  0  0
  -31.5275  -18.5664   20.7091 C   0  0  0  0  0  0  0  0  0  0  0  0
  -20.2841  -19.7140   23.6930 C   0  0  0  0  0  0  0  0  0  0  0  0
  -19.6189  -21.4198   21.9589 C   0  0  0  0  0  0  0  0  0  0  0  0
  -21.6852  -20.1211   21.6168 C   0  0  0  0  0  0  0  0  0  0  0  0
  -30.1119  -18.3345   21.2510 C   0  0  1  0  0  0  0  0  0  0  0  0
  -28.0012  -21.3895   20.4476 C   0  0  1  0  0  0  0  0  0  0  0  0
  -21.7048  -19.7028   23.0982 C   0  0  2  0  0  0  0  0  0  0  0  0
  -23.3970  -25.0496   22.3808 C   0  0  0  0  0  0  0  0  0  0  0  0
  -28.7266  -28.5756   17.6482 C   0  0  0  0  0  0  0  0  0  0  0  0
  -32.0225  -23.6607   20.6236 C   0  0  0  0  0  0  0  0  0  0  0  0
  -31.9444  -26.0511   19.8831 C   0  0  0  0  0  0  0  0  0  0  0  0
  -31.8121  -24.2194   18.1949 C   0  0  0  0  0  0  0  0  0  0  0  0
  -24.8419  -25.2416   28.3377 C   0  0  0  0  0  0  0  0  0  0  0  0
  -22.4494  -25.0993   27.6221 C   0  0  0  0  0  0  0  0  0  0  0  0
  -25.4807  -26.8013   18.5384 C   0  0  0  0  0  0  0  0  0  0  0  0
  -21.5303  -24.8545   20.1522 C   0  0  0  0  0  0  0  0  0  0  0  0
  -24.1233  -26.4154   26.2580 C   0  0  0  0  0  0  0  0  0  0  0  0
  -24.2060  -23.8656   26.3245 C   0  0  0  0  0  0  0  0  0  1  0  0
  -29.8298  -24.6633   19.7000 C   0  0  1  0  0  0  0  0  0  0  0  0
  -27.8403  -27.3791   17.9576 C   0  0  2  0  0  0  0  0  0  0  0  0
  -31.3822  -24.6382   19.6178 C   0  0  0  0  0  0  0  0  0  0  0  0
  -23.9027  -25.1546   27.1186 C   0  0  0  0  0  0  0  0  0  0  0  0
  -22.2909  -17.4317   22.3359 N   0  0  0  0  0  0  0  0  0  0  0  0
  -22.3881  -18.3630   23.2999 N   0  0  0  0  0  0  0  0  0  0  0  0
  -28.4504  -22.7811   20.5236 N   0  0  0  0  0  0  0  0  0  0  0  0
  -21.0010  -21.4089   21.4593 N   0  0  0  0  0  0  0  0  0  0  0  0
  -23.3179  -18.7777   25.4386 N   0  0  0  0  0  0  0  0  0  0  0  0
  -24.0576  -28.4146   24.1812 N   0  0  0  0  0  0  0  0  0  0  0  0
  -24.6602  -14.5650   24.5179 N   0  0  0  0  0  0  0  0  0  0  0  0
  -29.1897  -19.2942   20.6827 N   0  0  0  0  0  0  0  0  0  0  0  0
  -29.1950  -25.5602   18.7403 N   0  0  0  0  0  0  0  0  0  0  0  0
  -20.9615  -23.6631   20.7420 N   0  0  0  0  0  0  0  0  0  0  0  0
  -23.2487  -26.3965   25.0822 N   0  3  0  0  0  0  0  0  0  0  0  0
  -26.4636  -27.8747   18.2403 N   0  3  0  0  0  0  0  0  0  0  0  0
  -24.7270  -16.2405   26.0821 O   0  0  0  0  0  0  0  0  0  0  0  0
  -29.5748  -21.0414   22.1732 O   0  0  0  0  0  0  0  0  0  0  0  0
  -29.4118  -22.7237   18.4002 O   0  0  0  0  0  0  0  0  0  0  0  0
  -28.0851  -26.8628   20.3051 O   0  0  0  0  0  0  0  0  0  0  0  0
  -22.8497  -22.3934   20.4637 O   0  0  0  0  0  0  0  0  0  0  0  0
  -23.5125  -11.6796   19.8927 O   0  0  0  0  0  0  0  0  0  0  0  0
  -25.5569  -23.8545   25.8648 O   0  0  0  0  0  0  0  0  0  1  0  0
  -22.7896   -6.9092   22.5621 F   0  0  0  0  0  0  0  0  0  0  0  0
  -19.5695  -29.0815   21.5215 F   0  0  0  0  0  0  0  0  0  0  0  0
  -25.1263  -10.9911   22.0291 F   0  0  0  0  0  0  0  0  0  0  0  0
  1  2  1  0  0  0  0
  1  5  2  0  0  0  0
  2  6  2  0  0  0  0
  3  8  2  0  0  0  0
  3 17  1  0  0  0  0
  4  9  1  0  0  0  0
  4 17  2  0  0  0  0
  5 20  1  0  0  0  0
  6 22  1  0  0  0  0
  7 10  2  0  0  0  0
  7 21  1  0  0  0  0
  8 26  1  0  0  0  0
  9 26  2  0  0  0  0
 10 27  1  0  0  0  0
 11 12  2  0  0  0  0
 11 28  1  0  0  0  0
 12 29  1  0  0  0  0
 13 18  1  0  0  0  0
 13 30  2  0  0  0  0
 14 23  1  0  0  0  0
 14 27  2  0  0  0  0
 15 24  2  0  0  0  0
 15 30  1  0  0  0  0
 16 29  2  0  0  0  0
 16 31  1  0  0  0  0
 17 32  1  0  0  0  0
 18 25  2  0  0  0  0
 18 34  1  0  0  0  0
 19 32  1  0  0  0  0
 19 33  2  0  0  0  0
 19 35  1  0  0  0  0
 20 22  2  0  0  0  0
 20 40  1  0  0  0  0
 21 23  2  0  0  0  0
 21 41  1  0  0  0  0
 22 49  1  0  0  0  0
 23 42  1  0  0  0  0
 24 25  1  0  0  0  0
 24 60  1  0  0  0  0
 25 52  1  0  0  0  0
 26 84  1  0  0  0  0
 27 85  1  0  0  0  0
 28 31  2  0  0  0  0
 28 84  1  0  0  0  0
 29 86  1  0  0  0  0
 30 87  1  0  0  0  0
 31 88  1  0  0  0  0
 32 67  2  0  0  0  0
 33 68  1  0  0  0  0
 33 71  1  0  0  0  0
 34 72  1  0  0  0  0
 34 77  2  0  0  0  0
 35 73  1  0  0  0  0
 35 79  2  0  0  0  0
 36 50  1  0  0  0  0
 36 74  1  0  0  0  0
 36 80  2  0  0  0  0
 37 63  1  0  0  0  0
 37 69  1  0  0  0  0
 37 81  2  0  0  0  0
 38 64  1  0  0  0  0
 38 75  1  0  0  0  0
 38 82  2  0  0  0  0
 39 70  1  0  0  0  0
 39 76  1  0  0  0  0
 39 83  2  0  0  0  0
 40 43  1  0  0  0  0
 41 50  1  0  0  0  0
 42 69  1  0  0  0  0
 43 45  1  0  0  0  0
 44 46  1  0  0  0  0
 44 47  1  0  0  0  0
 45 49  1  0  0  0  0
 46 51  1  0  0  0  0
 47 70  1  0  0  0  0
 48 51  1  0  0  0  0
 48 70  1  0  0  0  0
 49 74  1  0  0  0  0
 50 69  1  0  0  0  0
 51 68  1  0  0  0  0
 53 64  1  0  0  0  0
 54 65  1  0  0  0  0
 55 65  1  0  0  0  0
 56 65  1  0  0  0  0
 57 66  1  0  0  0  0
 58 66  1  0  0  0  0
 59 78  1  0  0  0  0
 60 76  1  0  0  0  0
 61 66  1  0  0  0  0
 61 77  1  0  0  0  0
 62 66  1  0  0  0  0
 62 85  1  0  0  0  0
 63 65  1  0  0  0  0
 63 75  1  0  0  0  0
 64 78  1  0  0  0  0
 67 68  1  0  0  0  0
M  CHG  2  77   1  78   1
M  ISO  4  39 100  62 101  76 100  85 101
M  END
> <Batch ID>
0052

> <Smiles>
CNC(C)C(=O)NC(C(=O)N1Cc2cc([101O:1][101CH2:1]C(C)(C)CNC(=N)c3cc(F)cc(C[100NH:0][100C:0](=O)N4CCCC(n5nc(-c6ccc(Oc7ccc(F)cc7F)cc6)c(C(N)=O)c5N)C4)c3C)ccc2CC1C(=O)NC1CCCc2ccccc21)C(C)(C)C

> <Shape>
0.209

> <Color>
0.044

> <Negative vol penalty>
0.000

$$$$

  -OEChem-04042322403D

 86 94  0     1  0  0  0  0  0999 V2000
  -35.6833  -29.5314   19.7975 C   0  0  0  0  0  0  0  0  0  0  0  0
  -34.7455  -28.5469   19.5028 C   0  0  0  0  0  0  0  0  0  0  0  0
  -24.4485   -9.3180   22.1228 C   0  0  0  0  0  0  0  0  0  0  0  0
  -23.2986   -9.7314   20.0386 C   0  0  0  0  0  0  0  0  0  0  0  0
  -35.5152  -30.3383   20.9220 C   0  0  0  0  0  0  0  0  0  0  0  0
  -33.6395  -28.3682   20.3330 C   0  0  0  0  0  0  0  0  0  0  0  0
  -27.9900  -26.7222   18.6363 C   0  0  0  0  0  0  0  0  0  0  0  0
  -23.4038   -8.4910   22.5352 C   0  0  0  0  0  0  0  0  0  0  0  0
  -22.2539   -8.9043   20.4510 C   0  0  0  0  0  0  0  0  0  0  0  0
  -27.3283  -25.4951   18.6444 C   0  0  0  0  0  0  0  0  0  0  0  0
  -22.3584   -5.3263   21.9650 C   0  0  0  0  0  0  0  0  0  0  0  0
  -22.6911   -4.1045   22.5497 C   0  0  0  0  0  0  0  0  0  0  0  0
  -26.3311  -26.0537   20.7688 C   0  0  0  0  0  0  0  0  0  0  0  0
  -23.4931  -17.0214   16.4351 C   0  0  0  0  0  0  0  0  0  0  0  0
  -23.7985  -18.9420   17.8685 C   0  0  0  0  0  0  0  0  0  0  0  0
  -21.5412   -4.7588   24.5713 C   0  0  0  0  0  0  0  0  0  0  0  0
  -24.3959   -9.9383   20.8746 C   0  0  0  0  0  0  0  0  0  0  0  0
  -26.6286  -10.4150   19.7363 C   0  0  0  0  0  0  0  0  0  0  0  0
  -34.4016  -30.1758   21.7611 C   0  0  0  0  0  0  0  0  0  0  0  0
  -27.8355  -27.6212   19.7013 C   0  0  0  0  0  0  0  0  0  0  0  0
  -33.4571  -29.1728   21.4706 C   0  0  0  0  0  0  0  0  0  0  0  0
  -26.9900  -27.2927   20.7705 C   0  0  0  0  0  0  0  0  0  0  0  0
  -22.5813  -17.7420   15.6638 C   0  0  0  0  0  0  0  0  0  0  0  0
  -22.8867  -19.6627   17.0972 C   0  0  0  0  0  0  0  0  0  0  0  0
  -22.2781  -19.0626   15.9948 C   0  0  0  0  0  0  0  0  0  0  0  0
  -24.1016  -17.6214   17.5375 C   0  0  0  0  0  0  0  0  0  0  0  0
  -22.3065   -8.2840   21.6993 C   0  0  0  0  0  0  0  0  0  0  0  0
  -26.5010  -25.1594   19.7122 C   0  0  0  0  0  0  0  0  0  0  0  0
  -21.6172   -6.2645   22.6835 C   0  0  0  0  0  0  0  0  0  0  0  0
  -22.2825   -3.8206   23.8528 C   0  0  0  0  0  0  0  0  0  0  0  0
  -21.2086   -5.9807   23.9866 C   0  0  0  0  0  0  0  0  0  0  0  0
  -25.4745  -10.7933   20.4482 C   0  0  0  0  0  0  0  0  0  0  0  0
  -27.3330  -11.5835   19.5784 C   0  0  0  0  0  0  0  0  0  0  0  0
  -27.0280   -9.1230   19.2601 C   0  0  0  0  0  0  0  0  0  0  0  0
  -29.7911  -28.9101   21.8503 C   0  0  0  0  0  0  0  0  0  0  0  0
  -27.1528  -30.6185   22.6522 C   0  0  0  0  0  0  0  0  0  0  0  0
  -24.2524  -22.5628   18.6021 C   0  0  0  0  0  0  0  0  0  0  0  0
  -23.7480  -30.8510   22.6747 C   0  0  0  0  0  0  0  0  0  0  0  0
  -25.7211  -17.3358   19.4459 C   0  0  0  0  0  0  0  0  0  0  0  0
  -34.2874  -31.0406   22.9915 C   0  0  0  0  0  0  0  0  0  0  0  0
  -28.5353  -28.9522   19.6647 C   0  0  0  0  0  0  0  0  0  0  0  0
  -26.7745  -28.2313   21.9285 C   0  0  0  0  0  0  0  0  0  0  0  0
  -32.8927  -31.0357   23.6121 C   0  0  0  0  0  0  0  0  0  0  0  0
  -28.0590  -15.8302   21.6695 C   0  0  0  0  0  0  0  0  0  0  0  0
  -32.3607  -29.6100   23.7183 C   0  0  0  0  0  0  0  0  0  0  0  0
  -27.7707  -14.3328   21.5393 C   0  0  0  0  0  0  0  0  0  0  0  0
  -26.7807  -16.6629   21.5906 C   0  0  0  0  0  0  0  0  0  0  0  0
  -25.6534  -14.9049   20.2837 C   0  0  0  0  0  0  0  0  0  0  0  0
  -32.2313  -28.9648   22.3333 C   0  0  1  0  0  0  0  0  0  0  0  0
  -28.7089  -29.5742   21.0468 C   0  0  1  0  0  0  0  0  0  0  0  0
  -26.9173  -14.0296   20.2922 C   0  0  2  0  0  0  0  0  0  0  0  0
  -21.9429  -17.0763   14.4888 C   0  0  0  0  0  0  0  0  0  0  0  0
  -19.9376  -19.9487   15.8412 C   0  0  0  0  0  0  0  0  0  0  0  0
  -21.8806  -32.3460   23.4331 C   0  0  0  0  0  0  0  0  0  0  0  0
  -27.5716  -29.6802   25.5252 C   0  0  0  0  0  0  0  0  0  0  0  0
  -25.2226  -30.3878   26.0250 C   0  0  0  0  0  0  0  0  0  0  0  0
  -26.9052  -32.0799   25.2982 C   0  0  0  0  0  0  0  0  0  0  0  0
  -24.4238  -22.0494   16.1610 C   0  0  0  0  0  0  0  0  0  0  0  0
  -22.7724  -31.2307   19.9065 C   0  0  0  0  0  0  0  0  0  0  0  0
  -21.3008  -19.8355   15.1672 C   0  0  0  0  0  0  0  0  0  0  0  0
  -22.5779  -21.0826   17.4749 C   0  0  0  0  0  0  0  0  0  0  0  0
  -25.5051  -23.4011   18.4582 C   0  0  0  0  0  0  0  0  0  1  0  0
  -26.0046  -30.4244   23.6129 C   0  0  1  0  0  0  0  0  0  0  0  0
  -22.8131  -31.9828   22.2880 C   0  0  2  0  0  0  0  0  0  0  0  0
  -26.4314  -30.6243   25.0946 C   0  0  0  0  0  0  0  0  0  0  0  0
  -25.4438  -12.0999   20.7238 N   0  0  0  0  0  0  0  0  0  0  0  0
  -26.5873  -12.5528   20.1822 N   0  0  0  0  0  0  0  0  0  0  0  0
  -27.4856  -29.5181   21.8496 N   0  0  0  0  0  0  0  0  0  0  0  0
  -26.0261  -16.3249   20.3818 N   0  0  0  0  0  0  0  0  0  0  0  0
  -28.5114  -11.8661   18.9835 N   0  0  0  0  0  0  0  0  0  0  0  0
  -26.1867   -8.0299   19.5084 N   0  0  0  0  0  0  0  0  0  0  0  0
  -25.0287  -16.8899   18.3206 N   0  0  0  0  0  0  0  0  0  0  0  0
  -31.0477  -29.4515   21.6575 N   0  0  0  0  0  0  0  0  0  0  0  0
  -24.9450  -31.3239   23.1697 N   0  0  0  0  0  0  0  0  0  0  0  0
  -23.7715  -21.9244   17.4585 N   0  0  0  0  0  0  0  0  0  0  0  0
  -21.9842  -31.5913   21.1130 N   0  3  0  0  0  0  0  0  0  0  0  0
  -28.1072   -8.9402   18.6474 O   0  0  0  0  0  0  0  0  0  0  0  0
  -29.5068  -27.9766   22.5916 O   0  0  0  0  0  0  0  0  0  0  0  0
  -27.7284  -31.7087   22.6102 O   0  0  0  0  0  0  0  0  0  0  0  0
  -23.7216  -22.4755   19.7137 O   0  0  0  0  0  0  0  0  0  0  0  0
  -23.4453  -29.6661   22.5535 O   0  0  0  0  0  0  0  0  0  0  0  0
  -26.0737  -18.5057   19.6164 O   0  0  0  0  0  0  0  0  0  0  0  0
  -21.2870   -7.4768   22.1013 O   0  0  0  0  0  0  0  0  0  0  0  0
  -25.8544  -23.9621   19.7230 O   0  0  0  0  0  0  0  0  0  1  0  0
  -22.6007   -2.6466   24.4136 F   0  0  0  0  0  0  0  0  0  0  0  0
  -20.4953   -6.8775   24.6813 F   0  0  0  0  0  0  0  0  0  0  0  0
  1  2  1  0  0  0  0
  1  5  2  0  0  0  0
  2  6  2  0  0  0  0
  3  8  2  0  0  0  0
  3 17  1  0  0  0  0
  4  9  1  0  0  0  0
  4 17  2  0  0  0  0
  5 19  1  0  0  0  0
  6 21  1  0  0  0  0
  7 10  2  0  0  0  0
  7 20  1  0  0  0  0
  8 27  1  0  0  0  0
  9 27  2  0  0  0  0
 10 28  1  0  0  0  0
 11 12  2  0  0  0  0
 11 29  1  0  0  0  0
 12 30  1  0  0  0  0
 13 22  1  0  0  0  0
 13 28  2  0  0  0  0
 14 23  2  0  0  0  0
 14 26  1  0  0  0  0
 15 24  1  0  0  0  0
 15 26  2  0  0  0  0
 16 30  2  0  0  0  0
 16 31  1  0  0  0  0
 17 32  1  0  0  0  0
 18 32  1  0  0  0  0
 18 33  2  0  0  0  0
 18 34  1  0  0  0  0
 19 21  2  0  0  0  0
 19 40  1  0  0  0  0
 20 22  2  0  0  0  0
 20 41  1  0  0  0  0
 21 49  1  0  0  0  0
 22 42  1  0  0  0  0
 23 25  1  0  0  0  0
 23 52  1  0  0  0  0
 24 25  2  0  0  0  0
 24 61  1  0  0  0  0
 25 60  1  0  0  0  0
 26 72  1  0  0  0  0
 27 83  1  0  0  0  0
 28 84  1  0  0  0  0
 29 31  2  0  0  0  0
 29 83  1  0  0  0  0
 30 85  1  0  0  0  0
 31 86  1  0  0  0  0
 32 66  2  0  0  0  0
 33 67  1  0  0  0  0
 33 70  1  0  0  0  0
 34 71  1  0  0  0  0
 34 77  2  0  0  0  0
 35 50  1  0  0  0  0
 35 73  1  0  0  0  0
 35 78  2  0  0  0  0
 36 63  1  0  0  0  0
 36 68  1  0  0  0  0
 36 79  2  0  0  0  0
 37 62  1  0  0  0  0
 37 75  1  0  0  0  0
 37 80  2  0  0  0  0
 38 64  1  0  0  0  0
 38 74  1  0  0  0  0
 38 81  2  0  0  0  0
 39 69  1  0  0  0  0
 39 72  1  0  0  0  0
 39 82  2  0  0  0  0
 40 43  1  0  0  0  0
 41 50  1  0  0  0  0
 42 68  1  0  0  0  0
 43 45  1  0  0  0  0
 44 46  1  0  0  0  0
 44 47  1  0  0  0  0
 45 49  1  0  0  0  0
 46 51  1  0  0  0  0
 47 69  1  0  0  0  0
 48 51  1  0  0  0  0
 48 69  1  0  0  0  0
 49 73  1  0  0  0  0
 50 68  1  0  0  0  0
 51 67  1  0  0  0  0
 53 60  1  0  0  0  0
 54 64  1  0  0  0  0
 55 65  1  0  0  0  0
 56 65  1  0  0  0  0
 57 65  1  0  0  0  0
 58 75  1  0  0  0  0
 59 76  1  0  0  0  0
 61 75  1  0  0  0  0
 62 84  1  0  0  0  0
 63 65  1  0  0  0  0
 63 74  1  0  0  0  0
 64 76  1  0  0  0  0
 66 67  1  0  0  0  0
M  CHG  1  76   1
M  ISO  4  39 100  62 101  72 100  84 101
M  END
> <Batch ID>
0052

> <Smiles>
CCc1c(C)cc([100NH:0][100C:0](=O)N2CCCC(n3nc(-c4ccc(Oc5ccc(F)cc5F)cc4)c(C(N)=O)c3N)C2)cc1CN(C)C(=O)[101CH2:1][101O:1]c1ccc2c(c1)CN(C(=O)C(NC(=O)C(C)NC)C(C)(C)C)C(C(=O)NC1CCCc3ccccc31)C2

> <Shape>
0.224

> <Color>
0.072

> <Negative vol penalty>
0.000

$$$$

  -OEChem-04042322403D

 87 96  0     1  0  0  0  0  0999 V2000
  -16.4857  -25.5039   30.5267 C   0  0  0  0  0  0  0  0  0  0  0  0
  -17.4602  -24.5242   30.3653 C   0  0  0  0  0  0  0  0  0  0  0  0
  -25.2094  -10.8567   20.9121 C   0  0  0  0  0  0  0  0  0  0  0  0
  -31.1828  -21.2889   20.2046 C   0  0  0  0  0  0  0  0  0  0  0  0
  -28.9576  -20.6474   19.5161 C   0  0  0  0  0  0  0  0  0  0  0  0
  -15.9848  -26.1774   29.4134 C   0  0  0  0  0  0  0  0  0  0  0  0
  -17.9336  -24.2167   29.0902 C   0  0  0  0  0  0  0  0  0  0  0  0
  -23.8798  -22.0986   25.7032 C   0  0  0  0  0  0  0  0  0  0  0  0
  -24.0732  -11.5529   21.3241 C   0  0  0  0  0  0  0  0  0  0  0  0
  -26.2445  -11.5315   20.2649 C   0  0  0  0  0  0  0  0  0  0  0  0
  -31.0091  -22.5359   19.6044 C   0  0  0  0  0  0  0  0  0  0  0  0
  -28.7839  -21.8945   18.9158 C   0  0  0  0  0  0  0  0  0  0  0  0
  -24.3224  -21.1201   24.8141 C   0  0  0  0  0  0  0  0  0  0  0  0
  -29.4587  -25.4530   20.3252 C   0  0  0  0  0  0  0  0  0  0  0  0
  -29.8580  -26.5797   21.0439 C   0  0  0  0  0  0  0  0  0  0  0  0
  -23.4410  -22.4041   22.9719 C   0  0  0  0  0  0  0  0  0  0  0  0
  -31.4154  -27.1488   19.2867 C   0  0  0  0  0  0  0  0  0  0  0  0
  -30.1571  -20.3446   20.1604 C   0  0  0  0  0  0  0  0  0  0  0  0
  -30.6002  -18.7948   22.1377 C   0  0  0  0  0  0  0  0  0  0  0  0
  -16.4592  -25.8847   28.1251 C   0  0  0  0  0  0  0  0  0  0  0  0
  -23.2038  -23.2338   25.2335 C   0  0  0  0  0  0  0  0  0  0  0  0
  -17.4375  -24.8860   27.9585 C   0  0  0  0  0  0  0  0  0  0  0  0
  -22.9932  -23.3967   23.8569 C   0  0  0  0  0  0  0  0  0  0  0  0
  -23.9719  -12.9240   21.0887 C   0  0  0  0  0  0  0  0  0  0  0  0
  -25.0069  -13.5990   20.4415 C   0  0  0  0  0  0  0  0  0  0  0  0
  -26.1432  -12.9027   20.0296 C   0  0  0  0  0  0  0  0  0  0  0  0
  -29.8096  -22.8387   18.9600 C   0  0  0  0  0  0  0  0  0  0  0  0
  -24.1005  -21.2714   23.4485 C   0  0  0  0  0  0  0  0  0  0  0  0
  -30.0377  -25.1741   19.0872 C   0  0  0  0  0  0  0  0  0  0  0  0
  -30.8363  -27.4276   20.5247 C   0  0  0  0  0  0  0  0  0  0  0  0
  -31.0161  -26.0220   18.5680 C   0  0  0  0  0  0  0  0  0  0  0  0
  -30.3362  -19.0560   20.7798 C   0  0  0  0  0  0  0  0  0  0  0  0
  -30.6829  -17.4260   22.2143 C   0  0  0  0  0  0  0  0  0  0  0  0
  -24.2450  -17.8169   20.8705 C   0  0  0  0  0  0  0  0  0  0  0  0
  -23.5621  -17.9907   19.7288 C   0  0  0  0  0  0  0  0  0  0  0  0
  -30.7567  -19.7079   23.2320 C   0  0  0  0  0  0  0  0  0  0  0  0
  -20.2992  -24.4520   25.6617 C   0  0  0  0  0  0  0  0  0  0  0  0
  -21.5040  -26.9188   23.9338 C   0  0  0  0  0  0  0  0  0  0  0  0
  -23.8002  -28.0135   21.6588 C   0  0  0  0  0  0  0  0  0  0  0  0
  -28.3956  -13.0068   18.9061 C   0  0  0  0  0  0  0  0  0  0  0  0
  -15.8534  -26.6061   26.9472 C   0  0  0  0  0  0  0  0  0  0  0  0
  -22.7563  -24.2930   26.2032 C   0  0  0  0  0  0  0  0  0  0  0  0
  -22.2903  -24.6068   23.2999 C   0  0  0  0  0  0  0  0  0  0  0  0
  -23.6547  -18.0907   22.2297 C   0  0  0  0  0  0  0  0  0  0  0  0
  -16.6779  -26.4837   25.6683 C   0  0  0  0  0  0  0  0  0  0  0  0
  -31.8407  -13.5916   19.5892 C   0  0  0  0  0  0  0  0  0  0  0  0
  -17.1065  -25.0367   25.4459 C   0  0  0  0  0  0  0  0  0  0  0  0
  -31.8691  -15.0335   20.1014 C   0  0  0  0  0  0  0  0  0  0  0  0
  -26.0315  -18.4865   23.0003 C   0  0  0  0  0  0  0  0  0  0  0  0
  -30.8106  -13.4051   18.4767 C   0  0  0  0  0  0  0  0  0  0  0  0
  -29.4818  -15.3018   19.3167 C   0  0  0  0  0  0  0  0  0  0  0  0
  -26.5183  -18.3002   21.5640 C   0  0  0  0  0  0  0  0  0  0  0  0
  -17.9941  -24.5415   26.5941 C   0  0  1  0  0  0  0  0  0  0  0  0
  -21.6244  -25.1601   25.6606 C   0  0  1  0  0  0  0  0  0  0  0  0
  -30.4586  -15.5238   20.4830 C   0  0  2  0  0  0  0  0  0  0  0  0
  -24.5845  -18.9753   23.0606 C   0  0  1  0  0  0  0  0  0  1  0  0
  -22.7443  -13.6454   21.5402 C   0  0  0  0  0  0  0  0  0  0  0  0
  -25.0798  -29.6410   20.2405 C   0  0  0  0  0  0  0  0  0  0  0  0
  -19.1103  -26.6157   22.0661 C   0  0  0  0  0  0  0  0  0  0  0  0
  -20.3394  -27.9989   20.3796 C   0  0  0  0  0  0  0  0  0  0  0  0
  -19.7312  -28.9808   22.5906 C   0  0  0  0  0  0  0  0  0  0  0  0
  -25.7764  -28.5089   23.8055 C   0  0  0  0  0  0  0  0  0  0  0  0
  -24.8934  -15.0748   20.1906 C   0  0  0  0  0  0  0  0  0  0  0  0
  -25.7403  -15.9270   21.1304 C   0  0  0  0  0  0  0  0  0  0  0  0
  -21.5786  -27.2593   22.4649 C   0  0  1  0  0  0  0  0  0  0  0  0
  -24.7199  -29.2213   21.6572 C   0  0  2  0  0  0  0  0  0  0  0  0
  -20.2015  -27.6898   21.8857 C   0  0  0  0  0  0  0  0  0  0  0  0
  -30.2566  -17.9425   20.0465 N   0  0  0  0  0  0  0  0  0  0  0  0
  -30.4719  -16.9683   20.9469 N   0  0  0  0  0  0  0  0  0  0  0  0
  -21.8661  -25.6116   24.2888 N   0  0  0  0  0  0  0  0  0  0  0  0
  -29.4979  -13.8876   18.9113 N   0  0  0  0  0  0  0  0  0  0  0  0
  -30.9148  -16.5812   23.2414 N   0  0  0  0  0  0  0  0  0  0  0  0
  -32.0397  -20.1941   23.5183 N   0  0  0  0  0  0  0  0  0  0  0  0
  -27.2068  -13.5681   19.3710 N   0  0  0  0  0  0  0  0  0  0  0  0
  -19.3392  -25.0560   26.4510 N   0  0  0  0  0  0  0  0  0  0  0  0
  -22.6243  -28.2679   22.3323 N   0  0  0  0  0  0  0  0  0  0  0  0
  -25.6164  -17.3823   20.7725 N   0  3  1  0  0  0  0  0  0  0  0  0
  -25.9802  -28.9136   22.3907 N   0  3  0  0  0  0  0  0  0  0  0  0
  -29.7901  -20.0689   23.9453 O   0  0  0  0  0  0  0  0  0  0  0  0
  -20.1576  -23.4339   24.9945 O   0  0  0  0  0  0  0  0  0  0  0  0
  -21.1446  -27.7829   24.7373 O   0  0  0  0  0  0  0  0  0  0  0  0
  -24.0940  -26.9519   21.1136 O   0  0  0  0  0  0  0  0  0  0  0  0
  -28.5049  -11.8327   18.5435 O   0  0  0  0  0  0  0  0  0  0  0  0
  -29.6397  -24.0556   18.3744 O   0  0  0  0  0  0  0  0  0  0  0  0
  -24.5308  -20.3176   22.5785 O   0  0  0  0  0  0  0  0  0  1  0  0
  -31.2186  -28.5104   21.2144 F   0  0  0  0  0  0  0  0  0  0  0  0
  -31.5752  -25.7599   17.3786 F   0  0  0  0  0  0  0  0  0  0  0  0
  1  2  1  0  0  0  0
  1  6  2  0  0  0  0
  2  7  2  0  0  0  0
  3  9  1  0  0  0  0
  3 10  2  0  0  0  0
  4 11  2  0  0  0  0
  4 18  1  0  0  0  0
  5 12  1  0  0  0  0
  5 18  2  0  0  0  0
  6 20  1  0  0  0  0
  7 22  1  0  0  0  0
  8 13  2  0  0  0  0
  8 21  1  0  0  0  0
  9 24  2  0  0  0  0
 10 26  1  0  0  0  0
 11 27  1  0  0  0  0
 12 27  2  0  0  0  0
 13 28  1  0  0  0  0
 14 15  2  0  0  0  0
 14 29  1  0  0  0  0
 15 30  1  0  0  0  0
 16 23  1  0  0  0  0
 16 28  2  0  0  0  0
 17 30  2  0  0  0  0
 17 31  1  0  0  0  0
 18 32  1  0  0  0  0
 19 32  1  0  0  0  0
 19 33  2  0  0  0  0
 19 36  1  0  0  0  0
 20 22  2  0  0  0  0
 20 41  1  0  0  0  0
 21 23  2  0  0  0  0
 21 42  1  0  0  0  0
 22 53  1  0  0  0  0
 23 43  1  0  0  0  0
 24 25  1  0  0  0  0
 24 57  1  0  0  0  0
 25 26  2  0  0  0  0
 25 63  1  0  0  0  0
 26 74  1  0  0  0  0
 27 84  1  0  0  0  0
 28 85  1  0  0  0  0
 29 31  2  0  0  0  0
 29 84  1  0  0  0  0
 30 86  1  0  0  0  0
 31 87  1  0  0  0  0
 32 68  2  0  0  0  0
 33 69  1  0  0  0  0
 33 72  1  0  0  0  0
 34 35  2  0  0  0  0
 34 44  1  0  0  0  0
 34 77  1  0  0  0  0
 36 73  1  0  0  0  0
 36 79  2  0  0  0  0
 37 54  1  0  0  0  0
 37 75  1  0  0  0  0
 37 80  2  0  0  0  0
 38 65  1  0  0  0  0
 38 70  1  0  0  0  0
 38 81  2  0  0  0  0
 39 66  1  0  0  0  0
 39 76  1  0  0  0  0
 39 82  2  0  0  0  0
 40 71  1  0  0  0  0
 40 74  1  0  0  0  0
 40 83  2  0  0  0  0
 41 45  1  0  0  0  0
 42 54  1  0  0  0  0
 43 70  1  0  0  0  0
 44 56  1  0  0  0  0
 45 47  1  0  0  0  0
 46 48  1  0  0  0  0
 46 50  1  0  0  0  0
 47 53  1  0  0  0  0
 48 55  1  0  0  0  0
 49 52  1  0  0  0  0
 49 56  1  0  0  0  0
 50 71  1  0  0  0  0
 51 55  1  0  0  0  0
 51 71  1  0  0  0  0
 52 77  1  0  0  0  0
 53 75  1  0  0  0  0
 54 70  1  0  0  0  0
 55 69  1  0  0  0  0
 56 85  1  0  0  0  0
 58 66  1  0  0  0  0
 59 67  1  0  0  0  0
 60 67  1  0  0  0  0
 61 67  1  0  0  0  0
 62 78  1  0  0  0  0
 63 64  1  0  0  0  0
 64 77  1  0  0  0  0
 65 67  1  0  0  0  0
 65 76  1  0  0  0  0
 66 78  1  0  0  0  0
 68 69  1  0  0  0  0
M  CHG  2  77   1  78   1
M  ISO  4  40 100  56 101  74 100  85 101
M  END
> <Batch ID>
0052

> <Smiles>
C=C1C[101CH:1]([101O:1]c2ccc3c(c2)CN(C(=O)C(NC(=O)C(C)NC)C(C)(C)C)C(C(=O)NC2CCCc4ccccc42)C3)CCN1CCc1c(C)cccc1[100NH:0][100C:0](=O)N1CCCC(n2nc(-c3ccc(Oc4ccc(F)cc4F)cc3)c(C(N)=O)c2N)C1

> <Shape>
0.248

> <Color>
0.037

> <Negative vol penalty>
0.000

$$$$

  -OEChem-04042322403D

 85 93  0     1  0  0  0  0  0999 V2000
  -16.1763  -29.4513   23.4450 C   0  0  0  0  0  0  0  0  0  0  0  0
  -16.9731  -29.0282   22.3860 C   0  0  0  0  0  0  0  0  0  0  0  0
  -26.1033  -12.9473   21.6362 C   0  0  0  0  0  0  0  0  0  0  0  0
  -25.6801  -13.5258   19.3289 C   0  0  0  0  0  0  0  0  0  0  0  0
  -16.7080  -30.2887   24.4248 C   0  0  0  0  0  0  0  0  0  0  0  0
  -18.3020  -29.4432   22.3057 C   0  0  0  0  0  0  0  0  0  0  0  0
  -23.0428  -26.2163   20.1569 C   0  0  0  0  0  0  0  0  0  0  0  0
  -31.7157  -23.1724   16.0184 C   0  0  0  0  0  0  0  0  0  0  0  0
  -32.0602  -21.8359   16.2203 C   0  0  0  0  0  0  0  0  0  0  0  0
  -25.1416  -11.9399   21.5600 C   0  0  0  0  0  0  0  0  0  0  0  0
  -24.7184  -12.5183   19.2527 C   0  0  0  0  0  0  0  0  0  0  0  0
  -23.6910  -26.2103   18.9225 C   0  0  0  0  0  0  0  0  0  0  0  0
  -24.9215   -8.7932   20.3423 C   0  0  0  0  0  0  0  0  0  0  0  0
  -25.2422   -7.5487   20.8843 C   0  0  0  0  0  0  0  0  0  0  0  0
  -25.3522  -27.7268   19.7942 C   0  0  0  0  0  0  0  0  0  0  0  0
  -30.1623  -23.0510   17.8648 C   0  0  0  0  0  0  0  0  0  0  0  0
  -23.3764   -7.7318   22.4083 C   0  0  0  0  0  0  0  0  0  0  0  0
  -26.3725  -13.7404   20.5206 C   0  0  0  0  0  0  0  0  0  0  0  0
  -28.7402  -14.6680   20.3180 C   0  0  0  0  0  0  0  0  0  0  0  0
  -18.0468  -30.7063   24.3616 C   0  0  0  0  0  0  0  0  0  0  0  0
  -23.5392  -26.9874   21.2177 C   0  0  0  0  0  0  0  0  0  0  0  0
  -18.8517  -30.2880   23.2848 C   0  0  0  0  0  0  0  0  0  0  0  0
  -24.7100  -27.7388   21.0418 C   0  0  0  0  0  0  0  0  0  0  0  0
  -30.7668  -23.7799   16.8407 C   0  0  0  0  0  0  0  0  0  0  0  0
  -31.4557  -21.1069   17.2444 C   0  0  0  0  0  0  0  0  0  0  0  0
  -30.5067  -21.7145   18.0667 C   0  0  0  0  0  0  0  0  0  0  0  0
  -24.4492  -11.7254   20.3683 C   0  0  0  0  0  0  0  0  0  0  0  0
  -24.8442  -26.9679   18.7401 C   0  0  0  0  0  0  0  0  0  0  0  0
  -23.8284   -9.5071   20.8333 C   0  0  0  0  0  0  0  0  0  0  0  0
  -24.4696   -7.0179   21.9173 C   0  0  0  0  0  0  0  0  0  0  0  0
  -23.0558   -8.9764   21.8662 C   0  0  0  0  0  0  0  0  0  0  0  0
  -27.3655  -14.7816   20.5988 C   0  0  0  0  0  0  0  0  0  0  0  0
  -29.2413  -15.9273   20.5409 C   0  0  0  0  0  0  0  0  0  0  0  0
  -29.4967  -13.5264   19.8935 C   0  0  0  0  0  0  0  0  0  0  0  0
  -22.4260  -29.4183   22.9368 C   0  0  0  0  0  0  0  0  0  0  0  0
  -25.1433  -28.9473   24.6446 C   0  0  0  0  0  0  0  0  0  0  0  0
  -27.9064  -25.4949   16.7092 C   0  0  0  0  0  0  0  0  0  0  0  0
  -28.3385  -27.7517   24.7339 C   0  0  0  0  0  0  0  0  0  0  0  0
  -28.9232  -21.4608   20.0095 C   0  0  0  0  0  0  0  0  0  0  0  0
  -18.5636  -31.6498   25.4187 C   0  0  0  0  0  0  0  0  0  0  0  0
  -22.8435  -26.9621   22.5510 C   0  0  0  0  0  0  0  0  0  0  0  0
  -25.2951  -28.5677   22.1550 C   0  0  0  0  0  0  0  0  0  0  0  0
  -20.0867  -31.7412   25.4614 C   0  0  0  0  0  0  0  0  0  0  0  0
  -27.1170  -19.9835   22.6988 C   0  0  0  0  0  0  0  0  0  0  0  0
  -20.6514  -31.9053   24.0539 C   0  0  0  0  0  0  0  0  0  0  0  0
  -27.1337  -18.4891   22.3691 C   0  0  0  0  0  0  0  0  0  0  0  0
  -26.9888  -20.8404   21.4407 C   0  0  0  0  0  0  0  0  0  0  0  0
  -27.9948  -19.0627   20.0633 C   0  0  0  0  0  0  0  0  0  0  0  0
  -20.3048  -30.6966   23.1761 C   0  0  1  0  0  0  0  0  0  0  0  0
  -23.1480  -28.1875   23.4073 C   0  0  1  0  0  0  0  0  0  0  0  0
  -28.1878  -18.1610   21.2935 C   0  0  2  0  0  0  0  0  0  0  0  0
  -31.8435  -19.6767   17.4370 C   0  0  0  0  0  0  0  0  0  0  0  0
  -30.3223  -27.5442   26.2566 C   0  0  0  0  0  0  0  0  0  0  0  0
  -25.7674  -31.9052   24.2306 C   0  0  0  0  0  0  0  0  0  0  0  0
  -28.1289  -31.4310   24.9137 C   0  0  0  0  0  0  0  0  0  0  0  0
  -26.2646  -31.0455   26.5258 C   0  0  0  0  0  0  0  0  0  0  0  0
  -29.1153  -25.3385   14.5217 C   0  0  0  0  0  0  0  0  0  0  0  0
  -28.2842  -24.7960   24.5925 C   0  0  0  0  0  0  0  0  0  0  0  0
  -30.3968  -25.2186   16.6227 C   0  0  0  0  0  0  0  0  0  0  0  0
  -26.6261  -25.6290   15.8912 C   0  0  0  0  0  0  0  0  0  0  0  0
  -25.3781  -25.7758   16.7527 C   0  0  0  0  0  0  0  0  0  1  0  0
  -26.5573  -29.4707   24.5696 C   0  0  1  0  0  0  0  0  0  0  0  0
  -29.0578  -26.8741   25.7423 C   0  0  2  0  0  0  0  0  0  0  0  0
  -26.6677  -30.9491   25.0382 C   0  0  0  0  0  0  0  0  0  0  0  0
  -27.0155  -16.0154   20.9719 N   0  0  0  0  0  0  0  0  0  0  0  0
  -28.1777  -16.6888   20.9270 N   0  0  0  0  0  0  0  0  0  0  0  0
  -24.5749  -28.5151   23.4380 N   0  0  0  0  0  0  0  0  0  0  0  0
  -28.0223  -20.4768   20.4688 N   0  0  0  0  0  0  0  0  0  0  0  0
  -30.4836  -16.4464   20.4425 N   0  0  0  0  0  0  0  0  0  0  0  0
  -28.8251  -12.3097   19.7124 N   0  0  0  0  0  0  0  0  0  0  0  0
  -29.8822  -20.9909   19.1127 N   0  0  0  0  0  0  0  0  0  0  0  0
  -21.1699  -29.5796   23.4897 N   0  0  0  0  0  0  0  0  0  0  0  0
  -27.3787  -28.5386   25.3345 N   0  0  0  0  0  0  0  0  0  0  0  0
  -29.0922  -25.3562   15.9792 N   0  0  0  0  0  0  0  0  0  0  0  0
  -29.4348  -25.5731   25.1208 N   0  3  0  0  0  0  0  0  0  0  0  0
  -30.7344  -13.5797   19.6969 O   0  0  0  0  0  0  0  0  0  0  0  0
  -22.9689  -30.1671   22.1328 O   0  0  0  0  0  0  0  0  0  0  0  0
  -24.5669  -28.9164   25.7348 O   0  0  0  0  0  0  0  0  0  0  0  0
  -27.8676  -25.5119   17.9423 O   0  0  0  0  0  0  0  0  0  0  0  0
  -28.6043  -27.7430   23.5340 O   0  0  0  0  0  0  0  0  0  0  0  0
  -28.8664  -22.6280   20.4050 O   0  0  0  0  0  0  0  0  0  0  0  0
  -23.5109  -10.7423   20.2935 O   0  0  0  0  0  0  0  0  0  0  0  0
  -25.4784  -26.9643   17.5361 O   0  0  0  0  0  0  0  0  0  1  0  0
  -24.7767   -5.8220   22.4367 F   0  0  0  0  0  0  0  0  0  0  0  0
  -22.0037   -9.6570   22.3413 F   0  0  0  0  0  0  0  0  0  0  0  0
  1  2  1  0  0  0  0
  1  5  2  0  0  0  0
  2  6  2  0  0  0  0
  3 10  2  0  0  0  0
  3 18  1  0  0  0  0
  4 11  1  0  0  0  0
  4 18  2  0  0  0  0
  5 20  1  0  0  0  0
  6 22  1  0  0  0  0
  7 12  2  0  0  0  0
  7 21  1  0  0  0  0
  8  9  2  0  0  0  0
  8 24  1  0  0  0  0
  9 25  1  0  0  0  0
 10 27  1  0  0  0  0
 11 27  2  0  0  0  0
 12 28  1  0  0  0  0
 13 14  2  0  0  0  0
 13 29  1  0  0  0  0
 14 30  1  0  0  0  0
 15 23  1  0  0  0  0
 15 28  2  0  0  0  0
 16 24  2  0  0  0  0
 16 26  1  0  0  0  0
 17 30  2  0  0  0  0
 17 31  1  0  0  0  0
 18 32  1  0  0  0  0
 19 32  1  0  0  0  0
 19 33  2  0  0  0  0
 19 34  1  0  0  0  0
 20 22  2  0  0  0  0
 20 40  1  0  0  0  0
 21 23  2  0  0  0  0
 21 41  1  0  0  0  0
 22 49  1  0  0  0  0
 23 42  1  0  0  0  0
 24 59  1  0  0  0  0
 25 26  2  0  0  0  0
 25 52  1  0  0  0  0
 26 71  1  0  0  0  0
 27 82  1  0  0  0  0
 28 83  1  0  0  0  0
 29 31  2  0  0  0  0
 29 82  1  0  0  0  0
 30 84  1  0  0  0  0
 31 85  1  0  0  0  0
 32 65  2  0  0  0  0
 33 66  1  0  0  0  0
 33 69  1  0  0  0  0
 34 70  1  0  0  0  0
 34 76  2  0  0  0  0
 35 50  1  0  0  0  0
 35 72  1  0  0  0  0
 35 77  2  0  0  0  0
 36 62  1  0  0  0  0
 36 67  1  0  0  0  0
 36 78  2  0  0  0  0
 37 60  1  0  0  0  0
 37 74  1  0  0  0  0
 37 79  2  0  0  0  0
 38 63  1  0  0  0  0
 38 73  1  0  0  0  0
 38 80  2  0  0  0  0
 39 68  1  0  0  0  0
 39 71  1  0  0  0  0
 39 81  2  0  0  0  0
 40 43  1  0  0  0  0
 41 50  1  0  0  0  0
 42 67  1  0  0  0  0
 43 45  1  0  0  0  0
 44 46  1  0  0  0  0
 44 47  1  0  0  0  0
 45 49  1  0  0  0  0
 46 51  1  0  0  0  0
 47 68  1  0  0  0  0
 48 51  1  0  0  0  0
 48 68  1  0  0  0  0
 49 72  1  0  0  0  0
 50 67  1  0  0  0  0
 51 66  1  0  0  0  0
 53 63  1  0  0  0  0
 54 64  1  0  0  0  0
 55 64  1  0  0  0  0
 56 64  1  0  0  0  0
 57 74  1  0  0  0  0
 58 75  1  0  0  0  0
 59 74  1  0  0  0  0
 60 61  1  0  0  0  0
 61 83  1  0  0  0  0
 62 64  1  0  0  0  0
 62 73  1  0  0  0  0
 63 75  1  0  0  0  0
 65 66  1  0  0  0  0
M  CHG  1  75   1
M  ISO  4  39 100  61 101  71 100  83 101
M  END
> <Batch ID>
0052

> <Smiles>
CNC(C)C(=O)NC(C(=O)N1Cc2cc([101O:1][101CH2:1]CC(=O)N(C)Cc3ccc(C)c([100NH:0][100C:0](=O)N4CCCC(n5nc(-c6ccc(Oc7ccc(F)cc7F)cc6)c(C(N)=O)c5N)C4)c3)ccc2CC1C(=O)NC1CCCc2ccccc21)C(C)(C)C

> <Shape>
0.278

> <Color>
0.066

> <Negative vol penalty>
0.000

$$$$

  -OEChem-04042322403D

 83 91  0     1  0  0  0  0  0999 V2000
  -40.7980  -23.3645   12.1849 C   0  0  0  0  0  0  0  0  0  0  0  0
  -40.4047  -22.6970   13.3404 C   0  0  0  0  0  0  0  0  0  0  0  0
  -23.0757   -9.8679   19.9413 C   0  0  0  0  0  0  0  0  0  0  0  0
  -23.8346   -9.8760   22.2350 C   0  0  0  0  0  0  0  0  0  0  0  0
  -41.0565  -24.7339   12.2260 C   0  0  0  0  0  0  0  0  0  0  0  0
  -40.2709  -23.3984   14.5381 C   0  0  0  0  0  0  0  0  0  0  0  0
  -36.0328  -22.1913   17.0333 C   0  0  0  0  0  0  0  0  0  0  0  0
  -31.9136  -18.3343   24.1850 C   0  0  0  0  0  0  0  0  0  0  0  0
  -22.3316   -8.7150   20.1916 C   0  0  0  0  0  0  0  0  0  0  0  0
  -23.0904   -8.7231   22.4853 C   0  0  0  0  0  0  0  0  0  0  0  0
  -36.0320  -20.9918   17.7440 C   0  0  0  0  0  0  0  0  0  0  0  0
  -21.1045   -5.9871   23.8226 C   0  0  0  0  0  0  0  0  0  0  0  0
  -20.3477   -5.9443   24.9935 C   0  0  0  0  0  0  0  0  0  0  0  0
  -30.5253  -18.3417   24.0502 C   0  0  0  0  0  0  0  0  0  0  0  0
  -36.4472  -22.2083   19.7854 C   0  0  0  0  0  0  0  0  0  0  0  0
  -32.0654  -16.5843   22.5262 C   0  0  0  0  0  0  0  0  0  0  0  0
  -19.1038   -7.8814   24.2603 C   0  0  0  0  0  0  0  0  0  0  0  0
  -23.8273  -10.4484   20.9630 C   0  0  0  0  0  0  0  0  0  0  0  0
  -24.1696  -12.9734   20.8416 C   0  0  0  0  0  0  0  0  0  0  0  0
  -40.9164  -25.4543   13.4227 C   0  0  0  0  0  0  0  0  0  0  0  0
  -36.2519  -23.4093   17.6927 C   0  0  0  0  0  0  0  0  0  0  0  0
  -40.5291  -24.7785   14.5956 C   0  0  0  0  0  0  0  0  0  0  0  0
  -36.4476  -23.4220   19.0811 C   0  0  0  0  0  0  0  0  0  0  0  0
  -32.6837  -17.4557   23.4229 C   0  0  0  0  0  0  0  0  0  0  0  0
  -30.6771  -16.5916   22.3914 C   0  0  0  0  0  0  0  0  0  0  0  0
  -22.3389   -8.1426   21.4636 C   0  0  0  0  0  0  0  0  0  0  0  0
  -36.2421  -20.9999   19.1199 C   0  0  0  0  0  0  0  0  0  0  0  0
  -20.8610   -6.9771   22.8706 C   0  0  0  0  0  0  0  0  0  0  0  0
  -19.3473   -6.8914   25.2124 C   0  0  0  0  0  0  0  0  0  0  0  0
  -19.8606   -7.9242   23.0894 C   0  0  0  0  0  0  0  0  0  0  0  0
  -29.9071  -17.4703   23.1534 C   0  0  0  0  0  0  0  0  0  0  0  0
  -24.5967  -11.6390   20.7049 C   0  0  0  0  0  0  0  0  0  0  0  0
  -25.2620  -13.7225   20.4784 C   0  0  0  0  0  0  0  0  0  0  0  0
  -22.8990  -13.4897   21.2597 C   0  0  0  0  0  0  0  0  0  0  0  0
  -38.4611  -25.6881   17.5195 C   0  0  0  0  0  0  0  0  0  0  0  0
  -36.4953  -27.2106   19.6027 C   0  0  0  0  0  0  0  0  0  0  0  0
  -35.2017  -18.5614   21.5935 C   0  0  0  0  0  0  0  0  0  0  0  0
  -34.0612  -26.9825   21.9838 C   0  0  0  0  0  0  0  0  0  0  0  0
  -30.7283  -14.7673   20.6549 C   0  0  0  0  0  0  0  0  0  0  0  0
  -41.2528  -26.9245   13.4286 C   0  0  0  0  0  0  0  0  0  0  0  0
  -36.2231  -24.6968   16.9157 C   0  0  0  0  0  0  0  0  0  0  0  0
  -36.6673  -24.7047   19.8393 C   0  0  0  0  0  0  0  0  0  0  0  0
  -40.7250  -27.6652   14.6546 C   0  0  0  0  0  0  0  0  0  0  0  0
  -29.6145  -12.3523   18.2875 C   0  0  0  0  0  0  0  0  0  0  0  0
  -41.0340  -26.8811   15.9260 C   0  0  0  0  0  0  0  0  0  0  0  0
  -28.1747  -12.0612   18.7166 C   0  0  0  0  0  0  0  0  0  0  0  0
  -30.5292  -12.5817   19.4894 C   0  0  0  0  0  0  0  0  0  0  0  0
  -28.6218  -13.3072   20.8694 C   0  0  0  0  0  0  0  0  0  0  0  0
  -40.3488  -25.5094   15.9084 C   0  0  1  0  0  0  0  0  0  0  0  0
  -36.9683  -25.8316   17.6117 C   0  0  1  0  0  0  0  0  0  0  0  0
  -27.6494  -13.1335   19.6913 C   0  0  2  0  0  0  0  0  0  0  0  0
  -32.6822  -28.3953   23.5329 C   0  0  0  0  0  0  0  0  0  0  0  0
  -38.9087  -27.5487   21.4388 C   0  0  0  0  0  0  0  0  0  0  0  0
  -37.3266  -28.0802   23.3051 C   0  0  0  0  0  0  0  0  0  0  0  0
  -37.4196  -29.5526   21.2936 C   0  0  0  0  0  0  0  0  0  0  0  0
  -31.5327  -26.1047   20.7209 C   0  0  0  0  0  0  0  0  0  0  0  0
  -34.1780  -17.4483   23.5680 C   0  0  0  0  0  0  0  0  0  0  0  0
  -35.8089  -19.8832   21.1744 C   0  0  0  0  0  0  0  0  0  1  0  0
  -36.3644  -27.2628   21.1057 C   0  0  1  0  0  0  0  0  0  0  0  0
  -32.7554  -27.7352   22.1648 C   0  0  2  0  0  0  0  0  0  0  0  0
  -37.5026  -28.0866   21.7715 C   0  0  0  0  0  0  0  0  0  0  0  0
  -25.8617  -11.5427   20.2872 N   0  0  0  0  0  0  0  0  0  0  0  0
  -26.2389  -12.8261   20.1583 N   0  0  0  0  0  0  0  0  0  0  0  0
  -36.6366  -25.9368   19.0341 N   0  0  0  0  0  0  0  0  0  0  0  0
  -29.9700  -13.6131   20.3659 N   0  0  0  0  0  0  0  0  0  0  0  0
  -25.4727  -15.0539   20.4047 N   0  0  0  0  0  0  0  0  0  0  0  0
  -21.8868  -12.5808   21.5971 N   0  0  0  0  0  0  0  0  0  0  0  0
  -30.0808  -15.6929   21.4725 N   0  0  0  0  0  0  0  0  0  0  0  0
  -38.9430  -25.6425   16.2252 N   0  0  0  0  0  0  0  0  0  0  0  0
  -34.7900  -18.5834   22.9169 N   0  0  0  0  0  0  0  0  0  0  0  0
  -35.0230  -27.7657   21.3815 N   0  0  0  0  0  0  0  0  0  0  0  0
  -31.5985  -26.8056   22.0290 N   0  3  0  0  0  0  0  0  0  0  0  0
  -22.6630  -14.7203   21.3163 O   0  0  0  0  0  0  0  0  0  0  0  0
  -39.1267  -25.6250   18.5465 O   0  0  0  0  0  0  0  0  0  0  0  0
  -36.4660  -28.2609   18.9563 O   0  0  0  0  0  0  0  0  0  0  0  0
  -35.1018  -17.6045   20.8305 O   0  0  0  0  0  0  0  0  0  0  0  0
  -34.2140  -25.8175   22.3444 O   0  0  0  0  0  0  0  0  0  0  0  0
  -31.8576  -14.9356   20.1876 O   0  0  0  0  0  0  0  0  0  0  0  0
  -21.6127   -7.0178   21.7082 O   0  0  0  0  0  0  0  0  0  0  0  0
  -36.2426  -19.8306   19.8159 O   0  0  0  0  0  0  0  0  0  1  0  0
  -18.6196   -6.8493   26.3361 F   0  0  0  0  0  0  0  0  0  0  0  0
  -19.6212   -8.8769   22.1779 F   0  0  0  0  0  0  0  0  0  0  0  0
  -28.1852  -17.5127   23.0186 Cl  0  0  0  0  0  0  0  0  0  0  0  0
  1  2  1  0  0  0  0
  1  5  2  0  0  0  0
  2  6  2  0  0  0  0
  3  9  2  0  0  0  0
  3 18  1  0  0  0  0
  4 10  1  0  0  0  0
  4 18  2  0  0  0  0
  5 20  1  0  0  0  0
  6 22  1  0  0  0  0
  7 11  2  0  0  0  0
  7 21  1  0  0  0  0
  8 14  2  0  0  0  0
  8 24  1  0  0  0  0
  9 26  1  0  0  0  0
 10 26  2  0  0  0  0
 11 27  1  0  0  0  0
 12 13  2  0  0  0  0
 12 28  1  0  0  0  0
 13 29  1  0  0  0  0
 14 31  1  0  0  0  0
 15 23  1  0  0  0  0
 15 27  2  0  0  0  0
 16 24  2  0  0  0  0
 16 25  1  0  0  0  0
 17 29  2  0  0  0  0
 17 30  1  0  0  0  0
 18 32  1  0  0  0  0
 19 32  1  0  0  0  0
 19 33  2  0  0  0  0
 19 34  1  0  0  0  0
 20 22  2  0  0  0  0
 20 40  1  0  0  0  0
 21 23  2  0  0  0  0
 21 41  1  0  0  0  0
 22 49  1  0  0  0  0
 23 42  1  0  0  0  0
 24 57  1  0  0  0  0
 25 31  2  0  0  0  0
 25 68  1  0  0  0  0
 26 79  1  0  0  0  0
 27 80  1  0  0  0  0
 28 30  2  0  0  0  0
 28 79  1  0  0  0  0
 29 81  1  0  0  0  0
 30 82  1  0  0  0  0
 31 83  1  0  0  0  0
 32 62  2  0  0  0  0
 33 63  1  0  0  0  0
 33 66  1  0  0  0  0
 34 67  1  0  0  0  0
 34 73  2  0  0  0  0
 35 50  1  0  0  0  0
 35 69  1  0  0  0  0
 35 74  2  0  0  0  0
 36 59  1  0  0  0  0
 36 64  1  0  0  0  0
 36 75  2  0  0  0  0
 37 58  1  0  0  0  0
 37 70  1  0  0  0  0
 37 76  2  0  0  0  0
 38 60  1  0  0  0  0
 38 71  1  0  0  0  0
 38 77  2  0  0  0  0
 39 65  1  0  0  0  0
 39 68  1  0  0  0  0
 39 78  2  0  0  0  0
 40 43  1  0  0  0  0
 41 50  1  0  0  0  0
 42 64  1  0  0  0  0
 43 45  1  0  0  0  0
 44 46  1  0  0  0  0
 44 47  1  0  0  0  0
 45 49  1  0  0  0  0
 46 51  1  0  0  0  0
 47 65  1  0  0  0  0
 48 51  1  0  0  0  0
 48 65  1  0  0  0  0
 49 69  1  0  0  0  0
 50 64  1  0  0  0  0
 51 63  1  0  0  0  0
 52 60  1  0  0  0  0
 53 61  1  0  0  0  0
 54 61  1  0  0  0  0
 55 61  1  0  0  0  0
 56 72  1  0  0  0  0
 57 70  1  0  0  0  0
 58 80  1  0  0  0  0
 59 61  1  0  0  0  0
 59 71  1  0  0  0  0
 60 72  1  0  0  0  0
 62 63  1  0  0  0  0
M  CHG  1  72   1
M  ISO  4  39 100  58 101  68 100  80 101
M  END
> <Batch ID>
0052

> <Smiles>
CNC(C)C(=O)NC(C(=O)N1Cc2cc([101O:1][101CH2:1]C(=O)NCc3ccc(Cl)c([100NH:0][100C:0](=O)N4CCCC(n5nc(-c6ccc(Oc7ccc(F)cc7F)cc6)c(C(N)=O)c5N)C4)c3)ccc2CC1C(=O)NC1CCCc2ccccc21)C(C)(C)C

> <Shape>
0.168

> <Color>
0.191

> <Negative vol penalty>
0.000

$$$$

  -OEChem-04042322403D

 84 92  0     1  0  0  0  0  0999 V2000
  -19.2073  -16.7800   21.1700 C   0  0  0  0  0  0  0  0  0  0  0  0
  -20.5900  -16.8945   21.0680 C   0  0  0  0  0  0  0  0  0  0  0  0
  -22.8134  -30.8912   20.8048 C   0  0  0  0  0  0  0  0  0  0  0  0
  -22.6645  -29.0238   22.3304 C   0  0  0  0  0  0  0  0  0  0  0  0
  -18.6474  -15.7226   21.8857 C   0  0  0  0  0  0  0  0  0  0  0  0
  -21.4137  -15.9521   21.6826 C   0  0  0  0  0  0  0  0  0  0  0  0
  -25.1921  -14.4208   18.6786 C   0  0  0  0  0  0  0  0  0  0  0  0
  -28.3410  -23.2012   22.5081 C   0  0  0  0  0  0  0  0  0  0  0  0
  -21.4293  -30.8623   20.6342 C   0  0  0  0  0  0  0  0  0  0  0  0
  -21.2804  -28.9948   22.1599 C   0  0  0  0  0  0  0  0  0  0  0  0
  -26.2844  -15.2765   18.5430 C   0  0  0  0  0  0  0  0  0  0  0  0
  -18.5967  -30.7093   23.2908 C   0  0  0  0  0  0  0  0  0  0  0  0
  -28.3084  -21.8302   22.7629 C   0  0  0  0  0  0  0  0  0  0  0  0
  -17.8072  -30.5754   24.4328 C   0  0  0  0  0  0  0  0  0  0  0  0
  -27.5127  -13.9521   20.1419 C   0  0  0  0  0  0  0  0  0  0  0  0
  -29.5515  -22.7914   20.4578 C   0  0  0  0  0  0  0  0  0  0  0  0
  -16.8787  -28.5267   23.5509 C   0  0  0  0  0  0  0  0  0  0  0  0
  -23.4310  -29.9719   21.6528 C   0  0  0  0  0  0  0  0  0  0  0  0
  -25.5840  -30.7298   22.7920 C   0  0  0  0  0  0  0  0  0  0  0  0
  -19.4645  -14.7613   22.5013 C   0  0  0  0  0  0  0  0  0  0  0  0
  -25.2481  -13.3288   19.5565 C   0  0  0  0  0  0  0  0  0  0  0  0
  -20.8643  -14.8816   22.4084 C   0  0  0  0  0  0  0  0  0  0  0  0
  -26.4206  -13.0826   20.2849 C   0  0  0  0  0  0  0  0  0  0  0  0
  -29.5190  -21.4204   20.7126 C   0  0  0  0  0  0  0  0  0  0  0  0
  -28.9625  -23.6818   21.3555 C   0  0  0  0  0  0  0  0  0  0  0  0
  -20.6628  -29.9141   21.3118 C   0  0  0  0  0  0  0  0  0  0  0  0
  -27.4439  -15.0439   19.2768 C   0  0  0  0  0  0  0  0  0  0  0  0
  -18.5272  -29.7519   22.2787 C   0  0  0  0  0  0  0  0  0  0  0  0
  -16.9482  -29.4842   24.5630 C   0  0  0  0  0  0  0  0  0  0  0  0
  -28.8974  -20.9398   21.8652 C   0  0  0  0  0  0  0  0  0  0  0  0
  -17.6682  -28.6606   22.4088 C   0  0  0  0  0  0  0  0  0  0  0  0
  -24.8608  -30.0010   21.8289 C   0  0  0  0  0  0  0  0  0  0  0  0
  -26.8984  -30.4194   22.5417 C   0  0  0  0  0  0  0  0  0  0  0  0
  -25.1101  -31.6087   23.8209 C   0  0  0  0  0  0  0  0  0  0  0  0
  -23.6389  -12.4547   22.1547 C   0  0  0  0  0  0  0  0  0  0  0  0
  -25.4064   -9.7502   21.8645 C   0  0  0  0  0  0  0  0  0  0  0  0
  -29.3062  -18.1306   19.4195 C   0  0  0  0  0  0  0  0  0  0  0  0
  -28.2357   -8.2510   20.6836 C   0  0  0  0  0  0  0  0  0  0  0  0
  -29.5700  -25.7171   20.0009 C   0  0  0  0  0  0  0  0  0  0  0  0
  -18.8142  -13.6625   23.3041 C   0  0  0  0  0  0  0  0  0  0  0  0
  -24.0707  -12.3997   19.6715 C   0  0  0  0  0  0  0  0  0  0  0  0
  -26.5388  -11.9124   21.2257 C   0  0  0  0  0  0  0  0  0  0  0  0
  -19.7505  -12.4965   23.6107 C   0  0  0  0  0  0  0  0  0  0  0  0
  -29.8268  -29.1192   18.9825 C   0  0  0  0  0  0  0  0  0  0  0  0
  -21.0978  -13.0102   24.1082 C   0  0  0  0  0  0  0  0  0  0  0  0
  -28.6519  -29.7989   19.6894 C   0  0  0  0  0  0  0  0  0  0  0  0
  -29.4698  -27.7084   18.5178 C   0  0  0  0  0  0  0  0  0  0  0  0
  -27.7463  -27.5113   20.2671 C   0  0  0  0  0  0  0  0  0  0  0  0
  -21.7906  -13.8654   23.0404 C   0  0  1  0  0  0  0  0  0  0  0  0
  -24.0542  -11.6152   20.9797 C   0  0  1  0  0  0  0  0  0  0  0  0
  -28.0785  -28.9105   20.8108 C   0  0  2  0  0  0  0  0  0  0  0  0
  -29.4200   -6.0391   20.6363 C   0  0  0  0  0  0  0  0  0  0  0  0
  -26.2717  -10.1542   24.7624 C   0  0  0  0  0  0  0  0  0  0  0  0
  -28.1300   -8.5250   24.3616 C   0  0  0  0  0  0  0  0  0  0  0  0
  -25.7573   -7.7852   24.1479 C   0  0  0  0  0  0  0  0  0  0  0  0
  -28.0908  -20.0886   18.4494 C   0  0  0  0  0  0  0  0  0  0  0  0
  -28.1160   -8.1190   17.7295 C   0  0  0  0  0  0  0  0  0  0  0  0
  -30.1525  -20.4637   19.7443 C   0  0  0  0  0  0  0  0  0  0  0  0
  -28.2355  -17.2404   18.8246 C   0  0  0  0  0  0  0  0  0  1  0  0
  -26.7504   -9.2913   22.3766 C   0  0  1  0  0  0  0  0  0  0  0  0
  -28.4454   -6.9580   19.9164 C   0  0  2  0  0  0  0  0  0  0  0  0
  -26.7247   -8.9622   23.8959 C   0  0  0  0  0  0  0  0  0  0  0  0
  -25.6502  -29.2819   21.0266 N   0  0  0  0  0  0  0  0  0  0  0  0
  -26.8831  -29.5574   21.4849 N   0  0  0  0  0  0  0  0  0  0  0  0
  -25.3585  -11.0364   21.3082 N   0  0  0  0  0  0  0  0  0  0  0  0
  -28.9373  -26.9236   19.6338 N   0  0  0  0  0  0  0  0  0  0  0  0
  -28.0541  -30.8026   23.1247 N   0  0  0  0  0  0  0  0  0  0  0  0
  -23.7290  -31.8160   23.9387 N   0  0  0  0  0  0  0  0  0  0  0  0
  -28.9947  -25.0746   21.0967 N   0  0  0  0  0  0  0  0  0  0  0  0
  -22.3858  -13.0224   22.0257 N   0  0  0  0  0  0  0  0  0  0  0  0
  -27.1496   -8.1726   21.5295 N   0  0  0  0  0  0  0  0  0  0  0  0
  -29.1873  -19.5052   19.2124 N   0  0  0  0  0  0  0  0  0  0  0  0
  -28.9857   -7.2441   18.5572 N   0  3  0  0  0  0  0  0  0  0  0  0
  -25.8894  -32.2057   24.6019 O   0  0  0  0  0  0  0  0  0  0  0  0
  -24.3986  -12.5770   23.1084 O   0  0  0  0  0  0  0  0  0  0  0  0
  -24.4365   -8.9927   21.9482 O   0  0  0  0  0  0  0  0  0  0  0  0
  -30.2231  -17.6080   20.0608 O   0  0  0  0  0  0  0  0  0  0  0  0
  -28.9649   -9.2312   20.5491 O   0  0  0  0  0  0  0  0  0  0  0  0
  -30.5666  -25.2996   19.4055 O   0  0  0  0  0  0  0  0  0  0  0  0
  -19.3122  -29.8857   21.1458 O   0  0  0  0  0  0  0  0  0  0  0  0
  -28.5113  -15.8779   19.1468 O   0  0  0  0  0  0  0  0  0  1  0  0
  -16.1913  -29.3550   25.6605 F   0  0  0  0  0  0  0  0  0  0  0  0
  -28.8620  -19.6243   22.1193 F   0  0  0  0  0  0  0  0  0  0  0  0
  -17.5979  -27.7369   21.4404 F   0  0  0  0  0  0  0  0  0  0  0  0
  1  2  1  0  0  0  0
  1  5  2  0  0  0  0
  2  6  2  0  0  0  0
  3  9  2  0  0  0  0
  3 18  1  0  0  0  0
  4 10  1  0  0  0  0
  4 18  2  0  0  0  0
  5 20  1  0  0  0  0
  6 22  1  0  0  0  0
  7 11  2  0  0  0  0
  7 21  1  0  0  0  0
  8 13  2  0  0  0  0
  8 25  1  0  0  0  0
  9 26  1  0  0  0  0
 10 26  2  0  0  0  0
 11 27  1  0  0  0  0
 12 14  2  0  0  0  0
 12 28  1  0  0  0  0
 13 30  1  0  0  0  0
 14 29  1  0  0  0  0
 15 23  1  0  0  0  0
 15 27  2  0  0  0  0
 16 24  1  0  0  0  0
 16 25  2  0  0  0  0
 17 29  2  0  0  0  0
 17 31  1  0  0  0  0
 18 32  1  0  0  0  0
 19 32  1  0  0  0  0
 19 33  2  0  0  0  0
 19 34  1  0  0  0  0
 20 22  2  0  0  0  0
 20 40  1  0  0  0  0
 21 23  2  0  0  0  0
 21 41  1  0  0  0  0
 22 49  1  0  0  0  0
 23 42  1  0  0  0  0
 24 30  2  0  0  0  0
 24 58  1  0  0  0  0
 25 69  1  0  0  0  0
 26 80  1  0  0  0  0
 27 81  1  0  0  0  0
 28 31  2  0  0  0  0
 28 80  1  0  0  0  0
 29 82  1  0  0  0  0
 30 83  1  0  0  0  0
 31 84  1  0  0  0  0
 32 63  2  0  0  0  0
 33 64  1  0  0  0  0
 33 67  1  0  0  0  0
 34 68  1  0  0  0  0
 34 74  2  0  0  0  0
 35 50  1  0  0  0  0
 35 70  1  0  0  0  0
 35 75  2  0  0  0  0
 36 60  1  0  0  0  0
 36 65  1  0  0  0  0
 36 76  2  0  0  0  0
 37 59  1  0  0  0  0
 37 72  1  0  0  0  0
 37 77  2  0  0  0  0
 38 61  1  0  0  0  0
 38 71  1  0  0  0  0
 38 78  2  0  0  0  0
 39 66  1  0  0  0  0
 39 69  1  0  0  0  0
 39 79  2  0  0  0  0
 40 43  1  0  0  0  0
 41 50  1  0  0  0  0
 42 65  1  0  0  0  0
 43 45  1  0  0  0  0
 44 46  1  0  0  0  0
 44 47  1  0  0  0  0
 45 49  1  0  0  0  0
 46 51  1  0  0  0  0
 47 66  1  0  0  0  0
 48 51  1  0  0  0  0
 48 66  1  0  0  0  0
 49 70  1  0  0  0  0
 50 65  1  0  0  0  0
 51 64  1  0  0  0  0
 52 61  1  0  0  0  0
 53 62  1  0  0  0  0
 54 62  1  0  0  0  0
 55 62  1  0  0  0  0
 56 72  1  0  0  0  0
 57 73  1  0  0  0  0
 58 72  1  0  0  0  0
 59 81  1  0  0  0  0
 60 62  1  0  0  0  0
 60 71  1  0  0  0  0
 61 73  1  0  0  0  0
 63 64  1  0  0  0  0
M  CHG  1  73   1
M  ISO  4  39 100  59 101  69 100  81 101
M  END
> <Batch ID>
0052

> <Smiles>
CNC(C)C(=O)NC(C(=O)N1Cc2cc([101O:1][101CH2:1]C(=O)N(C)Cc3cc([100NH:0][100C:0](=O)N4CCCC(n5nc(-c6ccc(Oc7ccc(F)cc7F)cc6)c(C(N)=O)c5N)C4)ccc3F)ccc2CC1C(=O)NC1CCCc2ccccc21)C(C)(C)C

> <Shape>
0.282

> <Color>
0.092

> <Negative vol penalty>
0.000

$$$$

  -OEChem-04042322403D

 84 92  0     1  0  0  0  0  0999 V2000
  -24.1623  -23.5137   14.9332 C   0  0  0  0  0  0  0  0  0  0  0  0
  -24.2060  -22.4686   15.8505 C   0  0  0  0  0  0  0  0  0  0  0  0
  -26.3531  -25.9572   17.7045 C   0  0  0  0  0  0  0  0  0  0  0  0
  -26.1952  -25.6301   20.0930 C   0  0  0  0  0  0  0  0  0  0  0  0
  -23.3091  -24.5948   15.1502 C   0  0  0  0  0  0  0  0  0  0  0  0
  -23.3973  -22.5047   16.9859 C   0  0  0  0  0  0  0  0  0  0  0  0
  -21.1144  -18.0750   17.8866 C   0  0  0  0  0  0  0  0  0  0  0  0
  -27.6255  -12.0881   19.8813 C   0  0  0  0  0  0  0  0  0  0  0  0
  -25.4565  -27.0222   17.7911 C   0  0  0  0  0  0  0  0  0  0  0  0
  -25.2986  -26.6951   20.1796 C   0  0  0  0  0  0  0  0  0  0  0  0
  -21.8825  -17.0708   18.4744 C   0  0  0  0  0  0  0  0  0  0  0  0
  -25.4389  -30.0715   20.2005 C   0  0  0  0  0  0  0  0  0  0  0  0
  -28.4625  -11.2862   19.1054 C   0  0  0  0  0  0  0  0  0  0  0  0
  -25.6338  -30.9992   21.2237 C   0  0  0  0  0  0  0  0  0  0  0  0
  -20.9069  -17.5884   20.6190 C   0  0  0  0  0  0  0  0  0  0  0  0
  -30.0979  -13.0631   19.0331 C   0  0  0  0  0  0  0  0  0  0  0  0
  -23.4434  -30.4871   22.1052 C   0  0  0  0  0  0  0  0  0  0  0  0
  -26.7224  -25.2611   18.8555 C   0  0  0  0  0  0  0  0  0  0  0  0
  -29.0510  -24.2193   18.8677 C   0  0  0  0  0  0  0  0  0  0  0  0
  -22.4825  -24.6396   16.2839 C   0  0  0  0  0  0  0  0  0  0  0  0
  -20.2435  -18.8520   18.6638 C   0  0  0  0  0  0  0  0  0  0  0  0
  -22.5333  -23.5881   17.2189 C   0  0  0  0  0  0  0  0  0  0  0  0
  -20.1270  -18.6002   20.0382 C   0  0  0  0  0  0  0  0  0  0  0  0
  -28.0247  -13.3775   20.2331 C   0  0  0  0  0  0  0  0  0  0  0  0
  -29.2609  -13.8650   19.8090 C   0  0  0  0  0  0  0  0  0  0  0  0
  -24.9293  -27.3912   19.0286 C   0  0  0  0  0  0  0  0  0  0  0  0
  -21.7809  -16.8293   19.8413 C   0  0  0  0  0  0  0  0  0  0  0  0
  -24.2462  -29.3517   20.1295 C   0  0  0  0  0  0  0  0  0  0  0  0
  -29.6987  -11.7736   18.6813 C   0  0  0  0  0  0  0  0  0  0  0  0
  -24.6361  -31.2070   22.1761 C   0  0  0  0  0  0  0  0  0  0  0  0
  -23.2485  -29.5594   21.0819 C   0  0  0  0  0  0  0  0  0  0  0  0
  -27.6481  -24.1605   18.7667 C   0  0  0  0  0  0  0  0  0  0  0  0
  -29.4610  -22.9171   18.7173 C   0  0  0  0  0  0  0  0  0  0  0  0
  -29.9070  -25.3500   19.0786 C   0  0  0  0  0  0  0  0  0  0  0  0
  -20.0213  -21.9428   19.3720 C   0  0  0  0  0  0  0  0  0  0  0  0
  -17.2637  -21.0164   20.8072 C   0  0  0  0  0  0  0  0  0  0  0  0
  -24.7676  -15.0422   20.8581 C   0  0  0  0  0  0  0  0  0  0  0  0
  -15.4481  -18.5134   22.2512 C   0  0  0  0  0  0  0  0  0  0  0  0
  -28.9911  -17.6086   19.9603 C   0  0  0  0  0  0  0  0  0  0  0  0
  -21.6112  -25.8516   16.4996 C   0  0  0  0  0  0  0  0  0  0  0  0
  -19.4021  -19.9136   18.0100 C   0  0  0  0  0  0  0  0  0  0  0  0
  -19.1918  -19.3927   20.9133 C   0  0  0  0  0  0  0  0  0  0  0  0
  -20.5125  -25.6351   17.5370 C   0  0  0  0  0  0  0  0  0  0  0  0
  -26.9015  -18.8047   17.2584 C   0  0  0  0  0  0  0  0  0  0  0  0
  -21.0796  -24.9619   18.7827 C   0  0  0  0  0  0  0  0  0  0  0  0
  -27.0293  -20.3202   17.4231 C   0  0  0  0  0  0  0  0  0  0  0  0
  -26.8622  -18.1028   18.6126 C   0  0  0  0  0  0  0  0  0  0  0  0
  -28.1509  -19.9213   19.6643 C   0  0  0  0  0  0  0  0  0  0  0  0
  -21.6531  -23.5792   18.4499 C   0  0  1  0  0  0  0  0  0  0  0  0
  -18.9287  -20.9862   18.9861 C   0  0  1  0  0  0  0  0  0  0  0  0
  -28.2186  -20.6870   18.3304 C   0  0  2  0  0  0  0  0  0  0  0  0
  -13.2434  -18.0691   23.3645 C   0  0  0  0  0  0  0  0  0  0  0  0
  -18.2728  -22.3790   23.3439 C   0  0  0  0  0  0  0  0  0  0  0  0
  -16.5354  -21.1159   24.6300 C   0  0  0  0  0  0  0  0  0  0  0  0
  -15.8446  -22.7359   22.8634 C   0  0  0  0  0  0  0  0  0  0  0  0
  -14.6672  -16.5480   20.1809 C   0  0  0  0  0  0  0  0  0  0  0  0
  -27.1062  -14.2222   21.0680 C   0  0  0  0  0  0  0  0  0  0  0  0
  -29.7091  -15.2428   20.1715 C   0  0  0  0  0  0  0  0  0  0  0  0
  -23.7951  -15.5649   19.8225 C   0  0  0  0  0  0  0  0  0  1  0  0
  -16.8863  -20.5338   22.1869 C   0  0  1  0  0  0  0  0  0  0  0  0
  -14.0108  -18.0674   22.0516 C   0  0  2  0  0  0  0  0  0  0  0  0
  -16.9039  -21.6773   23.2402 C   0  0  0  0  0  0  0  0  0  0  0  0
  -27.1971  -22.9191   18.5673 N   0  0  0  0  0  0  0  0  0  0  0  0
  -28.3232  -22.1860   18.5418 N   0  0  0  0  0  0  0  0  0  0  0  0
  -18.3950  -20.4240   20.2284 N   0  0  0  0  0  0  0  0  0  0  0  0
  -28.0311  -18.4801   19.4198 N   0  0  0  0  0  0  0  0  0  0  0  0
  -30.6803  -22.3377   18.7192 N   0  0  0  0  0  0  0  0  0  0  0  0
  -29.3208  -26.6161   19.2125 N   0  0  0  0  0  0  0  0  0  0  0  0
  -20.5869  -22.6117   18.3033 N   0  0  0  0  0  0  0  0  0  0  0  0
  -25.9991  -14.7403   20.2981 N   0  0  0  0  0  0  0  0  0  0  0  0
  -15.5950  -19.8693   22.0478 N   0  0  0  0  0  0  0  0  0  0  0  0
  -28.8012  -16.2592   19.6883 N   0  0  0  0  0  0  0  0  0  0  0  0
  -13.9700  -16.6896   21.4851 N   0  3  0  0  0  0  0  0  0  0  0  0
  -31.1558  -25.2432   19.1300 O   0  0  0  0  0  0  0  0  0  0  0  0
  -20.3275  -22.0660   20.5521 O   0  0  0  0  0  0  0  0  0  0  0  0
  -16.5758  -21.8819   20.2601 O   0  0  0  0  0  0  0  0  0  0  0  0
  -24.4705  -14.9117   22.0424 O   0  0  0  0  0  0  0  0  0  0  0  0
  -16.3495  -17.7374   22.5606 O   0  0  0  0  0  0  0  0  0  0  0  0
  -29.9503  -18.0042   20.6316 O   0  0  0  0  0  0  0  0  0  0  0  0
  -24.0546  -28.4305   19.1135 O   0  0  0  0  0  0  0  0  0  0  0  0
  -22.5299  -15.8502   20.4177 O   0  0  0  0  0  0  0  0  0  1  0  0
  -30.5028  -11.0035   17.9368 F   0  0  0  0  0  0  0  0  0  0  0  0
  -24.8240  -32.0967   23.1596 F   0  0  0  0  0  0  0  0  0  0  0  0
  -22.1011  -28.8700   21.0196 F   0  0  0  0  0  0  0  0  0  0  0  0
  1  2  1  0  0  0  0
  1  5  2  0  0  0  0
  2  6  2  0  0  0  0
  3  9  2  0  0  0  0
  3 18  1  0  0  0  0
  4 10  1  0  0  0  0
  4 18  2  0  0  0  0
  5 20  1  0  0  0  0
  6 22  1  0  0  0  0
  7 11  2  0  0  0  0
  7 21  1  0  0  0  0
  8 13  2  0  0  0  0
  8 24  1  0  0  0  0
  9 26  1  0  0  0  0
 10 26  2  0  0  0  0
 11 27  1  0  0  0  0
 12 14  2  0  0  0  0
 12 28  1  0  0  0  0
 13 29  1  0  0  0  0
 14 30  1  0  0  0  0
 15 23  1  0  0  0  0
 15 27  2  0  0  0  0
 16 25  1  0  0  0  0
 16 29  2  0  0  0  0
 17 30  2  0  0  0  0
 17 31  1  0  0  0  0
 18 32  1  0  0  0  0
 19 32  1  0  0  0  0
 19 33  2  0  0  0  0
 19 34  1  0  0  0  0
 20 22  2  0  0  0  0
 20 40  1  0  0  0  0
 21 23  2  0  0  0  0
 21 41  1  0  0  0  0
 22 49  1  0  0  0  0
 23 42  1  0  0  0  0
 24 25  2  0  0  0  0
 24 57  1  0  0  0  0
 25 58  1  0  0  0  0
 26 80  1  0  0  0  0
 27 81  1  0  0  0  0
 28 31  2  0  0  0  0
 28 80  1  0  0  0  0
 29 82  1  0  0  0  0
 30 83  1  0  0  0  0
 31 84  1  0  0  0  0
 32 63  2  0  0  0  0
 33 64  1  0  0  0  0
 33 67  1  0  0  0  0
 34 68  1  0  0  0  0
 34 74  2  0  0  0  0
 35 50  1  0  0  0  0
 35 69  1  0  0  0  0
 35 75  2  0  0  0  0
 36 60  1  0  0  0  0
 36 65  1  0  0  0  0
 36 76  2  0  0  0  0
 37 59  1  0  0  0  0
 37 70  1  0  0  0  0
 37 77  2  0  0  0  0
 38 61  1  0  0  0  0
 38 71  1  0  0  0  0
 38 78  2  0  0  0  0
 39 66  1  0  0  0  0
 39 72  1  0  0  0  0
 39 79  2  0  0  0  0
 40 43  1  0  0  0  0
 41 50  1  0  0  0  0
 42 65  1  0  0  0  0
 43 45  1  0  0  0  0
 44 46  1  0  0  0  0
 44 47  1  0  0  0  0
 45 49  1  0  0  0  0
 46 51  1  0  0  0  0
 47 66  1  0  0  0  0
 48 51  1  0  0  0  0
 48 66  1  0  0  0  0
 49 69  1  0  0  0  0
 50 65  1  0  0  0  0
 51 64  1  0  0  0  0
 52 61  1  0  0  0  0
 53 62  1  0  0  0  0
 54 62  1  0  0  0  0
 55 62  1  0  0  0  0
 56 73  1  0  0  0  0
 57 70  1  0  0  0  0
 58 72  1  0  0  0  0
 59 81  1  0  0  0  0
 60 62  1  0  0  0  0
 60 71  1  0  0  0  0
 61 73  1  0  0  0  0
 63 64  1  0  0  0  0
M  CHG  1  73   1
M  ISO  4  39 100  59 101  72 100  81 101
M  END
> <Batch ID>
0052

> <Smiles>
CNC(C)C(=O)NC(C(=O)N1Cc2cc([101O:1][101CH2:1]C(=O)NCc3ccc(F)cc3C[100NH:0][100C:0](=O)N3CCCC(n4nc(-c5ccc(Oc6ccc(F)cc6F)cc5)c(C(N)=O)c4N)C3)ccc2CC1C(=O)NC1CCCc2ccccc21)C(C)(C)C

> <Shape>
0.198

> <Color>
0.075

> <Negative vol penalty>
0.000

$$$$

  -OEChem-04042322403D

 88 97  0     1  0  0  0  0  0999 V2000
  -28.0462  -33.8725   26.3799 C   0  0  0  0  0  0  0  0  0  0  0  0
  -28.1697  -32.6453   25.7363 C   0  0  0  0  0  0  0  0  0  0  0  0
  -27.4558  -19.9051   19.1254 C   0  0  0  0  0  0  0  0  0  0  0  0
  -23.0354   -9.0777   19.5525 C   0  0  0  0  0  0  0  0  0  0  0  0
  -24.6299   -8.5630   21.2931 C   0  0  0  0  0  0  0  0  0  0  0  0
  -26.7819  -34.4119   26.6131 C   0  0  0  0  0  0  0  0  0  0  0  0
  -27.0288  -31.9563   25.3265 C   0  0  0  0  0  0  0  0  0  0  0  0
  -27.4627  -30.0953   20.6368 C   0  0  0  0  0  0  0  0  0  0  0  0
  -28.5706  -20.7360   19.2358 C   0  0  0  0  0  0  0  0  0  0  0  0
  -27.6029  -18.5223   19.2354 C   0  0  0  0  0  0  0  0  0  0  0  0
  -22.0081   -8.5577   20.3398 C   0  0  0  0  0  0  0  0  0  0  0  0
  -23.6026   -8.0430   22.0804 C   0  0  0  0  0  0  0  0  0  0  0  0
  -28.2132  -28.9308   20.4808 C   0  0  0  0  0  0  0  0  0  0  0  0
  -21.8052   -5.1851   22.2613 C   0  0  0  0  0  0  0  0  0  0  0  0
  -22.0332   -3.9679   22.9030 C   0  0  0  0  0  0  0  0  0  0  0  0
  -26.1787  -27.6366   20.4083 C   0  0  0  0  0  0  0  0  0  0  0  0
  -21.6835   -5.0311   25.0441 C   0  0  0  0  0  0  0  0  0  0  0  0
  -24.3463   -9.0803   20.0291 C   0  0  0  0  0  0  0  0  0  0  0  0
  -25.8084   -9.1751   17.9408 C   0  0  0  0  0  0  0  0  0  0  0  0
  -25.6253  -33.7337   26.1974 C   0  0  0  0  0  0  0  0  0  0  0  0
  -26.0626  -30.0379   20.6907 C   0  0  0  0  0  0  0  0  0  0  0  0
  -25.7477  -32.4865   25.5556 C   0  0  0  0  0  0  0  0  0  0  0  0
  -25.4127  -28.8021   20.5625 C   0  0  0  0  0  0  0  0  0  0  0  0
  -29.8326  -20.1842   19.4560 C   0  0  0  0  0  0  0  0  0  0  0  0
  -29.9798  -18.8015   19.5660 C   0  0  0  0  0  0  0  0  0  0  0  0
  -28.8649  -17.9705   19.4556 C   0  0  0  0  0  0  0  0  0  0  0  0
  -22.2917   -8.0404   21.6037 C   0  0  0  0  0  0  0  0  0  0  0  0
  -27.5714  -27.7008   20.3694 C   0  0  0  0  0  0  0  0  0  0  0  0
  -21.5164   -6.3255   23.0109 C   0  0  0  0  0  0  0  0  0  0  0  0
  -21.9724   -3.8908   24.2944 C   0  0  0  0  0  0  0  0  0  0  0  0
  -21.4555   -6.2484   24.4023 C   0  0  0  0  0  0  0  0  0  0  0  0
  -25.4080   -9.6169   19.2161 C   0  0  0  0  0  0  0  0  0  0  0  0
  -26.8488  -10.0049   17.6010 C   0  0  0  0  0  0  0  0  0  0  0  0
  -30.4769  -22.9887   21.0601 C   0  0  0  0  0  0  0  0  0  0  0  0
  -25.2864   -8.1100   17.1353 C   0  0  0  0  0  0  0  0  0  0  0  0
  -23.8690  -30.7871   22.8657 C   0  0  0  0  0  0  0  0  0  0  0  0
  -21.8076  -30.0757   20.4643 C   0  0  0  0  0  0  0  0  0  0  0  0
  -21.2221  -28.3990   17.5502 C   0  0  0  0  0  0  0  0  0  0  0  0
  -27.9778  -15.6047   19.4780 C   0  0  0  0  0  0  0  0  0  0  0  0
  -24.2784  -34.3342   26.5138 C   0  0  0  0  0  0  0  0  0  0  0  0
  -25.2665  -31.3062   20.8326 C   0  0  0  0  0  0  0  0  0  0  0  0
  -23.9111  -28.6888   20.5938 C   0  0  0  0  0  0  0  0  0  0  0  0
  -29.9820  -24.4169   21.1907 C   0  0  0  0  0  0  0  0  0  0  0  0
  -23.1336  -33.7179   25.7138 C   0  0  0  0  0  0  0  0  0  0  0  0
  -30.0061  -12.4595   20.3251 C   0  0  0  0  0  0  0  0  0  0  0  0
  -23.2315  -32.1957   25.7278 C   0  0  0  0  0  0  0  0  0  0  0  0
  -29.3567  -11.4712   19.3591 C   0  0  0  0  0  0  0  0  0  0  0  0
  -29.8926  -24.6546   18.7320 C   0  0  0  0  0  0  0  0  0  0  0  0
  -29.8362  -13.9046   19.8738 C   0  0  0  0  0  0  0  0  0  0  0  0
  -30.6023  -23.3225   18.5667 C   0  0  0  0  0  0  0  0  0  0  0  0
  -27.4629  -13.1733   19.5758 C   0  0  0  0  0  0  0  0  0  0  0  0
  -24.5347  -31.7206   25.0740 C   0  0  1  0  0  0  0  0  0  0  0  0
  -23.8659  -31.0732   21.3907 C   0  0  1  0  0  0  0  0  0  0  0  0
  -30.3522  -25.3208   20.0221 C   0  0  1  0  0  0  0  0  0  0  0  0
  -28.0192  -11.9790   18.7849 C   0  0  2  0  0  0  0  0  0  0  0  0
  -31.5316  -17.7832   21.2516 C   0  0  0  0  0  0  0  0  0  0  0  0
  -19.4305  -27.9819   15.8432 C   0  0  0  0  0  0  0  0  0  0  0  0
  -20.4238  -28.1551   22.3895 C   0  0  0  0  0  0  0  0  0  0  0  0
  -19.2973  -27.1007   20.4178 C   0  0  0  0  0  0  0  0  0  0  0  0
  -18.8719  -29.4980   20.9603 C   0  0  0  0  0  0  0  0  0  0  0  0
  -22.8437  -29.5993   15.3849 C   0  0  0  0  0  0  0  0  0  0  0  0
  -31.3359  -18.2141   19.8024 C   0  0  0  0  0  0  0  0  0  0  0  0
  -31.0157  -21.1014   19.5709 C   0  0  0  0  0  0  0  0  0  0  0  0
  -29.7213  -26.7017   20.1809 C   0  0  0  0  0  0  0  0  0  1  0  0
  -21.1079  -28.8244   19.9915 C   0  0  1  0  0  0  0  0  0  0  0  0
  -20.6171  -28.8496   16.2328 C   0  0  2  0  0  0  0  0  0  0  0  0
  -19.9536  -28.3961   20.9411 C   0  0  0  0  0  0  0  0  0  0  0  0
  -26.1350  -10.6471   19.6566 N   0  0  0  0  0  0  0  0  0  0  0  0
  -27.0027  -10.8596   18.6526 N   0  0  0  0  0  0  0  0  0  0  0  0
  -30.6137  -22.4879   19.7672 N   0  0  0  0  0  0  0  0  0  0  0  0
  -23.1770  -29.9564   20.7406 N   0  0  0  0  0  0  0  0  0  0  0  0
  -28.4338  -14.2724   19.6305 N   0  0  0  0  0  0  0  0  0  0  0  0
  -27.6380  -10.0793   16.5082 N   0  0  0  0  0  0  0  0  0  0  0  0
  -25.8382   -6.8300   17.2810 N   0  0  0  0  0  0  0  0  0  0  0  0
  -28.9911  -16.5630   19.5647 N   0  0  0  0  0  0  0  0  0  0  0  0
  -24.4313  -31.7901   23.6321 N   0  0  0  0  0  0  0  0  0  0  0  0
  -20.6869  -29.0858   18.6193 N   0  0  0  0  0  0  0  0  0  0  0  0
  -21.6320  -28.7742   15.1441 N   0  3  0  0  0  0  0  0  0  0  0  0
  -30.6554  -22.3219   22.0831 O   0  0  0  0  0  0  0  0  0  0  0  0
  -24.3692   -8.2916   16.2990 O   0  0  0  0  0  0  0  0  0  0  0  0
  -23.3950  -29.7350   23.2782 O   0  0  0  0  0  0  0  0  0  0  0  0
  -21.1645  -31.1223   20.5772 O   0  0  0  0  0  0  0  0  0  0  0  0
  -22.0806  -27.5225   17.6237 O   0  0  0  0  0  0  0  0  0  0  0  0
  -26.7897  -15.8636   19.2751 O   0  0  0  0  0  0  0  0  0  0  0  0
  -21.2894   -7.5331   22.3723 O   0  0  0  0  0  0  0  0  0  0  0  0
  -28.3016  -26.5625   20.2177 O   0  0  0  0  0  0  0  0  0  1  0  0
  -22.1899   -2.7215   24.9104 F   0  0  0  0  0  0  0  0  0  0  0  0
  -21.1773   -7.3402   25.1279 F   0  0  0  0  0  0  0  0  0  0  0  0
  1  2  1  0  0  0  0
  1  6  2  0  0  0  0
  2  7  2  0  0  0  0
  3  9  1  0  0  0  0
  3 10  2  0  0  0  0
  4 11  2  0  0  0  0
  4 18  1  0  0  0  0
  5 12  1  0  0  0  0
  5 18  2  0  0  0  0
  6 20  1  0  0  0  0
  7 22  1  0  0  0  0
  8 13  2  0  0  0  0
  8 21  1  0  0  0  0
  9 24  2  0  0  0  0
 10 26  1  0  0  0  0
 11 27  1  0  0  0  0
 12 27  2  0  0  0  0
 13 28  1  0  0  0  0
 14 15  2  0  0  0  0
 14 29  1  0  0  0  0
 15 30  1  0  0  0  0
 16 23  1  0  0  0  0
 16 28  2  0  0  0  0
 17 30  2  0  0  0  0
 17 31  1  0  0  0  0
 18 32  1  0  0  0  0
 19 32  1  0  0  0  0
 19 33  2  0  0  0  0
 19 35  1  0  0  0  0
 20 22  2  0  0  0  0
 20 40  1  0  0  0  0
 21 23  2  0  0  0  0
 21 41  1  0  0  0  0
 22 52  1  0  0  0  0
 23 42  1  0  0  0  0
 24 25  1  0  0  0  0
 24 63  1  0  0  0  0
 25 26  2  0  0  0  0
 25 62  1  0  0  0  0
 26 75  1  0  0  0  0
 27 85  1  0  0  0  0
 28 86  1  0  0  0  0
 29 31  2  0  0  0  0
 29 85  1  0  0  0  0
 30 87  1  0  0  0  0
 31 88  1  0  0  0  0
 32 68  2  0  0  0  0
 33 69  1  0  0  0  0
 33 73  1  0  0  0  0
 34 43  1  0  0  0  0
 34 70  1  0  0  0  0
 34 79  2  0  0  0  0
 35 74  1  0  0  0  0
 35 80  2  0  0  0  0
 36 53  1  0  0  0  0
 36 76  1  0  0  0  0
 36 81  2  0  0  0  0
 37 65  1  0  0  0  0
 37 71  1  0  0  0  0
 37 82  2  0  0  0  0
 38 66  1  0  0  0  0
 38 77  1  0  0  0  0
 38 83  2  0  0  0  0
 39 72  1  0  0  0  0
 39 75  1  0  0  0  0
 39 84  2  0  0  0  0
 40 44  1  0  0  0  0
 41 53  1  0  0  0  0
 42 71  1  0  0  0  0
 43 54  1  0  0  0  0
 44 46  1  0  0  0  0
 45 47  1  0  0  0  0
 45 49  1  0  0  0  0
 46 52  1  0  0  0  0
 47 55  1  0  0  0  0
 48 50  1  0  0  0  0
 48 54  1  0  0  0  0
 49 72  1  0  0  0  0
 50 70  1  0  0  0  0
 51 55  1  0  0  0  0
 51 72  1  0  0  0  0
 52 76  1  0  0  0  0
 53 71  1  0  0  0  0
 54 64  1  0  0  0  0
 55 69  1  0  0  0  0
 56 62  1  0  0  0  0
 57 66  1  0  0  0  0
 58 67  1  0  0  0  0
 59 67  1  0  0  0  0
 60 67  1  0  0  0  0
 61 78  1  0  0  0  0
 63 70  1  0  0  0  0
 64 86  1  0  0  0  0
 65 67  1  0  0  0  0
 65 77  1  0  0  0  0
 66 78  1  0  0  0  0
 68 69  1  0  0  0  0
M  CHG  1  78   1
M  ISO  4  39 100  64 101  75 100  86 101
M  END
> <Batch ID>
0052

> <Smiles>
CCc1c(CN2CCC([101CH2:1][101O:1]c3ccc4c(c3)CN(C(=O)C(NC(=O)C(C)NC)C(C)(C)C)C(C(=O)NC3CCCc5ccccc53)C4)CC2=O)cccc1[100NH:0][100C:0](=O)N1CCCC(n2nc(-c3ccc(Oc4ccc(F)cc4F)cc3)c(C(N)=O)c2N)C1

> <Shape>
0.354

> <Color>
0.107

> <Negative vol penalty>
0.000

$$$$

  -OEChem-04042322403D

 85 93  0     1  0  0  0  0  0999 V2000
  -22.3396  -35.8950   23.4583 C   0  0  0  0  0  0  0  0  0  0  0  0
  -23.4461  -35.1410   23.0807 C   0  0  0  0  0  0  0  0  0  0  0  0
  -26.4684  -10.9291   21.2794 C   0  0  0  0  0  0  0  0  0  0  0  0
  -25.6265  -12.3153   19.4887 C   0  0  0  0  0  0  0  0  0  0  0  0
  -21.2227  -35.2657   24.0062 C   0  0  0  0  0  0  0  0  0  0  0  0
  -23.4367  -33.7572   23.2520 C   0  0  0  0  0  0  0  0  0  0  0  0
  -26.0551  -29.5801   19.6185 C   0  0  0  0  0  0  0  0  0  0  0  0
  -25.1614  -10.6584   21.6844 C   0  0  0  0  0  0  0  0  0  0  0  0
  -24.3194  -12.0445   19.8936 C   0  0  0  0  0  0  0  0  0  0  0  0
  -27.2636  -28.8900   19.7018 C   0  0  0  0  0  0  0  0  0  0  0  0
  -22.6202   -8.6478   20.7183 C   0  0  0  0  0  0  0  0  0  0  0  0
  -22.2967   -7.3257   21.0232 C   0  0  0  0  0  0  0  0  0  0  0  0
  -26.1211  -27.0242   20.7181 C   0  0  0  0  0  0  0  0  0  0  0  0
  -29.4206  -19.1516   17.2447 C   0  0  0  0  0  0  0  0  0  0  0  0
  -30.7166  -20.2890   18.9370 C   0  0  0  0  0  0  0  0  0  0  0  0
  -21.7138   -7.9870   23.2726 C   0  0  0  0  0  0  0  0  0  0  0  0
  -26.7010  -11.7576   20.1816 C   0  0  0  0  0  0  0  0  0  0  0  0
  -28.8224  -11.3107   18.8372 C   0  0  0  0  0  0  0  0  0  0  0  0
  -21.1958  -33.8723   24.1753 C   0  0  0  0  0  0  0  0  0  0  0  0
  -24.8703  -29.0009   20.0951 C   0  0  0  0  0  0  0  0  0  0  0  0
  -22.3189  -33.1087   23.8039 C   0  0  0  0  0  0  0  0  0  0  0  0
  -24.8984  -27.7081   20.6373 C   0  0  0  0  0  0  0  0  0  0  0  0
  -28.9839  -20.3815   16.7525 C   0  0  0  0  0  0  0  0  0  0  0  0
  -30.2799  -21.5189   18.4447 C   0  0  0  0  0  0  0  0  0  0  0  0
  -29.4136  -21.5651   17.3524 C   0  0  0  0  0  0  0  0  0  0  0  0
  -30.2869  -19.1054   18.3370 C   0  0  0  0  0  0  0  0  0  0  0  0
  -24.0869  -11.2160   20.9915 C   0  0  0  0  0  0  0  0  0  0  0  0
  -27.2972  -27.6130   20.2543 C   0  0  0  0  0  0  0  0  0  0  0  0
  -22.4905   -9.6396   21.6906 C   0  0  0  0  0  0  0  0  0  0  0  0
  -21.8435   -6.9953   22.3003 C   0  0  0  0  0  0  0  0  0  0  0  0
  -22.0373   -9.3092   22.9677 C   0  0  0  0  0  0  0  0  0  0  0  0
  -28.0509  -12.0381   19.7632 C   0  0  0  0  0  0  0  0  0  0  0  0
  -30.0215  -11.9788   18.7894 C   0  0  0  0  0  0  0  0  0  0  0  0
  -28.4852  -10.1362   18.0871 C   0  0  0  0  0  0  0  0  0  0  0  0
  -22.7687  -29.7358   22.3638 C   0  0  0  0  0  0  0  0  0  0  0  0
  -21.1354  -27.2241   21.1204 C   0  0  0  0  0  0  0  0  0  0  0  0
  -29.6918  -24.9506   19.6834 C   0  0  0  0  0  0  0  0  0  0  0  0
  -21.2159  -24.3013   19.3604 C   0  0  0  0  0  0  0  0  0  0  0  0
  -31.5913  -17.6340   19.9118 C   0  0  0  0  0  0  0  0  0  0  0  0
  -19.9845  -33.2420   24.8157 C   0  0  0  0  0  0  0  0  0  0  0  0
  -23.5704  -29.7477   19.9735 C   0  0  0  0  0  0  0  0  0  0  0  0
  -23.6510  -27.0336   21.1447 C   0  0  0  0  0  0  0  0  0  0  0  0
  -19.9077  -31.7304   24.6172 C   0  0  0  0  0  0  0  0  0  0  0  0
  -32.8949  -14.7121   21.4740 C   0  0  0  0  0  0  0  0  0  0  0  0
  -21.2582  -31.0844   24.9097 C   0  0  0  0  0  0  0  0  0  0  0  0
  -31.8740  -13.6273   21.1231 C   0  0  0  0  0  0  0  0  0  0  0  0
  -32.2243  -16.0609   21.7283 C   0  0  0  0  0  0  0  0  0  0  0  0
  -30.3116  -15.4379   20.3062 C   0  0  0  0  0  0  0  0  0  0  0  0
  -22.3370  -31.6027   23.9510 C   0  0  1  0  0  0  0  0  0  0  0  0
  -22.5105  -29.2669   20.9598 C   0  0  1  0  0  0  0  0  0  0  0  0
  -30.9456  -14.0764   19.9778 C   0  0  2  0  0  0  0  0  0  0  0  0
  -28.9457  -22.8839   16.8241 C   0  0  0  0  0  0  0  0  0  0  0  0
  -26.6145  -20.6890   15.9924 C   0  0  0  0  0  0  0  0  0  0  0  0
  -19.7280  -22.4553   18.5382 C   0  0  0  0  0  0  0  0  0  0  0  0
  -21.0211  -26.0636   23.9400 C   0  0  0  0  0  0  0  0  0  0  0  0
  -20.4017  -23.8573   22.9316 C   0  0  0  0  0  0  0  0  0  0  0  0
  -18.9044  -25.8293   22.6289 C   0  0  0  0  0  0  0  0  0  0  0  0
  -21.8696  -24.8771   16.5320 C   0  0  0  0  0  0  0  0  0  0  0  0
  -28.0560  -20.4037   15.5822 C   0  0  0  0  0  0  0  0  0  0  0  0
  -30.7573  -22.7781   19.1086 C   0  0  0  0  0  0  0  0  0  0  0  0
  -28.4141  -25.5134   20.2685 C   0  0  0  0  0  0  0  0  0  1  0  0
  -21.1007  -25.7374   21.3800 C   0  0  1  0  0  0  0  0  0  0  0  0
  -20.3666  -23.7955   18.2083 C   0  0  2  0  0  0  0  0  0  0  0  0
  -20.3810  -25.3851   22.7124 C   0  0  0  0  0  0  0  0  0  0  0  0
  -28.7050  -13.0878   20.2675 N   0  0  0  0  0  0  0  0  0  0  0  0
  -29.9002  -13.0248   19.6562 N   0  0  0  0  0  0  0  0  0  0  0  0
  -22.4057  -27.8071   21.0097 N   0  0  0  0  0  0  0  0  0  0  0  0
  -31.3640  -16.4233   20.5999 N   0  0  0  0  0  0  0  0  0  0  0  0
  -31.1573  -11.7676   18.0910 N   0  0  0  0  0  0  0  0  0  0  0  0
  -27.2104   -9.5788   18.2559 N   0  0  0  0  0  0  0  0  0  0  0  0
  -30.7316  -17.8562   18.8366 N   0  0  0  0  0  0  0  0  0  0  0  0
  -22.2117  -30.9658   22.6575 N   0  0  0  0  0  0  0  0  0  0  0  0
  -29.6619  -23.5661   19.6244 N   0  0  0  0  0  0  0  0  0  0  0  0
  -20.4995  -25.1304   20.1975 N   0  0  0  0  0  0  0  0  0  0  0  0
  -21.2001  -23.6303   16.9840 N   0  3  0  0  0  0  0  0  0  0  0  0
  -29.2962   -9.5875   17.3031 O   0  0  0  0  0  0  0  0  0  0  0  0
  -23.4234  -29.0330   23.1247 O   0  0  0  0  0  0  0  0  0  0  0  0
  -20.0744  -27.8440   21.0124 O   0  0  0  0  0  0  0  0  0  0  0  0
  -30.6238  -25.6610   19.3165 O   0  0  0  0  0  0  0  0  0  0  0  0
  -22.3957  -23.9889   19.5055 O   0  0  0  0  0  0  0  0  0  0  0  0
  -32.5003  -18.4031   20.2345 O   0  0  0  0  0  0  0  0  0  0  0  0
  -22.8113  -10.9519   21.3862 O   0  0  0  0  0  0  0  0  0  0  0  0
  -28.4756  -26.9374   20.3374 O   0  0  0  0  0  0  0  0  0  1  0  0
  -21.5314   -5.7259   22.5925 F   0  0  0  0  0  0  0  0  0  0  0  0
  -21.9095  -10.2578   23.9056 F   0  0  0  0  0  0  0  0  0  0  0  0
  1  2  1  0  0  0  0
  1  5  2  0  0  0  0
  2  6  2  0  0  0  0
  3  8  2  0  0  0  0
  3 17  1  0  0  0  0
  4  9  1  0  0  0  0
  4 17  2  0  0  0  0
  5 19  1  0  0  0  0
  6 21  1  0  0  0  0
  7 10  2  0  0  0  0
  7 20  1  0  0  0  0
  8 27  1  0  0  0  0
  9 27  2  0  0  0  0
 10 28  1  0  0  0  0
 11 12  2  0  0  0  0
 11 29  1  0  0  0  0
 12 30  1  0  0  0  0
 13 22  1  0  0  0  0
 13 28  2  0  0  0  0
 14 23  1  0  0  0  0
 14 26  2  0  0  0  0
 15 24  2  0  0  0  0
 15 26  1  0  0  0  0
 16 30  2  0  0  0  0
 16 31  1  0  0  0  0
 17 32  1  0  0  0  0
 18 32  1  0  0  0  0
 18 33  2  0  0  0  0
 18 34  1  0  0  0  0
 19 21  2  0  0  0  0
 19 40  1  0  0  0  0
 20 22  2  0  0  0  0
 20 41  1  0  0  0  0
 21 49  1  0  0  0  0
 22 42  1  0  0  0  0
 23 25  2  0  0  0  0
 23 59  1  0  0  0  0
 24 25  1  0  0  0  0
 24 60  1  0  0  0  0
 25 52  1  0  0  0  0
 26 71  1  0  0  0  0
 27 82  1  0  0  0  0
 28 83  1  0  0  0  0
 29 31  2  0  0  0  0
 29 82  1  0  0  0  0
 30 84  1  0  0  0  0
 31 85  1  0  0  0  0
 32 65  2  0  0  0  0
 33 66  1  0  0  0  0
 33 69  1  0  0  0  0
 34 70  1  0  0  0  0
 34 76  2  0  0  0  0
 35 50  1  0  0  0  0
 35 72  1  0  0  0  0
 35 77  2  0  0  0  0
 36 62  1  0  0  0  0
 36 67  1  0  0  0  0
 36 78  2  0  0  0  0
 37 61  1  0  0  0  0
 37 73  1  0  0  0  0
 37 79  2  0  0  0  0
 38 63  1  0  0  0  0
 38 74  1  0  0  0  0
 38 80  2  0  0  0  0
 39 68  1  0  0  0  0
 39 71  1  0  0  0  0
 39 81  2  0  0  0  0
 40 43  1  0  0  0  0
 41 50  1  0  0  0  0
 42 67  1  0  0  0  0
 43 45  1  0  0  0  0
 44 46  1  0  0  0  0
 44 47  1  0  0  0  0
 45 49  1  0  0  0  0
 46 51  1  0  0  0  0
 47 68  1  0  0  0  0
 48 51  1  0  0  0  0
 48 68  1  0  0  0  0
 49 72  1  0  0  0  0
 50 67  1  0  0  0  0
 51 66  1  0  0  0  0
 53 59  1  0  0  0  0
 54 63  1  0  0  0  0
 55 64  1  0  0  0  0
 56 64  1  0  0  0  0
 57 64  1  0  0  0  0
 58 75  1  0  0  0  0
 60 73  1  0  0  0  0
 61 83  1  0  0  0  0
 62 64  1  0  0  0  0
 62 74  1  0  0  0  0
 63 75  1  0  0  0  0
 65 66  1  0  0  0  0
M  CHG  1  75   1
M  ISO  4  39 100  61 101  71 100  83 101
M  END
> <Batch ID>
0052

> <Smiles>
CCc1cc([100NH:0][100C:0](=O)N2CCCC(n3nc(-c4ccc(Oc5ccc(F)cc5F)cc4)c(C(N)=O)c3N)C2)cc(CNC(=O)[101CH2:1][101O:1]c2ccc3c(c2)CN(C(=O)C(NC(=O)C(C)NC)C(C)(C)C)C(C(=O)NC2CCCc4ccccc42)C3)c1C

> <Shape>
0.275

> <Color>
0.092

> <Negative vol penalty>
0.000

$$$$

  -OEChem-04042322403D

 84 92  0     1  0  0  0  0  0999 V2000
  -32.6412  -26.2633   17.5210 C   0  0  0  0  0  0  0  0  0  0  0  0
  -31.3408  -25.9814   17.9269 C   0  0  0  0  0  0  0  0  0  0  0  0
  -24.6256   -9.2111   21.9708 C   0  0  0  0  0  0  0  0  0  0  0  0
  -23.0233  -10.3837   20.5944 C   0  0  0  0  0  0  0  0  0  0  0  0
  -33.4486  -27.0926   18.2984 C   0  0  0  0  0  0  0  0  0  0  0  0
  -30.8473  -26.5277   19.1112 C   0  0  0  0  0  0  0  0  0  0  0  0
  -26.1643  -28.3836   18.5910 C   0  0  0  0  0  0  0  0  0  0  0  0
  -22.9274  -19.3423   18.7082 C   0  0  0  0  0  0  0  0  0  0  0  0
  -23.8323  -18.3011   18.9143 C   0  0  0  0  0  0  0  0  0  0  0  0
  -23.5931   -8.4613   22.5340 C   0  0  0  0  0  0  0  0  0  0  0  0
  -21.9907   -9.6338   21.1576 C   0  0  0  0  0  0  0  0  0  0  0  0
  -25.1135  -27.4674   18.5843 C   0  0  0  0  0  0  0  0  0  0  0  0
  -21.6994   -5.7936   21.6796 C   0  0  0  0  0  0  0  0  0  0  0  0
  -21.8943   -4.4187   21.8118 C   0  0  0  0  0  0  0  0  0  0  0  0
  -24.6607  -27.9788   20.8979 C   0  0  0  0  0  0  0  0  0  0  0  0
  -25.0137  -19.6486   20.5347 C   0  0  0  0  0  0  0  0  0  0  0  0
  -21.6142   -4.6091   24.2039 C   0  0  0  0  0  0  0  0  0  0  0  0
  -24.3407  -10.1724   21.0010 C   0  0  0  0  0  0  0  0  0  0  0  0
  -26.1600  -10.6316   19.2727 C   0  0  0  0  0  0  0  0  0  0  0  0
  -32.9615  -27.6572   19.4878 C   0  0  0  0  0  0  0  0  0  0  0  0
  -26.4787  -29.0975   19.7563 C   0  0  0  0  0  0  0  0  0  0  0  0
  -31.6493  -27.3643   19.9059 C   0  0  0  0  0  0  0  0  0  0  0  0
  -25.7144  -28.9053   20.9161 C   0  0  0  0  0  0  0  0  0  0  0  0
  -23.0656  -20.5368   19.4153 C   0  0  0  0  0  0  0  0  0  0  0  0
  -24.8754  -18.4542   19.8276 C   0  0  0  0  0  0  0  0  0  0  0  0
  -22.2757   -8.6726   22.1274 C   0  0  0  0  0  0  0  0  0  0  0  0
  -24.3633  -27.2628   19.7386 C   0  0  0  0  0  0  0  0  0  0  0  0
  -21.4620   -6.5762   22.8096 C   0  0  0  0  0  0  0  0  0  0  0  0
  -21.8516   -3.8265   23.0739 C   0  0  0  0  0  0  0  0  0  0  0  0
  -24.1087  -20.6899   20.3285 C   0  0  0  0  0  0  0  0  0  0  0  0
  -21.4193   -5.9839   24.0717 C   0  0  0  0  0  0  0  0  0  0  0  0
  -25.4068  -10.9477   20.4193 C   0  0  0  0  0  0  0  0  0  0  0  0
  -27.0390  -11.6786   19.1399 C   0  0  0  0  0  0  0  0  0  0  0  0
  -26.0729   -9.4933   18.4053 C   0  0  0  0  0  0  0  0  0  0  0  0
  -29.0218  -29.2861   21.6539 C   0  0  0  0  0  0  0  0  0  0  0  0
  -27.2957  -31.6310   23.0837 C   0  0  0  0  0  0  0  0  0  0  0  0
  -22.7254  -24.0615   19.4462 C   0  0  0  0  0  0  0  0  0  0  0  0
  -24.2329  -32.9915   23.7279 C   0  0  0  0  0  0  0  0  0  0  0  0
  -26.8866  -17.3855   20.9043 C   0  0  0  0  0  0  0  0  0  0  0  0
  -33.8873  -28.5096   20.3191 C   0  0  0  0  0  0  0  0  0  0  0  0
  -27.5984  -30.1017   19.7396 C   0  0  0  0  0  0  0  0  0  0  0  0
  -25.9984  -29.6615   22.1873 C   0  0  0  0  0  0  0  0  0  0  0  0
  -33.1638  -29.3499   21.3682 C   0  0  0  0  0  0  0  0  0  0  0  0
  -29.3653  -14.9667   21.7305 C   0  0  0  0  0  0  0  0  0  0  0  0
  -32.1440  -28.5015   22.1213 C   0  0  0  0  0  0  0  0  0  0  0  0
  -28.7023  -13.6332   21.3779 C   0  0  0  0  0  0  0  0  0  0  0  0
  -28.3624  -15.9632   22.3093 C   0  0  0  0  0  0  0  0  0  0  0  0
  -26.5021  -14.8529   21.1364 C   0  0  0  0  0  0  0  0  0  0  0  0
  -31.0698  -27.9579   21.1715 C   0  0  1  0  0  0  0  0  0  0  0  0
  -28.1571  -30.3968   21.1282 C   0  0  1  0  0  0  0  0  0  0  0  0
  -27.4598  -13.8391   20.4894 C   0  0  2  0  0  0  0  0  0  0  0  0
  -23.1377  -34.8854   24.9571 C   0  0  0  0  0  0  0  0  0  0  0  0
  -27.7108  -30.1555   25.7220 C   0  0  0  0  0  0  0  0  0  0  0  0
  -25.8553  -31.5234   26.6987 C   0  0  0  0  0  0  0  0  0  0  0  0
  -27.9260  -32.6425   25.8726 C   0  0  0  0  0  0  0  0  0  0  0  0
  -23.4268  -22.7486   17.4371 C   0  0  0  0  0  0  0  0  0  0  0  0
  -23.1158  -34.1198   21.2303 C   0  0  0  0  0  0  0  0  0  0  0  0
  -22.0882  -21.6543   19.1918 C   0  0  0  0  0  0  0  0  0  0  0  0
  -23.4535  -25.2506   18.8557 C   0  0  0  0  0  0  0  0  0  1  0  0
  -26.2860  -31.6831   24.2047 C   0  0  1  0  0  0  0  0  0  0  0  0
  -23.7248  -34.4189   23.6341 C   0  0  2  0  0  0  0  0  0  0  0  0
  -26.9401  -31.4853   25.6013 C   0  0  0  0  0  0  0  0  0  0  0  0
  -25.7752  -12.1049   20.9753 N   0  0  0  0  0  0  0  0  0  0  0  0
  -26.7696  -12.5251   20.1749 N   0  0  0  0  0  0  0  0  0  0  0  0
  -27.1073  -30.6278   22.1225 N   0  0  0  0  0  0  0  0  0  0  0  0
  -27.2145  -16.1105   21.4119 N   0  0  0  0  0  0  0  0  0  0  0  0
  -28.0084  -11.9485   18.2401 N   0  0  0  0  0  0  0  0  0  0  0  0
  -25.1136   -8.5109   18.6864 N   0  0  0  0  0  0  0  0  0  0  0  0
  -25.7959  -17.3972   20.0355 N   0  0  0  0  0  0  0  0  0  0  0  0
  -30.1079  -28.9910   20.8522 N   0  0  0  0  0  0  0  0  0  0  0  0
  -25.5722  -32.9463   24.0528 N   0  0  0  0  0  0  0  0  0  0  0  0
  -22.7464  -22.8701   18.7205 N   0  0  0  0  0  0  0  0  0  0  0  0
  -22.6689  -34.5252   22.5878 N   0  3  0  0  0  0  0  0  0  0  0  0
  -26.8344   -9.3435   17.4198 O   0  0  0  0  0  0  0  0  0  0  0  0
  -28.7264  -28.7384   22.7096 O   0  0  0  0  0  0  0  0  0  0  0  0
  -28.2136  -32.4547   23.0578 O   0  0  0  0  0  0  0  0  0  0  0  0
  -22.1579  -24.1943   20.5349 O   0  0  0  0  0  0  0  0  0  0  0  0
  -23.5127  -32.0142   23.5360 O   0  0  0  0  0  0  0  0  0  0  0  0
  -27.5430  -18.3885   21.1959 O   0  0  0  0  0  0  0  0  0  0  0  0
  -21.2680   -7.9408   22.6766 O   0  0  0  0  0  0  0  0  0  0  0  0
  -23.3375  -26.3686   19.7349 O   0  0  0  0  0  0  0  0  0  1  0  0
  -22.0372   -2.5060   23.2006 F   0  0  0  0  0  0  0  0  0  0  0  0
  -24.2497  -21.8337   21.0127 F   0  0  0  0  0  0  0  0  0  0  0  0
  -21.1905   -6.7304   25.1608 F   0  0  0  0  0  0  0  0  0  0  0  0
  1  2  1  0  0  0  0
  1  5  2  0  0  0  0
  2  6  2  0  0  0  0
  3 10  2  0  0  0  0
  3 18  1  0  0  0  0
  4 11  1  0  0  0  0
  4 18  2  0  0  0  0
  5 20  1  0  0  0  0
  6 22  1  0  0  0  0
  7 12  2  0  0  0  0
  7 21  1  0  0  0  0
  8  9  2  0  0  0  0
  8 24  1  0  0  0  0
  9 25  1  0  0  0  0
 10 26  1  0  0  0  0
 11 26  2  0  0  0  0
 12 27  1  0  0  0  0
 13 14  2  0  0  0  0
 13 28  1  0  0  0  0
 14 29  1  0  0  0  0
 15 23  1  0  0  0  0
 15 27  2  0  0  0  0
 16 25  2  0  0  0  0
 16 30  1  0  0  0  0
 17 29  2  0  0  0  0
 17 31  1  0  0  0  0
 18 32  1  0  0  0  0
 19 32  1  0  0  0  0
 19 33  2  0  0  0  0
 19 34  1  0  0  0  0
 20 22  2  0  0  0  0
 20 40  1  0  0  0  0
 21 23  2  0  0  0  0
 21 41  1  0  0  0  0
 22 49  1  0  0  0  0
 23 42  1  0  0  0  0
 24 30  2  0  0  0  0
 24 58  1  0  0  0  0
 25 69  1  0  0  0  0
 26 80  1  0  0  0  0
 27 81  1  0  0  0  0
 28 31  2  0  0  0  0
 28 80  1  0  0  0  0
 29 82  1  0  0  0  0
 30 83  1  0  0  0  0
 31 84  1  0  0  0  0
 32 63  2  0  0  0  0
 33 64  1  0  0  0  0
 33 67  1  0  0  0  0
 34 68  1  0  0  0  0
 34 74  2  0  0  0  0
 35 50  1  0  0  0  0
 35 70  1  0  0  0  0
 35 75  2  0  0  0  0
 36 60  1  0  0  0  0
 36 65  1  0  0  0  0
 36 76  2  0  0  0  0
 37 59  1  0  0  0  0
 37 72  1  0  0  0  0
 37 77  2  0  0  0  0
 38 61  1  0  0  0  0
 38 71  1  0  0  0  0
 38 78  2  0  0  0  0
 39 66  1  0  0  0  0
 39 69  1  0  0  0  0
 39 79  2  0  0  0  0
 40 43  1  0  0  0  0
 41 50  1  0  0  0  0
 42 65  1  0  0  0  0
 43 45  1  0  0  0  0
 44 46  1  0  0  0  0
 44 47  1  0  0  0  0
 45 49  1  0  0  0  0
 46 51  1  0  0  0  0
 47 66  1  0  0  0  0
 48 51  1  0  0  0  0
 48 66  1  0  0  0  0
 49 70  1  0  0  0  0
 50 65  1  0  0  0  0
 51 64  1  0  0  0  0
 52 61  1  0  0  0  0
 53 62  1  0  0  0  0
 54 62  1  0  0  0  0
 55 62  1  0  0  0  0
 56 72  1  0  0  0  0
 57 73  1  0  0  0  0
 58 72  1  0  0  0  0
 59 81  1  0  0  0  0
 60 62  1  0  0  0  0
 60 71  1  0  0  0  0
 61 73  1  0  0  0  0
 63 64  1  0  0  0  0
M  CHG  1  73   1
M  ISO  4  39 100  59 101  69 100  81 101
M  END
> <Batch ID>
0052

> <Smiles>
CNC(C)C(=O)NC(C(=O)N1Cc2cc([101O:1][101CH2:1]C(=O)N(C)Cc3ccc([100NH:0][100C:0](=O)N4CCCC(n5nc(-c6ccc(Oc7ccc(F)cc7F)cc6)c(C(N)=O)c5N)C4)cc3F)ccc2CC1C(=O)NC1CCCc2ccccc21)C(C)(C)C

> <Shape>
0.264

> <Color>
0.096

> <Negative vol penalty>
0.000

$$$$

  -OEChem-04042322403D

 89 97  0     1  0  0  0  0  0999 V2000
  -29.2445  -25.5452   16.3774 C   0  0  0  0  0  0  0  0  0  0  0  0
  -28.0471  -25.5091   17.0847 C   0  0  0  0  0  0  0  0  0  0  0  0
  -28.6365  -12.3255   19.3349 C   0  0  0  0  0  0  0  0  0  0  0  0
  -28.2703  -13.9025   21.1283 C   0  0  0  0  0  0  0  0  0  0  0  0
  -30.3459  -26.2160   16.9073 C   0  0  0  0  0  0  0  0  0  0  0  0
  -27.9507  -26.1429   18.3230 C   0  0  0  0  0  0  0  0  0  0  0  0
  -23.6823  -28.8250   18.8055 C   0  0  0  0  0  0  0  0  0  0  0  0
  -29.9189  -12.8400   19.1444 C   0  0  0  0  0  0  0  0  0  0  0  0
  -29.5527  -14.4169   20.9378 C   0  0  0  0  0  0  0  0  0  0  0  0
  -22.5139  -28.1174   19.0848 C   0  0  0  0  0  0  0  0  0  0  0  0
  -31.0975  -16.5273   18.7951 C   0  0  0  0  0  0  0  0  0  0  0  0
  -31.2437  -17.9144   18.7803 C   0  0  0  0  0  0  0  0  0  0  0  0
  -22.7157  -28.7153   21.4132 C   0  0  0  0  0  0  0  0  0  0  0  0
  -20.5970  -18.6726   22.7603 C   0  0  0  0  0  0  0  0  0  0  0  0
  -19.6049  -17.6486   20.3625 C   0  0  0  0  0  0  0  0  0  0  0  0
  -32.7432  -17.7766   20.6697 C   0  0  0  0  0  0  0  0  0  0  0  0
  -27.8121  -12.8568   20.3268 C   0  0  0  0  0  0  0  0  0  0  0  0
  -26.1122  -11.2702   21.3759 C   0  0  0  0  0  0  0  0  0  0  0  0
  -30.2601  -26.8666   18.1483 C   0  0  0  0  0  0  0  0  0  0  0  0
  -24.3833  -29.4749   19.8315 C   0  0  0  0  0  0  0  0  0  0  0  0
  -29.0523  -26.8219   18.8706 C   0  0  0  0  0  0  0  0  0  0  0  0
  -23.8913  -29.4325   21.1438 C   0  0  0  0  0  0  0  0  0  0  0  0
  -21.0121  -17.4184   22.3128 C   0  0  0  0  0  0  0  0  0  0  0  0
  -19.6858  -19.4148   22.0089 C   0  0  0  0  0  0  0  0  0  0  0  0
  -20.5160  -16.9064   21.1139 C   0  0  0  0  0  0  0  0  0  0  0  0
  -30.3770  -13.8857   19.9458 C   0  0  0  0  0  0  0  0  0  0  0  0
  -22.0320  -28.0601   20.3893 C   0  0  0  0  0  0  0  0  0  0  0  0
  -31.7740  -15.7648   19.7474 C   0  0  0  0  0  0  0  0  0  0  0  0
  -32.0666  -18.5390   19.7175 C   0  0  0  0  0  0  0  0  0  0  0  0
  -32.5969  -16.3894   20.6846 C   0  0  0  0  0  0  0  0  0  0  0  0
  -19.1898  -18.9028   20.8100 C   0  0  0  0  0  0  0  0  0  0  0  0
  -26.4871  -12.3262   20.5237 C   0  0  0  0  0  0  0  0  0  0  0  0
  -24.7547  -11.1540   21.2020 C   0  0  0  0  0  0  0  0  0  0  0  0
  -20.1804  -24.0110   20.8679 C   0  0  0  0  0  0  0  0  0  0  0  0
  -19.7855  -25.2683   20.6250 C   0  0  0  0  0  0  0  0  0  0  0  0
  -26.9189  -10.4663   22.2470 C   0  0  0  0  0  0  0  0  0  0  0  0
  -19.3164  -23.0902   21.6568 C   0  0  0  0  0  0  0  0  0  0  0  0
  -27.2930  -29.2028   21.0818 C   0  0  0  0  0  0  0  0  0  0  0  0
  -26.3954  -31.8323   22.7558 C   0  0  0  0  0  0  0  0  0  0  0  0
  -23.8611  -33.7357   24.0212 C   0  0  0  0  0  0  0  0  0  0  0  0
  -20.5172  -14.9955   19.4723 C   0  0  0  0  0  0  0  0  0  0  0  0
  -31.4914  -27.5387   18.7023 C   0  0  0  0  0  0  0  0  0  0  0  0
  -25.6275  -30.2563   19.5093 C   0  0  0  0  0  0  0  0  0  0  0  0
  -24.5956  -30.1301   22.2777 C   0  0  0  0  0  0  0  0  0  0  0  0
  -31.1956  -28.5030   19.8481 C   0  0  0  0  0  0  0  0  0  0  0  0
  -21.3209  -11.8817   17.9441 C   0  0  0  0  0  0  0  0  0  0  0  0
  -30.2474  -27.8603   20.8554 C   0  0  0  0  0  0  0  0  0  0  0  0
  -22.7001  -11.5432   18.5145 C   0  0  0  0  0  0  0  0  0  0  0  0
  -21.1617  -13.3807   17.6968 C   0  0  0  0  0  0  0  0  0  0  0  0
  -22.8426  -13.8975   19.4221 C   0  0  0  0  0  0  0  0  0  0  0  0
  -28.9012  -27.5185   20.2056 C   0  0  1  0  0  0  0  0  0  0  0  0
  -26.5402  -30.4508   20.7163 C   0  0  1  0  0  0  0  0  0  0  0  0
  -23.0269  -12.4065   19.7488 C   0  0  2  0  0  0  0  0  0  0  0  0
  -23.4394  -35.8049   25.3769 C   0  0  0  0  0  0  0  0  0  0  0  0
  -27.1504  -30.3192   25.2957 C   0  0  0  0  0  0  0  0  0  0  0  0
  -25.8493  -32.0098   26.6061 C   0  0  0  0  0  0  0  0  0  0  0  0
  -27.8326  -32.7252   25.2729 C   0  0  0  0  0  0  0  0  0  0  0  0
  -22.4068  -35.0372   21.7963 C   0  0  0  0  0  0  0  0  0  0  0  0
  -22.3655  -14.7381   24.6965 C   0  0  0  0  0  0  0  0  0  0  0  0
  -20.1913  -15.9517   24.7186 C   0  0  0  0  0  0  0  0  0  0  0  0
  -19.2635  -20.7598   22.5254 C   0  0  0  0  0  0  0  0  0  0  0  0
  -21.9875  -16.6443   23.1392 C   0  0  0  0  0  0  0  0  0  0  0  0
  -20.5980  -26.2449   19.8372 C   0  0  0  0  0  0  0  0  0  1  0  0
  -25.7031  -32.0748   24.0752 C   0  0  1  0  0  0  0  0  0  0  0  0
  -23.6068  -35.2317   23.9782 C   0  0  2  0  0  0  0  0  0  0  0  0
  -26.6214  -31.7674   25.2917 C   0  0  0  0  0  0  0  0  0  0  0  0
  -25.4514  -12.8438   19.8578 N   0  0  0  0  0  0  0  0  0  0  0  0
  -24.4124  -12.1100   20.2914 N   0  0  0  0  0  0  0  0  0  0  0  0
  -25.8115  -30.8758   21.9132 N   0  0  0  0  0  0  0  0  0  0  0  0
  -21.4836  -14.1345   18.9105 N   0  0  0  0  0  0  0  0  0  0  0  0
  -23.8324  -10.3284   21.7407 N   0  0  0  0  0  0  0  0  0  0  0  0
  -28.2962  -10.7193   22.3047 N   0  0  0  0  0  0  0  0  0  0  0  0
  -20.9248  -15.6340   20.6431 N   0  0  0  0  0  0  0  0  0  0  0  0
  -19.8940  -21.8401   21.8003 N   0  0  0  0  0  0  0  0  0  0  0  0
  -28.0902  -28.7091   20.0668 N   0  0  0  0  0  0  0  0  0  0  0  0
  -25.2094  -33.4469   24.0310 N   0  0  0  0  0  0  0  0  0  0  0  0
  -22.3707  -35.5248   23.1991 N   0  3  0  0  0  0  0  0  0  0  0  0
  -21.3643  -15.5139   23.8790 N   0  3  0  0  0  0  0  0  0  0  0  0
  -26.4352   -9.5399   22.9408 O   0  0  0  0  0  0  0  0  0  0  0  0
  -18.2299  -23.4335   22.1111 O   0  0  0  0  0  0  0  0  0  0  0  0
  -27.1616  -28.7242   22.2022 O   0  0  0  0  0  0  0  0  0  0  0  0
  -27.4127  -32.4732   22.4799 O   0  0  0  0  0  0  0  0  0  0  0  0
  -22.9544  -32.9064   24.0474 O   0  0  0  0  0  0  0  0  0  0  0  0
  -19.3999  -15.1338   18.9680 O   0  0  0  0  0  0  0  0  0  0  0  0
  -31.6285  -14.3878   19.7603 O   0  0  0  0  0  0  0  0  0  0  0  0
  -20.8921  -27.3696   20.6647 O   0  0  0  0  0  0  0  0  0  1  0  0
  -32.2081  -19.8709   19.7021 F   0  0  0  0  0  0  0  0  0  0  0  0
  -33.2503  -15.6621   21.6010 F   0  0  0  0  0  0  0  0  0  0  0  0
  -18.0610  -19.7923   19.8539 Cl  0  0  0  0  0  0  0  0  0  0  0  0
  1  2  1  0  0  0  0
  1  5  2  0  0  0  0
  2  6  2  0  0  0  0
  3  8  2  0  0  0  0
  3 17  1  0  0  0  0
  4  9  1  0  0  0  0
  4 17  2  0  0  0  0
  5 19  1  0  0  0  0
  6 21  1  0  0  0  0
  7 10  2  0  0  0  0
  7 20  1  0  0  0  0
  8 26  1  0  0  0  0
  9 26  2  0  0  0  0
 10 27  1  0  0  0  0
 11 12  2  0  0  0  0
 11 28  1  0  0  0  0
 12 29  1  0  0  0  0
 13 22  1  0  0  0  0
 13 27  2  0  0  0  0
 14 23  2  0  0  0  0
 14 24  1  0  0  0  0
 15 25  2  0  0  0  0
 15 31  1  0  0  0  0
 16 29  2  0  0  0  0
 16 30  1  0  0  0  0
 17 32  1  0  0  0  0
 18 32  1  0  0  0  0
 18 33  2  0  0  0  0
 18 36  1  0  0  0  0
 19 21  2  0  0  0  0
 19 42  1  0  0  0  0
 20 22  2  0  0  0  0
 20 43  1  0  0  0  0
 21 51  1  0  0  0  0
 22 44  1  0  0  0  0
 23 25  1  0  0  0  0
 23 62  1  0  0  0  0
 24 31  2  0  0  0  0
 24 61  1  0  0  0  0
 25 73  1  0  0  0  0
 26 85  1  0  0  0  0
 27 86  1  0  0  0  0
 28 30  2  0  0  0  0
 28 85  1  0  0  0  0
 29 87  1  0  0  0  0
 30 88  1  0  0  0  0
 31 89  1  0  0  0  0
 32 67  2  0  0  0  0
 33 68  1  0  0  0  0
 33 71  1  0  0  0  0
 34 35  2  0  0  0  0
 34 37  1  0  0  0  0
 35 63  1  0  0  0  0
 36 72  1  0  0  0  0
 36 79  2  0  0  0  0
 37 74  1  0  0  0  0
 37 80  2  0  0  0  0
 38 52  1  0  0  0  0
 38 75  1  0  0  0  0
 38 81  2  0  0  0  0
 39 64  1  0  0  0  0
 39 69  1  0  0  0  0
 39 82  2  0  0  0  0
 40 65  1  0  0  0  0
 40 76  1  0  0  0  0
 40 83  2  0  0  0  0
 41 70  1  0  0  0  0
 41 73  1  0  0  0  0
 41 84  2  0  0  0  0
 42 45  1  0  0  0  0
 43 52  1  0  0  0  0
 44 69  1  0  0  0  0
 45 47  1  0  0  0  0
 46 48  1  0  0  0  0
 46 49  1  0  0  0  0
 47 51  1  0  0  0  0
 48 53  1  0  0  0  0
 49 70  1  0  0  0  0
 50 53  1  0  0  0  0
 50 70  1  0  0  0  0
 51 75  1  0  0  0  0
 52 69  1  0  0  0  0
 53 68  1  0  0  0  0
 54 65  1  0  0  0  0
 55 66  1  0  0  0  0
 56 66  1  0  0  0  0
 57 66  1  0  0  0  0
 58 77  1  0  0  0  0
 59 78  1  0  0  0  0
 60 78  1  0  0  0  0
 61 74  1  0  0  0  0
 62 78  1  0  0  0  0
 63 86  1  0  0  0  0
 64 66  1  0  0  0  0
 64 76  1  0  0  0  0
 65 77  1  0  0  0  0
 67 68  1  0  0  0  0
M  CHG  2  77   1  78   1
M  ISO  4  41 100  63 101  73 100  86 101
M  END
> <Batch ID>
0052

> <Smiles>
CNC(C)C(=O)NC(C(=O)N1Cc2cc([101O:1][101CH2:1]C=CC(=O)NCc3cc(CN(C)C)c([100NH:0][100C:0](=O)N4CCCC(n5nc(-c6ccc(Oc7ccc(F)cc7F)cc6)c(C(N)=O)c5N)C4)cc3Cl)ccc2CC1C(=O)NC1CCCc2ccccc21)C(C)(C)C

> <Shape>
0.255

> <Color>
0.090

> <Negative vol penalty>
0.000

$$$$

  -OEChem-04042322403D

 82 90  0     1  0  0  0  0  0999 V2000
  -27.9670  -10.2371   24.8701 C   0  0  0  0  0  0  0  0  0  0  0  0
  -28.5165  -11.4669   24.5222 C   0  0  0  0  0  0  0  0  0  0  0  0
  -20.0293  -28.5307   23.6764 C   0  0  0  0  0  0  0  0  0  0  0  0
  -20.5764  -26.7470   22.1414 C   0  0  0  0  0  0  0  0  0  0  0  0
  -27.3388  -23.7898   17.6844 C   0  0  0  0  0  0  0  0  0  0  0  0
  -26.9495   -9.6847   24.0933 C   0  0  0  0  0  0  0  0  0  0  0  0
  -28.0495  -12.1446   23.3966 C   0  0  0  0  0  0  0  0  0  0  0  0
  -27.5388  -18.2074   22.6979 C   0  0  0  0  0  0  0  0  0  0  0  0
  -26.7429  -24.9566   17.2059 C   0  0  0  0  0  0  0  0  0  0  0  0
  -18.7154  -28.5305   23.2083 C   0  0  0  0  0  0  0  0  0  0  0  0
  -19.2625  -26.7468   21.6733 C   0  0  0  0  0  0  0  0  0  0  0  0
  -28.3548  -19.1521   22.0771 C   0  0  0  0  0  0  0  0  0  0  0  0
  -16.2615  -25.5634   22.6803 C   0  0  0  0  0  0  0  0  0  0  0  0
  -15.6335  -24.3287   22.5167 C   0  0  0  0  0  0  0  0  0  0  0  0
  -27.0109  -18.9917   20.0803 C   0  0  0  0  0  0  0  0  0  0  0  0
  -15.3338  -24.7927   20.1647 C   0  0  0  0  0  0  0  0  0  0  0  0
  -20.9599  -27.6390   23.1429 C   0  0  0  0  0  0  0  0  0  0  0  0
  -28.3655  -23.8663   18.6256 C   0  0  0  0  0  0  0  0  0  0  0  0
  -22.8409  -26.8823   24.6912 C   0  0  0  0  0  0  0  0  0  0  0  0
  -26.4631  -10.3605   22.9631 C   0  0  0  0  0  0  0  0  0  0  0  0
  -26.4574  -17.6388   22.0097 C   0  0  0  0  0  0  0  0  0  0  0  0
  -27.0254  -11.6001   22.6031 C   0  0  0  0  0  0  0  0  0  0  0  0
  -26.1811  -18.0419   20.6955 C   0  0  0  0  0  0  0  0  0  0  0  0
  -27.1738  -26.2000   17.6684 C   0  0  0  0  0  0  0  0  0  0  0  0
  -28.7963  -25.1097   19.0882 C   0  0  0  0  0  0  0  0  0  0  0  0
  -28.2005  -26.2766   18.6096 C   0  0  0  0  0  0  0  0  0  0  0  0
  -18.3319  -27.6386   22.2068 C   0  0  0  0  0  0  0  0  0  0  0  0
  -28.0927  -19.5422   20.7671 C   0  0  0  0  0  0  0  0  0  0  0  0
  -16.4255  -26.4128   21.5860 C   0  0  0  0  0  0  0  0  0  0  0  0
  -15.1697  -23.9433   21.2589 C   0  0  0  0  0  0  0  0  0  0  0  0
  -15.9617  -26.0275   20.3283 C   0  0  0  0  0  0  0  0  0  0  0  0
  -22.3175  -27.6390   23.6257 C   0  0  0  0  0  0  0  0  0  0  0  0
  -24.1660  -27.2393   24.7474 C   0  0  0  0  0  0  0  0  0  0  0  0
  -28.9712  -22.6141   19.1092 C   0  0  0  0  0  0  0  0  0  0  0  0
  -28.3115  -21.6236   19.7226 C   0  0  0  0  0  0  0  0  0  1  0  0
  -22.1877  -25.9409   25.5530 C   0  0  0  0  0  0  0  0  0  0  0  0
  -25.6736  -14.6947   21.1033 C   0  0  0  0  0  0  0  0  0  0  0  0
  -22.9067  -16.1280   20.2019 C   0  0  0  0  0  0  0  0  0  0  0  0
  -21.2962  -18.9879   19.2671 C   0  0  0  0  0  0  0  0  0  0  0  0
  -27.9806  -29.4089   20.6741 C   0  0  0  0  0  0  0  0  0  0  0  0
  -25.3945   -9.7015   22.1272 C   0  0  0  0  0  0  0  0  0  0  0  0
  -25.5707  -16.6408   22.7027 C   0  0  0  0  0  0  0  0  0  0  0  0
  -25.0203  -17.4766   19.9200 C   0  0  0  0  0  0  0  0  0  0  0  0
  -24.6977  -10.6591   21.1641 C   0  0  0  0  0  0  0  0  0  0  0  0
  -27.1038  -30.8921   23.7898 C   0  0  0  0  0  0  0  0  0  0  0  0
  -25.7231  -11.5134   20.4255 C   0  0  0  0  0  0  0  0  0  0  0  0
  -25.8249  -30.1583   24.1972 C   0  0  0  0  0  0  0  0  0  0  0  0
  -27.1715  -31.1124   22.2802 C   0  0  0  0  0  0  0  0  0  0  0  0
  -25.7245  -29.1590   21.8756 C   0  0  0  0  0  0  0  0  0  0  0  0
  -26.5284  -12.3773   21.4035 C   0  0  1  0  0  0  0  0  0  0  0  0
  -24.8047  -15.7469   21.7322 C   0  0  1  0  0  0  0  0  0  0  0  0
  -25.6374  -28.8641   23.3828 C   0  0  2  0  0  0  0  0  0  0  0  0
  -26.5185  -27.4339   17.1400 C   0  0  0  0  0  0  0  0  0  0  0  0
  -29.8980  -25.2021   20.0983 C   0  0  0  0  0  0  0  0  0  0  0  0
  -19.0447  -19.8384   18.5566 C   0  0  0  0  0  0  0  0  0  0  0  0
  -23.3198  -14.9046   17.4374 C   0  0  0  0  0  0  0  0  0  0  0  0
  -21.6228  -16.5160   16.5474 C   0  0  0  0  0  0  0  0  0  0  0  0
  -20.9617  -14.8346   18.2674 C   0  0  0  0  0  0  0  0  0  0  0  0
  -21.1287  -20.8215   21.5841 C   0  0  0  0  0  0  0  0  0  0  0  0
  -28.6609  -27.6116   19.1037 C   0  0  0  0  0  0  0  0  0  0  0  0
  -22.4091  -16.7947   18.9422 C   0  0  1  0  0  0  0  0  0  0  0  0
  -19.9866  -19.6027   19.7270 C   0  0  2  0  0  0  0  0  0  0  0  0
  -22.1015  -15.7719   17.8123 C   0  0  0  0  0  0  0  0  0  0  0  0
  -23.2352  -28.4180   23.0468 N   0  0  0  0  0  0  0  0  0  0  0  0
  -24.3485  -28.1528   23.7512 N   0  0  0  0  0  0  0  0  0  0  0  0
  -24.1862  -16.4994   20.6389 N   0  0  0  0  0  0  0  0  0  0  0  0
  -26.9880  -29.8464   21.5664 N   0  0  0  0  0  0  0  0  0  0  0  0
  -25.1811  -26.8578   25.5513 N   0  0  0  0  0  0  0  0  0  0  0  0
  -20.8224  -25.6915   25.3573 N   0  0  0  0  0  0  0  0  0  0  0  0
  -25.7490  -13.5205   21.8280 N   0  0  0  0  0  0  0  0  0  0  0  0
  -21.2662  -17.6111   19.3366 N   0  0  0  0  0  0  0  0  0  0  0  0
  -27.7308  -28.1959   20.0441 N   0  0  0  0  0  0  0  0  0  0  0  0
  -20.2358  -20.9088   20.4001 N   0  3  0  0  0  0  0  0  0  0  0  0
  -22.7929  -25.3509   26.4799 O   0  0  0  0  0  0  0  0  0  0  0  0
  -26.2328  -14.9300   20.0386 O   0  0  0  0  0  0  0  0  0  0  0  0
  -22.1839  -15.3132   20.7810 O   0  0  0  0  0  0  0  0  0  0  0  0
  -22.2490  -19.6614   18.8810 O   0  0  0  0  0  0  0  0  0  0  0  0
  -29.0155  -30.0491   20.4590 O   0  0  0  0  0  0  0  0  0  0  0  0
  -17.0498  -27.6380   21.7499 O   0  0  0  0  0  0  0  0  0  0  0  0
  -28.8880  -20.4636   20.1585 O   0  0  0  0  0  0  0  0  0  1  0  0
  -14.5682  -22.7569   21.1017 F   0  0  0  0  0  0  0  0  0  0  0  0
  -16.1175  -26.8388   19.2731 F   0  0  0  0  0  0  0  0  0  0  0  0
  1  2  1  0  0  0  0
  1  6  2  0  0  0  0
  2  7  2  0  0  0  0
  3 10  2  0  0  0  0
  3 17  1  0  0  0  0
  4 11  1  0  0  0  0
  4 17  2  0  0  0  0
  5  9  2  0  0  0  0
  5 18  1  0  0  0  0
  6 20  1  0  0  0  0
  7 22  1  0  0  0  0
  8 12  2  0  0  0  0
  8 21  1  0  0  0  0
  9 24  1  0  0  0  0
 10 27  1  0  0  0  0
 11 27  2  0  0  0  0
 12 28  1  0  0  0  0
 13 14  2  0  0  0  0
 13 29  1  0  0  0  0
 14 30  1  0  0  0  0
 15 23  1  0  0  0  0
 15 28  2  0  0  0  0
 16 30  2  0  0  0  0
 16 31  1  0  0  0  0
 17 32  1  0  0  0  0
 18 25  2  0  0  0  0
 18 34  1  0  0  0  0
 19 32  1  0  0  0  0
 19 33  2  0  0  0  0
 19 36  1  0  0  0  0
 20 22  2  0  0  0  0
 20 41  1  0  0  0  0
 21 23  2  0  0  0  0
 21 42  1  0  0  0  0
 22 50  1  0  0  0  0
 23 43  1  0  0  0  0
 24 26  2  0  0  0  0
 24 53  1  0  0  0  0
 25 26  1  0  0  0  0
 25 54  1  0  0  0  0
 26 60  1  0  0  0  0
 27 79  1  0  0  0  0
 28 80  1  0  0  0  0
 29 31  2  0  0  0  0
 29 79  1  0  0  0  0
 30 81  1  0  0  0  0
 31 82  1  0  0  0  0
 32 64  2  0  0  0  0
 33 65  1  0  0  0  0
 33 68  1  0  0  0  0
 34 35  2  0  0  0  0
 35 80  1  0  0  0  0
 36 69  1  0  0  0  0
 36 74  2  0  0  0  0
 37 51  1  0  0  0  0
 37 70  1  0  0  0  0
 37 75  2  0  0  0  0
 38 61  1  0  0  0  0
 38 66  1  0  0  0  0
 38 76  2  0  0  0  0
 39 62  1  0  0  0  0
 39 71  1  0  0  0  0
 39 77  2  0  0  0  0
 40 67  1  0  0  0  0
 40 72  1  0  0  0  0
 40 78  2  0  0  0  0
 41 44  1  0  0  0  0
 42 51  1  0  0  0  0
 43 66  1  0  0  0  0
 44 46  1  0  0  0  0
 45 47  1  0  0  0  0
 45 48  1  0  0  0  0
 46 50  1  0  0  0  0
 47 52  1  0  0  0  0
 48 67  1  0  0  0  0
 49 52  1  0  0  0  0
 49 67  1  0  0  0  0
 50 70  1  0  0  0  0
 51 66  1  0  0  0  0
 52 65  1  0  0  0  0
 55 62  1  0  0  0  0
 56 63  1  0  0  0  0
 57 63  1  0  0  0  0
 58 63  1  0  0  0  0
 59 73  1  0  0  0  0
 60 72  1  0  0  0  0
 61 63  1  0  0  0  0
 61 71  1  0  0  0  0
 62 73  1  0  0  0  0
 64 65  1  0  0  0  0
M  CHG  1  73   1
M  ISO  4  35 101  40 100  72 100  80 101
M  END
> <Batch ID>
0052

> <Smiles>
CNC(C)C(=O)NC(C(=O)N1Cc2cc([101O:1][101CH:1]=Cc3ccc(C)c(C[100NH:0][100C:0](=O)N4CCCC(n5nc(-c6ccc(Oc7ccc(F)cc7F)cc6)c(C(N)=O)c5N)C4)c3C)ccc2CC1C(=O)NC1CCCc2ccccc21)C(C)(C)C

> <Shape>
0.186

> <Color>
0.068

> <Negative vol penalty>
0.000

$$$$

  -OEChem-04042322403D

 80 88  0     1  0  0  0  0  0999 V2000
  -23.2031   -8.2960   21.7246 C   0  0  0  0  0  0  0  0  0  0  0  0
  -24.3791   -8.9986   21.9672 C   0  0  0  0  0  0  0  0  0  0  0  0
  -34.6011  -15.5797   19.1401 C   0  0  0  0  0  0  0  0  0  0  0  0
  -26.3841  -25.7598   19.2762 C   0  0  0  0  0  0  0  0  0  0  0  0
  -26.8006  -24.7687   21.4399 C   0  0  0  0  0  0  0  0  0  0  0  0
  -22.1851   -8.8813   20.9730 C   0  0  0  0  0  0  0  0  0  0  0  0
  -24.5382  -10.2866   21.4572 C   0  0  0  0  0  0  0  0  0  0  0  0
  -27.5215  -14.9444   24.0861 C   0  0  0  0  0  0  0  0  0  0  0  0
  -33.9415  -16.0110   20.2910 C   0  0  0  0  0  0  0  0  0  0  0  0
  -25.4788  -26.6478   19.8572 C   0  0  0  0  0  0  0  0  0  0  0  0
  -25.8954  -25.6567   22.0209 C   0  0  0  0  0  0  0  0  0  0  0  0
  -28.8050  -15.4578   23.9049 C   0  0  0  0  0  0  0  0  0  0  0  0
  -25.6009  -29.5140   21.6469 C   0  0  0  0  0  0  0  0  0  0  0  0
  -25.6781  -30.8555   21.2731 C   0  0  0  0  0  0  0  0  0  0  0  0
  -34.0792  -15.8822   17.8824 C   0  0  0  0  0  0  0  0  0  0  0  0
  -27.9216  -17.1159   22.3917 C   0  0  0  0  0  0  0  0  0  0  0  0
  -23.4071  -30.7582   20.4544 C   0  0  0  0  0  0  0  0  0  0  0  0
  -27.0450  -24.8202   20.0676 C   0  0  0  0  0  0  0  0  0  0  0  0
  -29.3630  -24.0933   19.2893 C   0  0  0  0  0  0  0  0  0  0  0  0
  -22.3279  -10.1809   20.4617 C   0  0  0  0  0  0  0  0  0  0  0  0
  -26.4282  -15.5069   23.4118 C   0  0  0  0  0  0  0  0  0  0  0  0
  -23.5217  -10.8894   20.6969 C   0  0  0  0  0  0  0  0  0  0  0  0
  -26.6249  -16.6093   22.5680 C   0  0  0  0  0  0  0  0  0  0  0  0
  -32.7601  -16.7448   20.1842 C   0  0  0  0  0  0  0  0  0  0  0  0
  -32.2381  -17.0472   18.9265 C   0  0  0  0  0  0  0  0  0  0  0  0
  -25.2345  -26.5963   21.2296 C   0  0  0  0  0  0  0  0  0  0  0  0
  -29.0056  -16.5419   23.0554 C   0  0  0  0  0  0  0  0  0  0  0  0
  -24.4268  -28.7944   21.4244 C   0  0  0  0  0  0  0  0  0  0  0  0
  -24.5812  -31.4777   20.6769 C   0  0  0  0  0  0  0  0  0  0  0  0
  -23.3299  -29.4166   20.8283 C   0  0  0  0  0  0  0  0  0  0  0  0
  -32.8978  -16.6159   17.7756 C   0  0  0  0  0  0  0  0  0  0  0  0
  -27.9798  -23.9023   19.4679 C   0  0  0  0  0  0  0  0  0  0  0  0
  -29.7929  -22.9402   18.6793 C   0  0  0  0  0  0  0  0  0  0  0  0
  -30.1858  -25.2128   19.6432 C   0  0  0  0  0  0  0  0  0  0  0  0
  -24.3232  -14.4493   21.2777 C   0  0  0  0  0  0  0  0  0  0  0  0
  -22.9613  -17.3536   21.7600 C   0  0  0  0  0  0  0  0  0  0  0  0
  -23.3336  -20.6013   22.7402 C   0  0  0  0  0  0  0  0  0  0  0  0
  -29.8397  -17.3900   18.2363 C   0  0  0  0  0  0  0  0  0  0  0  0
  -21.2192  -10.7537   19.6149 C   0  0  0  0  0  0  0  0  0  0  0  0
  -25.0461  -14.9583   23.6387 C   0  0  0  0  0  0  0  0  0  0  0  0
  -25.4815  -17.2622   21.8367 C   0  0  0  0  0  0  0  0  0  0  0  0
  -21.3155  -12.2655   19.4267 C   0  0  0  0  0  0  0  0  0  0  0  0
  -27.1737  -19.1223   16.6336 C   0  0  0  0  0  0  0  0  0  0  0  0
  -22.7409  -12.6684   19.0625 C   0  0  0  0  0  0  0  0  0  0  0  0
  -27.2595  -20.5360   17.2134 C   0  0  0  0  0  0  0  0  0  0  0  0
  -27.5128  -18.0596   17.6774 C   0  0  0  0  0  0  0  0  0  0  0  0
  -28.8801  -19.6679   18.9475 C   0  0  0  0  0  0  0  0  0  0  0  0
  -23.7218  -12.2981   20.1816 C   0  0  1  0  0  0  0  0  0  0  0  0
  -24.0803  -15.2837   22.5035 C   0  0  1  0  0  0  0  0  0  0  0  0
  -28.6101  -20.7758   17.9163 C   0  0  2  0  0  0  0  0  0  0  0  0
  -22.0501  -22.7432   22.9893 C   0  0  0  0  0  0  0  0  0  0  0  0
  -23.0692  -17.7667   18.7388 C   0  0  0  0  0  0  0  0  0  0  0  0
  -22.6846  -20.2096   19.1292 C   0  0  0  0  0  0  0  0  0  0  0  0
  -20.9566  -18.5502   19.8241 C   0  0  0  0  0  0  0  0  0  0  0  0
  -23.8300  -20.6951   25.6563 C   0  0  0  0  0  0  0  0  0  0  0  0
  -32.0732  -17.1960   21.4457 C   0  0  0  0  0  0  0  0  0  0  0  0
  -23.1102  -18.7208   21.1376 C   0  0  1  0  0  0  0  0  0  0  0  0
  -22.5160  -21.4703   23.6787 C   0  0  2  0  0  0  0  0  0  0  0  0
  -22.4772  -18.7985   19.7196 C   0  0  0  0  0  0  0  0  0  0  0  0
  -27.5588  -22.7209   19.0083 N   0  0  0  0  0  0  0  0  0  0  0  0
  -28.6841  -22.1592   18.5349 N   0  0  0  0  0  0  0  0  0  0  0  0
  -24.1501  -16.6856   22.0864 N   0  0  0  0  0  0  0  0  0  0  0  0
  -28.8073  -18.3497   18.2981 N   0  0  0  0  0  0  0  0  0  0  0  0
  -31.0074  -22.5283   18.2576 N   0  0  0  0  0  0  0  0  0  0  0  0
  -29.5828  -26.3155   20.2635 N   0  0  0  0  0  0  0  0  0  0  0  0
  -31.0351  -17.7900   18.8325 N   0  0  0  0  0  0  0  0  0  0  0  0
  -23.6340  -13.2517   21.2667 N   0  0  0  0  0  0  0  0  0  0  0  0
  -22.5497  -19.6684   22.0949 N   0  0  0  0  0  0  0  0  0  0  0  0
  -30.9156  -16.3700   21.7579 N   0  0  0  0  0  0  0  0  0  1  0  0
  -23.3261  -21.8506   24.8703 N   0  3  0  0  0  0  0  0  0  0  0  0
  -31.4163  -25.2416   19.4012 O   0  0  0  0  0  0  0  0  0  0  0  0
  -25.0788  -14.8622   20.4057 O   0  0  0  0  0  0  0  0  0  0  0  0
  -21.8319  -16.8982   21.9562 O   0  0  0  0  0  0  0  0  0  0  0  0
  -24.5458  -20.7389   22.5914 O   0  0  0  0  0  0  0  0  0  0  0  0
  -29.6839  -16.3048   17.6706 O   0  0  0  0  0  0  0  0  0  0  0  0
  -24.3514  -27.4628   21.7969 O   0  0  0  0  0  0  0  0  0  0  0  0
  -30.2574  -17.0446   22.8763 O   0  0  0  0  0  0  0  0  0  1  0  0
  -24.6550  -32.7664   20.3193 F   0  0  0  0  0  0  0  0  0  0  0  0
  -22.1988  -28.7308   20.6131 F   0  0  0  0  0  0  0  0  0  0  0  0
  -32.2892  -16.9654   16.1964 Cl  0  0  0  0  0  0  0  0  0  0  0  0
  1  2  1  0  0  0  0
  1  6  2  0  0  0  0
  2  7  2  0  0  0  0
  3  9  2  0  0  0  0
  3 15  1  0  0  0  0
  4 10  2  0  0  0  0
  4 18  1  0  0  0  0
  5 11  1  0  0  0  0
  5 18  2  0  0  0  0
  6 20  1  0  0  0  0
  7 22  1  0  0  0  0
  8 12  2  0  0  0  0
  8 21  1  0  0  0  0
  9 24  1  0  0  0  0
 10 26  1  0  0  0  0
 11 26  2  0  0  0  0
 12 27  1  0  0  0  0
 13 14  2  0  0  0  0
 13 28  1  0  0  0  0
 14 29  1  0  0  0  0
 15 31  2  0  0  0  0
 16 23  1  0  0  0  0
 16 27  2  0  0  0  0
 17 29  2  0  0  0  0
 17 30  1  0  0  0  0
 18 32  1  0  0  0  0
 19 32  1  0  0  0  0
 19 33  2  0  0  0  0
 19 34  1  0  0  0  0
 20 22  2  0  0  0  0
 20 39  1  0  0  0  0
 21 23  2  0  0  0  0
 21 40  1  0  0  0  0
 22 48  1  0  0  0  0
 23 41  1  0  0  0  0
 24 25  2  0  0  0  0
 24 56  1  0  0  0  0
 25 31  1  0  0  0  0
 25 66  1  0  0  0  0
 26 76  1  0  0  0  0
 27 77  1  0  0  0  0
 28 30  2  0  0  0  0
 28 76  1  0  0  0  0
 29 78  1  0  0  0  0
 30 79  1  0  0  0  0
 31 80  1  0  0  0  0
 32 60  2  0  0  0  0
 33 61  1  0  0  0  0
 33 64  1  0  0  0  0
 34 65  1  0  0  0  0
 34 71  2  0  0  0  0
 35 49  1  0  0  0  0
 35 67  1  0  0  0  0
 35 72  2  0  0  0  0
 36 57  1  0  0  0  0
 36 62  1  0  0  0  0
 36 73  2  0  0  0  0
 37 58  1  0  0  0  0
 37 68  1  0  0  0  0
 37 74  2  0  0  0  0
 38 63  1  0  0  0  0
 38 66  1  0  0  0  0
 38 75  2  0  0  0  0
 39 42  1  0  0  0  0
 40 49  1  0  0  0  0
 41 62  1  0  0  0  0
 42 44  1  0  0  0  0
 43 45  1  0  0  0  0
 43 46  1  0  0  0  0
 44 48  1  0  0  0  0
 45 50  1  0  0  0  0
 46 63  1  0  0  0  0
 47 50  1  0  0  0  0
 47 63  1  0  0  0  0
 48 67  1  0  0  0  0
 49 62  1  0  0  0  0
 50 61  1  0  0  0  0
 51 58  1  0  0  0  0
 52 59  1  0  0  0  0
 53 59  1  0  0  0  0
 54 59  1  0  0  0  0
 55 70  1  0  0  0  0
 56 69  1  0  0  0  0
 57 59  1  0  0  0  0
 57 68  1  0  0  0  0
 58 70  1  0  0  0  0
 60 61  1  0  0  0  0
 69 77  1  0  0  0  0
M  CHG  1  70   1
M  ISO  4  38 100  66 100  69 101  77 101
M  END
> <Batch ID>
0052

> <Smiles>
CNC(C)C(=O)NC(C(=O)N1Cc2cc([101O:1][101NH:1]Cc3cccc(Cl)c3[100NH:0][100C:0](=O)N3CCCC(n4nc(-c5ccc(Oc6ccc(F)cc6F)cc5)c(C(N)=O)c4N)C3)ccc2CC1C(=O)NC1CCCc2ccccc21)C(C)(C)C

> <Shape>
0.192

> <Color>
0.069

> <Negative vol penalty>
0.000

$$$$
