
  -OEChem-04042322433D

 89 97  0     1  0  0  0  0  0999 V2000
  -35.4925  -26.2614   26.3797 C   0  0  0  0  0  0  0  0  0  0  0  0
  -35.5835  -25.3577   25.3259 C   0  0  0  0  0  0  0  0  0  0  0  0
  -23.0717   -9.8809   19.9335 C   0  0  0  0  0  0  0  0  0  0  0  0
  -23.8371   -9.8700   22.2251 C   0  0  0  0  0  0  0  0  0  0  0  0
  -34.2909  -26.4044   27.0721 C   0  0  0  0  0  0  0  0  0  0  0  0
  -34.4729  -24.5957   24.9646 C   0  0  0  0  0  0  0  0  0  0  0  0
  -33.7686  -24.4439   19.9520 C   0  0  0  0  0  0  0  0  0  0  0  0
  -29.8980  -17.4333   23.1683 C   0  0  0  0  0  0  0  0  0  0  0  0
  -22.3260   -8.7276   20.1771 C   0  0  0  0  0  0  0  0  0  0  0  0
  -23.0914   -8.7166   22.4686 C   0  0  0  0  0  0  0  0  0  0  0  0
  -34.5872  -23.5851   19.2197 C   0  0  0  0  0  0  0  0  0  0  0  0
  -19.8630   -7.9214   23.0732 C   0  0  0  0  0  0  0  0  0  0  0  0
  -30.4888  -18.3094   24.0788 C   0  0  0  0  0  0  0  0  0  0  0  0
  -19.1087   -7.8747   24.2456 C   0  0  0  0  0  0  0  0  0  0  0  0
  -32.8062  -21.9596   19.1470 C   0  0  0  0  0  0  0  0  0  0  0  0
  -32.0793  -16.5847   22.5694 C   0  0  0  0  0  0  0  0  0  0  0  0
  -20.3478   -5.9295   24.9653 C   0  0  0  0  0  0  0  0  0  0  0  0
  -23.8274  -10.4521   20.9575 C   0  0  0  0  0  0  0  0  0  0  0  0
  -24.1743  -12.9773   20.8546 C   0  0  0  0  0  0  0  0  0  0  0  0
  -33.1623  -25.6508   26.7129 C   0  0  0  0  0  0  0  0  0  0  0  0
  -32.4643  -24.0619   20.2972 C   0  0  0  0  0  0  0  0  0  0  0  0
  -33.2554  -24.7279   25.6537 C   0  0  0  0  0  0  0  0  0  0  0  0
  -31.9723  -22.8164   19.8815 C   0  0  0  0  0  0  0  0  0  0  0  0
  -32.6701  -17.4609   23.4798 C   0  0  0  0  0  0  0  0  0  0  0  0
  -30.6932  -16.5709   22.4137 C   0  0  0  0  0  0  0  0  0  0  0  0
  -22.3358   -8.1455   21.4446 C   0  0  0  0  0  0  0  0  0  0  0  0
  -34.1070  -22.3415   18.8196 C   0  0  0  0  0  0  0  0  0  0  0  0
  -20.8596   -6.9720   22.8468 C   0  0  0  0  0  0  0  0  0  0  0  0
  -19.3511   -6.8788   25.1917 C   0  0  0  0  0  0  0  0  0  0  0  0
  -31.8749  -18.3232   24.2345 C   0  0  0  0  0  0  0  0  0  0  0  0
  -21.1020   -5.9761   23.7929 C   0  0  0  0  0  0  0  0  0  0  0  0
  -24.5984  -11.6431   20.7064 C   0  0  0  0  0  0  0  0  0  0  0  0
  -25.2671  -13.7270   20.4940 C   0  0  0  0  0  0  0  0  0  0  0  0
  -22.9059  -13.4928   21.2802 C   0  0  0  0  0  0  0  0  0  0  0  0
  -36.3753  -17.2496   20.5584 C   0  0  0  0  0  0  0  0  0  0  0  0
  -35.7056  -16.8567   21.8364 C   0  0  0  0  0  0  0  0  0  0  0  0
  -30.9167  -23.5831   23.0320 C   0  0  0  0  0  0  0  0  0  0  0  0
  -28.3593  -23.2193   21.0700 C   0  0  0  0  0  0  0  0  0  0  0  0
  -27.1789  -22.4539   17.9607 C   0  0  0  0  0  0  0  0  0  0  0  0
  -30.7360  -14.7598   20.6630 C   0  0  0  0  0  0  0  0  0  0  0  0
  -31.8985  -25.8057   27.5213 C   0  0  0  0  0  0  0  0  0  0  0  0
  -31.5849  -25.0108   21.0645 C   0  0  0  0  0  0  0  0  0  0  0  0
  -30.5725  -22.3673   20.2090 C   0  0  0  0  0  0  0  0  0  0  0  0
  -30.6619  -25.2323   26.8343 C   0  0  0  0  0  0  0  0  0  0  0  0
  -29.6108  -12.3652   18.2804 C   0  0  0  0  0  0  0  0  0  0  0  0
  -30.9575  -23.8446   26.2743 C   0  0  0  0  0  0  0  0  0  0  0  0
  -28.1715  -12.0736   18.7113 C   0  0  0  0  0  0  0  0  0  0  0  0
  -30.5292  -12.5836   19.4814 C   0  0  0  0  0  0  0  0  0  0  0  0
  -28.6271  -13.3022   20.8724 C   0  0  0  0  0  0  0  0  0  0  0  0
  -32.0657  -23.9013   25.2159 C   0  0  1  0  0  0  0  0  0  0  0  0
  -30.4490  -24.3086   21.8022 C   0  0  1  0  0  0  0  0  0  0  0  0
  -27.6511  -13.1394   19.6957 C   0  0  2  0  0  0  0  0  0  0  0  0
  -25.0401  -22.2044   16.6720 C   0  0  0  0  0  0  0  0  0  0  0  0
  -27.8560  -20.5347   22.4299 C   0  0  0  0  0  0  0  0  0  0  0  0
  -26.3544  -19.9279   20.5207 C   0  0  0  0  0  0  0  0  0  0  0  0
  -25.7950  -21.8762   21.9747 C   0  0  0  0  0  0  0  0  0  0  0  0
  -34.5558  -19.1059   21.8352 C   0  0  0  0  0  0  0  0  0  0  0  0
  -27.9323  -24.6018   16.0693 C   0  0  0  0  0  0  0  0  0  0  0  0
  -34.1622  -17.4732   23.6467 C   0  0  0  0  0  0  0  0  0  0  0  0
  -36.0018  -19.3683   18.0346 C   0  0  0  0  0  0  0  0  0  0  0  0
  -35.8802  -17.8605   18.2087 C   0  0  0  0  0  0  0  0  0  0  0  0
  -34.6870  -20.1007   18.2735 C   0  0  0  0  0  0  0  0  0  1  0  0
  -27.7224  -22.0563   20.3484 C   0  0  1  0  0  0  0  0  0  0  0  0
  -26.1647  -23.1478   17.0693 C   0  0  2  0  0  0  0  0  0  0  0  0
  -26.9590  -21.1061   21.3137 C   0  0  0  0  0  0  0  0  0  0  0  0
  -25.8620  -11.5476   20.2844 N   0  0  0  0  0  0  0  0  0  0  0  0
  -26.2413  -12.8313   20.1643 N   0  0  0  0  0  0  0  0  0  0  0  0
  -29.7534  -23.3278   20.9665 N   0  0  0  0  0  0  0  0  0  0  0  0
  -29.9745  -13.6093   20.3674 N   0  0  0  0  0  0  0  0  0  0  0  0
  -25.4802  -15.0585   20.4300 N   0  0  0  0  0  0  0  0  0  0  0  0
  -21.8929  -12.5834   21.6135 N   0  0  0  0  0  0  0  0  0  0  0  0
  -30.0925  -15.6804   21.4895 N   0  0  0  0  0  0  0  0  0  0  0  0
  -35.4780  -17.4944   19.5385 N   0  0  0  0  0  0  0  0  0  0  0  0
  -31.5409  -24.3942   23.9605 N   0  0  0  0  0  0  0  0  0  0  0  0
  -26.8915  -22.6337   19.2973 N   0  0  0  0  0  0  0  0  0  0  0  0
  -34.8466  -17.7927   22.4028 N   0  0  0  0  0  0  0  0  0  0  0  0
  -26.8214  -23.6456   15.8276 N   0  3  0  0  0  0  0  0  0  0  0  0
  -22.6724  -14.7235   21.3469 O   0  0  0  0  0  0  0  0  0  0  0  0
  -37.5948  -17.2911   20.5394 O   0  0  0  0  0  0  0  0  0  0  0  0
  -35.9888  -15.7435   22.2629 O   0  0  0  0  0  0  0  0  0  0  0  0
  -30.7242  -22.3770   23.1319 O   0  0  0  0  0  0  0  0  0  0  0  0
  -27.6456  -24.0066   21.6963 O   0  0  0  0  0  0  0  0  0  0  0  0
  -28.1286  -21.8132   17.5158 O   0  0  0  0  0  0  0  0  0  0  0  0
  -31.8643  -14.9295   20.1939 O   0  0  0  0  0  0  0  0  0  0  0  0
  -21.6080   -7.0202   21.6827 O   0  0  0  0  0  0  0  0  0  0  0  0
  -34.9040  -21.5010   18.1053 O   0  0  0  0  0  0  0  0  0  1  0  0
  -18.6278   -6.8351   26.3182 F   0  0  0  0  0  0  0  0  0  0  0  0
  -32.4334  -19.1696   25.1109 F   0  0  0  0  0  0  0  0  0  0  0  0
  -22.0589   -5.0621   23.5815 F   0  0  0  0  0  0  0  0  0  0  0  0
  1  2  1  0  0  0  0
  1  5  2  0  0  0  0
  2  6  2  0  0  0  0
  3  9  2  0  0  0  0
  3 18  1  0  0  0  0
  4 10  1  0  0  0  0
  4 18  2  0  0  0  0
  5 20  1  0  0  0  0
  6 22  1  0  0  0  0
  7 11  2  0  0  0  0
  7 21  1  0  0  0  0
  8 13  2  0  0  0  0
  8 25  1  0  0  0  0
  9 26  1  0  0  0  0
 10 26  2  0  0  0  0
 11 27  1  0  0  0  0
 12 14  2  0  0  0  0
 12 28  1  0  0  0  0
 13 30  1  0  0  0  0
 14 29  1  0  0  0  0
 15 23  1  0  0  0  0
 15 27  2  0  0  0  0
 16 24  1  0  0  0  0
 16 25  2  0  0  0  0
 17 29  2  0  0  0  0
 17 31  1  0  0  0  0
 18 32  1  0  0  0  0
 19 32  1  0  0  0  0
 19 33  2  0  0  0  0
 19 34  1  0  0  0  0
 20 22  2  0  0  0  0
 20 41  1  0  0  0  0
 21 23  2  0  0  0  0
 21 42  1  0  0  0  0
 22 50  1  0  0  0  0
 23 43  1  0  0  0  0
 24 30  2  0  0  0  0
 24 59  1  0  0  0  0
 25 72  1  0  0  0  0
 26 85  1  0  0  0  0
 27 86  1  0  0  0  0
 28 31  2  0  0  0  0
 28 85  1  0  0  0  0
 29 87  1  0  0  0  0
 30 88  1  0  0  0  0
 31 89  1  0  0  0  0
 32 66  2  0  0  0  0
 33 67  1  0  0  0  0
 33 70  1  0  0  0  0
 34 71  1  0  0  0  0
 34 78  2  0  0  0  0
 35 36  1  0  0  0  0
 35 73  1  0  0  0  0
 35 79  2  0  0  0  0
 36 76  1  0  0  0  0
 36 80  2  0  0  0  0
 37 51  1  0  0  0  0
 37 74  1  0  0  0  0
 37 81  2  0  0  0  0
 38 63  1  0  0  0  0
 38 68  1  0  0  0  0
 38 82  2  0  0  0  0
 39 64  1  0  0  0  0
 39 75  1  0  0  0  0
 39 83  2  0  0  0  0
 40 69  1  0  0  0  0
 40 72  1  0  0  0  0
 40 84  2  0  0  0  0
 41 44  1  0  0  0  0
 42 51  1  0  0  0  0
 43 68  1  0  0  0  0
 44 46  1  0  0  0  0
 45 47  1  0  0  0  0
 45 48  1  0  0  0  0
 46 50  1  0  0  0  0
 47 52  1  0  0  0  0
 48 69  1  0  0  0  0
 49 52  1  0  0  0  0
 49 69  1  0  0  0  0
 50 74  1  0  0  0  0
 51 68  1  0  0  0  0
 52 67  1  0  0  0  0
 53 64  1  0  0  0  0
 54 65  1  0  0  0  0
 55 65  1  0  0  0  0
 56 65  1  0  0  0  0
 57 76  1  0  0  0  0
 58 77  1  0  0  0  0
 59 76  1  0  0  0  0
 60 61  1  0  0  0  0
 60 62  1  0  0  0  0
 61 73  1  0  0  0  0
 62 86  1  0  0  0  0
 63 65  1  0  0  0  0
 63 75  1  0  0  0  0
 64 77  1  0  0  0  0
 66 67  1  0  0  0  0
M  CHG  1  77   1
M  ISO  4  40 100  62 101  72 100  86 101
M  END
> <Batch ID>
0053

> <Smiles>
CNC(C)C(=O)NC(C(=O)N1Cc2cc([101O:1][101CH2:1]CCNC(=O)C(=O)N(C)Cc3cc([100NH:0][100C:0](=O)N4CCCC(n5nc(-c6ccc(Oc7ccc(F)cc7F)cc6)c(C(N)=O)c5N)C4)ccc3F)ccc2CC1C(=O)NC1CCCc2ccccc21)C(C)(C)C

> <Shape>
0.200

> <Color>
0.188

> <Negative vol penalty>
0.000

$$$$

  -OEChem-04042322433D

 87 95  0     1  0  0  0  0  0999 V2000
  -27.7658  -23.5724   16.8279 C   0  0  0  0  0  0  0  0  0  0  0  0
  -26.6429  -23.7727   17.6244 C   0  0  0  0  0  0  0  0  0  0  0  0
  -24.1732  -10.1120   22.5735 C   0  0  0  0  0  0  0  0  0  0  0  0
  -22.4550  -11.2140   21.2811 C   0  0  0  0  0  0  0  0  0  0  0  0
  -28.9811  -24.1592   17.1780 C   0  0  0  0  0  0  0  0  0  0  0  0
  -26.7351  -24.5591   18.7723 C   0  0  0  0  0  0  0  0  0  0  0  0
  -22.8650  -27.7935   19.2270 C   0  0  0  0  0  0  0  0  0  0  0  0
  -23.2161   -9.2532   23.1138 C   0  0  0  0  0  0  0  0  0  0  0  0
  -21.4978  -10.3552   21.8214 C   0  0  0  0  0  0  0  0  0  0  0  0
  -21.6543  -27.2771   19.6867 C   0  0  0  0  0  0  0  0  0  0  0  0
  -21.5303   -6.4832   22.1555 C   0  0  0  0  0  0  0  0  0  0  0  0
  -21.8390   -5.1244   22.2161 C   0  0  0  0  0  0  0  0  0  0  0  0
  -22.1383  -28.1229   21.8934 C   0  0  0  0  0  0  0  0  0  0  0  0
  -21.5894   -5.1748   24.6186 C   0  0  0  0  0  0  0  0  0  0  0  0
  -23.7927  -11.0924   21.6571 C   0  0  0  0  0  0  0  0  0  0  0  0
  -25.5356  -11.7831   19.9272 C   0  0  0  0  0  0  0  0  0  0  0  0
  -29.0859  -24.9611   18.3255 C   0  0  0  0  0  0  0  0  0  0  0  0
  -23.7280  -28.4701   20.1011 C   0  0  0  0  0  0  0  0  0  0  0  0
  -27.9532  -25.1561   19.1388 C   0  0  0  0  0  0  0  0  0  0  0  0
  -23.3583  -28.6491   21.4418 C   0  0  0  0  0  0  0  0  0  0  0  0
  -21.8784   -9.3748   22.7378 C   0  0  0  0  0  0  0  0  0  0  0  0
  -21.2921  -27.4392   21.0207 C   0  0  0  0  0  0  0  0  0  0  0  0
  -21.2512   -7.1879   23.3265 C   0  0  0  0  0  0  0  0  0  0  0  0
  -21.8686   -4.4701   23.4476 C   0  0  0  0  0  0  0  0  0  0  0  0
  -21.2808   -6.5337   24.5580 C   0  0  0  0  0  0  0  0  0  0  0  0
  -24.7809  -11.9802   21.0991 C   0  0  0  0  0  0  0  0  0  0  0  0
  -26.3237  -12.9041   19.8338 C   0  0  0  0  0  0  0  0  0  0  0  0
  -22.8830  -21.2946   23.0256 C   0  0  0  0  0  0  0  0  0  0  0  0
  -23.9287  -20.4722   23.1755 C   0  0  0  0  0  0  0  0  0  0  0  0
  -25.8670  -21.9092   22.6596 C   0  0  0  0  0  0  0  0  0  0  0  0
  -22.8624  -22.5812   22.3577 C   0  0  0  0  0  0  0  0  0  0  0  0
  -23.8702  -23.4781   22.3267 C   0  0  0  0  0  0  0  0  0  0  0  0
  -25.2824  -20.7047   22.7273 C   0  0  0  0  0  0  0  0  0  0  0  0
  -25.1934  -23.1965   22.9770 C   0  0  0  0  0  0  0  0  0  0  0  0
  -25.5252  -10.6849   19.0055 C   0  0  0  0  0  0  0  0  0  0  0  0
  -21.5642  -22.9590   21.7589 C   0  0  0  0  0  0  0  0  0  0  0  0
  -26.6908  -27.9892   21.1470 C   0  0  0  0  0  0  0  0  0  0  0  0
  -26.2593  -30.8939   22.5250 C   0  0  0  0  0  0  0  0  0  0  0  0
  -24.0879  -33.2392   23.7215 C   0  0  0  0  0  0  0  0  0  0  0  0
  -25.4620  -18.3969   21.9869 C   0  0  0  0  0  0  0  0  0  0  0  0
  -30.4321  -25.5358   18.6891 C   0  0  0  0  0  0  0  0  0  0  0  0
  -25.0182  -29.0444   19.5835 C   0  0  0  0  0  0  0  0  0  0  0  0
  -24.2399  -29.3853   22.4160 C   0  0  0  0  0  0  0  0  0  0  0  0
  -30.3562  -26.6614   19.7175 C   0  0  0  0  0  0  0  0  0  0  0  0
  -28.4253  -16.2488   22.5002 C   0  0  0  0  0  0  0  0  0  0  0  0
  -29.4383  -26.2695   20.8711 C   0  0  0  0  0  0  0  0  0  0  0  0
  -27.8601  -14.8786   22.1385 C   0  0  0  0  0  0  0  0  0  0  0  0
  -27.3779  -17.1459   23.1586 C   0  0  0  0  0  0  0  0  0  0  0  0
  -25.5662  -15.9228   21.9904 C   0  0  0  0  0  0  0  0  0  0  0  0
  -28.0073  -26.0228   20.3782 C   0  0  1  0  0  0  0  0  0  0  0  0
  -26.0551  -29.2680   20.6799 C   0  0  1  0  0  0  0  0  0  0  0  0
  -26.5925  -15.0244   21.2831 C   0  0  2  0  0  0  0  0  0  0  0  0
  -23.8131  -24.8331   21.6661 C   0  0  0  0  0  0  0  0  0  0  0  0
  -24.0334  -35.4939   24.8216 C   0  0  0  0  0  0  0  0  0  0  0  0
  -17.6238  -25.8808   22.5919 C   0  0  0  0  0  0  0  0  0  0  0  0
  -27.0685  -29.6174   25.1756 C   0  0  0  0  0  0  0  0  0  0  0  0
  -26.0967  -31.6040   26.3491 C   0  0  0  0  0  0  0  0  0  0  0  0
  -28.0165  -31.8982   24.7837 C   0  0  0  0  0  0  0  0  0  0  0  0
  -22.5920  -34.4331   21.4641 C   0  0  0  0  0  0  0  0  0  0  0  0
  -19.4414  -24.1342   22.2772 C   0  0  0  0  0  0  0  0  0  0  0  0
  -20.0578  -26.5318   22.8397 C   0  0  0  0  0  0  0  0  0  1  0  0
  -25.7247  -31.3794   23.8507 C   0  0  1  0  0  0  0  0  0  0  0  0
  -24.0036  -34.7389   23.5019 C   0  0  2  0  0  0  0  0  0  0  0  0
  -19.0219  -25.4145   23.0120 C   0  0  1  0  0  0  0  0  0  0  0  0
  -26.7107  -31.1092   25.0222 C   0  0  0  0  0  0  0  0  0  0  0  0
  -25.0641  -13.1355   21.7066 N   0  0  0  0  0  0  0  0  0  0  0  0
  -25.7722  -24.0928   23.7152 N   0  0  0  0  0  0  0  0  0  0  0  0
  -26.0057  -13.6744   20.9135 N   0  0  0  0  0  0  0  0  0  0  0  0
  -25.4941  -29.9230   21.8633 N   0  0  0  0  0  0  0  0  0  0  0  0
  -26.1469  -17.2214   22.3553 N   0  0  0  0  0  0  0  0  0  0  0  0
  -27.2508  -13.2962   18.9342 N   0  0  0  0  0  0  0  0  0  0  0  0
  -24.6547   -9.6144   19.2514 N   0  0  0  0  0  0  0  0  0  0  0  0
  -26.0180  -19.5873   22.4475 N   0  0  0  0  0  0  0  0  0  0  0  0
  -20.7507  -23.6587   22.6340 N   0  0  0  0  0  0  0  0  0  0  0  0
  -27.3286  -27.2800   20.1472 N   0  0  0  0  0  0  0  0  0  0  0  0
  -25.3893  -32.7870   23.6647 N   0  0  0  0  0  0  0  0  0  0  0  0
  -22.7422  -35.0879   22.7891 N   0  3  0  0  0  0  0  0  0  0  0  0
  -26.2778  -10.6463   18.0026 O   0  0  0  0  0  0  0  0  0  0  0  0
  -21.2983  -22.6555   20.6010 O   0  0  0  0  0  0  0  0  0  0  0  0
  -26.6100  -27.6702   22.3275 O   0  0  0  0  0  0  0  0  0  0  0  0
  -27.3132  -31.3640   22.0891 O   0  0  0  0  0  0  0  0  0  0  0  0
  -23.0986  -32.5394   23.9268 O   0  0  0  0  0  0  0  0  0  0  0  0
  -24.4294  -18.3761   21.3072 O   0  0  0  0  0  0  0  0  0  0  0  0
  -20.9441   -8.5368   23.2646 O   0  0  0  0  0  0  0  0  0  0  0  0
  -20.1112  -26.9356   21.4721 O   0  0  0  0  0  0  0  0  0  1  0  0
  -22.1636   -3.1648   23.5055 F   0  0  0  0  0  0  0  0  0  0  0  0
  -21.0123   -7.2051   25.6863 F   0  0  0  0  0  0  0  0  0  0  0  0
  1  2  1  0  0  0  0
  1  5  2  0  0  0  0
  2  6  2  0  0  0  0
  3  8  2  0  0  0  0
  3 15  1  0  0  0  0
  4  9  1  0  0  0  0
  4 15  2  0  0  0  0
  5 17  1  0  0  0  0
  6 19  1  0  0  0  0
  7 10  2  0  0  0  0
  7 18  1  0  0  0  0
  8 21  1  0  0  0  0
  9 21  2  0  0  0  0
 10 22  1  0  0  0  0
 11 12  2  0  0  0  0
 11 23  1  0  0  0  0
 12 24  1  0  0  0  0
 13 20  1  0  0  0  0
 13 22  2  0  0  0  0
 14 24  2  0  0  0  0
 14 25  1  0  0  0  0
 15 26  1  0  0  0  0
 16 26  1  0  0  0  0
 16 27  2  0  0  0  0
 16 35  1  0  0  0  0
 17 19  2  0  0  0  0
 17 41  1  0  0  0  0
 18 20  2  0  0  0  0
 18 42  1  0  0  0  0
 19 50  1  0  0  0  0
 20 43  1  0  0  0  0
 21 84  1  0  0  0  0
 22 85  1  0  0  0  0
 23 25  2  0  0  0  0
 23 84  1  0  0  0  0
 24 86  1  0  0  0  0
 25 87  1  0  0  0  0
 26 66  2  0  0  0  0
 27 68  1  0  0  0  0
 27 71  1  0  0  0  0
 28 29  2  0  0  0  0
 28 31  1  0  0  0  0
 29 33  1  0  0  0  0
 30 33  2  0  0  0  0
 30 34  1  0  0  0  0
 31 32  2  0  0  0  0
 31 36  1  0  0  0  0
 32 34  1  0  0  0  0
 32 53  1  0  0  0  0
 33 73  1  0  0  0  0
 34 67  2  0  0  0  0
 35 72  1  0  0  0  0
 35 78  2  0  0  0  0
 36 74  1  0  0  0  0
 36 79  2  0  0  0  0
 37 51  1  0  0  0  0
 37 75  1  0  0  0  0
 37 80  2  0  0  0  0
 38 62  1  0  0  0  0
 38 69  1  0  0  0  0
 38 81  2  0  0  0  0
 39 63  1  0  0  0  0
 39 76  1  0  0  0  0
 39 82  2  0  0  0  0
 40 70  1  0  0  0  0
 40 73  1  0  0  0  0
 40 83  2  0  0  0  0
 41 44  1  0  0  0  0
 42 51  1  0  0  0  0
 43 69  1  0  0  0  0
 44 46  1  0  0  0  0
 45 47  1  0  0  0  0
 45 48  1  0  0  0  0
 46 50  1  0  0  0  0
 47 52  1  0  0  0  0
 48 70  1  0  0  0  0
 49 52  1  0  0  0  0
 49 70  1  0  0  0  0
 50 75  1  0  0  0  0
 51 69  1  0  0  0  0
 52 68  1  0  0  0  0
 54 63  1  0  0  0  0
 55 64  1  0  0  0  0
 56 65  1  0  0  0  0
 57 65  1  0  0  0  0
 58 65  1  0  0  0  0
 59 77  1  0  0  0  0
 60 64  1  0  0  0  0
 60 74  1  0  0  0  0
 61 64  1  0  0  0  0
 61 85  1  0  0  0  0
 62 65  1  0  0  0  0
 62 76  1  0  0  0  0
 63 77  1  0  0  0  0
 66 68  1  0  0  0  0
M  CHG  1  77   1
M  ISO  4  40 100  61 101  73 100  85 101
M  END
> <Batch ID>
0053

> <Smiles>
CNC(C)C(=O)NC(C(=O)N1Cc2cc([101O:1][101CH2:1]C(C)CNC(=O)c3ccc([100NH:0][100C:0](=O)N4CCCC(n5nc(-c6ccc(Oc7ccc(F)cc7F)cc6)c(C(N)=O)c5N)C4)cc(=N)c3C)ccc2CC1C(=O)NC1CCCc2ccccc21)C(C)(C)C

> <Shape>
0.290

> <Color>
0.069

> <Negative vol penalty>
0.000

$$$$

  -OEChem-04042322433D

 86 94  0     1  0  0  0  0  0999 V2000
  -27.8302  -35.4654   23.4341 C   0  0  0  0  0  0  0  0  0  0  0  0
  -28.0888  -34.1279   23.1516 C   0  0  0  0  0  0  0  0  0  0  0  0
  -24.5733   -8.8997   21.7634 C   0  0  0  0  0  0  0  0  0  0  0  0
  -23.0856  -10.2265   20.3983 C   0  0  0  0  0  0  0  0  0  0  0  0
  -26.6069  -35.8350   23.9914 C   0  0  0  0  0  0  0  0  0  0  0  0
  -27.1246  -33.1592   23.4274 C   0  0  0  0  0  0  0  0  0  0  0  0
  -26.5606  -29.8457   19.6396 C   0  0  0  0  0  0  0  0  0  0  0  0
  -27.3061  -21.1071   19.3795 C   0  0  0  0  0  0  0  0  0  0  0  0
  -27.2359  -20.0190   20.2493 C   0  0  0  0  0  0  0  0  0  0  0  0
  -23.6018   -7.9029   21.8533 C   0  0  0  0  0  0  0  0  0  0  0  0
  -22.1141   -9.2296   20.4881 C   0  0  0  0  0  0  0  0  0  0  0  0
  -27.5230  -28.8439   19.5214 C   0  0  0  0  0  0  0  0  0  0  0  0
  -22.4172   -5.3974   19.9163 C   0  0  0  0  0  0  0  0  0  0  0  0
  -22.8249   -4.0764   19.7311 C   0  0  0  0  0  0  0  0  0  0  0  0
  -27.7812  -18.5279   18.4282 C   0  0  0  0  0  0  0  0  0  0  0  0
  -26.0313  -27.2911   20.6092 C   0  0  0  0  0  0  0  0  0  0  0  0
  -22.0562   -3.5273   21.9548 C   0  0  0  0  0  0  0  0  0  0  0  0
  -24.3152  -10.0616   21.0360 C   0  0  0  0  0  0  0  0  0  0  0  0
  -27.8514  -19.6161   17.5583 C   0  0  0  0  0  0  0  0  0  0  0  0
  -26.3237  -11.2140   19.9657 C   0  0  0  0  0  0  0  0  0  0  0  0
  -25.6234  -34.8715   24.2653 C   0  0  0  0  0  0  0  0  0  0  0  0
  -25.3285  -29.5802   20.2542 C   0  0  0  0  0  0  0  0  0  0  0  0
  -25.8874  -33.5161   23.9903 C   0  0  0  0  0  0  0  0  0  0  0  0
  -25.0540  -28.2907   20.7316 C   0  0  0  0  0  0  0  0  0  0  0  0
  -27.6138  -20.9056   18.0339 C   0  0  0  0  0  0  0  0  0  0  0  0
  -27.4734  -18.7294   19.7737 C   0  0  0  0  0  0  0  0  0  0  0  0
  -22.3723   -8.0678   21.2156 C   0  0  0  0  0  0  0  0  0  0  0  0
  -27.2595  -27.5671   20.0089 C   0  0  0  0  0  0  0  0  0  0  0  0
  -21.8291   -5.7834   21.1208 C   0  0  0  0  0  0  0  0  0  0  0  0
  -22.6444   -3.1413   20.7503 C   0  0  0  0  0  0  0  0  0  0  0  0
  -21.6486   -4.8484   22.1400 C   0  0  0  0  0  0  0  0  0  0  0  0
  -25.3181  -11.0920   20.9433 C   0  0  0  0  0  0  0  0  0  0  0  0
  -27.0105  -12.3496   20.3194 C   0  0  0  0  0  0  0  0  0  0  0  0
  -29.2868  -18.7777   15.7550 C   0  0  0  0  0  0  0  0  0  0  0  0
  -28.1744  -19.3728   16.1585 C   0  0  0  0  0  0  0  0  0  0  0  0
  -26.6112  -10.3758   18.8385 C   0  0  0  0  0  0  0  0  0  0  0  0
  -23.8215  -30.6821   22.8269 C   0  0  0  0  0  0  0  0  0  0  0  0
  -21.3992  -28.8291   21.7219 C   0  0  0  0  0  0  0  0  0  0  0  0
  -28.3557  -24.3713   17.9458 C   0  0  0  0  0  0  0  0  0  0  0  0
  -20.4247  -26.1500   19.8458 C   0  0  0  0  0  0  0  0  0  0  0  0
  -27.1102  -17.6503   22.0210 C   0  0  0  0  0  0  0  0  0  0  0  0
  -24.3344  -35.3133   24.9118 C   0  0  0  0  0  0  0  0  0  0  0  0
  -24.2907  -30.6648   20.3499 C   0  0  0  0  0  0  0  0  0  0  0  0
  -23.7390  -27.9489   21.3815 C   0  0  0  0  0  0  0  0  0  0  0  0
  -23.2219  -34.2714   24.8267 C   0  0  0  0  0  0  0  0  0  0  0  0
  -26.8030  -15.1463   24.5334 C   0  0  0  0  0  0  0  0  0  0  0  0
  -23.7506  -32.8933   25.2117 C   0  0  0  0  0  0  0  0  0  0  0  0
  -26.4720  -13.8783   23.7429 C   0  0  0  0  0  0  0  0  0  0  0  0
  -26.1417  -16.3821   23.9259 C   0  0  0  0  0  0  0  0  0  0  0  0
  -26.0723  -15.3183   21.7049 C   0  0  0  0  0  0  0  0  0  0  0  0
  -24.8571  -32.4391   24.2522 C   0  0  1  0  0  0  0  0  0  0  0  0
  -23.2685  -30.4178   21.4550 C   0  0  1  0  0  0  0  0  0  0  0  0
  -26.7688  -14.0569   22.2411 C   0  0  2  0  0  0  0  0  0  0  0  0
  -18.3825  -24.8603   19.1650 C   0  0  0  0  0  0  0  0  0  0  0  0
  -21.3093  -27.5217   24.4774 C   0  0  0  0  0  0  0  0  0  0  0  0
  -19.9668  -25.6617   23.4743 C   0  0  0  0  0  0  0  0  0  0  0  0
  -19.0681  -27.9887   23.4707 C   0  0  0  0  0  0  0  0  0  0  0  0
  -30.0561  -22.5695   17.5810 C   0  0  0  0  0  0  0  0  0  0  0  0
  -20.8596  -26.7490   16.9803 C   0  0  0  0  0  0  0  0  0  0  0  0
  -27.6805  -22.1000   17.1266 C   0  0  0  0  0  0  0  0  0  0  0  0
  -29.5180  -25.2577   18.3812 C   0  0  0  0  0  0  0  0  0  0  0  0
  -29.0830  -26.6625   18.7791 C   0  0  0  0  0  0  0  0  0  1  0  0
  -20.9748  -27.3940   21.9205 C   0  0  1  0  0  0  0  0  0  0  0  0
  -19.3305  -25.9936   18.8052 C   0  0  2  0  0  0  0  0  0  0  0  0
  -20.3554  -27.1481   23.3253 C   0  0  0  0  0  0  0  0  0  0  0  0
  -25.3590  -12.0717   21.8501 N   0  0  0  0  0  0  0  0  0  0  0  0
  -26.3986  -12.8202   21.4438 N   0  0  0  0  0  0  0  0  0  0  0  0
  -22.7590  -29.0450   21.4573 N   0  0  0  0  0  0  0  0  0  0  0  0
  -26.4707  -16.4886   22.5027 N   0  0  0  0  0  0  0  0  0  0  0  0
  -28.0721  -12.9815   19.7754 N   0  0  0  0  0  0  0  0  0  0  0  0
  -25.8066   -9.2489   18.6214 N   0  0  0  0  0  0  0  0  0  0  0  0
  -27.4026  -17.6243   20.6577 N   0  0  0  0  0  0  0  0  0  0  0  0
  -24.2860  -31.9709   23.0075 N   0  0  0  0  0  0  0  0  0  0  0  0
  -20.0837  -27.0745   20.8104 N   0  0  0  0  0  0  0  0  0  0  0  0
  -28.6853  -23.0653   17.5663 N   0  0  0  0  0  0  0  0  0  0  0  0
  -19.9239  -25.7037   17.4692 N   0  3  0  0  0  0  0  0  0  0  0  0
  -27.5638  -10.6098   18.0567 O   0  0  0  0  0  0  0  0  0  0  0  0
  -23.8251  -29.7837   23.6603 O   0  0  0  0  0  0  0  0  0  0  0  0
  -20.5540  -29.7249   21.7918 O   0  0  0  0  0  0  0  0  0  0  0  0
  -27.2019  -24.8081   17.9397 O   0  0  0  0  0  0  0  0  0  0  0  0
  -21.4750  -25.5129   19.8089 O   0  0  0  0  0  0  0  0  0  0  0  0
  -27.4033  -18.5871   22.7683 O   0  0  0  0  0  0  0  0  0  0  0  0
  -21.4242   -7.0951   21.3029 O   0  0  0  0  0  0  0  0  0  0  0  0
  -28.1973  -26.5876   19.8954 O   0  0  0  0  0  0  0  0  0  1  0  0
  -23.0345   -1.8724   20.5717 F   0  0  0  0  0  0  0  0  0  0  0  0
  -21.0831   -5.2130   23.2990 F   0  0  0  0  0  0  0  0  0  0  0  0
  1  2  1  0  0  0  0
  1  5  2  0  0  0  0
  2  6  2  0  0  0  0
  3 10  2  0  0  0  0
  3 18  1  0  0  0  0
  4 11  1  0  0  0  0
  4 18  2  0  0  0  0
  5 21  1  0  0  0  0
  6 23  1  0  0  0  0
  7 12  2  0  0  0  0
  7 22  1  0  0  0  0
  8  9  2  0  0  0  0
  8 25  1  0  0  0  0
  9 26  1  0  0  0  0
 10 27  1  0  0  0  0
 11 27  2  0  0  0  0
 12 28  1  0  0  0  0
 13 14  2  0  0  0  0
 13 29  1  0  0  0  0
 14 30  1  0  0  0  0
 15 19  1  0  0  0  0
 15 26  2  0  0  0  0
 16 24  1  0  0  0  0
 16 28  2  0  0  0  0
 17 30  2  0  0  0  0
 17 31  1  0  0  0  0
 18 32  1  0  0  0  0
 19 25  2  0  0  0  0
 19 35  1  0  0  0  0
 20 32  1  0  0  0  0
 20 33  2  0  0  0  0
 20 36  1  0  0  0  0
 21 23  2  0  0  0  0
 21 42  1  0  0  0  0
 22 24  2  0  0  0  0
 22 43  1  0  0  0  0
 23 51  1  0  0  0  0
 24 44  1  0  0  0  0
 25 60  1  0  0  0  0
 26 72  1  0  0  0  0
 27 83  1  0  0  0  0
 28 84  1  0  0  0  0
 29 31  2  0  0  0  0
 29 83  1  0  0  0  0
 30 85  1  0  0  0  0
 31 86  1  0  0  0  0
 32 66  2  0  0  0  0
 33 67  1  0  0  0  0
 33 70  1  0  0  0  0
 34 35  2  0  0  0  0
 36 71  1  0  0  0  0
 36 77  2  0  0  0  0
 37 52  1  0  0  0  0
 37 73  1  0  0  0  0
 37 78  2  0  0  0  0
 38 63  1  0  0  0  0
 38 68  1  0  0  0  0
 38 79  2  0  0  0  0
 39 61  1  0  0  0  0
 39 75  1  0  0  0  0
 39 80  2  0  0  0  0
 40 64  1  0  0  0  0
 40 74  1  0  0  0  0
 40 81  2  0  0  0  0
 41 69  1  0  0  0  0
 41 72  1  0  0  0  0
 41 82  2  0  0  0  0
 42 45  1  0  0  0  0
 43 52  1  0  0  0  0
 44 68  1  0  0  0  0
 45 47  1  0  0  0  0
 46 48  1  0  0  0  0
 46 49  1  0  0  0  0
 47 51  1  0  0  0  0
 48 53  1  0  0  0  0
 49 69  1  0  0  0  0
 50 53  1  0  0  0  0
 50 69  1  0  0  0  0
 51 73  1  0  0  0  0
 52 68  1  0  0  0  0
 53 67  1  0  0  0  0
 54 64  1  0  0  0  0
 55 65  1  0  0  0  0
 56 65  1  0  0  0  0
 57 65  1  0  0  0  0
 58 75  1  0  0  0  0
 59 76  1  0  0  0  0
 60 75  1  0  0  0  0
 61 62  1  0  0  0  0
 62 84  1  0  0  0  0
 63 65  1  0  0  0  0
 63 74  1  0  0  0  0
 64 76  1  0  0  0  0
 66 67  1  0  0  0  0
M  CHG  1  76   1
M  ISO  4  41 100  62 101  72 100  84 101
M  END
> <Batch ID>
0053

> <Smiles>
C=Cc1cc([100NH:0][100C:0](=O)N2CCCC(n3nc(-c4ccc(Oc5ccc(F)cc5F)cc4)c(C(N)=O)c3N)C2)ccc1CN(C)C(=O)C[101CH2:1][101O:1]c1ccc2c(c1)CN(C(=O)C(NC(=O)C(C)NC)C(C)(C)C)C(C(=O)NC1CCCc3ccccc31)C2

> <Shape>
0.307

> <Color>
0.091

> <Negative vol penalty>
0.000

$$$$

  -OEChem-04042322433D

 81 89  0     1  0  0  0  0  0999 V2000
  -28.3589  -36.6380   24.3194 C   0  0  0  0  0  0  0  0  0  0  0  0
  -28.7209  -35.3335   23.9991 C   0  0  0  0  0  0  0  0  0  0  0  0
  -24.3024   -9.6632   21.8718 C   0  0  0  0  0  0  0  0  0  0  0  0
  -24.7706  -11.1521   23.7160 C   0  0  0  0  0  0  0  0  0  0  0  0
  -27.7130  -20.9890   20.0414 C   0  0  0  0  0  0  0  0  0  0  0  0
  -27.0402  -36.9292   24.6657 C   0  0  0  0  0  0  0  0  0  0  0  0
  -27.7645  -34.3191   24.0260 C   0  0  0  0  0  0  0  0  0  0  0  0
  -27.4506  -29.4558   20.3171 C   0  0  0  0  0  0  0  0  0  0  0  0
  -27.5764  -19.6203   19.8104 C   0  0  0  0  0  0  0  0  0  0  0  0
  -23.9986   -8.6426   22.7728 C   0  0  0  0  0  0  0  0  0  0  0  0
  -24.4667  -10.1315   24.6171 C   0  0  0  0  0  0  0  0  0  0  0  0
  -27.8579  -28.1314   20.4706 C   0  0  0  0  0  0  0  0  0  0  0  0
  -21.3981   -7.7497   24.7408 C   0  0  0  0  0  0  0  0  0  0  0  0
  -20.2512   -6.9931   24.5006 C   0  0  0  0  0  0  0  0  0  0  0  0
  -25.6231  -27.5291   21.1503 C   0  0  0  0  0  0  0  0  0  0  0  0
  -29.9675  -19.4305   19.5209 C   0  0  0  0  0  0  0  0  0  0  0  0
  -21.6008   -4.9948   24.3503 C   0  0  0  0  0  0  0  0  0  0  0  0
  -24.6884  -10.9179   22.3434 C   0  0  0  0  0  0  0  0  0  0  0  0
  -28.9769  -21.5786   20.0120 C   0  0  0  0  0  0  0  0  0  0  0  0
  -24.1152  -12.9217   20.8724 C   0  0  0  0  0  0  0  0  0  0  0  0
  -26.0650  -35.9197   24.6874 C   0  0  0  0  0  0  0  0  0  0  0  0
  -26.1269  -29.8296   20.5901 C   0  0  0  0  0  0  0  0  0  0  0  0
  -26.4317  -34.5969   24.3742 C   0  0  0  0  0  0  0  0  0  0  0  0
  -25.2009  -28.8585   20.9971 C   0  0  0  0  0  0  0  0  0  0  0  0
  -28.7037  -18.8410   19.5502 C   0  0  0  0  0  0  0  0  0  0  0  0
  -24.0807   -8.8768   24.1454 C   0  0  0  0  0  0  0  0  0  0  0  0
  -26.9449  -27.1683   20.8900 C   0  0  0  0  0  0  0  0  0  0  0  0
  -22.6465   -7.1289   24.7856 C   0  0  0  0  0  0  0  0  0  0  0  0
  -20.3525   -5.6157   24.3054 C   0  0  0  0  0  0  0  0  0  0  0  0
  -30.1041  -20.7993   19.7519 C   0  0  0  0  0  0  0  0  0  0  0  0
  -22.7478   -5.7514   24.5904 C   0  0  0  0  0  0  0  0  0  0  0  0
  -25.0029  -11.9723   21.4132 C   0  0  0  0  0  0  0  0  0  0  0  0
  -24.8982  -13.6949   20.0505 C   0  0  0  0  0  0  0  0  0  0  0  0
  -29.1161  -23.0241   20.2560 C   0  0  0  0  0  0  0  0  0  0  0  0
  -28.2011  -23.9540   19.9407 C   0  0  0  0  0  0  0  0  0  0  0  0
  -22.7085  -13.0896   21.0933 C   0  0  0  0  0  0  0  0  0  0  0  0
  -24.7333  -31.7986   22.6600 C   0  0  0  0  0  0  0  0  0  0  0  0
  -22.0609  -31.0423   20.9841 C   0  0  0  0  0  0  0  0  0  0  0  0
  -20.4434  -28.8242   18.9568 C   0  0  0  0  0  0  0  0  0  0  0  0
  -29.5806  -16.5345   19.0430 C   0  0  0  0  0  0  0  0  0  0  0  0
  -24.6624  -36.2743   25.1138 C   0  0  0  0  0  0  0  0  0  0  0  0
  -25.6967  -31.2575   20.3939 C   0  0  0  0  0  0  0  0  0  0  0  0
  -23.7632  -29.2043   21.2834 C   0  0  0  0  0  0  0  0  0  0  0  0
  -23.6291  -35.2097   24.7546 C   0  0  0  0  0  0  0  0  0  0  0  0
  -29.6516  -13.0253   18.4445 C   0  0  0  0  0  0  0  0  0  0  0  0
  -24.1368  -33.8227   25.1358 C   0  0  0  0  0  0  0  0  0  0  0  0
  -28.3755  -12.5166   19.1190 C   0  0  0  0  0  0  0  0  0  0  0  0
  -30.2962  -14.1625   19.2350 C   0  0  0  0  0  0  0  0  0  0  0  0
  -28.1256  -14.7745   20.2267 C   0  0  0  0  0  0  0  0  0  0  0  0
  -25.4175  -33.4737   24.3679 C   0  0  1  0  0  0  0  0  0  0  0  0
  -24.4504  -31.6214   21.1950 C   0  0  1  0  0  0  0  0  0  0  0  0
  -27.4051  -13.6722   19.4333 C   0  0  2  0  0  0  0  0  0  0  0  0
  -18.2556  -28.4627   17.7819 C   0  0  0  0  0  0  0  0  0  0  0  0
  -20.7657  -30.2735   23.6377 C   0  0  0  0  0  0  0  0  0  0  0  0
  -18.9993  -29.0593   22.3440 C   0  0  0  0  0  0  0  0  0  0  0  0
  -19.2707  -31.5240   22.0707 C   0  0  0  0  0  0  0  0  0  0  0  0
  -21.7430  -28.7974   16.2980 C   0  0  0  0  0  0  0  0  0  0  0  0
  -28.3936  -25.4146   20.1959 C   0  0  0  0  0  0  0  0  0  1  0  0
  -21.0037  -29.9694   21.0849 C   0  0  1  0  0  0  0  0  0  0  0  0
  -19.6661  -29.0196   17.6675 C   0  0  2  0  0  0  0  0  0  0  0  0
  -20.0374  -30.2001   22.2809 C   0  0  0  0  0  0  0  0  0  0  0  0
  -26.2542  -12.1264   20.9719 N   0  0  0  0  0  0  0  0  0  0  0  0
  -26.1582  -13.1815   20.1450 N   0  0  0  0  0  0  0  0  0  0  0  0
  -23.3927  -30.6150   21.0831 N   0  0  0  0  0  0  0  0  0  0  0  0
  -29.3190  -15.2227   19.4919 N   0  0  0  0  0  0  0  0  0  0  0  0
  -24.6249  -14.7570   19.2634 N   0  0  0  0  0  0  0  0  0  0  0  0
  -22.0597  -12.2081   21.9687 N   0  0  0  0  0  0  0  0  0  0  0  0
  -28.5651  -17.4505   19.3157 N   0  0  0  0  0  0  0  0  0  0  0  0
  -25.1023  -33.0834   23.0104 N   0  0  0  0  0  0  0  0  0  0  0  0
  -20.3444  -29.9226   19.7843 N   0  0  0  0  0  0  0  0  0  0  0  0
  -20.3534  -28.3307   16.5388 N   0  3  0  0  0  0  0  0  0  0  0  0
  -22.0433  -13.9844   20.5184 O   0  0  0  0  0  0  0  0  0  0  0  0
  -24.6235  -30.8410   23.4167 O   0  0  0  0  0  0  0  0  0  0  0  0
  -21.7181  -32.2153   20.8165 O   0  0  0  0  0  0  0  0  0  0  0  0
  -21.0722  -27.7982   19.2064 O   0  0  0  0  0  0  0  0  0  0  0  0
  -30.6162  -16.8180   18.4355 O   0  0  0  0  0  0  0  0  0  0  0  0
  -23.7841   -7.8813   25.0249 O   0  0  0  0  0  0  0  0  0  0  0  0
  -27.3401  -25.8749   21.0412 O   0  0  0  0  0  0  0  0  0  1  0  0
  -19.2508   -4.8890   24.0763 F   0  0  0  0  0  0  0  0  0  0  0  0
  -31.3257  -21.3517   19.7199 F   0  0  0  0  0  0  0  0  0  0  0  0
  -23.9442   -5.1493   24.6335 F   0  0  0  0  0  0  0  0  0  0  0  0
  1  2  1  0  0  0  0
  1  6  2  0  0  0  0
  2  7  2  0  0  0  0
  3 10  2  0  0  0  0
  3 18  1  0  0  0  0
  4 11  1  0  0  0  0
  4 18  2  0  0  0  0
  5  9  2  0  0  0  0
  5 19  1  0  0  0  0
  6 21  1  0  0  0  0
  7 23  1  0  0  0  0
  8 12  2  0  0  0  0
  8 22  1  0  0  0  0
  9 25  1  0  0  0  0
 10 26  1  0  0  0  0
 11 26  2  0  0  0  0
 12 27  1  0  0  0  0
 13 14  2  0  0  0  0
 13 28  1  0  0  0  0
 14 29  1  0  0  0  0
 15 24  1  0  0  0  0
 15 27  2  0  0  0  0
 16 25  2  0  0  0  0
 16 30  1  0  0  0  0
 17 29  2  0  0  0  0
 17 31  1  0  0  0  0
 18 32  1  0  0  0  0
 19 30  2  0  0  0  0
 19 34  1  0  0  0  0
 20 32  1  0  0  0  0
 20 33  2  0  0  0  0
 20 36  1  0  0  0  0
 21 23  2  0  0  0  0
 21 41  1  0  0  0  0
 22 24  2  0  0  0  0
 22 42  1  0  0  0  0
 23 50  1  0  0  0  0
 24 43  1  0  0  0  0
 25 68  1  0  0  0  0
 26 77  1  0  0  0  0
 27 78  1  0  0  0  0
 28 31  2  0  0  0  0
 28 77  1  0  0  0  0
 29 79  1  0  0  0  0
 30 80  1  0  0  0  0
 31 81  1  0  0  0  0
 32 62  2  0  0  0  0
 33 63  1  0  0  0  0
 33 66  1  0  0  0  0
 34 35  2  0  0  0  0
 35 58  1  0  0  0  0
 36 67  1  0  0  0  0
 36 72  2  0  0  0  0
 37 51  1  0  0  0  0
 37 69  1  0  0  0  0
 37 73  2  0  0  0  0
 38 59  1  0  0  0  0
 38 64  1  0  0  0  0
 38 74  2  0  0  0  0
 39 60  1  0  0  0  0
 39 70  1  0  0  0  0
 39 75  2  0  0  0  0
 40 65  1  0  0  0  0
 40 68  1  0  0  0  0
 40 76  2  0  0  0  0
 41 44  1  0  0  0  0
 42 51  1  0  0  0  0
 43 64  1  0  0  0  0
 44 46  1  0  0  0  0
 45 47  1  0  0  0  0
 45 48  1  0  0  0  0
 46 50  1  0  0  0  0
 47 52  1  0  0  0  0
 48 65  1  0  0  0  0
 49 52  1  0  0  0  0
 49 65  1  0  0  0  0
 50 69  1  0  0  0  0
 51 64  1  0  0  0  0
 52 63  1  0  0  0  0
 53 60  1  0  0  0  0
 54 61  1  0  0  0  0
 55 61  1  0  0  0  0
 56 61  1  0  0  0  0
 57 71  1  0  0  0  0
 58 78  1  0  0  0  0
 59 61  1  0  0  0  0
 59 70  1  0  0  0  0
 60 71  1  0  0  0  0
 62 63  1  0  0  0  0
M  CHG  1  71   1
M  ISO  4  40 100  58 101  68 100  78 101
M  END
> <Batch ID>
0053

> <Smiles>
CNC(C)C(=O)NC(C(=O)N1Cc2cc([101O:1][101CH2:1]C=Cc3ccc([100NH:0][100C:0](=O)N4CCCC(n5nc(-c6ccc(Oc7ccc(F)cc7F)cc6)c(C(N)=O)c5N)C4)cc3F)ccc2CC1C(=O)NC1CCCc2ccccc21)C(C)(C)C

> <Shape>
0.330

> <Color>
0.108

> <Negative vol penalty>
0.000

$$$$

  -OEChem-04042322433D

 85 93  0     1  0  0  0  0  0999 V2000
  -32.1131  -14.9520   20.9909 C   0  0  0  0  0  0  0  0  0  0  0  0
  -31.1850  -15.9851   21.0734 C   0  0  0  0  0  0  0  0  0  0  0  0
  -18.1568  -26.8722   21.9227 C   0  0  0  0  0  0  0  0  0  0  0  0
  -28.2688  -25.5893   18.4144 C   0  0  0  0  0  0  0  0  0  0  0  0
  -26.2647  -24.3683   18.9885 C   0  0  0  0  0  0  0  0  0  0  0  0
  -31.7162  -13.6943   20.5386 C   0  0  0  0  0  0  0  0  0  0  0  0
  -29.8596  -15.7613   20.7025 C   0  0  0  0  0  0  0  0  0  0  0  0
  -26.5604  -17.7175   24.0091 C   0  0  0  0  0  0  0  0  0  0  0  0
  -18.5685  -25.7277   22.6055 C   0  0  0  0  0  0  0  0  0  0  0  0
  -18.8260  -28.0802   22.1192 C   0  0  0  0  0  0  0  0  0  0  0  0
  -29.0305  -24.4412   18.6314 C   0  0  0  0  0  0  0  0  0  0  0  0
  -27.0264  -23.2200   19.2054 C   0  0  0  0  0  0  0  0  0  0  0  0
  -26.3377  -19.0924   23.9486 C   0  0  0  0  0  0  0  0  0  0  0  0
  -28.4931  -20.8162   17.3371 C   0  0  0  0  0  0  0  0  0  0  0  0
  -28.0195  -19.6163   16.8065 C   0  0  0  0  0  0  0  0  0  0  0  0
  -24.3027  -18.7023   22.7133 C   0  0  0  0  0  0  0  0  0  0  0  0
  -20.3185  -26.9992   23.6816 C   0  0  0  0  0  0  0  0  0  0  0  0
  -27.9248  -18.6714   19.0281 C   0  0  0  0  0  0  0  0  0  0  0  0
  -26.8858  -25.5529   18.5930 C   0  0  0  0  0  0  0  0  0  0  0  0
  -25.5027  -27.1485   17.1618 C   0  0  0  0  0  0  0  0  0  0  0  0
  -30.3831  -13.4524   20.1712 C   0  0  0  0  0  0  0  0  0  0  0  0
  -25.6601  -16.8236   23.4117 C   0  0  0  0  0  0  0  0  0  0  0  0
  -29.4447  -14.4996   20.2436 C   0  0  0  0  0  0  0  0  0  0  0  0
  -24.5150  -17.3163   22.7699 C   0  0  0  0  0  0  0  0  0  0  0  0
  -19.6493  -25.7912   23.4850 C   0  0  0  0  0  0  0  0  0  0  0  0
  -19.9068  -28.1437   22.9987 C   0  0  0  0  0  0  0  0  0  0  0  0
  -28.4093  -23.2565   19.0269 C   0  0  0  0  0  0  0  0  0  0  0  0
  -25.2102  -19.5852   23.2982 C   0  0  0  0  0  0  0  0  0  0  0  0
  -28.6827  -20.9437   18.7131 C   0  0  0  0  0  0  0  0  0  0  0  0
  -27.7353  -18.5439   17.6520 C   0  0  0  0  0  0  0  0  0  0  0  0
  -28.3985  -19.8713   19.5586 C   0  0  0  0  0  0  0  0  0  0  0  0
  -26.0985  -26.7388   18.3696 C   0  0  0  0  0  0  0  0  0  0  0  0
  -24.8720  -28.3283   17.4730 C   0  0  0  0  0  0  0  0  0  0  0  0
  -23.8424  -21.4168   23.7928 C   0  0  0  0  0  0  0  0  0  1  0  0
  -25.5178  -26.5189   15.8737 C   0  0  0  0  0  0  0  0  0  0  0  0
  -23.1612  -22.5045   23.3998 C   0  0  0  0  0  0  0  0  0  0  0  0
  -21.9198  -22.8665   24.1559 C   0  0  0  0  0  0  0  0  0  0  0  0
  -25.8496  -14.6729   21.0788 C   0  0  0  0  0  0  0  0  0  0  0  0
  -22.8213  -13.9730   22.0072 C   0  0  0  0  0  0  0  0  0  0  0  0
  -19.9452  -15.0051   23.5269 C   0  0  0  0  0  0  0  0  0  0  0  0
  -22.7344  -30.5824   22.5917 C   0  0  0  0  0  0  0  0  0  0  0  0
  -30.0115  -12.0893   19.6433 C   0  0  0  0  0  0  0  0  0  0  0  0
  -25.9008  -15.3420   23.5090 C   0  0  0  0  0  0  0  0  0  0  0  0
  -23.5073  -16.3978   22.1301 C   0  0  0  0  0  0  0  0  0  0  0  0
  -28.5068  -11.8326   19.6251 C   0  0  0  0  0  0  0  0  0  0  0  0
  -25.1677  -32.0596   20.4530 C   0  0  0  0  0  0  0  0  0  0  0  0
  -27.7685  -13.0279   19.0310 C   0  0  0  0  0  0  0  0  0  0  0  0
  -25.6284  -30.9004   19.5676 C   0  0  0  0  0  0  0  0  0  0  0  0
  -24.8782  -31.5993   21.8800 C   0  0  0  0  0  0  0  0  0  0  0  0
  -24.3960  -29.3111   21.1019 C   0  0  0  0  0  0  0  0  0  0  0  0
  -27.9924  -14.2892   19.8739 C   0  0  1  0  0  0  0  0  0  0  0  0
  -25.1852  -14.5477   22.4207 C   0  0  1  0  0  0  0  0  0  0  0  0
  -24.6464  -29.7156   19.6390 C   0  0  2  0  0  0  0  0  0  0  0  0
  -17.6301  -14.2242   24.0995 C   0  0  0  0  0  0  0  0  0  0  0  0
  -21.9744  -14.3609   19.1016 C   0  0  0  0  0  0  0  0  0  0  0  0
  -19.6018  -14.5129   19.8864 C   0  0  0  0  0  0  0  0  0  0  0  0
  -20.9019  -12.4153   20.2500 C   0  0  0  0  0  0  0  0  0  0  0  0
  -20.4296  -15.3255   26.4289 C   0  0  0  0  0  0  0  0  0  0  0  0
  -20.0927  -24.5585   24.2185 C   0  0  0  0  0  0  0  0  0  0  0  0
  -20.6219  -29.4357   23.2093 C   0  0  0  0  0  0  0  0  0  0  0  0
  -21.4457  -14.4649   21.6266 C   0  0  1  0  0  0  0  0  0  0  0  0
  -19.0687  -14.3469   24.5771 C   0  0  2  0  0  0  0  0  0  0  0  0
  -21.0007  -13.9562   20.2264 C   0  0  0  0  0  0  0  0  0  0  0  0
  -25.8672  -27.5892   19.3732 N   0  0  0  0  0  0  0  0  0  0  0  0
  -25.1191  -28.5452   18.7966 N   0  0  0  0  0  0  0  0  0  0  0  0
  -23.7903  -14.9577   22.2464 N   0  0  0  0  0  0  0  0  0  0  0  0
  -23.9393  -30.4748   21.8778 N   0  0  0  0  0  0  0  0  0  0  0  0
  -24.1358  -29.1910   16.7407 N   0  0  0  0  0  0  0  0  0  0  0  0
  -26.2133  -25.3108   15.7288 N   0  0  0  0  0  0  0  0  0  0  0  0
  -21.3051  -24.0034   23.6599 N   0  0  0  0  0  0  0  0  0  0  0  0
  -27.1669  -14.2561   21.0622 N   0  0  0  0  0  0  0  0  0  0  0  0
  -20.5566  -14.0733   22.7150 N   0  0  0  0  0  0  0  0  0  0  0  0
  -21.8988  -29.4739   22.5319 N   0  0  0  0  0  0  0  0  0  0  0  0
  -19.0796  -15.1454   25.8354 N   0  3  0  0  0  0  0  0  0  0  0  0
  -24.9458  -27.0215   14.8769 O   0  0  0  0  0  0  0  0  0  0  0  0
  -21.5184  -22.2058   25.1099 O   0  0  0  0  0  0  0  0  0  0  0  0
  -25.2136  -15.1137   20.1285 O   0  0  0  0  0  0  0  0  0  0  0  0
  -23.0265  -12.7599   22.0961 O   0  0  0  0  0  0  0  0  0  0  0  0
  -20.0716  -16.2241   23.4335 O   0  0  0  0  0  0  0  0  0  0  0  0
  -22.4238  -31.5936   23.2303 O   0  0  0  0  0  0  0  0  0  0  0  0
  -23.5292  -23.3121   22.3462 O   0  0  0  0  0  0  0  0  0  0  0  0
  -29.1523  -22.1359   19.2384 O   0  0  0  0  0  0  0  0  0  0  0  0
  -24.9907  -20.9268   23.2371 O   0  0  0  0  0  0  0  0  0  1  0  0
  -27.2790  -17.3922   17.1426 F   0  0  0  0  0  0  0  0  0  0  0  0
  -28.5775  -19.9882   20.8816 F   0  0  0  0  0  0  0  0  0  0  0  0
  1  2  1  0  0  0  0
  1  6  2  0  0  0  0
  2  7  2  0  0  0  0
  3  9  2  0  0  0  0
  3 10  1  0  0  0  0
  4 11  2  0  0  0  0
  4 19  1  0  0  0  0
  5 12  1  0  0  0  0
  5 19  2  0  0  0  0
  6 21  1  0  0  0  0
  7 23  1  0  0  0  0
  8 13  2  0  0  0  0
  8 22  1  0  0  0  0
  9 25  1  0  0  0  0
 10 26  2  0  0  0  0
 11 27  1  0  0  0  0
 12 27  2  0  0  0  0
 13 28  1  0  0  0  0
 14 15  2  0  0  0  0
 14 29  1  0  0  0  0
 15 30  1  0  0  0  0
 16 24  1  0  0  0  0
 16 28  2  0  0  0  0
 17 25  2  0  0  0  0
 17 26  1  0  0  0  0
 18 30  2  0  0  0  0
 18 31  1  0  0  0  0
 19 32  1  0  0  0  0
 20 32  1  0  0  0  0
 20 33  2  0  0  0  0
 20 35  1  0  0  0  0
 21 23  2  0  0  0  0
 21 42  1  0  0  0  0
 22 24  2  0  0  0  0
 22 43  1  0  0  0  0
 23 51  1  0  0  0  0
 24 44  1  0  0  0  0
 25 59  1  0  0  0  0
 26 60  1  0  0  0  0
 27 82  1  0  0  0  0
 28 83  1  0  0  0  0
 29 31  2  0  0  0  0
 29 82  1  0  0  0  0
 30 84  1  0  0  0  0
 31 85  1  0  0  0  0
 32 64  2  0  0  0  0
 33 65  1  0  0  0  0
 33 68  1  0  0  0  0
 34 36  2  0  0  0  0
 34 83  1  0  0  0  0
 35 69  1  0  0  0  0
 35 75  2  0  0  0  0
 36 37  1  0  0  0  0
 36 81  1  0  0  0  0
 37 70  1  0  0  0  0
 37 76  2  0  0  0  0
 38 52  1  0  0  0  0
 38 71  1  0  0  0  0
 38 77  2  0  0  0  0
 39 61  1  0  0  0  0
 39 66  1  0  0  0  0
 39 78  2  0  0  0  0
 40 62  1  0  0  0  0
 40 72  1  0  0  0  0
 40 79  2  0  0  0  0
 41 67  1  0  0  0  0
 41 73  1  0  0  0  0
 41 80  2  0  0  0  0
 42 45  1  0  0  0  0
 43 52  1  0  0  0  0
 44 66  1  0  0  0  0
 45 47  1  0  0  0  0
 46 48  1  0  0  0  0
 46 49  1  0  0  0  0
 47 51  1  0  0  0  0
 48 53  1  0  0  0  0
 49 67  1  0  0  0  0
 50 53  1  0  0  0  0
 50 67  1  0  0  0  0
 51 71  1  0  0  0  0
 52 66  1  0  0  0  0
 53 65  1  0  0  0  0
 54 62  1  0  0  0  0
 55 63  1  0  0  0  0
 56 63  1  0  0  0  0
 57 63  1  0  0  0  0
 58 74  1  0  0  0  0
 59 70  1  0  0  0  0
 60 73  1  0  0  0  0
 61 63  1  0  0  0  0
 61 72  1  0  0  0  0
 62 74  1  0  0  0  0
 64 65  1  0  0  0  0
M  CHG  1  74   1
M  ISO  4  34 101  41 100  73 100  83 101
M  END
> <Batch ID>
0053

> <Smiles>
CNC(C)C(=O)NC(C(=O)N1Cc2cc([101O:1][101CH2:1]C(=O)C(=O)NCc3cccc(C[100NH:0][100C:0](=O)N4CCCC(n5nc(-c6ccc(Oc7ccc(F)cc7F)cc6)c(C(N)=O)c5N)C4)c3)ccc2CC1C(=O)NC1CCCc2ccccc21)C(C)(C)C

> <Shape>
0.231

> <Color>
0.083

> <Negative vol penalty>
0.000

$$$$

  -OEChem-04042322433D

 86 94  0     1  0  0  0  0  0999 V2000
  -28.4829  -23.3097   19.0893 C   0  0  0  0  0  0  0  0  0  0  0  0
  -29.3408  -22.2155   19.0445 C   0  0  0  0  0  0  0  0  0  0  0  0
  -23.2895   -9.7991   19.9144 C   0  0  0  0  0  0  0  0  0  0  0  0
  -23.7433   -9.9405   22.2832 C   0  0  0  0  0  0  0  0  0  0  0  0
  -28.9768  -24.5678   19.4316 C   0  0  0  0  0  0  0  0  0  0  0  0
  -30.6935  -22.3790   19.3409 C   0  0  0  0  0  0  0  0  0  0  0  0
  -32.4657  -18.7491   22.3950 C   0  0  0  0  0  0  0  0  0  0  0  0
  -31.6670  -12.2901   26.2195 C   0  0  0  0  0  0  0  0  0  0  0  0
  -30.8931  -12.6052   25.1026 C   0  0  0  0  0  0  0  0  0  0  0  0
  -22.5649   -8.6257   20.1233 C   0  0  0  0  0  0  0  0  0  0  0  0
  -23.0187   -8.7671   22.4921 C   0  0  0  0  0  0  0  0  0  0  0  0
  -32.7494  -17.5126   21.8166 C   0  0  0  0  0  0  0  0  0  0  0  0
  -19.7730   -7.8521   22.7140 C   0  0  0  0  0  0  0  0  0  0  0  0
  -18.8722   -7.8294   23.7787 C   0  0  0  0  0  0  0  0  0  0  0  0
  -35.0913  -18.0871   21.7514 C   0  0  0  0  0  0  0  0  0  0  0  0
  -32.8174  -12.2818   23.6780 C   0  0  0  0  0  0  0  0  0  0  0  0
  -20.0816   -5.9839   24.7627 C   0  0  0  0  0  0  0  0  0  0  0  0
  -23.8788  -10.4565   20.9943 C   0  0  0  0  0  0  0  0  0  0  0  0
  -24.1348  -12.9868   20.7951 C   0  0  0  0  0  0  0  0  0  0  0  0
  -30.3343  -24.7450   19.7417 C   0  0  0  0  0  0  0  0  0  0  0  0
  -33.4932  -19.6698   22.6464 C   0  0  0  0  0  0  0  0  0  0  0  0
  -31.2063  -23.6410   19.6863 C   0  0  0  0  0  0  0  0  0  0  0  0
  -34.8185  -19.3336   22.3354 C   0  0  0  0  0  0  0  0  0  0  0  0
  -33.0161  -11.9710   26.0657 C   0  0  0  0  0  0  0  0  0  0  0  0
  -33.5913  -11.9668   24.7949 C   0  0  0  0  0  0  0  0  0  0  0  0
  -31.4683  -12.6011   23.8319 C   0  0  0  0  0  0  0  0  0  0  0  0
  -22.4294   -8.1097   21.4121 C   0  0  0  0  0  0  0  0  0  0  0  0
  -34.0619  -17.1827   21.4921 C   0  0  0  0  0  0  0  0  0  0  0  0
  -20.8282   -6.9406   22.6737 C   0  0  0  0  0  0  0  0  0  0  0  0
  -19.0264   -6.8954   24.8030 C   0  0  0  0  0  0  0  0  0  0  0  0
  -20.9824   -6.0065   23.6980 C   0  0  0  0  0  0  0  0  0  0  0  0
  -24.6279  -11.6683   20.7791 C   0  0  0  0  0  0  0  0  0  0  0  0
  -25.2349  -13.7680   20.5385 C   0  0  0  0  0  0  0  0  0  0  0  0
  -35.7657  -13.1498   22.2482 C   0  0  0  0  0  0  0  0  0  0  0  0
  -35.5042  -13.9215   21.1838 C   0  0  0  0  0  0  0  0  0  0  0  0
  -22.8014  -13.4628   21.0217 C   0  0  0  0  0  0  0  0  0  0  0  0
  -35.6441  -11.6671   22.1407 C   0  0  0  0  0  0  0  0  0  0  0  0
  -34.1686  -22.6077   21.6384 C   0  0  0  0  0  0  0  0  0  0  0  0
  -36.5394  -22.3988   23.8425 C   0  0  0  0  0  0  0  0  0  0  0  0
  -38.6037  -20.4129   25.6977 C   0  0  0  0  0  0  0  0  0  0  0  0
  -31.0974  -12.9611   21.3663 C   0  0  0  0  0  0  0  0  0  0  0  0
  -30.8311  -26.1330   20.0601 C   0  0  0  0  0  0  0  0  0  0  0  0
  -33.1741  -20.9886   23.2954 C   0  0  0  0  0  0  0  0  0  0  0  0
  -35.9601  -20.2786   22.6037 C   0  0  0  0  0  0  0  0  0  0  0  0
  -32.2051  -26.1506   20.7250 C   0  0  0  0  0  0  0  0  0  0  0  0
  -29.4588  -13.6630   18.2842 C   0  0  0  0  0  0  0  0  0  0  0  0
  -33.1672  -25.2253   19.9869 C   0  0  0  0  0  0  0  0  0  0  0  0
  -27.9883  -13.3570   18.5774 C   0  0  0  0  0  0  0  0  0  0  0  0
  -30.3942  -12.6891   18.9985 C   0  0  0  0  0  0  0  0  0  0  0  0
  -28.7039  -12.2592   20.7384 C   0  0  0  0  0  0  0  0  0  0  0  0
  -32.6752  -23.7735   20.0254 C   0  0  1  0  0  0  0  0  0  0  0  0
  -34.2334  -22.0549   23.0341 C   0  0  1  0  0  0  0  0  0  0  0  0
  -27.7255  -13.2538   20.0927 C   0  0  2  0  0  0  0  0  0  0  0  0
  -33.8247  -11.6378   27.2763 C   0  0  0  0  0  0  0  0  0  0  0  0
  -40.4613  -20.5310   27.3808 C   0  0  0  0  0  0  0  0  0  0  0  0
  -38.4953  -23.1577   21.6270 C   0  0  0  0  0  0  0  0  0  0  0  0
  -40.3581  -22.3433   23.0882 C   0  0  0  0  0  0  0  0  0  0  0  0
  -38.9378  -24.2551   23.8303 C   0  0  0  0  0  0  0  0  0  0  0  0
  -35.1794   -9.5378   23.2925 C   0  0  0  0  0  0  0  0  0  0  0  0
  -37.0095  -18.9693   27.7307 C   0  0  0  0  0  0  0  0  0  0  0  0
  -35.0407  -11.6244   24.6049 C   0  0  0  0  0  0  0  0  0  0  0  0
  -35.6224  -15.4114   21.2026 C   0  0  0  0  0  0  0  0  0  1  0  0
  -37.9707  -21.9191   23.8308 C   0  0  1  0  0  0  0  0  0  0  0  0
  -38.9581  -20.4292   27.1737 C   0  0  2  0  0  0  0  0  0  0  0  0
  -38.9190  -22.9015   23.0871 C   0  0  0  0  0  0  0  0  0  0  0  0
  -25.9393  -11.6113   20.5318 N   0  0  0  0  0  0  0  0  0  0  0  0
  -26.2794  -12.9036   20.3899 N   0  0  0  0  0  0  0  0  0  0  0  0
  -35.5964  -21.5585   23.2338 N   0  0  0  0  0  0  0  0  0  0  0  0
  -30.0894  -12.6470   20.4303 N   0  0  0  0  0  0  0  0  0  0  0  0
  -25.4010  -15.1031   20.4276 N   0  0  0  0  0  0  0  0  0  0  0  0
  -21.7904  -12.5246   21.2706 N   0  0  0  0  0  0  0  0  0  0  0  0
  -30.6820  -12.9192   22.6968 N   0  0  0  0  0  0  0  0  0  0  0  0
  -32.9528  -23.1798   21.3157 N   0  0  0  0  0  0  0  0  0  0  0  0
  -38.3321  -21.6790   25.2237 N   0  0  0  0  0  0  0  0  0  0  0  0
  -35.2880  -10.9908   23.3110 N   0  0  0  0  0  0  0  0  0  0  0  0
  -38.4757  -19.1844   27.8359 N   0  3  0  0  0  0  0  0  0  0  0  0
  -22.5120  -14.6829   20.9876 O   0  0  0  0  0  0  0  0  0  0  0  0
  -35.8790  -11.1109   21.0669 O   0  0  0  0  0  0  0  0  0  0  0  0
  -35.1495  -22.5229   20.9088 O   0  0  0  0  0  0  0  0  0  0  0  0
  -36.2669  -23.4759   24.3783 O   0  0  0  0  0  0  0  0  0  0  0  0
  -38.5746  -19.3809   25.0309 O   0  0  0  0  0  0  0  0  0  0  0  0
  -32.2374  -13.2727   21.0123 O   0  0  0  0  0  0  0  0  0  0  0  0
  -21.7222   -6.9649   21.6164 O   0  0  0  0  0  0  0  0  0  0  0  0
  -34.3415  -15.9767   20.9268 O   0  0  0  0  0  0  0  0  0  1  0  0
  -18.1621   -6.8747   25.8261 F   0  0  0  0  0  0  0  0  0  0  0  0
  -21.9948   -5.1291   23.6654 F   0  0  0  0  0  0  0  0  0  0  0  0
  1  2  1  0  0  0  0
  1  5  2  0  0  0  0
  2  6  2  0  0  0  0
  3 10  2  0  0  0  0
  3 18  1  0  0  0  0
  4 11  1  0  0  0  0
  4 18  2  0  0  0  0
  5 20  1  0  0  0  0
  6 22  1  0  0  0  0
  7 12  2  0  0  0  0
  7 21  1  0  0  0  0
  8  9  2  0  0  0  0
  8 24  1  0  0  0  0
  9 26  1  0  0  0  0
 10 27  1  0  0  0  0
 11 27  2  0  0  0  0
 12 28  1  0  0  0  0
 13 14  2  0  0  0  0
 13 29  1  0  0  0  0
 14 30  1  0  0  0  0
 15 23  1  0  0  0  0
 15 28  2  0  0  0  0
 16 25  1  0  0  0  0
 16 26  2  0  0  0  0
 17 30  2  0  0  0  0
 17 31  1  0  0  0  0
 18 32  1  0  0  0  0
 19 32  1  0  0  0  0
 19 33  2  0  0  0  0
 19 36  1  0  0  0  0
 20 22  2  0  0  0  0
 20 42  1  0  0  0  0
 21 23  2  0  0  0  0
 21 43  1  0  0  0  0
 22 51  1  0  0  0  0
 23 44  1  0  0  0  0
 24 25  2  0  0  0  0
 24 54  1  0  0  0  0
 25 61  1  0  0  0  0
 26 72  1  0  0  0  0
 27 83  1  0  0  0  0
 28 84  1  0  0  0  0
 29 31  2  0  0  0  0
 29 83  1  0  0  0  0
 30 85  1  0  0  0  0
 31 86  1  0  0  0  0
 32 66  2  0  0  0  0
 33 67  1  0  0  0  0
 33 70  1  0  0  0  0
 34 35  2  0  0  0  0
 34 37  1  0  0  0  0
 35 62  1  0  0  0  0
 36 71  1  0  0  0  0
 36 77  2  0  0  0  0
 37 75  1  0  0  0  0
 37 78  2  0  0  0  0
 38 52  1  0  0  0  0
 38 73  1  0  0  0  0
 38 79  2  0  0  0  0
 39 63  1  0  0  0  0
 39 68  1  0  0  0  0
 39 80  2  0  0  0  0
 40 64  1  0  0  0  0
 40 74  1  0  0  0  0
 40 81  2  0  0  0  0
 41 69  1  0  0  0  0
 41 72  1  0  0  0  0
 41 82  2  0  0  0  0
 42 45  1  0  0  0  0
 43 52  1  0  0  0  0
 44 68  1  0  0  0  0
 45 47  1  0  0  0  0
 46 48  1  0  0  0  0
 46 49  1  0  0  0  0
 47 51  1  0  0  0  0
 48 53  1  0  0  0  0
 49 69  1  0  0  0  0
 50 53  1  0  0  0  0
 50 69  1  0  0  0  0
 51 73  1  0  0  0  0
 52 68  1  0  0  0  0
 53 67  1  0  0  0  0
 55 64  1  0  0  0  0
 56 65  1  0  0  0  0
 57 65  1  0  0  0  0
 58 65  1  0  0  0  0
 59 75  1  0  0  0  0
 60 76  1  0  0  0  0
 61 75  1  0  0  0  0
 62 84  1  0  0  0  0
 63 65  1  0  0  0  0
 63 74  1  0  0  0  0
 64 76  1  0  0  0  0
 66 67  1  0  0  0  0
M  CHG  1  76   1
M  ISO  4  41 100  62 101  72 100  84 101
M  END
> <Batch ID>
0053

> <Smiles>
CNC(C)C(=O)NC(C(=O)N1Cc2cc([101O:1][101CH2:1]C=CC(=O)N(C)Cc3cc([100NH:0][100C:0](=O)N4CCCC(n5nc(-c6ccc(Oc7ccc(F)cc7F)cc6)c(C(N)=O)c5N)C4)ccc3C)ccc2CC1C(=O)NC1CCCc2ccccc21)C(C)(C)C

> <Shape>
0.173

> <Color>
0.178

> <Negative vol penalty>
0.000

$$$$

  -OEChem-04042322433D

 85 93  0     1  0  0  0  0  0999 V2000
  -17.2306  -30.2137   23.3573 C   0  0  0  0  0  0  0  0  0  0  0  0
  -18.1697  -30.1988   24.3836 C   0  0  0  0  0  0  0  0  0  0  0  0
  -31.6839  -24.8488   23.2163 C   0  0  0  0  0  0  0  0  0  0  0  0
  -27.4897  -13.5238   22.5956 C   0  0  0  0  0  0  0  0  0  0  0  0
  -26.7110  -13.2792   20.3217 C   0  0  0  0  0  0  0  0  0  0  0  0
  -17.3063  -29.2731   22.3310 C   0  0  0  0  0  0  0  0  0  0  0  0
  -19.1844  -29.2423   24.3847 C   0  0  0  0  0  0  0  0  0  0  0  0
  -26.0285  -28.3663   26.3103 C   0  0  0  0  0  0  0  0  0  0  0  0
  -31.9256  -24.5710   24.5617 C   0  0  0  0  0  0  0  0  0  0  0  0
  -30.8099  -24.0451   22.4842 C   0  0  0  0  0  0  0  0  0  0  0  0
  -26.9726  -12.2665   22.9079 C   0  0  0  0  0  0  0  0  0  0  0  0
  -26.1939  -12.0219   20.6340 C   0  0  0  0  0  0  0  0  0  0  0  0
  -26.8371  -27.5061   27.0520 C   0  0  0  0  0  0  0  0  0  0  0  0
  -24.3522   -8.9019   20.9227 C   0  0  0  0  0  0  0  0  0  0  0  0
  -23.0705   -8.5961   20.4652 C   0  0  0  0  0  0  0  0  0  0  0  0
  -26.9155  -25.9802   25.1853 C   0  0  0  0  0  0  0  0  0  0  0  0
  -22.1785  -10.4584   21.7196 C   0  0  0  0  0  0  0  0  0  0  0  0
  -27.3589  -14.0302   21.3025 C   0  0  0  0  0  0  0  0  0  0  0  0
  -29.1847  -15.6233   20.5050 C   0  0  0  0  0  0  0  0  0  0  0  0
  -18.3281  -28.3106   22.3144 C   0  0  0  0  0  0  0  0  0  0  0  0
  -25.6477  -28.0342   25.0022 C   0  0  0  0  0  0  0  0  0  0  0  0
  -19.2730  -28.2870   23.3580 C   0  0  0  0  0  0  0  0  0  0  0  0
  -26.1041  -26.8391   24.4282 C   0  0  0  0  0  0  0  0  0  0  0  0
  -31.2933  -23.4894   25.1750 C   0  0  0  0  0  0  0  0  0  0  0  0
  -30.4193  -22.6857   24.4429 C   0  0  0  0  0  0  0  0  0  0  0  0
  -30.1776  -22.9636   23.0975 C   0  0  0  0  0  0  0  0  0  0  0  0
  -26.3247  -11.5156   21.9271 C   0  0  0  0  0  0  0  0  0  0  0  0
  -27.2783  -26.3115   26.4905 C   0  0  0  0  0  0  0  0  0  0  0  0
  -24.5471   -9.9859   21.7788 C   0  0  0  0  0  0  0  0  0  0  0  0
  -21.9836   -9.3744   20.8637 C   0  0  0  0  0  0  0  0  0  0  0  0
  -23.4602  -10.7641   22.1772 C   0  0  0  0  0  0  0  0  0  0  0  0
  -27.8923  -15.3291   20.9794 C   0  0  0  0  0  0  0  0  0  0  0  0
  -29.1926  -16.9885   20.3545 C   0  0  0  0  0  0  0  0  0  0  0  0
  -30.2800  -14.7414   20.2252 C   0  0  0  0  0  0  0  0  0  0  0  0
  -22.8770  -27.4929   23.5415 C   0  0  0  0  0  0  0  0  0  0  0  0
  -24.7443  -27.3640   20.8922 C   0  0  0  0  0  0  0  0  0  0  0  0
  -30.5911  -24.5919   28.4537 C   0  0  0  0  0  0  0  0  0  0  0  0
  -27.8350  -26.8240   19.5495 C   0  0  0  0  0  0  0  0  0  0  0  0
  -27.9189  -22.0044   22.6812 C   0  0  0  0  0  0  0  0  0  0  0  0
  -18.3411  -27.2846   21.2091 C   0  0  0  0  0  0  0  0  0  0  0  0
  -24.7971  -28.9855   24.2060 C   0  0  0  0  0  0  0  0  0  0  0  0
  -25.7403  -26.4458   23.0206 C   0  0  0  0  0  0  0  0  0  0  0  0
  -19.6677  -26.5395   21.0853 C   0  0  0  0  0  0  0  0  0  0  0  0
  -25.4344  -20.3570   20.5078 C   0  0  0  0  0  0  0  0  0  0  0  0
  -20.1535  -26.0827   22.4572 C   0  0  0  0  0  0  0  0  0  0  0  0
  -25.9303  -18.9128   20.4577 C   0  0  0  0  0  0  0  0  0  0  0  0
  -25.8059  -21.0386   21.8213 C   0  0  0  0  0  0  0  0  0  0  0  0
  -27.7593  -19.5402   22.0845 C   0  0  0  0  0  0  0  0  0  0  0  0
  -20.4031  -27.2808   23.3811 C   0  0  1  0  0  0  0  0  0  0  0  0
  -24.0479  -28.3049   23.0646 C   0  0  1  0  0  0  0  0  0  0  0  0
  -27.4379  -18.8397   20.7557 C   0  0  1  0  0  0  0  0  0  0  0  0
  -29.7432  -21.5264   25.1054 C   0  0  0  0  0  0  0  0  0  0  0  0
  -29.0425  -26.7523   17.3509 C   0  0  0  0  0  0  0  0  0  0  0  0
  -23.5006  -24.6413   20.3007 C   0  0  0  0  0  0  0  0  0  0  0  0
  -25.3723  -24.2131   18.6939 C   0  0  0  0  0  0  0  0  0  0  0  0
  -23.7999  -26.1087   18.2978 C   0  0  0  0  0  0  0  0  0  0  0  0
  -29.7262  -21.6566   21.0131 C   0  0  0  0  0  0  0  0  0  0  0  0
  -29.6467  -29.0265   20.3407 C   0  0  0  0  0  0  0  0  0  0  0  0
  -31.5713  -23.2128   26.6242 C   0  0  0  0  0  0  0  0  0  0  0  0
  -29.2753  -24.8071   29.1851 C   0  0  0  0  0  0  0  0  0  0  0  0
  -28.4042  -25.8733   28.5390 C   0  0  0  0  0  0  0  0  0  1  0  0
  -25.4956  -26.2746   20.1657 C   0  0  1  0  0  0  0  0  0  0  0  0
  -28.6465  -27.6147   18.5392 C   0  0  2  0  0  0  0  0  0  0  0  0
  -24.5476  -25.3156   19.3918 C   0  0  0  0  0  0  0  0  0  0  0  0
  -27.1344  -16.4197   21.1212 N   0  0  0  0  0  0  0  0  0  0  0  0
  -27.9530  -17.4125   20.7336 N   0  0  0  0  0  0  0  0  0  0  0  0
  -24.9014  -27.4062   22.2848 N   0  0  0  0  0  0  0  0  0  0  0  0
  -27.2366  -20.9151   22.1031 N   0  0  0  0  0  0  0  0  0  0  0  0
  -30.1390  -17.8556   19.9364 N   0  0  0  0  0  0  0  0  0  0  0  0
  -30.1016  -13.3672   20.4348 N   0  0  0  0  0  0  0  0  0  0  0  0
  -21.6583  -27.9210   23.0507 N   0  0  0  0  0  0  0  0  0  0  0  0
  -30.4735  -23.6181   27.4724 N   0  0  0  0  0  0  0  0  0  0  0  0
  -26.4801  -26.9481   19.3257 N   0  0  0  0  0  0  0  0  0  0  0  0
  -29.2765  -22.1456   22.3206 N   0  0  0  0  0  0  0  0  0  0  0  0
  -29.8885  -28.1425   19.1716 N   0  3  0  0  0  0  0  0  0  0  0  0
  -31.3894  -15.1614   19.8174 O   0  0  0  0  0  0  0  0  0  0  0  0
  -23.0655  -26.5471   24.2976 O   0  0  0  0  0  0  0  0  0  0  0  0
  -24.0495  -28.1531   20.2470 O   0  0  0  0  0  0  0  0  0  0  0  0
  -31.6170  -25.2137   28.7158 O   0  0  0  0  0  0  0  0  0  0  0  0
  -28.3515  -26.1596   20.4452 O   0  0  0  0  0  0  0  0  0  0  0  0
  -27.3515  -22.8036   23.4355 O   0  0  0  0  0  0  0  0  0  0  0  0
  -25.8203  -10.2886   22.2315 O   0  0  0  0  0  0  0  0  0  0  0  0
  -28.0671  -25.4697   27.2124 O   0  0  0  0  0  0  0  0  0  1  0  0
  -20.7531   -9.0815   20.4230 F   0  0  0  0  0  0  0  0  0  0  0  0
  -23.6413  -11.8074   22.9985 F   0  0  0  0  0  0  0  0  0  0  0  0
  1  2  1  0  0  0  0
  1  6  2  0  0  0  0
  2  7  2  0  0  0  0
  3  9  2  0  0  0  0
  3 10  1  0  0  0  0
  4 11  2  0  0  0  0
  4 18  1  0  0  0  0
  5 12  1  0  0  0  0
  5 18  2  0  0  0  0
  6 20  1  0  0  0  0
  7 22  1  0  0  0  0
  8 13  2  0  0  0  0
  8 21  1  0  0  0  0
  9 24  1  0  0  0  0
 10 26  2  0  0  0  0
 11 27  1  0  0  0  0
 12 27  2  0  0  0  0
 13 28  1  0  0  0  0
 14 15  2  0  0  0  0
 14 29  1  0  0  0  0
 15 30  1  0  0  0  0
 16 23  1  0  0  0  0
 16 28  2  0  0  0  0
 17 30  2  0  0  0  0
 17 31  1  0  0  0  0
 18 32  1  0  0  0  0
 19 32  1  0  0  0  0
 19 33  2  0  0  0  0
 19 34  1  0  0  0  0
 20 22  2  0  0  0  0
 20 40  1  0  0  0  0
 21 23  2  0  0  0  0
 21 41  1  0  0  0  0
 22 49  1  0  0  0  0
 23 42  1  0  0  0  0
 24 25  2  0  0  0  0
 24 59  1  0  0  0  0
 25 26  1  0  0  0  0
 25 52  1  0  0  0  0
 26 74  1  0  0  0  0
 27 82  1  0  0  0  0
 28 83  1  0  0  0  0
 29 31  2  0  0  0  0
 29 82  1  0  0  0  0
 30 84  1  0  0  0  0
 31 85  1  0  0  0  0
 32 65  2  0  0  0  0
 33 66  1  0  0  0  0
 33 69  1  0  0  0  0
 34 70  1  0  0  0  0
 34 76  2  0  0  0  0
 35 50  1  0  0  0  0
 35 71  1  0  0  0  0
 35 77  2  0  0  0  0
 36 62  1  0  0  0  0
 36 67  1  0  0  0  0
 36 78  2  0  0  0  0
 37 60  1  0  0  0  0
 37 72  1  0  0  0  0
 37 79  2  0  0  0  0
 38 63  1  0  0  0  0
 38 73  1  0  0  0  0
 38 80  2  0  0  0  0
 39 68  1  0  0  0  0
 39 74  1  0  0  0  0
 39 81  2  0  0  0  0
 40 43  1  0  0  0  0
 41 50  1  0  0  0  0
 42 67  1  0  0  0  0
 43 45  1  0  0  0  0
 44 46  1  0  0  0  0
 44 47  1  0  0  0  0
 45 49  1  0  0  0  0
 46 51  1  0  0  0  0
 47 68  1  0  0  0  0
 48 51  1  0  0  0  0
 48 68  1  0  0  0  0
 49 71  1  0  0  0  0
 50 67  1  0  0  0  0
 51 66  1  0  0  0  0
 53 63  1  0  0  0  0
 54 64  1  0  0  0  0
 55 64  1  0  0  0  0
 56 64  1  0  0  0  0
 57 74  1  0  0  0  0
 58 75  1  0  0  0  0
 59 72  1  0  0  0  0
 60 61  1  0  0  0  0
 61 83  1  0  0  0  0
 62 64  1  0  0  0  0
 62 73  1  0  0  0  0
 63 75  1  0  0  0  0
 65 66  1  0  0  0  0
M  CHG  1  75   1
M  ISO  4  39 100  61 101  74 100  83 101
M  END
> <Batch ID>
0053

> <Smiles>
CNC(C)C(=O)NC(C(=O)N1Cc2cc([101O:1][101CH2:1]CC(=O)NCc3cccc([100N:0](C)[100C:0](=O)N4CCCC(n5nc(-c6ccc(Oc7ccc(F)cc7F)cc6)c(C(N)=O)c5N)C4)c3C)ccc2CC1C(=O)NC1CCCc2ccccc21)C(C)(C)C

> <Shape>
0.215

> <Color>
0.094

> <Negative vol penalty>
0.000

$$$$

  -OEChem-04042322433D

 85 93  0     1  0  0  0  0  0999 V2000
  -22.3298   -8.3536   21.8645 C   0  0  0  0  0  0  0  0  0  0  0  0
  -22.7884   -9.3982   22.6606 C   0  0  0  0  0  0  0  0  0  0  0  0
  -23.9969  -28.8708   19.6156 C   0  0  0  0  0  0  0  0  0  0  0  0
  -24.1418  -28.1169   21.9063 C   0  0  0  0  0  0  0  0  0  0  0  0
  -22.5861   -8.3586   20.4940 C   0  0  0  0  0  0  0  0  0  0  0  0
  -23.5047  -10.4480   22.0868 C   0  0  0  0  0  0  0  0  0  0  0  0
  -21.9744  -14.9805   23.7481 C   0  0  0  0  0  0  0  0  0  0  0  0
  -22.6669  -29.2379   19.8204 C   0  0  0  0  0  0  0  0  0  0  0  0
  -22.8118  -28.4840   22.1113 C   0  0  0  0  0  0  0  0  0  0  0  0
  -22.4155  -15.3785   25.0094 C   0  0  0  0  0  0  0  0  0  0  0  0
  -19.7474  -27.2330   21.4217 C   0  0  0  0  0  0  0  0  0  0  0  0
  -18.9235  -26.3330   22.0974 C   0  0  0  0  0  0  0  0  0  0  0  0
  -24.1165  -16.7427   23.9775 C   0  0  0  0  0  0  0  0  0  0  0  0
  -28.3432  -19.1922   24.5786 C   0  0  0  0  0  0  0  0  0  0  0  0
  -28.6998  -19.8177   22.2724 C   0  0  0  0  0  0  0  0  0  0  0  0
  -28.4429  -21.5260   23.9615 C   0  0  0  0  0  0  0  0  0  0  0  0
  -18.5224  -27.9874   23.8119 C   0  0  0  0  0  0  0  0  0  0  0  0
  -24.7343  -28.3103   20.6585 C   0  0  0  0  0  0  0  0  0  0  0  0
  -27.2504  -28.7305   20.6386 C   0  0  0  0  0  0  0  0  0  0  0  0
  -23.2976   -9.4139   19.9016 C   0  0  0  0  0  0  0  0  0  0  0  0
  -22.6092  -15.4529   22.5904 C   0  0  0  0  0  0  0  0  0  0  0  0
  -23.7720  -10.4665   20.7073 C   0  0  0  0  0  0  0  0  0  0  0  0
  -23.6800  -16.3512   22.7027 C   0  0  0  0  0  0  0  0  0  0  0  0
  -28.5477  -18.8313   23.2468 C   0  0  0  0  0  0  0  0  0  0  0  0
  -28.2908  -20.5396   24.9359 C   0  0  0  0  0  0  0  0  0  0  0  0
  -28.6474  -21.1651   22.6297 C   0  0  0  0  0  0  0  0  0  0  0  0
  -22.0744  -29.0445   21.0683 C   0  0  0  0  0  0  0  0  0  0  0  0
  -23.4885  -16.2574   25.1243 C   0  0  0  0  0  0  0  0  0  0  0  0
  -19.9590  -28.5102   21.9411 C   0  0  0  0  0  0  0  0  0  0  0  0
  -18.3109  -26.7102   23.2925 C   0  0  0  0  0  0  0  0  0  0  0  0
  -19.3464  -28.8874   23.1361 C   0  0  0  0  0  0  0  0  0  0  0  0
  -26.1081  -27.9303   20.4473 C   0  0  0  0  0  0  0  0  0  0  0  0
  -28.3022  -27.9130   20.3039 C   0  0  0  0  0  0  0  0  0  0  0  0
  -27.3518  -30.0910   21.0795 C   0  0  0  0  0  0  0  0  0  0  0  0
  -24.2011  -14.1005   20.1944 C   0  0  0  0  0  0  0  0  0  0  0  0
  -24.1630  -17.1103   18.9853 C   0  0  0  0  0  0  0  0  0  0  0  0
  -26.3363  -19.8946   27.8089 C   0  0  0  0  0  0  0  0  0  0  0  0
  -23.9277  -20.4644   19.5694 C   0  0  0  0  0  0  0  0  0  0  0  0
  -29.0122  -21.9801   20.2741 C   0  0  0  0  0  0  0  0  0  0  0  0
  -23.5912   -9.3519   18.4235 C   0  0  0  0  0  0  0  0  0  0  0  0
  -22.1043  -15.0350   21.2365 C   0  0  0  0  0  0  0  0  0  0  0  0
  -24.3825  -16.9031   21.4901 C   0  0  0  0  0  0  0  0  0  0  0  0
  -24.0336  -10.6886   17.8338 C   0  0  0  0  0  0  0  0  0  0  0  0
  -29.4053  -24.1856   17.5068 C   0  0  0  0  0  0  0  0  0  0  0  0
  -25.0899  -11.3399   18.7209 C   0  0  0  0  0  0  0  0  0  0  0  0
  -28.7137  -25.4711   17.9666 C   0  0  0  0  0  0  0  0  0  0  0  0
  -28.6765  -22.9395   18.0065 C   0  0  0  0  0  0  0  0  0  0  0  0
  -27.7412  -24.1869   19.9139 C   0  0  0  0  0  0  0  0  0  0  0  0
  -24.5311  -11.6355   20.1179 C   0  0  1  0  0  0  0  0  0  0  0  0
  -23.1533  -15.1760   20.1379 C   0  0  1  0  0  0  0  0  0  0  0  0
  -28.4755  -25.4692   19.4893 C   0  0  2  0  0  0  0  0  0  0  0  0
  -28.6036  -17.3907   22.8649 C   0  0  0  0  0  0  0  0  0  0  0  0
  -23.9684  -22.6775   18.3869 C   0  0  0  0  0  0  0  0  0  0  0  0
  -27.1939  -16.9011   18.7033 C   0  0  0  0  0  0  0  0  0  0  0  0
  -27.2711  -19.3895   18.4382 C   0  0  0  0  0  0  0  0  0  0  0  0
  -26.0399  -17.9973   16.7743 C   0  0  0  0  0  0  0  0  0  0  0  0
  -21.1783  -21.1164   20.4495 C   0  0  0  0  0  0  0  0  0  0  0  0
  -28.0708  -20.9279   26.3694 C   0  0  0  0  0  0  0  0  0  0  0  0
  -24.8341  -19.8876   28.0296 C   0  0  0  0  0  0  0  0  0  0  0  0
  -24.2241  -18.5028   27.8446 C   0  0  0  0  0  0  0  0  0  0  0  0
  -24.5041  -17.9456   26.4565 C   0  0  0  0  0  0  0  0  0  1  0  0
  -25.0676  -18.3146   19.0864 C   0  0  1  0  0  0  0  0  0  0  0  0
  -23.0945  -21.5464   18.9062 C   0  0  2  0  0  0  0  0  0  0  0  0
  -26.3813  -18.1389   18.2736 C   0  0  0  0  0  0  0  0  0  0  0  0
  -26.4060  -26.6991   20.0238 N   0  0  0  0  0  0  0  0  0  0  0  0
  -27.7475  -26.7195   19.9461 N   0  0  0  0  0  0  0  0  0  0  0  0
  -23.8559  -16.4597   20.1887 N   0  0  0  0  0  0  0  0  0  0  0  0
  -28.4902  -23.0056   19.4577 N   0  0  0  0  0  0  0  0  0  0  0  0
  -29.6382  -28.1059   20.2837 N   0  0  0  0  0  0  0  0  0  0  0  0
  -26.1722  -30.7851   21.3817 N   0  0  0  0  0  0  0  0  0  0  0  0
  -28.8020  -22.1671   21.6399 N   0  0  0  0  0  0  0  0  0  0  0  0
  -23.6973  -12.8181   20.0890 N   0  0  0  0  0  0  0  0  0  0  0  0
  -26.6970  -20.7450   26.7740 N   0  0  0  0  0  0  0  0  0  0  0  0
  -24.2643  -19.4636   18.6827 N   0  0  0  0  0  0  0  0  0  0  0  0
  -22.1170  -22.1152   19.8767 N   0  3  0  0  0  0  0  0  0  0  0  0
  -28.4546  -30.6792   21.1861 O   0  0  0  0  0  0  0  0  0  0  0  0
  -25.3796  -14.4112   20.3227 O   0  0  0  0  0  0  0  0  0  0  0  0
  -23.7384  -16.7640   17.8801 O   0  0  0  0  0  0  0  0  0  0  0  0
  -27.1193  -19.2235   28.4757 O   0  0  0  0  0  0  0  0  0  0  0  0
  -24.2509  -20.5051   20.7544 O   0  0  0  0  0  0  0  0  0  0  0  0
  -29.6260  -21.0213   19.7988 O   0  0  0  0  0  0  0  0  0  0  0  0
  -20.7767  -29.4029   21.2686 O   0  0  0  0  0  0  0  0  0  0  0  0
  -23.9214  -16.6470   26.3543 O   0  0  0  0  0  0  0  0  0  1  0  0
  -17.5184  -25.8463   23.9405 F   0  0  0  0  0  0  0  0  0  0  0  0
  -19.5449  -30.1134   23.6394 F   0  0  0  0  0  0  0  0  0  0  0  0
  1  2  1  0  0  0  0
  1  5  2  0  0  0  0
  2  6  2  0  0  0  0
  3  8  2  0  0  0  0
  3 18  1  0  0  0  0
  4  9  1  0  0  0  0
  4 18  2  0  0  0  0
  5 20  1  0  0  0  0
  6 22  1  0  0  0  0
  7 10  2  0  0  0  0
  7 21  1  0  0  0  0
  8 27  1  0  0  0  0
  9 27  2  0  0  0  0
 10 28  1  0  0  0  0
 11 12  2  0  0  0  0
 11 29  1  0  0  0  0
 12 30  1  0  0  0  0
 13 23  1  0  0  0  0
 13 28  2  0  0  0  0
 14 24  2  0  0  0  0
 14 25  1  0  0  0  0
 15 24  1  0  0  0  0
 15 26  2  0  0  0  0
 16 25  2  0  0  0  0
 16 26  1  0  0  0  0
 17 30  2  0  0  0  0
 17 31  1  0  0  0  0
 18 32  1  0  0  0  0
 19 32  1  0  0  0  0
 19 33  2  0  0  0  0
 19 34  1  0  0  0  0
 20 22  2  0  0  0  0
 20 40  1  0  0  0  0
 21 23  2  0  0  0  0
 21 41  1  0  0  0  0
 22 49  1  0  0  0  0
 23 42  1  0  0  0  0
 24 52  1  0  0  0  0
 25 58  1  0  0  0  0
 26 71  1  0  0  0  0
 27 82  1  0  0  0  0
 28 83  1  0  0  0  0
 29 31  2  0  0  0  0
 29 82  1  0  0  0  0
 30 84  1  0  0  0  0
 31 85  1  0  0  0  0
 32 65  2  0  0  0  0
 33 66  1  0  0  0  0
 33 69  1  0  0  0  0
 34 70  1  0  0  0  0
 34 76  2  0  0  0  0
 35 50  1  0  0  0  0
 35 72  1  0  0  0  0
 35 77  2  0  0  0  0
 36 62  1  0  0  0  0
 36 67  1  0  0  0  0
 36 78  2  0  0  0  0
 37 59  1  0  0  0  0
 37 73  1  0  0  0  0
 37 79  2  0  0  0  0
 38 63  1  0  0  0  0
 38 74  1  0  0  0  0
 38 80  2  0  0  0  0
 39 68  1  0  0  0  0
 39 71  1  0  0  0  0
 39 81  2  0  0  0  0
 40 43  1  0  0  0  0
 41 50  1  0  0  0  0
 42 67  1  0  0  0  0
 43 45  1  0  0  0  0
 44 46  1  0  0  0  0
 44 47  1  0  0  0  0
 45 49  1  0  0  0  0
 46 51  1  0  0  0  0
 47 68  1  0  0  0  0
 48 51  1  0  0  0  0
 48 68  1  0  0  0  0
 49 72  1  0  0  0  0
 50 67  1  0  0  0  0
 51 66  1  0  0  0  0
 53 63  1  0  0  0  0
 54 64  1  0  0  0  0
 55 64  1  0  0  0  0
 56 64  1  0  0  0  0
 57 75  1  0  0  0  0
 58 73  1  0  0  0  0
 59 60  1  0  0  0  0
 60 61  1  0  0  0  0
 61 83  1  0  0  0  0
 62 64  1  0  0  0  0
 62 74  1  0  0  0  0
 63 75  1  0  0  0  0
 65 66  1  0  0  0  0
M  CHG  1  75   1
M  ISO  4  39 100  61 101  71 100  83 101
M  END
> <Batch ID>
0053

> <Smiles>
CNC(C)C(=O)NC(C(=O)N1Cc2cc([101O:1][101CH2:1]CCC(=O)NCc3cc(C)cc([100NH:0][100C:0](=O)N4CCCC(n5nc(-c6ccc(Oc7ccc(F)cc7F)cc6)c(C(N)=O)c5N)C4)c3)ccc2CC1C(=O)NC1CCCc2ccccc21)C(C)(C)C

> <Shape>
0.225

> <Color>
0.064

> <Negative vol penalty>
0.000

$$$$

  -OEChem-04042322433D

 86 94  0     1  0  0  0  0  0999 V2000
  -29.9258  -24.2413   19.0838 C   0  0  0  0  0  0  0  0  0  0  0  0
  -28.5475  -24.4193   19.0208 C   0  0  0  0  0  0  0  0  0  0  0  0
  -28.1050  -14.6858   21.2104 C   0  0  0  0  0  0  0  0  0  0  0  0
  -26.1975  -15.4895   19.9643 C   0  0  0  0  0  0  0  0  0  0  0  0
  -21.9511  -24.2497   23.5229 C   0  0  0  0  0  0  0  0  0  0  0  0
  -30.6513  -24.7930   20.1389 C   0  0  0  0  0  0  0  0  0  0  0  0
  -27.8937  -25.1483   20.0136 C   0  0  0  0  0  0  0  0  0  0  0  0
  -23.0126  -28.7784   19.3046 C   0  0  0  0  0  0  0  0  0  0  0  0
  -23.2471  -23.7369   23.5779 C   0  0  0  0  0  0  0  0  0  0  0  0
  -27.5657  -13.3994   21.2062 C   0  0  0  0  0  0  0  0  0  0  0  0
  -25.6583  -14.2031   19.9600 C   0  0  0  0  0  0  0  0  0  0  0  0
  -21.6511  -28.5730   19.5238 C   0  0  0  0  0  0  0  0  0  0  0  0
  -23.9528  -11.0591   19.3087 C   0  0  0  0  0  0  0  0  0  0  0  0
  -23.4276  -10.5792   18.1089 C   0  0  0  0  0  0  0  0  0  0  0  0
  -21.8565  -29.5809   21.7058 C   0  0  0  0  0  0  0  0  0  0  0  0
  -22.9837  -22.8324   21.3531 C   0  0  0  0  0  0  0  0  0  0  0  0
  -25.5891  -10.8357   17.0603 C   0  0  0  0  0  0  0  0  0  0  0  0
  -27.4208  -15.7309   20.5896 C   0  0  0  0  0  0  0  0  0  0  0  0
  -21.1713  -24.0537   22.3831 C   0  0  0  0  0  0  0  0  0  0  0  0
  -28.8404  -17.6236   19.6356 C   0  0  0  0  0  0  0  0  0  0  0  0
  -30.0074  -25.5373   21.1399 C   0  0  0  0  0  0  0  0  0  0  0  0
  -23.8097  -29.3777   20.2904 C   0  0  0  0  0  0  0  0  0  0  0  0
  -28.6111  -25.7093   21.0838 C   0  0  0  0  0  0  0  0  0  0  0  0
  -23.2273  -29.7951   21.4957 C   0  0  0  0  0  0  0  0  0  0  0  0
  -21.6876  -23.3451   21.2982 C   0  0  0  0  0  0  0  0  0  0  0  0
  -23.7634  -23.0283   22.4930 C   0  0  0  0  0  0  0  0  0  0  0  0
  -26.3424  -13.1581   20.5810 C   0  0  0  0  0  0  0  0  0  0  0  0
  -21.0734  -28.9716   20.7256 C   0  0  0  0  0  0  0  0  0  0  0  0
  -25.2960  -11.4274   19.3843 C   0  0  0  0  0  0  0  0  0  0  0  0
  -24.2458  -10.4675   16.9847 C   0  0  0  0  0  0  0  0  0  0  0  0
  -26.1142  -11.3157   18.2601 C   0  0  0  0  0  0  0  0  0  0  0  0
  -27.9770  -17.0601   20.5941 C   0  0  0  0  0  0  0  0  0  0  0  0
  -29.0771  -18.8969   20.0930 C   0  0  0  0  0  0  0  0  0  0  0  0
  -19.7943  -24.6104   22.3523 C   0  0  0  0  0  0  0  0  0  0  0  0
  -29.3802  -17.0476   18.4387 C   0  0  0  0  0  0  0  0  0  0  0  0
  -26.3235  -28.4606   22.0060 C   0  0  0  0  0  0  0  0  0  0  0  0
  -26.2726  -31.5447   23.0100 C   0  0  0  0  0  0  0  0  0  0  0  0
  -24.4740  -34.4041   23.4959 C   0  0  0  0  0  0  0  0  0  0  0  0
  -25.9853  -22.6131   23.6053 C   0  0  0  0  0  0  0  0  0  0  0  0
  -30.8274  -26.0744   22.2861 C   0  0  0  0  0  0  0  0  0  0  0  0
  -25.2714  -29.6165   20.0279 C   0  0  0  0  0  0  0  0  0  0  0  0
  -24.0353  -30.4614   22.5780 C   0  0  0  0  0  0  0  0  0  0  0  0
  -30.1096  -27.1502   23.0970 C   0  0  0  0  0  0  0  0  0  0  0  0
  -29.3028  -21.4385   24.1456 C   0  0  0  0  0  0  0  0  0  0  0  0
  -28.6817  -26.7167   23.4132 C   0  0  0  0  0  0  0  0  0  0  0  0
  -29.4199  -20.2374   23.2045 C   0  0  0  0  0  0  0  0  0  0  0  0
  -27.9082  -21.5436   24.7602 C   0  0  0  0  0  0  0  0  0  0  0  0
  -26.9192  -20.3376   22.8532 C   0  0  0  0  0  0  0  0  0  0  0  0
  -27.8692  -26.5147   22.1284 C   0  0  1  0  0  0  0  0  0  0  0  0
  -26.0907  -29.7694   21.3057 C   0  0  1  0  0  0  0  0  0  0  0  0
  -28.2869  -20.2276   22.1596 C   0  0  2  0  0  0  0  0  0  0  0  0
  -20.8733  -23.1199   20.0660 C   0  0  0  0  0  0  0  0  0  0  0  0
  -24.6961  -36.7468   24.3673 C   0  0  0  0  0  0  0  0  0  0  0  0
  -26.2338  -30.4820   25.8699 C   0  0  0  0  0  0  0  0  0  0  0  0
  -25.5066  -32.7538   26.6302 C   0  0  0  0  0  0  0  0  0  0  0  0
  -27.7180  -32.4630   25.5132 C   0  0  0  0  0  0  0  0  0  0  0  0
  -16.8829  -28.2355   21.2480 C   0  0  0  0  0  0  0  0  0  0  0  0
  -17.3239  -25.9357   20.3453 C   0  0  0  0  0  0  0  0  0  0  0  0
  -23.7601  -35.5717   20.8718 C   0  0  0  0  0  0  0  0  0  0  0  0
  -18.4239  -26.6726   22.5107 C   0  0  0  0  0  0  0  0  0  0  0  0
  -19.1437  -27.6486   20.2994 C   0  0  0  0  0  0  0  0  0  1  0  0
  -25.6029  -32.2906   24.1388 C   0  0  1  0  0  0  0  0  0  0  0  0
  -24.7666  -35.8507   23.1407 C   0  0  2  0  0  0  0  0  0  0  0  0
  -26.2502  -31.9831   25.5186 C   0  0  0  0  0  0  0  0  0  0  0  0
  -17.9382  -27.1214   21.1117 C   0  0  0  0  0  0  0  0  0  0  0  0
  -27.6851  -17.9060   21.5857 N   0  0  0  0  0  0  0  0  0  0  0  0
  -28.3689  -19.0139   21.2527 N   0  0  0  0  0  0  0  0  0  0  0  0
  -25.4616  -30.6672   22.2765 N   0  0  0  0  0  0  0  0  0  0  0  0
  -26.8866  -21.5326   23.7109 N   0  0  0  0  0  0  0  0  0  0  0  0
  -29.8198  -19.9165   19.6124 N   0  0  0  0  0  0  0  0  0  0  0  0
  -29.0348  -15.7278   18.1177 N   0  0  0  0  0  0  0  0  0  0  0  0
  -25.0801  -22.5078   22.5498 N   0  0  0  0  0  0  0  0  0  0  0  0
  -19.6891  -25.9884   22.4955 N   0  0  0  0  0  0  0  0  0  0  0  0
  -27.4568  -27.7911   21.5853 N   0  0  0  0  0  0  0  0  0  0  0  0
  -25.6288  -33.7013   23.7678 N   0  0  0  0  0  0  0  0  0  0  0  0
  -23.7816  -36.3474   22.1386 N   0  3  0  0  0  0  0  0  0  0  0  0
  -18.8409  -23.8464   22.2261 O   0  0  0  0  0  0  0  0  0  0  0  0
  -30.1593  -17.6789   17.6850 O   0  0  0  0  0  0  0  0  0  0  0  0
  -25.5343  -28.0866   22.8656 O   0  0  0  0  0  0  0  0  0  0  0  0
  -27.4693  -31.7390   22.7828 O   0  0  0  0  0  0  0  0  0  0  0  0
  -23.3347  -33.9444   23.5324 O   0  0  0  0  0  0  0  0  0  0  0  0
  -26.0320  -23.5749   24.3765 O   0  0  0  0  0  0  0  0  0  0  0  0
  -25.8161  -11.9029   20.5764 O   0  0  0  0  0  0  0  0  0  0  0  0
  -19.7449  -28.7717   20.9424 O   0  0  0  0  0  0  0  0  0  1  0  0
  -23.7417  -10.0052   15.8330 F   0  0  0  0  0  0  0  0  0  0  0  0
  -27.4057  -11.6668   18.3270 F   0  0  0  0  0  0  0  0  0  0  0  0
  1  2  1  0  0  0  0
  1  6  2  0  0  0  0
  2  7  2  0  0  0  0
  3 10  2  0  0  0  0
  3 18  1  0  0  0  0
  4 11  1  0  0  0  0
  4 18  2  0  0  0  0
  5  9  2  0  0  0  0
  5 19  1  0  0  0  0
  6 21  1  0  0  0  0
  7 23  1  0  0  0  0
  8 12  2  0  0  0  0
  8 22  1  0  0  0  0
  9 26  1  0  0  0  0
 10 27  1  0  0  0  0
 11 27  2  0  0  0  0
 12 28  1  0  0  0  0
 13 14  2  0  0  0  0
 13 29  1  0  0  0  0
 14 30  1  0  0  0  0
 15 24  1  0  0  0  0
 15 28  2  0  0  0  0
 16 25  1  0  0  0  0
 16 26  2  0  0  0  0
 17 30  2  0  0  0  0
 17 31  1  0  0  0  0
 18 32  1  0  0  0  0
 19 25  2  0  0  0  0
 19 34  1  0  0  0  0
 20 32  1  0  0  0  0
 20 33  2  0  0  0  0
 20 35  1  0  0  0  0
 21 23  2  0  0  0  0
 21 40  1  0  0  0  0
 22 24  2  0  0  0  0
 22 41  1  0  0  0  0
 23 49  1  0  0  0  0
 24 42  1  0  0  0  0
 25 52  1  0  0  0  0
 26 72  1  0  0  0  0
 27 83  1  0  0  0  0
 28 84  1  0  0  0  0
 29 31  2  0  0  0  0
 29 83  1  0  0  0  0
 30 85  1  0  0  0  0
 31 86  1  0  0  0  0
 32 66  2  0  0  0  0
 33 67  1  0  0  0  0
 33 70  1  0  0  0  0
 34 73  1  0  0  0  0
 34 77  2  0  0  0  0
 35 71  1  0  0  0  0
 35 78  2  0  0  0  0
 36 50  1  0  0  0  0
 36 74  1  0  0  0  0
 36 79  2  0  0  0  0
 37 62  1  0  0  0  0
 37 68  1  0  0  0  0
 37 80  2  0  0  0  0
 38 63  1  0  0  0  0
 38 75  1  0  0  0  0
 38 81  2  0  0  0  0
 39 69  1  0  0  0  0
 39 72  1  0  0  0  0
 39 82  2  0  0  0  0
 40 43  1  0  0  0  0
 41 50  1  0  0  0  0
 42 68  1  0  0  0  0
 43 45  1  0  0  0  0
 44 46  1  0  0  0  0
 44 47  1  0  0  0  0
 45 49  1  0  0  0  0
 46 51  1  0  0  0  0
 47 69  1  0  0  0  0
 48 51  1  0  0  0  0
 48 69  1  0  0  0  0
 49 74  1  0  0  0  0
 50 68  1  0  0  0  0
 51 67  1  0  0  0  0
 53 63  1  0  0  0  0
 54 64  1  0  0  0  0
 55 64  1  0  0  0  0
 56 64  1  0  0  0  0
 57 65  1  0  0  0  0
 58 65  1  0  0  0  0
 59 76  1  0  0  0  0
 60 65  1  0  0  0  0
 60 73  1  0  0  0  0
 61 65  1  0  0  0  0
 61 84  1  0  0  0  0
 62 64  1  0  0  0  0
 62 75  1  0  0  0  0
 63 76  1  0  0  0  0
 66 67  1  0  0  0  0
M  CHG  1  76   1
M  ISO  4  39 100  61 101  72 100  84 101
M  END
> <Batch ID>
0053

> <Smiles>
CNC(C)C(=O)NC(C(=O)N1Cc2cc([101O:1][101CH2:1]C(C)(C)CNC(=O)c3ccc([100NH:0][100C:0](=O)N4CCCC(n5nc(-c6ccc(Oc7ccc(F)cc7F)cc6)c(C(N)=O)c5N)C4)cc3C)ccc2CC1C(=O)NC1CCCc2ccccc21)C(C)(C)C

> <Shape>
0.276

> <Color>
0.071

> <Negative vol penalty>
0.000

$$$$

  -OEChem-04042322433D

 85 93  0     1  0  0  0  0  0999 V2000
  -32.2563  -32.8635   22.3810 C   0  0  0  0  0  0  0  0  0  0  0  0
  -31.6887  -31.8404   21.6284 C   0  0  0  0  0  0  0  0  0  0  0  0
  -28.3447  -23.5975   22.8525 C   0  0  0  0  0  0  0  0  0  0  0  0
  -26.4903  -12.2257   21.4692 C   0  0  0  0  0  0  0  0  0  0  0  0
  -25.7656  -13.9746   19.9681 C   0  0  0  0  0  0  0  0  0  0  0  0
  -27.7438  -23.8861   21.6273 C   0  0  0  0  0  0  0  0  0  0  0  0
  -31.7187  -33.1933   23.6244 C   0  0  0  0  0  0  0  0  0  0  0  0
  -30.5837  -31.1458   22.1192 C   0  0  0  0  0  0  0  0  0  0  0  0
  -26.9903  -30.4843   18.6128 C   0  0  0  0  0  0  0  0  0  0  0  0
  -28.9255  -22.3476   23.0672 C   0  0  0  0  0  0  0  0  0  0  0  0
  -25.2225  -11.6473   21.4075 C   0  0  0  0  0  0  0  0  0  0  0  0
  -24.4978  -13.3962   19.9063 C   0  0  0  0  0  0  0  0  0  0  0  0
  -27.1967  -29.4765   17.6718 C   0  0  0  0  0  0  0  0  0  0  0  0
  -22.0702   -9.9109   21.9285 C   0  0  0  0  0  0  0  0  0  0  0  0
  -21.4888   -9.4899   23.1244 C   0  0  0  0  0  0  0  0  0  0  0  0
  -25.7300  -28.0216   18.9173 C   0  0  0  0  0  0  0  0  0  0  0  0
  -21.5922  -11.7506   23.9704 C   0  0  0  0  0  0  0  0  0  0  0  0
  -26.7618  -13.3894   20.7496 C   0  0  0  0  0  0  0  0  0  0  0  0
  -27.7234  -22.9248   20.6169 C   0  0  0  0  0  0  0  0  0  0  0  0
  -29.1690  -13.7219   19.9734 C   0  0  0  0  0  0  0  0  0  0  0  0
  -30.6006  -32.5089   24.1265 C   0  0  0  0  0  0  0  0  0  0  0  0
  -26.1594  -30.2643   19.7208 C   0  0  0  0  0  0  0  0  0  0  0  0
  -30.0315  -31.4659   23.3711 C   0  0  0  0  0  0  0  0  0  0  0  0
  -25.5127  -29.0291   19.8695 C   0  0  0  0  0  0  0  0  0  0  0  0
  -28.3040  -21.6748   20.8316 C   0  0  0  0  0  0  0  0  0  0  0  0
  -28.9051  -21.3862   22.0568 C   0  0  0  0  0  0  0  0  0  0  0  0
  -24.2263  -12.2325   20.6260 C   0  0  0  0  0  0  0  0  0  0  0  0
  -26.5688  -28.2439   17.8255 C   0  0  0  0  0  0  0  0  0  0  0  0
  -22.4127  -11.2517   21.7535 C   0  0  0  0  0  0  0  0  0  0  0  0
  -21.2498  -10.4097   24.1454 C   0  0  0  0  0  0  0  0  0  0  0  0
  -22.1737  -12.1715   22.7745 C   0  0  0  0  0  0  0  0  0  0  0  0
  -28.0710  -13.9877   20.8134 C   0  0  0  0  0  0  0  0  0  0  0  0
  -30.1670  -14.5402   20.4435 C   0  0  0  0  0  0  0  0  0  0  0  0
  -27.0765  -23.2630   19.3229 C   0  0  0  0  0  0  0  0  0  0  0  0
  -29.2772  -12.8164   18.8670 C   0  0  0  0  0  0  0  0  0  0  0  0
  -26.5801  -30.2446   22.8714 C   0  0  0  0  0  0  0  0  0  0  0  0
  -23.3558  -29.8914   22.9081 C   0  0  0  0  0  0  0  0  0  0  0  0
  -20.5328  -28.8845   21.2760 C   0  0  0  0  0  0  0  0  0  0  0  0
  -30.1350  -19.6963   23.4632 C   0  0  0  0  0  0  0  0  0  0  0  0
  -30.0838  -32.8695   25.4967 C   0  0  0  0  0  0  0  0  0  0  0  0
  -25.9259  -31.3706   20.7127 C   0  0  0  0  0  0  0  0  0  0  0  0
  -24.5949  -28.7491   21.0305 C   0  0  0  0  0  0  0  0  0  0  0  0
  -28.6818  -32.3354   25.7789 C   0  0  0  0  0  0  0  0  0  0  0  0
  -31.6952  -16.6548   24.4594 C   0  0  0  0  0  0  0  0  0  0  0  0
  -28.5746  -30.8716   25.3636 C   0  0  0  0  0  0  0  0  0  0  0  0
  -31.0472  -15.6024   23.5568 C   0  0  0  0  0  0  0  0  0  0  0  0
  -30.6981  -17.7335   24.8792 C   0  0  0  0  0  0  0  0  0  0  0  0
  -29.3311  -17.3261   22.8706 C   0  0  0  0  0  0  0  0  0  0  0  0
  -28.8170  -30.7059   23.8585 C   0  0  1  0  0  0  0  0  0  0  0  0
  -25.4658  -30.8636   22.0760 C   0  0  1  0  0  0  0  0  0  0  0  0
  -30.3123  -16.2541   22.3690 C   0  0  2  0  0  0  0  0  0  0  0  0
  -28.2811  -20.6437   19.7463 C   0  0  0  0  0  0  0  0  0  0  0  0
  -18.0495  -28.6836   21.5761 C   0  0  0  0  0  0  0  0  0  0  0  0
  -29.0431  -25.4545   16.5498 C   0  0  0  0  0  0  0  0  0  0  0  0
  -23.7701  -27.4373   24.6732 C   0  0  0  0  0  0  0  0  0  0  0  0
  -21.4178  -26.7541   24.1555 C   0  0  0  0  0  0  0  0  0  0  0  0
  -21.8574  -28.8989   25.3510 C   0  0  0  0  0  0  0  0  0  0  0  0
  -19.9946  -30.7240   19.0209 C   0  0  0  0  0  0  0  0  0  0  0  0
  -27.4183  -23.5298   16.8800 C   0  0  0  0  0  0  0  0  0  0  0  0
  -26.6941  -25.9120   17.3759 C   0  0  0  0  0  0  0  0  0  1  0  0
  -22.4088  -28.7158   22.8905 C   0  0  1  0  0  0  0  0  0  0  0  0
  -19.1880  -29.5606   21.0787 C   0  0  2  0  0  0  0  0  0  0  0  0
  -27.5773  -25.0097   16.5058 C   0  0  1  0  0  0  0  0  0  0  0  0
  -22.3823  -27.9558   24.2466 C   0  0  0  0  0  0  0  0  0  0  0  0
  -28.3454  -14.9031   21.7466 N   0  0  0  0  0  0  0  0  0  0  0  0
  -29.6272  -15.2196   21.4958 N   0  0  0  0  0  0  0  0  0  0  0  0
  -24.4036  -29.8605   21.9769 N   0  0  0  0  0  0  0  0  0  0  0  0
  -30.0439  -18.3087   23.7019 N   0  0  0  0  0  0  0  0  0  0  0  0
  -31.4448  -14.7375   20.0554 N   0  0  0  0  0  0  0  0  0  0  0  0
  -28.1561  -12.0512   18.5179 N   0  0  0  0  0  0  0  0  0  0  0  0
  -29.5016  -20.1235   22.2966 N   0  0  0  0  0  0  0  0  0  0  0  0
  -27.8917  -23.2070   18.1987 N   0  0  0  0  0  0  0  0  0  0  0  0
  -27.6410  -31.0969   23.1111 N   0  0  0  0  0  0  0  0  0  0  0  0
  -21.1131  -29.2417   22.4747 N   0  0  0  0  0  0  0  0  0  0  0  0
  -18.9612  -29.8510   19.6347 N   0  3  0  0  0  0  0  0  0  0  0  0
  -25.8918  -23.5867   19.3109 O   0  0  0  0  0  0  0  0  0  0  0  0
  -30.3415  -12.6777   18.2179 O   0  0  0  0  0  0  0  0  0  0  0  0
  -26.4839  -29.0804   23.2416 O   0  0  0  0  0  0  0  0  0  0  0  0
  -23.1685  -30.8068   23.7134 O   0  0  0  0  0  0  0  0  0  0  0  0
  -21.0182  -28.1135   20.4510 O   0  0  0  0  0  0  0  0  0  0  0  0
  -30.7543  -20.4461   24.2223 O   0  0  0  0  0  0  0  0  0  0  0  0
  -22.9892  -11.6682   20.5653 O   0  0  0  0  0  0  0  0  0  0  0  0
  -26.7691  -27.2583   16.9088 O   0  0  0  0  0  0  0  0  0  1  0  0
  -20.6900  -10.0056   25.2932 F   0  0  0  0  0  0  0  0  0  0  0  0
  -22.4994  -13.4612   22.6118 F   0  0  0  0  0  0  0  0  0  0  0  0
  1  2  1  0  0  0  0
  1  7  2  0  0  0  0
  2  8  2  0  0  0  0
  3  6  2  0  0  0  0
  3 10  1  0  0  0  0
  4 11  2  0  0  0  0
  4 18  1  0  0  0  0
  5 12  1  0  0  0  0
  5 18  2  0  0  0  0
  6 19  1  0  0  0  0
  7 21  1  0  0  0  0
  8 23  1  0  0  0  0
  9 13  2  0  0  0  0
  9 22  1  0  0  0  0
 10 26  2  0  0  0  0
 11 27  1  0  0  0  0
 12 27  2  0  0  0  0
 13 28  1  0  0  0  0
 14 15  2  0  0  0  0
 14 29  1  0  0  0  0
 15 30  1  0  0  0  0
 16 24  1  0  0  0  0
 16 28  2  0  0  0  0
 17 30  2  0  0  0  0
 17 31  1  0  0  0  0
 18 32  1  0  0  0  0
 19 25  2  0  0  0  0
 19 34  1  0  0  0  0
 20 32  1  0  0  0  0
 20 33  2  0  0  0  0
 20 35  1  0  0  0  0
 21 23  2  0  0  0  0
 21 40  1  0  0  0  0
 22 24  2  0  0  0  0
 22 41  1  0  0  0  0
 23 49  1  0  0  0  0
 24 42  1  0  0  0  0
 25 26  1  0  0  0  0
 25 52  1  0  0  0  0
 26 71  1  0  0  0  0
 27 82  1  0  0  0  0
 28 83  1  0  0  0  0
 29 31  2  0  0  0  0
 29 82  1  0  0  0  0
 30 84  1  0  0  0  0
 31 85  1  0  0  0  0
 32 65  2  0  0  0  0
 33 66  1  0  0  0  0
 33 69  1  0  0  0  0
 34 72  1  0  0  0  0
 34 76  2  0  0  0  0
 35 70  1  0  0  0  0
 35 77  2  0  0  0  0
 36 50  1  0  0  0  0
 36 73  1  0  0  0  0
 36 78  2  0  0  0  0
 37 61  1  0  0  0  0
 37 67  1  0  0  0  0
 37 79  2  0  0  0  0
 38 62  1  0  0  0  0
 38 74  1  0  0  0  0
 38 80  2  0  0  0  0
 39 68  1  0  0  0  0
 39 71  1  0  0  0  0
 39 81  2  0  0  0  0
 40 43  1  0  0  0  0
 41 50  1  0  0  0  0
 42 67  1  0  0  0  0
 43 45  1  0  0  0  0
 44 46  1  0  0  0  0
 44 47  1  0  0  0  0
 45 49  1  0  0  0  0
 46 51  1  0  0  0  0
 47 68  1  0  0  0  0
 48 51  1  0  0  0  0
 48 68  1  0  0  0  0
 49 73  1  0  0  0  0
 50 67  1  0  0  0  0
 51 66  1  0  0  0  0
 53 62  1  0  0  0  0
 54 63  1  0  0  0  0
 55 64  1  0  0  0  0
 56 64  1  0  0  0  0
 57 64  1  0  0  0  0
 58 75  1  0  0  0  0
 59 63  1  0  0  0  0
 59 72  1  0  0  0  0
 60 63  1  0  0  0  0
 60 83  1  0  0  0  0
 61 64  1  0  0  0  0
 61 74  1  0  0  0  0
 62 75  1  0  0  0  0
 65 66  1  0  0  0  0
M  CHG  1  75   1
M  ISO  4  39 100  60 101  71 100  83 101
M  END
> <Batch ID>
0053

> <Smiles>
CNC(C)C(=O)NC(C(=O)N1Cc2cc([101O:1][101CH2:1]C(C)CNC(=O)c3cccc([100NH:0][100C:0](=O)N4CCCC(n5nc(-c6ccc(Oc7ccc(F)cc7F)cc6)c(C(N)=O)c5N)C4)c3C)ccc2CC1C(=O)NC1CCCc2ccccc21)C(C)(C)C

> <Shape>
0.248

> <Color>
0.068

> <Negative vol penalty>
0.000

$$$$

  -OEChem-04042322433D

 86 94  0     1  0  0  0  0  0999 V2000
  -27.6910  -18.8786   22.3766 C   0  0  0  0  0  0  0  0  0  0  0  0
  -19.1971  -16.6865   21.2101 C   0  0  0  0  0  0  0  0  0  0  0  0
  -20.5784  -16.8142   21.1047 C   0  0  0  0  0  0  0  0  0  0  0  0
  -22.8080  -30.9313   20.7735 C   0  0  0  0  0  0  0  0  0  0  0  0
  -22.6533  -29.0806   22.3188 C   0  0  0  0  0  0  0  0  0  0  0  0
  -28.2607  -21.8596   22.8100 C   0  0  0  0  0  0  0  0  0  0  0  0
  -18.6490  -15.6175   21.9179 C   0  0  0  0  0  0  0  0  0  0  0  0
  -21.4125  -15.8735   21.7079 C   0  0  0  0  0  0  0  0  0  0  0  0
  -25.1942  -14.4037   18.6775 C   0  0  0  0  0  0  0  0  0  0  0  0
  -28.2970  -23.2274   22.5394 C   0  0  0  0  0  0  0  0  0  0  0  0
  -21.4233  -30.9085   20.6075 C   0  0  0  0  0  0  0  0  0  0  0  0
  -21.2685  -29.0579   22.1528 C   0  0  0  0  0  0  0  0  0  0  0  0
  -26.2784  -15.2703   18.5462 C   0  0  0  0  0  0  0  0  0  0  0  0
  -18.5982  -30.7993   23.2741 C   0  0  0  0  0  0  0  0  0  0  0  0
  -17.8115  -30.6818   24.4199 C   0  0  0  0  0  0  0  0  0  0  0  0
  -27.5238  -13.9422   20.1287 C   0  0  0  0  0  0  0  0  0  0  0  0
  -29.5020  -22.7903   20.4915 C   0  0  0  0  0  0  0  0  0  0  0  0
  -16.8686  -28.6294   23.5622 C   0  0  0  0  0  0  0  0  0  0  0  0
  -23.4230  -30.0173   21.6291 C   0  0  0  0  0  0  0  0  0  0  0  0
  -28.8451  -20.9570   21.9214 C   0  0  0  0  0  0  0  0  0  0  0  0
  -25.5839  -30.7745   22.7538 C   0  0  0  0  0  0  0  0  0  0  0  0
  -19.4767  -14.6580   22.5219 C   0  0  0  0  0  0  0  0  0  0  0  0
  -25.2628  -13.3042   19.5451 C   0  0  0  0  0  0  0  0  0  0  0  0
  -20.8750  -14.7915   22.4255 C   0  0  0  0  0  0  0  0  0  0  0  0
  -26.4400  -13.0617   20.2673 C   0  0  0  0  0  0  0  0  0  0  0  0
  -29.4657  -21.4224   20.7621 C   0  0  0  0  0  0  0  0  0  0  0  0
  -28.9176  -23.6928   21.3802 C   0  0  0  0  0  0  0  0  0  0  0  0
  -20.6535  -29.9718   21.2972 C   0  0  0  0  0  0  0  0  0  0  0  0
  -27.4424  -15.0412   19.2740 C   0  0  0  0  0  0  0  0  0  0  0  0
  -18.5200  -29.8319   22.2723 C   0  0  0  0  0  0  0  0  0  0  0  0
  -16.9467  -29.5969   24.5640 C   0  0  0  0  0  0  0  0  0  0  0  0
  -17.6552  -28.7469   22.4163 C   0  0  0  0  0  0  0  0  0  0  0  0
  -24.8535  -30.0399   21.8005 C   0  0  0  0  0  0  0  0  0  0  0  0
  -26.8957  -30.4541   22.5027 C   0  0  0  0  0  0  0  0  0  0  0  0
  -26.6014  -18.1886   22.5300 C   0  0  0  0  0  0  0  0  0  0  0  0
  -28.7903  -19.5347   22.2317 C   0  0  0  0  0  0  0  0  0  0  0  0
  -25.1182  -31.6668   23.7750 C   0  0  0  0  0  0  0  0  0  0  0  0
  -23.6702  -12.3918   22.1402 C   0  0  0  0  0  0  0  0  0  0  0  0
  -25.4606   -9.7060   21.8192 C   0  0  0  0  0  0  0  0  0  0  0  0
  -29.2778  -18.1429   19.4393 C   0  0  0  0  0  0  0  0  0  0  0  0
  -28.2991   -8.2429   20.6153 C   0  0  0  0  0  0  0  0  0  0  0  0
  -29.5325  -25.7104   20.0027 C   0  0  0  0  0  0  0  0  0  0  0  0
  -18.8389  -13.5460   23.3165 C   0  0  0  0  0  0  0  0  0  0  0  0
  -24.0942  -12.3636   19.6552 C   0  0  0  0  0  0  0  0  0  0  0  0
  -26.5717  -11.8840   21.1968 C   0  0  0  0  0  0  0  0  0  0  0  0
  -19.7864  -12.3855   23.6093 C   0  0  0  0  0  0  0  0  0  0  0  0
  -29.8055  -29.1002   18.9482 C   0  0  0  0  0  0  0  0  0  0  0  0
  -21.1308  -12.9067   24.1071 C   0  0  0  0  0  0  0  0  0  0  0  0
  -28.6367  -29.7939   19.6516 C   0  0  0  0  0  0  0  0  0  0  0  0
  -29.4390  -27.6868   18.4992 C   0  0  0  0  0  0  0  0  0  0  0  0
  -27.7199  -27.5177   20.2558 C   0  0  0  0  0  0  0  0  0  0  0  0
  -21.8124  -13.7778   23.0450 C   0  0  1  0  0  0  0  0  0  0  0  0
  -24.0889  -11.5669   20.9562 C   0  0  1  0  0  0  0  0  0  0  0  0
  -28.0618  -28.9205   20.7839 C   0  0  2  0  0  0  0  0  0  0  0  0
  -29.5028   -6.0422   20.5436 C   0  0  0  0  0  0  0  0  0  0  0  0
  -26.3320  -10.0909   24.7179 C   0  0  0  0  0  0  0  0  0  0  0  0
  -28.2033   -8.4820   24.2959 C   0  0  0  0  0  0  0  0  0  0  0  0
  -25.8365   -7.7232   24.0831 C   0  0  0  0  0  0  0  0  0  0  0  0
  -28.0418  -20.0989   18.4913 C   0  0  0  0  0  0  0  0  0  0  0  0
  -28.1707   -8.1372   17.6604 C   0  0  0  0  0  0  0  0  0  0  0  0
  -30.1044  -20.4804   19.7830 C   0  0  0  0  0  0  0  0  0  0  0  0
  -28.2130  -17.2488   18.8396 C   0  0  0  0  0  0  0  0  0  1  0  0
  -26.8103   -9.2543   22.3226 C   0  0  1  0  0  0  0  0  0  0  0  0
  -28.5176   -6.9590   19.8354 C   0  0  2  0  0  0  0  0  0  0  0  0
  -26.7926   -8.9110   23.8389 C   0  0  0  0  0  0  0  0  0  0  0  0
  -25.6363  -29.3081   21.0033 N   0  0  0  0  0  0  0  0  0  0  0  0
  -26.8722  -29.5813   21.4549 N   0  0  0  0  0  0  0  0  0  0  0  0
  -25.3994  -10.9967   21.2750 N   0  0  0  0  0  0  0  0  0  0  0  0
  -28.9055  -26.9167   19.6249 N   0  0  0  0  0  0  0  0  0  0  0  0
  -28.0554  -30.8366   23.0781 N   0  0  0  0  0  0  0  0  0  0  0  0
  -23.7387  -31.8832   23.8948 N   0  0  0  0  0  0  0  0  0  0  0  0
  -28.9569  -25.0826   21.1068 N   0  0  0  0  0  0  0  0  0  0  0  0
  -22.4116  -12.9496   22.0206 N   0  0  0  0  0  0  0  0  0  0  0  0
  -27.2166   -8.1470   21.4639 N   0  0  0  0  0  0  0  0  0  0  0  0
  -29.1460  -19.5182   19.2453 N   0  0  0  0  0  0  0  0  0  0  0  0
  -29.0508   -7.2624   18.4772 N   0  3  0  0  0  0  0  0  0  0  0  0
  -25.9033  -32.2673   24.5473 O   0  0  0  0  0  0  0  0  0  0  0  0
  -24.4320  -12.5120   23.0926 O   0  0  0  0  0  0  0  0  0  0  0  0
  -24.4978   -8.9391   21.8991 O   0  0  0  0  0  0  0  0  0  0  0  0
  -30.2014  -17.6226   20.0727 O   0  0  0  0  0  0  0  0  0  0  0  0
  -29.0191   -9.2307   20.4874 O   0  0  0  0  0  0  0  0  0  0  0  0
  -30.5248  -25.2811   19.4086 O   0  0  0  0  0  0  0  0  0  0  0  0
  -19.3022  -29.9495   21.1356 O   0  0  0  0  0  0  0  0  0  0  0  0
  -28.5020  -15.8859   19.1483 O   0  0  0  0  0  0  0  0  0  1  0  0
  -16.1925  -29.4834   25.6651 F   0  0  0  0  0  0  0  0  0  0  0  0
  -17.5767  -27.8138   21.4578 F   0  0  0  0  0  0  0  0  0  0  0  0
  1 35  2  0  0  0  0
  1 36  2  0  0  0  0
  2  3  1  0  0  0  0
  2  7  2  0  0  0  0
  3  8  2  0  0  0  0
  4 11  2  0  0  0  0
  4 19  1  0  0  0  0
  5 12  1  0  0  0  0
  5 19  2  0  0  0  0
  6 10  2  0  0  0  0
  6 20  1  0  0  0  0
  7 22  1  0  0  0  0
  8 24  1  0  0  0  0
  9 13  2  0  0  0  0
  9 23  1  0  0  0  0
 10 27  1  0  0  0  0
 11 28  1  0  0  0  0
 12 28  2  0  0  0  0
 13 29  1  0  0  0  0
 14 15  2  0  0  0  0
 14 30  1  0  0  0  0
 15 31  1  0  0  0  0
 16 25  1  0  0  0  0
 16 29  2  0  0  0  0
 17 26  1  0  0  0  0
 17 27  2  0  0  0  0
 18 31  2  0  0  0  0
 18 32  1  0  0  0  0
 19 33  1  0  0  0  0
 20 26  2  0  0  0  0
 20 36  1  0  0  0  0
 21 33  1  0  0  0  0
 21 34  2  0  0  0  0
 21 37  1  0  0  0  0
 22 24  2  0  0  0  0
 22 43  1  0  0  0  0
 23 25  2  0  0  0  0
 23 44  1  0  0  0  0
 24 52  1  0  0  0  0
 25 45  1  0  0  0  0
 26 61  1  0  0  0  0
 27 72  1  0  0  0  0
 28 83  1  0  0  0  0
 29 84  1  0  0  0  0
 30 32  2  0  0  0  0
 30 83  1  0  0  0  0
 31 85  1  0  0  0  0
 32 86  1  0  0  0  0
 33 66  2  0  0  0  0
 34 67  1  0  0  0  0
 34 70  1  0  0  0  0
 37 71  1  0  0  0  0
 37 77  2  0  0  0  0
 38 53  1  0  0  0  0
 38 73  1  0  0  0  0
 38 78  2  0  0  0  0
 39 63  1  0  0  0  0
 39 68  1  0  0  0  0
 39 79  2  0  0  0  0
 40 62  1  0  0  0  0
 40 75  1  0  0  0  0
 40 80  2  0  0  0  0
 41 64  1  0  0  0  0
 41 74  1  0  0  0  0
 41 81  2  0  0  0  0
 42 69  1  0  0  0  0
 42 72  1  0  0  0  0
 42 82  2  0  0  0  0
 43 46  1  0  0  0  0
 44 53  1  0  0  0  0
 45 68  1  0  0  0  0
 46 48  1  0  0  0  0
 47 49  1  0  0  0  0
 47 50  1  0  0  0  0
 48 52  1  0  0  0  0
 49 54  1  0  0  0  0
 50 69  1  0  0  0  0
 51 54  1  0  0  0  0
 51 69  1  0  0  0  0
 52 73  1  0  0  0  0
 53 68  1  0  0  0  0
 54 67  1  0  0  0  0
 55 64  1  0  0  0  0
 56 65  1  0  0  0  0
 57 65  1  0  0  0  0
 58 65  1  0  0  0  0
 59 75  1  0  0  0  0
 60 76  1  0  0  0  0
 61 75  1  0  0  0  0
 62 84  1  0  0  0  0
 63 65  1  0  0  0  0
 63 74  1  0  0  0  0
 64 76  1  0  0  0  0
 66 67  1  0  0  0  0
M  CHG  1  76   1
M  ISO  4  42 100  62 101  72 100  84 101
M  END
> <Batch ID>
0053

> <Smiles>
C=C=Cc1ccc([100NH:0][100C:0](=O)N2CCCC(n3nc(-c4ccc(Oc5ccc(F)cc5F)cc4)c(C(N)=O)c3N)C2)cc1CN(C)C(=O)[101CH2:1][101O:1]c1ccc2c(c1)CN(C(=O)C(NC(=O)C(C)NC)C(C)(C)C)C(C(=O)NC1CCCc3ccccc31)C2

> <Shape>
0.280

> <Color>
0.089

> <Negative vol penalty>
0.000

$$$$

  -OEChem-04042322433D

 86 94  0     1  0  0  0  0  0999 V2000
  -20.6750   -7.7200   18.8746 C   0  0  0  0  0  0  0  0  0  0  0  0
  -20.2313   -9.0385   18.8872 C   0  0  0  0  0  0  0  0  0  0  0  0
  -28.4278  -26.2649   19.1288 C   0  0  0  0  0  0  0  0  0  0  0  0
  -26.4092  -25.1749   19.8865 C   0  0  0  0  0  0  0  0  0  0  0  0
  -21.8026   -7.3581   19.6105 C   0  0  0  0  0  0  0  0  0  0  0  0
  -20.9143   -9.9956   19.6367 C   0  0  0  0  0  0  0  0  0  0  0  0
  -22.6187  -16.9533   19.5847 C   0  0  0  0  0  0  0  0  0  0  0  0
  -20.5072  -28.8027   25.4471 C   0  0  0  0  0  0  0  0  0  0  0  0
  -29.0140  -25.0202   18.8998 C   0  0  0  0  0  0  0  0  0  0  0  0
  -26.9954  -23.9301   19.6575 C   0  0  0  0  0  0  0  0  0  0  0  0
  -22.5495  -18.0852   20.3957 C   0  0  0  0  0  0  0  0  0  0  0  0
  -29.2094  -21.8965   21.2046 C   0  0  0  0  0  0  0  0  0  0  0  0
  -29.0627  -20.9200   22.1897 C   0  0  0  0  0  0  0  0  0  0  0  0
  -19.6188  -27.7671   25.1575 C   0  0  0  0  0  0  0  0  0  0  0  0
  -24.5314  -17.3611   21.5650 C   0  0  0  0  0  0  0  0  0  0  0  0
  -22.0865  -27.2011   26.3292 C   0  0  0  0  0  0  0  0  0  0  0  0
  -27.9419  -19.4858   20.6009 C   0  0  0  0  0  0  0  0  0  0  0  0
  -27.1253  -26.3423   19.6222 C   0  0  0  0  0  0  0  0  0  0  0  0
  -25.7647  -28.3928   18.9501 C   0  0  0  0  0  0  0  0  0  0  0  0
  -22.5054   -8.3133   20.3616 C   0  0  0  0  0  0  0  0  0  0  0  0
  -23.6401  -16.0096   19.7652 C   0  0  0  0  0  0  0  0  0  0  0  0
  -22.0515   -9.6459   20.3844 C   0  0  0  0  0  0  0  0  0  0  0  0
  -24.6128  -16.2193   20.7532 C   0  0  0  0  0  0  0  0  0  0  0  0
  -21.7411  -28.5197   26.0329 C   0  0  0  0  0  0  0  0  0  0  0  0
  -21.1981  -26.1656   26.0395 C   0  0  0  0  0  0  0  0  0  0  0  0
  -28.2978  -23.8527   19.1641 C   0  0  0  0  0  0  0  0  0  0  0  0
  -23.5043  -18.2878   21.3879 C   0  0  0  0  0  0  0  0  0  0  0  0
  -28.7223  -21.6677   19.9176 C   0  0  0  0  0  0  0  0  0  0  0  0
  -28.4289  -19.7146   21.8879 C   0  0  0  0  0  0  0  0  0  0  0  0
  -28.0886  -20.4623   19.6158 C   0  0  0  0  0  0  0  0  0  0  0  0
  -19.9642  -26.4486   25.4537 C   0  0  0  0  0  0  0  0  0  0  0  0
  -26.5194  -27.6278   19.8595 C   0  0  0  0  0  0  0  0  0  0  0  0
  -25.4190  -29.5204   19.6539 C   0  0  0  0  0  0  0  0  0  0  0  0
  -21.8961  -21.9328   23.9070 C   0  0  0  0  0  0  0  0  0  0  0  0
  -22.1664  -20.6286   23.7600 C   0  0  0  0  0  0  0  0  0  0  0  0
  -25.4080  -28.1094   17.5906 C   0  0  0  0  0  0  0  0  0  0  0  0
  -21.9436  -22.5636   25.2549 C   0  0  0  0  0  0  0  0  0  0  0  0
  -23.7366  -12.9302   20.5473 C   0  0  0  0  0  0  0  0  0  0  0  0
  -26.9006  -13.2703   19.9181 C   0  0  0  0  0  0  0  0  0  0  0  0
  -29.6008  -15.3437   19.6808 C   0  0  0  0  0  0  0  0  0  0  0  0
  -24.7925  -30.6446   25.5015 C   0  0  0  0  0  0  0  0  0  0  0  0
  -23.6911   -7.8650   21.1788 C   0  0  0  0  0  0  0  0  0  0  0  0
  -23.7161  -14.8074   18.8645 C   0  0  0  0  0  0  0  0  0  0  0  0
  -25.7412  -15.2466   20.9743 C   0  0  0  0  0  0  0  0  0  0  0  0
  -24.5777   -9.0158   21.6479 C   0  0  0  0  0  0  0  0  0  0  0  0
  -26.9451  -32.3251   23.2170 C   0  0  0  0  0  0  0  0  0  0  0  0
  -23.7278  -10.1433   22.2252 C   0  0  0  0  0  0  0  0  0  0  0  0
  -27.0120  -31.3808   22.0154 C   0  0  0  0  0  0  0  0  0  0  0  0
  -26.8831  -31.5571   24.5355 C   0  0  0  0  0  0  0  0  0  0  0  0
  -25.8736  -29.6079   23.4152 C   0  0  0  0  0  0  0  0  0  0  0  0
  -22.7802  -10.7180   21.1653 C   0  0  1  0  0  0  0  0  0  0  0  0
  -24.5031  -13.6520   19.4753 C   0  0  1  0  0  0  0  0  0  0  0  0
  -25.8811  -30.3356   22.0600 C   0  0  2  0  0  0  0  0  0  0  0  0
  -32.0607  -15.3257   19.1848 C   0  0  0  0  0  0  0  0  0  0  0  0
  -27.4480  -12.1126   22.6876 C   0  0  0  0  0  0  0  0  0  0  0  0
  -29.7870  -12.9887   22.5150 C   0  0  0  0  0  0  0  0  0  0  0  0
  -28.9736  -11.2808   20.8890 C   0  0  0  0  0  0  0  0  0  0  0  0
  -29.2616  -17.1331   17.3480 C   0  0  0  0  0  0  0  0  0  0  0  0
  -22.6908  -29.6274   26.3427 C   0  0  0  0  0  0  0  0  0  0  0  0
  -21.6079  -24.7602   26.3731 C   0  0  0  0  0  0  0  0  0  0  0  0
  -22.1428  -19.9306   22.4384 C   0  0  0  0  0  0  0  0  0  1  0  0
  -28.1163  -13.6537   20.7268 C   0  0  1  0  0  0  0  0  0  0  0  0
  -30.6639  -15.4943   18.6076 C   0  0  2  0  0  0  0  0  0  0  0  0
  -28.5589  -12.5265   21.7020 C   0  0  0  0  0  0  0  0  0  0  0  0
  -26.6462  -28.2196   21.0502 N   0  0  0  0  0  0  0  0  0  0  0  0
  -25.9666  -29.3684   20.8938 N   0  0  0  0  0  0  0  0  0  0  0  0
  -25.7687  -14.0833   20.0723 N   0  0  0  0  0  0  0  0  0  0  0  0
  -25.7887  -30.5835   24.5132 N   0  0  0  0  0  0  0  0  0  0  0  0
  -24.7031  -30.6173   19.3270 N   0  0  0  0  0  0  0  0  0  0  0  0
  -25.8457  -26.9054   17.0221 N   0  0  0  0  0  0  0  0  0  0  0  0
  -21.6356  -23.9124   25.2022 N   0  0  0  0  0  0  0  0  0  0  0  0
  -23.4987  -11.5979   20.2687 N   0  0  0  0  0  0  0  0  0  0  0  0
  -29.1395  -14.0470   19.7642 N   0  0  0  0  0  0  0  0  0  0  0  0
  -23.7885  -29.6891   25.4035 N   0  0  0  0  0  0  0  0  0  0  0  0
  -30.5756  -16.8416   17.9766 N   0  3  0  0  0  0  0  0  0  0  0  0
  -24.7354  -28.9079   16.8952 O   0  0  0  0  0  0  0  0  0  0  0  0
  -22.2241  -21.9322   26.2684 O   0  0  0  0  0  0  0  0  0  0  0  0
  -23.3882  -13.5368   21.5535 O   0  0  0  0  0  0  0  0  0  0  0  0
  -26.9555  -12.2899   19.1715 O   0  0  0  0  0  0  0  0  0  0  0  0
  -29.2206  -16.2817   20.3780 O   0  0  0  0  0  0  0  0  0  0  0  0
  -24.7945  -31.4916   26.4013 O   0  0  0  0  0  0  0  0  0  0  0  0
  -28.8695  -22.6379   18.9405 O   0  0  0  0  0  0  0  0  0  0  0  0
  -23.4388  -19.3914   22.1814 O   0  0  0  0  0  0  0  0  0  1  0  0
  -28.2894  -18.7763   22.8335 F   0  0  0  0  0  0  0  0  0  0  0  0
  -27.6197  -20.2364   18.3810 F   0  0  0  0  0  0  0  0  0  0  0  0
  -18.8400  -25.1930   25.0811 Cl  0  0  0  0  0  0  0  0  0  0  0  0
  1  2  1  0  0  0  0
  1  5  2  0  0  0  0
  2  6  2  0  0  0  0
  3  9  2  0  0  0  0
  3 18  1  0  0  0  0
  4 10  1  0  0  0  0
  4 18  2  0  0  0  0
  5 20  1  0  0  0  0
  6 22  1  0  0  0  0
  7 11  2  0  0  0  0
  7 21  1  0  0  0  0
  8 14  2  0  0  0  0
  8 24  1  0  0  0  0
  9 26  1  0  0  0  0
 10 26  2  0  0  0  0
 11 27  1  0  0  0  0
 12 13  2  0  0  0  0
 12 28  1  0  0  0  0
 13 29  1  0  0  0  0
 14 31  1  0  0  0  0
 15 23  1  0  0  0  0
 15 27  2  0  0  0  0
 16 24  2  0  0  0  0
 16 25  1  0  0  0  0
 17 29  2  0  0  0  0
 17 30  1  0  0  0  0
 18 32  1  0  0  0  0
 19 32  1  0  0  0  0
 19 33  2  0  0  0  0
 19 36  1  0  0  0  0
 20 22  2  0  0  0  0
 20 42  1  0  0  0  0
 21 23  2  0  0  0  0
 21 43  1  0  0  0  0
 22 51  1  0  0  0  0
 23 44  1  0  0  0  0
 24 59  1  0  0  0  0
 25 31  2  0  0  0  0
 25 60  1  0  0  0  0
 26 82  1  0  0  0  0
 27 83  1  0  0  0  0
 28 30  2  0  0  0  0
 28 82  1  0  0  0  0
 29 84  1  0  0  0  0
 30 85  1  0  0  0  0
 31 86  1  0  0  0  0
 32 65  2  0  0  0  0
 33 66  1  0  0  0  0
 33 69  1  0  0  0  0
 34 35  2  0  0  0  0
 34 37  1  0  0  0  0
 35 61  1  0  0  0  0
 36 70  1  0  0  0  0
 36 76  2  0  0  0  0
 37 71  1  0  0  0  0
 37 77  2  0  0  0  0
 38 52  1  0  0  0  0
 38 72  1  0  0  0  0
 38 78  2  0  0  0  0
 39 62  1  0  0  0  0
 39 67  1  0  0  0  0
 39 79  2  0  0  0  0
 40 63  1  0  0  0  0
 40 73  1  0  0  0  0
 40 80  2  0  0  0  0
 41 68  1  0  0  0  0
 41 74  1  0  0  0  0
 41 81  2  0  0  0  0
 42 45  1  0  0  0  0
 43 52  1  0  0  0  0
 44 67  1  0  0  0  0
 45 47  1  0  0  0  0
 46 48  1  0  0  0  0
 46 49  1  0  0  0  0
 47 51  1  0  0  0  0
 48 53  1  0  0  0  0
 49 68  1  0  0  0  0
 50 53  1  0  0  0  0
 50 68  1  0  0  0  0
 51 72  1  0  0  0  0
 52 67  1  0  0  0  0
 53 66  1  0  0  0  0
 54 63  1  0  0  0  0
 55 64  1  0  0  0  0
 56 64  1  0  0  0  0
 57 64  1  0  0  0  0
 58 75  1  0  0  0  0
 59 74  1  0  0  0  0
 60 71  1  0  0  0  0
 61 83  1  0  0  0  0
 62 64  1  0  0  0  0
 62 73  1  0  0  0  0
 63 75  1  0  0  0  0
 65 66  1  0  0  0  0
M  CHG  1  75   1
M  ISO  4  41 100  61 101  74 100  83 101
M  END
> <Batch ID>
0053

> <Smiles>
CNC(C)C(=O)NC(C(=O)N1Cc2cc([101O:1][101CH2:1]C=CC(=O)NCc3cc(C[100NH:0][100C:0](=O)N4CCCC(n5nc(-c6ccc(Oc7ccc(F)cc7F)cc6)c(C(N)=O)c5N)C4)ccc3Cl)ccc2CC1C(=O)NC1CCCc2ccccc21)C(C)(C)C

> <Shape>
0.264

> <Color>
0.054

> <Negative vol penalty>
0.000

$$$$

  -OEChem-04042322433D

 84 92  0     1  0  0  0  0  0999 V2000
  -21.2084  -13.1475   20.0401 C   0  0  0  0  0  0  0  0  0  0  0  0
  -21.4622  -14.4513   20.4536 C   0  0  0  0  0  0  0  0  0  0  0  0
  -17.0911  -29.2805   23.3598 C   0  0  0  0  0  0  0  0  0  0  0  0
  -17.6218  -30.2921   22.5595 C   0  0  0  0  0  0  0  0  0  0  0  0
  -28.3351  -24.3684   21.9635 C   0  0  0  0  0  0  0  0  0  0  0  0
  -26.3688  -24.2879   23.3650 C   0  0  0  0  0  0  0  0  0  0  0  0
  -22.2363  -12.2055   20.0381 C   0  0  0  0  0  0  0  0  0  0  0  0
  -22.7438  -14.8136   20.8666 C   0  0  0  0  0  0  0  0  0  0  0  0
  -24.2298  -19.2481   18.9243 C   0  0  0  0  0  0  0  0  0  0  0  0
  -17.9272  -28.2938   23.8826 C   0  0  0  0  0  0  0  0  0  0  0  0
  -18.9885  -30.3171   22.2818 C   0  0  0  0  0  0  0  0  0  0  0  0
  -29.0115  -23.5471   22.8654 C   0  0  0  0  0  0  0  0  0  0  0  0
  -27.0452  -23.4665   24.2668 C   0  0  0  0  0  0  0  0  0  0  0  0
  -23.7207  -20.4042   19.5143 C   0  0  0  0  0  0  0  0  0  0  0  0
  -27.8976  -20.2051   24.5070 C   0  0  0  0  0  0  0  0  0  0  0  0
  -27.2205  -19.0890   24.9983 C   0  0  0  0  0  0  0  0  0  0  0  0
  -25.7777  -20.6747   20.7450 C   0  0  0  0  0  0  0  0  0  0  0  0
  -27.4579  -19.9355   27.2487 C   0  0  0  0  0  0  0  0  0  0  0  0
  -27.0137  -24.7389   22.2133 C   0  0  0  0  0  0  0  0  0  0  0  0
  -26.0476  -25.3231   19.9258 C   0  0  0  0  0  0  0  0  0  0  0  0
  -23.5334  -12.5589   20.4421 C   0  0  0  0  0  0  0  0  0  0  0  0
  -25.5147  -18.7898   19.2491 C   0  0  0  0  0  0  0  0  0  0  0  0
  -23.7897  -13.8751   20.8714 C   0  0  0  0  0  0  0  0  0  0  0  0
  -26.3018  -19.5139   20.1559 C   0  0  0  0  0  0  0  0  0  0  0  0
  -19.2939  -28.3188   23.6049 C   0  0  0  0  0  0  0  0  0  0  0  0
  -19.8246  -29.3304   22.8046 C   0  0  0  0  0  0  0  0  0  0  0  0
  -28.3666  -23.0961   24.0170 C   0  0  0  0  0  0  0  0  0  0  0  0
  -24.4936  -21.1161   20.4270 C   0  0  0  0  0  0  0  0  0  0  0  0
  -28.3549  -21.1865   25.3865 C   0  0  0  0  0  0  0  0  0  0  0  0
  -27.0006  -18.9542   26.3691 C   0  0  0  0  0  0  0  0  0  0  0  0
  -28.1350  -21.0517   26.7573 C   0  0  0  0  0  0  0  0  0  0  0  0
  -26.3146  -25.5878   21.2824 C   0  0  0  0  0  0  0  0  0  0  0  0
  -25.3639  -26.4309   19.4878 C   0  0  0  0  0  0  0  0  0  0  0  0
  -21.5679  -24.3185   22.2719 C   0  0  0  0  0  0  0  0  0  0  0  0
  -22.2979  -23.1983   22.3608 C   0  0  0  0  0  0  0  0  0  0  0  0
  -26.3872  -24.1781   19.1324 C   0  0  0  0  0  0  0  0  0  0  0  0
  -21.3256  -25.1563   23.4787 C   0  0  0  0  0  0  0  0  0  0  0  0
  -26.6851  -16.1525   20.5827 C   0  0  0  0  0  0  0  0  0  0  0  0
  -29.5356  -17.4995   19.8195 C   0  0  0  0  0  0  0  0  0  0  0  0
  -31.3100  -20.3329   19.1338 C   0  0  0  0  0  0  0  0  0  0  0  0
  -21.9866  -30.5048   22.2631 C   0  0  0  0  0  0  0  0  0  0  0  0
  -24.6012  -11.4940   20.4679 C   0  0  0  0  0  0  0  0  0  0  0  0
  -26.0595  -17.5557   18.5838 C   0  0  0  0  0  0  0  0  0  0  0  0
  -27.6951  -19.0753   20.5230 C   0  0  0  0  0  0  0  0  0  0  0  0
  -26.0179  -12.0542   20.5644 C   0  0  0  0  0  0  0  0  0  0  0  0
  -24.9088  -31.1240   20.3256 C   0  0  0  0  0  0  0  0  0  0  0  0
  -26.0931  -13.1335   21.6397 C   0  0  0  0  0  0  0  0  0  0  0  0
  -25.5735  -29.7494   20.2225 C   0  0  0  0  0  0  0  0  0  0  0  0
  -24.2566  -31.3377   21.6904 C   0  0  0  0  0  0  0  0  0  0  0  0
  -23.9864  -28.9087   22.0005 C   0  0  0  0  0  0  0  0  0  0  0  0
  -25.1726  -14.3128   21.3029 C   0  0  1  0  0  0  0  0  0  0  0  0
  -27.1840  -16.8966   19.3764 C   0  0  1  0  0  0  0  0  0  0  0  0
  -24.6010  -28.6219   20.6208 C   0  0  2  0  0  0  0  0  0  0  0  0
  -33.6287  -21.1209   18.5859 C   0  0  0  0  0  0  0  0  0  0  0  0
  -30.3445  -17.1422   22.7397 C   0  0  0  0  0  0  0  0  0  0  0  0
  -32.2130  -18.7618   22.3478 C   0  0  0  0  0  0  0  0  0  0  0  0
  -32.1440  -16.6109   21.0862 C   0  0  0  0  0  0  0  0  0  0  0  0
  -30.4474  -21.4223   16.5208 C   0  0  0  0  0  0  0  0  0  0  0  0
  -20.1696  -27.2440   24.1811 C   0  0  0  0  0  0  0  0  0  0  0  0
  -22.5858  -22.3126   21.1916 C   0  0  0  0  0  0  0  0  0  1  0  0
  -30.4939  -18.4383   20.5118 C   0  0  1  0  0  0  0  0  0  0  0  0
  -32.2918  -20.6627   18.0240 C   0  0  2  0  0  0  0  0  0  0  0  0
  -31.2719  -17.7458   21.6661 C   0  0  0  0  0  0  0  0  0  0  0  0
  -25.8394  -26.7711   21.6801 N   0  0  0  0  0  0  0  0  0  0  0  0
  -25.2670  -27.2597   20.5667 N   0  0  0  0  0  0  0  0  0  0  0  0
  -28.1807  -17.8590   19.8505 N   0  0  0  0  0  0  0  0  0  0  0  0
  -23.3456  -30.2332   21.9985 N   0  0  0  0  0  0  0  0  0  0  0  0
  -24.8423  -26.7672   18.2890 N   0  0  0  0  0  0  0  0  0  0  0  0
  -27.6109  -24.1780   18.4490 N   0  0  0  0  0  0  0  0  0  0  0  0
  -21.2101  -29.3732   22.5108 N   0  0  0  0  0  0  0  0  0  0  0  0
  -20.5529  -26.2673   23.1863 N   0  0  0  0  0  0  0  0  0  0  0  0
  -25.7769  -15.1527   20.2910 N   0  0  0  0  0  0  0  0  0  0  0  0
  -31.3461  -18.9954   19.4668 N   0  0  0  0  0  0  0  0  0  0  0  0
  -31.7494  -21.7475   17.1579 N   0  3  0  0  0  0  0  0  0  0  0  0
  -25.6208  -23.1916   19.0193 O   0  0  0  0  0  0  0  0  0  0  0  0
  -21.7714  -24.8647   24.5836 O   0  0  0  0  0  0  0  0  0  0  0  0
  -27.0949  -16.4615   21.6954 O   0  0  0  0  0  0  0  0  0  0  0  0
  -29.9738  -16.4884   19.2652 O   0  0  0  0  0  0  0  0  0  0  0  0
  -30.5863  -21.1781   19.6558 O   0  0  0  0  0  0  0  0  0  0  0  0
  -21.5385  -31.6540   22.2427 O   0  0  0  0  0  0  0  0  0  0  0  0
  -29.0263  -22.2943   24.8972 O   0  0  0  0  0  0  0  0  0  0  0  0
  -23.9988  -22.2445   21.0047 O   0  0  0  0  0  0  0  0  0  1  0  0
  -26.3490  -17.8831   26.8406 F   0  0  0  0  0  0  0  0  0  0  0  0
  -28.5710  -21.9917   27.6071 F   0  0  0  0  0  0  0  0  0  0  0  0
  1  2  1  0  0  0  0
  1  7  2  0  0  0  0
  2  8  2  0  0  0  0
  3  4  1  0  0  0  0
  3 10  2  0  0  0  0
  4 11  2  0  0  0  0
  5 12  2  0  0  0  0
  5 19  1  0  0  0  0
  6 13  1  0  0  0  0
  6 19  2  0  0  0  0
  7 21  1  0  0  0  0
  8 23  1  0  0  0  0
  9 14  2  0  0  0  0
  9 22  1  0  0  0  0
 10 25  1  0  0  0  0
 11 26  1  0  0  0  0
 12 27  1  0  0  0  0
 13 27  2  0  0  0  0
 14 28  1  0  0  0  0
 15 16  2  0  0  0  0
 15 29  1  0  0  0  0
 16 30  1  0  0  0  0
 17 24  1  0  0  0  0
 17 28  2  0  0  0  0
 18 30  2  0  0  0  0
 18 31  1  0  0  0  0
 19 32  1  0  0  0  0
 20 32  1  0  0  0  0
 20 33  2  0  0  0  0
 20 36  1  0  0  0  0
 21 23  2  0  0  0  0
 21 42  1  0  0  0  0
 22 24  2  0  0  0  0
 22 43  1  0  0  0  0
 23 51  1  0  0  0  0
 24 44  1  0  0  0  0
 25 26  2  0  0  0  0
 25 59  1  0  0  0  0
 26 70  1  0  0  0  0
 27 81  1  0  0  0  0
 28 82  1  0  0  0  0
 29 31  2  0  0  0  0
 29 81  1  0  0  0  0
 30 83  1  0  0  0  0
 31 84  1  0  0  0  0
 32 64  2  0  0  0  0
 33 65  1  0  0  0  0
 33 68  1  0  0  0  0
 34 35  2  0  0  0  0
 34 37  1  0  0  0  0
 35 60  1  0  0  0  0
 36 69  1  0  0  0  0
 36 75  2  0  0  0  0
 37 71  1  0  0  0  0
 37 76  2  0  0  0  0
 38 52  1  0  0  0  0
 38 72  1  0  0  0  0
 38 77  2  0  0  0  0
 39 61  1  0  0  0  0
 39 66  1  0  0  0  0
 39 78  2  0  0  0  0
 40 62  1  0  0  0  0
 40 73  1  0  0  0  0
 40 79  2  0  0  0  0
 41 67  1  0  0  0  0
 41 70  1  0  0  0  0
 41 80  2  0  0  0  0
 42 45  1  0  0  0  0
 43 52  1  0  0  0  0
 44 66  1  0  0  0  0
 45 47  1  0  0  0  0
 46 48  1  0  0  0  0
 46 49  1  0  0  0  0
 47 51  1  0  0  0  0
 48 53  1  0  0  0  0
 49 67  1  0  0  0  0
 50 53  1  0  0  0  0
 50 67  1  0  0  0  0
 51 72  1  0  0  0  0
 52 66  1  0  0  0  0
 53 65  1  0  0  0  0
 54 62  1  0  0  0  0
 55 63  1  0  0  0  0
 56 63  1  0  0  0  0
 57 63  1  0  0  0  0
 58 74  1  0  0  0  0
 59 71  1  0  0  0  0
 60 82  1  0  0  0  0
 61 63  1  0  0  0  0
 61 73  1  0  0  0  0
 62 74  1  0  0  0  0
 64 65  1  0  0  0  0
M  CHG  1  74   1
M  ISO  4  41 100  60 101  70 100  82 101
M  END
> <Batch ID>
0053

> <Smiles>
CNC(C)C(=O)NC(C(=O)N1Cc2cc([101O:1][101CH2:1]C=CC(=O)NCc3ccccc3[100NH:0][100C:0](=O)N3CCCC(n4nc(-c5ccc(Oc6ccc(F)cc6F)cc5)c(C(N)=O)c4N)C3)ccc2CC1C(=O)NC1CCCc2ccccc21)C(C)(C)C

> <Shape>
0.196

> <Color>
0.084

> <Negative vol penalty>
0.000

$$$$

  -OEChem-04042322433D

 84 92  0     1  0  0  0  0  0999 V2000
  -27.5698  -11.4415   17.9907 C   0  0  0  0  0  0  0  0  0  0  0  0
  -27.2436  -12.6762   17.4389 C   0  0  0  0  0  0  0  0  0  0  0  0
  -18.4713  -28.2309   23.8570 C   0  0  0  0  0  0  0  0  0  0  0  0
  -29.4421  -26.0744   20.7453 C   0  0  0  0  0  0  0  0  0  0  0  0
  -27.5667  -24.5731   20.4882 C   0  0  0  0  0  0  0  0  0  0  0  0
  -26.9922  -11.0433   19.1957 C   0  0  0  0  0  0  0  0  0  0  0  0
  -26.3389  -13.5131   18.0912 C   0  0  0  0  0  0  0  0  0  0  0  0
  -24.9473  -20.4536   19.1910 C   0  0  0  0  0  0  0  0  0  0  0  0
  -18.0526  -27.0108   23.3265 C   0  0  0  0  0  0  0  0  0  0  0  0
  -19.6153  -28.8531   23.3571 C   0  0  0  0  0  0  0  0  0  0  0  0
  -30.2056  -25.0311   21.2688 C   0  0  0  0  0  0  0  0  0  0  0  0
  -28.3302  -23.5297   21.0117 C   0  0  0  0  0  0  0  0  0  0  0  0
  -23.9044  -21.3728   19.0855 C   0  0  0  0  0  0  0  0  0  0  0  0
  -29.8993  -20.3856   21.9450 C   0  0  0  0  0  0  0  0  0  0  0  0
  -29.8492  -19.1537   21.2927 C   0  0  0  0  0  0  0  0  0  0  0  0
  -23.0297  -20.6141   21.2017 C   0  0  0  0  0  0  0  0  0  0  0  0
  -30.6902  -20.1868   19.2771 C   0  0  0  0  0  0  0  0  0  0  0  0
  -28.1226  -25.8454   20.3550 C   0  0  0  0  0  0  0  0  0  0  0  0
  -27.2184  -27.2975   18.4625 C   0  0  0  0  0  0  0  0  0  0  0  0
  -26.0873  -11.8799   19.8679 C   0  0  0  0  0  0  0  0  0  0  0  0
  -25.0332  -19.5987   20.2992 C   0  0  0  0  0  0  0  0  0  0  0  0
  -25.7477  -13.1252   19.3055 C   0  0  0  0  0  0  0  0  0  0  0  0
  -24.0760  -19.6867   21.3201 C   0  0  0  0  0  0  0  0  0  0  0  0
  -18.7780  -26.4126   22.2961 C   0  0  0  0  0  0  0  0  0  0  0  0
  -20.3407  -28.2550   22.3267 C   0  0  0  0  0  0  0  0  0  0  0  0
  -29.6497  -23.7587   21.4020 C   0  0  0  0  0  0  0  0  0  0  0  0
  -22.9438  -21.4513   20.0896 C   0  0  0  0  0  0  0  0  0  0  0  0
  -30.3447  -21.5182   21.2634 C   0  0  0  0  0  0  0  0  0  0  0  0
  -30.2447  -19.0543   19.9588 C   0  0  0  0  0  0  0  0  0  0  0  0
  -30.7402  -21.4188   19.9295 C   0  0  0  0  0  0  0  0  0  0  0  0
  -19.9221  -27.0347   21.7961 C   0  0  0  0  0  0  0  0  0  0  0  0
  -27.3332  -26.9229   19.8147 C   0  0  0  0  0  0  0  0  0  0  0  0
  -26.3584  -28.3684   18.4748 C   0  0  0  0  0  0  0  0  0  0  0  0
  -27.8341  -26.7284   17.2995 C   0  0  0  0  0  0  0  0  0  0  0  0
  -24.9547  -16.4481   20.7134 C   0  0  0  0  0  0  0  0  0  0  0  0
  -25.6597  -17.2257   23.7827 C   0  0  0  0  0  0  0  0  0  0  0  0
  -19.9255  -23.4283   20.7738 C   0  0  0  0  0  0  0  0  0  0  0  0
  -25.5768  -19.5579   26.2728 C   0  0  0  0  0  0  0  0  0  0  0  0
  -22.0512  -30.1022   22.2360 C   0  0  0  0  0  0  0  0  0  0  0  0
  -25.4526  -11.3861   21.1439 C   0  0  0  0  0  0  0  0  0  0  0  0
  -26.1793  -18.6310   20.4109 C   0  0  0  0  0  0  0  0  0  0  0  0
  -24.1345  -18.8054   22.5401 C   0  0  0  0  0  0  0  0  0  0  0  0
  -24.7891  -12.4913   21.9615 C   0  0  0  0  0  0  0  0  0  0  0  0
  -24.9162  -31.9814   21.2677 C   0  0  0  0  0  0  0  0  0  0  0  0
  -23.9337  -13.3794   21.0635 C   0  0  0  0  0  0  0  0  0  0  0  0
  -25.8482  -30.9325   20.6566 C   0  0  0  0  0  0  0  0  0  0  0  0
  -24.1423  -31.4256   22.4618 C   0  0  0  0  0  0  0  0  0  0  0  0
  -24.3434  -29.1298   21.5909 C   0  0  0  0  0  0  0  0  0  0  0  0
  -24.7894  -14.0715   19.9957 C   0  0  1  0  0  0  0  0  0  0  0  0
  -25.8803  -17.4549   21.3356 C   0  0  1  0  0  0  0  0  0  0  0  0
  -25.0962  -29.6238   20.3447 C   0  0  2  0  0  0  0  0  0  0  0  0
  -26.1936  -19.8895   28.6825 C   0  0  0  0  0  0  0  0  0  0  0  0
  -23.2460  -15.5611   24.6271 C   0  0  0  0  0  0  0  0  0  0  0  0
  -23.3446  -16.6803   26.8645 C   0  0  0  0  0  0  0  0  0  0  0  0
  -25.2616  -15.2889   26.0823 C   0  0  0  0  0  0  0  0  0  0  0  0
  -19.7008  -23.7326   23.2455 C   0  0  0  0  0  0  0  0  0  0  0  0
  -27.4370  -21.7634   25.6135 C   0  0  0  0  0  0  0  0  0  0  0  0
  -18.3243  -25.0994   21.7271 C   0  0  0  0  0  0  0  0  0  0  0  0
  -20.9753  -22.3737   21.0541 C   0  0  0  0  0  0  0  0  0  1  0  0
  -24.8517  -17.5449   25.0173 C   0  0  1  0  0  0  0  0  0  0  0  0
  -26.6450  -20.0393   27.2380 C   0  0  2  0  0  0  0  0  0  0  0  0
  -24.1735  -16.2842   25.6240 C   0  0  0  0  0  0  0  0  0  0  0  0
  -26.6045  -27.6933   20.6268 N   0  0  0  0  0  0  0  0  0  0  0  0
  -26.0237  -28.5627   19.7826 N   0  0  0  0  0  0  0  0  0  0  0  0
  -25.2707  -17.8711   22.6003 N   0  0  0  0  0  0  0  0  0  0  0  0
  -23.4520  -30.1884   22.0907 N   0  0  0  0  0  0  0  0  0  0  0  0
  -25.8635  -29.1533   17.4943 N   0  0  0  0  0  0  0  0  0  0  0  0
  -28.6904  -25.6314   17.4659 N   0  0  0  0  0  0  0  0  0  0  0  0
  -21.5020  -28.8897   21.8204 N   0  0  0  0  0  0  0  0  0  0  0  0
  -25.5069  -15.1896   20.5696 N   0  0  0  0  0  0  0  0  0  0  0  0
  -25.7567  -18.2344   25.9304 N   0  0  0  0  0  0  0  0  0  0  0  0
  -19.3410  -24.0607   21.8716 N   0  0  0  0  0  0  0  0  0  0  0  0
  -26.9583  -21.4750   26.9900 N   0  3  0  0  0  0  0  0  0  0  0  0
  -27.6437  -27.1895   16.1486 O   0  0  0  0  0  0  0  0  0  0  0  0
  -23.8227  -16.7875   20.3892 O   0  0  0  0  0  0  0  0  0  0  0  0
  -26.6057  -16.4385   23.8659 O   0  0  0  0  0  0  0  0  0  0  0  0
  -19.6412  -23.6849   19.5999 O   0  0  0  0  0  0  0  0  0  0  0  0
  -24.6710  -20.2824   25.8663 O   0  0  0  0  0  0  0  0  0  0  0  0
  -21.3846  -31.0452   22.6700 O   0  0  0  0  0  0  0  0  0  0  0  0
  -30.3945  -22.7403   21.9126 O   0  0  0  0  0  0  0  0  0  0  0  0
  -21.9245  -22.3472   19.9888 O   0  0  0  0  0  0  0  0  0  1  0  0
  -30.1981  -17.8709   19.3330 F   0  0  0  0  0  0  0  0  0  0  0  0
  -31.1701  -22.5031   19.2697 F   0  0  0  0  0  0  0  0  0  0  0  0
  -20.6183  -26.4594   20.8041 F   0  0  0  0  0  0  0  0  0  0  0  0
  1  2  1  0  0  0  0
  1  6  2  0  0  0  0
  2  7  2  0  0  0  0
  3  9  2  0  0  0  0
  3 10  1  0  0  0  0
  4 11  2  0  0  0  0
  4 18  1  0  0  0  0
  5 12  1  0  0  0  0
  5 18  2  0  0  0  0
  6 20  1  0  0  0  0
  7 22  1  0  0  0  0
  8 13  2  0  0  0  0
  8 21  1  0  0  0  0
  9 24  1  0  0  0  0
 10 25  2  0  0  0  0
 11 26  1  0  0  0  0
 12 26  2  0  0  0  0
 13 27  1  0  0  0  0
 14 15  2  0  0  0  0
 14 28  1  0  0  0  0
 15 29  1  0  0  0  0
 16 23  1  0  0  0  0
 16 27  2  0  0  0  0
 17 29  2  0  0  0  0
 17 30  1  0  0  0  0
 18 32  1  0  0  0  0
 19 32  1  0  0  0  0
 19 33  2  0  0  0  0
 19 34  1  0  0  0  0
 20 22  2  0  0  0  0
 20 40  1  0  0  0  0
 21 23  2  0  0  0  0
 21 41  1  0  0  0  0
 22 49  1  0  0  0  0
 23 42  1  0  0  0  0
 24 31  2  0  0  0  0
 24 58  1  0  0  0  0
 25 31  1  0  0  0  0
 25 69  1  0  0  0  0
 26 80  1  0  0  0  0
 27 81  1  0  0  0  0
 28 30  2  0  0  0  0
 28 80  1  0  0  0  0
 29 82  1  0  0  0  0
 30 83  1  0  0  0  0
 31 84  1  0  0  0  0
 32 63  2  0  0  0  0
 33 64  1  0  0  0  0
 33 67  1  0  0  0  0
 34 68  1  0  0  0  0
 34 74  2  0  0  0  0
 35 50  1  0  0  0  0
 35 70  1  0  0  0  0
 35 75  2  0  0  0  0
 36 60  1  0  0  0  0
 36 65  1  0  0  0  0
 36 76  2  0  0  0  0
 37 59  1  0  0  0  0
 37 72  1  0  0  0  0
 37 77  2  0  0  0  0
 38 61  1  0  0  0  0
 38 71  1  0  0  0  0
 38 78  2  0  0  0  0
 39 66  1  0  0  0  0
 39 69  1  0  0  0  0
 39 79  2  0  0  0  0
 40 43  1  0  0  0  0
 41 50  1  0  0  0  0
 42 65  1  0  0  0  0
 43 45  1  0  0  0  0
 44 46  1  0  0  0  0
 44 47  1  0  0  0  0
 45 49  1  0  0  0  0
 46 51  1  0  0  0  0
 47 66  1  0  0  0  0
 48 51  1  0  0  0  0
 48 66  1  0  0  0  0
 49 70  1  0  0  0  0
 50 65  1  0  0  0  0
 51 64  1  0  0  0  0
 52 61  1  0  0  0  0
 53 62  1  0  0  0  0
 54 62  1  0  0  0  0
 55 62  1  0  0  0  0
 56 72  1  0  0  0  0
 57 73  1  0  0  0  0
 58 72  1  0  0  0  0
 59 81  1  0  0  0  0
 60 62  1  0  0  0  0
 60 71  1  0  0  0  0
 61 73  1  0  0  0  0
 63 64  1  0  0  0  0
M  CHG  1  73   1
M  ISO  4  39 100  59 101  69 100  81 101
M  END
> <Batch ID>
0053

> <Smiles>
CNC(C)C(=O)NC(C(=O)N1Cc2cc([101O:1][101CH2:1]C(=O)N(C)Cc3cccc([100NH:0][100C:0](=O)N4CCCC(n5nc(-c6ccc(Oc7ccc(F)cc7F)cc6)c(C(N)=O)c5N)C4)c3F)ccc2CC1C(=O)NC1CCCc2ccccc21)C(C)(C)C

> <Shape>
0.214

> <Color>
0.089

> <Negative vol penalty>
0.000

$$$$

  -OEChem-04042322433D

 86 94  0     1  0  0  0  0  0999 V2000
  -26.7228  -19.4228   13.7243 C   0  0  0  0  0  0  0  0  0  0  0  0
  -27.3904  -18.8657   14.8102 C   0  0  0  0  0  0  0  0  0  0  0  0
  -24.3948  -30.2283   21.1935 C   0  0  0  0  0  0  0  0  0  0  0  0
  -25.4833  -29.6259   23.2646 C   0  0  0  0  0  0  0  0  0  0  0  0
  -25.3678  -19.7351   13.8259 C   0  0  0  0  0  0  0  0  0  0  0  0
  -26.7036  -18.6215   15.9989 C   0  0  0  0  0  0  0  0  0  0  0  0
  -27.7532  -14.0672   17.9488 C   0  0  0  0  0  0  0  0  0  0  0  0
  -32.4742  -21.4106   21.6670 C   0  0  0  0  0  0  0  0  0  0  0  0
  -31.3529  -22.1227   21.2415 C   0  0  0  0  0  0  0  0  0  0  0  0
  -23.6777  -31.2223   21.8594 C   0  0  0  0  0  0  0  0  0  0  0  0
  -24.7663  -30.6199   23.9305 C   0  0  0  0  0  0  0  0  0  0  0  0
  -28.9630  -13.9288   18.6278 C   0  0  0  0  0  0  0  0  0  0  0  0
  -23.4885  -33.2376   26.1061 C   0  0  0  0  0  0  0  0  0  0  0  0
  -24.1850  -34.0543   26.9969 C   0  0  0  0  0  0  0  0  0  0  0  0
  -27.8015  -14.1515   20.7303 C   0  0  0  0  0  0  0  0  0  0  0  0
  -29.9896  -20.1492   21.5312 C   0  0  0  0  0  0  0  0  0  0  0  0
  -25.6186  -34.7935   25.1982 C   0  0  0  0  0  0  0  0  0  0  0  0
  -25.2975  -29.4301   21.8961 C   0  0  0  0  0  0  0  0  0  0  0  0
  -27.2942  -28.5322   20.5865 C   0  0  0  0  0  0  0  0  0  0  0  0
  -24.6617  -19.4857   15.0133 C   0  0  0  0  0  0  0  0  0  0  0  0
  -26.5579  -14.2601   18.6563 C   0  0  0  0  0  0  0  0  0  0  0  0
  -25.3382  -18.9320   16.1170 C   0  0  0  0  0  0  0  0  0  0  0  0
  -26.5775  -14.2896   20.0580 C   0  0  0  0  0  0  0  0  0  0  0  0
  -32.3533  -20.0677   22.0246 C   0  0  0  0  0  0  0  0  0  0  0  0
  -31.1110  -19.4371   21.9567 C   0  0  0  0  0  0  0  0  0  0  0  0
  -30.1106  -21.4921   21.1737 C   0  0  0  0  0  0  0  0  0  0  0  0
  -23.8635  -31.4181   23.2279 C   0  0  0  0  0  0  0  0  0  0  0  0
  -28.9877  -13.9738   20.0186 C   0  0  0  0  0  0  0  0  0  0  0  0
  -23.8571  -33.1988   24.7613 C   0  0  0  0  0  0  0  0  0  0  0  0
  -25.2500  -34.8323   26.5430 C   0  0  0  0  0  0  0  0  0  0  0  0
  -24.9222  -33.9768   24.3074 C   0  0  0  0  0  0  0  0  0  0  0  0
  -26.0381  -28.4027   21.2088 C   0  0  0  0  0  0  0  0  0  0  0  0
  -27.5591  -27.2815   20.0845 C   0  0  0  0  0  0  0  0  0  0  0  0
  -28.1454  -29.6803   20.4726 C   0  0  0  0  0  0  0  0  0  0  0  0
  -24.3820  -16.5731   18.7955 C   0  0  0  0  0  0  0  0  0  0  0  0
  -22.8044  -14.4428   20.6651 C   0  0  0  0  0  0  0  0  0  0  0  0
  -31.4599  -17.0296   21.2786 C   0  0  0  0  0  0  0  0  0  0  0  0
  -22.9585  -11.7349   22.7364 C   0  0  0  0  0  0  0  0  0  0  0  0
  -27.6658  -21.7403   20.6192 C   0  0  0  0  0  0  0  0  0  0  0  0
  -23.2091  -19.8838   15.0913 C   0  0  0  0  0  0  0  0  0  0  0  0
  -25.2577  -14.3810   17.9099 C   0  0  0  0  0  0  0  0  0  0  0  0
  -25.3193  -14.4742   20.8650 C   0  0  0  0  0  0  0  0  0  0  0  0
  -22.4652  -19.2472   16.2625 C   0  0  0  0  0  0  0  0  0  0  0  0
  -24.5794  -23.2149   19.6307 C   0  0  0  0  0  0  0  0  0  0  0  0
  -23.2839  -19.3676   17.5439 C   0  0  0  0  0  0  0  0  0  0  0  0
  -24.7871  -24.7067   19.9020 C   0  0  0  0  0  0  0  0  0  0  0  0
  -25.2569  -22.3464   20.6892 C   0  0  0  0  0  0  0  0  0  0  0  0
  -26.8873  -24.1262   21.1823 C   0  0  0  0  0  0  0  0  0  0  0  0
  -24.6217  -18.6293   17.4152 C   0  0  1  0  0  0  0  0  0  0  0  0
  -24.1707  -15.0877   18.7140 C   0  0  1  0  0  0  0  0  0  0  0  0
  -26.2779  -25.0401   20.1066 C   0  0  2  0  0  0  0  0  0  0  0  0
  -33.5682  -19.3258   22.4763 C   0  0  0  0  0  0  0  0  0  0  0  0
  -21.5089  -10.2454   24.1426 C   0  0  0  0  0  0  0  0  0  0  0  0
  -22.6100  -16.6331   22.7805 C   0  0  0  0  0  0  0  0  0  0  0  0
  -22.0365  -14.8653   24.4580 C   0  0  0  0  0  0  0  0  0  0  0  0
  -20.5366  -15.2621   22.5047 C   0  0  0  0  0  0  0  0  0  0  0  0
  -33.6503  -15.2345   20.2870 C   0  0  0  0  0  0  0  0  0  0  0  0
  -32.7920  -13.5902   21.9735 C   0  0  0  0  0  0  0  0  0  0  0  0
  -23.6963   -9.3383   21.1646 C   0  0  0  0  0  0  0  0  0  0  0  0
  -30.9560  -17.9891   22.3396 C   0  0  0  0  0  0  0  0  0  0  0  0
  -31.3433  -14.3010   20.0203 C   0  0  0  0  0  0  0  0  0  1  0  0
  -22.7713  -14.1364   22.1430 C   0  0  1  0  0  0  0  0  0  0  0  0
  -22.1488  -10.4515   22.7785 C   0  0  2  0  0  0  0  0  0  0  0  0
  -22.0127  -15.2227   22.9566 C   0  0  0  0  0  0  0  0  0  0  0  0
  -32.4063  -14.7453   21.0407 C   0  0  0  0  0  0  0  0  0  0  0  0
  -25.5396  -27.1674   21.1121 N   0  0  0  0  0  0  0  0  0  0  0  0
  -26.4872  -26.5092   20.4230 N   0  0  0  0  0  0  0  0  0  0  0  0
  -24.0738  -14.5941   20.0892 N   0  0  0  0  0  0  0  0  0  0  0  0
  -26.6675  -22.7158   20.8252 N   0  0  0  0  0  0  0  0  0  0  0  0
  -28.6021  -26.7782   19.3907 N   0  0  0  0  0  0  0  0  0  0  0  0
  -27.7205  -30.8866   21.0459 N   0  0  0  0  0  0  0  0  0  0  0  0
  -28.9708  -22.2156   20.7434 N   0  0  0  0  0  0  0  0  0  0  0  0
  -24.4285  -17.2030   17.5665 N   0  0  0  0  0  0  0  0  0  0  0  0
  -22.2111  -12.7953   22.2693 N   0  0  0  0  0  0  0  0  0  0  0  0
  -31.8812  -15.8390   21.8414 N   0  0  0  0  0  0  0  0  0  0  0  0
  -23.0211   -9.2790   22.4865 N   0  3  0  0  0  0  0  0  0  0  0  0
  -29.2425  -29.6419   19.8657 O   0  0  0  0  0  0  0  0  0  0  0  0
  -24.4932  -17.1082   19.8923 O   0  0  0  0  0  0  0  0  0  0  0  0
  -21.7433  -14.5371   20.0432 O   0  0  0  0  0  0  0  0  0  0  0  0
  -31.4789  -17.2941   20.0793 O   0  0  0  0  0  0  0  0  0  0  0  0
  -24.1352  -11.7919   23.0867 O   0  0  0  0  0  0  0  0  0  0  0  0
  -27.3842  -20.5756   20.3254 O   0  0  0  0  0  0  0  0  0  0  0  0
  -23.1642  -32.3881   23.8780 O   0  0  0  0  0  0  0  0  0  0  0  0
  -30.1672  -13.8396   20.6839 O   0  0  0  0  0  0  0  0  0  1  0  0
  -25.9178  -35.6177   27.3982 F   0  0  0  0  0  0  0  0  0  0  0  0
  -25.2802  -33.9446   23.0164 F   0  0  0  0  0  0  0  0  0  0  0  0
  1  2  1  0  0  0  0
  1  5  2  0  0  0  0
  2  6  2  0  0  0  0
  3 10  2  0  0  0  0
  3 18  1  0  0  0  0
  4 11  1  0  0  0  0
  4 18  2  0  0  0  0
  5 20  1  0  0  0  0
  6 22  1  0  0  0  0
  7 12  2  0  0  0  0
  7 21  1  0  0  0  0
  8  9  2  0  0  0  0
  8 24  1  0  0  0  0
  9 26  1  0  0  0  0
 10 27  1  0  0  0  0
 11 27  2  0  0  0  0
 12 28  1  0  0  0  0
 13 14  2  0  0  0  0
 13 29  1  0  0  0  0
 14 30  1  0  0  0  0
 15 23  1  0  0  0  0
 15 28  2  0  0  0  0
 16 25  1  0  0  0  0
 16 26  2  0  0  0  0
 17 30  2  0  0  0  0
 17 31  1  0  0  0  0
 18 32  1  0  0  0  0
 19 32  1  0  0  0  0
 19 33  2  0  0  0  0
 19 34  1  0  0  0  0
 20 22  2  0  0  0  0
 20 40  1  0  0  0  0
 21 23  2  0  0  0  0
 21 41  1  0  0  0  0
 22 49  1  0  0  0  0
 23 42  1  0  0  0  0
 24 25  2  0  0  0  0
 24 52  1  0  0  0  0
 25 60  1  0  0  0  0
 26 72  1  0  0  0  0
 27 83  1  0  0  0  0
 28 84  1  0  0  0  0
 29 31  2  0  0  0  0
 29 83  1  0  0  0  0
 30 85  1  0  0  0  0
 31 86  1  0  0  0  0
 32 66  2  0  0  0  0
 33 67  1  0  0  0  0
 33 70  1  0  0  0  0
 34 71  1  0  0  0  0
 34 77  2  0  0  0  0
 35 50  1  0  0  0  0
 35 73  1  0  0  0  0
 35 78  2  0  0  0  0
 36 62  1  0  0  0  0
 36 68  1  0  0  0  0
 36 79  2  0  0  0  0
 37 60  1  0  0  0  0
 37 75  1  0  0  0  0
 37 80  2  0  0  0  0
 38 63  1  0  0  0  0
 38 74  1  0  0  0  0
 38 81  2  0  0  0  0
 39 69  1  0  0  0  0
 39 72  1  0  0  0  0
 39 82  2  0  0  0  0
 40 43  1  0  0  0  0
 41 50  1  0  0  0  0
 42 68  1  0  0  0  0
 43 45  1  0  0  0  0
 44 46  1  0  0  0  0
 44 47  1  0  0  0  0
 45 49  1  0  0  0  0
 46 51  1  0  0  0  0
 47 69  1  0  0  0  0
 48 51  1  0  0  0  0
 48 69  1  0  0  0  0
 49 73  1  0  0  0  0
 50 68  1  0  0  0  0
 51 67  1  0  0  0  0
 53 63  1  0  0  0  0
 54 64  1  0  0  0  0
 55 64  1  0  0  0  0
 56 64  1  0  0  0  0
 57 65  1  0  0  0  0
 58 65  1  0  0  0  0
 59 76  1  0  0  0  0
 61 65  1  0  0  0  0
 61 84  1  0  0  0  0
 62 64  1  0  0  0  0
 62 74  1  0  0  0  0
 63 76  1  0  0  0  0
 65 75  1  0  0  0  0
 66 67  1  0  0  0  0
M  CHG  1  76   1
M  ISO  4  39 100  61 101  72 100  84 101
M  END
> <Batch ID>
0053

> <Smiles>
CNC(C)C(=O)NC(C(=O)N1Cc2cc([101O:1][101CH2:1]C(C)(C)NC(=O)Cc3cc([100NH:0][100C:0](=O)N4CCCC(n5nc(-c6ccc(Oc7ccc(F)cc7F)cc6)c(C(N)=O)c5N)C4)ccc3C)ccc2CC1C(=O)NC1CCCc2ccccc21)C(C)(C)C

> <Shape>
0.217

> <Color>
0.067

> <Negative vol penalty>
0.000

$$$$

  -OEChem-04042322433D

 83 91  0     1  0  0  0  0  0999 V2000
  -41.0678  -26.3593   11.9789 C   0  0  0  0  0  0  0  0  0  0  0  0
  -40.6065  -25.2187   12.6282 C   0  0  0  0  0  0  0  0  0  0  0  0
  -23.0760   -9.8671   19.9410 C   0  0  0  0  0  0  0  0  0  0  0  0
  -23.8345   -9.8758   22.2349 C   0  0  0  0  0  0  0  0  0  0  0  0
  -41.3163  -27.5221   12.7070 C   0  0  0  0  0  0  0  0  0  0  0  0
  -40.3945  -25.2398   14.0063 C   0  0  0  0  0  0  0  0  0  0  0  0
  -36.0295  -22.2654   17.1055 C   0  0  0  0  0  0  0  0  0  0  0  0
  -31.8531  -18.3618   24.1984 C   0  0  0  0  0  0  0  0  0  0  0  0
  -22.3319   -8.7142   20.1914 C   0  0  0  0  0  0  0  0  0  0  0  0
  -23.0904   -8.7229   22.4853 C   0  0  0  0  0  0  0  0  0  0  0  0
  -36.0366  -21.0683   17.8202 C   0  0  0  0  0  0  0  0  0  0  0  0
  -19.8618   -7.9258   23.0864 C   0  0  0  0  0  0  0  0  0  0  0  0
  -30.4673  -18.3449   24.0406 C   0  0  0  0  0  0  0  0  0  0  0  0
  -19.1041   -7.8868   24.2569 C   0  0  0  0  0  0  0  0  0  0  0  0
  -36.3961  -22.2978   19.8643 C   0  0  0  0  0  0  0  0  0  0  0  0
  -32.0623  -16.6089   22.5490 C   0  0  0  0  0  0  0  0  0  0  0  0
  -20.3449   -5.9499   24.9956 C   0  0  0  0  0  0  0  0  0  0  0  0
  -23.8274  -10.4479   20.9627 C   0  0  0  0  0  0  0  0  0  0  0  0
  -24.1695  -12.9729   20.8410 C   0  0  0  0  0  0  0  0  0  0  0  0
  -41.0980  -27.5604   14.0932 C   0  0  0  0  0  0  0  0  0  0  0  0
  -36.2168  -23.4889   17.7646 C   0  0  0  0  0  0  0  0  0  0  0  0
  -40.6415  -26.4038   14.7538 C   0  0  0  0  0  0  0  0  0  0  0  0
  -36.3883  -23.5092   19.1561 C   0  0  0  0  0  0  0  0  0  0  0  0
  -32.6506  -17.4938   23.4525 C   0  0  0  0  0  0  0  0  0  0  0  0
  -30.6764  -16.5920   22.3912 C   0  0  0  0  0  0  0  0  0  0  0  0
  -22.3390   -8.1421   21.4635 C   0  0  0  0  0  0  0  0  0  0  0  0
  -36.2228  -21.0842   19.1994 C   0  0  0  0  0  0  0  0  0  0  0  0
  -20.8610   -6.9768   22.8705 C   0  0  0  0  0  0  0  0  0  0  0  0
  -19.3457   -6.8989   25.2115 C   0  0  0  0  0  0  0  0  0  0  0  0
  -29.8790  -17.4600   23.1371 C   0  0  0  0  0  0  0  0  0  0  0  0
  -21.1025   -5.9888   23.8251 C   0  0  0  0  0  0  0  0  0  0  0  0
  -24.5967  -11.6385   20.7046 C   0  0  0  0  0  0  0  0  0  0  0  0
  -25.2619  -13.7220   20.4778 C   0  0  0  0  0  0  0  0  0  0  0  0
  -22.8988  -13.4892   21.2587 C   0  0  0  0  0  0  0  0  0  0  0  0
  -38.3902  -25.8041   17.6216 C   0  0  0  0  0  0  0  0  0  0  0  0
  -36.3636  -27.2997   19.6657 C   0  0  0  0  0  0  0  0  0  0  0  0
  -35.1809  -18.6361   21.6630 C   0  0  0  0  0  0  0  0  0  0  0  0
  -33.8929  -27.0379   22.0054 C   0  0  0  0  0  0  0  0  0  0  0  0
  -30.7281  -14.7673   20.6550 C   0  0  0  0  0  0  0  0  0  0  0  0
  -41.4258  -28.8261   14.8450 C   0  0  0  0  0  0  0  0  0  0  0  0
  -36.1798  -24.7735   16.9829 C   0  0  0  0  0  0  0  0  0  0  0  0
  -36.5734  -24.7977   19.9136 C   0  0  0  0  0  0  0  0  0  0  0  0
  -40.8186  -28.8779   16.2446 C   0  0  0  0  0  0  0  0  0  0  0  0
  -29.6150  -12.3518   18.2879 C   0  0  0  0  0  0  0  0  0  0  0  0
  -41.0515  -27.5600   16.9766 C   0  0  0  0  0  0  0  0  0  0  0  0
  -28.1750  -12.0606   18.7169 C   0  0  0  0  0  0  0  0  0  0  0  0
  -30.5293  -12.5814   19.4900 C   0  0  0  0  0  0  0  0  0  0  0  0
  -28.6216  -13.3071   20.8695 C   0  0  0  0  0  0  0  0  0  0  0  0
  -40.3758  -26.3949   16.2436 C   0  0  1  0  0  0  0  0  0  0  0  0
  -36.8938  -25.9227   17.6878 C   0  0  1  0  0  0  0  0  0  0  0  0
  -27.6495  -13.1330   19.6912 C   0  0  2  0  0  0  0  0  0  0  0  0
  -32.4640  -28.4322   23.5258 C   0  0  0  0  0  0  0  0  0  0  0  0
  -38.7389  -27.6839   21.5419 C   0  0  0  0  0  0  0  0  0  0  0  0
  -37.1163  -28.1944   23.3789 C   0  0  0  0  0  0  0  0  0  0  0  0
  -37.2191  -29.6621   21.3644 C   0  0  0  0  0  0  0  0  0  0  0  0
  -31.4016  -26.1139   20.7021 C   0  0  0  0  0  0  0  0  0  0  0  0
  -34.1421  -17.5120   23.6233 C   0  0  0  0  0  0  0  0  0  0  0  0
  -35.7730  -19.9666   21.2499 C   0  0  0  0  0  0  0  0  0  1  0  0
  -36.2059  -27.3542   21.1661 C   0  0  1  0  0  0  0  0  0  0  0  0
  -32.5718  -27.7692   22.1614 C   0  0  2  0  0  0  0  0  0  0  0  0
  -37.3185  -28.1991   21.8486 C   0  0  0  0  0  0  0  0  0  0  0  0
  -25.8618  -11.5422   20.2871 N   0  0  0  0  0  0  0  0  0  0  0  0
  -26.2389  -12.8257   20.1580 N   0  0  0  0  0  0  0  0  0  0  0  0
  -36.5359  -26.0267   19.1039 N   0  0  0  0  0  0  0  0  0  0  0  0
  -29.9699  -13.6130   20.3662 N   0  0  0  0  0  0  0  0  0  0  0  0
  -25.4725  -15.0534   20.4039 N   0  0  0  0  0  0  0  0  0  0  0  0
  -21.8866  -12.5803   21.5961 N   0  0  0  0  0  0  0  0  0  0  0  0
  -30.0803  -15.6930   21.4723 N   0  0  0  0  0  0  0  0  0  0  0  0
  -38.9522  -26.3913   16.5042 N   0  0  0  0  0  0  0  0  0  0  0  0
  -34.7461  -18.6552   22.9789 N   0  0  0  0  0  0  0  0  0  0  0  0
  -34.8517  -27.8354   21.4170 N   0  0  0  0  0  0  0  0  0  0  0  0
  -31.4331  -26.8199   22.0089 N   0  3  0  0  0  0  0  0  0  0  0  0
  -22.6626  -14.7198   21.3150 O   0  0  0  0  0  0  0  0  0  0  0  0
  -38.9905  -25.2241   18.5188 O   0  0  0  0  0  0  0  0  0  0  0  0
  -36.3277  -28.3473   19.0154 O   0  0  0  0  0  0  0  0  0  0  0  0
  -35.1102  -17.6753   20.9015 O   0  0  0  0  0  0  0  0  0  0  0  0
  -34.0590  -25.8768   22.3725 O   0  0  0  0  0  0  0  0  0  0  0  0
  -31.8575  -14.9356   20.1880 O   0  0  0  0  0  0  0  0  0  0  0  0
  -21.6128   -7.0173   21.7083 O   0  0  0  0  0  0  0  0  0  0  0  0
  -36.2308  -19.9171   19.8992 O   0  0  0  0  0  0  0  0  0  1  0  0
  -18.6190   -6.8625   26.3362 F   0  0  0  0  0  0  0  0  0  0  0  0
  -28.5460  -17.4522   22.9942 F   0  0  0  0  0  0  0  0  0  0  0  0
  -22.0619   -5.0751   23.6237 F   0  0  0  0  0  0  0  0  0  0  0  0
  1  2  1  0  0  0  0
  1  5  2  0  0  0  0
  2  6  2  0  0  0  0
  3  9  2  0  0  0  0
  3 18  1  0  0  0  0
  4 10  1  0  0  0  0
  4 18  2  0  0  0  0
  5 20  1  0  0  0  0
  6 22  1  0  0  0  0
  7 11  2  0  0  0  0
  7 21  1  0  0  0  0
  8 13  2  0  0  0  0
  8 24  1  0  0  0  0
  9 26  1  0  0  0  0
 10 26  2  0  0  0  0
 11 27  1  0  0  0  0
 12 14  2  0  0  0  0
 12 28  1  0  0  0  0
 13 30  1  0  0  0  0
 14 29  1  0  0  0  0
 15 23  1  0  0  0  0
 15 27  2  0  0  0  0
 16 24  2  0  0  0  0
 16 25  1  0  0  0  0
 17 29  2  0  0  0  0
 17 31  1  0  0  0  0
 18 32  1  0  0  0  0
 19 32  1  0  0  0  0
 19 33  2  0  0  0  0
 19 34  1  0  0  0  0
 20 22  2  0  0  0  0
 20 40  1  0  0  0  0
 21 23  2  0  0  0  0
 21 41  1  0  0  0  0
 22 49  1  0  0  0  0
 23 42  1  0  0  0  0
 24 57  1  0  0  0  0
 25 30  2  0  0  0  0
 25 68  1  0  0  0  0
 26 79  1  0  0  0  0
 27 80  1  0  0  0  0
 28 31  2  0  0  0  0
 28 79  1  0  0  0  0
 29 81  1  0  0  0  0
 30 82  1  0  0  0  0
 31 83  1  0  0  0  0
 32 62  2  0  0  0  0
 33 63  1  0  0  0  0
 33 66  1  0  0  0  0
 34 67  1  0  0  0  0
 34 73  2  0  0  0  0
 35 50  1  0  0  0  0
 35 69  1  0  0  0  0
 35 74  2  0  0  0  0
 36 59  1  0  0  0  0
 36 64  1  0  0  0  0
 36 75  2  0  0  0  0
 37 58  1  0  0  0  0
 37 70  1  0  0  0  0
 37 76  2  0  0  0  0
 38 60  1  0  0  0  0
 38 71  1  0  0  0  0
 38 77  2  0  0  0  0
 39 65  1  0  0  0  0
 39 68  1  0  0  0  0
 39 78  2  0  0  0  0
 40 43  1  0  0  0  0
 41 50  1  0  0  0  0
 42 64  1  0  0  0  0
 43 45  1  0  0  0  0
 44 46  1  0  0  0  0
 44 47  1  0  0  0  0
 45 49  1  0  0  0  0
 46 51  1  0  0  0  0
 47 65  1  0  0  0  0
 48 51  1  0  0  0  0
 48 65  1  0  0  0  0
 49 69  1  0  0  0  0
 50 64  1  0  0  0  0
 51 63  1  0  0  0  0
 52 60  1  0  0  0  0
 53 61  1  0  0  0  0
 54 61  1  0  0  0  0
 55 61  1  0  0  0  0
 56 72  1  0  0  0  0
 57 70  1  0  0  0  0
 58 80  1  0  0  0  0
 59 61  1  0  0  0  0
 59 71  1  0  0  0  0
 60 72  1  0  0  0  0
 62 63  1  0  0  0  0
M  CHG  1  72   1
M  ISO  4  39 100  58 101  68 100  80 101
M  END
> <Batch ID>
0053

> <Smiles>
CNC(C)C(=O)NC(C(=O)N1Cc2cc([101O:1][101CH2:1]C(=O)NCc3ccc(F)c([100NH:0][100C:0](=O)N4CCCC(n5nc(-c6ccc(Oc7ccc(F)cc7F)cc6)c(C(N)=O)c5N)C4)c3)ccc2CC1C(=O)NC1CCCc2ccccc21)C(C)(C)C

> <Shape>
0.175

> <Color>
0.191

> <Negative vol penalty>
0.000

$$$$

  -OEChem-04042322433D

 82 90  0     1  0  0  0  0  0999 V2000
  -24.2483  -35.8179   15.8978 C   0  0  0  0  0  0  0  0  0  0  0  0
  -24.5879  -34.4708   15.8239 C   0  0  0  0  0  0  0  0  0  0  0  0
  -25.9058  -12.1874   21.2405 C   0  0  0  0  0  0  0  0  0  0  0  0
  -25.8514  -13.8134   19.4544 C   0  0  0  0  0  0  0  0  0  0  0  0
  -24.5101  -36.5388   17.0621 C   0  0  0  0  0  0  0  0  0  0  0  0
  -25.1905  -33.8441   16.9141 C   0  0  0  0  0  0  0  0  0  0  0  0
  -24.4151  -28.0427   18.7164 C   0  0  0  0  0  0  0  0  0  0  0  0
  -32.0137  -22.0441   20.7628 C   0  0  0  0  0  0  0  0  0  0  0  0
  -31.1004  -21.2718   18.6637 C   0  0  0  0  0  0  0  0  0  0  0  0
  -32.0877  -20.7268   21.2153 C   0  0  0  0  0  0  0  0  0  0  0  0
  -31.1744  -19.9544   19.1161 C   0  0  0  0  0  0  0  0  0  0  0  0
  -24.5119  -12.1387   21.2387 C   0  0  0  0  0  0  0  0  0  0  0  0
  -24.4574  -13.7647   19.4525 C   0  0  0  0  0  0  0  0  0  0  0  0
  -25.1707  -26.8887   18.5140 C   0  0  0  0  0  0  0  0  0  0  0  0
  -22.0723  -10.6967   19.3942 C   0  0  0  0  0  0  0  0  0  0  0  0
  -21.4675   -9.4410   19.4487 C   0  0  0  0  0  0  0  0  0  0  0  0
  -26.2373  -27.2192   20.6523 C   0  0  0  0  0  0  0  0  0  0  0  0
  -20.3715  -10.0584   21.5115 C   0  0  0  0  0  0  0  0  0  0  0  0
  -26.5756  -13.0248   20.3484 C   0  0  0  0  0  0  0  0  0  0  0  0
  -28.8956  -12.2771   19.5959 C   0  0  0  0  0  0  0  0  0  0  0  0
  -25.1074  -35.9182   18.1706 C   0  0  0  0  0  0  0  0  0  0  0  0
  -24.5730  -28.8010   19.8854 C   0  0  0  0  0  0  0  0  0  0  0  0
  -25.4618  -34.5577   18.0939 C   0  0  0  0  0  0  0  0  0  0  0  0
  -25.4807  -28.3811   20.8683 C   0  0  0  0  0  0  0  0  0  0  0  0
  -31.5200  -22.3166   19.4870 C   0  0  0  0  0  0  0  0  0  0  0  0
  -31.6681  -19.6819   20.3920 C   0  0  0  0  0  0  0  0  0  0  0  0
  -23.7876  -12.9273   20.3446 C   0  0  0  0  0  0  0  0  0  0  0  0
  -26.0841  -26.4783   19.4807 C   0  0  0  0  0  0  0  0  0  0  0  0
  -21.8268  -11.6333   20.3983 C   0  0  0  0  0  0  0  0  0  0  0  0
  -20.6171   -9.1219   20.5073 C   0  0  0  0  0  0  0  0  0  0  0  0
  -20.9764  -11.3142   21.4569 C   0  0  0  0  0  0  0  0  0  0  0  0
  -28.0156  -13.0760   20.3503 C   0  0  0  0  0  0  0  0  0  0  0  0
  -30.1478  -12.7134   19.9538 C   0  0  0  0  0  0  0  0  0  0  0  0
  -28.6070  -11.2339   18.6556 C   0  0  0  0  0  0  0  0  0  0  0  0
  -25.5013  -31.7735   20.5227 C   0  0  0  0  0  0  0  0  0  0  0  0
  -24.6417  -30.9782   23.5478 C   0  0  0  0  0  0  0  0  0  0  0  0
  -29.0708  -24.4887   19.0472 C   0  0  0  0  0  0  0  0  0  0  0  0
  -24.1166  -28.5237   25.8600 C   0  0  0  0  0  0  0  0  0  0  0  0
  -32.2078  -17.9001   22.0891 C   0  0  0  0  0  0  0  0  0  0  0  0
  -25.4140  -36.7502   19.3906 C   0  0  0  0  0  0  0  0  0  0  0  0
  -23.7312  -30.0287   20.1007 C   0  0  0  0  0  0  0  0  0  0  0  0
  -25.6732  -29.1487   22.1498 C   0  0  0  0  0  0  0  0  0  0  0  0
  -25.7136  -35.9188   20.6353 C   0  0  0  0  0  0  0  0  0  0  0  0
  -32.5187  -14.6966   23.6117 C   0  0  0  0  0  0  0  0  0  0  0  0
  -26.6891  -34.7940   20.3037 C   0  0  0  0  0  0  0  0  0  0  0  0
  -31.4836  -13.8432   22.8753 C   0  0  0  0  0  0  0  0  0  0  0  0
  -32.0278  -16.1279   23.8217 C   0  0  0  0  0  0  0  0  0  0  0  0
  -30.5350  -15.9587   21.8692 C   0  0  0  0  0  0  0  0  0  0  0  0
  -26.0942  -33.8363   19.2642 C   0  0  1  0  0  0  0  0  0  0  0  0
  -24.3445  -31.0065   21.0982 C   0  0  1  0  0  0  0  0  0  0  0  0
  -31.0109  -14.5263   21.5770 C   0  0  2  0  0  0  0  0  0  0  0  0
  -23.4558  -28.1841   28.2570 C   0  0  0  0  0  0  0  0  0  0  0  0
  -27.4224  -31.8648   24.4374 C   0  0  0  0  0  0  0  0  0  0  0  0
  -27.0469  -30.6434   26.5904 C   0  0  0  0  0  0  0  0  0  0  0  0
  -25.5684  -32.5537   25.9680 C   0  0  0  0  0  0  0  0  0  0  0  0
  -21.7249  -26.9551   25.0995 C   0  0  0  0  0  0  0  0  0  0  0  0
  -31.4403  -23.7346   19.0000 C   0  0  0  0  0  0  0  0  0  0  0  0
  -28.1174  -25.3131   19.8856 C   0  0  0  0  0  0  0  0  0  1  0  0
  -25.3454  -30.3597   24.7315 C   0  0  1  0  0  0  0  0  0  0  0  0
  -22.9673  -28.2729   26.8195 C   0  0  2  0  0  0  0  0  0  0  0  0
  -26.3438  -31.3418   25.4069 C   0  0  0  0  0  0  0  0  0  0  0  0
  -28.6546  -13.9533   21.1288 N   0  0  0  0  0  0  0  0  0  0  0  0
  -29.9494  -13.7082   20.8656 N   0  0  0  0  0  0  0  0  0  0  0  0
  -24.8313  -30.3457   22.3109 N   0  0  0  0  0  0  0  0  0  0  0  0
  -31.6006  -16.7123   22.5486 N   0  0  0  0  0  0  0  0  0  0  0  0
  -31.3882  -12.3393   19.5745 N   0  0  0  0  0  0  0  0  0  0  0  0
  -27.2660  -10.9126   18.4050 N   0  0  0  0  0  0  0  0  0  0  0  0
  -31.7434  -18.3436   20.8513 N   0  0  0  0  0  0  0  0  0  0  0  0
  -25.1386  -32.9452   19.8864 N   0  0  0  0  0  0  0  0  0  0  0  0
  -30.3404  -24.4520   19.6021 N   0  0  0  0  0  0  0  0  0  0  0  0
  -24.2966  -29.8694   25.6193 N   0  0  0  0  0  0  0  0  0  0  0  0
  -22.2765  -26.9973   26.4783 N   0  3  0  0  0  0  0  0  0  0  0  0
  -29.5118  -10.5942   18.0678 O   0  0  0  0  0  0  0  0  0  0  0  0
  -26.6389  -31.3354   20.6481 O   0  0  0  0  0  0  0  0  0  0  0  0
  -23.9436  -31.9812   23.7156 O   0  0  0  0  0  0  0  0  0  0  0  0
  -28.7302  -23.9336   18.0061 O   0  0  0  0  0  0  0  0  0  0  0  0
  -24.7898  -27.6167   25.3755 O   0  0  0  0  0  0  0  0  0  0  0  0
  -33.0951  -18.4663   22.7327 O   0  0  0  0  0  0  0  0  0  0  0  0
  -22.4274  -12.8798   20.3423 O   0  0  0  0  0  0  0  0  0  0  0  0
  -26.8233  -25.3526   19.2854 O   0  0  0  0  0  0  0  0  0  1  0  0
  -20.0351   -7.9165   20.5588 F   0  0  0  0  0  0  0  0  0  0  0  0
  -20.7358  -12.2102   22.4239 F   0  0  0  0  0  0  0  0  0  0  0  0
  1  2  1  0  0  0  0
  1  5  2  0  0  0  0
  2  6  2  0  0  0  0
  3 12  2  0  0  0  0
  3 19  1  0  0  0  0
  4 13  1  0  0  0  0
  4 19  2  0  0  0  0
  5 21  1  0  0  0  0
  6 23  1  0  0  0  0
  7 14  2  0  0  0  0
  7 22  1  0  0  0  0
  8 10  2  0  0  0  0
  8 25  1  0  0  0  0
  9 11  1  0  0  0  0
  9 25  2  0  0  0  0
 10 26  1  0  0  0  0
 11 26  2  0  0  0  0
 12 27  1  0  0  0  0
 13 27  2  0  0  0  0
 14 28  1  0  0  0  0
 15 16  2  0  0  0  0
 15 29  1  0  0  0  0
 16 30  1  0  0  0  0
 17 24  1  0  0  0  0
 17 28  2  0  0  0  0
 18 30  2  0  0  0  0
 18 31  1  0  0  0  0
 19 32  1  0  0  0  0
 20 32  1  0  0  0  0
 20 33  2  0  0  0  0
 20 34  1  0  0  0  0
 21 23  2  0  0  0  0
 21 40  1  0  0  0  0
 22 24  2  0  0  0  0
 22 41  1  0  0  0  0
 23 49  1  0  0  0  0
 24 42  1  0  0  0  0
 25 57  1  0  0  0  0
 26 68  1  0  0  0  0
 27 79  1  0  0  0  0
 28 80  1  0  0  0  0
 29 31  2  0  0  0  0
 29 79  1  0  0  0  0
 30 81  1  0  0  0  0
 31 82  1  0  0  0  0
 32 62  2  0  0  0  0
 33 63  1  0  0  0  0
 33 66  1  0  0  0  0
 34 67  1  0  0  0  0
 34 73  2  0  0  0  0
 35 50  1  0  0  0  0
 35 69  1  0  0  0  0
 35 74  2  0  0  0  0
 36 59  1  0  0  0  0
 36 64  1  0  0  0  0
 36 75  2  0  0  0  0
 37 58  1  0  0  0  0
 37 70  1  0  0  0  0
 37 76  2  0  0  0  0
 38 60  1  0  0  0  0
 38 71  1  0  0  0  0
 38 77  2  0  0  0  0
 39 65  1  0  0  0  0
 39 68  1  0  0  0  0
 39 78  2  0  0  0  0
 40 43  1  0  0  0  0
 41 50  1  0  0  0  0
 42 64  1  0  0  0  0
 43 45  1  0  0  0  0
 44 46  1  0  0  0  0
 44 47  1  0  0  0  0
 45 49  1  0  0  0  0
 46 51  1  0  0  0  0
 47 65  1  0  0  0  0
 48 51  1  0  0  0  0
 48 65  1  0  0  0  0
 49 69  1  0  0  0  0
 50 64  1  0  0  0  0
 51 63  1  0  0  0  0
 52 60  1  0  0  0  0
 53 61  1  0  0  0  0
 54 61  1  0  0  0  0
 55 61  1  0  0  0  0
 56 72  1  0  0  0  0
 57 70  1  0  0  0  0
 58 80  1  0  0  0  0
 59 61  1  0  0  0  0
 59 71  1  0  0  0  0
 60 72  1  0  0  0  0
 62 63  1  0  0  0  0
M  CHG  1  72   1
M  ISO  4  39 100  58 101  68 100  80 101
M  END
> <Batch ID>
0053

> <Smiles>
CNC(C)C(=O)NC(C(=O)N1Cc2cc([101O:1][101CH2:1]C(=O)NCc3ccc([100NH:0][100C:0](=O)N4CCCC(n5nc(-c6ccc(Oc7ccc(F)cc7F)cc6)c(C(N)=O)c5N)C4)cc3)ccc2CC1C(=O)NC1CCCc2ccccc21)C(C)(C)C

> <Shape>
0.263

> <Color>
0.085

> <Negative vol penalty>
0.000

$$$$

  -OEChem-04042322433D

 84 92  0     1  0  0  0  0  0999 V2000
  -28.0748  -36.3996   22.0909 C   0  0  0  0  0  0  0  0  0  0  0  0
  -28.3659  -35.0397   22.0560 C   0  0  0  0  0  0  0  0  0  0  0  0
  -24.6948  -12.2807   19.8133 C   0  0  0  0  0  0  0  0  0  0  0  0
  -25.6578  -13.0056   21.9071 C   0  0  0  0  0  0  0  0  0  0  0  0
  -26.8542  -36.8371   22.6035 C   0  0  0  0  0  0  0  0  0  0  0  0
  -27.4370  -34.1164   22.5347 C   0  0  0  0  0  0  0  0  0  0  0  0
  -26.8837  -30.1392   19.4492 C   0  0  0  0  0  0  0  0  0  0  0  0
  -28.8413  -20.4385   22.7886 C   0  0  0  0  0  0  0  0  0  0  0  0
  -25.2043  -10.9992   20.0226 C   0  0  0  0  0  0  0  0  0  0  0  0
  -26.1672  -11.7241   22.1165 C   0  0  0  0  0  0  0  0  0  0  0  0
  -27.8720  -29.1568   19.4933 C   0  0  0  0  0  0  0  0  0  0  0  0
  -25.9446   -7.4436   20.1791 C   0  0  0  0  0  0  0  0  0  0  0  0
  -25.0994   -6.3615   19.9336 C   0  0  0  0  0  0  0  0  0  0  0  0
  -29.9039  -20.9502   23.5333 C   0  0  0  0  0  0  0  0  0  0  0  0
  -26.4517  -27.7993   20.8930 C   0  0  0  0  0  0  0  0  0  0  0  0
  -29.7264  -21.4911   20.8023 C   0  0  0  0  0  0  0  0  0  0  0  0
  -23.5601   -7.1851   21.6038 C   0  0  0  0  0  0  0  0  0  0  0  0
  -24.9216  -13.2839   20.7555 C   0  0  0  0  0  0  0  0  0  0  0  0
  -23.1417  -15.1015   20.9458 C   0  0  0  0  0  0  0  0  0  0  0  0
  -25.9059  -35.9182   23.0798 C   0  0  0  0  0  0  0  0  0  0  0  0
  -25.6743  -29.9635   20.1368 C   0  0  0  0  0  0  0  0  0  0  0  0
  -26.2031  -34.5421   23.0553 C   0  0  0  0  0  0  0  0  0  0  0  0
  -25.4486  -28.7799   20.8540 C   0  0  0  0  0  0  0  0  0  0  0  0
  -30.7890  -22.0030   21.5470 C   0  0  0  0  0  0  0  0  0  0  0  0
  -28.7526  -20.7088   21.4230 C   0  0  0  0  0  0  0  0  0  0  0  0
  -25.9405  -10.7209   21.1742 C   0  0  0  0  0  0  0  0  0  0  0  0
  -27.6572  -27.9879   20.2177 C   0  0  0  0  0  0  0  0  0  0  0  0
  -25.5977   -8.3964   21.1370 C   0  0  0  0  0  0  0  0  0  0  0  0
  -23.9071   -6.2323   20.6459 C   0  0  0  0  0  0  0  0  0  0  0  0
  -24.4054   -8.2672   21.8493 C   0  0  0  0  0  0  0  0  0  0  0  0
  -30.8777  -21.7325   22.9125 C   0  0  0  0  0  0  0  0  0  0  0  0
  -24.3960  -14.6080   20.5396 C   0  0  0  0  0  0  0  0  0  0  0  0
  -23.1250  -16.4020   20.5042 C   0  0  0  0  0  0  0  0  0  0  0  0
  -22.0862  -14.4432   21.6586 C   0  0  0  0  0  0  0  0  0  0  0  0
  -24.1950  -31.4907   22.4996 C   0  0  0  0  0  0  0  0  0  0  0  0
  -21.8033  -29.4047   21.8282 C   0  0  0  0  0  0  0  0  0  0  0  0
  -30.8339  -25.0877   20.4022 C   0  0  0  0  0  0  0  0  0  0  0  0
  -20.8649  -26.3986   20.5132 C   0  0  0  0  0  0  0  0  0  0  0  0
  -27.4364  -20.3611   19.3034 C   0  0  0  0  0  0  0  0  0  0  0  0
  -24.6197  -36.4416   23.6682 C   0  0  0  0  0  0  0  0  0  0  0  0
  -24.6077  -31.0210   20.0573 C   0  0  0  0  0  0  0  0  0  0  0  0
  -24.1594  -28.5338   21.5928 C   0  0  0  0  0  0  0  0  0  0  0  0
  -23.5365  -35.3753   23.8102 C   0  0  0  0  0  0  0  0  0  0  0  0
  -24.9167  -19.2124   17.0654 C   0  0  0  0  0  0  0  0  0  0  0  0
  -24.1140  -34.1072   24.4308 C   0  0  0  0  0  0  0  0  0  0  0  0
  -24.3789  -17.9496   17.7423 C   0  0  0  0  0  0  0  0  0  0  0  0
  -26.4236  -19.3647   17.2646 C   0  0  0  0  0  0  0  0  0  0  0  0
  -26.3373  -18.0359   19.3373 C   0  0  0  0  0  0  0  0  0  0  0  0
  -25.2111  -33.5083   23.5424 C   0  0  1  0  0  0  0  0  0  0  0  0
  -23.6186  -30.9606   21.2173 C   0  0  1  0  0  0  0  0  0  0  0  0
  -24.8131  -17.8734   19.2192 C   0  0  2  0  0  0  0  0  0  0  0  0
  -18.8463  -24.9545   20.1425 C   0  0  0  0  0  0  0  0  0  0  0  0
  -21.8148  -28.6350   24.7807 C   0  0  0  0  0  0  0  0  0  0  0  0
  -20.5047  -26.5876   24.1803 C   0  0  0  0  0  0  0  0  0  0  0  0
  -19.5384  -28.8501   23.7676 C   0  0  0  0  0  0  0  0  0  0  0  0
  -21.2164  -26.4604   17.5752 C   0  0  0  0  0  0  0  0  0  0  0  0
  -31.8165  -22.8403   20.8418 C   0  0  0  0  0  0  0  0  0  0  0  0
  -30.8713  -26.5103   20.9384 C   0  0  0  0  0  0  0  0  0  0  0  0
  -29.9759  -27.4620   20.1602 C   0  0  0  0  0  0  0  0  0  1  0  0
  -21.4257  -28.0223   22.3029 C   0  0  1  0  0  0  0  0  0  0  0  0
  -19.7523  -26.0232   19.5510 C   0  0  2  0  0  0  0  0  0  0  0  0
  -20.8461  -28.0289   23.7457 C   0  0  0  0  0  0  0  0  0  0  0  0
  -25.1233  -15.5206   19.8897 N   0  0  0  0  0  0  0  0  0  0  0  0
  -24.3234  -16.6005   19.8842 N   0  0  0  0  0  0  0  0  0  0  0  0
  -23.1498  -29.6004   21.4899 N   0  0  0  0  0  0  0  0  0  0  0  0
  -26.7600  -19.2867   18.6878 N   0  0  0  0  0  0  0  0  0  0  0  0
  -22.2021  -17.3835   20.5896 N   0  0  0  0  0  0  0  0  0  0  0  0
  -22.2681  -13.1061   22.0371 N   0  0  0  0  0  0  0  0  0  0  0  0
  -27.6736  -20.1880   20.6666 N   0  0  0  0  0  0  0  0  0  0  0  0
  -24.6256  -32.8015   22.4235 N   0  0  0  0  0  0  0  0  0  0  0  0
  -31.6606  -24.2471   21.1337 N   0  0  0  0  0  0  0  0  0  0  0  0
  -20.5192  -27.4788   21.2973 N   0  0  0  0  0  0  0  0  0  0  0  0
  -20.3231  -25.5028   18.2766 N   0  3  0  0  0  0  0  0  0  0  0  0
  -21.0068  -15.0186   21.9370 O   0  0  0  0  0  0  0  0  0  0  0  0
  -24.2440  -30.7647   23.4857 O   0  0  0  0  0  0  0  0  0  0  0  0
  -20.9340  -30.2768   21.7532 O   0  0  0  0  0  0  0  0  0  0  0  0
  -30.1499  -24.7481   19.4406 O   0  0  0  0  0  0  0  0  0  0  0  0
  -21.9323  -25.7917   20.5665 O   0  0  0  0  0  0  0  0  0  0  0  0
  -27.7557  -21.3729   18.6739 O   0  0  0  0  0  0  0  0  0  0  0  0
  -26.4376   -9.4705   21.3789 O   0  0  0  0  0  0  0  0  0  0  0  0
  -28.6205  -27.0277   20.2629 O   0  0  0  0  0  0  0  0  0  1  0  0
  -23.0947   -5.1940   20.4090 F   0  0  0  0  0  0  0  0  0  0  0  0
  -24.0662   -9.1800   22.7699 F   0  0  0  0  0  0  0  0  0  0  0  0
  -32.1779  -22.3477   23.8665 Cl  0  0  0  0  0  0  0  0  0  0  0  0
  1  2  1  0  0  0  0
  1  5  2  0  0  0  0
  2  6  2  0  0  0  0
  3  9  2  0  0  0  0
  3 18  1  0  0  0  0
  4 10  1  0  0  0  0
  4 18  2  0  0  0  0
  5 20  1  0  0  0  0
  6 22  1  0  0  0  0
  7 11  2  0  0  0  0
  7 21  1  0  0  0  0
  8 14  2  0  0  0  0
  8 25  1  0  0  0  0
  9 26  1  0  0  0  0
 10 26  2  0  0  0  0
 11 27  1  0  0  0  0
 12 13  2  0  0  0  0
 12 28  1  0  0  0  0
 13 29  1  0  0  0  0
 14 31  1  0  0  0  0
 15 23  1  0  0  0  0
 15 27  2  0  0  0  0
 16 24  1  0  0  0  0
 16 25  2  0  0  0  0
 17 29  2  0  0  0  0
 17 30  1  0  0  0  0
 18 32  1  0  0  0  0
 19 32  1  0  0  0  0
 19 33  2  0  0  0  0
 19 34  1  0  0  0  0
 20 22  2  0  0  0  0
 20 40  1  0  0  0  0
 21 23  2  0  0  0  0
 21 41  1  0  0  0  0
 22 49  1  0  0  0  0
 23 42  1  0  0  0  0
 24 31  2  0  0  0  0
 24 57  1  0  0  0  0
 25 69  1  0  0  0  0
 26 80  1  0  0  0  0
 27 81  1  0  0  0  0
 28 30  2  0  0  0  0
 28 80  1  0  0  0  0
 29 82  1  0  0  0  0
 30 83  1  0  0  0  0
 31 84  1  0  0  0  0
 32 63  2  0  0  0  0
 33 64  1  0  0  0  0
 33 67  1  0  0  0  0
 34 68  1  0  0  0  0
 34 74  2  0  0  0  0
 35 50  1  0  0  0  0
 35 70  1  0  0  0  0
 35 75  2  0  0  0  0
 36 60  1  0  0  0  0
 36 65  1  0  0  0  0
 36 76  2  0  0  0  0
 37 58  1  0  0  0  0
 37 71  1  0  0  0  0
 37 77  2  0  0  0  0
 38 61  1  0  0  0  0
 38 72  1  0  0  0  0
 38 78  2  0  0  0  0
 39 66  1  0  0  0  0
 39 69  1  0  0  0  0
 39 79  2  0  0  0  0
 40 43  1  0  0  0  0
 41 50  1  0  0  0  0
 42 65  1  0  0  0  0
 43 45  1  0  0  0  0
 44 46  1  0  0  0  0
 44 47  1  0  0  0  0
 45 49  1  0  0  0  0
 46 51  1  0  0  0  0
 47 66  1  0  0  0  0
 48 51  1  0  0  0  0
 48 66  1  0  0  0  0
 49 70  1  0  0  0  0
 50 65  1  0  0  0  0
 51 64  1  0  0  0  0
 52 61  1  0  0  0  0
 53 62  1  0  0  0  0
 54 62  1  0  0  0  0
 55 62  1  0  0  0  0
 56 73  1  0  0  0  0
 57 71  1  0  0  0  0
 58 59  1  0  0  0  0
 59 81  1  0  0  0  0
 60 62  1  0  0  0  0
 60 72  1  0  0  0  0
 61 73  1  0  0  0  0
 63 64  1  0  0  0  0
M  CHG  1  73   1
M  ISO  4  39 100  59 101  69 100  81 101
M  END
> <Batch ID>
0053

> <Smiles>
CNC(C)C(=O)NC(C(=O)N1Cc2cc([101O:1][101CH2:1]CC(=O)NCc3cc([100NH:0][100C:0](=O)N4CCCC(n5nc(-c6ccc(Oc7ccc(F)cc7F)cc6)c(C(N)=O)c5N)C4)ccc3Cl)ccc2CC1C(=O)NC1CCCc2ccccc21)C(C)(C)C

> <Shape>
0.280

> <Color>
0.094

> <Negative vol penalty>
0.000

$$$$

  -OEChem-04042322433D

 88 96  0     1  0  0  0  0  0999 V2000
  -28.7924  -12.3370   18.7903 C   0  0  0  0  0  0  0  0  0  0  0  0
  -28.3820  -13.5087   18.1626 C   0  0  0  0  0  0  0  0  0  0  0  0
  -29.0283  -24.3401   20.9633 C   0  0  0  0  0  0  0  0  0  0  0  0
  -26.9361  -23.1365   20.8577 C   0  0  0  0  0  0  0  0  0  0  0  0
  -27.9917  -11.7566   19.7731 C   0  0  0  0  0  0  0  0  0  0  0  0
  -27.1699  -14.1003   18.5167 C   0  0  0  0  0  0  0  0  0  0  0  0
  -24.0634  -20.5256   19.1342 C   0  0  0  0  0  0  0  0  0  0  0  0
  -18.5549  -28.5607   23.6464 C   0  0  0  0  0  0  0  0  0  0  0  0
  -19.7815  -28.9321   23.0959 C   0  0  0  0  0  0  0  0  0  0  0  0
  -29.6182  -23.2576   21.6158 C   0  0  0  0  0  0  0  0  0  0  0  0
  -27.5260  -22.0539   21.5103 C   0  0  0  0  0  0  0  0  0  0  0  0
  -22.9232  -21.2146   18.7232 C   0  0  0  0  0  0  0  0  0  0  0  0
  -29.5631  -19.4773   20.7153 C   0  0  0  0  0  0  0  0  0  0  0  0
  -29.3138  -18.2023   20.2075 C   0  0  0  0  0  0  0  0  0  0  0  0
  -21.6599  -20.1661   20.4906 C   0  0  0  0  0  0  0  0  0  0  0  0
  -19.7912  -26.9193   21.7596 C   0  0  0  0  0  0  0  0  0  0  0  0
  -28.3278  -17.5554   22.3162 C   0  0  0  0  0  0  0  0  0  0  0  0
  -27.6873  -24.2795   20.5843 C   0  0  0  0  0  0  0  0  0  0  0  0
  -27.0169  -25.6239   18.5225 C   0  0  0  0  0  0  0  0  0  0  0  0
  -26.7738  -12.3466   20.1462 C   0  0  0  0  0  0  0  0  0  0  0  0
  -24.0077  -19.6419   20.2215 C   0  0  0  0  0  0  0  0  0  0  0  0
  -26.3515  -13.5265   19.5045 C   0  0  0  0  0  0  0  0  0  0  0  0
  -22.8014  -19.4690   20.9150 C   0  0  0  0  0  0  0  0  0  0  0  0
  -17.9464  -27.3686   23.2536 C   0  0  0  0  0  0  0  0  0  0  0  0
  -18.5646  -26.5479   22.3102 C   0  0  0  0  0  0  0  0  0  0  0  0
  -20.3997  -28.1114   22.1525 C   0  0  0  0  0  0  0  0  0  0  0  0
  -28.8670  -22.1145   21.8893 C   0  0  0  0  0  0  0  0  0  0  0  0
  -21.7205  -21.0328   19.3996 C   0  0  0  0  0  0  0  0  0  0  0  0
  -29.1949  -19.7914   22.0235 C   0  0  0  0  0  0  0  0  0  0  0  0
  -28.6961  -17.2414   21.0080 C   0  0  0  0  0  0  0  0  0  0  0  0
  -28.5772  -18.8305   22.8240 C   0  0  0  0  0  0  0  0  0  0  0  0
  -27.0772  -25.3977   19.9106 C   0  0  0  0  0  0  0  0  0  0  0  0
  -26.3388  -26.8118   18.3974 C   0  0  0  0  0  0  0  0  0  0  0  0
  -27.5279  -24.8311   17.4427 C   0  0  0  0  0  0  0  0  0  0  0  0
  -24.4918  -16.5238   20.6050 C   0  0  0  0  0  0  0  0  0  0  0  0
  -24.0979  -17.2444   23.7431 C   0  0  0  0  0  0  0  0  0  0  0  0
  -19.3657  -24.1223   20.1619 C   0  0  0  0  0  0  0  0  0  0  0  0
  -22.8017  -19.3555   26.0904 C   0  0  0  0  0  0  0  0  0  0  0  0
  -22.3826  -29.6393   21.8699 C   0  0  0  0  0  0  0  0  0  0  0  0
  -25.9198  -11.6568   21.1805 C   0  0  0  0  0  0  0  0  0  0  0  0
  -25.2529  -18.9265   20.6690 C   0  0  0  0  0  0  0  0  0  0  0  0
  -22.6936  -18.5472   22.1012 C   0  0  0  0  0  0  0  0  0  0  0  0
  -24.8276  -12.5503   21.7627 C   0  0  0  0  0  0  0  0  0  0  0  0
  -25.5058  -30.9116   20.7280 C   0  0  0  0  0  0  0  0  0  0  0  0
  -24.0974  -13.2951   20.6496 C   0  0  0  0  0  0  0  0  0  0  0  0
  -26.2553  -29.6633   20.2568 C   0  0  0  0  0  0  0  0  0  0  0  0
  -24.6592  -30.6305   21.9681 C   0  0  0  0  0  0  0  0  0  0  0  0
  -24.4869  -28.2457   21.3748 C   0  0  0  0  0  0  0  0  0  0  0  0
  -25.0550  -14.2116   19.8787 C   0  0  1  0  0  0  0  0  0  0  0  0
  -24.9600  -17.6607   21.4687 C   0  0  1  0  0  0  0  0  0  0  0  0
  -25.3026  -28.4633   20.0899 C   0  0  2  0  0  0  0  0  0  0  0  0
  -22.3567  -20.3171   28.3652 C   0  0  0  0  0  0  0  0  0  0  0  0
  -15.4585  -27.5347   23.0491 C   0  0  0  0  0  0  0  0  0  0  0  0
  -21.9597  -15.0700   23.8451 C   0  0  0  0  0  0  0  0  0  0  0  0
  -21.1664  -16.0491   26.0085 C   0  0  0  0  0  0  0  0  0  0  0  0
  -23.4796  -15.1326   25.8303 C   0  0  0  0  0  0  0  0  0  0  0  0
  -17.3823  -25.4899   19.4787 C   0  0  0  0  0  0  0  0  0  0  0  0
  -25.2129  -21.0671   25.9662 C   0  0  0  0  0  0  0  0  0  0  0  0
  -17.9275  -25.2614   21.8706 C   0  0  0  0  0  0  0  0  0  0  0  0
  -19.5880  -23.8633   18.6754 C   0  0  0  0  0  0  0  0  0  0  0  0
  -20.7988  -22.9819   18.3959 C   0  0  0  0  0  0  0  0  0  1  0  0
  -22.9195  -17.3153   24.6840 C   0  0  1  0  0  0  0  0  0  0  0  0
  -23.4169  -19.9880   27.3257 C   0  0  2  0  0  0  0  0  0  0  0  0
  -16.6335  -26.9916   23.8575 C   0  0  0  0  0  0  0  0  0  0  0  0
  -22.3825  -15.9077   25.0685 C   0  0  0  0  0  0  0  0  0  0  0  0
  -26.4849  -26.3643   20.6169 N   0  0  0  0  0  0  0  0  0  0  0  0
  -26.0460  -27.2095   19.6687 N   0  0  0  0  0  0  0  0  0  0  0  0
  -23.9372  -17.8654   22.4964 N   0  0  0  0  0  0  0  0  0  0  0  0
  -23.7784  -29.4839   21.7348 N   0  0  0  0  0  0  0  0  0  0  0  0
  -25.9706  -27.5445   17.3250 N   0  0  0  0  0  0  0  0  0  0  0  0
  -28.1990  -23.6393   17.7482 N   0  0  0  0  0  0  0  0  0  0  0  0
  -21.6448  -28.4892   21.5915 N   0  0  0  0  0  0  0  0  0  0  0  0
  -25.3190  -15.4172   20.6345 N   0  0  0  0  0  0  0  0  0  0  0  0
  -23.3526  -18.1206   25.8208 N   0  0  0  0  0  0  0  0  0  0  0  0
  -18.2683  -24.9262   20.4899 N   0  0  0  0  0  0  0  0  0  0  0  0
  -24.1271  -21.2473   26.9639 N   0  3  0  0  0  0  0  0  0  0  0  0
  -27.4078  -25.1779   16.2432 O   0  0  0  0  0  0  0  0  0  0  0  0
  -23.4561  -16.6412   19.9607 O   0  0  0  0  0  0  0  0  0  0  0  0
  -25.1258  -16.6657   24.1039 O   0  0  0  0  0  0  0  0  0  0  0  0
  -20.1260  -23.6369   21.0037 O   0  0  0  0  0  0  0  0  0  0  0  0
  -21.9181  -19.9007   25.4328 O   0  0  0  0  0  0  0  0  0  0  0  0
  -21.8771  -30.7208   22.1812 O   0  0  0  0  0  0  0  0  0  0  0  0
  -29.4424  -21.0579   22.5259 O   0  0  0  0  0  0  0  0  0  0  0  0
  -20.6059  -21.7036   19.0001 O   0  0  0  0  0  0  0  0  0  1  0  0
  -28.4554  -16.0175   20.5198 F   0  0  0  0  0  0  0  0  0  0  0  0
  -28.2201  -19.1267   24.0812 F   0  0  0  0  0  0  0  0  0  0  0  0
  -16.4848  -27.4494   25.1412 F   0  0  0  0  0  0  0  0  0  0  0  0
  -16.4611  -25.6352   23.9573 F   0  0  0  0  0  0  0  0  0  0  0  0
  1  2  1  0  0  0  0
  1  5  2  0  0  0  0
  2  6  2  0  0  0  0
  3 10  2  0  0  0  0
  3 18  1  0  0  0  0
  4 11  1  0  0  0  0
  4 18  2  0  0  0  0
  5 20  1  0  0  0  0
  6 22  1  0  0  0  0
  7 12  2  0  0  0  0
  7 21  1  0  0  0  0
  8  9  2  0  0  0  0
  8 24  1  0  0  0  0
  9 26  1  0  0  0  0
 10 27  1  0  0  0  0
 11 27  2  0  0  0  0
 12 28  1  0  0  0  0
 13 14  2  0  0  0  0
 13 29  1  0  0  0  0
 14 30  1  0  0  0  0
 15 23  1  0  0  0  0
 15 28  2  0  0  0  0
 16 25  1  0  0  0  0
 16 26  2  0  0  0  0
 17 30  2  0  0  0  0
 17 31  1  0  0  0  0
 18 32  1  0  0  0  0
 19 32  1  0  0  0  0
 19 33  2  0  0  0  0
 19 34  1  0  0  0  0
 20 22  2  0  0  0  0
 20 40  1  0  0  0  0
 21 23  2  0  0  0  0
 21 41  1  0  0  0  0
 22 49  1  0  0  0  0
 23 42  1  0  0  0  0
 24 25  2  0  0  0  0
 24 64  1  0  0  0  0
 25 59  1  0  0  0  0
 26 72  1  0  0  0  0
 27 83  1  0  0  0  0
 28 84  1  0  0  0  0
 29 31  2  0  0  0  0
 29 83  1  0  0  0  0
 30 85  1  0  0  0  0
 31 86  1  0  0  0  0
 32 66  2  0  0  0  0
 33 67  1  0  0  0  0
 33 70  1  0  0  0  0
 34 71  1  0  0  0  0
 34 77  2  0  0  0  0
 35 50  1  0  0  0  0
 35 73  1  0  0  0  0
 35 78  2  0  0  0  0
 36 62  1  0  0  0  0
 36 68  1  0  0  0  0
 36 79  2  0  0  0  0
 37 60  1  0  0  0  0
 37 75  1  0  0  0  0
 37 80  2  0  0  0  0
 38 63  1  0  0  0  0
 38 74  1  0  0  0  0
 38 81  2  0  0  0  0
 39 69  1  0  0  0  0
 39 72  1  0  0  0  0
 39 82  2  0  0  0  0
 40 43  1  0  0  0  0
 41 50  1  0  0  0  0
 42 68  1  0  0  0  0
 43 45  1  0  0  0  0
 44 46  1  0  0  0  0
 44 47  1  0  0  0  0
 45 49  1  0  0  0  0
 46 51  1  0  0  0  0
 47 69  1  0  0  0  0
 48 51  1  0  0  0  0
 48 69  1  0  0  0  0
 49 73  1  0  0  0  0
 50 68  1  0  0  0  0
 51 67  1  0  0  0  0
 52 63  1  0  0  0  0
 53 64  1  0  0  0  0
 54 65  1  0  0  0  0
 55 65  1  0  0  0  0
 56 65  1  0  0  0  0
 57 75  1  0  0  0  0
 58 76  1  0  0  0  0
 59 75  1  0  0  0  0
 60 61  1  0  0  0  0
 61 84  1  0  0  0  0
 62 65  1  0  0  0  0
 62 74  1  0  0  0  0
 63 76  1  0  0  0  0
 64 87  1  0  0  0  0
 64 88  1  0  0  0  0
 66 67  1  0  0  0  0
M  CHG  1  76   1
M  ISO  4  39 100  61 101  72 100  84 101
M  END
> <Batch ID>
0053

> <Smiles>
CNC(C)C(=O)NC(C(=O)N1Cc2cc([101O:1][101CH2:1]CC(=O)N(C)Cc3cc([100NH:0][100C:0](=O)N4CCCC(n5nc(-c6ccc(Oc7ccc(F)cc7F)cc6)c(C(N)=O)c5N)C4)ccc3C(C)(F)F)ccc2CC1C(=O)NC1CCCc2ccccc21)C(C)(C)C

> <Shape>
0.217

> <Color>
0.074

> <Negative vol penalty>
0.000

$$$$

  -OEChem-04042322433D

 84 92  0     1  0  0  0  0  0999 V2000
  -23.6232  -27.9381   19.3782 C   0  0  0  0  0  0  0  0  0  0  0  0
  -24.3280  -27.2306   20.3468 C   0  0  0  0  0  0  0  0  0  0  0  0
  -22.9934  -10.0479   19.9071 C   0  0  0  0  0  0  0  0  0  0  0  0
  -23.8106   -9.8953   22.1756 C   0  0  0  0  0  0  0  0  0  0  0  0
  -31.0332  -19.5814   21.7336 C   0  0  0  0  0  0  0  0  0  0  0  0
  -24.1425  -28.0601   18.0900 C   0  0  0  0  0  0  0  0  0  0  0  0
  -25.5519  -26.6438   20.0275 C   0  0  0  0  0  0  0  0  0  0  0  0
  -30.4118  -26.0318   23.7035 C   0  0  0  0  0  0  0  0  0  0  0  0
  -22.2003   -8.9199   20.1169 C   0  0  0  0  0  0  0  0  0  0  0  0
  -23.0175   -8.7673   22.3854 C   0  0  0  0  0  0  0  0  0  0  0  0
  -30.8818  -24.9642   24.4671 C   0  0  0  0  0  0  0  0  0  0  0  0
  -19.2542   -8.1882   21.6062 C   0  0  0  0  0  0  0  0  0  0  0  0
  -31.1454  -18.9024   20.5204 C   0  0  0  0  0  0  0  0  0  0  0  0
  -17.9347   -8.2306   21.1559 C   0  0  0  0  0  0  0  0  0  0  0  0
  -32.3846  -24.3560   22.6808 C   0  0  0  0  0  0  0  0  0  0  0  0
  -18.3644   -6.3369   19.7185 C   0  0  0  0  0  0  0  0  0  0  0  0
  -23.7986  -10.5357   20.9364 C   0  0  0  0  0  0  0  0  0  0  0  0
  -30.6806  -18.8876   22.8912 C   0  0  0  0  0  0  0  0  0  0  0  0
  -24.2611  -13.0444   20.9395 C   0  0  0  0  0  0  0  0  0  0  0  0
  -25.3780  -27.4826   17.7573 C   0  0  0  0  0  0  0  0  0  0  0  0
  -30.9178  -26.2634   22.4163 C   0  0  0  0  0  0  0  0  0  0  0  0
  -26.0875  -26.7570   18.7333 C   0  0  0  0  0  0  0  0  0  0  0  0
  -31.9212  -25.4288   21.9039 C   0  0  0  0  0  0  0  0  0  0  0  0
  -30.4402  -17.5148   22.8356 C   0  0  0  0  0  0  0  0  0  0  0  0
  -30.5525  -16.8357   21.6224 C   0  0  0  0  0  0  0  0  0  0  0  0
  -22.2123   -8.2796   21.3561 C   0  0  0  0  0  0  0  0  0  0  0  0
  -31.8663  -24.1244   23.9546 C   0  0  0  0  0  0  0  0  0  0  0  0
  -20.1288   -7.2202   21.1126 C   0  0  0  0  0  0  0  0  0  0  0  0
  -17.4898   -7.3049   20.2121 C   0  0  0  0  0  0  0  0  0  0  0  0
  -30.9050  -17.5295   20.4648 C   0  0  0  0  0  0  0  0  0  0  0  0
  -19.6839   -6.2945   20.1688 C   0  0  0  0  0  0  0  0  0  0  0  0
  -24.6186  -11.7006   20.7201 C   0  0  0  0  0  0  0  0  0  0  0  0
  -25.3792  -13.7593   20.5857 C   0  0  0  0  0  0  0  0  0  0  0  0
  -30.5705  -19.6391   24.1681 C   0  0  0  0  0  0  0  0  0  0  0  0
  -23.0285  -13.5970   21.4203 C   0  0  0  0  0  0  0  0  0  0  0  0
  -29.6752  -26.3011   19.4909 C   0  0  0  0  0  0  0  0  0  0  0  0
  -32.6364  -27.3387   18.6683 C   0  0  0  0  0  0  0  0  0  0  0  0
  -35.9630  -27.4935   19.4143 C   0  0  0  0  0  0  0  0  0  0  0  0
  -30.8929  -14.5316   20.6622 C   0  0  0  0  0  0  0  0  0  0  0  0
  -25.8763  -27.6011   16.3388 C   0  0  0  0  0  0  0  0  0  0  0  0
  -30.4193  -27.4353   21.6159 C   0  0  0  0  0  0  0  0  0  0  0  0
  -32.5118  -25.6467   20.5356 C   0  0  0  0  0  0  0  0  0  0  0  0
  -27.3578  -27.2677   16.1837 C   0  0  0  0  0  0  0  0  0  0  0  0
  -29.6014  -12.3046   18.2026 C   0  0  0  0  0  0  0  0  0  0  0  0
  -27.6962  -25.9805   16.9291 C   0  0  0  0  0  0  0  0  0  0  0  0
  -28.1605  -12.0595   18.6564 C   0  0  0  0  0  0  0  0  0  0  0  0
  -30.5568  -12.4245   19.3886 C   0  0  0  0  0  0  0  0  0  0  0  0
  -28.7235  -13.1640   20.8587 C   0  0  0  0  0  0  0  0  0  0  0  0
  -27.4302  -26.1273   18.4322 C   0  0  1  0  0  0  0  0  0  0  0  0
  -30.6386  -27.2705   20.1152 C   0  0  1  0  0  0  0  0  0  0  0  0
  -27.7137  -13.1009   19.7010 C   0  0  2  0  0  0  0  0  0  0  0  0
  -30.0632  -16.7713   24.0793 C   0  0  0  0  0  0  0  0  0  0  0  0
  -38.1404  -28.3771   18.5334 C   0  0  0  0  0  0  0  0  0  0  0  0
  -32.7253  -25.0750   16.6244 C   0  0  0  0  0  0  0  0  0  0  0  0
  -35.2019  -25.4070   16.4679 C   0  0  0  0  0  0  0  0  0  0  0  0
  -33.6543  -27.2505   15.8127 C   0  0  0  0  0  0  0  0  0  0  0  0
  -36.3570  -29.2173   21.7875 C   0  0  0  0  0  0  0  0  0  0  0  0
  -31.7824  -21.0298   25.8274 C   0  0  0  0  0  0  0  0  0  0  0  0
  -31.4130  -22.4877   25.6194 C   0  0  0  0  0  0  0  0  0  1  0  0
  -33.9274  -26.6719   18.2587 C   0  0  1  0  0  0  0  0  0  0  0  0
  -36.9400  -28.6554   19.4247 C   0  0  2  0  0  0  0  0  0  0  0  0
  -33.8649  -26.0956   16.8160 C   0  0  0  0  0  0  0  0  0  0  0  0
  -25.8661  -11.5670   20.2622 N   0  0  0  0  0  0  0  0  0  0  0  0
  -26.3024  -12.8362   20.1909 N   0  0  0  0  0  0  0  0  0  0  0  0
  -31.9871  -26.8021   19.7891 N   0  0  0  0  0  0  0  0  0  0  0  0
  -30.0717  -13.4322   20.3341 N   0  0  0  0  0  0  0  0  0  0  0  0
  -25.6529  -15.0812   20.5768 N   0  0  0  0  0  0  0  0  0  0  0  0
  -21.9820  -12.7204   21.7375 N   0  0  0  0  0  0  0  0  0  0  0  0
  -30.3128  -15.4412   21.5458 N   0  0  0  0  0  0  0  0  0  0  0  0
  -31.7237  -20.2827   24.5990 N   0  0  0  0  0  0  0  0  0  0  0  0
  -28.4947  -26.8780   19.0628 N   0  0  0  0  0  0  0  0  0  0  0  0
  -34.9802  -27.6612   18.4619 N   0  0  0  0  0  0  0  0  0  0  0  0
  -37.4309  -28.9069   20.8091 N   0  3  0  0  0  0  0  0  0  0  0  0
  -29.5024  -19.6383   24.7745 O   0  0  0  0  0  0  0  0  0  0  0  0
  -22.8546  -14.8327   21.5487 O   0  0  0  0  0  0  0  0  0  0  0  0
  -29.9808  -25.1177   19.4027 O   0  0  0  0  0  0  0  0  0  0  0  0
  -32.2232  -28.3048   18.0221 O   0  0  0  0  0  0  0  0  0  0  0  0
  -36.0640  -26.5315   20.1725 O   0  0  0  0  0  0  0  0  0  0  0  0
  -32.0167  -14.6711   20.1727 O   0  0  0  0  0  0  0  0  0  0  0  0
  -21.4383   -7.1789   21.5612 O   0  0  0  0  0  0  0  0  0  0  0  0
  -32.3263  -23.0812   24.6976 O   0  0  0  0  0  0  0  0  0  1  0  0
  -16.2223   -7.3448   19.7809 F   0  0  0  0  0  0  0  0  0  0  0  0
  -31.0149  -16.8884   19.2923 F   0  0  0  0  0  0  0  0  0  0  0  0
  -20.5192   -5.3615   19.6917 F   0  0  0  0  0  0  0  0  0  0  0  0
  1  2  1  0  0  0  0
  1  6  2  0  0  0  0
  2  7  2  0  0  0  0
  3  9  2  0  0  0  0
  3 17  1  0  0  0  0
  4 10  1  0  0  0  0
  4 17  2  0  0  0  0
  5 13  2  0  0  0  0
  5 18  1  0  0  0  0
  6 20  1  0  0  0  0
  7 22  1  0  0  0  0
  8 11  2  0  0  0  0
  8 21  1  0  0  0  0
  9 26  1  0  0  0  0
 10 26  2  0  0  0  0
 11 27  1  0  0  0  0
 12 14  2  0  0  0  0
 12 28  1  0  0  0  0
 13 30  1  0  0  0  0
 14 29  1  0  0  0  0
 15 23  1  0  0  0  0
 15 27  2  0  0  0  0
 16 29  2  0  0  0  0
 16 31  1  0  0  0  0
 17 32  1  0  0  0  0
 18 24  2  0  0  0  0
 18 34  1  0  0  0  0
 19 32  1  0  0  0  0
 19 33  2  0  0  0  0
 19 35  1  0  0  0  0
 20 22  2  0  0  0  0
 20 40  1  0  0  0  0
 21 23  2  0  0  0  0
 21 41  1  0  0  0  0
 22 49  1  0  0  0  0
 23 42  1  0  0  0  0
 24 25  1  0  0  0  0
 24 52  1  0  0  0  0
 25 30  2  0  0  0  0
 25 69  1  0  0  0  0
 26 80  1  0  0  0  0
 27 81  1  0  0  0  0
 28 31  2  0  0  0  0
 28 80  1  0  0  0  0
 29 82  1  0  0  0  0
 30 83  1  0  0  0  0
 31 84  1  0  0  0  0
 32 63  2  0  0  0  0
 33 64  1  0  0  0  0
 33 67  1  0  0  0  0
 34 70  1  0  0  0  0
 34 74  2  0  0  0  0
 35 68  1  0  0  0  0
 35 75  2  0  0  0  0
 36 50  1  0  0  0  0
 36 71  1  0  0  0  0
 36 76  2  0  0  0  0
 37 60  1  0  0  0  0
 37 65  1  0  0  0  0
 37 77  2  0  0  0  0
 38 61  1  0  0  0  0
 38 72  1  0  0  0  0
 38 78  2  0  0  0  0
 39 66  1  0  0  0  0
 39 69  1  0  0  0  0
 39 79  2  0  0  0  0
 40 43  1  0  0  0  0
 41 50  1  0  0  0  0
 42 65  1  0  0  0  0
 43 45  1  0  0  0  0
 44 46  1  0  0  0  0
 44 47  1  0  0  0  0
 45 49  1  0  0  0  0
 46 51  1  0  0  0  0
 47 66  1  0  0  0  0
 48 51  1  0  0  0  0
 48 66  1  0  0  0  0
 49 71  1  0  0  0  0
 50 65  1  0  0  0  0
 51 64  1  0  0  0  0
 53 61  1  0  0  0  0
 54 62  1  0  0  0  0
 55 62  1  0  0  0  0
 56 62  1  0  0  0  0
 57 73  1  0  0  0  0
 58 59  1  0  0  0  0
 58 70  1  0  0  0  0
 59 81  1  0  0  0  0
 60 62  1  0  0  0  0
 60 72  1  0  0  0  0
 61 73  1  0  0  0  0
 63 64  1  0  0  0  0
M  CHG  1  73   1
M  ISO  4  39 100  59 101  69 100  81 101
M  END
> <Batch ID>
0053

> <Smiles>
CNC(C)C(=O)NC(C(=O)N1Cc2cc([101O:1][101CH2:1]CNC(=O)c3ccc(F)c([100NH:0][100C:0](=O)N4CCCC(n5nc(-c6ccc(Oc7ccc(F)cc7F)cc6)c(C(N)=O)c5N)C4)c3C)ccc2CC1C(=O)NC1CCCc2ccccc21)C(C)(C)C

> <Shape>
0.226

> <Color>
0.197

> <Negative vol penalty>
0.000

$$$$

  -OEChem-04042322433D

 89 98  0     1  0  0  0  0  0999 V2000
  -22.4035  -32.5709   14.4319 C   0  0  0  0  0  0  0  0  0  0  0  0
  -23.4806  -31.8653   14.9586 C   0  0  0  0  0  0  0  0  0  0  0  0
  -31.0176  -17.2465   18.5475 C   0  0  0  0  0  0  0  0  0  0  0  0
  -23.9865   -8.8841   22.3340 C   0  0  0  0  0  0  0  0  0  0  0  0
  -22.4426   -9.9934   20.8431 C   0  0  0  0  0  0  0  0  0  0  0  0
  -21.8421  -33.6241   15.1525 C   0  0  0  0  0  0  0  0  0  0  0  0
  -23.9976  -32.2134   16.2060 C   0  0  0  0  0  0  0  0  0  0  0  0
  -24.8961  -28.1784   19.1312 C   0  0  0  0  0  0  0  0  0  0  0  0
  -31.2917  -18.5996   18.3483 C   0  0  0  0  0  0  0  0  0  0  0  0
  -29.9283  -16.8634   19.3301 C   0  0  0  0  0  0  0  0  0  0  0  0
  -23.7738   -7.6817   21.6597 C   0  0  0  0  0  0  0  0  0  0  0  0
  -22.2299   -8.7910   20.1687 C   0  0  0  0  0  0  0  0  0  0  0  0
  -26.0510  -27.4439   18.8655 C   0  0  0  0  0  0  0  0  0  0  0  0
  -23.3625   -4.2416   20.5552 C   0  0  0  0  0  0  0  0  0  0  0  0
  -23.1642   -3.0929   21.3213 C   0  0  0  0  0  0  0  0  0  0  0  0
  -27.1700  -28.5543   20.6914 C   0  0  0  0  0  0  0  0  0  0  0  0
  -21.2210   -4.1066   22.3380 C   0  0  0  0  0  0  0  0  0  0  0  0
  -23.3209  -10.0399   21.9257 C   0  0  0  0  0  0  0  0  0  0  0  0
  -23.2946  -11.5486   23.9826 C   0  0  0  0  0  0  0  0  0  0  0  0
  -22.3463  -33.9790   16.4137 C   0  0  0  0  0  0  0  0  0  0  0  0
  -24.8729  -29.1159   20.1738 C   0  0  0  0  0  0  0  0  0  0  0  0
  -23.4432  -33.2732   16.9437 C   0  0  0  0  0  0  0  0  0  0  0  0
  -26.0128  -29.2976   20.9699 C   0  0  0  0  0  0  0  0  0  0  0  0
  -30.4766  -19.5695   18.9318 C   0  0  0  0  0  0  0  0  0  0  0  0
  -29.1133  -17.8333   19.9136 C   0  0  0  0  0  0  0  0  0  0  0  0
  -22.8955   -7.6352   20.5771 C   0  0  0  0  0  0  0  0  0  0  0  0
  -27.1890  -27.6338   19.6438 C   0  0  0  0  0  0  0  0  0  0  0  0
  -22.4901   -5.3228   20.6806 C   0  0  0  0  0  0  0  0  0  0  0  0
  -22.0935   -3.0254   22.2127 C   0  0  0  0  0  0  0  0  0  0  0  0
  -21.4194   -5.2552   21.5720 C   0  0  0  0  0  0  0  0  0  0  0  0
  -29.3874  -19.1864   19.7145 C   0  0  0  0  0  0  0  0  0  0  0  0
  -23.5398  -11.2821   22.6222 C   0  0  0  0  0  0  0  0  0  0  0  0
  -23.6639  -12.8613   24.1473 C   0  0  0  0  0  0  0  0  0  0  0  0
  -30.3310  -23.7261   18.7733 C   0  0  0  0  0  0  0  0  0  0  0  0
  -31.6300  -21.7145   19.5125 C   0  0  0  0  0  0  0  0  0  0  0  0
  -32.4016  -21.2976   20.5339 C   0  0  0  0  0  0  0  0  0  0  0  0
  -29.8855  -24.9047   19.2335 C   0  0  0  0  0  0  0  0  0  0  0  0
  -22.7792  -10.6867   25.0059 C   0  0  0  0  0  0  0  0  0  0  0  0
  -24.4392  -32.2596   20.3544 C   0  0  0  0  0  0  0  0  0  0  0  0
  -24.5162  -31.6941   23.5477 C   0  0  0  0  0  0  0  0  0  0  0  0
  -25.5280  -29.6793   26.1096 C   0  0  0  0  0  0  0  0  0  0  0  0
  -27.6263  -16.0925   20.9826 C   0  0  0  0  0  0  0  0  0  0  0  0
  -21.7367  -35.1553   17.1344 C   0  0  0  0  0  0  0  0  0  0  0  0
  -23.6110  -29.8809   20.4645 C   0  0  0  0  0  0  0  0  0  0  0  0
  -26.0333  -30.2771   22.1138 C   0  0  0  0  0  0  0  0  0  0  0  0
  -31.6934  -23.1870   19.1294 C   0  0  0  0  0  0  0  0  0  0  0  0
  -29.4684  -22.8551   17.8943 C   0  0  0  0  0  0  0  0  0  0  0  0
  -22.1035  -35.2193   18.6148 C   0  0  0  0  0  0  0  0  0  0  0  0
  -23.8177  -16.5582   21.0290 C   0  0  0  0  0  0  0  0  0  0  0  0
  -23.6002  -34.9936   18.8042 C   0  0  0  0  0  0  0  0  0  0  0  0
  -23.4621  -15.6241   22.1833 C   0  0  0  0  0  0  0  0  0  0  0  0
  -30.1434  -21.5279   17.5209 C   0  0  0  0  0  0  0  0  0  0  0  0
  -25.2617  -17.0389   21.0989 C   0  0  0  0  0  0  0  0  0  0  0  0
  -25.6947  -14.6040   21.4725 C   0  0  0  0  0  0  0  0  0  0  0  0
  -24.0162  -33.6048   18.3045 C   0  0  1  0  0  0  0  0  0  0  0  0
  -23.8613  -31.1797   21.2248 C   0  0  1  0  0  0  0  0  0  0  0  0
  -24.6086  -14.6641   22.5578 C   0  0  2  0  0  0  0  0  0  0  0  0
  -25.4751  -29.4979   28.6119 C   0  0  0  0  0  0  0  0  0  0  0  0
  -26.6931  -33.8229   23.7455 C   0  0  0  0  0  0  0  0  0  0  0  0
  -27.2525  -32.9400   26.0206 C   0  0  0  0  0  0  0  0  0  0  0  0
  -24.9920  -33.8971   25.5772 C   0  0  0  0  0  0  0  0  0  0  0  0
  -24.0217  -27.1337   26.0092 C   0  0  0  0  0  0  0  0  0  0  0  0
  -25.5984  -31.6460   24.5991 C   0  0  1  0  0  0  0  0  0  0  0  0
  -24.7824  -29.1255   27.3104 C   0  0  2  0  0  0  0  0  0  0  0  0
  -26.1345  -33.0593   24.9629 C   0  0  0  0  0  0  0  0  0  0  0  0
  -24.0270  -12.3405   21.9691 N   0  0  0  0  0  0  0  0  0  0  0  0
  -24.0908  -13.2848   22.9231 N   0  0  0  0  0  0  0  0  0  0  0  0
  -30.7848  -20.9342   18.7081 N   0  0  0  0  0  0  0  0  0  0  0  0
  -24.7768  -31.0059   22.3543 N   0  0  0  0  0  0  0  0  0  0  0  0
  -26.2329  -15.9387   21.1855 N   0  0  0  0  0  0  0  0  0  0  0  0
  -23.6617  -13.6830   25.2183 N   0  0  0  0  0  0  0  0  0  0  0  0
  -21.3928  -10.6421   25.2062 N   0  0  0  0  0  0  0  0  0  0  0  0
  -28.0158  -17.4047   20.7015 N   0  0  0  0  0  0  0  0  0  0  0  0
  -23.6502  -32.5900   19.2692 N   0  0  0  0  0  0  0  0  0  0  0  0
  -25.0385  -30.9105   25.7278 N   0  0  0  0  0  0  0  0  0  0  0  0
  -24.7013  -27.6396   27.2296 N   0  3  0  0  0  0  0  0  0  0  0  0
  -23.5272   -9.9895   25.7324 O   0  0  0  0  0  0  0  0  0  0  0  0
  -25.5202  -32.7573   20.6468 O   0  0  0  0  0  0  0  0  0  0  0  0
  -23.4749  -32.3134   23.7796 O   0  0  0  0  0  0  0  0  0  0  0  0
  -26.4546  -29.0813   25.5671 O   0  0  0  0  0  0  0  0  0  0  0  0
  -28.4023  -15.1381   21.0660 O   0  0  0  0  0  0  0  0  0  0  0  0
  -28.2731  -25.5124   17.3024 O   0  0  0  0  0  0  0  0  0  0  0  0
  -27.3276  -24.6084   19.4662 O   0  0  0  0  0  0  0  0  0  0  0  0
  -22.6879   -6.4621   19.9187 O   0  0  0  0  0  0  0  0  0  0  0  0
  -28.3178  -26.9186   19.3863 O   0  0  0  0  0  0  0  0  0  1  0  0
  -21.9023   -1.9217   22.9472 F   0  0  0  0  0  0  0  0  0  0  0  0
  -20.5772   -6.2902   21.6959 F   0  0  0  0  0  0  0  0  0  0  0  0
  -28.3030  -25.4081   18.7492 S   0  0  0  0  0  0  0  0  0  1  0  0
  -28.3740  -20.3937   20.4406 Cl  0  0  0  0  0  0  0  0  0  0  0  0
  1  2  1  0  0  0  0
  1  6  2  0  0  0  0
  2  7  2  0  0  0  0
  3  9  2  0  0  0  0
  3 10  1  0  0  0  0
  4 11  2  0  0  0  0
  4 18  1  0  0  0  0
  5 12  1  0  0  0  0
  5 18  2  0  0  0  0
  6 20  1  0  0  0  0
  7 22  1  0  0  0  0
  8 13  2  0  0  0  0
  8 21  1  0  0  0  0
  9 24  1  0  0  0  0
 10 25  2  0  0  0  0
 11 26  1  0  0  0  0
 12 26  2  0  0  0  0
 13 27  1  0  0  0  0
 14 15  2  0  0  0  0
 14 28  1  0  0  0  0
 15 29  1  0  0  0  0
 16 23  1  0  0  0  0
 16 27  2  0  0  0  0
 17 29  2  0  0  0  0
 17 30  1  0  0  0  0
 18 32  1  0  0  0  0
 19 32  1  0  0  0  0
 19 33  2  0  0  0  0
 19 38  1  0  0  0  0
 20 22  2  0  0  0  0
 20 43  1  0  0  0  0
 21 23  2  0  0  0  0
 21 44  1  0  0  0  0
 22 55  1  0  0  0  0
 23 45  1  0  0  0  0
 24 31  2  0  0  0  0
 24 68  1  0  0  0  0
 25 31  1  0  0  0  0
 25 73  1  0  0  0  0
 26 84  1  0  0  0  0
 27 85  1  0  0  0  0
 28 30  2  0  0  0  0
 28 84  1  0  0  0  0
 29 86  1  0  0  0  0
 30 87  1  0  0  0  0
 31 89  1  0  0  0  0
 32 66  2  0  0  0  0
 33 67  1  0  0  0  0
 33 71  1  0  0  0  0
 34 37  2  0  0  0  0
 34 46  1  0  0  0  0
 34 47  1  0  0  0  0
 35 36  2  0  0  0  0
 35 46  1  0  0  0  0
 35 68  1  0  0  0  0
 37 88  1  0  0  0  0
 38 72  1  0  0  0  0
 38 77  2  0  0  0  0
 39 56  1  0  0  0  0
 39 74  1  0  0  0  0
 39 78  2  0  0  0  0
 40 63  1  0  0  0  0
 40 69  1  0  0  0  0
 40 79  2  0  0  0  0
 41 64  1  0  0  0  0
 41 75  1  0  0  0  0
 41 80  2  0  0  0  0
 42 70  1  0  0  0  0
 42 73  1  0  0  0  0
 42 81  2  0  0  0  0
 43 48  1  0  0  0  0
 44 56  1  0  0  0  0
 45 69  1  0  0  0  0
 47 52  1  0  0  0  0
 48 50  1  0  0  0  0
 49 51  1  0  0  0  0
 49 53  1  0  0  0  0
 50 55  1  0  0  0  0
 51 57  1  0  0  0  0
 52 68  1  0  0  0  0
 53 70  1  0  0  0  0
 54 57  1  0  0  0  0
 54 70  1  0  0  0  0
 55 74  1  0  0  0  0
 56 69  1  0  0  0  0
 57 67  1  0  0  0  0
 58 64  1  0  0  0  0
 59 65  1  0  0  0  0
 60 65  1  0  0  0  0
 61 65  1  0  0  0  0
 62 76  1  0  0  0  0
 63 65  1  0  0  0  0
 63 75  1  0  0  0  0
 64 76  1  0  0  0  0
 66 67  1  0  0  0  0
 82 88  2  0  0  0  0
 83 88  2  0  0  0  0
 85 88  1  0  0  0  0
M  CHG  1  76   1
M  ISO  4  42 100  73 100  85 101  88 101
M  END
> <Batch ID>
0053

> <Smiles>
C=C1CC(=C[101S:1](=O)(=O)[101O:1]c2ccc3c(c2)CN(C(=O)C(NC(=O)C(C)NC)C(C)(C)C)C(C(=O)NC2CCCc4ccccc42)C3)CCN1c1cccc([100NH:0][100C:0](=O)N2CCCC(n3nc(-c4ccc(Oc5ccc(F)cc5F)cc4)c(C(N)=O)c3N)C2)c1Cl

> <Shape>
0.263

> <Color>
0.072

> <Negative vol penalty>
0.000

$$$$

  -OEChem-04042322433D

 87 95  0     1  0  0  0  0  0999 V2000
  -28.3253  -24.6124   17.4183 C   0  0  0  0  0  0  0  0  0  0  0  0
  -27.2219  -24.7514   18.2540 C   0  0  0  0  0  0  0  0  0  0  0  0
  -26.4409  -12.9104   19.4325 C   0  0  0  0  0  0  0  0  0  0  0  0
  -24.9729  -13.3410   21.3025 C   0  0  0  0  0  0  0  0  0  0  0  0
  -29.4917  -25.3299   17.6804 C   0  0  0  0  0  0  0  0  0  0  0  0
  -27.2845  -25.6073   19.3531 C   0  0  0  0  0  0  0  0  0  0  0  0
  -23.1423  -28.4839   19.8137 C   0  0  0  0  0  0  0  0  0  0  0  0
  -26.2520  -11.5386   19.6000 C   0  0  0  0  0  0  0  0  0  0  0  0
  -24.7840  -11.9692   21.4700 C   0  0  0  0  0  0  0  0  0  0  0  0
  -22.0069  -27.8831   20.3554 C   0  0  0  0  0  0  0  0  0  0  0  0
  -22.9631   -9.5131   20.0304 C   0  0  0  0  0  0  0  0  0  0  0  0
  -21.6605   -9.0608   20.2402 C   0  0  0  0  0  0  0  0  0  0  0  0
  -24.6009  -24.8611   24.0624 C   0  0  0  0  0  0  0  0  0  0  0  0
  -22.4968  -28.8954   22.4895 C   0  0  0  0  0  0  0  0  0  0  0  0
  -26.5941  -23.4988   23.9723 C   0  0  0  0  0  0  0  0  0  0  0  0
  -22.3238   -8.1403   22.3733 C   0  0  0  0  0  0  0  0  0  0  0  0
  -25.8014  -13.8116   20.2837 C   0  0  0  0  0  0  0  0  0  0  0  0
  -24.0276  -24.0891   23.0520 C   0  0  0  0  0  0  0  0  0  0  0  0
  -25.2337  -16.1010   19.3121 C   0  0  0  0  0  0  0  0  0  0  0  0
  -29.5653  -26.2024   18.7777 C   0  0  0  0  0  0  0  0  0  0  0  0
  -23.9709  -29.2876   20.6100 C   0  0  0  0  0  0  0  0  0  0  0  0
  -28.4534  -26.3361   19.6309 C   0  0  0  0  0  0  0  0  0  0  0  0
  -23.6407  -29.5074   21.9549 C   0  0  0  0  0  0  0  0  0  0  0  0
  -24.7375  -23.0219   22.5018 C   0  0  0  0  0  0  0  0  0  0  0  0
  -26.0208  -22.7267   22.9619 C   0  0  0  0  0  0  0  0  0  0  0  0
  -25.4235  -11.0680   20.6188 C   0  0  0  0  0  0  0  0  0  0  0  0
  -21.6855  -28.0864   21.6943 C   0  0  0  0  0  0  0  0  0  0  0  0
  -23.9462   -9.2790   20.9919 C   0  0  0  0  0  0  0  0  0  0  0  0
  -21.3408   -8.3744   21.4117 C   0  0  0  0  0  0  0  0  0  0  0  0
  -25.8842  -24.5660   24.5225 C   0  0  0  0  0  0  0  0  0  0  0  0
  -23.6265   -8.5927   22.1634 C   0  0  0  0  0  0  0  0  0  0  0  0
  -25.9966  -15.2288   20.1115 C   0  0  0  0  0  0  0  0  0  0  0  0
  -25.8195  -17.3305   19.4899 C   0  0  0  0  0  0  0  0  0  0  0  0
  -22.6681  -24.4215   22.5809 C   0  0  0  0  0  0  0  0  0  0  0  0
  -24.0971  -15.8246   18.4829 C   0  0  0  0  0  0  0  0  0  0  0  0
  -27.0066  -29.1480   21.5422 C   0  0  0  0  0  0  0  0  0  0  0  0
  -26.3535  -32.0733   22.7827 C   0  0  0  0  0  0  0  0  0  0  0  0
  -24.0167  -34.2685   23.9520 C   0  0  0  0  0  0  0  0  0  0  0  0
  -28.0436  -21.2369   22.7757 C   0  0  0  0  0  0  0  0  0  0  0  0
  -30.8635  -26.9209   19.0479 C   0  0  0  0  0  0  0  0  0  0  0  0
  -25.1775  -29.9502   20.0037 C   0  0  0  0  0  0  0  0  0  0  0  0
  -24.4863  -30.3777   22.8470 C   0  0  0  0  0  0  0  0  0  0  0  0
  -30.7215  -28.0914   20.0175 C   0  0  0  0  0  0  0  0  0  0  0  0
  -30.1905  -18.6080   21.7000 C   0  0  0  0  0  0  0  0  0  0  0  0
  -29.8936  -27.6815   21.2314 C   0  0  0  0  0  0  0  0  0  0  0  0
  -29.2280  -17.5663   21.1250 C   0  0  0  0  0  0  0  0  0  0  0  0
  -29.6033  -19.3080   22.9243 C   0  0  0  0  0  0  0  0  0  0  0  0
  -27.3093  -18.8526   22.1502 C   0  0  0  0  0  0  0  0  0  0  0  0
  -28.4741  -27.2735   20.8187 C   0  0  1  0  0  0  0  0  0  0  0  0
  -26.2319  -30.3326   21.0378 C   0  0  1  0  0  0  0  0  0  0  0  0
  -27.8304  -18.1667   20.8767 C   0  0  2  0  0  0  0  0  0  0  0  0
  -24.1190  -22.1961   21.4173 C   0  0  0  0  0  0  0  0  0  0  0  0
  -23.7900  -36.5673   24.9324 C   0  0  0  0  0  0  0  0  0  0  0  0
  -27.3897  -31.0322   25.4571 C   0  0  0  0  0  0  0  0  0  0  0  0
  -26.2795  -32.9825   26.5672 C   0  0  0  0  0  0  0  0  0  0  0  0
  -28.0965  -33.3659   24.9016 C   0  0  0  0  0  0  0  0  0  0  0  0
  -18.3071  -26.1772   23.5068 C   0  0  0  0  0  0  0  0  0  0  0  0
  -19.8197  -25.6291   25.4220 C   0  0  0  0  0  0  0  0  0  0  0  0
  -22.3216  -35.1854   21.7059 C   0  0  0  0  0  0  0  0  0  0  0  0
  -20.2732  -24.6934   23.1168 C   0  0  0  0  0  0  0  0  0  0  0  0
  -20.6198  -27.1724   23.6138 C   0  0  0  0  0  0  0  0  0  1  0  0
  -25.8292  -32.5814   24.1040 C   0  0  1  0  0  0  0  0  0  0  0  0
  -23.7792  -35.7386   23.6573 C   0  0  2  0  0  0  0  0  0  0  0  0
  -26.8836  -32.4725   25.2414 C   0  0  0  0  0  0  0  0  0  0  0  0
  -19.7716  -25.9169   23.9109 C   0  0  0  0  0  0  0  0  0  0  0  0
  -26.9912  -15.8513   20.7496 N   0  0  0  0  0  0  0  0  0  0  0  0
  -26.8574  -17.1278   20.3512 N   0  0  0  0  0  0  0  0  0  0  0  0
  -25.6592  -30.9985   22.2094 N   0  0  0  0  0  0  0  0  0  0  0  0
  -28.2811  -19.8556   22.6130 N   0  0  0  0  0  0  0  0  0  0  0  0
  -25.5430  -18.5544   18.9919 N   0  0  0  0  0  0  0  0  0  0  0  0
  -22.5090  -24.7413   21.2966 N   0  0  0  0  0  0  0  0  0  0  0  0
  -23.6247  -14.5068   18.4146 N   0  0  0  0  0  0  0  0  0  0  0  0
  -26.7599  -21.6473   22.4176 N   0  0  0  0  0  0  0  0  0  0  0  0
  -27.6684  -28.4460   20.5530 N   0  0  0  0  0  0  0  0  0  0  0  0
  -25.3522  -33.9382   23.8593 N   0  0  0  0  0  0  0  0  0  0  0  0
  -21.6637  -24.3880   23.4645 N   0  3  0  0  0  0  0  0  0  0  0  0
  -22.4620  -35.9261   22.9860 N   0  3  0  0  0  0  0  0  0  0  0  0
  -23.5277  -16.7166   17.8095 O   0  0  0  0  0  0  0  0  0  0  0  0
  -27.0052  -28.8909   22.7403 O   0  0  0  0  0  0  0  0  0  0  0  0
  -27.3384  -32.6147   22.2744 O   0  0  0  0  0  0  0  0  0  0  0  0
  -23.1088  -33.4916   24.2395 O   0  0  0  0  0  0  0  0  0  0  0  0
  -28.9233  -22.0039   23.1756 O   0  0  0  0  0  0  0  0  0  0  0  0
  -25.2388   -9.7295   20.7824 O   0  0  0  0  0  0  0  0  0  0  0  0
  -20.5781  -27.5006   22.2257 O   0  0  0  0  0  0  0  0  0  1  0  0
  -20.0895   -7.9414   21.6138 F   0  0  0  0  0  0  0  0  0  0  0  0
  -26.4345  -25.3069   25.4934 F   0  0  0  0  0  0  0  0  0  0  0  0
  -24.5663   -8.3658   23.0913 F   0  0  0  0  0  0  0  0  0  0  0  0
  1  2  1  0  0  0  0
  1  5  2  0  0  0  0
  2  6  2  0  0  0  0
  3  8  2  0  0  0  0
  3 17  1  0  0  0  0
  4  9  1  0  0  0  0
  4 17  2  0  0  0  0
  5 20  1  0  0  0  0
  6 22  1  0  0  0  0
  7 10  2  0  0  0  0
  7 21  1  0  0  0  0
  8 26  1  0  0  0  0
  9 26  2  0  0  0  0
 10 27  1  0  0  0  0
 11 12  2  0  0  0  0
 11 28  1  0  0  0  0
 12 29  1  0  0  0  0
 13 18  1  0  0  0  0
 13 30  2  0  0  0  0
 14 23  1  0  0  0  0
 14 27  2  0  0  0  0
 15 25  2  0  0  0  0
 15 30  1  0  0  0  0
 16 29  2  0  0  0  0
 16 31  1  0  0  0  0
 17 32  1  0  0  0  0
 18 24  2  0  0  0  0
 18 34  1  0  0  0  0
 19 32  1  0  0  0  0
 19 33  2  0  0  0  0
 19 35  1  0  0  0  0
 20 22  2  0  0  0  0
 20 40  1  0  0  0  0
 21 23  2  0  0  0  0
 21 41  1  0  0  0  0
 22 49  1  0  0  0  0
 23 42  1  0  0  0  0
 24 25  1  0  0  0  0
 24 52  1  0  0  0  0
 25 73  1  0  0  0  0
 26 83  1  0  0  0  0
 27 84  1  0  0  0  0
 28 31  2  0  0  0  0
 28 83  1  0  0  0  0
 29 85  1  0  0  0  0
 30 86  1  0  0  0  0
 31 87  1  0  0  0  0
 32 66  2  0  0  0  0
 33 67  1  0  0  0  0
 33 70  1  0  0  0  0
 34 71  1  0  0  0  0
 34 76  2  0  0  0  0
 35 72  1  0  0  0  0
 35 78  2  0  0  0  0
 36 50  1  0  0  0  0
 36 74  1  0  0  0  0
 36 79  2  0  0  0  0
 37 62  1  0  0  0  0
 37 68  1  0  0  0  0
 37 80  2  0  0  0  0
 38 63  1  0  0  0  0
 38 75  1  0  0  0  0
 38 81  2  0  0  0  0
 39 69  1  0  0  0  0
 39 73  1  0  0  0  0
 39 82  2  0  0  0  0
 40 43  1  0  0  0  0
 41 50  1  0  0  0  0
 42 68  1  0  0  0  0
 43 45  1  0  0  0  0
 44 46  1  0  0  0  0
 44 47  1  0  0  0  0
 45 49  1  0  0  0  0
 46 51  1  0  0  0  0
 47 69  1  0  0  0  0
 48 51  1  0  0  0  0
 48 69  1  0  0  0  0
 49 74  1  0  0  0  0
 50 68  1  0  0  0  0
 51 67  1  0  0  0  0
 53 63  1  0  0  0  0
 54 64  1  0  0  0  0
 55 64  1  0  0  0  0
 56 64  1  0  0  0  0
 57 65  1  0  0  0  0
 58 65  1  0  0  0  0
 59 77  1  0  0  0  0
 60 65  1  0  0  0  0
 60 76  1  0  0  0  0
 61 65  1  0  0  0  0
 61 84  1  0  0  0  0
 62 64  1  0  0  0  0
 62 75  1  0  0  0  0
 63 77  1  0  0  0  0
 66 67  1  0  0  0  0
M  CHG  2  76   1  77   1
M  ISO  4  39 100  61 101  73 100  84 101
M  END
> <Batch ID>
0053

> <Smiles>
CNC(C)C(=O)NC(C(=O)N1Cc2cc([101O:1][101CH2:1]C(C)(C)CNC(=N)c3cc(F)cc([100NH:0][100C:0](=O)N4CCCC(n5nc(-c6ccc(Oc7ccc(F)cc7F)cc6)c(C(N)=O)c5N)C4)c3C)ccc2CC1C(=O)NC1CCCc2ccccc21)C(C)(C)C

> <Shape>
0.306

> <Color>
0.065

> <Negative vol penalty>
0.000

$$$$

  -OEChem-04042322433D

 85 93  0     1  0  0  0  0  0999 V2000
  -16.6535  -28.5307   23.9573 C   0  0  0  0  0  0  0  0  0  0  0  0
  -17.6702  -27.6025   23.7573 C   0  0  0  0  0  0  0  0  0  0  0  0
  -28.7216  -12.9897   20.7905 C   0  0  0  0  0  0  0  0  0  0  0  0
  -29.9960  -13.3760   18.7747 C   0  0  0  0  0  0  0  0  0  0  0  0
  -16.7683  -29.8143   23.4253 C   0  0  0  0  0  0  0  0  0  0  0  0
  -18.8021  -27.9571   23.0240 C   0  0  0  0  0  0  0  0  0  0  0  0
  -25.8412  -26.6799   22.6550 C   0  0  0  0  0  0  0  0  0  0  0  0
  -31.9537  -20.8867   16.3423 C   0  0  0  0  0  0  0  0  0  0  0  0
  -28.0564  -11.9337   20.1677 C   0  0  0  0  0  0  0  0  0  0  0  0
  -29.3309  -12.3199   18.1518 C   0  0  0  0  0  0  0  0  0  0  0  0
  -26.8199  -26.2976   21.7386 C   0  0  0  0  0  0  0  0  0  0  0  0
  -28.6814   -8.6992   19.4060 C   0  0  0  0  0  0  0  0  0  0  0  0
  -28.5275   -7.5148   20.1266 C   0  0  0  0  0  0  0  0  0  0  0  0
  -32.1126  -21.4847   15.0922 C   0  0  0  0  0  0  0  0  0  0  0  0
  -26.9452  -28.5684   20.9342 C   0  0  0  0  0  0  0  0  0  0  0  0
  -30.4695  -22.6729   17.0081 C   0  0  0  0  0  0  0  0  0  0  0  0
  -26.1267   -7.7180   19.9477 C   0  0  0  0  0  0  0  0  0  0  0  0
  -29.6914  -13.7109   20.0940 C   0  0  0  0  0  0  0  0  0  0  0  0
  -31.5728  -14.7356   21.4788 C   0  0  0  0  0  0  0  0  0  0  0  0
  -17.9065  -30.1878   22.6933 C   0  0  0  0  0  0  0  0  0  0  0  0
  -25.3986  -28.0094   22.7105 C   0  0  0  0  0  0  0  0  0  0  0  0
  -18.9317  -29.2465   22.4805 C   0  0  0  0  0  0  0  0  0  0  0  0
  -25.9626  -28.9655   21.8539 C   0  0  0  0  0  0  0  0  0  0  0  0
  -30.6284  -23.2710   15.7580 C   0  0  0  0  0  0  0  0  0  0  0  0
  -31.1320  -21.4808   17.3003 C   0  0  0  0  0  0  0  0  0  0  0  0
  -28.3611  -11.5988   18.8483 C   0  0  0  0  0  0  0  0  0  0  0  0
  -27.3700  -27.2412   20.8760 C   0  0  0  0  0  0  0  0  0  0  0  0
  -27.5579   -9.3930   18.9563 C   0  0  0  0  0  0  0  0  0  0  0  0
  -27.2502   -7.0242   20.3974 C   0  0  0  0  0  0  0  0  0  0  0  0
  -26.2806   -8.9024   19.2271 C   0  0  0  0  0  0  0  0  0  0  0  0
  -31.4500  -22.6768   14.8001 C   0  0  0  0  0  0  0  0  0  0  0  0
  -30.3784  -14.8023   20.7367 C   0  0  0  0  0  0  0  0  0  0  0  0
  -31.8049  -16.0308   21.8728 C   0  0  0  0  0  0  0  0  0  0  0  0
  -32.3987  -13.6042   21.7847 C   0  0  0  0  0  0  0  0  0  0  0  0
  -22.6126  -29.4673   22.2456 C   0  0  0  0  0  0  0  0  0  0  0  0
  -24.2462  -32.0722   23.2789 C   0  0  0  0  0  0  0  0  0  0  0  0
  -29.3544  -26.2029   17.2909 C   0  0  0  0  0  0  0  0  0  0  0  0
  -27.2553  -33.6273   23.6963 C   0  0  0  0  0  0  0  0  0  0  0  0
  -30.1921  -21.3304   19.6327 C   0  0  0  0  0  0  0  0  0  0  0  0
  -17.9644  -31.5721   22.0975 C   0  0  0  0  0  0  0  0  0  0  0  0
  -24.3613  -28.4112   23.7229 C   0  0  0  0  0  0  0  0  0  0  0  0
  -25.5366  -30.4098   21.8873 C   0  0  0  0  0  0  0  0  0  0  0  0
  -19.3645  -31.9849   21.6509 C   0  0  0  0  0  0  0  0  0  0  0  0
  -29.5022  -20.1016   22.9024 C   0  0  0  0  0  0  0  0  0  0  0  0
  -20.0237  -30.8627   20.8554 C   0  0  0  0  0  0  0  0  0  0  0  0
  -29.7632  -18.5980   22.7872 C   0  0  0  0  0  0  0  0  0  0  0  0
  -28.8721  -20.6669   21.6308 C   0  0  0  0  0  0  0  0  0  0  0  0
  -29.8600  -18.8622   20.2757 C   0  0  0  0  0  0  0  0  0  0  0  0
  -20.1860  -29.6011   21.7118 C   0  0  1  0  0  0  0  0  0  0  0  0
  -23.6168  -29.6870   23.3414 C   0  0  1  0  0  0  0  0  0  0  0  0
  -30.5539  -18.2597   21.5082 C   0  0  2  0  0  0  0  0  0  0  0  0
  -28.2685  -35.7652   24.5332 C   0  0  0  0  0  0  0  0  0  0  0  0
  -23.3388  -33.4946   20.7366 C   0  0  0  0  0  0  0  0  0  0  0  0
  -25.1069  -35.2177   21.1529 C   0  0  0  0  0  0  0  0  0  0  0  0
  -23.2629  -34.9015   22.8029 C   0  0  0  0  0  0  0  0  0  0  0  0
  -31.6789  -25.9998   16.3816 C   0  0  0  0  0  0  0  0  0  0  0  0
  -28.8111  -32.2109   25.7776 C   0  0  0  0  0  0  0  0  0  0  0  0
  -29.8981  -24.5536   15.4826 C   0  0  0  0  0  0  0  0  0  0  0  0
  -29.9033  -27.2904   18.2086 C   0  0  0  0  0  0  0  0  0  0  0  0
  -28.8452  -27.8891   19.1267 C   0  0  0  0  0  0  0  0  0  1  0  0
  -25.0739  -33.1472   22.6167 C   0  0  1  0  0  0  0  0  0  0  0  0
  -27.8620  -34.3437   24.8893 C   0  0  2  0  0  0  0  0  0  0  0  0
  -24.2025  -34.1627   21.8251 C   0  0  0  0  0  0  0  0  0  0  0  0
  -29.8860  -16.0416   20.6623 N   0  0  0  0  0  0  0  0  0  0  0  0
  -30.7754  -16.7657   21.3629 N   0  0  0  0  0  0  0  0  0  0  0  0
  -24.5148  -30.7521   22.8905 N   0  0  0  0  0  0  0  0  0  0  0  0
  -29.6776  -20.3104   20.4608 N   0  0  0  0  0  0  0  0  0  0  0  0
  -32.7872  -16.6013   22.6023 N   0  0  0  0  0  0  0  0  0  0  0  0
  -32.0141  -12.3462   21.3013 N   0  0  0  0  0  0  0  0  0  0  0  0
  -30.9700  -20.8726   18.5697 N   0  0  0  0  0  0  0  0  0  0  0  0
  -21.3094  -29.7432   22.6131 N   0  0  0  0  0  0  0  0  0  0  0  0
  -25.8819  -33.7484   23.6722 N   0  0  0  0  0  0  0  0  0  0  0  0
  -30.2748  -25.6094   16.4198 N   0  0  0  0  0  0  0  0  0  0  0  0
  -29.0701  -33.6161   25.3709 N   0  3  0  0  0  0  0  0  0  0  0  0
  -33.4379  -13.7032   22.4802 O   0  0  0  0  0  0  0  0  0  0  0  0
  -22.9921  -29.0779   21.1474 O   0  0  0  0  0  0  0  0  0  0  0  0
  -23.3978  -32.3916   24.1155 O   0  0  0  0  0  0  0  0  0  0  0  0
  -28.1631  -25.8856   17.3371 O   0  0  0  0  0  0  0  0  0  0  0  0
  -27.9322  -33.0241   22.8666 O   0  0  0  0  0  0  0  0  0  0  0  0
  -29.9822  -22.5235   19.8661 O   0  0  0  0  0  0  0  0  0  0  0  0
  -27.7124  -10.5682   18.2403 O   0  0  0  0  0  0  0  0  0  0  0  0
  -28.3249  -26.8706   19.9802 O   0  0  0  0  0  0  0  0  0  1  0  0
  -27.1026   -5.8861   21.0881 F   0  0  0  0  0  0  0  0  0  0  0  0
  -25.1976   -9.5639   18.7967 F   0  0  0  0  0  0  0  0  0  0  0  0
  -31.6706  -23.3868   13.2424 Cl  0  0  0  0  0  0  0  0  0  0  0  0
  1  2  1  0  0  0  0
  1  5  2  0  0  0  0
  2  6  2  0  0  0  0
  3  9  2  0  0  0  0
  3 18  1  0  0  0  0
  4 10  1  0  0  0  0
  4 18  2  0  0  0  0
  5 20  1  0  0  0  0
  6 22  1  0  0  0  0
  7 11  2  0  0  0  0
  7 21  1  0  0  0  0
  8 14  2  0  0  0  0
  8 25  1  0  0  0  0
  9 26  1  0  0  0  0
 10 26  2  0  0  0  0
 11 27  1  0  0  0  0
 12 13  2  0  0  0  0
 12 28  1  0  0  0  0
 13 29  1  0  0  0  0
 14 31  1  0  0  0  0
 15 23  1  0  0  0  0
 15 27  2  0  0  0  0
 16 24  1  0  0  0  0
 16 25  2  0  0  0  0
 17 29  2  0  0  0  0
 17 30  1  0  0  0  0
 18 32  1  0  0  0  0
 19 32  1  0  0  0  0
 19 33  2  0  0  0  0
 19 34  1  0  0  0  0
 20 22  2  0  0  0  0
 20 40  1  0  0  0  0
 21 23  2  0  0  0  0
 21 41  1  0  0  0  0
 22 49  1  0  0  0  0
 23 42  1  0  0  0  0
 24 31  2  0  0  0  0
 24 58  1  0  0  0  0
 25 70  1  0  0  0  0
 26 81  1  0  0  0  0
 27 82  1  0  0  0  0
 28 30  2  0  0  0  0
 28 81  1  0  0  0  0
 29 83  1  0  0  0  0
 30 84  1  0  0  0  0
 31 85  1  0  0  0  0
 32 64  2  0  0  0  0
 33 65  1  0  0  0  0
 33 68  1  0  0  0  0
 34 69  1  0  0  0  0
 34 75  2  0  0  0  0
 35 50  1  0  0  0  0
 35 71  1  0  0  0  0
 35 76  2  0  0  0  0
 36 61  1  0  0  0  0
 36 66  1  0  0  0  0
 36 77  2  0  0  0  0
 37 59  1  0  0  0  0
 37 73  1  0  0  0  0
 37 78  2  0  0  0  0
 38 62  1  0  0  0  0
 38 72  1  0  0  0  0
 38 79  2  0  0  0  0
 39 67  1  0  0  0  0
 39 70  1  0  0  0  0
 39 80  2  0  0  0  0
 40 43  1  0  0  0  0
 41 50  1  0  0  0  0
 42 66  1  0  0  0  0
 43 45  1  0  0  0  0
 44 46  1  0  0  0  0
 44 47  1  0  0  0  0
 45 49  1  0  0  0  0
 46 51  1  0  0  0  0
 47 67  1  0  0  0  0
 48 51  1  0  0  0  0
 48 67  1  0  0  0  0
 49 71  1  0  0  0  0
 50 66  1  0  0  0  0
 51 65  1  0  0  0  0
 52 62  1  0  0  0  0
 53 63  1  0  0  0  0
 54 63  1  0  0  0  0
 55 63  1  0  0  0  0
 56 73  1  0  0  0  0
 57 74  1  0  0  0  0
 58 73  1  0  0  0  0
 59 60  1  0  0  0  0
 60 82  1  0  0  0  0
 61 63  1  0  0  0  0
 61 72  1  0  0  0  0
 62 74  1  0  0  0  0
 64 65  1  0  0  0  0
M  CHG  1  74   1
M  ISO  4  39 100  60 101  70 100  82 101
M  END
> <Batch ID>
0053

> <Smiles>
CNC(C)C(=O)NC(C(=O)N1Cc2cc([101O:1][101CH2:1]CC(=O)N(C)Cc3cc([100NH:0][100C:0](=O)N4CCCC(n5nc(-c6ccc(Oc7ccc(F)cc7F)cc6)c(C(N)=O)c5N)C4)ccc3Cl)ccc2CC1C(=O)NC1CCCc2ccccc21)C(C)(C)C

> <Shape>
0.262

> <Color>
0.104

> <Negative vol penalty>
0.000

$$$$

  -OEChem-04042322433D

 89 97  0     1  0  0  0  0  0999 V2000
  -21.3053  -16.8514   11.2356 C   0  0  0  0  0  0  0  0  0  0  0  0
  -22.1319  -16.4399   12.2761 C   0  0  0  0  0  0  0  0  0  0  0  0
  -26.6092  -28.6938   19.1773 C   0  0  0  0  0  0  0  0  0  0  0  0
  -26.6103  -27.6292   21.3462 C   0  0  0  0  0  0  0  0  0  0  0  0
  -21.0638  -18.2097   11.0341 C   0  0  0  0  0  0  0  0  0  0  0  0
  -22.7185  -17.3866   13.1152 C   0  0  0  0  0  0  0  0  0  0  0  0
  -22.4053  -16.1081   18.0052 C   0  0  0  0  0  0  0  0  0  0  0  0
  -30.0272  -16.9081   20.5944 C   0  0  0  0  0  0  0  0  0  0  0  0
  -29.9750  -18.2173   20.1161 C   0  0  0  0  0  0  0  0  0  0  0  0
  -25.3657  -29.2607   19.4562 C   0  0  0  0  0  0  0  0  0  0  0  0
  -25.3667  -28.1962   21.6251 C   0  0  0  0  0  0  0  0  0  0  0  0
  -23.3034  -15.1491   18.4714 C   0  0  0  0  0  0  0  0  0  0  0  0
  -22.1301  -27.6118   20.8418 C   0  0  0  0  0  0  0  0  0  0  0  0
  -21.1566  -26.7909   21.4109 C   0  0  0  0  0  0  0  0  0  0  0  0
  -24.6811  -16.8988   19.3987 C   0  0  0  0  0  0  0  0  0  0  0  0
  -31.0509  -17.5130   18.0708 C   0  0  0  0  0  0  0  0  0  0  0  0
  -21.0527  -28.2482   23.3351 C   0  0  0  0  0  0  0  0  0  0  0  0
  -27.2315  -27.8780   20.1223 C   0  0  0  0  0  0  0  0  0  0  0  0
  -29.7822  -27.8436   20.1051 C   0  0  0  0  0  0  0  0  0  0  0  0
  -21.6400  -19.1731   11.8771 C   0  0  0  0  0  0  0  0  0  0  0  0
  -22.6442  -17.4726   18.2232 C   0  0  0  0  0  0  0  0  0  0  0  0
  -22.4856  -18.7592   12.9240 C   0  0  0  0  0  0  0  0  0  0  0  0
  -23.7831  -17.8730   18.9365 C   0  0  0  0  0  0  0  0  0  0  0  0
  -30.5913  -15.9012   19.8109 C   0  0  0  0  0  0  0  0  0  0  0  0
  -31.1031  -16.2037   18.5491 C   0  0  0  0  0  0  0  0  0  0  0  0
  -30.4868  -18.5197   18.8543 C   0  0  0  0  0  0  0  0  0  0  0  0
  -24.7444  -29.0120   20.6801 C   0  0  0  0  0  0  0  0  0  0  0  0
  -24.4430  -15.5445   19.1657 C   0  0  0  0  0  0  0  0  0  0  0  0
  -22.5651  -28.7508   21.5193 C   0  0  0  0  0  0  0  0  0  0  0  0
  -20.6178  -27.1091   22.6575 C   0  0  0  0  0  0  0  0  0  0  0  0
  -22.0263  -29.0690   22.7660 C   0  0  0  0  0  0  0  0  0  0  0  0
  -28.5158  -27.2916   19.8346 C   0  0  0  0  0  0  0  0  0  0  0  0
  -30.6719  -26.9041   19.6445 C   0  0  0  0  0  0  0  0  0  0  0  0
  -30.1238  -29.0939   20.7181 C   0  0  0  0  0  0  0  0  0  0  0  0
  -23.1269  -19.9929   16.3474 C   0  0  0  0  0  0  0  0  0  0  0  0
  -26.1160  -12.3735   19.9012 C   0  0  0  0  0  0  0  0  0  0  0  0
  -23.0173  -21.6139   19.1550 C   0  0  0  0  0  0  0  0  0  0  0  0
  -28.3498  -13.5353   20.2155 C   0  0  0  0  0  0  0  0  0  0  0  0
  -23.3931  -21.5625   22.5466 C   0  0  0  0  0  0  0  0  0  0  0  0
  -29.9062  -20.9740   19.0086 C   0  0  0  0  0  0  0  0  0  0  0  0
  -21.3876  -20.6322   11.5909 C   0  0  0  0  0  0  0  0  0  0  0  0
  -21.6520  -18.4932   17.7371 C   0  0  0  0  0  0  0  0  0  0  0  0
  -24.0752  -19.3242   19.2144 C   0  0  0  0  0  0  0  0  0  0  0  0
  -21.7474  -21.5522   12.7547 C   0  0  0  0  0  0  0  0  0  0  0  0
  -30.2740  -23.5452   16.1841 C   0  0  0  0  0  0  0  0  0  0  0  0
  -23.1156  -21.1863   13.3212 C   0  0  0  0  0  0  0  0  0  0  0  0
  -30.6779  -24.7676   17.0050 C   0  0  0  0  0  0  0  0  0  0  0  0
  -30.5870  -22.2384   16.9019 C   0  0  0  0  0  0  0  0  0  0  0  0
  -29.4722  -23.4148   18.8069 C   0  0  0  0  0  0  0  0  0  0  0  0
  -23.1203  -19.7547   13.8707 C   0  0  1  0  0  0  0  0  0  0  0  0
  -22.2583  -19.8829   17.5685 C   0  0  1  0  0  0  0  0  0  0  0  0
  -30.4081  -24.5977   18.5133 C   0  0  2  0  0  0  0  0  0  0  0  0
  -23.2737  -23.0495   24.5646 C   0  0  0  0  0  0  0  0  0  0  0  0
  -33.2087  -14.9977   17.9399 C   0  0  0  0  0  0  0  0  0  0  0  0
  -25.7109  -22.8380   18.4094 C   0  0  0  0  0  0  0  0  0  0  0  0
  -25.9789  -23.5315   20.8001 C   0  0  0  0  0  0  0  0  0  0  0  0
  -24.0898  -24.4359   19.4452 C   0  0  0  0  0  0  0  0  0  0  0  0
  -21.2222  -19.9505   23.7498 C   0  0  0  0  0  0  0  0  0  0  0  0
  -30.6369  -14.4998   20.3475 C   0  0  0  0  0  0  0  0  0  0  0  0
  -27.5250  -12.5681   19.3941 C   0  0  0  0  0  0  0  0  0  0  0  0
  -25.0137  -13.2433   19.3524 C   0  0  0  0  0  0  0  0  0  1  0  0
  -24.0334  -22.0218   20.1943 C   0  0  1  0  0  0  0  0  0  0  0  0
  -22.5121  -22.0877   23.6658 C   0  0  2  0  0  0  0  0  0  0  0  0
  -31.7098  -15.1418   17.6919 C   0  0  0  0  0  0  0  0  0  0  0  0
  -24.9490  -23.1795   19.7055 C   0  0  0  0  0  0  0  0  0  0  0  0
  -28.5900  -26.0942   19.2474 N   0  0  0  0  0  0  0  0  0  0  0  0
  -25.8473  -11.5111   20.8271 N   0  0  0  0  0  0  0  0  0  0  0  0
  -29.9138  -25.8862   19.1451 N   0  0  0  0  0  0  0  0  0  0  0  0
  -23.0782  -20.2846   18.7133 N   0  0  0  0  0  0  0  0  0  0  0  0
  -30.0041  -22.1659   18.2495 N   0  0  0  0  0  0  0  0  0  0  0  0
  -32.0209  -26.8577   19.6218 N   0  0  0  0  0  0  0  0  0  0  0  0
  -29.0865  -29.9401   21.1332 N   0  0  0  0  0  0  0  0  0  0  0  0
  -30.4322  -19.8496   18.3671 N   0  0  0  0  0  0  0  0  0  0  0  0
  -22.4727  -19.7077   15.1641 N   0  0  0  0  0  0  0  0  0  0  0  0
  -29.6433  -13.6521   19.7304 N   0  0  0  0  0  0  0  0  0  0  0  0
  -23.2789  -22.3273   21.4050 N   0  0  0  0  0  0  0  0  0  0  0  0
  -22.0098  -20.9609   24.5018 N   0  3  0  0  0  0  0  0  0  0  0  0
  -31.3137  -29.4575   20.8778 O   0  0  0  0  0  0  0  0  0  0  0  0
  -24.3031  -20.3144   16.4696 O   0  0  0  0  0  0  0  0  0  0  0  0
  -22.1952  -22.4421   18.7553 O   0  0  0  0  0  0  0  0  0  0  0  0
  -27.9054  -14.1210   21.1993 O   0  0  0  0  0  0  0  0  0  0  0  0
  -24.1135  -20.5749   22.6737 O   0  0  0  0  0  0  0  0  0  0  0  0
  -29.4084  -20.9634   20.1364 O   0  0  0  0  0  0  0  0  0  0  0  0
  -23.5311  -29.5652   20.9527 O   0  0  0  0  0  0  0  0  0  0  0  0
  -25.3217  -14.6105   19.6213 O   0  0  0  0  0  0  0  0  0  1  0  0
  -19.6818  -26.3215   23.2032 F   0  0  0  0  0  0  0  0  0  0  0  0
  -22.4393  -30.1626   23.4212 F   0  0  0  0  0  0  0  0  0  0  0  0
  -31.5443  -15.3778   16.3516 F   0  0  0  0  0  0  0  0  0  0  0  0
  -31.1479  -13.9074   17.8925 F   0  0  0  0  0  0  0  0  0  0  0  0
  1  2  1  0  0  0  0
  1  5  2  0  0  0  0
  2  6  2  0  0  0  0
  3 10  2  0  0  0  0
  3 18  1  0  0  0  0
  4 11  1  0  0  0  0
  4 18  2  0  0  0  0
  5 20  1  0  0  0  0
  6 22  1  0  0  0  0
  7 12  2  0  0  0  0
  7 21  1  0  0  0  0
  8  9  2  0  0  0  0
  8 24  1  0  0  0  0
  9 26  1  0  0  0  0
 10 27  1  0  0  0  0
 11 27  2  0  0  0  0
 12 28  1  0  0  0  0
 13 14  2  0  0  0  0
 13 29  1  0  0  0  0
 14 30  1  0  0  0  0
 15 23  1  0  0  0  0
 15 28  2  0  0  0  0
 16 25  1  0  0  0  0
 16 26  2  0  0  0  0
 17 30  2  0  0  0  0
 17 31  1  0  0  0  0
 18 32  1  0  0  0  0
 19 32  1  0  0  0  0
 19 33  2  0  0  0  0
 19 34  1  0  0  0  0
 20 22  2  0  0  0  0
 20 41  1  0  0  0  0
 21 23  2  0  0  0  0
 21 42  1  0  0  0  0
 22 50  1  0  0  0  0
 23 43  1  0  0  0  0
 24 25  2  0  0  0  0
 24 59  1  0  0  0  0
 25 64  1  0  0  0  0
 26 73  1  0  0  0  0
 27 84  1  0  0  0  0
 28 85  1  0  0  0  0
 29 31  2  0  0  0  0
 29 84  1  0  0  0  0
 30 86  1  0  0  0  0
 31 87  1  0  0  0  0
 32 66  2  0  0  0  0
 33 68  1  0  0  0  0
 33 71  1  0  0  0  0
 34 72  1  0  0  0  0
 34 78  2  0  0  0  0
 35 51  1  0  0  0  0
 35 74  1  0  0  0  0
 35 79  2  0  0  0  0
 36 60  1  0  0  0  0
 36 61  1  0  0  0  0
 36 67  2  0  0  0  0
 37 62  1  0  0  0  0
 37 69  1  0  0  0  0
 37 80  2  0  0  0  0
 38 60  1  0  0  0  0
 38 75  1  0  0  0  0
 38 81  2  0  0  0  0
 39 63  1  0  0  0  0
 39 76  1  0  0  0  0
 39 82  2  0  0  0  0
 40 70  1  0  0  0  0
 40 73  1  0  0  0  0
 40 83  2  0  0  0  0
 41 44  1  0  0  0  0
 42 51  1  0  0  0  0
 43 69  1  0  0  0  0
 44 46  1  0  0  0  0
 45 47  1  0  0  0  0
 45 48  1  0  0  0  0
 46 50  1  0  0  0  0
 47 52  1  0  0  0  0
 48 70  1  0  0  0  0
 49 52  1  0  0  0  0
 49 70  1  0  0  0  0
 50 74  1  0  0  0  0
 51 69  1  0  0  0  0
 52 68  1  0  0  0  0
 53 63  1  0  0  0  0
 54 64  1  0  0  0  0
 55 65  1  0  0  0  0
 56 65  1  0  0  0  0
 57 65  1  0  0  0  0
 58 77  1  0  0  0  0
 59 75  1  0  0  0  0
 61 85  1  0  0  0  0
 62 65  1  0  0  0  0
 62 76  1  0  0  0  0
 63 77  1  0  0  0  0
 64 88  1  0  0  0  0
 64 89  1  0  0  0  0
 66 68  1  0  0  0  0
M  CHG  1  77   1
M  ISO  4  40 100  61 101  73 100  85 101
M  END
> <Batch ID>
0053

> <Smiles>
CNC(C)C(=O)NC(C(=O)N1Cc2cc([101O:1][101CH2:1]C(=N)CC(=O)NCc3ccc([100NH:0][100C:0](=O)N4CCCC(n5nc(-c6ccc(Oc7ccc(F)cc7F)cc6)c(C(N)=O)c5N)C4)cc3C(C)(F)F)ccc2CC1C(=O)NC1CCCc2ccccc21)C(C)(C)C

> <Shape>
0.215

> <Color>
0.060

> <Negative vol penalty>
0.000

$$$$

  -OEChem-04042322433D

 87 96  0     1  0  0  0  0  0999 V2000
  -28.1748  -36.3667   19.3503 C   0  0  0  0  0  0  0  0  0  0  0  0
  -28.4473  -35.0268   19.6069 C   0  0  0  0  0  0  0  0  0  0  0  0
  -27.9503  -13.8099   16.4655 C   0  0  0  0  0  0  0  0  0  0  0  0
  -26.5383  -15.1035   17.9386 C   0  0  0  0  0  0  0  0  0  0  0  0
  -29.2101  -21.0006   18.2093 C   0  0  0  0  0  0  0  0  0  0  0  0
  -27.1473  -37.0119   20.0372 C   0  0  0  0  0  0  0  0  0  0  0  0
  -27.6931  -34.3316   20.5515 C   0  0  0  0  0  0  0  0  0  0  0  0
  -26.3012  -29.7408   18.9291 C   0  0  0  0  0  0  0  0  0  0  0  0
  -29.3834  -19.8503   18.9790 C   0  0  0  0  0  0  0  0  0  0  0  0
  -27.3023  -14.3612   15.3602 C   0  0  0  0  0  0  0  0  0  0  0  0
  -25.8904  -15.6549   16.8333 C   0  0  0  0  0  0  0  0  0  0  0  0
  -27.2640  -28.7332   18.9669 C   0  0  0  0  0  0  0  0  0  0  0  0
  -27.3750  -17.2592   13.6197 C   0  0  0  0  0  0  0  0  0  0  0  0
  -28.1654  -17.7016   12.5590 C   0  0  0  0  0  0  0  0  0  0  0  0
  -26.2990  -27.8962   21.0132 C   0  0  0  0  0  0  0  0  0  0  0  0
  -27.0547  -16.1451   11.0822 C   0  0  0  0  0  0  0  0  0  0  0  0
  -27.5683  -14.1810   17.7547 C   0  0  0  0  0  0  0  0  0  0  0  0
  -29.1904  -22.2535   18.8221 C   0  0  0  0  0  0  0  0  0  0  0  0
  -28.3125  -12.2497   19.2460 C   0  0  0  0  0  0  0  0  0  0  0  0
  -26.3738  -36.3216   20.9837 C   0  0  0  0  0  0  0  0  0  0  0  0
  -25.3351  -29.8404   19.9406 C   0  0  0  0  0  0  0  0  0  0  0  0
  -26.6551  -34.9685   21.2527 C   0  0  0  0  0  0  0  0  0  0  0  0
  -25.3235  -28.9044   20.9846 C   0  0  0  0  0  0  0  0  0  0  0  0
  -29.5172  -21.2059   20.9744 C   0  0  0  0  0  0  0  0  0  0  0  0
  -29.3439  -22.3561   20.2047 C   0  0  0  0  0  0  0  0  0  0  0  0
  -29.5369  -19.9530   20.3616 C   0  0  0  0  0  0  0  0  0  0  0  0
  -26.2724  -15.2838   15.5441 C   0  0  0  0  0  0  0  0  0  0  0  0
  -27.2648  -27.8124   20.0106 C   0  0  0  0  0  0  0  0  0  0  0  0
  -26.4245  -16.2597   13.4118 C   0  0  0  0  0  0  0  0  0  0  0  0
  -28.0052  -17.1446   11.2902 C   0  0  0  0  0  0  0  0  0  0  0  0
  -26.2643  -15.7027   12.1430 C   0  0  0  0  0  0  0  0  0  0  0  0
  -28.2369  -13.6114   18.8969 C   0  0  0  0  0  0  0  0  0  0  0  0
  -29.0511  -12.2325   20.4038 C   0  0  0  0  0  0  0  0  0  0  0  0
  -30.2594  -24.6475   20.5241 C   0  0  0  0  0  0  0  0  0  0  0  0
  -29.8127  -23.7506   16.9818 C   0  0  0  0  0  0  0  0  0  0  0  0
  -29.0061  -23.4311   17.9816 C   0  0  0  0  0  0  0  0  0  0  0  0
  -27.7641  -11.1028   18.5829 C   0  0  0  0  0  0  0  0  0  0  0  0
  -24.5786  -32.0354   22.1116 C   0  0  0  0  0  0  0  0  0  0  0  0
  -22.0993  -30.0302   22.7067 C   0  0  0  0  0  0  0  0  0  0  0  0
  -20.8349  -26.8636   22.5612 C   0  0  0  0  0  0  0  0  0  0  0  0
  -30.3061  -17.5722   20.7216 C   0  0  0  0  0  0  0  0  0  0  0  0
  -25.3045  -37.0742   21.7353 C   0  0  0  0  0  0  0  0  0  0  0  0
  -24.2870  -30.9170   19.8711 C   0  0  0  0  0  0  0  0  0  0  0  0
  -24.2954  -28.9556   22.0841 C   0  0  0  0  0  0  0  0  0  0  0  0
  -30.0612  -25.9415   21.2969 C   0  0  0  0  0  0  0  0  0  0  0  0
  -24.3077  -36.1651   22.4496 C   0  0  0  0  0  0  0  0  0  0  0  0
  -29.7755  -15.4723   23.9115 C   0  0  0  0  0  0  0  0  0  0  0  0
  -25.0396  -35.0629   23.2089 C   0  0  0  0  0  0  0  0  0  0  0  0
  -29.2818  -14.2946   23.0808 C   0  0  0  0  0  0  0  0  0  0  0  0
  -27.6665  -25.2292   21.7793 C   0  0  0  0  0  0  0  0  0  0  0  0
  -29.7686  -16.7493   23.0756 C   0  0  0  0  0  0  0  0  0  0  0  0
  -28.3881  -23.8919   21.9435 C   0  0  0  0  0  0  0  0  0  0  0  0
  -31.0090  -15.3042   21.4615 C   0  0  0  0  0  0  0  0  0  0  0  0
  -25.8430  -34.1738   22.2521 C   0  0  1  0  0  0  0  0  0  0  0  0
  -23.6653  -31.2342   21.2276 C   0  0  1  0  0  0  0  0  0  0  0  0
  -30.1677  -14.0679   21.8394 C   0  0  2  0  0  0  0  0  0  0  0  0
  -28.5978  -26.3572   21.3399 C   0  0  2  0  0  0  0  0  0  1  0  0
  -29.6824  -21.3123   22.4594 C   0  0  0  0  0  0  0  0  0  0  0  0
  -18.7969  -25.5269   23.1587 C   0  0  0  0  0  0  0  0  0  0  0  0
  -22.9445  -30.0567   25.6384 C   0  0  0  0  0  0  0  0  0  0  0  0
  -21.5229  -28.0268   25.9944 C   0  0  0  0  0  0  0  0  0  0  0  0
  -20.4744  -30.1692   25.2638 C   0  0  0  0  0  0  0  0  0  0  0  0
  -20.3436  -26.1325   19.7357 C   0  0  0  0  0  0  0  0  0  0  0  0
  -21.8739  -28.8510   23.6219 C   0  0  1  0  0  0  0  0  0  0  0  0
  -19.4970  -26.3345   22.0769 C   0  0  2  0  0  0  0  0  0  0  0  0
  -21.7246  -29.2759   25.1101 C   0  0  0  0  0  0  0  0  0  0  0  0
  -28.8763  -14.4020   19.7630 N   0  0  0  0  0  0  0  0  0  0  0  0
  -29.3607  -13.5343   20.6678 N   0  0  0  0  0  0  0  0  0  0  0  0
  -29.3249  -23.6446   20.8436 N   0  0  0  0  0  0  0  0  0  0  0  0
  -23.2953  -30.0305   21.9751 N   0  0  0  0  0  0  0  0  0  0  0  0
  -30.3238  -16.5720   21.7257 N   0  0  0  0  0  0  0  0  0  0  0  0
  -29.4595  -11.2310   21.2117 N   0  0  0  0  0  0  0  0  0  0  0  0
  -26.4749  -10.6805   18.9348 N   0  0  0  0  0  0  0  0  0  0  0  0
  -29.7099  -18.7703   21.1242 N   0  0  0  0  0  0  0  0  0  0  0  0
  -24.9673  -33.2455   21.5694 N   0  0  0  0  0  0  0  0  0  0  0  0
  -20.7219  -28.1333   23.0870 N   0  0  0  0  0  0  0  0  0  0  0  0
  -19.6865  -25.4594   20.8856 N   0  3  0  0  0  0  0  0  0  0  0  0
  -31.2191  -24.5405   19.7608 O   0  0  0  0  0  0  0  0  0  0  0  0
  -28.4050  -10.4615   17.7159 O   0  0  0  0  0  0  0  0  0  0  0  0
  -24.9052  -31.5895   23.2053 O   0  0  0  0  0  0  0  0  0  0  0  0
  -21.2422  -30.9147   22.6379 O   0  0  0  0  0  0  0  0  0  0  0  0
  -21.8754  -26.2140   22.4843 O   0  0  0  0  0  0  0  0  0  0  0  0
  -30.7851  -17.3755   19.6029 O   0  0  0  0  0  0  0  0  0  0  0  0
  -25.6400  -15.8221   14.4657 O   0  0  0  0  0  0  0  0  0  0  0  0
  -28.2038  -26.8283   20.0502 O   0  0  0  0  0  0  0  0  0  1  0  0
  -28.7632  -17.5706   10.2714 F   0  0  0  0  0  0  0  0  0  0  0  0
  -25.3520  -14.7430   11.9369 F   0  0  0  0  0  0  0  0  0  0  0  0
  1  2  1  0  0  0  0
  1  6  2  0  0  0  0
  2  7  2  0  0  0  0
  3 10  2  0  0  0  0
  3 17  1  0  0  0  0
  4 11  1  0  0  0  0
  4 17  2  0  0  0  0
  5  9  2  0  0  0  0
  5 18  1  0  0  0  0
  6 20  1  0  0  0  0
  7 22  1  0  0  0  0
  8 12  2  0  0  0  0
  8 21  1  0  0  0  0
  9 26  1  0  0  0  0
 10 27  1  0  0  0  0
 11 27  2  0  0  0  0
 12 28  1  0  0  0  0
 13 14  2  0  0  0  0
 13 29  1  0  0  0  0
 14 30  1  0  0  0  0
 15 23  1  0  0  0  0
 15 28  2  0  0  0  0
 16 30  2  0  0  0  0
 16 31  1  0  0  0  0
 17 32  1  0  0  0  0
 18 25  2  0  0  0  0
 18 36  1  0  0  0  0
 19 32  1  0  0  0  0
 19 33  2  0  0  0  0
 19 37  1  0  0  0  0
 20 22  2  0  0  0  0
 20 42  1  0  0  0  0
 21 23  2  0  0  0  0
 21 43  1  0  0  0  0
 22 54  1  0  0  0  0
 23 44  1  0  0  0  0
 24 25  1  0  0  0  0
 24 26  2  0  0  0  0
 24 58  1  0  0  0  0
 25 69  1  0  0  0  0
 26 74  1  0  0  0  0
 27 84  1  0  0  0  0
 28 85  1  0  0  0  0
 29 31  2  0  0  0  0
 29 84  1  0  0  0  0
 30 86  1  0  0  0  0
 31 87  1  0  0  0  0
 32 67  2  0  0  0  0
 33 68  1  0  0  0  0
 33 72  1  0  0  0  0
 34 45  1  0  0  0  0
 34 69  1  0  0  0  0
 34 78  2  0  0  0  0
 35 36  2  0  0  0  0
 37 73  1  0  0  0  0
 37 79  2  0  0  0  0
 38 55  1  0  0  0  0
 38 75  1  0  0  0  0
 38 80  2  0  0  0  0
 39 64  1  0  0  0  0
 39 70  1  0  0  0  0
 39 81  2  0  0  0  0
 40 65  1  0  0  0  0
 40 76  1  0  0  0  0
 40 82  2  0  0  0  0
 41 71  1  0  0  0  0
 41 74  1  0  0  0  0
 41 83  2  0  0  0  0
 42 46  1  0  0  0  0
 43 55  1  0  0  0  0
 44 70  1  0  0  0  0
 45 57  1  0  0  0  0
 46 48  1  0  0  0  0
 47 49  1  0  0  0  0
 47 51  1  0  0  0  0
 48 54  1  0  0  0  0
 49 56  1  0  0  0  0
 50 52  1  0  0  0  0
 50 57  1  0  0  0  0
 51 71  1  0  0  0  0
 52 69  1  0  0  0  0
 53 56  1  0  0  0  0
 53 71  1  0  0  0  0
 54 75  1  0  0  0  0
 55 70  1  0  0  0  0
 56 68  1  0  0  0  0
 57 85  1  0  0  0  0
 59 65  1  0  0  0  0
 60 66  1  0  0  0  0
 61 66  1  0  0  0  0
 62 66  1  0  0  0  0
 63 77  1  0  0  0  0
 64 66  1  0  0  0  0
 64 76  1  0  0  0  0
 65 77  1  0  0  0  0
 67 68  1  0  0  0  0
M  CHG  1  77   1
M  ISO  4  41 100  57 101  74 100  85 101
M  END
> <Batch ID>
0053

> <Smiles>
C=Cc1ccc([100NH:0][100C:0](=O)N2CCCC(n3nc(-c4ccc(Oc5ccc(F)cc5F)cc4)c(C(N)=O)c3N)C2)c(C)c1N1CC[101CH:1]([101O:1]c2ccc3c(c2)CN(C(=O)C(NC(=O)C(C)NC)C(C)(C)C)C(C(=O)NC2CCCc4ccccc42)C3)CC1=O

> <Shape>
0.288

> <Color>
0.085

> <Negative vol penalty>
0.000

$$$$

  -OEChem-04042322433D

 82 90  0     1  0  0  0  0  0999 V2000
  -19.5206  -23.1595   23.0424 C   0  0  0  0  0  0  0  0  0  0  0  0
  -20.7611  -22.6353   23.3912 C   0  0  0  0  0  0  0  0  0  0  0  0
  -23.2053   -9.7486   20.4884 C   0  0  0  0  0  0  0  0  0  0  0  0
  -23.8393  -10.2546   22.7642 C   0  0  0  0  0  0  0  0  0  0  0  0
  -32.3148  -18.3398   22.7886 C   0  0  0  0  0  0  0  0  0  0  0  0
  -19.3936  -24.5194   22.7622 C   0  0  0  0  0  0  0  0  0  0  0  0
  -21.8756  -23.4705   23.4590 C   0  0  0  0  0  0  0  0  0  0  0  0
  -26.5723  -23.0322   27.3647 C   0  0  0  0  0  0  0  0  0  0  0  0
  -31.7906  -17.2718   22.0605 C   0  0  0  0  0  0  0  0  0  0  0  0
  -22.4913   -8.6365   20.9346 C   0  0  0  0  0  0  0  0  0  0  0  0
  -23.1253   -9.1425   23.2103 C   0  0  0  0  0  0  0  0  0  0  0  0
  -27.8489  -22.4858   27.2391 C   0  0  0  0  0  0  0  0  0  0  0  0
  -21.1717   -6.6430   24.9862 C   0  0  0  0  0  0  0  0  0  0  0  0
  -20.3553   -6.8020   26.1059 C   0  0  0  0  0  0  0  0  0  0  0  0
  -30.0858  -19.2146   23.1103 C   0  0  0  0  0  0  0  0  0  0  0  0
  -28.7258  -24.6709   26.7138 C   0  0  0  0  0  0  0  0  0  0  0  0
  -19.0826   -8.4913   24.9380 C   0  0  0  0  0  0  0  0  0  0  0  0
  -23.8793  -10.5577   21.4032 C   0  0  0  0  0  0  0  0  0  0  0  0
  -31.4624  -19.3112   23.3136 C   0  0  0  0  0  0  0  0  0  0  0  0
  -24.1353  -13.0195   20.7855 C   0  0  0  0  0  0  0  0  0  0  0  0
  -20.5053  -25.3735   22.8360 C   0  0  0  0  0  0  0  0  0  0  0  0
  -26.3608  -24.4024   27.1548 C   0  0  0  0  0  0  0  0  0  0  0  0
  -21.7637  -24.8428   23.1782 C   0  0  0  0  0  0  0  0  0  0  0  0
  -27.4460  -25.2326   26.8399 C   0  0  0  0  0  0  0  0  0  0  0  0
  -29.5616  -18.1466   22.3822 C   0  0  0  0  0  0  0  0  0  0  0  0
  -30.4140  -17.1752   21.8572 C   0  0  0  0  0  0  0  0  0  0  0  0
  -22.4513   -8.3335   22.2955 C   0  0  0  0  0  0  0  0  0  0  0  0
  -28.9253  -23.3047   26.9108 C   0  0  0  0  0  0  0  0  0  0  0  0
  -20.9436   -7.4081   23.8424 C   0  0  0  0  0  0  0  0  0  0  0  0
  -19.3107   -7.7261   26.0818 C   0  0  0  0  0  0  0  0  0  0  0  0
  -19.8990   -8.3322   23.8183 C   0  0  0  0  0  0  0  0  0  0  0  0
  -24.6175  -11.7063   20.9429 C   0  0  0  0  0  0  0  0  0  0  0  0
  -25.2176  -13.7300   20.3269 C   0  0  0  0  0  0  0  0  0  0  0  0
  -32.0164  -20.4393   24.0813 C   0  0  0  0  0  0  0  0  0  0  0  0
  -22.8261  -13.5497   21.0319 C   0  0  0  0  0  0  0  0  0  0  0  0
  -24.6537  -26.1187   25.0947 C   0  0  0  0  0  0  0  0  0  0  0  0
  -25.6265  -28.5949   26.9506 C   0  0  0  0  0  0  0  0  0  0  0  0
  -27.9175  -29.8399   29.1525 C   0  0  0  0  0  0  0  0  0  0  0  0
  -30.6248  -15.0425   20.5330 C   0  0  0  0  0  0  0  0  0  0  0  0
  -20.3283  -26.8279   22.4783 C   0  0  0  0  0  0  0  0  0  0  0  0
  -24.9822  -24.9808   27.3203 C   0  0  0  0  0  0  0  0  0  0  0  0
  -27.2754  -26.7134   26.6243 C   0  0  0  0  0  0  0  0  0  0  0  0
  -21.4840  -27.7131   22.9377 C   0  0  0  0  0  0  0  0  0  0  0  0
  -29.7283  -12.1504   18.6596 C   0  0  0  0  0  0  0  0  0  0  0  0
  -22.8216  -27.0722   22.5814 C   0  0  0  0  0  0  0  0  0  0  0  0
  -28.2791  -11.8851   19.0737 C   0  0  0  0  0  0  0  0  0  0  0  0
  -30.5683  -12.6599   19.8296 C   0  0  0  0  0  0  0  0  0  0  0  0
  -28.5644  -13.5592   20.9454 C   0  0  0  0  0  0  0  0  0  0  0  0
  -22.9912  -25.7212   23.2867 C   0  0  1  0  0  0  0  0  0  0  0  0
  -24.7953  -26.3013   26.5794 C   0  0  1  0  0  0  0  0  0  0  0  0
  -27.6636  -13.1062   19.7847 C   0  0  2  0  0  0  0  0  0  0  0  0
  -28.0832  -18.0681   22.1795 C   0  0  0  0  0  0  0  0  0  0  0  0
  -28.4670  -31.9067   30.4653 C   0  0  0  0  0  0  0  0  0  0  0  0
  -26.6528  -29.9340   24.4083 C   0  0  0  0  0  0  0  0  0  0  0  0
  -27.9966  -31.4797   25.8482 C   0  0  0  0  0  0  0  0  0  0  0  0
  -25.5073  -31.4757   26.0099 C   0  0  0  0  0  0  0  0  0  0  0  0
  -27.6804  -28.4058   31.7305 C   0  0  0  0  0  0  0  0  0  0  0  0
  -32.0241  -22.3809   25.3063 C   0  0  0  0  0  0  0  0  0  0  0  0
  -31.0606  -23.4097   25.8688 C   0  0  0  0  0  0  0  0  0  1  0  0
  -26.8137  -29.5273   26.9528 C   0  0  1  0  0  0  0  0  0  0  0  0
  -27.7521  -30.5645   30.4761 C   0  0  2  0  0  0  0  0  0  0  0  0
  -26.7458  -30.5760   25.8069 C   0  0  0  0  0  0  0  0  0  0  0  0
  -25.9058  -11.5868   20.6110 N   0  0  0  0  0  0  0  0  0  0  0  0
  -31.2652  -21.3561   24.5843 N   0  0  0  0  0  0  0  0  0  0  0  0
  -26.2422  -12.8340   20.2405 N   0  0  0  0  0  0  0  0  0  0  0  0
  -25.9071  -27.2305   26.7912 N   0  0  0  0  0  0  0  0  0  0  0  0
  -29.9256  -13.8197   20.4514 N   0  0  0  0  0  0  0  0  0  0  0  0
  -25.3832  -15.0275   19.9930 N   0  0  0  0  0  0  0  0  0  0  0  0
  -21.8311  -12.6814   21.5013 N   0  0  0  0  0  0  0  0  0  0  0  0
  -29.9010  -16.0828   21.1148 N   0  0  0  0  0  0  0  0  0  0  0  0
  -23.3529  -25.9172   24.6742 N   0  0  0  0  0  0  0  0  0  0  0  0
  -26.8751  -30.1069   28.2903 N   0  0  0  0  0  0  0  0  0  0  0  0
  -28.3090  -29.7443   31.5888 N   0  3  0  0  0  0  0  0  0  0  0  0
  -22.5426  -14.7541   20.8257 O   0  0  0  0  0  0  0  0  0  0  0  0
  -25.6506  -26.1593   24.3831 O   0  0  0  0  0  0  0  0  0  0  0  0
  -24.4926  -29.0593   27.0925 O   0  0  0  0  0  0  0  0  0  0  0  0
  -28.8775  -29.1129   28.9065 O   0  0  0  0  0  0  0  0  0  0  0  0
  -31.7706  -15.1655   20.0927 O   0  0  0  0  0  0  0  0  0  0  0  0
  -21.7545   -7.2485   22.7313 O   0  0  0  0  0  0  0  0  0  0  0  0
  -30.1723  -22.7739   26.7870 O   0  0  0  0  0  0  0  0  0  1  0  0
  -18.5258   -7.8776   27.1566 F   0  0  0  0  0  0  0  0  0  0  0  0
  -19.6743   -9.0693   22.7219 F   0  0  0  0  0  0  0  0  0  0  0  0
  1  2  1  0  0  0  0
  1  6  2  0  0  0  0
  2  7  2  0  0  0  0
  3 10  2  0  0  0  0
  3 18  1  0  0  0  0
  4 11  1  0  0  0  0
  4 18  2  0  0  0  0
  5  9  2  0  0  0  0
  5 19  1  0  0  0  0
  6 21  1  0  0  0  0
  7 23  1  0  0  0  0
  8 12  2  0  0  0  0
  8 22  1  0  0  0  0
  9 26  1  0  0  0  0
 10 27  1  0  0  0  0
 11 27  2  0  0  0  0
 12 28  1  0  0  0  0
 13 14  2  0  0  0  0
 13 29  1  0  0  0  0
 14 30  1  0  0  0  0
 15 19  2  0  0  0  0
 15 25  1  0  0  0  0
 16 24  1  0  0  0  0
 16 28  2  0  0  0  0
 17 30  2  0  0  0  0
 17 31  1  0  0  0  0
 18 32  1  0  0  0  0
 19 34  1  0  0  0  0
 20 32  1  0  0  0  0
 20 33  2  0  0  0  0
 20 35  1  0  0  0  0
 21 23  2  0  0  0  0
 21 40  1  0  0  0  0
 22 24  2  0  0  0  0
 22 41  1  0  0  0  0
 23 49  1  0  0  0  0
 24 42  1  0  0  0  0
 25 26  2  0  0  0  0
 25 52  1  0  0  0  0
 26 70  1  0  0  0  0
 27 79  1  0  0  0  0
 28 80  1  0  0  0  0
 29 31  2  0  0  0  0
 29 79  1  0  0  0  0
 30 81  1  0  0  0  0
 31 82  1  0  0  0  0
 32 63  2  0  0  0  0
 33 65  1  0  0  0  0
 33 68  1  0  0  0  0
 34 64  2  0  0  0  0
 35 69  1  0  0  0  0
 35 74  2  0  0  0  0
 36 50  1  0  0  0  0
 36 71  1  0  0  0  0
 36 75  2  0  0  0  0
 37 60  1  0  0  0  0
 37 66  1  0  0  0  0
 37 76  2  0  0  0  0
 38 61  1  0  0  0  0
 38 72  1  0  0  0  0
 38 77  2  0  0  0  0
 39 67  1  0  0  0  0
 39 70  1  0  0  0  0
 39 78  2  0  0  0  0
 40 43  1  0  0  0  0
 41 50  1  0  0  0  0
 42 66  1  0  0  0  0
 43 45  1  0  0  0  0
 44 46  1  0  0  0  0
 44 47  1  0  0  0  0
 45 49  1  0  0  0  0
 46 51  1  0  0  0  0
 47 67  1  0  0  0  0
 48 51  1  0  0  0  0
 48 67  1  0  0  0  0
 49 71  1  0  0  0  0
 50 66  1  0  0  0  0
 51 65  1  0  0  0  0
 53 61  1  0  0  0  0
 54 62  1  0  0  0  0
 55 62  1  0  0  0  0
 56 62  1  0  0  0  0
 57 73  1  0  0  0  0
 58 59  1  0  0  0  0
 58 64  1  0  0  0  0
 59 80  1  0  0  0  0
 60 62  1  0  0  0  0
 60 72  1  0  0  0  0
 61 73  1  0  0  0  0
 63 65  1  0  0  0  0
M  CHG  1  73   1
M  ISO  4  39 100  59 101  70 100  80 101
M  END
> <Batch ID>
0053

> <Smiles>
CNC(C)C(=O)NC(C(=O)N1Cc2cc([101O:1][101CH2:1]CN=Cc3ccc([100NH:0][100C:0](=O)N4CCCC(n5nc(-c6ccc(Oc7ccc(F)cc7F)cc6)c(C(N)=O)c5N)C4)c(C)c3)ccc2CC1C(=O)NC1CCCc2ccccc21)C(C)(C)C

> <Shape>
0.215

> <Color>
0.183

> <Negative vol penalty>
0.000

$$$$

  -OEChem-04042322433D

 87 95  0     1  0  0  0  0  0999 V2000
  -28.5895  -11.2554   21.2750 C   0  0  0  0  0  0  0  0  0  0  0  0
  -29.0653  -12.5142   20.9222 C   0  0  0  0  0  0  0  0  0  0  0  0
  -20.1068  -27.2971   23.6003 C   0  0  0  0  0  0  0  0  0  0  0  0
  -20.2538  -28.7684   21.6895 C   0  0  0  0  0  0  0  0  0  0  0  0
  -27.2317  -10.9644   21.1496 C   0  0  0  0  0  0  0  0  0  0  0  0
  -28.1838  -13.4824   20.4427 C   0  0  0  0  0  0  0  0  0  0  0  0
  -28.4854  -19.5260   21.3854 C   0  0  0  0  0  0  0  0  0  0  0  0
  -18.7409  -27.5616   23.6989 C   0  0  0  0  0  0  0  0  0  0  0  0
  -18.8878  -29.0329   21.7881 C   0  0  0  0  0  0  0  0  0  0  0  0
  -28.9735  -20.5738   20.6058 C   0  0  0  0  0  0  0  0  0  0  0  0
  -15.8959  -26.5799   22.1576 C   0  0  0  0  0  0  0  0  0  0  0  0
  -15.0392  -25.4982   22.3611 C   0  0  0  0  0  0  0  0  0  0  0  0
  -30.3650  -27.3384   19.0413 C   0  0  0  0  0  0  0  0  0  0  0  0
  -26.7436  -20.9961   19.7881 C   0  0  0  0  0  0  0  0  0  0  0  0
  -29.3264  -29.3072   18.1021 C   0  0  0  0  0  0  0  0  0  0  0  0
  -14.2863  -26.4844   24.4342 C   0  0  0  0  0  0  0  0  0  0  0  0
  -20.8633  -27.9006   22.5956 C   0  0  0  0  0  0  0  0  0  0  0  0
  -30.2253  -26.6815   17.8188 C   0  0  0  0  0  0  0  0  0  0  0  0
  -22.8910  -26.6030   21.7514 C   0  0  0  0  0  0  0  0  0  0  0  0
  -26.3316  -11.9326   20.6775 C   0  0  0  0  0  0  0  0  0  0  0  0
  -27.1222  -19.1979   21.3639 C   0  0  0  0  0  0  0  0  0  0  0  0
  -26.8129  -13.2036   20.3096 C   0  0  0  0  0  0  0  0  0  0  0  0
  -26.2403  -19.9454   20.5703 C   0  0  0  0  0  0  0  0  0  0  0  0
  -29.9155  -28.6513   19.1830 C   0  0  0  0  0  0  0  0  0  0  0  0
  -29.6362  -27.3374   16.7379 C   0  0  0  0  0  0  0  0  0  0  0  0
  -18.1313  -28.4295   22.7928 C   0  0  0  0  0  0  0  0  0  0  0  0
  -28.1030  -21.3071   19.8048 C   0  0  0  0  0  0  0  0  0  0  0  0
  -15.9479  -27.6139   23.0924 C   0  0  0  0  0  0  0  0  0  0  0  0
  -29.1867  -28.6503   16.8795 C   0  0  0  0  0  0  0  0  0  0  0  0
  -14.2344  -25.4504   23.4994 C   0  0  0  0  0  0  0  0  0  0  0  0
  -15.1430  -27.5662   24.2307 C   0  0  0  0  0  0  0  0  0  0  0  0
  -22.2745  -27.6282   22.4936 C   0  0  0  0  0  0  0  0  0  0  0  0
  -24.2342  -26.7713   21.9833 C   0  0  0  0  0  0  0  0  0  0  0  0
  -30.7114  -25.2827   17.6988 C   0  0  0  0  0  0  0  0  0  0  0  0
  -22.3020  -25.5893   20.9261 C   0  0  0  0  0  0  0  0  0  0  0  0
  -25.4461  -16.6295   20.5288 C   0  0  0  0  0  0  0  0  0  0  0  0
  -22.9627  -18.3436   21.7189 C   0  0  0  0  0  0  0  0  0  0  0  0
  -21.6577  -21.4018   22.4878 C   0  0  0  0  0  0  0  0  0  0  0  0
  -28.7173  -30.0620   22.4513 C   0  0  0  0  0  0  0  0  0  0  0  0
  -24.8802  -11.5563   20.5144 C   0  0  0  0  0  0  0  0  0  0  0  0
  -26.6072  -18.0821   22.2311 C   0  0  0  0  0  0  0  0  0  0  0  0
  -24.7648  -19.6464   20.5272 C   0  0  0  0  0  0  0  0  0  0  0  0
  -23.9537  -12.7586   20.3522 C   0  0  0  0  0  0  0  0  0  0  0  0
  -26.6571  -29.6884   25.3310 C   0  0  0  0  0  0  0  0  0  0  0  0
  -24.5296  -13.7436   19.3398 C   0  0  0  0  0  0  0  0  0  0  0  0
  -25.3825  -29.0407   24.7873 C   0  0  0  0  0  0  0  0  0  0  0  0
  -27.2462  -30.6920   24.3421 C   0  0  0  0  0  0  0  0  0  0  0  0
  -26.2085  -29.5123   22.4434 C   0  0  0  0  0  0  0  0  0  0  0  0
  -25.8841  -14.2883   19.8090 C   0  0  1  0  0  0  0  0  0  0  0  0
  -25.2834  -17.5051   21.7389 C   0  0  1  0  0  0  0  0  0  0  0  0
  -25.6084  -28.4515   23.3819 C   0  0  2  0  0  0  0  0  0  0  0  0
  -29.4828  -26.6406   15.4231 C   0  0  0  0  0  0  0  0  0  0  0  0
  -19.5921  -22.4863   23.4122 C   0  0  0  0  0  0  0  0  0  0  0  0
  -29.1736  -22.2989   16.1721 C   0  0  0  0  0  0  0  0  0  0  0  0
  -21.5363  -17.8868   19.0606 C   0  0  0  0  0  0  0  0  0  0  0  0
  -19.9589  -19.7333   19.6694 C   0  0  0  0  0  0  0  0  0  0  0  0
  -20.0738  -17.6781   21.0785 C   0  0  0  0  0  0  0  0  0  0  0  0
  -23.1454  -22.5573   24.7705 C   0  0  0  0  0  0  0  0  0  0  0  0
  -27.1949  -29.1909   15.6979 C   0  0  0  0  0  0  0  0  0  0  0  0
  -30.0635  -29.3533   20.4905 C   0  0  0  0  0  0  0  0  0  0  0  0
  -29.9205  -22.2223   18.5738 C   0  0  0  0  0  0  0  0  0  1  0  0
  -21.9797  -19.3379   21.1496 C   0  0  1  0  0  0  0  0  0  0  0  0
  -20.9641  -21.9160   23.7364 C   0  0  2  0  0  0  0  0  0  0  0  0
  -30.0678  -22.9329   17.2296 C   0  0  2  0  0  0  0  0  0  0  0  0
  -20.9152  -18.6637   20.2386 C   0  0  0  0  0  0  0  0  0  0  0  0
  -23.1540  -28.3912   23.1481 N   0  0  0  0  0  0  0  0  0  0  0  0
  -24.3367  -27.8451   22.8181 N   0  0  0  0  0  0  0  0  0  0  0  0
  -24.3106  -18.5419   21.3881 N   0  0  0  0  0  0  0  0  0  0  0  0
  -27.4373  -30.0700   23.0297 N   0  0  0  0  0  0  0  0  0  0  0  0
  -25.3259  -26.1041   21.5526 N   0  0  0  0  0  0  0  0  0  0  0  0
  -20.9067  -25.5599   20.7971 N   0  0  0  0  0  0  0  0  0  0  0  0
  -29.7557  -24.3381   17.3602 N   0  0  0  0  0  0  0  0  0  0  0  0
  -25.6967  -15.3029   20.8238 N   0  0  0  0  0  0  0  0  0  0  0  0
  -21.4213  -20.0580   22.2889 N   0  0  0  0  0  0  0  0  0  0  0  0
  -28.8122  -29.4467   21.2090 N   0  0  0  0  0  0  0  0  0  0  0  0
  -21.7785  -22.9867   24.3777 N   0  3  0  0  0  0  0  0  0  0  0  0
  -31.8946  -25.0377   17.9190 O   0  0  0  0  0  0  0  0  0  0  0  0
  -22.9916  -24.7247   20.3341 O   0  0  0  0  0  0  0  0  0  0  0  0
  -25.3499  -17.1206   19.4102 O   0  0  0  0  0  0  0  0  0  0  0  0
  -22.5505  -17.4290   22.4368 O   0  0  0  0  0  0  0  0  0  0  0  0
  -22.3380  -22.1212   21.7596 O   0  0  0  0  0  0  0  0  0  0  0  0
  -29.7036  -30.5612   23.0036 O   0  0  0  0  0  0  0  0  0  0  0  0
  -16.7984  -28.6876   22.8886 O   0  0  0  0  0  0  0  0  0  0  0  0
  -28.6097  -29.3075   15.8348 O   0  0  0  0  0  0  0  0  0  0  0  0
  -28.5769  -22.3299   19.0423 O   0  0  0  0  0  0  0  0  0  1  0  0
  -13.4106  -24.4123   23.6939 F   0  0  0  0  0  0  0  0  0  0  0  0
  -15.1877  -28.5572   25.1317 F   0  0  0  0  0  0  0  0  0  0  0  0
  1  2  1  0  0  0  0
  1  5  2  0  0  0  0
  2  6  2  0  0  0  0
  3  8  2  0  0  0  0
  3 17  1  0  0  0  0
  4  9  1  0  0  0  0
  4 17  2  0  0  0  0
  5 20  1  0  0  0  0
  6 22  1  0  0  0  0
  7 10  2  0  0  0  0
  7 21  1  0  0  0  0
  8 26  1  0  0  0  0
  9 26  2  0  0  0  0
 10 27  1  0  0  0  0
 11 12  2  0  0  0  0
 11 28  1  0  0  0  0
 12 30  1  0  0  0  0
 13 18  1  0  0  0  0
 13 24  2  0  0  0  0
 14 23  1  0  0  0  0
 14 27  2  0  0  0  0
 15 24  1  0  0  0  0
 15 29  2  0  0  0  0
 16 30  2  0  0  0  0
 16 31  1  0  0  0  0
 17 32  1  0  0  0  0
 18 25  2  0  0  0  0
 18 34  1  0  0  0  0
 19 32  1  0  0  0  0
 19 33  2  0  0  0  0
 19 35  1  0  0  0  0
 20 22  2  0  0  0  0
 20 40  1  0  0  0  0
 21 23  2  0  0  0  0
 21 41  1  0  0  0  0
 22 49  1  0  0  0  0
 23 42  1  0  0  0  0
 24 60  1  0  0  0  0
 25 29  1  0  0  0  0
 25 52  1  0  0  0  0
 26 83  1  0  0  0  0
 27 85  1  0  0  0  0
 28 31  2  0  0  0  0
 28 83  1  0  0  0  0
 29 84  1  0  0  0  0
 30 86  1  0  0  0  0
 31 87  1  0  0  0  0
 32 66  2  0  0  0  0
 33 67  1  0  0  0  0
 33 70  1  0  0  0  0
 34 72  1  0  0  0  0
 34 77  2  0  0  0  0
 35 71  1  0  0  0  0
 35 78  2  0  0  0  0
 36 50  1  0  0  0  0
 36 73  1  0  0  0  0
 36 79  2  0  0  0  0
 37 62  1  0  0  0  0
 37 68  1  0  0  0  0
 37 80  2  0  0  0  0
 38 63  1  0  0  0  0
 38 74  1  0  0  0  0
 38 81  2  0  0  0  0
 39 69  1  0  0  0  0
 39 75  1  0  0  0  0
 39 82  2  0  0  0  0
 40 43  1  0  0  0  0
 41 50  1  0  0  0  0
 42 68  1  0  0  0  0
 43 45  1  0  0  0  0
 44 46  1  0  0  0  0
 44 47  1  0  0  0  0
 45 49  1  0  0  0  0
 46 51  1  0  0  0  0
 47 69  1  0  0  0  0
 48 51  1  0  0  0  0
 48 69  1  0  0  0  0
 49 73  1  0  0  0  0
 50 68  1  0  0  0  0
 51 67  1  0  0  0  0
 53 63  1  0  0  0  0
 54 64  1  0  0  0  0
 55 65  1  0  0  0  0
 56 65  1  0  0  0  0
 57 65  1  0  0  0  0
 58 76  1  0  0  0  0
 59 84  1  0  0  0  0
 60 75  1  0  0  0  0
 61 64  1  0  0  0  0
 61 85  1  0  0  0  0
 62 65  1  0  0  0  0
 62 74  1  0  0  0  0
 63 76  1  0  0  0  0
 64 72  1  0  0  0  0
 66 67  1  0  0  0  0
M  CHG  1  76   1
M  ISO  4  39 100  61 101  75 100  85 101
M  END
> <Batch ID>
0053

> <Smiles>
CNC(C)C(=O)NC(C(=O)N1Cc2cc([101O:1][101CH2:1]C(C)NC(=O)c3cc(C[100NH:0][100C:0](=O)N4CCCC(n5nc(-c6ccc(Oc7ccc(F)cc7F)cc6)c(C(N)=O)c5N)C4)cc(OC)c3C)ccc2CC1C(=O)NC1CCCc2ccccc21)C(C)(C)C

> <Shape>
0.205

> <Color>
0.067

> <Negative vol penalty>
0.000

$$$$

  -OEChem-04042322433D

 89 97  0     1  0  0  0  0  0999 V2000
  -25.9088  -36.3992   21.2253 C   0  0  0  0  0  0  0  0  0  0  0  0
  -26.8030  -35.5192   20.6242 C   0  0  0  0  0  0  0  0  0  0  0  0
  -33.2539  -18.3314   22.7985 C   0  0  0  0  0  0  0  0  0  0  0  0
  -33.7826  -17.2170   22.1472 C   0  0  0  0  0  0  0  0  0  0  0  0
  -23.9570  -11.2419   23.7043 C   0  0  0  0  0  0  0  0  0  0  0  0
  -24.4131  -13.4652   24.5328 C   0  0  0  0  0  0  0  0  0  0  0  0
  -25.1034  -35.9629   22.2765 C   0  0  0  0  0  0  0  0  0  0  0  0
  -26.8932  -34.2026   21.0746 C   0  0  0  0  0  0  0  0  0  0  0  0
  -28.1808  -27.5667   18.7033 C   0  0  0  0  0  0  0  0  0  0  0  0
  -31.8742  -18.5350   22.8239 C   0  0  0  0  0  0  0  0  0  0  0  0
  -32.9316  -16.3063   21.5211 C   0  0  0  0  0  0  0  0  0  0  0  0
  -23.4597  -10.8777   24.9555 C   0  0  0  0  0  0  0  0  0  0  0  0
  -23.9157  -13.1009   25.7840 C   0  0  0  0  0  0  0  0  0  0  0  0
  -28.9925  -26.4655   18.9720 C   0  0  0  0  0  0  0  0  0  0  0  0
  -20.6045  -11.2933   26.7185 C   0  0  0  0  0  0  0  0  0  0  0  0
  -19.4083  -10.5769   26.7572 C   0  0  0  0  0  0  0  0  0  0  0  0
  -27.4950  -25.8015   20.7428 C   0  0  0  0  0  0  0  0  0  0  0  0
  -20.5369   -8.7524   27.8684 C   0  0  0  0  0  0  0  0  0  0  0  0
  -24.4337  -12.5357   23.4929 C   0  0  0  0  0  0  0  0  0  0  0  0
  -24.2250  -13.4618   21.1252 C   0  0  0  0  0  0  0  0  0  0  0  0
  -25.1768  -34.6377   22.7336 C   0  0  0  0  0  0  0  0  0  0  0  0
  -27.0240  -27.8000   19.4608 C   0  0  0  0  0  0  0  0  0  0  0  0
  -26.0889  -33.7485   22.1337 C   0  0  0  0  0  0  0  0  0  0  0  0
  -26.6689  -26.9049   20.4800 C   0  0  0  0  0  0  0  0  0  0  0  0
  -31.0232  -17.6243   22.1978 C   0  0  0  0  0  0  0  0  0  0  0  0
  -31.5518  -16.5100   21.5464 C   0  0  0  0  0  0  0  0  0  0  0  0
  -23.4390  -11.8071   25.9954 C   0  0  0  0  0  0  0  0  0  0  0  0
  -28.6512  -25.5842   19.9938 C   0  0  0  0  0  0  0  0  0  0  0  0
  -21.7669  -10.7393   27.2548 C   0  0  0  0  0  0  0  0  0  0  0  0
  -19.3745   -9.3065   27.3321 C   0  0  0  0  0  0  0  0  0  0  0  0
  -21.7331   -9.4689   27.8298 C   0  0  0  0  0  0  0  0  0  0  0  0
  -24.9481  -12.9124   22.2008 C   0  0  0  0  0  0  0  0  0  0  0  0
  -25.1618  -13.6390   20.1365 C   0  0  0  0  0  0  0  0  0  0  0  0
  -26.2058  -16.9311   15.8191 C   0  0  0  0  0  0  0  0  0  0  0  0
  -26.6617  -17.7584   16.7662 C   0  0  0  0  0  0  0  0  0  0  0  0
  -27.0995  -17.3108   18.0688 C   0  0  0  0  0  0  0  0  0  0  0  0
  -27.5543  -18.1525   19.0081 C   0  0  0  0  0  0  0  0  0  0  0  0
  -22.8311  -13.7834   21.0284 C   0  0  0  0  0  0  0  0  0  0  0  0
  -28.0156  -17.6169   20.3224 C   0  0  0  0  0  0  0  0  0  0  0  0
  -26.0313  -30.1319   21.3793 C   0  0  0  0  0  0  0  0  0  0  0  0
  -23.2773  -28.4180   21.3942 C   0  0  0  0  0  0  0  0  0  0  0  0
  -21.7417  -25.3984   20.9809 C   0  0  0  0  0  0  0  0  0  0  0  0
  -31.0852  -14.4208   20.2182 C   0  0  0  0  0  0  0  0  0  0  0  0
  -24.3198  -34.2250   23.9041 C   0  0  0  0  0  0  0  0  0  0  0  0
  -26.1447  -28.9777   19.1408 C   0  0  0  0  0  0  0  0  0  0  0  0
  -25.4266  -27.0994   21.3090 C   0  0  0  0  0  0  0  0  0  0  0  0
  -24.2088  -32.7121   24.0742 C   0  0  0  0  0  0  0  0  0  0  0  0
  -29.3009  -11.8407   18.5339 C   0  0  0  0  0  0  0  0  0  0  0  0
  -25.5830  -32.0598   23.9608 C   0  0  0  0  0  0  0  0  0  0  0  0
  -27.9145  -11.8768   19.1810 C   0  0  0  0  0  0  0  0  0  0  0  0
  -30.4075  -12.1260   19.5477 C   0  0  0  0  0  0  0  0  0  0  0  0
  -28.8490  -13.3968   20.9708 C   0  0  0  0  0  0  0  0  0  0  0  0
  -26.1980  -32.3060   22.5778 C   0  0  1  0  0  0  0  0  0  0  0  0
  -25.2649  -29.4023   20.3125 C   0  0  1  0  0  0  0  0  0  0  0  0
  -27.6973  -13.1794   19.9759 C   0  0  2  0  0  0  0  0  0  0  0  0
  -19.4870  -24.3028   21.0963 C   0  0  0  0  0  0  0  0  0  0  0  0
  -23.4197  -28.4515   24.4419 C   0  0  0  0  0  0  0  0  0  0  0  0
  -21.7408  -26.5945   24.4713 C   0  0  0  0  0  0  0  0  0  0  0  0
  -21.1307  -28.8099   23.5006 C   0  0  0  0  0  0  0  0  0  0  0  0
  -21.8397  -24.6309   18.1242 C   0  0  0  0  0  0  0  0  0  0  0  0
  -29.5425  -17.8690   22.2411 C   0  0  0  0  0  0  0  0  0  0  0  0
  -28.9087  -20.8261   20.8873 C   0  0  0  0  0  0  0  0  0  0  0  0
  -29.5730  -22.0997   20.3633 C   0  0  0  0  0  0  0  0  0  0  0  0
  -29.6399  -19.5620   20.4468 C   0  0  0  0  0  0  0  0  0  0  0  0
  -28.8026  -23.3456   20.7822 C   0  0  0  0  0  0  0  0  0  1  0  0
  -22.7187  -27.2994   22.2402 C   0  0  1  0  0  0  0  0  0  0  0  0
  -20.5023  -24.9969   20.2017 C   0  0  2  0  0  0  0  0  0  0  0  0
  -22.2770  -27.7860   23.6493 C   0  0  0  0  0  0  0  0  0  0  0  0
  -26.2443  -12.7510   21.9218 N   0  0  0  0  0  0  0  0  0  0  0  0
  -26.3430  -13.2016   20.6595 N   0  0  0  0  0  0  0  0  0  0  0  0
  -24.6027  -28.2691   20.9618 N   0  0  0  0  0  0  0  0  0  0  0  0
  -30.1368  -13.3770   20.2594 N   0  0  0  0  0  0  0  0  0  0  0  0
  -25.0821  -14.1246   18.8794 N   0  0  0  0  0  0  0  0  0  0  0  0
  -22.0101  -13.5377   22.1374 N   0  0  0  0  0  0  0  0  0  0  0  0
  -30.7042  -15.5735   20.9043 N   0  0  0  0  0  0  0  0  0  0  0  0
  -25.6007  -31.4270   21.5954 N   0  0  0  0  0  0  0  0  0  0  0  0
  -21.6501  -26.6894   21.4565 N   0  0  0  0  0  0  0  0  0  0  0  0
  -29.0300  -18.3652   20.9582 N   0  0  0  0  0  0  0  0  0  0  0  0
  -20.8650  -24.0684   19.0940 N   0  3  0  0  0  0  0  0  0  0  0  0
  -22.3253  -14.2588   19.9835 O   0  0  0  0  0  0  0  0  0  0  0  0
  -27.5267  -16.5759   20.7642 O   0  0  0  0  0  0  0  0  0  0  0  0
  -26.9447  -29.5615   21.9641 O   0  0  0  0  0  0  0  0  0  0  0  0
  -22.5615  -29.3848   21.1208 O   0  0  0  0  0  0  0  0  0  0  0  0
  -22.6942  -24.6412   21.1536 O   0  0  0  0  0  0  0  0  0  0  0  0
  -32.1446  -14.3108   19.5957 O   0  0  0  0  0  0  0  0  0  0  0  0
  -22.9535  -11.4521   27.2164 O   0  0  0  0  0  0  0  0  0  0  0  0
  -29.4420  -24.5089   20.2587 O   0  0  0  0  0  0  0  0  0  1  0  0
  -18.2254   -8.6193   27.3706 F   0  0  0  0  0  0  0  0  0  0  0  0
  -22.8463   -8.9319   28.3476 F   0  0  0  0  0  0  0  0  0  0  0  0
  1  2  1  0  0  0  0
  1  7  2  0  0  0  0
  2  8  2  0  0  0  0
  3  4  1  0  0  0  0
  3 10  2  0  0  0  0
  4 11  2  0  0  0  0
  5 12  2  0  0  0  0
  5 19  1  0  0  0  0
  6 13  1  0  0  0  0
  6 19  2  0  0  0  0
  7 21  1  0  0  0  0
  8 23  1  0  0  0  0
  9 14  2  0  0  0  0
  9 22  1  0  0  0  0
 10 25  1  0  0  0  0
 11 26  1  0  0  0  0
 12 27  1  0  0  0  0
 13 27  2  0  0  0  0
 14 28  1  0  0  0  0
 15 16  2  0  0  0  0
 15 29  1  0  0  0  0
 16 30  1  0  0  0  0
 17 24  1  0  0  0  0
 17 28  2  0  0  0  0
 18 30  2  0  0  0  0
 18 31  1  0  0  0  0
 19 32  1  0  0  0  0
 20 32  1  0  0  0  0
 20 33  2  0  0  0  0
 20 38  1  0  0  0  0
 21 23  2  0  0  0  0
 21 44  1  0  0  0  0
 22 24  2  0  0  0  0
 22 45  1  0  0  0  0
 23 53  1  0  0  0  0
 24 46  1  0  0  0  0
 25 26  2  0  0  0  0
 25 61  1  0  0  0  0
 26 75  1  0  0  0  0
 27 86  1  0  0  0  0
 28 87  1  0  0  0  0
 29 31  2  0  0  0  0
 29 86  1  0  0  0  0
 30 88  1  0  0  0  0
 31 89  1  0  0  0  0
 32 69  2  0  0  0  0
 33 70  1  0  0  0  0
 33 73  1  0  0  0  0
 34 35  2  0  0  0  0
 35 36  1  0  0  0  0
 36 37  2  0  0  0  0
 37 39  1  0  0  0  0
 38 74  1  0  0  0  0
 38 80  2  0  0  0  0
 39 78  1  0  0  0  0
 39 81  2  0  0  0  0
 40 54  1  0  0  0  0
 40 76  1  0  0  0  0
 40 82  2  0  0  0  0
 41 66  1  0  0  0  0
 41 71  1  0  0  0  0
 41 83  2  0  0  0  0
 42 67  1  0  0  0  0
 42 77  1  0  0  0  0
 42 84  2  0  0  0  0
 43 72  1  0  0  0  0
 43 75  1  0  0  0  0
 43 85  2  0  0  0  0
 44 47  1  0  0  0  0
 45 54  1  0  0  0  0
 46 71  1  0  0  0  0
 47 49  1  0  0  0  0
 48 50  1  0  0  0  0
 48 51  1  0  0  0  0
 49 53  1  0  0  0  0
 50 55  1  0  0  0  0
 51 72  1  0  0  0  0
 52 55  1  0  0  0  0
 52 72  1  0  0  0  0
 53 76  1  0  0  0  0
 54 71  1  0  0  0  0
 55 70  1  0  0  0  0
 56 67  1  0  0  0  0
 57 68  1  0  0  0  0
 58 68  1  0  0  0  0
 59 68  1  0  0  0  0
 60 79  1  0  0  0  0
 61 78  1  0  0  0  0
 62 63  1  0  0  0  0
 62 64  1  0  0  0  0
 63 65  1  0  0  0  0
 64 78  1  0  0  0  0
 65 87  1  0  0  0  0
 66 68  1  0  0  0  0
 66 77  1  0  0  0  0
 67 79  1  0  0  0  0
 69 70  1  0  0  0  0
M  CHG  1  79   1
M  ISO  4  43 100  65 101  75 100  87 101
M  END
> <Batch ID>
0053

> <Smiles>
C=CC=CC(=O)N(CCC[101CH2:1][101O:1]c1ccc2c(c1)CN(C(=O)C(NC(=O)C(C)NC)C(C)(C)C)C(C(=O)NC1CCCc3ccccc31)C2)Cc1ccccc1[100NH:0][100C:0](=O)N1CCCC(n2nc(-c3ccc(Oc4ccc(F)cc4F)cc3)c(C(N)=O)c2N)C1

> <Shape>
0.282

> <Color>
0.084

> <Negative vol penalty>
0.000

$$$$

  -OEChem-04042322433D

 86 94  0     1  0  0  0  0  0999 V2000
  -24.9926  -25.2010   16.4136 C   0  0  0  0  0  0  0  0  0  0  0  0
  -16.3184  -27.6636   21.5554 C   0  0  0  0  0  0  0  0  0  0  0  0
  -17.5235  -27.4796   20.8851 C   0  0  0  0  0  0  0  0  0  0  0  0
  -26.5703  -12.6787   21.1463 C   0  0  0  0  0  0  0  0  0  0  0  0
  -24.9125  -14.4322   21.0274 C   0  0  0  0  0  0  0  0  0  0  0  0
  -16.2623  -28.5000   22.6695 C   0  0  0  0  0  0  0  0  0  0  0  0
  -18.6731  -28.1329   21.3280 C   0  0  0  0  0  0  0  0  0  0  0  0
  -22.7163  -25.0859   21.4439 C   0  0  0  0  0  0  0  0  0  0  0  0
  -30.2201  -24.8239   19.9802 C   0  0  0  0  0  0  0  0  0  0  0  0
  -30.3606  -23.5552   20.5427 C   0  0  0  0  0  0  0  0  0  0  0  0
  -25.5855  -11.7745   21.5438 C   0  0  0  0  0  0  0  0  0  0  0  0
  -23.9276  -13.5280   21.4249 C   0  0  0  0  0  0  0  0  0  0  0  0
  -23.3459  -24.8169   20.2293 C   0  0  0  0  0  0  0  0  0  0  0  0
  -23.1270   -9.9686   20.0852 C   0  0  0  0  0  0  0  0  0  0  0  0
  -23.1144   -8.7142   19.4754 C   0  0  0  0  0  0  0  0  0  0  0  0
  -25.0325  -26.4623   20.7460 C   0  0  0  0  0  0  0  0  0  0  0  0
  -29.6367  -22.5544   18.4664 C   0  0  0  0  0  0  0  0  0  0  0  0
  -23.4305   -7.6644   21.6283 C   0  0  0  0  0  0  0  0  0  0  0  0
  -26.2339  -14.0076   20.8881 C   0  0  0  0  0  0  0  0  0  0  0  0
  -27.6551  -15.2355   19.1618 C   0  0  0  0  0  0  0  0  0  0  0  0
  -17.4138  -29.1562   23.1320 C   0  0  0  0  0  0  0  0  0  0  0  0
  -23.2349  -26.0546   22.3152 C   0  0  0  0  0  0  0  0  0  0  0  0
  -18.6321  -28.9799   22.4486 C   0  0  0  0  0  0  0  0  0  0  0  0
  -24.4091  -26.7400   21.9721 C   0  0  0  0  0  0  0  0  0  0  0  0
  -29.7877  -24.9578   18.6608 C   0  0  0  0  0  0  0  0  0  0  0  0
  -29.4961  -23.8230   17.9039 C   0  0  0  0  0  0  0  0  0  0  0  0
  -30.0690  -22.4205   19.7858 C   0  0  0  0  0  0  0  0  0  0  0  0
  -24.2641  -12.1991   21.6830 C   0  0  0  0  0  0  0  0  0  0  0  0
  -24.5025  -25.5072   19.8789 C   0  0  0  0  0  0  0  0  0  0  0  0
  -23.2913  -10.0709   21.4666 C   0  0  0  0  0  0  0  0  0  0  0  0
  -23.2661   -7.5621   20.2469 C   0  0  0  0  0  0  0  0  0  0  0  0
  -23.4430   -8.9188   22.2381 C   0  0  0  0  0  0  0  0  0  0  0  0
  -27.2509  -14.9423   20.4780 C   0  0  0  0  0  0  0  0  0  0  0  0
  -28.6419  -16.1795   19.3079 C   0  0  0  0  0  0  0  0  0  0  0  0
  -24.4098  -25.4474   17.5426 C   0  0  0  0  0  0  0  0  0  1  0  0
  -25.5660  -24.9571   15.2677 C   0  0  0  0  0  0  0  0  0  0  0  0
  -27.1808  -14.7022   17.9183 C   0  0  0  0  0  0  0  0  0  0  0  0
  -26.9962  -24.5032   15.1850 C   0  0  0  0  0  0  0  0  0  0  0  0
  -22.1678  -28.8014   23.5067 C   0  0  0  0  0  0  0  0  0  0  0  0
  -24.9063  -28.6642   25.2399 C   0  0  0  0  0  0  0  0  0  0  0  0
  -28.0924  -27.4772   25.5340 C   0  0  0  0  0  0  0  0  0  0  0  0
  -30.6331  -20.8223   21.6496 C   0  0  0  0  0  0  0  0  0  0  0  0
  -17.2939  -30.0875   24.3123 C   0  0  0  0  0  0  0  0  0  0  0  0
  -22.5590  -26.3141   23.6336 C   0  0  0  0  0  0  0  0  0  0  0  0
  -25.0177  -27.7750   22.8815 C   0  0  0  0  0  0  0  0  0  0  0  0
  -18.6367  -30.4487   24.9420 C   0  0  0  0  0  0  0  0  0  0  0  0
  -31.0835  -17.7796   23.4431 C   0  0  0  0  0  0  0  0  0  0  0  0
  -19.6475  -30.8269   23.8639 C   0  0  0  0  0  0  0  0  0  0  0  0
  -30.1598  -16.7943   22.7233 C   0  0  0  0  0  0  0  0  0  0  0  0
  -30.4778  -19.1806   23.5086 C   0  0  0  0  0  0  0  0  0  0  0  0
  -29.1225  -18.7460   21.4977 C   0  0  0  0  0  0  0  0  0  0  0  0
  -19.9059  -29.6516   22.9134 C   0  0  1  0  0  0  0  0  0  0  0  0
  -22.8865  -27.6868   24.2130 C   0  0  1  0  0  0  0  0  0  0  0  0
  -29.7183  -17.3364   21.3497 C   0  0  2  0  0  0  0  0  0  0  0  0
  -29.6440  -26.3264   18.0806 C   0  0  0  0  0  0  0  0  0  0  0  0
  -24.8447  -25.1005   13.9587 C   0  0  0  0  0  0  0  0  0  0  0  0
  -30.0970  -27.5677   27.0410 C   0  0  0  0  0  0  0  0  0  0  0  0
  -25.5487  -31.4648   24.2133 C   0  0  0  0  0  0  0  0  0  0  0  0
  -27.9161  -31.1160   24.9494 C   0  0  0  0  0  0  0  0  0  0  0  0
  -26.0731  -31.0940   26.6303 C   0  0  0  0  0  0  0  0  0  0  0  0
  -28.0114  -24.5573   26.0096 C   0  0  0  0  0  0  0  0  0  0  0  0
  -29.0312  -23.9426   16.4813 C   0  0  0  0  0  0  0  0  0  0  0  0
  -26.3234  -29.1447   25.0398 C   0  0  1  0  0  0  0  0  0  0  0  0
  -28.8194  -26.8197   26.6932 C   0  0  2  0  0  0  0  0  0  0  0  0
  -26.4530  -30.6868   25.1900 C   0  0  0  0  0  0  0  0  0  0  0  0
  -27.9259  -15.6432   21.3929 N   0  0  0  0  0  0  0  0  0  0  0  0
  -28.7643  -16.3861   20.6505 N   0  0  0  0  0  0  0  0  0  0  0  0
  -24.3164  -27.9976   24.1567 N   0  0  0  0  0  0  0  0  0  0  0  0
  -30.0872  -19.6300   22.1706 N   0  0  0  0  0  0  0  0  0  0  0  0
  -29.4083  -16.8447   18.4176 N   0  0  0  0  0  0  0  0  0  0  0  0
  -26.1621  -13.7401   17.9490 N   0  0  0  0  0  0  0  0  0  0  0  0
  -30.2135  -21.1315   20.3562 N   0  0  0  0  0  0  0  0  0  0  0  0
  -27.6515  -24.3648   16.3967 N   0  0  0  0  0  0  0  0  0  0  0  0
  -20.7909  -28.6873   23.5310 N   0  0  0  0  0  0  0  0  0  0  0  0
  -27.1483  -28.3823   25.9707 N   0  0  0  0  0  0  0  0  0  0  0  0
  -29.1763  -25.4140   26.3503 N   0  3  0  0  0  0  0  0  0  0  0  0
  -27.6580  -15.0560   16.8134 O   0  0  0  0  0  0  0  0  0  0  0  0
  -27.5134  -24.2854   14.0899 O   0  0  0  0  0  0  0  0  0  0  0  0
  -22.8145  -29.6993   22.9801 O   0  0  0  0  0  0  0  0  0  0  0  0
  -24.3461  -28.8664   26.3201 O   0  0  0  0  0  0  0  0  0  0  0  0
  -28.3402  -27.2170   24.3587 O   0  0  0  0  0  0  0  0  0  0  0  0
  -31.4361  -21.5034   22.2923 O   0  0  0  0  0  0  0  0  0  0  0  0
  -23.3028  -11.3170   22.0707 O   0  0  0  0  0  0  0  0  0  0  0  0
  -25.1186  -25.2470   18.6937 O   0  0  0  0  0  0  0  0  0  1  0  0
  -23.2525   -6.3575   19.6613 F   0  0  0  0  0  0  0  0  0  0  0  0
  -23.6001   -9.0108   23.5658 F   0  0  0  0  0  0  0  0  0  0  0  0
  1 35  2  0  0  0  0
  1 36  2  0  0  0  0
  2  3  1  0  0  0  0
  2  6  2  0  0  0  0
  3  7  2  0  0  0  0
  4 11  2  0  0  0  0
  4 19  1  0  0  0  0
  5 12  1  0  0  0  0
  5 19  2  0  0  0  0
  6 21  1  0  0  0  0
  7 23  1  0  0  0  0
  8 13  2  0  0  0  0
  8 22  1  0  0  0  0
  9 10  2  0  0  0  0
  9 25  1  0  0  0  0
 10 27  1  0  0  0  0
 11 28  1  0  0  0  0
 12 28  2  0  0  0  0
 13 29  1  0  0  0  0
 14 15  2  0  0  0  0
 14 30  1  0  0  0  0
 15 31  1  0  0  0  0
 16 24  1  0  0  0  0
 16 29  2  0  0  0  0
 17 26  1  0  0  0  0
 17 27  2  0  0  0  0
 18 31  2  0  0  0  0
 18 32  1  0  0  0  0
 19 33  1  0  0  0  0
 20 33  1  0  0  0  0
 20 34  2  0  0  0  0
 20 37  1  0  0  0  0
 21 23  2  0  0  0  0
 21 43  1  0  0  0  0
 22 24  2  0  0  0  0
 22 44  1  0  0  0  0
 23 52  1  0  0  0  0
 24 45  1  0  0  0  0
 25 26  2  0  0  0  0
 25 55  1  0  0  0  0
 26 62  1  0  0  0  0
 27 72  1  0  0  0  0
 28 83  1  0  0  0  0
 29 84  1  0  0  0  0
 30 32  2  0  0  0  0
 30 83  1  0  0  0  0
 31 85  1  0  0  0  0
 32 86  1  0  0  0  0
 33 66  2  0  0  0  0
 34 67  1  0  0  0  0
 34 70  1  0  0  0  0
 35 84  1  0  0  0  0
 36 38  1  0  0  0  0
 36 56  1  0  0  0  0
 37 71  1  0  0  0  0
 37 77  2  0  0  0  0
 38 73  1  0  0  0  0
 38 78  2  0  0  0  0
 39 53  1  0  0  0  0
 39 74  1  0  0  0  0
 39 79  2  0  0  0  0
 40 63  1  0  0  0  0
 40 68  1  0  0  0  0
 40 80  2  0  0  0  0
 41 64  1  0  0  0  0
 41 75  1  0  0  0  0
 41 81  2  0  0  0  0
 42 69  1  0  0  0  0
 42 72  1  0  0  0  0
 42 82  2  0  0  0  0
 43 46  1  0  0  0  0
 44 53  1  0  0  0  0
 45 68  1  0  0  0  0
 46 48  1  0  0  0  0
 47 49  1  0  0  0  0
 47 50  1  0  0  0  0
 48 52  1  0  0  0  0
 49 54  1  0  0  0  0
 50 69  1  0  0  0  0
 51 54  1  0  0  0  0
 51 69  1  0  0  0  0
 52 74  1  0  0  0  0
 53 68  1  0  0  0  0
 54 67  1  0  0  0  0
 57 64  1  0  0  0  0
 58 65  1  0  0  0  0
 59 65  1  0  0  0  0
 60 65  1  0  0  0  0
 61 76  1  0  0  0  0
 62 73  1  0  0  0  0
 63 65  1  0  0  0  0
 63 75  1  0  0  0  0
 64 76  1  0  0  0  0
 66 67  1  0  0  0  0
M  CHG  1  76   1
M  ISO  4  35 101  42 100  72 100  84 101
M  END
> <Batch ID>
0053

> <Smiles>
CNC(C)C(=O)NC(C(=O)N1Cc2cc([101O:1][101CH:1]=C=C(C)C(=O)NCc3cc([100NH:0][100C:0](=O)N4CCCC(n5nc(-c6ccc(Oc7ccc(F)cc7F)cc6)c(C(N)=O)c5N)C4)ccc3C)ccc2CC1C(=O)NC1CCCc2ccccc21)C(C)(C)C

> <Shape>
0.259

> <Color>
0.057

> <Negative vol penalty>
0.000

$$$$

  -OEChem-04042322433D

 84 92  0     1  0  0  0  0  0999 V2000
  -16.6135  -29.0897   23.7652 C   0  0  0  0  0  0  0  0  0  0  0  0
  -17.2282  -28.4519   22.6924 C   0  0  0  0  0  0  0  0  0  0  0  0
  -28.0715   -9.9772   21.4740 C   0  0  0  0  0  0  0  0  0  0  0  0
  -26.2519  -11.2877   20.5747 C   0  0  0  0  0  0  0  0  0  0  0  0
  -17.2233  -30.1928   24.3613 C   0  0  0  0  0  0  0  0  0  0  0  0
  -18.4525  -28.9176   22.2143 C   0  0  0  0  0  0  0  0  0  0  0  0
  -21.7463  -25.1728   21.3355 C   0  0  0  0  0  0  0  0  0  0  0  0
  -27.4091  -21.5624   21.2982 C   0  0  0  0  0  0  0  0  0  0  0  0
  -28.3226  -20.5126   21.2039 C   0  0  0  0  0  0  0  0  0  0  0  0
  -27.1555   -9.1586   22.1345 C   0  0  0  0  0  0  0  0  0  0  0  0
  -25.3359  -10.4689   21.2351 C   0  0  0  0  0  0  0  0  0  0  0  0
  -21.5764  -24.4375   20.1632 C   0  0  0  0  0  0  0  0  0  0  0  0
  -23.9510   -7.4186   20.7900 C   0  0  0  0  0  0  0  0  0  0  0  0
  -22.8352   -6.9870   20.0729 C   0  0  0  0  0  0  0  0  0  0  0  0
  -26.8347  -19.3533   19.6942 C   0  0  0  0  0  0  0  0  0  0  0  0
  -23.3244  -25.7238   19.1101 C   0  0  0  0  0  0  0  0  0  0  0  0
  -21.3868   -8.0727   21.6731 C   0  0  0  0  0  0  0  0  0  0  0  0
  -27.6198  -11.0419   20.6941 C   0  0  0  0  0  0  0  0  0  0  0  0
  -25.9211  -20.4031   19.7885 C   0  0  0  0  0  0  0  0  0  0  0  0
  -29.0810  -11.7133   18.7138 C   0  0  0  0  0  0  0  0  0  0  0  0
  -18.4604  -30.6663   23.8964 C   0  0  0  0  0  0  0  0  0  0  0  0
  -22.7006  -26.1982   21.4005 C   0  0  0  0  0  0  0  0  0  0  0  0
  -19.0787  -30.0289   22.8039 C   0  0  0  0  0  0  0  0  0  0  0  0
  -23.5062  -26.4690   20.2852 C   0  0  0  0  0  0  0  0  0  0  0  0
  -26.2082  -21.5077   20.5905 C   0  0  0  0  0  0  0  0  0  0  0  0
  -28.0354  -19.4081   20.4019 C   0  0  0  0  0  0  0  0  0  0  0  0
  -25.7877   -9.4043   22.0150 C   0  0  0  0  0  0  0  0  0  0  0  0
  -22.3635  -24.7148   19.0494 C   0  0  0  0  0  0  0  0  0  0  0  0
  -23.7848   -8.1771   21.9487 C   0  0  0  0  0  0  0  0  0  0  0  0
  -21.5531   -7.3141   20.5144 C   0  0  0  0  0  0  0  0  0  0  0  0
  -22.5027   -8.5042   22.3903 C   0  0  0  0  0  0  0  0  0  0  0  0
  -28.5655  -11.8883   20.0121 C   0  0  0  0  0  0  0  0  0  0  0  0
  -29.9328  -12.7761   18.5365 C   0  0  0  0  0  0  0  0  0  0  0  0
  -24.6557  -20.3261   19.0313 C   0  0  0  0  0  0  0  0  0  0  0  0
  -28.8136  -10.6824   17.7539 C   0  0  0  0  0  0  0  0  0  0  0  0
  -22.5903  -29.3377   21.8852 C   0  0  0  0  0  0  0  0  0  0  0  0
  -25.8221  -29.0581   21.8858 C   0  0  0  0  0  0  0  0  0  0  0  0
  -28.5777  -27.2951   20.9137 C   0  0  0  0  0  0  0  0  0  0  0  0
  -30.2004  -18.2390   20.9428 C   0  0  0  0  0  0  0  0  0  0  0  0
  -19.0581  -31.8911   24.5424 C   0  0  0  0  0  0  0  0  0  0  0  0
  -22.8899  -26.9643   22.6809 C   0  0  0  0  0  0  0  0  0  0  0  0
  -24.5588  -27.5460   20.3100 C   0  0  0  0  0  0  0  0  0  0  0  0
  -20.5358  -32.0919   24.2166 C   0  0  0  0  0  0  0  0  0  0  0  0
  -32.7574  -15.7618   20.9944 C   0  0  0  0  0  0  0  0  0  0  0  0
  -20.7826  -31.9093   22.7224 C   0  0  0  0  0  0  0  0  0  0  0  0
  -32.0207  -14.4725   20.6242 C   0  0  0  0  0  0  0  0  0  0  0  0
  -31.8978  -16.6761   21.8655 C   0  0  0  0  0  0  0  0  0  0  0  0
  -29.8321  -15.6934   20.9510 C   0  0  0  0  0  0  0  0  0  0  0  0
  -20.4189  -30.4891   22.2726 C   0  0  1  0  0  0  0  0  0  0  0  0
  -23.5381  -28.3292   22.4703 C   0  0  1  0  0  0  0  0  0  0  0  0
  -30.6341  -14.7693   20.0201 C   0  0  2  0  0  0  0  0  0  0  0  0
  -25.2466  -22.6446   20.7071 C   0  0  0  0  0  0  0  0  0  0  0  0
  -31.0002  -26.6579   20.7619 C   0  0  0  0  0  0  0  0  0  0  0  0
  -25.8855  -31.2328   19.7465 C   0  0  0  0  0  0  0  0  0  0  0  0
  -28.2435  -30.5640   19.2356 C   0  0  0  0  0  0  0  0  0  0  0  0
  -27.6594  -31.4396   21.4973 C   0  0  0  0  0  0  0  0  0  0  0  0
  -28.3955  -25.5747   23.3149 C   0  0  0  0  0  0  0  0  0  0  0  0
  -23.2376  -22.4871   16.3564 C   0  0  0  0  0  0  0  0  0  0  0  0
  -23.1776  -21.3099   17.3155 C   0  0  0  0  0  0  0  0  0  0  0  0
  -23.3488  -23.8252   17.0761 C   0  0  0  0  0  0  0  0  0  1  0  0
  -26.9008  -29.1215   20.8316 C   0  0  1  0  0  0  0  0  0  0  0  0
  -29.8035  -26.8369   21.6831 C   0  0  2  0  0  0  0  0  0  0  0  0
  -27.1512  -30.5704   20.3263 C   0  0  0  0  0  0  0  0  0  0  0  0
  -29.0496  -12.9764   20.6168 N   0  0  0  0  0  0  0  0  0  0  0  0
  -29.8782  -13.4948   19.6944 N   0  0  0  0  0  0  0  0  0  0  0  0
  -24.7015  -28.2716   21.5830 N   0  0  0  0  0  0  0  0  0  0  0  0
  -30.6015  -16.9166   21.2278 N   0  0  0  0  0  0  0  0  0  0  0  0
  -30.7158  -13.1565   17.5047 N   0  0  0  0  0  0  0  0  0  0  0  0
  -23.8313  -19.3103   19.2874 N   0  0  0  0  0  0  0  0  0  0  0  0
  -27.9122   -9.6660   18.0987 N   0  0  0  0  0  0  0  0  0  0  0  0
  -28.9639  -18.3419   20.3064 N   0  0  0  0  0  0  0  0  0  0  0  0
  -21.4603  -29.5574   22.6495 N   0  0  0  0  0  0  0  0  0  0  0  0
  -28.0758  -28.4792   21.4108 N   0  0  0  0  0  0  0  0  0  0  0  0
  -24.3969  -21.2763   18.1235 N   0  3  0  0  0  0  0  0  0  0  0  0
  -29.5338  -25.5375   22.3611 N   0  3  0  0  0  0  0  0  0  0  0  0
  -29.3703  -10.6541   16.6302 O   0  0  0  0  0  0  0  0  0  0  0  0
  -22.8647  -29.8777   20.8199 O   0  0  0  0  0  0  0  0  0  0  0  0
  -25.9715  -29.6776   22.9420 O   0  0  0  0  0  0  0  0  0  0  0  0
  -28.1143  -26.6674   19.9641 O   0  0  0  0  0  0  0  0  0  0  0  0
  -30.9144  -19.2070   21.2167 O   0  0  0  0  0  0  0  0  0  0  0  0
  -24.8936   -8.6055   22.6592 O   0  0  0  0  0  0  0  0  0  0  0  0
  -22.1993  -23.9990   17.9037 O   0  0  0  0  0  0  0  0  0  1  0  0
  -20.4817   -6.9009   19.8248 F   0  0  0  0  0  0  0  0  0  0  0  0
  -22.3367   -9.2337   23.5021 F   0  0  0  0  0  0  0  0  0  0  0  0
  1  2  1  0  0  0  0
  1  5  2  0  0  0  0
  2  6  2  0  0  0  0
  3 10  2  0  0  0  0
  3 18  1  0  0  0  0
  4 11  1  0  0  0  0
  4 18  2  0  0  0  0
  5 21  1  0  0  0  0
  6 23  1  0  0  0  0
  7 12  2  0  0  0  0
  7 22  1  0  0  0  0
  8  9  2  0  0  0  0
  8 25  1  0  0  0  0
  9 26  1  0  0  0  0
 10 27  1  0  0  0  0
 11 27  2  0  0  0  0
 12 28  1  0  0  0  0
 13 14  2  0  0  0  0
 13 29  1  0  0  0  0
 14 30  1  0  0  0  0
 15 19  1  0  0  0  0
 15 26  2  0  0  0  0
 16 24  1  0  0  0  0
 16 28  2  0  0  0  0
 17 30  2  0  0  0  0
 17 31  1  0  0  0  0
 18 32  1  0  0  0  0
 19 25  2  0  0  0  0
 19 34  1  0  0  0  0
 20 32  1  0  0  0  0
 20 33  2  0  0  0  0
 20 35  1  0  0  0  0
 21 23  2  0  0  0  0
 21 40  1  0  0  0  0
 22 24  2  0  0  0  0
 22 41  1  0  0  0  0
 23 49  1  0  0  0  0
 24 42  1  0  0  0  0
 25 52  1  0  0  0  0
 26 71  1  0  0  0  0
 27 81  1  0  0  0  0
 28 82  1  0  0  0  0
 29 31  2  0  0  0  0
 29 81  1  0  0  0  0
 30 83  1  0  0  0  0
 31 84  1  0  0  0  0
 32 64  2  0  0  0  0
 33 65  1  0  0  0  0
 33 68  1  0  0  0  0
 34 69  1  0  0  0  0
 34 74  2  0  0  0  0
 35 70  1  0  0  0  0
 35 76  2  0  0  0  0
 36 50  1  0  0  0  0
 36 72  1  0  0  0  0
 36 77  2  0  0  0  0
 37 61  1  0  0  0  0
 37 66  1  0  0  0  0
 37 78  2  0  0  0  0
 38 62  1  0  0  0  0
 38 73  1  0  0  0  0
 38 79  2  0  0  0  0
 39 67  1  0  0  0  0
 39 71  1  0  0  0  0
 39 80  2  0  0  0  0
 40 43  1  0  0  0  0
 41 50  1  0  0  0  0
 42 66  1  0  0  0  0
 43 45  1  0  0  0  0
 44 46  1  0  0  0  0
 44 47  1  0  0  0  0
 45 49  1  0  0  0  0
 46 51  1  0  0  0  0
 47 67  1  0  0  0  0
 48 51  1  0  0  0  0
 48 67  1  0  0  0  0
 49 72  1  0  0  0  0
 50 66  1  0  0  0  0
 51 65  1  0  0  0  0
 53 62  1  0  0  0  0
 54 63  1  0  0  0  0
 55 63  1  0  0  0  0
 56 63  1  0  0  0  0
 57 75  1  0  0  0  0
 58 59  1  0  0  0  0
 58 60  1  0  0  0  0
 59 74  1  0  0  0  0
 60 82  1  0  0  0  0
 61 63  1  0  0  0  0
 61 73  1  0  0  0  0
 62 75  1  0  0  0  0
 64 65  1  0  0  0  0
M  CHG  2  74   1  75   1
M  ISO  4  39 100  60 101  71 100  82 101
M  END
> <Batch ID>
0053

> <Smiles>
CNC(C)C(=O)NC(C(=O)N1Cc2cc([101O:1][101CH2:1]CCNC(=N)c3cc([100NH:0][100C:0](=O)N4CCCC(n5nc(-c6ccc(Oc7ccc(F)cc7F)cc6)c(C(N)=O)c5N)C4)ccc3C)ccc2CC1C(=O)NC1CCCc2ccccc21)C(C)(C)C

> <Shape>
0.276

> <Color>
0.070

> <Negative vol penalty>
0.000

$$$$

  -OEChem-04042322433D

 89 98  0     1  0  0  0  0  0999 V2000
  -20.6013  -23.9434   34.7349 C   0  0  0  0  0  0  0  0  0  0  0  0
  -20.6981  -22.7955   33.9549 C   0  0  0  0  0  0  0  0  0  0  0  0
  -23.0757   -9.8683   19.9410 C   0  0  0  0  0  0  0  0  0  0  0  0
  -23.8345   -9.8755   22.2347 C   0  0  0  0  0  0  0  0  0  0  0  0
  -20.8079  -25.1960   34.1586 C   0  0  0  0  0  0  0  0  0  0  0  0
  -21.0005  -22.8998   32.5976 C   0  0  0  0  0  0  0  0  0  0  0  0
  -24.4254  -19.4172   27.3575 C   0  0  0  0  0  0  0  0  0  0  0  0
  -31.3201  -19.0805   20.6064 C   0  0  0  0  0  0  0  0  0  0  0  0
  -31.1534  -17.6957   20.6001 C   0  0  0  0  0  0  0  0  0  0  0  0
  -22.3313   -8.7155   20.1908 C   0  0  0  0  0  0  0  0  0  0  0  0
  -23.0900   -8.7227   22.4846 C   0  0  0  0  0  0  0  0  0  0  0  0
  -24.2160  -18.9434   26.0632 C   0  0  0  0  0  0  0  0  0  0  0  0
  -19.8613   -7.9263   23.0857 C   0  0  0  0  0  0  0  0  0  0  0  0
  -19.1037   -7.8869   24.2563 C   0  0  0  0  0  0  0  0  0  0  0  0
  -24.6307  -21.1547   25.1930 C   0  0  0  0  0  0  0  0  0  0  0  0
  -29.5200  -17.8843   22.3703 C   0  0  0  0  0  0  0  0  0  0  0  0
  -20.3440   -5.9491   24.9937 C   0  0  0  0  0  0  0  0  0  0  0  0
  -23.8274  -10.4483   20.9629 C   0  0  0  0  0  0  0  0  0  0  0  0
  -24.1704  -12.9732   20.8425 C   0  0  0  0  0  0  0  0  0  0  0  0
  -21.1225  -25.3150   32.7957 C   0  0  0  0  0  0  0  0  0  0  0  0
  -24.7288  -20.7680   27.5806 C   0  0  0  0  0  0  0  0  0  0  0  0
  -21.2102  -24.1552   32.0022 C   0  0  0  0  0  0  0  0  0  0  0  0
  -24.8460  -21.6427   26.4909 C   0  0  0  0  0  0  0  0  0  0  0  0
  -30.5868  -19.8673   21.4946 C   0  0  0  0  0  0  0  0  0  0  0  0
  -29.6867  -19.2692   22.3766 C   0  0  0  0  0  0  0  0  0  0  0  0
  -30.2533  -17.0976   21.4820 C   0  0  0  0  0  0  0  0  0  0  0  0
  -22.3384   -8.1427   21.4626 C   0  0  0  0  0  0  0  0  0  0  0  0
  -24.3157  -19.8127   24.9809 C   0  0  0  0  0  0  0  0  0  0  0  0
  -20.8601   -6.9770   22.8691 C   0  0  0  0  0  0  0  0  0  0  0  0
  -19.3451   -6.8984   25.2103 C   0  0  0  0  0  0  0  0  0  0  0  0
  -21.1015   -5.9885   23.8231 C   0  0  0  0  0  0  0  0  0  0  0  0
  -24.5971  -11.6388   20.7053 C   0  0  0  0  0  0  0  0  0  0  0  0
  -25.2630  -13.7222   20.4796 C   0  0  0  0  0  0  0  0  0  0  0  0
  -24.8859  -19.6193   21.4835 C   0  0  0  0  0  0  0  0  0  0  0  0
  -25.1486  -19.4687   22.8041 C   0  0  0  0  0  0  0  0  0  1  0  0
  -26.0131  -19.6604   20.5380 C   0  0  0  0  0  0  0  0  0  0  0  0
  -26.5360  -19.3264   23.3653 C   0  0  0  0  0  0  0  0  0  0  0  0
  -26.3147  -18.6260   19.7312 C   0  0  0  0  0  0  0  0  0  0  0  0
  -22.8999  -13.4897   21.2607 C   0  0  0  0  0  0  0  0  0  0  0  0
  -23.3248  -23.1541   29.1423 C   0  0  0  0  0  0  0  0  0  0  0  0
  -26.0538  -24.7368   28.3872 C   0  0  0  0  0  0  0  0  0  0  0  0
  -28.7541  -25.0332   26.3215 C   0  0  0  0  0  0  0  0  0  0  0  0
  -30.7295  -14.7656   20.6567 C   0  0  0  0  0  0  0  0  0  0  0  0
  -21.2907  -26.6934   32.2071 C   0  0  0  0  0  0  0  0  0  0  0  0
  -24.9781  -21.2577   28.9807 C   0  0  0  0  0  0  0  0  0  0  0  0
  -25.1894  -23.0975   26.6752 C   0  0  0  0  0  0  0  0  0  0  0  0
  -26.8983  -20.8877   20.5991 C   0  0  0  0  0  0  0  0  0  0  0  0
  -21.9761  -26.6939   30.8432 C   0  0  0  0  0  0  0  0  0  0  0  0
  -29.6153  -12.3517   18.2884 C   0  0  0  0  0  0  0  0  0  0  0  0
  -21.3670  -25.6268   29.9392 C   0  0  0  0  0  0  0  0  0  0  0  0
  -28.1753  -12.0608   18.7174 C   0  0  0  0  0  0  0  0  0  0  0  0
  -27.1887  -21.3543   22.0275 C   0  0  0  0  0  0  0  0  0  0  0  0
  -30.5299  -12.5804   19.4904 C   0  0  0  0  0  0  0  0  0  0  0  0
  -28.6226  -13.3059   20.8706 C   0  0  0  0  0  0  0  0  0  0  0  0
  -21.5607  -24.2257   30.5317 C   0  0  1  0  0  0  0  0  0  0  0  0
  -24.7753  -22.7621   29.1325 C   0  0  1  0  0  0  0  0  0  0  0  0
  -27.6503  -13.1328   19.6924 C   0  0  2  0  0  0  0  0  0  0  0  0
  -30.7829  -21.3478   21.4834 C   0  0  0  0  0  0  0  0  0  0  0  0
  -30.7910  -26.4464   25.9325 C   0  0  0  0  0  0  0  0  0  0  0  0
  -24.3029  -26.9228   27.1766 C   0  0  0  0  0  0  0  0  0  0  0  0
  -26.3305  -27.7960   25.9957 C   0  0  0  0  0  0  0  0  0  0  0  0
  -26.2598  -27.7610   28.4890 C   0  0  0  0  0  0  0  0  0  0  0  0
  -30.5714  -22.7364   26.7471 C   0  0  0  0  0  0  0  0  0  0  0  0
  -28.8852  -20.0959   23.3400 C   0  0  0  0  0  0  0  0  0  0  0  0
  -26.5109  -25.5856   27.2254 C   0  0  1  0  0  0  0  0  0  0  0  0
  -30.2331  -25.2076   26.6158 C   0  0  2  0  0  0  0  0  0  0  0  0
  -25.8426  -26.9894   27.2180 C   0  0  0  0  0  0  0  0  0  0  0  0
  -25.8622  -11.5423   20.2876 N   0  0  0  0  0  0  0  0  0  0  0  0
  -26.2397  -12.8257   20.1592 N   0  0  0  0  0  0  0  0  0  0  0  0
  -27.4989  -20.2327   22.9181 N   0  0  0  0  0  0  0  0  0  0  0  0
  -25.4179  -23.5298   28.0639 N   0  0  0  0  0  0  0  0  0  0  0  0
  -29.9709  -13.6116   20.3673 N   0  0  0  0  0  0  0  0  0  0  0  0
  -25.4740  -15.0536   20.4064 N   0  0  0  0  0  0  0  0  0  0  0  0
  -21.8875  -12.5810   21.5977 N   0  0  0  0  0  0  0  0  0  0  0  0
  -30.0822  -15.6911   21.4746 N   0  0  0  0  0  0  0  0  0  0  0  0
  -22.9154  -23.7667   30.3113 N   0  0  0  0  0  0  0  0  0  0  0  0
  -27.9679  -25.6177   27.2918 N   0  0  0  0  0  0  0  0  0  0  0  0
  -30.9996  -24.0221   26.1383 N   0  3  0  0  0  0  0  0  0  0  0  0
  -23.7881  -19.7407   20.8696 O   0  5  0  0  0  0  0  0  0  0  0  0
  -26.7369  -18.4452   24.2022 O   0  0  0  0  0  0  0  0  0  0  0  0
  -22.6641  -14.7204   21.3177 O   0  0  0  0  0  0  0  0  0  0  0  0
  -22.6290  -22.9197   28.1612 O   0  0  0  0  0  0  0  0  0  0  0  0
  -26.2599  -25.1269   29.5391 O   0  0  0  0  0  0  0  0  0  0  0  0
  -28.3379  -24.4411   25.3282 O   0  0  0  0  0  0  0  0  0  0  0  0
  -31.8589  -14.9337   20.1896 O   0  0  0  0  0  0  0  0  0  0  0  0
  -21.6119   -7.0180   21.7068 O   0  0  0  0  0  0  0  0  0  0  0  0
  -24.1112  -19.3530   23.7165 O   0  0  0  0  0  0  0  0  0  1  0  0
  -18.6186   -6.8616   26.3350 F   0  0  0  0  0  0  0  0  0  0  0  0
  -22.0605   -5.0746   23.6211 F   0  0  0  0  0  0  0  0  0  0  0  0
  1  2  1  0  0  0  0
  1  5  2  0  0  0  0
  2  6  2  0  0  0  0
  3 10  2  0  0  0  0
  3 18  1  0  0  0  0
  4 11  1  0  0  0  0
  4 18  2  0  0  0  0
  5 20  1  0  0  0  0
  6 22  1  0  0  0  0
  7 12  2  0  0  0  0
  7 21  1  0  0  0  0
  8  9  2  0  0  0  0
  8 24  1  0  0  0  0
  9 26  1  0  0  0  0
 10 27  1  0  0  0  0
 11 27  2  0  0  0  0
 12 28  1  0  0  0  0
 13 14  2  0  0  0  0
 13 29  1  0  0  0  0
 14 30  1  0  0  0  0
 15 23  1  0  0  0  0
 15 28  2  0  0  0  0
 16 25  1  0  0  0  0
 16 26  2  0  0  0  0
 17 30  2  0  0  0  0
 17 31  1  0  0  0  0
 18 32  1  0  0  0  0
 19 32  1  0  0  0  0
 19 33  2  0  0  0  0
 19 39  1  0  0  0  0
 20 22  2  0  0  0  0
 20 44  1  0  0  0  0
 21 23  2  0  0  0  0
 21 45  1  0  0  0  0
 22 55  1  0  0  0  0
 23 46  1  0  0  0  0
 24 25  2  0  0  0  0
 24 58  1  0  0  0  0
 25 64  1  0  0  0  0
 26 75  1  0  0  0  0
 27 86  1  0  0  0  0
 28 87  1  0  0  0  0
 29 31  2  0  0  0  0
 29 86  1  0  0  0  0
 30 88  1  0  0  0  0
 31 89  1  0  0  0  0
 32 68  2  0  0  0  0
 33 69  1  0  0  0  0
 33 73  1  0  0  0  0
 34 35  2  0  0  0  0
 34 36  1  0  0  0  0
 34 79  1  0  0  0  0
 35 37  1  0  0  0  0
 35 87  1  0  0  0  0
 36 38  2  0  0  0  0
 36 47  1  0  0  0  0
 37 70  1  0  0  0  0
 37 80  2  0  0  0  0
 39 74  1  0  0  0  0
 39 81  2  0  0  0  0
 40 56  1  0  0  0  0
 40 76  1  0  0  0  0
 40 82  2  0  0  0  0
 41 65  1  0  0  0  0
 41 71  1  0  0  0  0
 41 83  2  0  0  0  0
 42 66  1  0  0  0  0
 42 77  1  0  0  0  0
 42 84  2  0  0  0  0
 43 72  1  0  0  0  0
 43 75  1  0  0  0  0
 43 85  2  0  0  0  0
 44 48  1  0  0  0  0
 45 56  1  0  0  0  0
 46 71  1  0  0  0  0
 47 52  1  0  0  0  0
 48 50  1  0  0  0  0
 49 51  1  0  0  0  0
 49 53  1  0  0  0  0
 50 55  1  0  0  0  0
 51 57  1  0  0  0  0
 52 70  1  0  0  0  0
 53 72  1  0  0  0  0
 54 57  1  0  0  0  0
 54 72  1  0  0  0  0
 55 76  1  0  0  0  0
 56 71  1  0  0  0  0
 57 69  1  0  0  0  0
 59 66  1  0  0  0  0
 60 67  1  0  0  0  0
 61 67  1  0  0  0  0
 62 67  1  0  0  0  0
 63 78  1  0  0  0  0
 64 70  1  0  0  0  0
 65 67  1  0  0  0  0
 65 77  1  0  0  0  0
 66 78  1  0  0  0  0
 68 69  1  0  0  0  0
M  CHG  2  78   1  79  -1
M  ISO  4  35 101  43 100  75 100  87 101
M  END
> <Batch ID>
0053

> <Smiles>
C=C1CCN(Cc2cc([100NH:0][100C:0](=O)N3CCCC(n4nc(-c5ccc(Oc6ccc(F)cc6F)cc5)c(C(N)=O)c4N)C3)ccc2C)C(=O)[101CH:1]([101O:1]c2ccc3c(c2)CN(C(=O)C(NC(=O)C(C)NC)C(C)(C)C)C(C(=O)NC2CCCc4ccccc42)C3)C1=O

> <Shape>
0.181

> <Color>
0.192

> <Negative vol penalty>
0.000

$$$$

  -OEChem-04042322433D

 85 93  0     1  0  0  0  0  0999 V2000
  -17.6223  -25.9275   22.5940 C   0  0  0  0  0  0  0  0  0  0  0  0
  -18.8857  -25.6023   22.1107 C   0  0  0  0  0  0  0  0  0  0  0  0
  -24.9480  -12.2994   19.5350 C   0  0  0  0  0  0  0  0  0  0  0  0
  -27.2713  -12.9617   19.5671 C   0  0  0  0  0  0  0  0  0  0  0  0
  -17.2240  -27.2621   22.6580 C   0  0  0  0  0  0  0  0  0  0  0  0
  -19.7511  -26.6116   21.6902 C   0  0  0  0  0  0  0  0  0  0  0  0
  -25.8509  -26.6928   22.2309 C   0  0  0  0  0  0  0  0  0  0  0  0
  -30.5359  -21.5129   19.7774 C   0  0  0  0  0  0  0  0  0  0  0  0
  -29.4717  -20.7605   20.2744 C   0  0  0  0  0  0  0  0  0  0  0  0
  -25.2426  -11.3118   18.5950 C   0  0  0  0  0  0  0  0  0  0  0  0
  -27.5658  -11.9741   18.6271 C   0  0  0  0  0  0  0  0  0  0  0  0
  -26.8760  -26.3900   21.3358 C   0  0  0  0  0  0  0  0  0  0  0  0
  -25.8049  -11.1297   15.2671 C   0  0  0  0  0  0  0  0  0  0  0  0
  -24.9489  -11.0011   14.1733 C   0  0  0  0  0  0  0  0  0  0  0  0
  -27.0757  -28.7294   20.7824 C   0  0  0  0  0  0  0  0  0  0  0  0
  -27.9165  -22.4155   19.4501 C   0  0  0  0  0  0  0  0  0  0  0  0
  -24.4621   -8.7252   14.8218 C   0  0  0  0  0  0  0  0  0  0  0  0
  -25.9624  -13.1244   20.0210 C   0  0  0  0  0  0  0  0  0  0  0  0
  -25.6759  -14.0173   22.3934 C   0  0  0  0  0  0  0  0  0  0  0  0
  -18.0886  -28.2889   22.2471 C   0  0  0  0  0  0  0  0  0  0  0  0
  -25.4224  -28.0172   22.4007 C   0  0  0  0  0  0  0  0  0  0  0  0
  -19.3635  -27.9611   21.7475 C   0  0  0  0  0  0  0  0  0  0  0  0
  -26.0467  -29.0468   21.6821 C   0  0  0  0  0  0  0  0  0  0  0  0
  -30.2904  -22.7167   19.1168 C   0  0  0  0  0  0  0  0  0  0  0  0
  -28.1620  -21.2117   20.1107 C   0  0  0  0  0  0  0  0  0  0  0  0
  -26.5514  -11.1492   18.1411 C   0  0  0  0  0  0  0  0  0  0  0  0
  -27.4866  -27.4080   20.6092 C   0  0  0  0  0  0  0  0  0  0  0  0
  -25.9896  -10.0560   16.1382 C   0  0  0  0  0  0  0  0  0  0  0  0
  -24.2775   -9.7989   13.9507 C   0  0  0  0  0  0  0  0  0  0  0  0
  -28.9807  -23.1679   18.9531 C   0  0  0  0  0  0  0  0  0  0  0  0
  -25.3182   -8.8538   15.9156 C   0  0  0  0  0  0  0  0  0  0  0  0
  -25.6587  -14.1451   20.9916 C   0  0  0  0  0  0  0  0  0  0  0  0
  -25.3163  -15.2595   22.8559 C   0  0  0  0  0  0  0  0  0  0  0  0
  -30.6714  -26.1715   19.4804 C   0  0  0  0  0  0  0  0  0  0  0  0
  -29.6135  -26.5148   20.2227 C   0  0  0  0  0  0  0  0  0  1  0  0
  -25.9892  -12.8775   23.2050 C   0  0  0  0  0  0  0  0  0  0  0  0
  -31.8329  -25.4960   20.1266 C   0  0  0  0  0  0  0  0  0  0  0  0
  -22.6861  -29.5666   21.9358 C   0  0  0  0  0  0  0  0  0  0  0  0
  -24.2897  -32.0193   23.3268 C   0  0  0  0  0  0  0  0  0  0  0  0
  -27.2887  -33.4670   24.0732 C   0  0  0  0  0  0  0  0  0  0  0  0
  -25.7225  -20.7528   20.5399 C   0  0  0  0  0  0  0  0  0  0  0  0
  -17.5959  -29.7137   22.2907 C   0  0  0  0  0  0  0  0  0  0  0  0
  -24.3334  -28.3305   23.3899 C   0  0  0  0  0  0  0  0  0  0  0  0
  -25.6374  -30.4873   21.8430 C   0  0  0  0  0  0  0  0  0  0  0  0
  -18.7127  -30.7481   22.1763 C   0  0  0  0  0  0  0  0  0  0  0  0
  -22.7544  -19.1150   21.6287 C   0  0  0  0  0  0  0  0  0  0  0  0
  -19.6659  -30.3815   21.0433 C   0  0  0  0  0  0  0  0  0  0  0  0
  -23.1656  -17.6439   21.7223 C   0  0  0  0  0  0  0  0  0  0  0  0
  -23.4225  -19.8166   20.4475 C   0  0  0  0  0  0  0  0  0  0  0  0
  -25.2956  -18.2169   20.4886 C   0  0  0  0  0  0  0  0  0  0  0  0
  -20.3400  -29.0292   21.3052 C   0  0  1  0  0  0  0  0  0  0  0  0
  -23.6281  -29.6525   23.1032 C   0  0  1  0  0  0  0  0  0  0  0  0
  -24.6985  -17.4848   21.7016 C   0  0  2  0  0  0  0  0  0  0  0  0
  -28.2784  -35.4871   25.1853 C   0  0  0  0  0  0  0  0  0  0  0  0
  -23.5482  -33.7150   20.9009 C   0  0  0  0  0  0  0  0  0  0  0  0
  -25.3106  -35.3526   21.5942 C   0  0  0  0  0  0  0  0  0  0  0  0
  -23.3706  -34.9004   23.0959 C   0  0  0  0  0  0  0  0  0  0  0  0
  -33.2607  -23.4902   20.2474 C   0  0  0  0  0  0  0  0  0  0  0  0
  -28.7041  -31.8133   26.0784 C   0  0  0  0  0  0  0  0  0  0  0  0
  -31.4386  -23.5225   18.5817 C   0  0  0  0  0  0  0  0  0  0  0  0
  -25.1674  -33.1419   22.8285 C   0  0  1  0  0  0  0  0  0  0  0  0
  -27.8344  -34.0440   25.3669 C   0  0  2  0  0  0  0  0  0  0  0  0
  -24.3558  -34.2502   22.1002 C   0  0  0  0  0  0  0  0  0  0  0  0
  -25.3151  -15.3717   20.5898 N   0  0  0  0  0  0  0  0  0  0  0  0
  -25.1130  -16.0260   21.7462 N   0  0  0  0  0  0  0  0  0  0  0  0
  -24.5638  -30.7421   22.8176 N   0  0  0  0  0  0  0  0  0  0  0  0
  -24.8738  -19.6265   20.4962 N   0  0  0  0  0  0  0  0  0  0  0  0
  -25.1571  -15.7601   24.0995 N   0  0  0  0  0  0  0  0  0  0  0  0
  -26.3388  -11.6793   22.5676 N   0  0  0  0  0  0  0  0  0  0  0  0
  -27.0811  -20.4483   20.6173 N   0  0  0  0  0  0  0  0  0  0  0  0
  -21.4050  -29.1746   22.2742 N   0  0  0  0  0  0  0  0  0  0  0  0
  -25.9206  -33.6152   23.9849 N   0  0  0  0  0  0  0  0  0  0  0  0
  -32.1560  -24.2247   19.6440 N   0  0  0  0  0  0  0  0  0  0  0  0
  -29.0036  -33.2481   25.8365 N   0  3  0  0  0  0  0  0  0  0  0  0
  -25.9439  -12.9159   24.4579 O   0  0  0  0  0  0  0  0  0  0  0  0
  -32.4293  -26.0550   21.0485 O   0  0  0  0  0  0  0  0  0  0  0  0
  -23.0912  -29.8373   20.8114 O   0  0  0  0  0  0  0  0  0  0  0  0
  -23.3984  -32.2654   24.1433 O   0  0  0  0  0  0  0  0  0  0  0  0
  -28.0048  -32.9410   23.2241 O   0  0  0  0  0  0  0  0  0  0  0  0
  -25.2754  -21.9026   20.5383 O   0  0  0  0  0  0  0  0  0  0  0  0
  -26.8392  -10.1854   17.2240 O   0  0  0  0  0  0  0  0  0  0  0  0
  -28.4870  -27.1151   19.7344 O   0  0  0  0  0  0  0  0  0  1  0  0
  -23.4543   -9.6761   12.9012 F   0  0  0  0  0  0  0  0  0  0  0  0
  -28.7349  -24.3232   18.3197 F   0  0  0  0  0  0  0  0  0  0  0  0
  -25.4907   -7.8192   16.7496 F   0  0  0  0  0  0  0  0  0  0  0  0
  1  2  1  0  0  0  0
  1  5  2  0  0  0  0
  2  6  2  0  0  0  0
  3 10  2  0  0  0  0
  3 18  1  0  0  0  0
  4 11  1  0  0  0  0
  4 18  2  0  0  0  0
  5 20  1  0  0  0  0
  6 22  1  0  0  0  0
  7 12  2  0  0  0  0
  7 21  1  0  0  0  0
  8  9  2  0  0  0  0
  8 24  1  0  0  0  0
  9 25  1  0  0  0  0
 10 26  1  0  0  0  0
 11 26  2  0  0  0  0
 12 27  1  0  0  0  0
 13 14  2  0  0  0  0
 13 28  1  0  0  0  0
 14 29  1  0  0  0  0
 15 23  1  0  0  0  0
 15 27  2  0  0  0  0
 16 25  2  0  0  0  0
 16 30  1  0  0  0  0
 17 29  2  0  0  0  0
 17 31  1  0  0  0  0
 18 32  1  0  0  0  0
 19 32  1  0  0  0  0
 19 33  2  0  0  0  0
 19 36  1  0  0  0  0
 20 22  2  0  0  0  0
 20 42  1  0  0  0  0
 21 23  2  0  0  0  0
 21 43  1  0  0  0  0
 22 51  1  0  0  0  0
 23 44  1  0  0  0  0
 24 30  2  0  0  0  0
 24 60  1  0  0  0  0
 25 70  1  0  0  0  0
 26 81  1  0  0  0  0
 27 82  1  0  0  0  0
 28 31  2  0  0  0  0
 28 81  1  0  0  0  0
 29 83  1  0  0  0  0
 30 84  1  0  0  0  0
 31 85  1  0  0  0  0
 32 64  2  0  0  0  0
 33 65  1  0  0  0  0
 33 68  1  0  0  0  0
 34 35  2  0  0  0  0
 34 37  1  0  0  0  0
 35 82  1  0  0  0  0
 36 69  1  0  0  0  0
 36 75  2  0  0  0  0
 37 73  1  0  0  0  0
 37 76  2  0  0  0  0
 38 52  1  0  0  0  0
 38 71  1  0  0  0  0
 38 77  2  0  0  0  0
 39 61  1  0  0  0  0
 39 66  1  0  0  0  0
 39 78  2  0  0  0  0
 40 62  1  0  0  0  0
 40 72  1  0  0  0  0
 40 79  2  0  0  0  0
 41 67  1  0  0  0  0
 41 70  1  0  0  0  0
 41 80  2  0  0  0  0
 42 45  1  0  0  0  0
 43 52  1  0  0  0  0
 44 66  1  0  0  0  0
 45 47  1  0  0  0  0
 46 48  1  0  0  0  0
 46 49  1  0  0  0  0
 47 51  1  0  0  0  0
 48 53  1  0  0  0  0
 49 67  1  0  0  0  0
 50 53  1  0  0  0  0
 50 67  1  0  0  0  0
 51 71  1  0  0  0  0
 52 66  1  0  0  0  0
 53 65  1  0  0  0  0
 54 62  1  0  0  0  0
 55 63  1  0  0  0  0
 56 63  1  0  0  0  0
 57 63  1  0  0  0  0
 58 73  1  0  0  0  0
 59 74  1  0  0  0  0
 60 73  1  0  0  0  0
 61 63  1  0  0  0  0
 61 72  1  0  0  0  0
 62 74  1  0  0  0  0
 64 65  1  0  0  0  0
M  CHG  1  74   1
M  ISO  4  35 101  41 100  70 100  82 101
M  END
> <Batch ID>
0053

> <Smiles>
CNC(C)C(=O)NC(C(=O)N1Cc2cc([101O:1][101CH:1]=CC(=O)N(C)Cc3ccc([100NH:0][100C:0](=O)N4CCCC(n5nc(-c6ccc(Oc7ccc(F)cc7F)cc6)c(C(N)=O)c5N)C4)cc3F)ccc2CC1C(=O)NC1CCCc2ccccc21)C(C)(C)C

> <Shape>
0.258

> <Color>
0.095

> <Negative vol penalty>
0.000

$$$$

  -OEChem-04042322433D

 85 93  0     1  0  0  0  0  0999 V2000
  -13.6696  -22.6688   18.3428 C   0  0  0  0  0  0  0  0  0  0  0  0
  -13.9901  -21.4328   18.8951 C   0  0  0  0  0  0  0  0  0  0  0  0
  -27.9224  -25.9422   18.8351 C   0  0  0  0  0  0  0  0  0  0  0  0
  -29.6820  -25.4866   20.4267 C   0  0  0  0  0  0  0  0  0  0  0  0
  -14.6070  -23.3479   17.5656 C   0  0  0  0  0  0  0  0  0  0  0  0
  -15.2479  -20.8746   18.6696 C   0  0  0  0  0  0  0  0  0  0  0  0
  -20.1809  -16.7620   21.8427 C   0  0  0  0  0  0  0  0  0  0  0  0
  -29.4727  -13.3402   18.5424 C   0  0  0  0  0  0  0  0  0  0  0  0
  -27.4872  -27.0088   19.6215 C   0  0  0  0  0  0  0  0  0  0  0  0
  -29.2468  -26.5533   21.2132 C   0  0  0  0  0  0  0  0  0  0  0  0
  -20.9369  -15.6138   21.6107 C   0  0  0  0  0  0  0  0  0  0  0  0
  -25.6680  -27.4480   22.4362 C   0  0  0  0  0  0  0  0  0  0  0  0
  -24.2969  -27.5688   22.6616 C   0  0  0  0  0  0  0  0  0  0  0  0
  -28.9504  -12.0881   18.2188 C   0  0  0  0  0  0  0  0  0  0  0  0
  -22.5040  -16.9141   20.3174 C   0  0  0  0  0  0  0  0  0  0  0  0
  -28.3529  -13.2546   20.6815 C   0  0  0  0  0  0  0  0  0  0  0  0
  -24.3174  -29.7478   21.6182 C   0  0  0  0  0  0  0  0  0  0  0  0
  -29.0198  -25.1811   19.2377 C   0  0  0  0  0  0  0  0  0  0  0  0
  -30.4194  -24.1195   17.3879 C   0  0  0  0  0  0  0  0  0  0  0  0
  -15.8804  -22.8022   17.3385 C   0  0  0  0  0  0  0  0  0  0  0  0
  -20.5756  -17.9950   21.3037 C   0  0  0  0  0  0  0  0  0  0  0  0
  -16.2027  -21.5464   17.8876 C   0  0  0  0  0  0  0  0  0  0  0  0
  -21.7526  -18.0770   20.5461 C   0  0  0  0  0  0  0  0  0  0  0  0
  -29.1741  -13.9235   19.7739 C   0  0  0  0  0  0  0  0  0  0  0  0
  -27.8305  -12.0024   20.3579 C   0  0  0  0  0  0  0  0  0  0  0  0
  -28.1494  -27.3144   20.8105 C   0  0  0  0  0  0  0  0  0  0  0  0
  -22.0970  -15.6892   20.8456 C   0  0  0  0  0  0  0  0  0  0  0  0
  -26.3640  -28.4771   21.8018 C   0  0  0  0  0  0  0  0  0  0  0  0
  -23.6215  -28.7187   22.2526 C   0  0  0  0  0  0  0  0  0  0  0  0
  -25.6886  -29.6270   21.3928 C   0  0  0  0  0  0  0  0  0  0  0  0
  -28.1292  -11.4191   19.1265 C   0  0  0  0  0  0  0  0  0  0  0  0
  -29.4695  -24.0788   18.4261 C   0  0  0  0  0  0  0  0  0  0  0  0
  -30.4921  -22.8239   16.9379 C   0  0  0  0  0  0  0  0  0  0  0  0
  -31.1692  -25.2294   16.8761 C   0  0  0  0  0  0  0  0  0  0  0  0
  -19.2978  -20.0576   19.2503 C   0  0  0  0  0  0  0  0  0  0  0  0
  -21.8543  -21.8722   20.0832 C   0  0  0  0  0  0  0  0  0  0  0  0
  -24.7212  -12.4262   21.3484 C   0  0  0  0  0  0  0  0  0  0  0  0
  -25.0361  -22.0055   21.3101 C   0  0  0  0  0  0  0  0  0  0  0  0
  -29.4101  -17.6680   19.6029 C   0  0  0  0  0  0  0  0  0  0  0  0
  -16.8438  -23.5516   16.4525 C   0  0  0  0  0  0  0  0  0  0  0  0
  -19.7635  -19.2293   21.5854 C   0  0  0  0  0  0  0  0  0  0  0  0
  -22.2306  -19.3804   19.9620 C   0  0  0  0  0  0  0  0  0  0  0  0
  -18.2856  -23.0645   16.5715 C   0  0  0  0  0  0  0  0  0  0  0  0
  -27.8652  -18.8421   16.5480 C   0  0  0  0  0  0  0  0  0  0  0  0
  -18.3405  -21.5410   16.5180 C   0  0  0  0  0  0  0  0  0  0  0  0
  -28.1991  -20.3344   16.5923 C   0  0  0  0  0  0  0  0  0  0  0  0
  -27.5578  -18.3028   17.9419 C   0  0  0  0  0  0  0  0  0  0  0  0
  -28.9699  -20.0290   18.9908 C   0  0  0  0  0  0  0  0  0  0  0  0
  -17.5654  -20.9197   17.6862 C   0  0  1  0  0  0  0  0  0  0  0  0
  -19.9825  -20.3359   20.5584 C   0  0  1  0  0  0  0  0  0  0  0  0
  -29.3122  -20.6293   17.6151 C   0  0  2  0  0  0  0  0  0  0  0  0
  -26.8770  -23.6267   21.8394 C   0  0  0  0  0  0  0  0  0  0  0  0
  -22.4944  -22.1125   17.1096 C   0  0  0  0  0  0  0  0  0  0  0  0
  -24.7882  -22.8948   17.7378 C   0  0  0  0  0  0  0  0  0  0  0  0
  -22.7897  -24.2255   18.4143 C   0  0  0  0  0  0  0  0  0  0  0  0
  -25.0131  -21.2743   24.1778 C   0  0  0  0  0  0  0  0  0  0  0  0
  -29.7327  -15.2626   20.1195 C   0  0  0  0  0  0  0  0  0  0  0  0
  -26.9516  -11.3150   21.3625 C   0  0  0  0  0  0  0  0  0  0  0  0
  -23.3102  -12.2193   20.8202 C   0  0  0  0  0  0  0  0  0  0  0  0
  -22.3651  -13.3516   21.1916 C   0  0  0  0  0  0  0  0  0  1  0  0
  -23.2661  -22.0290   19.5720 C   0  0  1  0  0  0  0  0  0  0  0  0
  -25.6677  -22.8788   22.3790 C   0  0  2  0  0  0  0  0  0  0  0  0
  -23.3248  -22.7904   18.2176 C   0  0  0  0  0  0  0  0  0  0  0  0
  -28.9742  -22.8542   18.6239 N   0  0  0  0  0  0  0  0  0  0  0  0
  -29.6153  -22.1135   17.7039 N   0  0  0  0  0  0  0  0  0  0  0  0
  -21.3988  -20.5580   20.2603 N   0  0  0  0  0  0  0  0  0  0  0  0
  -28.6645  -18.6002   18.8622 N   0  0  0  0  0  0  0  0  0  0  0  0
  -31.2199  -22.2343   15.9657 N   0  0  0  0  0  0  0  0  0  0  0  0
  -30.9728  -26.4914   17.4533 N   0  0  0  0  0  0  0  0  0  0  0  0
  -18.3424  -20.9942   18.9049 N   0  0  0  0  0  0  0  0  0  0  0  0
  -25.5560  -11.3768   20.9922 N   0  0  0  0  0  0  0  0  0  0  0  0
  -24.0214  -22.6629   20.6471 N   0  0  0  0  0  0  0  0  0  0  0  0
  -29.0532  -16.3364   19.4295 N   0  0  0  0  0  0  0  0  0  0  0  0
  -26.1070  -22.0469   23.5348 N   0  3  0  0  0  0  0  0  0  0  0  0
  -31.9768  -25.1087   15.9239 O   0  0  0  0  0  0  0  0  0  0  0  0
  -19.6140  -19.0672   18.6015 O   0  0  0  0  0  0  0  0  0  0  0  0
  -21.1829  -22.8787   20.3235 O   0  0  0  0  0  0  0  0  0  0  0  0
  -25.0572  -13.4073   22.0059 O   0  0  0  0  0  0  0  0  0  0  0  0
  -25.4082  -20.8563   21.0831 O   0  0  0  0  0  0  0  0  0  0  0  0
  -30.3301  -17.9977   20.3592 O   0  0  0  0  0  0  0  0  0  0  0  0
  -27.7251  -28.3553   21.5781 O   0  0  0  0  0  0  0  0  0  0  0  0
  -22.8365  -14.5698   20.6171 O   0  0  0  0  0  0  0  0  0  1  0  0
  -22.3045  -28.8339   22.4677 F   0  0  0  0  0  0  0  0  0  0  0  0
  -26.3515  -30.6185   20.7818 F   0  0  0  0  0  0  0  0  0  0  0  0
  -27.5010   -9.8714   18.6920 Cl  0  0  0  0  0  0  0  0  0  0  0  0
  1  2  1  0  0  0  0
  1  5  2  0  0  0  0
  2  6  2  0  0  0  0
  3  9  2  0  0  0  0
  3 18  1  0  0  0  0
  4 10  1  0  0  0  0
  4 18  2  0  0  0  0
  5 20  1  0  0  0  0
  6 22  1  0  0  0  0
  7 11  2  0  0  0  0
  7 21  1  0  0  0  0
  8 14  2  0  0  0  0
  8 24  1  0  0  0  0
  9 26  1  0  0  0  0
 10 26  2  0  0  0  0
 11 27  1  0  0  0  0
 12 13  2  0  0  0  0
 12 28  1  0  0  0  0
 13 29  1  0  0  0  0
 14 31  1  0  0  0  0
 15 23  1  0  0  0  0
 15 27  2  0  0  0  0
 16 24  2  0  0  0  0
 16 25  1  0  0  0  0
 17 29  2  0  0  0  0
 17 30  1  0  0  0  0
 18 32  1  0  0  0  0
 19 32  1  0  0  0  0
 19 33  2  0  0  0  0
 19 34  1  0  0  0  0
 20 22  2  0  0  0  0
 20 40  1  0  0  0  0
 21 23  2  0  0  0  0
 21 41  1  0  0  0  0
 22 49  1  0  0  0  0
 23 42  1  0  0  0  0
 24 57  1  0  0  0  0
 25 31  2  0  0  0  0
 25 58  1  0  0  0  0
 26 81  1  0  0  0  0
 27 82  1  0  0  0  0
 28 30  2  0  0  0  0
 28 81  1  0  0  0  0
 29 83  1  0  0  0  0
 30 84  1  0  0  0  0
 31 85  1  0  0  0  0
 32 64  2  0  0  0  0
 33 65  1  0  0  0  0
 33 68  1  0  0  0  0
 34 69  1  0  0  0  0
 34 75  2  0  0  0  0
 35 50  1  0  0  0  0
 35 70  1  0  0  0  0
 35 76  2  0  0  0  0
 36 61  1  0  0  0  0
 36 66  1  0  0  0  0
 36 77  2  0  0  0  0
 37 59  1  0  0  0  0
 37 71  1  0  0  0  0
 37 78  2  0  0  0  0
 38 62  1  0  0  0  0
 38 72  1  0  0  0  0
 38 79  2  0  0  0  0
 39 67  1  0  0  0  0
 39 73  1  0  0  0  0
 39 80  2  0  0  0  0
 40 43  1  0  0  0  0
 41 50  1  0  0  0  0
 42 66  1  0  0  0  0
 43 45  1  0  0  0  0
 44 46  1  0  0  0  0
 44 47  1  0  0  0  0
 45 49  1  0  0  0  0
 46 51  1  0  0  0  0
 47 67  1  0  0  0  0
 48 51  1  0  0  0  0
 48 67  1  0  0  0  0
 49 70  1  0  0  0  0
 50 66  1  0  0  0  0
 51 65  1  0  0  0  0
 52 62  1  0  0  0  0
 53 63  1  0  0  0  0
 54 63  1  0  0  0  0
 55 63  1  0  0  0  0
 56 74  1  0  0  0  0
 57 73  1  0  0  0  0
 58 71  1  0  0  0  0
 59 60  1  0  0  0  0
 60 82  1  0  0  0  0
 61 63  1  0  0  0  0
 61 72  1  0  0  0  0
 62 74  1  0  0  0  0
 64 65  1  0  0  0  0
M  CHG  1  74   1
M  ISO  4  39 100  60 101  73 100  82 101
M  END
> <Batch ID>
0053

> <Smiles>
CNC(C)C(=O)NC(C(=O)N1Cc2cc([101O:1][101CH2:1]CC(=O)NCc3cc(C[100NH:0][100C:0](=O)N4CCCC(n5nc(-c6ccc(Oc7ccc(F)cc7F)cc6)c(C(N)=O)c5N)C4)ccc3Cl)ccc2CC1C(=O)NC1CCCc2ccccc21)C(C)(C)C

> <Shape>
0.193

> <Color>
0.065

> <Negative vol penalty>
0.000

$$$$

  -OEChem-04042322433D

 85 93  0     1  0  0  0  0  0999 V2000
  -30.3839  -31.3283   25.8260 C   0  0  0  0  0  0  0  0  0  0  0  0
  -29.8143  -30.2618   25.1378 C   0  0  0  0  0  0  0  0  0  0  0  0
  -23.9123   -8.9531   20.7820 C   0  0  0  0  0  0  0  0  0  0  0  0
  -23.1766  -11.1262   21.5394 C   0  0  0  0  0  0  0  0  0  0  0  0
  -29.5735  -32.3483   26.3229 C   0  0  0  0  0  0  0  0  0  0  0  0
  -28.4338  -30.2142   24.9471 C   0  0  0  0  0  0  0  0  0  0  0  0
  -27.1698  -28.9196   20.2172 C   0  0  0  0  0  0  0  0  0  0  0  0
  -30.7190  -18.0593   23.1170 C   0  0  0  0  0  0  0  0  0  0  0  0
  -30.6093  -16.9582   22.2678 C   0  0  0  0  0  0  0  0  0  0  0  0
  -23.0825   -8.3441   21.7234 C   0  0  0  0  0  0  0  0  0  0  0  0
  -22.3468  -10.5172   22.4807 C   0  0  0  0  0  0  0  0  0  0  0  0
  -27.2555  -27.5690   19.8823 C   0  0  0  0  0  0  0  0  0  0  0  0
  -19.7963   -7.6169   22.0471 C   0  0  0  0  0  0  0  0  0  0  0  0
  -19.0253   -6.5331   21.6269 C   0  0  0  0  0  0  0  0  0  0  0  0
  -24.8724  -27.3490   20.1849 C   0  0  0  0  0  0  0  0  0  0  0  0
  -28.2705  -17.4569   21.9232 C   0  0  0  0  0  0  0  0  0  0  0  0
  -20.1130   -5.1256   23.2619 C   0  0  0  0  0  0  0  0  0  0  0  0
  -23.9594  -10.3442   20.6901 C   0  0  0  0  0  0  0  0  0  0  0  0
  -24.4882  -11.3241   18.3949 C   0  0  0  0  0  0  0  0  0  0  0  0
  -28.1834  -32.3180   26.1297 C   0  0  0  0  0  0  0  0  0  0  0  0
  -25.9343  -29.4936   20.5497 C   0  0  0  0  0  0  0  0  0  0  0  0
  -27.6040  -31.2340   25.4430 C   0  0  0  0  0  0  0  0  0  0  0  0
  -24.7733  -28.7078   20.5212 C   0  0  0  0  0  0  0  0  0  0  0  0
  -29.6045  -18.8592   23.3693 C   0  0  0  0  0  0  0  0  0  0  0  0
  -28.3803  -18.5580   22.7724 C   0  0  0  0  0  0  0  0  0  0  0  0
  -29.3851  -16.6570   21.6709 C   0  0  0  0  0  0  0  0  0  0  0  0
  -22.2997   -9.1262   22.5727 C   0  0  0  0  0  0  0  0  0  0  0  0
  -26.1071  -26.7828   19.8689 C   0  0  0  0  0  0  0  0  0  0  0  0
  -20.7256   -7.4551   23.0747 C   0  0  0  0  0  0  0  0  0  0  0  0
  -19.1836   -5.2875   22.2343 C   0  0  0  0  0  0  0  0  0  0  0  0
  -20.8839   -6.2094   23.6821 C   0  0  0  0  0  0  0  0  0  0  0  0
  -24.8168  -10.9739   19.7182 C   0  0  0  0  0  0  0  0  0  0  0  0
  -25.6360  -11.8882   17.8939 C   0  0  0  0  0  0  0  0  0  0  0  0
  -27.3608  -22.7039   21.2265 C   0  0  0  0  0  0  0  0  0  0  0  0
  -27.1110  -23.3410   20.0743 C   0  0  0  0  0  0  0  0  0  0  0  0
  -23.2557  -11.1547   17.6822 C   0  0  0  0  0  0  0  0  0  0  0  0
  -27.0459  -21.2556   21.3689 C   0  0  0  0  0  0  0  0  0  0  0  0
  -24.7346  -30.8911   23.1403 C   0  0  0  0  0  0  0  0  0  0  0  0
  -22.2134  -31.4712   21.1835 C   0  0  0  0  0  0  0  0  0  0  0  0
  -20.4423  -30.5917   18.4021 C   0  0  0  0  0  0  0  0  0  0  0  0
  -30.2813  -14.6447   20.4487 C   0  0  0  0  0  0  0  0  0  0  0  0
  -27.3434  -33.4195   26.7263 C   0  0  0  0  0  0  0  0  0  0  0  0
  -25.8548  -30.9582   20.8827 C   0  0  0  0  0  0  0  0  0  0  0  0
  -23.4198  -29.2805   20.8504 C   0  0  0  0  0  0  0  0  0  0  0  0
  -25.9288  -33.4835   26.1562 C   0  0  0  0  0  0  0  0  0  0  0  0
  -30.3981  -11.7488   18.3806 C   0  0  0  0  0  0  0  0  0  0  0  0
  -25.3087  -32.0906   26.1091 C   0  0  0  0  0  0  0  0  0  0  0  0
  -28.9491  -11.2568   18.3635 C   0  0  0  0  0  0  0  0  0  0  0  0
  -30.7884  -12.3163   19.7442 C   0  0  0  0  0  0  0  0  0  0  0  0
  -28.4393  -12.8607   20.2489 C   0  0  0  0  0  0  0  0  0  0  0  0
  -26.1131  -31.1592   25.1943 C   0  0  1  0  0  0  0  0  0  0  0  0
  -24.6207  -31.3180   21.7042 C   0  0  1  0  0  0  0  0  0  0  0  0
  -27.9801  -12.3398   18.8773 C   0  0  2  0  0  0  0  0  0  0  0  0
  -29.7462  -20.0324   24.2827 C   0  0  0  0  0  0  0  0  0  0  0  0
  -18.4075  -31.2295   17.0791 C   0  0  0  0  0  0  0  0  0  0  0  0
  -20.4358  -30.1702   23.2947 C   0  0  0  0  0  0  0  0  0  0  0  0
  -18.6395  -29.9751   21.5617 C   0  0  0  0  0  0  0  0  0  0  0  0
  -19.4735  -32.2251   22.2432 C   0  0  0  0  0  0  0  0  0  0  0  0
  -22.0522  -31.1761   15.9885 C   0  0  0  0  0  0  0  0  0  0  0  0
  -27.1678  -19.4059   23.0277 C   0  0  0  0  0  0  0  0  0  0  0  0
  -27.4058  -24.7905   19.8587 C   0  0  0  0  0  0  0  0  0  1  0  0
  -20.9449  -30.7344   20.8273 C   0  0  1  0  0  0  0  0  0  0  0  0
  -19.9074  -31.4170   17.2457 C   0  0  2  0  0  0  0  0  0  0  0  0
  -19.8991  -30.7646   21.9774 C   0  0  0  0  0  0  0  0  0  0  0  0
  -26.0748  -11.2890   20.0378 N   0  0  0  0  0  0  0  0  0  0  0  0
  -26.5469  -11.8430   18.9080 N   0  0  0  0  0  0  0  0  0  0  0  0
  -23.3948  -30.7161   21.1758 N   0  0  0  0  0  0  0  0  0  0  0  0
  -29.8281  -13.3391   20.1643 N   0  0  0  0  0  0  0  0  0  0  0  0
  -25.9448  -12.4133   16.6893 N   0  0  0  0  0  0  0  0  0  0  0  0
  -22.1763  -10.5568   18.3469 N   0  0  0  0  0  0  0  0  0  0  0  0
  -29.2736  -15.5397   20.8067 N   0  0  0  0  0  0  0  0  0  0  0  0
  -27.3741  -20.7796   22.6269 N   0  0  0  0  0  0  0  0  0  0  0  0
  -25.8168  -31.4357   23.8050 N   0  0  0  0  0  0  0  0  0  0  0  0
  -20.4731  -31.3157   19.5751 N   0  0  0  0  0  0  0  0  0  0  0  0
  -20.5749  -31.0201   15.9737 N   0  3  0  0  0  0  0  0  0  0  0  0
  -23.1208  -11.5077   16.4861 O   0  0  0  0  0  0  0  0  0  0  0  0
  -26.5534  -20.5959   20.4596 O   0  0  0  0  0  0  0  0  0  0  0  0
  -23.9016  -30.1254   23.6110 O   0  0  0  0  0  0  0  0  0  0  0  0
  -22.1591  -32.6741   21.4515 O   0  0  0  0  0  0  0  0  0  0  0  0
  -20.7938  -29.4205   18.2780 O   0  0  0  0  0  0  0  0  0  0  0  0
  -31.4720  -14.9535   20.3535 O   0  0  0  0  0  0  0  0  0  0  0  0
  -21.4897   -8.5322   23.4913 O   0  0  0  0  0  0  0  0  0  0  0  0
  -26.1880  -25.4640   19.5430 O   0  0  0  0  0  0  0  0  0  1  0  0
  -18.4421   -4.2471   21.8317 F   0  0  0  0  0  0  0  0  0  0  0  0
  -21.7743   -6.0481   24.6705 F   0  0  0  0  0  0  0  0  0  0  0  0
  1  2  1  0  0  0  0
  1  5  2  0  0  0  0
  2  6  2  0  0  0  0
  3 10  2  0  0  0  0
  3 18  1  0  0  0  0
  4 11  1  0  0  0  0
  4 18  2  0  0  0  0
  5 20  1  0  0  0  0
  6 22  1  0  0  0  0
  7 12  2  0  0  0  0
  7 21  1  0  0  0  0
  8  9  2  0  0  0  0
  8 24  1  0  0  0  0
  9 26  1  0  0  0  0
 10 27  1  0  0  0  0
 11 27  2  0  0  0  0
 12 28  1  0  0  0  0
 13 14  2  0  0  0  0
 13 29  1  0  0  0  0
 14 30  1  0  0  0  0
 15 23  1  0  0  0  0
 15 28  2  0  0  0  0
 16 25  1  0  0  0  0
 16 26  2  0  0  0  0
 17 30  2  0  0  0  0
 17 31  1  0  0  0  0
 18 32  1  0  0  0  0
 19 32  1  0  0  0  0
 19 33  2  0  0  0  0
 19 36  1  0  0  0  0
 20 22  2  0  0  0  0
 20 42  1  0  0  0  0
 21 23  2  0  0  0  0
 21 43  1  0  0  0  0
 22 51  1  0  0  0  0
 23 44  1  0  0  0  0
 24 25  2  0  0  0  0
 24 54  1  0  0  0  0
 25 60  1  0  0  0  0
 26 71  1  0  0  0  0
 27 82  1  0  0  0  0
 28 83  1  0  0  0  0
 29 31  2  0  0  0  0
 29 82  1  0  0  0  0
 30 84  1  0  0  0  0
 31 85  1  0  0  0  0
 32 65  2  0  0  0  0
 33 66  1  0  0  0  0
 33 69  1  0  0  0  0
 34 35  2  0  0  0  0
 34 37  1  0  0  0  0
 35 61  1  0  0  0  0
 36 70  1  0  0  0  0
 36 76  2  0  0  0  0
 37 72  1  0  0  0  0
 37 77  2  0  0  0  0
 38 52  1  0  0  0  0
 38 73  1  0  0  0  0
 38 78  2  0  0  0  0
 39 62  1  0  0  0  0
 39 67  1  0  0  0  0
 39 79  2  0  0  0  0
 40 63  1  0  0  0  0
 40 74  1  0  0  0  0
 40 80  2  0  0  0  0
 41 68  1  0  0  0  0
 41 71  1  0  0  0  0
 41 81  2  0  0  0  0
 42 45  1  0  0  0  0
 43 52  1  0  0  0  0
 44 67  1  0  0  0  0
 45 47  1  0  0  0  0
 46 48  1  0  0  0  0
 46 49  1  0  0  0  0
 47 51  1  0  0  0  0
 48 53  1  0  0  0  0
 49 68  1  0  0  0  0
 50 53  1  0  0  0  0
 50 68  1  0  0  0  0
 51 73  1  0  0  0  0
 52 67  1  0  0  0  0
 53 66  1  0  0  0  0
 55 63  1  0  0  0  0
 56 64  1  0  0  0  0
 57 64  1  0  0  0  0
 58 64  1  0  0  0  0
 59 75  1  0  0  0  0
 60 72  1  0  0  0  0
 61 83  1  0  0  0  0
 62 64  1  0  0  0  0
 62 74  1  0  0  0  0
 63 75  1  0  0  0  0
 65 66  1  0  0  0  0
M  CHG  1  75   1
M  ISO  4  41 100  61 101  71 100  83 101
M  END
> <Batch ID>
0053

> <Smiles>
CNC(C)C(=O)NC(C(=O)N1Cc2cc([101O:1][101CH2:1]C=CC(=O)NCc3cc([100NH:0][100C:0](=O)N4CCCC(n5nc(-c6ccc(Oc7ccc(F)cc7F)cc6)c(C(N)=O)c5N)C4)ccc3C)ccc2CC1C(=O)NC1CCCc2ccccc21)C(C)(C)C

> <Shape>
0.283

> <Color>
0.094

> <Negative vol penalty>
0.000

$$$$

  -OEChem-04042322433D

 90 99  0     1  0  0  0  0  0999 V2000
  -18.6335  -25.2986   21.2452 C   0  0  0  0  0  0  0  0  0  0  0  0
  -19.2300  -26.2958   20.4802 C   0  0  0  0  0  0  0  0  0  0  0  0
  -25.9998  -12.6738   19.3713 C   0  0  0  0  0  0  0  0  0  0  0  0
  -24.3708  -13.1801   21.0822 C   0  0  0  0  0  0  0  0  0  0  0  0
  -18.8707  -25.2387   22.6178 C   0  0  0  0  0  0  0  0  0  0  0  0
  -20.0633  -27.2344   21.0877 C   0  0  0  0  0  0  0  0  0  0  0  0
  -26.9160  -28.0071   19.0059 C   0  0  0  0  0  0  0  0  0  0  0  0
  -31.7823  -23.3935   19.2637 C   0  0  0  0  0  0  0  0  0  0  0  0
  -30.5790  -22.6884   19.2404 C   0  0  0  0  0  0  0  0  0  0  0  0
  -26.0644  -11.3557   19.8228 C   0  0  0  0  0  0  0  0  0  0  0  0
  -24.4354  -11.8619   21.5337 C   0  0  0  0  0  0  0  0  0  0  0  0
  -28.1759  -28.3608   18.5222 C   0  0  0  0  0  0  0  0  0  0  0  0
  -23.1988   -8.8534   20.6171 C   0  0  0  0  0  0  0  0  0  0  0  0
  -21.9953   -8.2058   20.8960 C   0  0  0  0  0  0  0  0  0  0  0  0
  -28.4054  -29.9984   20.2867 C   0  0  0  0  0  0  0  0  0  0  0  0
  -30.9416  -24.7690   21.0631 C   0  0  0  0  0  0  0  0  0  0  0  0
  -22.6957   -7.8908   23.1867 C   0  0  0  0  0  0  0  0  0  0  0  0
  -25.1531  -13.5861   20.0010 C   0  0  0  0  0  0  0  0  0  0  0  0
  -24.7092  -15.3906   18.2533 C   0  0  0  0  0  0  0  0  0  0  0  0
  -19.7150  -26.1713   23.2408 C   0  0  0  0  0  0  0  0  0  0  0  0
  -26.4020  -28.6378   20.1423 C   0  0  0  0  0  0  0  0  0  0  0  0
  -20.3110  -27.1878   22.4701 C   0  0  0  0  0  0  0  0  0  0  0  0
  -27.1494  -29.6397   20.7831 C   0  0  0  0  0  0  0  0  0  0  0  0
  -31.9636  -24.4338   20.1751 C   0  0  0  0  0  0  0  0  0  0  0  0
  -29.7382  -24.0640   21.0398 C   0  0  0  0  0  0  0  0  0  0  0  0
  -29.5570  -23.0237   20.1284 C   0  0  0  0  0  0  0  0  0  0  0  0
  -25.2822  -10.9497   20.9040 C   0  0  0  0  0  0  0  0  0  0  0  0
  -28.9186  -29.3541   19.1609 C   0  0  0  0  0  0  0  0  0  0  0  0
  -24.1508   -9.0196   21.6230 C   0  0  0  0  0  0  0  0  0  0  0  0
  -21.7437   -7.7245   22.1808 C   0  0  0  0  0  0  0  0  0  0  0  0
  -23.8992   -8.5384   22.9078 C   0  0  0  0  0  0  0  0  0  0  0  0
  -25.0863  -14.9480   19.5354 C   0  0  0  0  0  0  0  0  0  0  0  0
  -24.8097  -16.7588   18.3191 C   0  0  0  0  0  0  0  0  0  0  0  0
  -32.8124  -27.6094   20.3849 C   0  0  0  0  0  0  0  0  0  0  0  0
  -24.3041  -14.6327   17.1056 C   0  0  0  0  0  0  0  0  0  0  0  0
  -23.5712  -28.9227   22.5880 C   0  0  0  0  0  0  0  0  0  0  0  0
  -26.1698  -29.1383   24.2038 C   0  0  0  0  0  0  0  0  0  0  0  0
  -27.0894  -22.9181   19.8204 C   0  0  0  0  0  0  0  0  0  0  0  0
  -29.2463  -28.9094   25.6599 C   0  0  0  0  0  0  0  0  0  0  0  0
  -28.3809  -20.8749   20.0842 C   0  0  0  0  0  0  0  0  0  0  0  0
  -19.9038  -26.0948   24.7352 C   0  0  0  0  0  0  0  0  0  0  0  0
  -25.0236  -28.3322   20.6622 C   0  0  0  0  0  0  0  0  0  0  0  0
  -26.5417  -30.3153   21.9819 C   0  0  0  0  0  0  0  0  0  0  0  0
  -32.7735  -28.9637   19.7010 C   0  0  0  0  0  0  0  0  0  0  0  0
  -21.0972  -26.9015   25.2405 C   0  0  0  0  0  0  0  0  0  0  0  0
  -25.7214  -19.6826   22.3961 C   0  0  0  0  0  0  0  0  0  0  0  0
  -21.1053  -28.2922   24.6138 C   0  0  0  0  0  0  0  0  0  0  0  0
  -25.1377  -18.4629   21.6781 C   0  0  0  0  0  0  0  0  0  0  0  0
  -33.2715  -27.9178   17.5152 C   0  0  0  0  0  0  0  0  0  0  0  0
  -26.2158  -20.7565   21.4365 C   0  0  0  0  0  0  0  0  0  0  0  0
  -33.1310  -26.5349   18.1262 C   0  0  0  0  0  0  0  0  0  0  0  0
  -26.9293  -18.8896   19.9292 C   0  0  0  0  0  0  0  0  0  0  0  0
  -21.2407  -28.2092   23.0886 C   0  0  1  0  0  0  0  0  0  0  0  0
  -24.9261  -28.4105   22.1963 C   0  0  1  0  0  0  0  0  0  0  0  0
  -32.3897  -28.9358   18.2274 C   0  0  1  0  0  0  0  0  0  0  0  0
  -25.4921  -18.4127   20.1817 C   0  0  1  0  0  0  0  0  0  0  0  0
  -28.6595  -24.4468   22.0006 C   0  0  0  0  0  0  0  0  0  0  0  0
  -25.8601  -22.0912   20.1314 C   0  0  0  0  0  0  0  0  0  0  0  0
  -30.3736  -28.9622   27.9013 C   0  0  0  0  0  0  0  0  0  0  0  0
  -25.8355  -32.1687   24.2965 C   0  0  0  0  0  0  0  0  0  0  0  0
  -27.7164  -32.2547   25.9467 C   0  0  0  0  0  0  0  0  0  0  0  0
  -25.6196  -31.0268   26.5110 C   0  0  0  0  0  0  0  0  0  0  0  0
  -30.2859  -26.1580   25.3312 C   0  0  0  0  0  0  0  0  0  0  0  0
  -33.2580  -25.1941   20.1984 C   0  0  0  0  0  0  0  0  0  0  0  0
  -30.8965  -28.6652   18.0337 C   0  0  0  0  0  0  0  0  0  1  0  0
  -27.2112  -30.0450   24.8095 C   0  0  1  0  0  0  0  0  0  0  0  0
  -29.7483  -28.0825   26.8298 C   0  0  2  0  0  0  0  0  0  0  0  0
  -26.5994  -31.3619   25.3653 C   0  0  0  0  0  0  0  0  0  0  0  0
  -25.4030  -15.9535   20.3556 N   0  0  0  0  0  0  0  0  0  0  0  0
  -25.2251  -17.0416   19.5870 N   0  0  0  0  0  0  0  0  0  0  0  0
  -33.1279  -26.5109   19.5885 N   0  0  0  0  0  0  0  0  0  0  0  0
  -25.8890  -29.3175   22.8439 N   0  0  0  0  0  0  0  0  0  0  0  0
  -27.2090  -20.2106   20.4999 N   0  0  0  0  0  0  0  0  0  0  0  0
  -24.5824  -17.7356   17.4154 N   0  0  0  0  0  0  0  0  0  0  0  0
  -22.9418  -14.3481   16.9397 N   0  0  0  0  0  0  0  0  0  0  0  0
  -22.6125  -27.9359   22.7171 N   0  0  0  0  0  0  0  0  0  0  0  0
  -27.9174  -29.2470   25.8059 N   0  0  0  0  0  0  0  0  0  0  0  0
  -28.3140  -22.2788   20.0880 N   0  0  0  0  0  0  0  0  0  0  0  0
  -30.7723  -27.1023   26.3698 N   0  3  0  0  0  0  0  0  0  0  0  0
  -32.6446  -27.5527   21.6063 O   0  0  0  0  0  0  0  0  0  0  0  0
  -25.1277  -14.2061   16.2612 O   0  0  0  0  0  0  0  0  0  0  0  0
  -23.4067  -30.1245   22.7621 O   0  0  0  0  0  0  0  0  0  0  0  0
  -25.6148  -28.2970   24.9161 O   0  0  0  0  0  0  0  0  0  0  0  0
  -26.9493  -24.0226   19.2927 O   0  0  0  0  0  0  0  0  0  0  0  0
  -29.9625  -29.2274   24.7130 O   0  0  0  0  0  0  0  0  0  0  0  0
  -29.4195  -20.2838   19.7687 O   0  0  0  0  0  0  0  0  0  0  0  0
  -25.3448   -9.6635   21.3447 O   0  0  0  0  0  0  0  0  0  0  0  0
  -30.1497  -29.6913   18.6861 O   0  0  0  0  0  0  0  0  0  1  0  0
  -20.5873   -7.1040   22.4489 F   0  0  0  0  0  0  0  0  0  0  0  0
  -24.8094   -8.6962   23.8785 F   0  0  0  0  0  0  0  0  0  0  0  0
  1  2  1  0  0  0  0
  1  5  2  0  0  0  0
  2  6  2  0  0  0  0
  3 10  2  0  0  0  0
  3 18  1  0  0  0  0
  4 11  1  0  0  0  0
  4 18  2  0  0  0  0
  5 20  1  0  0  0  0
  6 22  1  0  0  0  0
  7 12  2  0  0  0  0
  7 21  1  0  0  0  0
  8  9  2  0  0  0  0
  8 24  1  0  0  0  0
  9 26  1  0  0  0  0
 10 27  1  0  0  0  0
 11 27  2  0  0  0  0
 12 28  1  0  0  0  0
 13 14  2  0  0  0  0
 13 29  1  0  0  0  0
 14 30  1  0  0  0  0
 15 23  1  0  0  0  0
 15 28  2  0  0  0  0
 16 24  2  0  0  0  0
 16 25  1  0  0  0  0
 17 30  2  0  0  0  0
 17 31  1  0  0  0  0
 18 32  1  0  0  0  0
 19 32  1  0  0  0  0
 19 33  2  0  0  0  0
 19 35  1  0  0  0  0
 20 22  2  0  0  0  0
 20 41  1  0  0  0  0
 21 23  2  0  0  0  0
 21 42  1  0  0  0  0
 22 53  1  0  0  0  0
 23 43  1  0  0  0  0
 24 64  1  0  0  0  0
 25 26  2  0  0  0  0
 25 57  1  0  0  0  0
 26 78  1  0  0  0  0
 27 87  1  0  0  0  0
 28 88  1  0  0  0  0
 29 31  2  0  0  0  0
 29 87  1  0  0  0  0
 30 89  1  0  0  0  0
 31 90  1  0  0  0  0
 32 69  2  0  0  0  0
 33 70  1  0  0  0  0
 33 74  1  0  0  0  0
 34 44  1  0  0  0  0
 34 71  1  0  0  0  0
 34 80  2  0  0  0  0
 35 75  1  0  0  0  0
 35 81  2  0  0  0  0
 36 54  1  0  0  0  0
 36 76  1  0  0  0  0
 36 82  2  0  0  0  0
 37 66  1  0  0  0  0
 37 72  1  0  0  0  0
 37 83  2  0  0  0  0
 38 58  1  0  0  0  0
 38 78  1  0  0  0  0
 38 84  2  0  0  0  0
 39 67  1  0  0  0  0
 39 77  1  0  0  0  0
 39 85  2  0  0  0  0
 40 73  1  0  0  0  0
 40 78  1  0  0  0  0
 40 86  2  0  0  0  0
 41 45  1  0  0  0  0
 42 54  1  0  0  0  0
 43 72  1  0  0  0  0
 44 55  1  0  0  0  0
 45 47  1  0  0  0  0
 46 48  1  0  0  0  0
 46 50  1  0  0  0  0
 47 53  1  0  0  0  0
 48 56  1  0  0  0  0
 49 51  1  0  0  0  0
 49 55  1  0  0  0  0
 50 73  1  0  0  0  0
 51 71  1  0  0  0  0
 52 56  1  0  0  0  0
 52 73  1  0  0  0  0
 53 76  1  0  0  0  0
 54 72  1  0  0  0  0
 55 65  1  0  0  0  0
 56 70  1  0  0  0  0
 59 67  1  0  0  0  0
 60 68  1  0  0  0  0
 61 68  1  0  0  0  0
 62 68  1  0  0  0  0
 63 79  1  0  0  0  0
 64 71  1  0  0  0  0
 65 88  1  0  0  0  0
 66 68  1  0  0  0  0
 66 77  1  0  0  0  0
 67 79  1  0  0  0  0
 69 70  1  0  0  0  0
M  CHG  1  79   1
M  ISO  4  40 100  65 101  78 100  88 101
M  END
> <Batch ID>
0053

> <Smiles>
CNC(C)C(=O)NC(C(=O)N1Cc2cc([101O:1][101CH2:1]C3CCN(Cc4ccc([100N:0](C(C)=O)[100C:0](=O)N5CCCC(n6nc(-c7ccc(Oc8ccc(F)cc8F)cc7)c(C(N)=O)c6N)C5)c(C)c4)C(=O)C3)ccc2CC1C(=O)NC1CCCc2ccccc21)C(C)(C)C

> <Shape>
0.267

> <Color>
0.076

> <Negative vol penalty>
0.000

$$$$

  -OEChem-04042322433D

 87 95  0     1  0  0  0  0  0999 V2000
  -30.2995  -34.5812   22.8651 C   0  0  0  0  0  0  0  0  0  0  0  0
  -30.2701  -33.1919   22.7988 C   0  0  0  0  0  0  0  0  0  0  0  0
  -23.0293   -9.8941   19.9410 C   0  0  0  0  0  0  0  0  0  0  0  0
  -23.8107   -9.8304   22.2262 C   0  0  0  0  0  0  0  0  0  0  0  0
  -29.4996  -35.3360   22.0082 C   0  0  0  0  0  0  0  0  0  0  0  0
  -29.4399  -32.5565   21.8761 C   0  0  0  0  0  0  0  0  0  0  0  0
  -30.5776  -27.3356   18.8839 C   0  0  0  0  0  0  0  0  0  0  0  0
  -22.2583   -8.7550   20.1728 C   0  0  0  0  0  0  0  0  0  0  0  0
  -23.0397   -8.6913   22.4581 C   0  0  0  0  0  0  0  0  0  0  0  0
  -30.1797  -26.0188   19.1105 C   0  0  0  0  0  0  0  0  0  0  0  0
  -19.7978   -7.9632   23.0751 C   0  0  0  0  0  0  0  0  0  0  0  0
  -19.0512   -7.9165   24.2523 C   0  0  0  0  0  0  0  0  0  0  0  0
  -28.3633  -26.3053   17.5491 C   0  0  0  0  0  0  0  0  0  0  0  0
  -30.8398  -19.6589   21.6064 C   0  0  0  0  0  0  0  0  0  0  0  0
  -31.3140  -17.4781   20.6809 C   0  0  0  0  0  0  0  0  0  0  0  0
  -20.2490   -5.9320   24.9334 C   0  0  0  0  0  0  0  0  0  0  0  0
  -23.8056  -10.4317   20.9677 C   0  0  0  0  0  0  0  0  0  0  0  0
  -24.2114  -12.9493   20.9000 C   0  0  0  0  0  0  0  0  0  0  0  0
  -28.6663  -34.7097   21.0679 C   0  0  0  0  0  0  0  0  0  0  0  0
  -29.8636  -28.1519   17.9949 C   0  0  0  0  0  0  0  0  0  0  0  0
  -28.6270  -33.3036   21.0066 C   0  0  0  0  0  0  0  0  0  0  0  0
  -28.7557  -27.6313   17.3111 C   0  0  0  0  0  0  0  0  0  0  0  0
  -29.9289  -19.0845   22.4931 C   0  0  0  0  0  0  0  0  0  0  0  0
  -29.7106  -17.7070   22.4737 C   0  0  0  0  0  0  0  0  0  0  0  0
  -30.4031  -16.9038   21.5676 C   0  0  0  0  0  0  0  0  0  0  0  0
  -22.2635   -8.1537   21.4314 C   0  0  0  0  0  0  0  0  0  0  0  0
  -29.0707  -25.5043   18.4453 C   0  0  0  0  0  0  0  0  0  0  0  0
  -20.7701   -6.9942   22.8269 C   0  0  0  0  0  0  0  0  0  0  0  0
  -19.2768   -6.9009   25.1815 C   0  0  0  0  0  0  0  0  0  0  0  0
  -20.9957   -5.9786   23.7561 C   0  0  0  0  0  0  0  0  0  0  0  0
  -31.5323  -18.8556   20.7003 C   0  0  0  0  0  0  0  0  0  0  0  0
  -24.6027  -11.6080   20.7286 C   0  0  0  0  0  0  0  0  0  0  0  0
  -25.3190  -13.6785   20.5425 C   0  0  0  0  0  0  0  0  0  0  0  0
  -22.9586  -13.4880   21.3429 C   0  0  0  0  0  0  0  0  0  0  0  0
  -28.2258  -30.8631   18.2615 C   0  0  0  0  0  0  0  0  0  0  0  0
  -28.0525  -30.6209   15.0314 C   0  0  0  0  0  0  0  0  0  0  0  0
  -27.3818  -21.0762   22.1578 C   0  0  0  0  0  0  0  0  0  0  0  0
  -27.9140  -22.6343   20.3048 C   0  0  0  0  0  0  0  0  0  0  0  0
  -28.1468  -28.6223   12.2667 C   0  0  0  0  0  0  0  0  0  0  0  0
  -30.8118  -14.5797   20.6856 C   0  0  0  0  0  0  0  0  0  0  0  0
  -27.7844  -35.5668   20.1949 C   0  0  0  0  0  0  0  0  0  0  0  0
  -30.3217  -29.5620   17.7413 C   0  0  0  0  0  0  0  0  0  0  0  0
  -27.9673  -28.4602   16.3313 C   0  0  0  0  0  0  0  0  0  0  0  0
  -27.2122  -34.8232   18.9907 C   0  0  0  0  0  0  0  0  0  0  0  0
  -29.6132  -12.2487   18.2758 C   0  0  0  0  0  0  0  0  0  0  0  0
  -26.6556  -33.4679   19.4153 C   0  0  0  0  0  0  0  0  0  0  0  0
  -28.1706  -11.9845   18.7132 C   0  0  0  0  0  0  0  0  0  0  0  0
  -30.5452  -12.4271   19.4730 C   0  0  0  0  0  0  0  0  0  0  0  0
  -28.6706  -13.1691   20.8890 C   0  0  0  0  0  0  0  0  0  0  0  0
  -27.7580  -32.5782   20.0023 C   0  0  1  0  0  0  0  0  0  0  0  0
  -29.2140  -30.4624   17.2029 C   0  0  1  0  0  0  0  0  0  0  0  0
  -27.6826  -13.0471   19.7174 C   0  0  2  0  0  0  0  0  0  0  0  0
  -28.7325  -17.0952   23.4269 C   0  0  0  0  0  0  0  0  0  0  0  0
  -25.9427  -21.0997   21.7994 C   0  0  0  0  0  0  0  0  0  0  0  0
  -27.9363  -28.7058    9.7675 C   0  0  0  0  0  0  0  0  0  0  0  0
  -25.0258  -30.8995   15.2981 C   0  0  0  0  0  0  0  0  0  0  0  0
  -24.8102  -30.0378   12.9573 C   0  0  0  0  0  0  0  0  0  0  0  0
  -26.0266  -32.1719   13.3918 C   0  0  0  0  0  0  0  0  0  0  0  0
  -30.8999  -27.6055   11.8848 C   0  0  0  0  0  0  0  0  0  0  0  0
  -29.1978  -19.9703   23.4567 C   0  0  0  0  0  0  0  0  0  0  0  0
  -28.9483  -23.6705   19.9546 C   0  0  0  0  0  0  0  0  0  1  0  0
  -27.0944  -29.9789   14.0573 C   0  0  1  0  0  0  0  0  0  0  0  0
  -28.8907  -28.7582   10.9504 C   0  0  2  0  0  0  0  0  0  0  0  0
  -25.7527  -30.7567   13.9460 C   0  0  0  0  0  0  0  0  0  0  0  0
  -25.8607  -11.4891   20.2957 N   0  0  0  0  0  0  0  0  0  0  0  0
  -26.2694  -12.7652   20.1920 N   0  0  0  0  0  0  0  0  0  0  0  0
  -28.4509  -29.8349   16.1221 N   0  0  0  0  0  0  0  0  0  0  0  0
  -30.0213  -13.4520   20.3785 N   0  0  0  0  0  0  0  0  0  0  0  0
  -25.5630  -15.0055   20.4968 N   0  0  0  0  0  0  0  0  0  0  0  0
  -21.9268  -12.5977   21.6701 N   0  0  0  0  0  0  0  0  0  0  0  0
  -30.1963  -15.5025   21.5306 N   0  0  0  0  0  0  0  0  0  0  0  0
  -28.5690  -32.0142   18.9447 N   0  0  0  0  0  0  0  0  0  0  0  0
  -28.1388  -22.0229   21.5930 N   0  0  0  0  0  0  0  0  0  0  0  0
  -27.8178  -29.8519   12.7968 N   0  0  0  0  0  0  0  0  0  0  0  0
  -27.8140  -20.1345   23.0006 N   0  3  0  0  0  0  0  0  0  0  0  0
  -29.8849  -27.6581   10.8013 N   0  3  0  0  0  0  0  0  0  0  0  0
  -22.7548  -14.7227   21.4298 O   0  0  0  0  0  0  0  0  0  0  0  0
  -27.2253  -30.1794   18.4440 O   0  0  0  0  0  0  0  0  0  0  0  0
  -28.4391  -31.7745   14.8281 O   0  0  0  0  0  0  0  0  0  0  0  0
  -26.9679  -22.3171   19.5984 O   0  0  0  0  0  0  0  0  0  0  0  0
  -27.8807  -27.5340   12.7722 O   0  0  0  0  0  0  0  0  0  0  0  0
  -31.9404  -14.7298   20.2105 O   0  0  0  0  0  0  0  0  0  0  0  0
  -21.5111   -7.0424   21.6581 O   0  0  0  0  0  0  0  0  0  0  0  0
  -28.6798  -24.2195   18.6651 O   0  0  0  0  0  0  0  0  0  1  0  0
  -18.5607   -6.8571   26.3127 F   0  0  0  0  0  0  0  0  0  0  0  0
  -21.9291   -5.0456   23.5238 F   0  0  0  0  0  0  0  0  0  0  0  0
  -32.6551  -19.5647   19.6057 Cl  0  0  0  0  0  0  0  0  0  0  0  0
  1  2  1  0  0  0  0
  1  5  2  0  0  0  0
  2  6  2  0  0  0  0
  3  8  2  0  0  0  0
  3 17  1  0  0  0  0
  4  9  1  0  0  0  0
  4 17  2  0  0  0  0
  5 19  1  0  0  0  0
  6 21  1  0  0  0  0
  7 10  2  0  0  0  0
  7 20  1  0  0  0  0
  8 26  1  0  0  0  0
  9 26  2  0  0  0  0
 10 27  1  0  0  0  0
 11 12  2  0  0  0  0
 11 28  1  0  0  0  0
 12 29  1  0  0  0  0
 13 22  1  0  0  0  0
 13 27  2  0  0  0  0
 14 23  1  0  0  0  0
 14 31  2  0  0  0  0
 15 25  2  0  0  0  0
 15 31  1  0  0  0  0
 16 29  2  0  0  0  0
 16 30  1  0  0  0  0
 17 32  1  0  0  0  0
 18 32  1  0  0  0  0
 18 33  2  0  0  0  0
 18 34  1  0  0  0  0
 19 21  2  0  0  0  0
 19 41  1  0  0  0  0
 20 22  2  0  0  0  0
 20 42  1  0  0  0  0
 21 50  1  0  0  0  0
 22 43  1  0  0  0  0
 23 24  2  0  0  0  0
 23 60  1  0  0  0  0
 24 25  1  0  0  0  0
 24 53  1  0  0  0  0
 25 71  1  0  0  0  0
 26 83  1  0  0  0  0
 27 84  1  0  0  0  0
 28 30  2  0  0  0  0
 28 83  1  0  0  0  0
 29 85  1  0  0  0  0
 30 86  1  0  0  0  0
 31 87  1  0  0  0  0
 32 65  2  0  0  0  0
 33 66  1  0  0  0  0
 33 69  1  0  0  0  0
 34 70  1  0  0  0  0
 34 77  2  0  0  0  0
 35 51  1  0  0  0  0
 35 72  1  0  0  0  0
 35 78  2  0  0  0  0
 36 62  1  0  0  0  0
 36 67  1  0  0  0  0
 36 79  2  0  0  0  0
 37 54  1  0  0  0  0
 37 73  1  0  0  0  0
 37 75  2  0  0  0  0
 38 61  1  0  0  0  0
 38 73  1  0  0  0  0
 38 80  2  0  0  0  0
 39 63  1  0  0  0  0
 39 74  1  0  0  0  0
 39 81  2  0  0  0  0
 40 68  1  0  0  0  0
 40 71  1  0  0  0  0
 40 82  2  0  0  0  0
 41 44  1  0  0  0  0
 42 51  1  0  0  0  0
 43 67  1  0  0  0  0
 44 46  1  0  0  0  0
 45 47  1  0  0  0  0
 45 48  1  0  0  0  0
 46 50  1  0  0  0  0
 47 52  1  0  0  0  0
 48 68  1  0  0  0  0
 49 52  1  0  0  0  0
 49 68  1  0  0  0  0
 50 72  1  0  0  0  0
 51 67  1  0  0  0  0
 52 66  1  0  0  0  0
 55 63  1  0  0  0  0
 56 64  1  0  0  0  0
 57 64  1  0  0  0  0
 58 64  1  0  0  0  0
 59 76  1  0  0  0  0
 60 75  1  0  0  0  0
 61 84  1  0  0  0  0
 62 64  1  0  0  0  0
 62 74  1  0  0  0  0
 63 76  1  0  0  0  0
 65 66  1  0  0  0  0
M  CHG  2  75   1  76   1
M  ISO  4  40 100  61 101  71 100  84 101
M  END
> <Batch ID>
0053

> <Smiles>
CNC(C)C(=O)NC(C(=O)N1Cc2cc([101O:1][101CH2:1]C(=O)NC(C)=NCc3cc(Cl)cc([100NH:0][100C:0](=O)N4CCCC(n5nc(-c6ccc(Oc7ccc(F)cc7F)cc6)c(C(N)=O)c5N)C4)c3C)ccc2CC1C(=O)NC1CCCc2ccccc21)C(C)(C)C

> <Shape>
0.224

> <Color>
0.190

> <Negative vol penalty>
0.000

$$$$

  -OEChem-04042322433D

 86 95  0     1  0  0  0  0  0999 V2000
  -17.5791  -26.0419   22.8550 C   0  0  0  0  0  0  0  0  0  0  0  0
  -18.8386  -25.6802   22.3878 C   0  0  0  0  0  0  0  0  0  0  0  0
  -28.2119  -15.3023   22.4979 C   0  0  0  0  0  0  0  0  0  0  0  0
  -29.2693  -17.3531   23.2141 C   0  0  0  0  0  0  0  0  0  0  0  0
  -17.1949  -27.3821   22.8540 C   0  0  0  0  0  0  0  0  0  0  0  0
  -19.7143  -26.6586   21.9183 C   0  0  0  0  0  0  0  0  0  0  0  0
  -25.8150  -26.7017   22.4526 C   0  0  0  0  0  0  0  0  0  0  0  0
  -28.9981  -14.5827   23.3977 C   0  0  0  0  0  0  0  0  0  0  0  0
  -30.0555  -16.6335   24.1139 C   0  0  0  0  0  0  0  0  0  0  0  0
  -26.8361  -26.3448   21.5730 C   0  0  0  0  0  0  0  0  0  0  0  0
  -29.0275  -13.9364   26.7165 C   0  0  0  0  0  0  0  0  0  0  0  0
  -28.3985  -12.9627   27.4923 C   0  0  0  0  0  0  0  0  0  0  0  0
  -27.0601  -28.6523   20.9062 C   0  0  0  0  0  0  0  0  0  0  0  0
  -32.6639  -24.4368   16.6427 C   0  0  0  0  0  0  0  0  0  0  0  0
  -31.3033  -22.6968   15.6637 C   0  0  0  0  0  0  0  0  0  0  0  0
  -29.8405  -11.2734   26.5415 C   0  0  0  0  0  0  0  0  0  0  0  0
  -28.3476  -16.6875   22.4060 C   0  0  0  0  0  0  0  0  0  0  0  0
  -26.2710  -17.9996   21.7177 C   0  0  0  0  0  0  0  0  0  0  0  0
  -18.0700  -28.3785   22.3933 C   0  0  0  0  0  0  0  0  0  0  0  0
  -25.4006  -28.0372   22.5578 C   0  0  0  0  0  0  0  0  0  0  0  0
  -19.3409  -28.0133   21.9099 C   0  0  0  0  0  0  0  0  0  0  0  0
  -26.0352  -29.0239   21.7897 C   0  0  0  0  0  0  0  0  0  0  0  0
  -31.9757  -24.2969   17.8479 C   0  0  0  0  0  0  0  0  0  0  0  0
  -30.9514  -23.3569   17.9610 C   0  0  0  0  0  0  0  0  0  0  0  0
  -30.6151  -22.5569   16.8689 C   0  0  0  0  0  0  0  0  0  0  0  0
  -29.9199  -15.2483   24.2057 C   0  0  0  0  0  0  0  0  0  0  0  0
  -27.4569  -27.3197   20.7975 C   0  0  0  0  0  0  0  0  0  0  0  0
  -30.0630  -13.5785   25.8531 C   0  0  0  0  0  0  0  0  0  0  0  0
  -28.8049  -11.6313   27.4049 C   0  0  0  0  0  0  0  0  0  0  0  0
  -30.4695  -12.2471   25.7656 C   0  0  0  0  0  0  0  0  0  0  0  0
  -32.3277  -23.6368   15.5506 C   0  0  0  0  0  0  0  0  0  0  0  0
  -27.5361  -17.4314   21.4763 C   0  0  0  0  0  0  0  0  0  0  0  0
  -25.9283  -18.5930   20.5273 C   0  0  0  0  0  0  0  0  0  0  0  0
  -30.6923  -26.4463   20.4084 C   0  0  0  0  0  0  0  0  0  0  0  0
  -25.4766  -17.9919   22.9113 C   0  0  0  0  0  0  0  0  0  0  0  0
  -22.6804  -29.5909   22.0187 C   0  0  0  0  0  0  0  0  0  0  0  0
  -24.3108  -32.0914   23.2881 C   0  0  0  0  0  0  0  0  0  0  0  0
  -27.3255  -33.5420   23.9622 C   0  0  0  0  0  0  0  0  0  0  0  0
  -29.1339  -20.7326   15.9610 C   0  0  0  0  0  0  0  0  0  0  0  0
  -17.5924  -29.8088   22.3676 C   0  0  0  0  0  0  0  0  0  0  0  0
  -24.3158  -28.4098   23.5308 C   0  0  0  0  0  0  0  0  0  0  0  0
  -25.6412  -30.4747   21.8803 C   0  0  0  0  0  0  0  0  0  0  0  0
  -18.7199  -30.8246   22.2026 C   0  0  0  0  0  0  0  0  0  0  0  0
  -26.6357  -18.2003   15.8072 C   0  0  0  0  0  0  0  0  0  0  0  0
  -19.6683  -30.3931   21.0885 C   0  0  0  0  0  0  0  0  0  0  0  0
  -26.4636  -17.7718   17.2662 C   0  0  0  0  0  0  0  0  0  0  0  0
  -30.2485  -28.2231   18.8701 C   0  0  0  0  0  0  0  0  0  0  0  0
  -28.0914  -18.5287   15.4805 C   0  0  0  0  0  0  0  0  0  0  0  0
  -30.9741  -27.0977   18.1536 C   0  0  0  0  0  0  0  0  0  0  0  0
  -28.5531  -19.0732   17.8383 C   0  0  0  0  0  0  0  0  0  0  0  0
  -20.3283  -29.0482   21.4157 C   0  0  1  0  0  0  0  0  0  0  0  0
  -29.7181  -27.5713   20.1448 C   0  0  1  0  0  0  0  0  0  1  0  0
  -23.6242  -29.7236   23.1803 C   0  0  1  0  0  0  0  0  0  0  0  0
  -27.0933  -18.7946   18.2321 C   0  0  2  0  0  0  0  0  0  0  0  0
  -30.2158  -23.2102   19.2560 C   0  0  0  0  0  0  0  0  0  0  0  0
  -28.3373  -35.6034   24.9742 C   0  0  0  0  0  0  0  0  0  0  0  0
  -23.5853  -33.6746   20.7827 C   0  0  0  0  0  0  0  0  0  0  0  0
  -25.3654  -35.3254   21.3948 C   0  0  0  0  0  0  0  0  0  0  0  0
  -23.4220  -34.9673   22.9173 C   0  0  0  0  0  0  0  0  0  0  0  0
  -28.7251  -31.9731   26.0451 C   0  0  0  0  0  0  0  0  0  0  0  0
  -32.3574  -25.1703   19.0079 C   0  0  0  0  0  0  0  0  0  0  0  0
  -25.2000  -33.1791   22.7355 C   0  0  1  0  0  0  0  0  0  0  0  0
  -27.8783  -34.1756   25.2261 C   0  0  2  0  0  0  0  0  0  0  0  0
  -24.3995  -34.2591   21.9542 C   0  0  0  0  0  0  0  0  0  0  0  0
  -27.9679  -17.6444   20.2304 N   0  0  0  0  0  0  0  0  0  0  0  0
  -26.9684  -18.3531   19.6783 N   0  0  0  0  0  0  0  0  0  0  0  0
  -31.3967  -26.2299   19.2269 N   0  0  0  0  0  0  0  0  0  0  0  0
  -24.5711  -30.7881   22.8417 N   0  0  0  0  0  0  0  0  0  0  0  0
  -28.6197  -19.5068   16.4339 N   0  0  0  0  0  0  0  0  0  0  0  0
  -24.8418  -19.2912   20.1345 N   0  0  0  0  0  0  0  0  0  0  0  0
  -25.9787  -17.3366   24.0439 N   0  0  0  0  0  0  0  0  0  0  0  0
  -29.5777  -21.5962   16.9619 N   0  0  0  0  0  0  0  0  0  0  0  0
  -21.3955  -29.2294   22.3762 N   0  0  0  0  0  0  0  0  0  0  0  0
  -25.9590  -33.7001   23.8672 N   0  0  0  0  0  0  0  0  0  0  0  0
  -29.0395  -33.3913   25.7335 N   0  3  0  0  0  0  0  0  0  0  0  0
  -30.7768  -25.8308   21.4612 O   0  0  0  0  0  0  0  0  0  0  0  0
  -24.3474  -18.5355   22.9667 O   0  0  0  0  0  0  0  0  0  0  0  0
  -23.0875  -29.8022   20.8823 O   0  0  0  0  0  0  0  0  0  0  0  0
  -23.4228  -32.3864   24.0919 O   0  0  0  0  0  0  0  0  0  0  0  0
  -28.0354  -32.9677   23.1395 O   0  0  0  0  0  0  0  0  0  0  0  0
  -29.1522  -21.0080   14.7586 O   0  0  0  0  0  0  0  0  0  0  0  0
  -30.6870  -14.5464   25.0840 O   0  0  0  0  0  0  0  0  0  0  0  0
  -28.4534  -26.9739   19.9378 O   0  0  0  0  0  0  0  0  0  1  0  0
  -28.2018  -10.6967   28.1511 F   0  0  0  0  0  0  0  0  0  0  0  0
  -31.4645  -11.8974   24.9388 F   0  0  0  0  0  0  0  0  0  0  0  0
  -33.1762  -23.8105   14.0635 Cl  0  0  0  0  0  0  0  0  0  0  0  0
  1  2  1  0  0  0  0
  1  5  2  0  0  0  0
  2  6  2  0  0  0  0
  3  8  2  0  0  0  0
  3 17  1  0  0  0  0
  4  9  1  0  0  0  0
  4 17  2  0  0  0  0
  5 19  1  0  0  0  0
  6 21  1  0  0  0  0
  7 10  2  0  0  0  0
  7 20  1  0  0  0  0
  8 26  1  0  0  0  0
  9 26  2  0  0  0  0
 10 27  1  0  0  0  0
 11 12  2  0  0  0  0
 11 28  1  0  0  0  0
 12 29  1  0  0  0  0
 13 22  1  0  0  0  0
 13 27  2  0  0  0  0
 14 23  1  0  0  0  0
 14 31  2  0  0  0  0
 15 25  2  0  0  0  0
 15 31  1  0  0  0  0
 16 29  2  0  0  0  0
 16 30  1  0  0  0  0
 17 32  1  0  0  0  0
 18 32  1  0  0  0  0
 18 33  2  0  0  0  0
 18 35  1  0  0  0  0
 19 21  2  0  0  0  0
 19 40  1  0  0  0  0
 20 22  2  0  0  0  0
 20 41  1  0  0  0  0
 21 51  1  0  0  0  0
 22 42  1  0  0  0  0
 23 24  2  0  0  0  0
 23 61  1  0  0  0  0
 24 25  1  0  0  0  0
 24 55  1  0  0  0  0
 25 72  1  0  0  0  0
 26 82  1  0  0  0  0
 27 83  1  0  0  0  0
 28 30  2  0  0  0  0
 28 82  1  0  0  0  0
 29 84  1  0  0  0  0
 30 85  1  0  0  0  0
 31 86  1  0  0  0  0
 32 65  2  0  0  0  0
 33 66  1  0  0  0  0
 33 70  1  0  0  0  0
 34 52  1  0  0  0  0
 34 67  1  0  0  0  0
 34 76  2  0  0  0  0
 35 71  1  0  0  0  0
 35 77  2  0  0  0  0
 36 53  1  0  0  0  0
 36 73  1  0  0  0  0
 36 78  2  0  0  0  0
 37 62  1  0  0  0  0
 37 68  1  0  0  0  0
 37 79  2  0  0  0  0
 38 63  1  0  0  0  0
 38 74  1  0  0  0  0
 38 80  2  0  0  0  0
 39 69  1  0  0  0  0
 39 72  1  0  0  0  0
 39 81  2  0  0  0  0
 40 43  1  0  0  0  0
 41 53  1  0  0  0  0
 42 68  1  0  0  0  0
 43 45  1  0  0  0  0
 44 46  1  0  0  0  0
 44 48  1  0  0  0  0
 45 51  1  0  0  0  0
 46 54  1  0  0  0  0
 47 49  1  0  0  0  0
 47 52  1  0  0  0  0
 48 69  1  0  0  0  0
 49 67  1  0  0  0  0
 50 54  1  0  0  0  0
 50 69  1  0  0  0  0
 51 73  1  0  0  0  0
 52 83  1  0  0  0  0
 53 68  1  0  0  0  0
 54 66  1  0  0  0  0
 56 63  1  0  0  0  0
 57 64  1  0  0  0  0
 58 64  1  0  0  0  0
 59 64  1  0  0  0  0
 60 75  1  0  0  0  0
 61 67  1  0  0  0  0
 62 64  1  0  0  0  0
 62 74  1  0  0  0  0
 63 75  1  0  0  0  0
 65 66  1  0  0  0  0
M  CHG  1  75   1
M  ISO  4  39 100  52 101  72 100  83 101
M  END
> <Batch ID>
0053

> <Smiles>
CNC(C)C(=O)NC(C(=O)N1Cc2cc([101O:1][101CH:1]3CCN(Cc4cc(Cl)cc([100NH:0][100C:0](=O)N5CCCC(n6nc(-c7ccc(Oc8ccc(F)cc8F)cc7)c(C(N)=O)c6N)C5)c4C)C3=O)ccc2CC1C(=O)NC1CCCc2ccccc21)C(C)(C)C

> <Shape>
0.214

> <Color>
0.076

> <Negative vol penalty>
0.000

$$$$

  -OEChem-04042322433D

 88 96  0     1  0  0  0  0  0999 V2000
  -21.2229  -25.6801   17.1441 C   0  0  0  0  0  0  0  0  0  0  0  0
  -22.4188  -25.4713   17.8236 C   0  0  0  0  0  0  0  0  0  0  0  0
  -23.1941   -9.7511   20.6735 C   0  0  0  0  0  0  0  0  0  0  0  0
  -23.8435  -10.3395   22.9250 C   0  0  0  0  0  0  0  0  0  0  0  0
  -20.6919  -26.9658   17.0488 C   0  0  0  0  0  0  0  0  0  0  0  0
  -23.0849  -26.5484   18.4073 C   0  0  0  0  0  0  0  0  0  0  0  0
  -24.7244  -25.5140   23.0856 C   0  0  0  0  0  0  0  0  0  0  0  0
  -29.3427  -19.7596   21.0282 C   0  0  0  0  0  0  0  0  0  0  0  0
  -29.2234  -18.4067   21.3460 C   0  0  0  0  0  0  0  0  0  0  0  0
  -22.4811   -8.6577   21.1650 C   0  0  0  0  0  0  0  0  0  0  0  0
  -23.1305   -9.2461   23.4165 C   0  0  0  0  0  0  0  0  0  0  0  0
  -25.8822  -24.7456   23.1992 C   0  0  0  0  0  0  0  0  0  0  0  0
  -20.7860   -5.5031   21.7968 C   0  0  0  0  0  0  0  0  0  0  0  0
  -20.9307   -4.2829   21.1367 C   0  0  0  0  0  0  0  0  0  0  0  0
  -27.1665  -26.7497   23.5911 C   0  0  0  0  0  0  0  0  0  0  0  0
  -30.9438  -17.8766   19.7347 C   0  0  0  0  0  0  0  0  0  0  0  0
  -23.3009   -4.3110   21.6043 C   0  0  0  0  0  0  0  0  0  0  0  0
  -23.8754  -10.5921   21.5536 C   0  0  0  0  0  0  0  0  0  0  0  0
  -24.1316  -13.0289   20.8437 C   0  0  0  0  0  0  0  0  0  0  0  0
  -21.3469  -28.0576   17.6399 C   0  0  0  0  0  0  0  0  0  0  0  0
  -24.7808  -26.9093   23.2133 C   0  0  0  0  0  0  0  0  0  0  0  0
  -22.5629  -27.8500   18.3187 C   0  0  0  0  0  0  0  0  0  0  0  0
  -26.0076  -27.5333   23.4812 C   0  0  0  0  0  0  0  0  0  0  0  0
  -30.2624  -20.1710   20.0636 C   0  0  0  0  0  0  0  0  0  0  0  0
  -31.0630  -19.2295   19.4169 C   0  0  0  0  0  0  0  0  0  0  0  0
  -30.0240  -17.4652   20.6993 C   0  0  0  0  0  0  0  0  0  0  0  0
  -22.4492   -8.4051   22.5364 C   0  0  0  0  0  0  0  0  0  0  0  0
  -27.1040  -25.3637   23.4491 C   0  0  0  0  0  0  0  0  0  0  0  0
  -21.8988   -6.1273   22.3606 C   0  0  0  0  0  0  0  0  0  0  0  0
  -22.1881   -3.6868   21.0405 C   0  0  0  0  0  0  0  0  0  0  0  0
  -23.1562   -5.5313   22.2644 C   0  0  0  0  0  0  0  0  0  0  0  0
  -24.6126  -11.7215   21.0465 C   0  0  0  0  0  0  0  0  0  0  0  0
  -25.2122  -13.7199   20.3524 C   0  0  0  0  0  0  0  0  0  0  0  0
  -22.8250  -13.5704   21.0786 C   0  0  0  0  0  0  0  0  0  0  0  0
  -24.1292  -29.3647   21.3028 C   0  0  0  0  0  0  0  0  0  0  0  0
  -24.7218  -31.1009   23.9780 C   0  0  0  0  0  0  0  0  0  0  0  0
  -29.9009  -23.4229   21.4287 C   0  0  0  0  0  0  0  0  0  0  0  0
  -26.2583  -31.3045   27.0185 C   0  0  0  0  0  0  0  0  0  0  0  0
  -30.6229  -15.0285   20.4757 C   0  0  0  0  0  0  0  0  0  0  0  0
  -20.7586  -29.4359   17.4699 C   0  0  0  0  0  0  0  0  0  0  0  0
  -23.5187  -27.7215   23.1147 C   0  0  0  0  0  0  0  0  0  0  0  0
  -26.1186  -29.0261   23.6468 C   0  0  0  0  0  0  0  0  0  0  0  0
  -21.3337  -30.4673   18.4372 C   0  0  0  0  0  0  0  0  0  0  0  0
  -29.7095  -12.0710   18.7161 C   0  0  0  0  0  0  0  0  0  0  0  0
  -22.8551  -30.3667   18.4823 C   0  0  0  0  0  0  0  0  0  0  0  0
  -28.2625  -11.8239   19.1488 C   0  0  0  0  0  0  0  0  0  0  0  0
  -30.5577  -12.6216   19.8611 C   0  0  0  0  0  0  0  0  0  0  0  0
  -28.5626  -13.5654   20.9556 C   0  0  0  0  0  0  0  0  0  0  0  0
  -23.3022  -28.9891   18.9864 C   0  0  1  0  0  0  0  0  0  0  0  0
  -23.7741  -29.1809   22.7512 C   0  0  1  0  0  0  0  0  0  0  0  0
  -27.6536  -13.0717   19.8182 C   0  0  2  0  0  0  0  0  0  0  0  0
  -26.5901  -32.8626   28.9575 C   0  0  0  0  0  0  0  0  0  0  0  0
  -26.7273  -32.7119   22.3372 C   0  0  0  0  0  0  0  0  0  0  0  0
  -27.6851  -33.5743   24.4836 C   0  0  0  0  0  0  0  0  0  0  0  0
  -25.3148  -34.0739   23.8878 C   0  0  0  0  0  0  0  0  0  0  0  0
  -32.0319  -22.1095   21.4953 C   0  0  0  0  0  0  0  0  0  0  0  0
  -24.9615  -29.4245   28.9007 C   0  0  0  0  0  0  0  0  0  0  0  0
  -30.3721  -21.6326   19.7380 C   0  0  0  0  0  0  0  0  0  0  0  0
  -30.4228  -24.1641   22.6553 C   0  0  0  0  0  0  0  0  0  0  0  0
  -29.4613  -25.2307   23.1641 C   0  0  0  0  0  0  0  0  0  1  0  0
  -25.9478  -31.7303   24.5943 C   0  0  1  0  0  0  0  0  0  0  0  0
  -25.7447  -31.7383   28.3796 C   0  0  2  0  0  0  0  0  0  0  0  0
  -32.0560  -19.6470   18.3824 C   0  0  0  0  0  0  0  0  0  0  0  0
  -26.4173  -32.9946   23.8207 C   0  0  0  0  0  0  0  0  0  0  0  0
  -25.8985  -11.5873   20.7111 N   0  0  0  0  0  0  0  0  0  0  0  0
  -26.2347  -12.8193   20.2926 N   0  0  0  0  0  0  0  0  0  0  0  0
  -24.8574  -29.7775   23.5354 N   0  0  0  0  0  0  0  0  0  0  0  0
  -29.9211  -13.8048   20.4438 N   0  0  0  0  0  0  0  0  0  0  0  0
  -25.3779  -15.0038   19.9698 N   0  0  0  0  0  0  0  0  0  0  0  0
  -21.8315  -12.7220   21.5862 N   0  0  0  0  0  0  0  0  0  0  0  0
  -29.9046  -16.0909   21.0232 N   0  0  0  0  0  0  0  0  0  0  0  0
  -23.1648  -28.9082   20.4248 N   0  0  0  0  0  0  0  0  0  0  0  0
  -25.6211  -31.9739   25.9952 N   0  0  0  0  0  0  0  0  0  0  0  0
  -30.7360  -22.4278   20.9085 N   0  0  0  0  0  0  0  0  0  0  0  0
  -25.7713  -30.5927   29.3325 N   0  3  0  0  0  0  0  0  0  0  0  0
  -22.5423  -14.7669   20.8300 O   0  0  0  0  0  0  0  0  0  0  0  0
  -25.1984  -29.8837   21.0040 O   0  0  0  0  0  0  0  0  0  0  0  0
  -23.6801  -31.7569   23.8990 O   0  0  0  0  0  0  0  0  0  0  0  0
  -28.8015  -23.7059   20.9456 O   0  0  0  0  0  0  0  0  0  0  0  0
  -27.1393  -30.4593   26.8774 O   0  0  0  0  0  0  0  0  0  0  0  0
  -31.7661  -15.1329   20.0239 O   0  0  0  0  0  0  0  0  0  0  0  0
  -21.7534   -7.3384   23.0163 O   0  0  0  0  0  0  0  0  0  0  0  0
  -28.2357  -24.6162   23.5598 O   0  0  0  0  0  0  0  0  0  1  0  0
  -22.3266   -2.5143   20.4079 F   0  0  0  0  0  0  0  0  0  0  0  0
  -24.2287   -6.1256   22.8051 F   0  0  0  0  0  0  0  0  0  0  0  0
  -32.7587  -18.6051   17.8491 F   0  0  0  0  0  0  0  0  0  0  0  0
  -31.4941  -20.2839   17.3137 F   0  0  0  0  0  0  0  0  0  0  0  0
  -32.9923  -20.5088   18.8738 F   0  0  0  0  0  0  0  0  0  0  0  0
  1  2  1  0  0  0  0
  1  5  2  0  0  0  0
  2  6  2  0  0  0  0
  3 10  2  0  0  0  0
  3 18  1  0  0  0  0
  4 11  1  0  0  0  0
  4 18  2  0  0  0  0
  5 20  1  0  0  0  0
  6 22  1  0  0  0  0
  7 12  2  0  0  0  0
  7 21  1  0  0  0  0
  8  9  2  0  0  0  0
  8 24  1  0  0  0  0
  9 26  1  0  0  0  0
 10 27  1  0  0  0  0
 11 27  2  0  0  0  0
 12 28  1  0  0  0  0
 13 14  2  0  0  0  0
 13 29  1  0  0  0  0
 14 30  1  0  0  0  0
 15 23  1  0  0  0  0
 15 28  2  0  0  0  0
 16 25  1  0  0  0  0
 16 26  2  0  0  0  0
 17 30  2  0  0  0  0
 17 31  1  0  0  0  0
 18 32  1  0  0  0  0
 19 32  1  0  0  0  0
 19 33  2  0  0  0  0
 19 34  1  0  0  0  0
 20 22  2  0  0  0  0
 20 40  1  0  0  0  0
 21 23  2  0  0  0  0
 21 41  1  0  0  0  0
 22 49  1  0  0  0  0
 23 42  1  0  0  0  0
 24 25  2  0  0  0  0
 24 58  1  0  0  0  0
 25 63  1  0  0  0  0
 26 71  1  0  0  0  0
 27 82  1  0  0  0  0
 28 83  1  0  0  0  0
 29 31  2  0  0  0  0
 29 82  1  0  0  0  0
 30 84  1  0  0  0  0
 31 85  1  0  0  0  0
 32 65  2  0  0  0  0
 33 66  1  0  0  0  0
 33 69  1  0  0  0  0
 34 70  1  0  0  0  0
 34 76  2  0  0  0  0
 35 50  1  0  0  0  0
 35 72  1  0  0  0  0
 35 77  2  0  0  0  0
 36 61  1  0  0  0  0
 36 67  1  0  0  0  0
 36 78  2  0  0  0  0
 37 59  1  0  0  0  0
 37 74  1  0  0  0  0
 37 79  2  0  0  0  0
 38 62  1  0  0  0  0
 38 73  1  0  0  0  0
 38 80  2  0  0  0  0
 39 68  1  0  0  0  0
 39 71  1  0  0  0  0
 39 81  2  0  0  0  0
 40 43  1  0  0  0  0
 41 50  1  0  0  0  0
 42 67  1  0  0  0  0
 43 45  1  0  0  0  0
 44 46  1  0  0  0  0
 44 47  1  0  0  0  0
 45 49  1  0  0  0  0
 46 51  1  0  0  0  0
 47 68  1  0  0  0  0
 48 51  1  0  0  0  0
 48 68  1  0  0  0  0
 49 72  1  0  0  0  0
 50 67  1  0  0  0  0
 51 66  1  0  0  0  0
 52 62  1  0  0  0  0
 53 64  1  0  0  0  0
 54 64  1  0  0  0  0
 55 64  1  0  0  0  0
 56 74  1  0  0  0  0
 57 75  1  0  0  0  0
 58 74  1  0  0  0  0
 59 60  1  0  0  0  0
 60 83  1  0  0  0  0
 61 64  1  0  0  0  0
 61 73  1  0  0  0  0
 62 75  1  0  0  0  0
 63 86  1  0  0  0  0
 63 87  1  0  0  0  0
 63 88  1  0  0  0  0
 65 66  1  0  0  0  0
M  CHG  1  75   1
M  ISO  4  39 100  60 101  71 100  83 101
M  END
> <Batch ID>
0053

> <Smiles>
CNC(C)C(=O)NC(C(=O)N1Cc2cc([101O:1][101CH2:1]CC(=O)N(C)Cc3ccc([100NH:0][100C:0](=O)N4CCCC(n5nc(-c6ccc(Oc7ccc(F)cc7F)cc6)c(C(N)=O)c5N)C4)cc3C(F)(F)F)ccc2CC1C(=O)NC1CCCc2ccccc21)C(C)(C)C

> <Shape>
0.297

> <Color>
0.180

> <Negative vol penalty>
0.000

$$$$

  -OEChem-04042322433D

 86 94  0     1  0  0  0  0  0999 V2000
  -22.7969  -23.2928   25.2290 C   0  0  0  0  0  0  0  0  0  0  0  0
  -23.7651  -23.2788   24.2301 C   0  0  0  0  0  0  0  0  0  0  0  0
  -23.1792   -9.9840   21.5229 C   0  0  0  0  0  0  0  0  0  0  0  0
  -23.8826  -11.0171   23.5905 C   0  0  0  0  0  0  0  0  0  0  0  0
  -21.6751  -24.1106   25.0995 C   0  0  0  0  0  0  0  0  0  0  0  0
  -23.6116  -24.0819   23.1005 C   0  0  0  0  0  0  0  0  0  0  0  0
  -27.8789  -26.5004   21.8414 C   0  0  0  0  0  0  0  0  0  0  0  0
  -29.4154  -18.4256   20.2731 C   0  0  0  0  0  0  0  0  0  0  0  0
  -29.5598  -19.6778   19.6759 C   0  0  0  0  0  0  0  0  0  0  0  0
  -22.4504   -9.0379   22.2435 C   0  0  0  0  0  0  0  0  0  0  0  0
  -23.1538  -10.0710   24.3111 C   0  0  0  0  0  0  0  0  0  0  0  0
  -28.8562  -25.7623   21.1750 C   0  0  0  0  0  0  0  0  0  0  0  0
  -19.4825   -8.8797   23.8558 C   0  0  0  0  0  0  0  0  0  0  0  0
  -18.1889   -8.5900   23.4219 C   0  0  0  0  0  0  0  0  0  0  0  0
  -28.1359  -26.7132   19.0783 C   0  0  0  0  0  0  0  0  0  0  0  0
  -31.0944  -17.5238   18.7881 C   0  0  0  0  0  0  0  0  0  0  0  0
  -18.8158   -6.2797   23.0955 C   0  0  0  0  0  0  0  0  0  0  0  0
  -23.8953  -10.9736   22.1964 C   0  0  0  0  0  0  0  0  0  0  0  0
  -24.1943  -13.1982   20.9842 C   0  0  0  0  0  0  0  0  0  0  0  0
  -21.5125  -24.9313   23.9722 C   0  0  0  0  0  0  0  0  0  0  0  0
  -27.0142  -27.3435   21.1288 C   0  0  0  0  0  0  0  0  0  0  0  0
  -22.4859  -24.9104   22.9551 C   0  0  0  0  0  0  0  0  0  0  0  0
  -27.1502  -27.4628   19.7383 C   0  0  0  0  0  0  0  0  0  0  0  0
  -31.2387  -18.7761   18.1909 C   0  0  0  0  0  0  0  0  0  0  0  0
  -30.1828  -17.3486   19.8292 C   0  0  0  0  0  0  0  0  0  0  0  0
  -30.4714  -19.8531   18.6348 C   0  0  0  0  0  0  0  0  0  0  0  0
  -22.4377   -9.0814   23.6376 C   0  0  0  0  0  0  0  0  0  0  0  0
  -28.9829  -25.8665   19.7929 C   0  0  0  0  0  0  0  0  0  0  0  0
  -20.4428   -7.8694   23.9094 C   0  0  0  0  0  0  0  0  0  0  0  0
  -17.8555   -7.2900   23.0418 C   0  0  0  0  0  0  0  0  0  0  0  0
  -20.1094   -6.5694   23.5293 C   0  0  0  0  0  0  0  0  0  0  0  0
  -24.6488  -11.9509   21.4525 C   0  0  0  0  0  0  0  0  0  0  0  0
  -25.2812  -13.7415   20.3440 C   0  0  0  0  0  0  0  0  0  0  0  0
  -22.9048  -13.8111   21.1162 C   0  0  0  0  0  0  0  0  0  0  0  0
  -23.8708  -27.4652   20.6731 C   0  0  0  0  0  0  0  0  0  0  0  0
  -24.5897  -30.2455   19.1646 C   0  0  0  0  0  0  0  0  0  0  0  0
  -29.9161  -22.2959   18.3739 C   0  0  0  0  0  0  0  0  0  0  0  0
  -26.9086  -32.1341   17.5206 C   0  0  0  0  0  0  0  0  0  0  0  0
  -30.7217  -14.9047   20.1181 C   0  0  0  0  0  0  0  0  0  0  0  0
  -20.2599  -25.7630   23.8545 C   0  0  0  0  0  0  0  0  0  0  0  0
  -25.9828  -28.1532   21.8656 C   0  0  0  0  0  0  0  0  0  0  0  0
  -26.2600  -28.3693   18.9294 C   0  0  0  0  0  0  0  0  0  0  0  0
  -20.3566  -26.8643   22.8018 C   0  0  0  0  0  0  0  0  0  0  0  0
  -29.7093  -11.6674   19.0354 C   0  0  0  0  0  0  0  0  0  0  0  0
  -20.9445  -26.3141   21.5062 C   0  0  0  0  0  0  0  0  0  0  0  0
  -28.2651  -11.5552   19.5292 C   0  0  0  0  0  0  0  0  0  0  0  0
  -30.5905  -12.4249   20.0271 C   0  0  0  0  0  0  0  0  0  0  0  0
  -28.6376  -13.6302   20.9229 C   0  0  0  0  0  0  0  0  0  0  0  0
  -22.3672  -25.7859   21.7265 C   0  0  1  0  0  0  0  0  0  0  0  0
  -24.8202  -28.5889   20.9790 C   0  0  1  0  0  0  0  0  0  0  0  0
  -27.6971  -12.9316   19.9274 C   0  0  2  0  0  0  0  0  0  0  0  0
  -27.1910  -34.3476   16.3726 C   0  0  0  0  0  0  0  0  0  0  0  0
  -33.6051  -19.3287   17.5959 C   0  0  0  0  0  0  0  0  0  0  0  0
  -23.0591  -29.1846   16.7477 C   0  0  0  0  0  0  0  0  0  0  0  0
  -24.1581  -30.9563   15.3616 C   0  0  0  0  0  0  0  0  0  0  0  0
  -22.6652  -31.6020   17.2530 C   0  0  0  0  0  0  0  0  0  0  0  0
  -29.0093  -32.9843   19.4240 C   0  0  0  0  0  0  0  0  0  0  0  0
  -30.3646  -23.4514   17.4863 C   0  0  0  0  0  0  0  0  0  0  0  0
  -29.6485  -24.7568   17.7975 C   0  0  0  0  0  0  0  0  0  1  0  0
  -24.9469  -30.6329   17.7499 C   0  0  1  0  0  0  0  0  0  0  0  0
  -27.3234  -33.5854   17.6819 C   0  0  2  0  0  0  0  0  0  0  0  0
  -32.2242  -18.9358   17.0791 C   0  0  0  0  0  0  0  0  0  0  0  0
  -23.7230  -30.5753   16.7928 C   0  0  0  0  0  0  0  0  0  0  0  0
  -25.9250  -11.7154   21.1366 N   0  0  0  0  0  0  0  0  0  0  0  0
  -26.2817  -12.8222   20.4628 N   0  0  0  0  0  0  0  0  0  0  0  0
  -25.2628  -29.1356   19.6947 N   0  0  0  0  0  0  0  0  0  0  0  0
  -29.9917  -13.7207   20.3546 N   0  0  0  0  0  0  0  0  0  0  0  0
  -25.4692  -14.9110   19.6965 N   0  0  0  0  0  0  0  0  0  0  0  0
  -21.9016  -13.1152   21.8043 N   0  0  0  0  0  0  0  0  0  0  0  0
  -30.6043  -21.1317   18.0431 N   0  0  0  0  0  0  0  0  0  0  0  0
  -30.0379  -16.0772   20.4379 N   0  0  0  0  0  0  0  0  0  0  0  0
  -23.3089  -26.8827   21.7931 N   0  0  0  0  0  0  0  0  0  0  0  0
  -25.5790  -31.9451   17.8333 N   0  0  0  0  0  0  0  0  0  0  0  0
  -28.7405  -33.6719   18.1348 N   0  3  0  0  0  0  0  0  0  0  0  0
  -22.6450  -14.9352   20.6239 O   0  0  0  0  0  0  0  0  0  0  0  0
  -23.6623  -27.1510   19.5071 O   0  0  0  0  0  0  0  0  0  0  0  0
  -23.7499  -30.9077   19.7793 O   0  0  0  0  0  0  0  0  0  0  0  0
  -29.0615  -22.4339   19.2428 O   0  0  0  0  0  0  0  0  0  0  0  0
  -27.6853  -31.2565   17.1503 O   0  0  0  0  0  0  0  0  0  0  0  0
  -31.8586  -14.8815   19.6397 O   0  0  0  0  0  0  0  0  0  0  0  0
  -21.7265   -8.1584   24.3411 O   0  0  0  0  0  0  0  0  0  0  0  0
  -29.9355  -25.1467   19.1399 O   0  0  0  0  0  0  0  0  0  1  0  0
  -16.6128   -7.0116   22.6267 F   0  0  0  0  0  0  0  0  0  0  0  0
  -21.0274   -5.5944   23.5799 F   0  0  0  0  0  0  0  0  0  0  0  0
  -31.8495  -19.8873   16.1665 F   0  0  0  0  0  0  0  0  0  0  0  0
  -32.3811  -17.7941   16.3371 F   0  0  0  0  0  0  0  0  0  0  0  0
  1  2  1  0  0  0  0
  1  5  2  0  0  0  0
  2  6  2  0  0  0  0
  3 10  2  0  0  0  0
  3 18  1  0  0  0  0
  4 11  1  0  0  0  0
  4 18  2  0  0  0  0
  5 20  1  0  0  0  0
  6 22  1  0  0  0  0
  7 12  2  0  0  0  0
  7 21  1  0  0  0  0
  8  9  2  0  0  0  0
  8 25  1  0  0  0  0
  9 26  1  0  0  0  0
 10 27  1  0  0  0  0
 11 27  2  0  0  0  0
 12 28  1  0  0  0  0
 13 14  2  0  0  0  0
 13 29  1  0  0  0  0
 14 30  1  0  0  0  0
 15 23  1  0  0  0  0
 15 28  2  0  0  0  0
 16 24  1  0  0  0  0
 16 25  2  0  0  0  0
 17 30  2  0  0  0  0
 17 31  1  0  0  0  0
 18 32  1  0  0  0  0
 19 32  1  0  0  0  0
 19 33  2  0  0  0  0
 19 34  1  0  0  0  0
 20 22  2  0  0  0  0
 20 40  1  0  0  0  0
 21 23  2  0  0  0  0
 21 41  1  0  0  0  0
 22 49  1  0  0  0  0
 23 42  1  0  0  0  0
 24 26  2  0  0  0  0
 24 62  1  0  0  0  0
 25 71  1  0  0  0  0
 26 70  1  0  0  0  0
 27 81  1  0  0  0  0
 28 82  1  0  0  0  0
 29 31  2  0  0  0  0
 29 81  1  0  0  0  0
 30 83  1  0  0  0  0
 31 84  1  0  0  0  0
 32 64  2  0  0  0  0
 33 65  1  0  0  0  0
 33 68  1  0  0  0  0
 34 69  1  0  0  0  0
 34 75  2  0  0  0  0
 35 50  1  0  0  0  0
 35 72  1  0  0  0  0
 35 76  2  0  0  0  0
 36 60  1  0  0  0  0
 36 66  1  0  0  0  0
 36 77  2  0  0  0  0
 37 58  1  0  0  0  0
 37 70  1  0  0  0  0
 37 78  2  0  0  0  0
 38 61  1  0  0  0  0
 38 73  1  0  0  0  0
 38 79  2  0  0  0  0
 39 67  1  0  0  0  0
 39 71  1  0  0  0  0
 39 80  2  0  0  0  0
 40 43  1  0  0  0  0
 41 50  1  0  0  0  0
 42 66  1  0  0  0  0
 43 45  1  0  0  0  0
 44 46  1  0  0  0  0
 44 47  1  0  0  0  0
 45 49  1  0  0  0  0
 46 51  1  0  0  0  0
 47 67  1  0  0  0  0
 48 51  1  0  0  0  0
 48 67  1  0  0  0  0
 49 72  1  0  0  0  0
 50 66  1  0  0  0  0
 51 65  1  0  0  0  0
 52 61  1  0  0  0  0
 53 62  1  0  0  0  0
 54 63  1  0  0  0  0
 55 63  1  0  0  0  0
 56 63  1  0  0  0  0
 57 74  1  0  0  0  0
 58 59  1  0  0  0  0
 59 82  1  0  0  0  0
 60 63  1  0  0  0  0
 60 73  1  0  0  0  0
 61 74  1  0  0  0  0
 62 85  1  0  0  0  0
 62 86  1  0  0  0  0
 64 65  1  0  0  0  0
M  CHG  1  74   1
M  ISO  4  39 100  59 101  71 100  82 101
M  END
> <Batch ID>
0053

> <Smiles>
CNC(C)C(=O)NC(C(=O)N1Cc2cc([101O:1][101CH2:1]CC(=O)Nc3ccc([100NH:0][100C:0](=O)N4CCCC(n5nc(-c6ccc(Oc7ccc(F)cc7F)cc6)c(C(N)=O)c5N)C4)cc3C(C)(F)F)ccc2CC1C(=O)NC1CCCc2ccccc21)C(C)(C)C

> <Shape>
0.252

> <Color>
0.170

> <Negative vol penalty>
0.000

$$$$

  -OEChem-04042322433D

 85 93  0     1  0  0  0  0  0999 V2000
  -19.0590  -28.8385   27.2545 C   0  0  0  0  0  0  0  0  0  0  0  0
  -19.6180  -27.5965   26.9710 C   0  0  0  0  0  0  0  0  0  0  0  0
  -22.9994   -9.8735   20.0095 C   0  0  0  0  0  0  0  0  0  0  0  0
  -23.6080  -10.0792   22.3385 C   0  0  0  0  0  0  0  0  0  0  0  0
  -18.4107  -29.5556   26.2498 C   0  0  0  0  0  0  0  0  0  0  0  0
  -19.5281  -27.0704   25.6828 C   0  0  0  0  0  0  0  0  0  0  0  0
  -23.9074  -25.0950   24.0812 C   0  0  0  0  0  0  0  0  0  0  0  0
  -32.4650  -17.6634   23.4554 C   0  0  0  0  0  0  0  0  0  0  0  0
  -31.9214  -16.7095   22.5950 C   0  0  0  0  0  0  0  0  0  0  0  0
  -22.2194   -8.7574   20.3119 C   0  0  0  0  0  0  0  0  0  0  0  0
  -22.8280   -8.9631   22.6410 C   0  0  0  0  0  0  0  0  0  0  0  0
  -24.2514  -23.8334   24.5646 C   0  0  0  0  0  0  0  0  0  0  0  0
  -23.0926   -5.6008   22.4050 C   0  0  0  0  0  0  0  0  0  0  0  0
  -23.6407   -4.6373   23.2516 C   0  0  0  0  0  0  0  0  0  0  0  0
  -29.7196  -17.6346   22.9605 C   0  0  0  0  0  0  0  0  0  0  0  0
  -23.4770  -22.8404   22.5070 C   0  0  0  0  0  0  0  0  0  0  0  0
  -21.8351   -4.9868   24.8184 C   0  0  0  0  0  0  0  0  0  0  0  0
  -23.6937  -10.5344   21.0228 C   0  0  0  0  0  0  0  0  0  0  0  0
  -30.2632  -18.5884   23.8209 C   0  0  0  0  0  0  0  0  0  0  0  0
  -24.0897  -13.0337   20.6995 C   0  0  0  0  0  0  0  0  0  0  0  0
  -18.3213  -29.0423   24.9463 C   0  0  0  0  0  0  0  0  0  0  0  0
  -23.3346  -25.2380   22.8092 C   0  0  0  0  0  0  0  0  0  0  0  0
  -18.8769  -27.7807   24.6600 C   0  0  0  0  0  0  0  0  0  0  0  0
  -23.1290  -24.1052   22.0087 C   0  0  0  0  0  0  0  0  0  0  0  0
  -31.6359  -18.6028   24.0684 C   0  0  0  0  0  0  0  0  0  0  0  0
  -30.5487  -16.6951   22.3475 C   0  0  0  0  0  0  0  0  0  0  0  0
  -22.1337   -8.3022   21.6277 C   0  0  0  0  0  0  0  0  0  0  0  0
  -24.0336  -22.7056   23.7787 C   0  0  0  0  0  0  0  0  0  0  0  0
  -21.9158   -6.2574   22.7651 C   0  0  0  0  0  0  0  0  0  0  0  0
  -23.0120   -4.3302   24.4583 C   0  0  0  0  0  0  0  0  0  0  0  0
  -21.2871   -5.9504   23.9718 C   0  0  0  0  0  0  0  0  0  0  0  0
  -24.5001  -11.6871   20.7110 C   0  0  0  0  0  0  0  0  0  0  0  0
  -25.2170  -13.7331   20.3440 C   0  0  0  0  0  0  0  0  0  0  0  0
  -29.3575  -19.5777   24.4598 C   0  0  0  0  0  0  0  0  0  0  0  0
  -22.8044  -13.6015   20.9847 C   0  0  0  0  0  0  0  0  0  0  0  0
  -20.5574  -26.3245   21.7090 C   0  0  0  0  0  0  0  0  0  0  0  0
  -26.1862  -20.0748   25.0278 C   0  0  0  0  0  0  0  0  0  0  0  0
  -21.9696  -25.8765   18.8233 C   0  0  0  0  0  0  0  0  0  0  0  0
  -24.3387  -24.2555   16.9776 C   0  0  0  0  0  0  0  0  0  0  0  0
  -30.6787  -14.7209   20.7880 C   0  0  0  0  0  0  0  0  0  0  0  0
  -17.5695  -29.8328   23.9048 C   0  0  0  0  0  0  0  0  0  0  0  0
  -22.9937  -26.6085   22.2916 C   0  0  0  0  0  0  0  0  0  0  0  0
  -22.5357  -24.2069   20.6281 C   0  0  0  0  0  0  0  0  0  0  0  0
  -17.8446  -29.3733   22.4754 C   0  0  0  0  0  0  0  0  0  0  0  0
  -29.6764  -12.1162   18.5772 C   0  0  0  0  0  0  0  0  0  0  0  0
  -17.7650  -27.8530   22.3787 C   0  0  0  0  0  0  0  0  0  0  0  0
  -28.2066  -11.8831   18.9343 C   0  0  0  0  0  0  0  0  0  0  0  0
  -30.5152  -12.4416   19.8117 C   0  0  0  0  0  0  0  0  0  0  0  0
  -28.5361  -13.3127   20.9921 C   0  0  0  0  0  0  0  0  0  0  0  0
  -18.8216  -27.1876   23.2688 C   0  0  1  0  0  0  0  0  0  0  0  0
  -21.9419  -26.5854   21.1868 C   0  0  1  0  0  0  0  0  0  0  0  0
  -27.6391  -13.0455   19.7724 C   0  0  2  0  0  0  0  0  0  0  0  0
  -32.2441  -19.6134   24.9854 C   0  0  0  0  0  0  0  0  0  0  0  0
  -25.2276  -24.0711   14.6382 C   0  0  0  0  0  0  0  0  0  0  0  0
  -19.5437  -24.2017   18.0362 C   0  0  0  0  0  0  0  0  0  0  0  0
  -20.8812  -23.2879   16.1272 C   0  0  0  0  0  0  0  0  0  0  0  0
  -20.3829  -25.7295   16.2428 C   0  0  0  0  0  0  0  0  0  0  0  0
  -27.0266  -25.1799   17.8021 C   0  0  0  0  0  0  0  0  0  0  0  0
  -27.3845  -19.8831   25.9328 C   0  0  0  0  0  0  0  0  0  0  0  0
  -25.4634  -21.4003   25.1600 C   0  0  0  0  0  0  0  0  0  1  0  0
  -22.0637  -24.7302   17.8455 C   0  0  1  0  0  0  0  0  0  0  0  0
  -25.3652  -24.7673   15.9832 C   0  0  2  0  0  0  0  0  0  0  0  0
  -20.7273  -24.4849   17.0897 C   0  0  0  0  0  0  0  0  0  0  0  0
  -25.7875  -11.5376   20.3883 N   0  0  0  0  0  0  0  0  0  0  0  0
  -26.1959  -12.7993   20.1705 N   0  0  0  0  0  0  0  0  0  0  0  0
  -22.2132  -25.5681   20.1692 N   0  0  0  0  0  0  0  0  0  0  0  0
  -29.9195  -13.5549   20.5537 N   0  0  0  0  0  0  0  0  0  0  0  0
  -25.4566  -15.0497   20.1658 N   0  0  0  0  0  0  0  0  0  0  0  0
  -21.7559  -12.7396   21.3341 N   0  0  0  0  0  0  0  0  0  0  0  0
  -29.9967  -15.7246   21.4750 N   0  0  0  0  0  0  0  0  0  0  0  0
  -28.3496  -19.0587   25.2686 N   0  0  0  0  0  0  0  0  0  0  0  0
  -20.1236  -27.2490   22.6399 N   0  0  0  0  0  0  0  0  0  0  0  0
  -23.1964  -25.0277   16.9755 N   0  0  0  0  0  0  0  0  0  0  0  0
  -26.7448  -24.5318   16.4954 N   0  3  0  0  0  0  0  0  0  0  0  0
  -29.5216  -20.7740   24.2352 O   0  0  0  0  0  0  0  0  0  0  0  0
  -22.5879  -14.8351   20.9154 O   0  0  0  0  0  0  0  0  0  0  0  0
  -19.9285  -25.3568   21.2967 O   0  0  0  0  0  0  0  0  0  0  0  0
  -25.7877  -19.1920   24.2684 O   0  0  0  0  0  0  0  0  0  0  0  0
  -21.6973  -27.0054   18.4073 O   0  0  0  0  0  0  0  0  0  0  0  0
  -24.5296  -23.2672   17.6829 O   0  0  0  0  0  0  0  0  0  0  0  0
  -31.8389  -14.8321   20.3834 O   0  0  0  0  0  0  0  0  0  0  0  0
  -21.3725   -7.2132   21.9231 O   0  0  0  0  0  0  0  0  0  0  0  0
  -24.3679  -21.4729   24.2484 O   0  0  0  0  0  0  0  0  0  1  0  0
  -23.5376   -3.4038   25.2704 F   0  0  0  0  0  0  0  0  0  0  0  0
  -20.1556   -6.5770   24.3226 F   0  0  0  0  0  0  0  0  0  0  0  0
  1  2  1  0  0  0  0
  1  5  2  0  0  0  0
  2  6  2  0  0  0  0
  3 10  2  0  0  0  0
  3 18  1  0  0  0  0
  4 11  1  0  0  0  0
  4 18  2  0  0  0  0
  5 21  1  0  0  0  0
  6 23  1  0  0  0  0
  7 12  2  0  0  0  0
  7 22  1  0  0  0  0
  8  9  2  0  0  0  0
  8 25  1  0  0  0  0
  9 26  1  0  0  0  0
 10 27  1  0  0  0  0
 11 27  2  0  0  0  0
 12 28  1  0  0  0  0
 13 14  2  0  0  0  0
 13 29  1  0  0  0  0
 14 30  1  0  0  0  0
 15 19  1  0  0  0  0
 15 26  2  0  0  0  0
 16 24  1  0  0  0  0
 16 28  2  0  0  0  0
 17 30  2  0  0  0  0
 17 31  1  0  0  0  0
 18 32  1  0  0  0  0
 19 25  2  0  0  0  0
 19 34  1  0  0  0  0
 20 32  1  0  0  0  0
 20 33  2  0  0  0  0
 20 35  1  0  0  0  0
 21 23  2  0  0  0  0
 21 41  1  0  0  0  0
 22 24  2  0  0  0  0
 22 42  1  0  0  0  0
 23 50  1  0  0  0  0
 24 43  1  0  0  0  0
 25 53  1  0  0  0  0
 26 70  1  0  0  0  0
 27 82  1  0  0  0  0
 28 83  1  0  0  0  0
 29 31  2  0  0  0  0
 29 82  1  0  0  0  0
 30 84  1  0  0  0  0
 31 85  1  0  0  0  0
 32 64  2  0  0  0  0
 33 65  1  0  0  0  0
 33 68  1  0  0  0  0
 34 71  1  0  0  0  0
 34 75  2  0  0  0  0
 35 69  1  0  0  0  0
 35 76  2  0  0  0  0
 36 51  1  0  0  0  0
 36 72  1  0  0  0  0
 36 77  2  0  0  0  0
 37 59  1  0  0  0  0
 37 60  1  0  0  0  0
 37 78  2  0  0  0  0
 38 61  1  0  0  0  0
 38 66  1  0  0  0  0
 38 79  2  0  0  0  0
 39 62  1  0  0  0  0
 39 73  1  0  0  0  0
 39 80  2  0  0  0  0
 40 67  1  0  0  0  0
 40 70  1  0  0  0  0
 40 81  2  0  0  0  0
 41 44  1  0  0  0  0
 42 51  1  0  0  0  0
 43 66  1  0  0  0  0
 44 46  1  0  0  0  0
 45 47  1  0  0  0  0
 45 48  1  0  0  0  0
 46 50  1  0  0  0  0
 47 52  1  0  0  0  0
 48 67  1  0  0  0  0
 49 52  1  0  0  0  0
 49 67  1  0  0  0  0
 50 72  1  0  0  0  0
 51 66  1  0  0  0  0
 52 65  1  0  0  0  0
 54 62  1  0  0  0  0
 55 63  1  0  0  0  0
 56 63  1  0  0  0  0
 57 63  1  0  0  0  0
 58 74  1  0  0  0  0
 59 71  1  0  0  0  0
 60 83  1  0  0  0  0
 61 63  1  0  0  0  0
 61 73  1  0  0  0  0
 62 74  1  0  0  0  0
 64 65  1  0  0  0  0
M  CHG  1  74   1
M  ISO  4  40 100  60 101  70 100  83 101
M  END
> <Batch ID>
0053

> <Smiles>
CNC(C)C(=O)NC(C(=O)N1Cc2cc([101O:1][101CH2:1]C(=O)CNC(=O)c3cc([100NH:0][100C:0](=O)N4CCCC(n5nc(-c6ccc(Oc7ccc(F)cc7F)cc6)c(C(N)=O)c5N)C4)ccc3C)ccc2CC1C(=O)NC1CCCc2ccccc21)C(C)(C)C

> <Shape>
0.229

> <Color>
0.199

> <Negative vol penalty>
0.000

$$$$

  -OEChem-04042322433D

 84 92  0     1  0  0  0  0  0999 V2000
  -31.7922  -32.6260   23.4921 C   0  0  0  0  0  0  0  0  0  0  0  0
  -31.6624  -31.5512   22.6184 C   0  0  0  0  0  0  0  0  0  0  0  0
  -21.6704  -22.0261   19.4181 C   0  0  0  0  0  0  0  0  0  0  0  0
  -23.9532   -9.7698   21.9967 C   0  0  0  0  0  0  0  0  0  0  0  0
  -22.1949  -10.3701   20.4523 C   0  0  0  0  0  0  0  0  0  0  0  0
  -30.9276  -32.7477   24.5791 C   0  0  0  0  0  0  0  0  0  0  0  0
  -30.6684  -30.5968   22.8319 C   0  0  0  0  0  0  0  0  0  0  0  0
  -27.5123  -27.5492   18.5591 C   0  0  0  0  0  0  0  0  0  0  0  0
  -22.1533  -21.9888   18.1100 C   0  0  0  0  0  0  0  0  0  0  0  0
  -21.9778  -20.9940   20.3048 C   0  0  0  0  0  0  0  0  0  0  0  0
  -23.4695   -8.4622   22.0391 C   0  0  0  0  0  0  0  0  0  0  0  0
  -21.7112   -9.0624   20.4948 C   0  0  0  0  0  0  0  0  0  0  0  0
  -27.6579  -26.2727   18.0175 C   0  0  0  0  0  0  0  0  0  0  0  0
  -20.9549   -6.7849   23.5517 C   0  0  0  0  0  0  0  0  0  0  0  0
  -20.8484   -6.1744   24.8013 C   0  0  0  0  0  0  0  0  0  0  0  0
  -26.0145  -25.4329   19.5709 C   0  0  0  0  0  0  0  0  0  0  0  0
  -22.3746   -4.4436   24.0856 C   0  0  0  0  0  0  0  0  0  0  0  0
  -23.3158  -10.7238   21.2033 C   0  0  0  0  0  0  0  0  0  0  0  0
  -24.7732  -12.5987   20.2715 C   0  0  0  0  0  0  0  0  0  0  0  0
  -29.9164  -31.7995   24.8005 C   0  0  0  0  0  0  0  0  0  0  0  0
  -26.6232  -27.7753   19.6196 C   0  0  0  0  0  0  0  0  0  0  0  0
  -29.7903  -30.7051   23.9236 C   0  0  0  0  0  0  0  0  0  0  0  0
  -25.8575  -26.7136   20.1224 C   0  0  0  0  0  0  0  0  0  0  0  0
  -22.9435  -20.9194   17.6886 C   0  0  0  0  0  0  0  0  0  0  0  0
  -23.2509  -19.8874   18.5752 C   0  0  0  0  0  0  0  0  0  0  0  0
  -22.7681  -19.9247   19.8833 C   0  0  0  0  0  0  0  0  0  0  0  0
  -22.3485   -8.1085   21.2882 C   0  0  0  0  0  0  0  0  0  0  0  0
  -26.9111  -25.2138   18.5254 C   0  0  0  0  0  0  0  0  0  0  0  0
  -21.7712   -6.2248   22.5690 C   0  0  0  0  0  0  0  0  0  0  0  0
  -21.5582   -5.0037   25.0683 C   0  0  0  0  0  0  0  0  0  0  0  0
  -22.4810   -5.0541   22.8360 C   0  0  0  0  0  0  0  0  0  0  0  0
  -23.8146  -12.0748   21.1595 C   0  0  0  0  0  0  0  0  0  0  0  0
  -24.8984  -13.9160   20.6395 C   0  0  0  0  0  0  0  0  0  0  0  0
  -25.4864  -11.9524   19.2088 C   0  0  0  0  0  0  0  0  0  0  0  0
  -26.9212  -28.7744   22.6224 C   0  0  0  0  0  0  0  0  0  0  0  0
  -23.6788  -28.7018   22.5573 C   0  0  0  0  0  0  0  0  0  0  0  0
  -25.3128  -22.5491   16.0889 C   0  0  0  0  0  0  0  0  0  0  0  0
  -20.8369  -27.4280   21.1618 C   0  0  0  0  0  0  0  0  0  0  0  0
  -22.6591  -18.7911   22.1303 C   0  0  0  0  0  0  0  0  0  0  0  0
  -29.0358  -31.9477   26.0159 C   0  0  0  0  0  0  0  0  0  0  0  0
  -26.4581  -29.1634   20.1749 C   0  0  0  0  0  0  0  0  0  0  0  0
  -24.8744  -26.9078   21.2467 C   0  0  0  0  0  0  0  0  0  0  0  0
  -27.7703  -31.0959   25.9587 C   0  0  0  0  0  0  0  0  0  0  0  0
  -23.1566  -16.3807   24.7032 C   0  0  0  0  0  0  0  0  0  0  0  0
  -28.1031  -29.6745   25.5163 C   0  0  0  0  0  0  0  0  0  0  0  0
  -23.4510  -15.0887   23.9376 C   0  0  0  0  0  0  0  0  0  0  0  0
  -22.1114  -17.2368   23.9902 C   0  0  0  0  0  0  0  0  0  0  0  0
  -22.6997  -16.2386   21.8162 C   0  0  0  0  0  0  0  0  0  0  0  0
  -28.7088  -29.6627   24.1077 C   0  0  1  0  0  0  0  0  0  0  0  0
  -25.9011  -29.1765   21.5951 C   0  0  1  0  0  0  0  0  0  0  0  0
  -23.7943  -15.3736   22.4623 C   0  0  2  0  0  0  0  0  0  0  0  0
  -24.0994  -18.7422   18.1184 C   0  0  0  0  0  0  0  0  0  0  0  0
  -18.3361  -27.5295   21.3445 C   0  0  0  0  0  0  0  0  0  0  0  0
  -23.7927  -26.9520   25.0544 C   0  0  0  0  0  0  0  0  0  0  0  0
  -21.4075  -26.3178   24.6339 C   0  0  0  0  0  0  0  0  0  0  0  0
  -22.0024  -28.6980   25.0847 C   0  0  0  0  0  0  0  0  0  0  0  0
  -20.5602  -28.4464   18.3968 C   0  0  0  0  0  0  0  0  0  0  0  0
  -23.4502  -20.9042   16.2753 C   0  0  0  0  0  0  0  0  0  0  0  0
  -26.8315  -22.6008   16.0303 C   0  0  0  0  0  0  0  0  0  0  0  0
  -27.4054  -23.8801   16.6193 C   0  0  0  0  0  0  0  0  0  1  0  0
  -22.6264  -27.6638   22.8637 C   0  0  1  0  0  0  0  0  0  0  0  0
  -19.5704  -28.1006   20.6638 C   0  0  2  0  0  0  0  0  0  0  0  0
  -22.4771  -27.4035   24.3893 C   0  0  0  0  0  0  0  0  0  0  0  0
  -23.3632  -12.9850   22.0265 N   0  0  0  0  0  0  0  0  0  0  0  0
  -24.0410  -14.0941   21.6852 N   0  0  0  0  0  0  0  0  0  0  0  0
  -24.7533  -28.2822   21.7603 N   0  0  0  0  0  0  0  0  0  0  0  0
  -22.5057  -17.4691   22.5991 N   0  0  0  0  0  0  0  0  0  0  0  0
  -25.6574  -14.9278   20.1676 N   0  0  0  0  0  0  0  0  0  0  0  0
  -25.2373  -10.5948   18.9658 N   0  0  0  0  0  0  0  0  0  0  0  0
  -23.0685  -18.8875   20.8008 N   0  0  0  0  0  0  0  0  0  0  0  0
  -27.6727  -29.8262   23.1106 N   0  0  0  0  0  0  0  0  0  0  0  0
  -24.8527  -21.2449   16.1999 N   0  0  0  0  0  0  0  0  0  0  0  0
  -21.4027  -28.1187   22.2125 N   0  0  0  0  0  0  0  0  0  0  0  0
  -19.4265  -27.9097   19.1928 N   0  3  0  0  0  0  0  0  0  0  0  0
  -26.3320  -12.5567   18.5064 O   0  0  0  0  0  0  0  0  0  0  0  0
  -27.0182  -27.5973   22.9491 O   0  0  0  0  0  0  0  0  0  0  0  0
  -23.5486  -29.8447   23.0026 O   0  0  0  0  0  0  0  0  0  0  0  0
  -24.6025  -23.5497   16.0422 O   0  0  0  0  0  0  0  0  0  0  0  0
  -21.2780  -26.3914   20.6704 O   0  0  0  0  0  0  0  0  0  0  0  0
  -22.4697  -19.7654   22.8629 O   0  0  0  0  0  0  0  0  0  0  0  0
  -21.8764   -6.8326   21.3292 O   0  0  0  0  0  0  0  0  0  0  0  0
  -27.0517  -23.9667   17.9991 O   0  0  0  0  0  0  0  0  0  1  0  0
  -21.4571   -4.4184   26.2688 F   0  0  0  0  0  0  0  0  0  0  0  0
  -23.2677   -4.5119   21.8964 F   0  0  0  0  0  0  0  0  0  0  0  0
  1  2  1  0  0  0  0
  1  6  2  0  0  0  0
  2  7  2  0  0  0  0
  3  9  2  0  0  0  0
  3 10  1  0  0  0  0
  4 11  2  0  0  0  0
  4 18  1  0  0  0  0
  5 12  1  0  0  0  0
  5 18  2  0  0  0  0
  6 20  1  0  0  0  0
  7 22  1  0  0  0  0
  8 13  2  0  0  0  0
  8 21  1  0  0  0  0
  9 24  1  0  0  0  0
 10 26  2  0  0  0  0
 11 27  1  0  0  0  0
 12 27  2  0  0  0  0
 13 28  1  0  0  0  0
 14 15  2  0  0  0  0
 14 29  1  0  0  0  0
 15 30  1  0  0  0  0
 16 23  1  0  0  0  0
 16 28  2  0  0  0  0
 17 30  2  0  0  0  0
 17 31  1  0  0  0  0
 18 32  1  0  0  0  0
 19 32  1  0  0  0  0
 19 33  2  0  0  0  0
 19 34  1  0  0  0  0
 20 22  2  0  0  0  0
 20 40  1  0  0  0  0
 21 23  2  0  0  0  0
 21 41  1  0  0  0  0
 22 49  1  0  0  0  0
 23 42  1  0  0  0  0
 24 25  2  0  0  0  0
 24 58  1  0  0  0  0
 25 26  1  0  0  0  0
 25 52  1  0  0  0  0
 26 70  1  0  0  0  0
 27 81  1  0  0  0  0
 28 82  1  0  0  0  0
 29 31  2  0  0  0  0
 29 81  1  0  0  0  0
 30 83  1  0  0  0  0
 31 84  1  0  0  0  0
 32 64  2  0  0  0  0
 33 65  1  0  0  0  0
 33 68  1  0  0  0  0
 34 69  1  0  0  0  0
 34 75  2  0  0  0  0
 35 50  1  0  0  0  0
 35 71  1  0  0  0  0
 35 76  2  0  0  0  0
 36 61  1  0  0  0  0
 36 66  1  0  0  0  0
 36 77  2  0  0  0  0
 37 59  1  0  0  0  0
 37 72  1  0  0  0  0
 37 78  2  0  0  0  0
 38 62  1  0  0  0  0
 38 73  1  0  0  0  0
 38 79  2  0  0  0  0
 39 67  1  0  0  0  0
 39 70  1  0  0  0  0
 39 80  2  0  0  0  0
 40 43  1  0  0  0  0
 41 50  1  0  0  0  0
 42 66  1  0  0  0  0
 43 45  1  0  0  0  0
 44 46  1  0  0  0  0
 44 47  1  0  0  0  0
 45 49  1  0  0  0  0
 46 51  1  0  0  0  0
 47 67  1  0  0  0  0
 48 51  1  0  0  0  0
 48 67  1  0  0  0  0
 49 71  1  0  0  0  0
 50 66  1  0  0  0  0
 51 65  1  0  0  0  0
 53 62  1  0  0  0  0
 54 63  1  0  0  0  0
 55 63  1  0  0  0  0
 56 63  1  0  0  0  0
 57 74  1  0  0  0  0
 58 72  1  0  0  0  0
 59 60  1  0  0  0  0
 60 82  1  0  0  0  0
 61 63  1  0  0  0  0
 61 73  1  0  0  0  0
 62 74  1  0  0  0  0
 64 65  1  0  0  0  0
M  CHG  1  74   1
M  ISO  4  39 100  60 101  70 100  82 101
M  END
> <Batch ID>
0053

> <Smiles>
CNC(C)C(=O)NC(C(=O)N1Cc2cc([101O:1][101CH2:1]CC(=O)NCc3cccc([100NH:0][100C:0](=O)N4CCCC(n5nc(-c6ccc(Oc7ccc(F)cc7F)cc6)c(C(N)=O)c5N)C4)c3C)ccc2CC1C(=O)NC1CCCc2ccccc21)C(C)(C)C

> <Shape>
0.204

> <Color>
0.111

> <Negative vol penalty>
0.000

$$$$

  -OEChem-04042322433D

 85 93  0     1  0  0  0  0  0999 V2000
  -30.3839  -31.3283   25.8260 C   0  0  0  0  0  0  0  0  0  0  0  0
  -29.8143  -30.2618   25.1378 C   0  0  0  0  0  0  0  0  0  0  0  0
  -23.9123   -8.9531   20.7820 C   0  0  0  0  0  0  0  0  0  0  0  0
  -23.1766  -11.1262   21.5394 C   0  0  0  0  0  0  0  0  0  0  0  0
  -29.5735  -32.3483   26.3229 C   0  0  0  0  0  0  0  0  0  0  0  0
  -28.4338  -30.2142   24.9471 C   0  0  0  0  0  0  0  0  0  0  0  0
  -27.1698  -28.9196   20.2172 C   0  0  0  0  0  0  0  0  0  0  0  0
  -30.7190  -18.0593   23.1170 C   0  0  0  0  0  0  0  0  0  0  0  0
  -30.6093  -16.9582   22.2678 C   0  0  0  0  0  0  0  0  0  0  0  0
  -23.0825   -8.3441   21.7234 C   0  0  0  0  0  0  0  0  0  0  0  0
  -22.3468  -10.5172   22.4807 C   0  0  0  0  0  0  0  0  0  0  0  0
  -27.2555  -27.5690   19.8823 C   0  0  0  0  0  0  0  0  0  0  0  0
  -19.7963   -7.6169   22.0471 C   0  0  0  0  0  0  0  0  0  0  0  0
  -19.0253   -6.5331   21.6269 C   0  0  0  0  0  0  0  0  0  0  0  0
  -24.8724  -27.3490   20.1849 C   0  0  0  0  0  0  0  0  0  0  0  0
  -28.2705  -17.4569   21.9232 C   0  0  0  0  0  0  0  0  0  0  0  0
  -20.1130   -5.1256   23.2619 C   0  0  0  0  0  0  0  0  0  0  0  0
  -23.9594  -10.3442   20.6901 C   0  0  0  0  0  0  0  0  0  0  0  0
  -24.4882  -11.3241   18.3949 C   0  0  0  0  0  0  0  0  0  0  0  0
  -28.1834  -32.3180   26.1297 C   0  0  0  0  0  0  0  0  0  0  0  0
  -25.9343  -29.4936   20.5497 C   0  0  0  0  0  0  0  0  0  0  0  0
  -27.6040  -31.2340   25.4430 C   0  0  0  0  0  0  0  0  0  0  0  0
  -24.7733  -28.7078   20.5212 C   0  0  0  0  0  0  0  0  0  0  0  0
  -29.6045  -18.8592   23.3693 C   0  0  0  0  0  0  0  0  0  0  0  0
  -28.3803  -18.5580   22.7724 C   0  0  0  0  0  0  0  0  0  0  0  0
  -29.3851  -16.6570   21.6709 C   0  0  0  0  0  0  0  0  0  0  0  0
  -22.2997   -9.1262   22.5727 C   0  0  0  0  0  0  0  0  0  0  0  0
  -26.1071  -26.7828   19.8689 C   0  0  0  0  0  0  0  0  0  0  0  0
  -20.7256   -7.4551   23.0747 C   0  0  0  0  0  0  0  0  0  0  0  0
  -19.1836   -5.2875   22.2343 C   0  0  0  0  0  0  0  0  0  0  0  0
  -20.8839   -6.2094   23.6821 C   0  0  0  0  0  0  0  0  0  0  0  0
  -24.8168  -10.9739   19.7182 C   0  0  0  0  0  0  0  0  0  0  0  0
  -25.6360  -11.8882   17.8939 C   0  0  0  0  0  0  0  0  0  0  0  0
  -27.3608  -22.7039   21.2265 C   0  0  0  0  0  0  0  0  0  0  0  0
  -27.1110  -23.3410   20.0743 C   0  0  0  0  0  0  0  0  0  0  0  0
  -23.2557  -11.1547   17.6822 C   0  0  0  0  0  0  0  0  0  0  0  0
  -27.0459  -21.2556   21.3689 C   0  0  0  0  0  0  0  0  0  0  0  0
  -24.7346  -30.8911   23.1403 C   0  0  0  0  0  0  0  0  0  0  0  0
  -22.2134  -31.4712   21.1835 C   0  0  0  0  0  0  0  0  0  0  0  0
  -20.4423  -30.5917   18.4021 C   0  0  0  0  0  0  0  0  0  0  0  0
  -30.2813  -14.6447   20.4487 C   0  0  0  0  0  0  0  0  0  0  0  0
  -27.3434  -33.4195   26.7263 C   0  0  0  0  0  0  0  0  0  0  0  0
  -25.8548  -30.9582   20.8827 C   0  0  0  0  0  0  0  0  0  0  0  0
  -23.4198  -29.2805   20.8504 C   0  0  0  0  0  0  0  0  0  0  0  0
  -25.9288  -33.4835   26.1562 C   0  0  0  0  0  0  0  0  0  0  0  0
  -30.3981  -11.7488   18.3806 C   0  0  0  0  0  0  0  0  0  0  0  0
  -25.3087  -32.0906   26.1091 C   0  0  0  0  0  0  0  0  0  0  0  0
  -28.9491  -11.2568   18.3635 C   0  0  0  0  0  0  0  0  0  0  0  0
  -30.7884  -12.3163   19.7442 C   0  0  0  0  0  0  0  0  0  0  0  0
  -28.4393  -12.8607   20.2489 C   0  0  0  0  0  0  0  0  0  0  0  0
  -26.1131  -31.1592   25.1943 C   0  0  1  0  0  0  0  0  0  0  0  0
  -24.6207  -31.3180   21.7042 C   0  0  1  0  0  0  0  0  0  0  0  0
  -27.9801  -12.3398   18.8773 C   0  0  2  0  0  0  0  0  0  0  0  0
  -29.7462  -20.0324   24.2827 C   0  0  0  0  0  0  0  0  0  0  0  0
  -18.4075  -31.2295   17.0791 C   0  0  0  0  0  0  0  0  0  0  0  0
  -20.4358  -30.1702   23.2947 C   0  0  0  0  0  0  0  0  0  0  0  0
  -18.6395  -29.9751   21.5617 C   0  0  0  0  0  0  0  0  0  0  0  0
  -19.4735  -32.2251   22.2432 C   0  0  0  0  0  0  0  0  0  0  0  0
  -22.0522  -31.1761   15.9885 C   0  0  0  0  0  0  0  0  0  0  0  0
  -27.1678  -19.4059   23.0277 C   0  0  0  0  0  0  0  0  0  0  0  0
  -27.4058  -24.7905   19.8587 C   0  0  0  0  0  0  0  0  0  1  0  0
  -20.9449  -30.7344   20.8273 C   0  0  1  0  0  0  0  0  0  0  0  0
  -19.9074  -31.4170   17.2457 C   0  0  2  0  0  0  0  0  0  0  0  0
  -19.8991  -30.7646   21.9774 C   0  0  0  0  0  0  0  0  0  0  0  0
  -26.0748  -11.2890   20.0378 N   0  0  0  0  0  0  0  0  0  0  0  0
  -26.5469  -11.8430   18.9080 N   0  0  0  0  0  0  0  0  0  0  0  0
  -23.3948  -30.7161   21.1758 N   0  0  0  0  0  0  0  0  0  0  0  0
  -29.8281  -13.3391   20.1643 N   0  0  0  0  0  0  0  0  0  0  0  0
  -25.9448  -12.4133   16.6893 N   0  0  0  0  0  0  0  0  0  0  0  0
  -22.1763  -10.5568   18.3469 N   0  0  0  0  0  0  0  0  0  0  0  0
  -29.2736  -15.5397   20.8067 N   0  0  0  0  0  0  0  0  0  0  0  0
  -27.3741  -20.7796   22.6269 N   0  0  0  0  0  0  0  0  0  0  0  0
  -25.8168  -31.4357   23.8050 N   0  0  0  0  0  0  0  0  0  0  0  0
  -20.4731  -31.3157   19.5751 N   0  0  0  0  0  0  0  0  0  0  0  0
  -20.5749  -31.0201   15.9737 N   0  3  0  0  0  0  0  0  0  0  0  0
  -23.1208  -11.5077   16.4861 O   0  0  0  0  0  0  0  0  0  0  0  0
  -26.5534  -20.5959   20.4596 O   0  0  0  0  0  0  0  0  0  0  0  0
  -23.9016  -30.1254   23.6110 O   0  0  0  0  0  0  0  0  0  0  0  0
  -22.1591  -32.6741   21.4515 O   0  0  0  0  0  0  0  0  0  0  0  0
  -20.7938  -29.4205   18.2780 O   0  0  0  0  0  0  0  0  0  0  0  0
  -31.4720  -14.9535   20.3535 O   0  0  0  0  0  0  0  0  0  0  0  0
  -21.4897   -8.5322   23.4913 O   0  0  0  0  0  0  0  0  0  0  0  0
  -26.1880  -25.4640   19.5430 O   0  0  0  0  0  0  0  0  0  1  0  0
  -18.4421   -4.2471   21.8317 F   0  0  0  0  0  0  0  0  0  0  0  0
  -21.7743   -6.0481   24.6705 F   0  0  0  0  0  0  0  0  0  0  0  0
  1  2  1  0  0  0  0
  1  5  2  0  0  0  0
  2  6  2  0  0  0  0
  3 10  2  0  0  0  0
  3 18  1  0  0  0  0
  4 11  1  0  0  0  0
  4 18  2  0  0  0  0
  5 20  1  0  0  0  0
  6 22  1  0  0  0  0
  7 12  2  0  0  0  0
  7 21  1  0  0  0  0
  8  9  2  0  0  0  0
  8 24  1  0  0  0  0
  9 26  1  0  0  0  0
 10 27  1  0  0  0  0
 11 27  2  0  0  0  0
 12 28  1  0  0  0  0
 13 14  2  0  0  0  0
 13 29  1  0  0  0  0
 14 30  1  0  0  0  0
 15 23  1  0  0  0  0
 15 28  2  0  0  0  0
 16 25  1  0  0  0  0
 16 26  2  0  0  0  0
 17 30  2  0  0  0  0
 17 31  1  0  0  0  0
 18 32  1  0  0  0  0
 19 32  1  0  0  0  0
 19 33  2  0  0  0  0
 19 36  1  0  0  0  0
 20 22  2  0  0  0  0
 20 42  1  0  0  0  0
 21 23  2  0  0  0  0
 21 43  1  0  0  0  0
 22 51  1  0  0  0  0
 23 44  1  0  0  0  0
 24 25  2  0  0  0  0
 24 54  1  0  0  0  0
 25 60  1  0  0  0  0
 26 71  1  0  0  0  0
 27 82  1  0  0  0  0
 28 83  1  0  0  0  0
 29 31  2  0  0  0  0
 29 82  1  0  0  0  0
 30 84  1  0  0  0  0
 31 85  1  0  0  0  0
 32 65  2  0  0  0  0
 33 66  1  0  0  0  0
 33 69  1  0  0  0  0
 34 35  2  0  0  0  0
 34 37  1  0  0  0  0
 35 61  1  0  0  0  0
 36 70  1  0  0  0  0
 36 76  2  0  0  0  0
 37 72  1  0  0  0  0
 37 77  2  0  0  0  0
 38 52  1  0  0  0  0
 38 73  1  0  0  0  0
 38 78  2  0  0  0  0
 39 62  1  0  0  0  0
 39 67  1  0  0  0  0
 39 79  2  0  0  0  0
 40 63  1  0  0  0  0
 40 74  1  0  0  0  0
 40 80  2  0  0  0  0
 41 68  1  0  0  0  0
 41 71  1  0  0  0  0
 41 81  2  0  0  0  0
 42 45  1  0  0  0  0
 43 52  1  0  0  0  0
 44 67  1  0  0  0  0
 45 47  1  0  0  0  0
 46 48  1  0  0  0  0
 46 49  1  0  0  0  0
 47 51  1  0  0  0  0
 48 53  1  0  0  0  0
 49 68  1  0  0  0  0
 50 53  1  0  0  0  0
 50 68  1  0  0  0  0
 51 73  1  0  0  0  0
 52 67  1  0  0  0  0
 53 66  1  0  0  0  0
 55 63  1  0  0  0  0
 56 64  1  0  0  0  0
 57 64  1  0  0  0  0
 58 64  1  0  0  0  0
 59 75  1  0  0  0  0
 60 72  1  0  0  0  0
 61 83  1  0  0  0  0
 62 64  1  0  0  0  0
 62 74  1  0  0  0  0
 63 75  1  0  0  0  0
 65 66  1  0  0  0  0
M  CHG  1  75   1
M  ISO  4  41 100  61 101  71 100  83 101
M  END
> <Batch ID>
0053

> <Smiles>
CNC(C)C(=O)NC(C(=O)N1Cc2cc([101O:1][101CH2:1]C=CC(=O)NCc3cc([100NH:0][100C:0](=O)N4CCCC(n5nc(-c6ccc(Oc7ccc(F)cc7F)cc6)c(C(N)=O)c5N)C4)ccc3C)ccc2CC1C(=O)NC1CCCc2ccccc21)C(C)(C)C

> <Shape>
0.283

> <Color>
0.094

> <Negative vol penalty>
0.000

$$$$

  -OEChem-04042322433D

 83 91  0     1  0  0  0  0  0999 V2000
  -19.9030  -20.1280   22.5449 C   0  0  0  0  0  0  0  0  0  0  0  0
  -20.7407  -20.3940   21.4665 C   0  0  0  0  0  0  0  0  0  0  0  0
  -26.0175  -14.1923   21.8716 C   0  0  0  0  0  0  0  0  0  0  0  0
  -24.8886  -15.4676   20.1580 C   0  0  0  0  0  0  0  0  0  0  0  0
  -19.2449  -21.1744   23.1897 C   0  0  0  0  0  0  0  0  0  0  0  0
  -20.9199  -21.7067   21.0316 C   0  0  0  0  0  0  0  0  0  0  0  0
  -26.0411  -24.1570   18.7348 C   0  0  0  0  0  0  0  0  0  0  0  0
  -30.3633  -25.7064   18.5985 C   0  0  0  0  0  0  0  0  0  0  0  0
  -30.9937  -23.9553   17.0579 C   0  0  0  0  0  0  0  0  0  0  0  0
  -30.0544  -24.7469   19.5626 C   0  0  0  0  0  0  0  0  0  0  0  0
  -30.6848  -22.9958   18.0221 C   0  0  0  0  0  0  0  0  0  0  0  0
  -24.9409  -13.3069   21.9219 C   0  0  0  0  0  0  0  0  0  0  0  0
  -23.8120  -14.5822   20.2083 C   0  0  0  0  0  0  0  0  0  0  0  0
  -26.4620  -24.3961   17.4274 C   0  0  0  0  0  0  0  0  0  0  0  0
  -23.7756  -10.6970   20.1155 C   0  0  0  0  0  0  0  0  0  0  0  0
  -24.0598   -9.3317   20.1413 C   0  0  0  0  0  0  0  0  0  0  0  0
  -25.6661  -26.6673   17.5929 C   0  0  0  0  0  0  0  0  0  0  0  0
  -22.9318   -9.1371   22.2690 C   0  0  0  0  0  0  0  0  0  0  0  0
  -25.9914  -15.2727   20.9896 C   0  0  0  0  0  0  0  0  0  0  0  0
  -28.2430  -16.0950   20.1170 C   0  0  0  0  0  0  0  0  0  0  0  0
  -19.4238  -22.5016   22.7686 C   0  0  0  0  0  0  0  0  0  0  0  0
  -25.4186  -25.1698   19.4786 C   0  0  0  0  0  0  0  0  0  0  0  0
  -20.2626  -22.7717   21.6705 C   0  0  0  0  0  0  0  0  0  0  0  0
  -25.2405  -26.4393   18.9104 C   0  0  0  0  0  0  0  0  0  0  0  0
  -30.8329  -25.3105   17.3460 C   0  0  0  0  0  0  0  0  0  0  0  0
  -30.2152  -23.3917   19.2745 C   0  0  0  0  0  0  0  0  0  0  0  0
  -23.8381  -13.5018   21.0903 C   0  0  0  0  0  0  0  0  0  0  0  0
  -26.2720  -25.6505   16.8552 C   0  0  0  0  0  0  0  0  0  0  0  0
  -23.0695  -11.2824   21.1665 C   0  0  0  0  0  0  0  0  0  0  0  0
  -23.6379   -8.5517   21.2181 C   0  0  0  0  0  0  0  0  0  0  0  0
  -22.6476  -10.5025   22.2432 C   0  0  0  0  0  0  0  0  0  0  0  0
  -27.1029  -16.1880   20.9376 C   0  0  0  0  0  0  0  0  0  0  0  0
  -28.9922  -17.1988   20.4437 C   0  0  0  0  0  0  0  0  0  0  0  0
  -28.5935  -15.0998   19.1462 C   0  0  0  0  0  0  0  0  0  0  0  0
  -22.5560  -25.5382   20.8103 C   0  0  0  0  0  0  0  0  0  0  0  0
  -23.8882  -28.2470   21.9977 C   0  0  0  0  0  0  0  0  0  0  0  0
  -29.3733  -26.3800   14.5770 C   0  0  0  0  0  0  0  0  0  0  0  0
  -26.2678  -30.6755   21.7028 C   0  0  0  0  0  0  0  0  0  0  0  0
  -29.4255  -22.6395   21.5454 C   0  0  0  0  0  0  0  0  0  0  0  0
  -18.6543  -23.5947   23.4669 C   0  0  0  0  0  0  0  0  0  0  0  0
  -24.9945  -24.9037   20.8969 C   0  0  0  0  0  0  0  0  0  0  0  0
  -24.5959  -27.5664   19.6737 C   0  0  0  0  0  0  0  0  0  0  0  0
  -19.1907  -24.9951   23.1813 C   0  0  0  0  0  0  0  0  0  0  0  0
  -28.4993  -20.5076   24.2425 C   0  0  0  0  0  0  0  0  0  0  0  0
  -19.4448  -25.1752   21.6881 C   0  0  0  0  0  0  0  0  0  0  0  0
  -28.1473  -19.1861   23.5556 C   0  0  0  0  0  0  0  0  0  0  0  0
  -28.0676  -21.7127   23.4088 C   0  0  0  0  0  0  0  0  0  0  0  0
  -28.1959  -20.3903   21.3342 C   0  0  0  0  0  0  0  0  0  0  0  0
  -20.5020  -24.1849   21.1849 C   0  0  1  0  0  0  0  0  0  0  0  0
  -23.9076  -25.8569   21.3843 C   0  0  1  0  0  0  0  0  0  0  0  0
  -28.6695  -19.1478   22.1060 C   0  0  2  0  0  0  0  0  0  0  0  0
  -27.0835  -32.7781   22.8033 C   0  0  0  0  0  0  0  0  0  0  0  0
  -21.5202  -29.7750   20.8281 C   0  0  0  0  0  0  0  0  0  0  0  0
  -22.8338  -31.8877   21.1096 C   0  0  0  0  0  0  0  0  0  0  0  0
  -22.2226  -30.5255   23.1080 C   0  0  0  0  0  0  0  0  0  0  0  0
  -28.9347  -29.5043   22.2272 C   0  0  0  0  0  0  0  0  0  0  0  0
  -31.1653  -26.3434   16.3083 C   0  0  0  0  0  0  0  0  0  0  0  0
  -28.1452  -27.1820   14.1759 C   0  0  0  0  0  0  0  0  0  0  0  0
  -27.0797  -27.2192   15.2605 C   0  0  0  0  0  0  0  0  0  1  0  0
  -24.0037  -29.6768   21.5271 C   0  0  1  0  0  0  0  0  0  0  0  0
  -27.2336  -31.2674   22.7135 C   0  0  2  0  0  0  0  0  0  0  0  0
  -22.6555  -30.4446   21.6279 C   0  0  0  0  0  0  0  0  0  0  0  0
  -27.1220  -17.2657   21.7264 N   0  0  0  0  0  0  0  0  0  0  0  0
  -28.2832  -17.8599   21.4030 N   0  0  0  0  0  0  0  0  0  0  0  0
  -24.1925  -27.2549   21.0549 N   0  0  0  0  0  0  0  0  0  0  0  0
  -28.6027  -21.6101   22.0494 N   0  0  0  0  0  0  0  0  0  0  0  0
  -30.1819  -17.6586   20.0012 N   0  0  0  0  0  0  0  0  0  0  0  0
  -27.7101  -14.0324   18.9347 N   0  0  0  0  0  0  0  0  0  0  0  0
  -29.9018  -22.4168   20.2538 N   0  0  0  0  0  0  0  0  0  0  0  0
  -21.8283  -24.6300   21.5554 N   0  0  0  0  0  0  0  0  0  0  0  0
  -29.9782  -26.9087   15.7083 N   0  0  0  0  0  0  0  0  0  0  0  0
  -25.0901  -30.2733   22.2966 N   0  0  0  0  0  0  0  0  0  0  0  0
  -28.6397  -30.9567   22.3298 N   0  3  0  0  0  0  0  0  0  0  0  0
  -29.6661  -15.1467   18.4975 O   0  0  0  0  0  0  0  0  0  0  0  0
  -22.1992  -26.0775   19.7694 O   0  0  0  0  0  0  0  0  0  0  0  0
  -23.5476  -28.0190   23.1612 O   0  0  0  0  0  0  0  0  0  0  0  0
  -29.7625  -25.3911   13.9617 O   0  0  0  0  0  0  0  0  0  0  0  0
  -26.5303  -30.5827   20.5058 O   0  0  0  0  0  0  0  0  0  0  0  0
  -29.7104  -23.6319   22.2207 O   0  0  0  0  0  0  0  0  0  0  0  0
  -22.7875  -12.6379   21.1390 O   0  0  0  0  0  0  0  0  0  0  0  0
  -26.6813  -25.8864   15.5790 O   0  0  0  0  0  0  0  0  0  1  0  0
  -23.9095   -7.2403   21.2420 F   0  0  0  0  0  0  0  0  0  0  0  0
  -21.9679  -11.0591   23.2551 F   0  0  0  0  0  0  0  0  0  0  0  0
  1  2  1  0  0  0  0
  1  5  2  0  0  0  0
  2  6  2  0  0  0  0
  3 12  2  0  0  0  0
  3 19  1  0  0  0  0
  4 13  1  0  0  0  0
  4 19  2  0  0  0  0
  5 21  1  0  0  0  0
  6 23  1  0  0  0  0
  7 14  2  0  0  0  0
  7 22  1  0  0  0  0
  8 10  2  0  0  0  0
  8 25  1  0  0  0  0
  9 11  1  0  0  0  0
  9 25  2  0  0  0  0
 10 26  1  0  0  0  0
 11 26  2  0  0  0  0
 12 27  1  0  0  0  0
 13 27  2  0  0  0  0
 14 28  1  0  0  0  0
 15 16  2  0  0  0  0
 15 29  1  0  0  0  0
 16 30  1  0  0  0  0
 17 24  1  0  0  0  0
 17 28  2  0  0  0  0
 18 30  2  0  0  0  0
 18 31  1  0  0  0  0
 19 32  1  0  0  0  0
 20 32  1  0  0  0  0
 20 33  2  0  0  0  0
 20 34  1  0  0  0  0
 21 23  2  0  0  0  0
 21 40  1  0  0  0  0
 22 24  2  0  0  0  0
 22 41  1  0  0  0  0
 23 49  1  0  0  0  0
 24 42  1  0  0  0  0
 25 57  1  0  0  0  0
 26 69  1  0  0  0  0
 27 80  1  0  0  0  0
 28 81  1  0  0  0  0
 29 31  2  0  0  0  0
 29 80  1  0  0  0  0
 30 82  1  0  0  0  0
 31 83  1  0  0  0  0
 32 63  2  0  0  0  0
 33 64  1  0  0  0  0
 33 67  1  0  0  0  0
 34 68  1  0  0  0  0
 34 74  2  0  0  0  0
 35 50  1  0  0  0  0
 35 70  1  0  0  0  0
 35 75  2  0  0  0  0
 36 60  1  0  0  0  0
 36 65  1  0  0  0  0
 36 76  2  0  0  0  0
 37 58  1  0  0  0  0
 37 71  1  0  0  0  0
 37 77  2  0  0  0  0
 38 61  1  0  0  0  0
 38 72  1  0  0  0  0
 38 78  2  0  0  0  0
 39 66  1  0  0  0  0
 39 69  1  0  0  0  0
 39 79  2  0  0  0  0
 40 43  1  0  0  0  0
 41 50  1  0  0  0  0
 42 65  1  0  0  0  0
 43 45  1  0  0  0  0
 44 46  1  0  0  0  0
 44 47  1  0  0  0  0
 45 49  1  0  0  0  0
 46 51  1  0  0  0  0
 47 66  1  0  0  0  0
 48 51  1  0  0  0  0
 48 66  1  0  0  0  0
 49 70  1  0  0  0  0
 50 65  1  0  0  0  0
 51 64  1  0  0  0  0
 52 61  1  0  0  0  0
 53 62  1  0  0  0  0
 54 62  1  0  0  0  0
 55 62  1  0  0  0  0
 56 73  1  0  0  0  0
 57 71  1  0  0  0  0
 58 59  1  0  0  0  0
 59 81  1  0  0  0  0
 60 62  1  0  0  0  0
 60 72  1  0  0  0  0
 61 73  1  0  0  0  0
 63 64  1  0  0  0  0
M  CHG  1  73   1
M  ISO  4  39 100  59 101  69 100  81 101
M  END
> <Batch ID>
0053

> <Smiles>
CNC(C)C(=O)NC(C(=O)N1Cc2cc([101O:1][101CH2:1]CC(=O)NCc3ccc([100NH:0][100C:0](=O)N4CCCC(n5nc(-c6ccc(Oc7ccc(F)cc7F)cc6)c(C(N)=O)c5N)C4)cc3)ccc2CC1C(=O)NC1CCCc2ccccc21)C(C)(C)C

> <Shape>
0.232

> <Color>
0.040

> <Negative vol penalty>
0.000

$$$$

  -OEChem-04042322433D

 92101  0     1  0  0  0  0  0999 V2000
  -27.7903  -24.3045   16.9093 C   0  0  0  0  0  0  0  0  0  0  0  0
  -26.7485  -24.4234   17.8236 C   0  0  0  0  0  0  0  0  0  0  0  0
  -14.8779  -24.2746   20.2850 C   0  0  0  0  0  0  0  0  0  0  0  0
  -16.0742  -24.3541   19.5722 C   0  0  0  0  0  0  0  0  0  0  0  0
  -25.9067  -24.3144   23.3704 C   0  0  0  0  0  0  0  0  0  0  0  0
  -24.9252  -12.0426   20.1273 C   0  0  0  0  0  0  0  0  0  0  0  0
  -25.2202  -12.6577   22.4450 C   0  0  0  0  0  0  0  0  0  0  0  0
  -28.9767  -25.0086   17.1107 C   0  0  0  0  0  0  0  0  0  0  0  0
  -26.8929  -25.2457   18.9404 C   0  0  0  0  0  0  0  0  0  0  0  0
  -22.8119  -28.1261   19.7733 C   0  0  0  0  0  0  0  0  0  0  0  0
  -14.8986  -24.0171   21.6558 C   0  0  0  0  0  0  0  0  0  0  0  0
  -17.2912  -24.1760   20.2301 C   0  0  0  0  0  0  0  0  0  0  0  0
  -24.6659  -24.3943   24.0026 C   0  0  0  0  0  0  0  0  0  0  0  0
  -26.1922  -23.2400   22.5278 C   0  0  0  0  0  0  0  0  0  0  0  0
  -25.1956  -10.7119   20.4460 C   0  0  0  0  0  0  0  0  0  0  0  0
  -25.4905  -11.3269   22.7638 C   0  0  0  0  0  0  0  0  0  0  0  0
  -21.7129  -27.5144   20.3747 C   0  0  0  0  0  0  0  0  0  0  0  0
  -25.4534   -7.0954   20.7097 C   0  0  0  0  0  0  0  0  0  0  0  0
  -24.6234   -6.1163   20.1637 C   0  0  0  0  0  0  0  0  0  0  0  0
  -22.3565  -28.4600   22.4986 C   0  0  0  0  0  0  0  0  0  0  0  0
  -22.7202   -7.1137   21.2682 C   0  0  0  0  0  0  0  0  0  0  0  0
  -24.9376  -13.0156   21.1268 C   0  0  0  0  0  0  0  0  0  0  0  0
  -23.4021  -15.0247   20.7900 C   0  0  0  0  0  0  0  0  0  0  0  0
  -29.1322  -25.8474   18.2255 C   0  0  0  0  0  0  0  0  0  0  0  0
  -23.6991  -28.9017   20.5334 C   0  0  0  0  0  0  0  0  0  0  0  0
  -28.0831  -25.9606   19.1577 C   0  0  0  0  0  0  0  0  0  0  0  0
  -23.4646  -29.0826   21.9039 C   0  0  0  0  0  0  0  0  0  0  0  0
  -16.1156  -23.8390   22.3137 C   0  0  0  0  0  0  0  0  0  0  0  0
  -17.3119  -23.9185   21.6009 C   0  0  0  0  0  0  0  0  0  0  0  0
  -23.7107  -23.3998   23.7924 C   0  0  0  0  0  0  0  0  0  0  0  0
  -23.9962  -22.3254   22.9499 C   0  0  0  0  0  0  0  0  0  0  0  0
  -25.2370  -22.2455   22.3176 C   0  0  0  0  0  0  0  0  0  0  0  0
  -25.4783  -10.3540   21.7642 C   0  0  0  0  0  0  0  0  0  0  0  0
  -21.4866  -27.6790   21.7381 C   0  0  0  0  0  0  0  0  0  0  0  0
  -24.9168   -8.0837   21.5350 C   0  0  0  0  0  0  0  0  0  0  0  0
  -23.2568   -6.1254   20.4429 C   0  0  0  0  0  0  0  0  0  0  0  0
  -23.5502   -8.0928   21.8142 C   0  0  0  0  0  0  0  0  0  0  0  0
  -24.6589  -14.3905   20.7982 C   0  0  0  0  0  0  0  0  0  0  0  0
  -23.6724  -16.3176   20.4134 C   0  0  0  0  0  0  0  0  0  0  0  0
  -22.1062  -14.4927   21.0956 C   0  0  0  0  0  0  0  0  0  0  0  0
  -26.7912  -28.7205   21.2474 C   0  0  0  0  0  0  0  0  0  0  0  0
  -26.2453  -31.6101   22.6164 C   0  0  0  0  0  0  0  0  0  0  0  0
  -20.2595  -24.6995   23.9960 C   0  0  0  0  0  0  0  0  0  0  0  0
  -24.0100  -33.7799   24.0100 C   0  0  0  0  0  0  0  0  0  0  0  0
  -26.7380  -20.9526   20.7615 C   0  0  0  0  0  0  0  0  0  0  0  0
  -30.4508  -26.5517   18.4258 C   0  0  0  0  0  0  0  0  0  0  0  0
  -24.8650  -29.5767   19.8645 C   0  0  0  0  0  0  0  0  0  0  0  0
  -24.3759  -29.9219   22.7604 C   0  0  0  0  0  0  0  0  0  0  0  0
  -30.3842  -27.6931   19.4372 C   0  0  0  0  0  0  0  0  0  0  0  0
  -27.9057  -18.3965   18.5751 C   0  0  0  0  0  0  0  0  0  0  0  0
  -29.6399  -27.2508   20.6931 C   0  0  0  0  0  0  0  0  0  0  0  0
  -27.0617  -17.1786   18.9579 C   0  0  0  0  0  0  0  0  0  0  0  0
  -28.2625  -19.2451   19.7943 C   0  0  0  0  0  0  0  0  0  0  0  0
  -26.2766  -18.4341   21.0059 C   0  0  0  0  0  0  0  0  0  0  0  0
  -28.1926  -26.8618   20.3684 C   0  0  1  0  0  0  0  0  0  0  0  0
  -25.9913  -29.9231   20.8335 C   0  0  1  0  0  0  0  0  0  0  0  0
  -25.8378  -17.5840   19.8024 C   0  0  2  0  0  0  0  0  0  0  0  0
  -16.1135  -23.5655   23.7820 C   0  0  0  0  0  0  0  0  0  0  0  0
  -22.9681  -21.2609   22.7274 C   0  0  0  0  0  0  0  0  0  0  0  0
  -23.8671  -36.0493   25.0715 C   0  0  0  0  0  0  0  0  0  0  0  0
  -27.4578  -30.4846   25.1802 C   0  0  0  0  0  0  0  0  0  0  0  0
  -26.4404  -32.4058   26.4221 C   0  0  0  0  0  0  0  0  0  0  0  0
  -28.1397  -32.8307   24.6461 C   0  0  0  0  0  0  0  0  0  0  0  0
  -22.1691  -34.7715   21.9155 C   0  0  0  0  0  0  0  0  0  0  0  0
  -18.6423  -23.7285   22.2913 C   0  0  0  0  0  0  0  0  0  0  0  0
  -22.3834  -23.5104   24.4853 C   0  0  0  0  0  0  0  0  0  0  0  0
  -19.9617  -25.8542   21.7604 C   0  0  0  0  0  0  0  0  0  1  0  0
  -25.8174  -32.0808   23.9855 C   0  0  1  0  0  0  0  0  0  0  0  0
  -19.2887  -25.0137   22.8514 C   0  0  2  0  0  0  0  0  0  0  0  0
  -23.7623  -35.2592   23.7763 C   0  0  2  0  0  0  0  0  0  0  0  0
  -26.9476  -31.9330   25.0430 C   0  0  0  0  0  0  0  0  0  0  0  0
  -25.6536  -15.2127   20.4539 N   0  0  0  0  0  0  0  0  0  0  0  0
  -25.0220  -16.3768   20.2258 N   0  0  0  0  0  0  0  0  0  0  0  0
  -25.5057  -30.5562   22.0613 N   0  0  0  0  0  0  0  0  0  0  0  0
  -27.0535  -19.5948   20.5434 N   0  0  0  0  0  0  0  0  0  0  0  0
  -22.8848  -17.3982   20.2276 N   0  0  0  0  0  0  0  0  0  0  0  0
  -22.0077  -13.1443   21.4652 N   0  0  0  0  0  0  0  0  0  0  0  0
  -25.5481  -21.1635   21.4573 N   0  0  0  0  0  0  0  0  0  0  0  0
  -27.3781  -28.0454   20.1942 N   0  0  0  0  0  0  0  0  0  0  0  0
  -21.3360  -23.9276   23.5832 N   0  0  0  0  0  0  0  0  0  0  0  0
  -25.3336  -33.4465   23.8149 N   0  0  0  0  0  0  0  0  0  0  0  0
  -22.4029  -35.4728   23.2041 N   0  3  0  0  0  0  0  0  0  0  0  0
  -21.0645  -15.1880   21.0266 O   0  0  0  0  0  0  0  0  0  0  0  0
  -26.8714  -28.4276   22.4346 O   0  0  0  0  0  0  0  0  0  0  0  0
  -27.1961  -32.1621   22.0570 O   0  0  0  0  0  0  0  0  0  0  0  0
  -20.0875  -25.1001   25.1455 O   0  0  0  0  0  0  0  0  0  0  0  0
  -23.1191  -32.9989   24.3369 O   0  0  0  0  0  0  0  0  0  0  0  0
  -27.4556  -21.8619   20.3369 O   0  0  0  0  0  0  0  0  0  0  0  0
  -25.7419   -9.0555   22.0756 O   0  0  0  0  0  0  0  0  0  0  0  0
  -20.4150  -27.0826   22.3278 O   0  0  0  0  0  0  0  0  0  1  0  0
  -22.4597   -5.1860   19.9173 F   0  0  0  0  0  0  0  0  0  0  0  0
  -23.0286   -9.0404   22.6053 F   0  0  0  0  0  0  0  0  0  0  0  0
  1  2  1  0  0  0  0
  1  8  2  0  0  0  0
  2  9  2  0  0  0  0
  3  4  1  0  0  0  0
  3 11  2  0  0  0  0
  4 12  2  0  0  0  0
  5 13  2  0  0  0  0
  5 14  1  0  0  0  0
  6 15  2  0  0  0  0
  6 22  1  0  0  0  0
  7 16  1  0  0  0  0
  7 22  2  0  0  0  0
  8 24  1  0  0  0  0
  9 26  1  0  0  0  0
 10 17  2  0  0  0  0
 10 25  1  0  0  0  0
 11 28  1  0  0  0  0
 12 29  1  0  0  0  0
 13 30  1  0  0  0  0
 14 32  2  0  0  0  0
 15 33  1  0  0  0  0
 16 33  2  0  0  0  0
 17 34  1  0  0  0  0
 18 19  2  0  0  0  0
 18 35  1  0  0  0  0
 19 36  1  0  0  0  0
 20 27  1  0  0  0  0
 20 34  2  0  0  0  0
 21 36  2  0  0  0  0
 21 37  1  0  0  0  0
 22 38  1  0  0  0  0
 23 38  1  0  0  0  0
 23 39  2  0  0  0  0
 23 40  1  0  0  0  0
 24 26  2  0  0  0  0
 24 46  1  0  0  0  0
 25 27  2  0  0  0  0
 25 47  1  0  0  0  0
 26 55  1  0  0  0  0
 27 48  1  0  0  0  0
 28 29  2  0  0  0  0
 28 58  1  0  0  0  0
 29 65  1  0  0  0  0
 30 31  2  0  0  0  0
 30 66  1  0  0  0  0
 31 32  1  0  0  0  0
 31 59  1  0  0  0  0
 32 78  1  0  0  0  0
 33 89  1  0  0  0  0
 34 90  1  0  0  0  0
 35 37  2  0  0  0  0
 35 89  1  0  0  0  0
 36 91  1  0  0  0  0
 37 92  1  0  0  0  0
 38 72  2  0  0  0  0
 39 73  1  0  0  0  0
 39 76  1  0  0  0  0
 40 77  1  0  0  0  0
 40 83  2  0  0  0  0
 41 56  1  0  0  0  0
 41 79  1  0  0  0  0
 41 84  2  0  0  0  0
 42 68  1  0  0  0  0
 42 74  1  0  0  0  0
 42 85  2  0  0  0  0
 43 69  1  0  0  0  0
 43 80  1  0  0  0  0
 43 86  2  0  0  0  0
 44 70  1  0  0  0  0
 44 81  1  0  0  0  0
 44 87  2  0  0  0  0
 45 75  1  0  0  0  0
 45 78  1  0  0  0  0
 45 88  2  0  0  0  0
 46 49  1  0  0  0  0
 47 56  1  0  0  0  0
 48 74  1  0  0  0  0
 49 51  1  0  0  0  0
 50 52  1  0  0  0  0
 50 53  1  0  0  0  0
 51 55  1  0  0  0  0
 52 57  1  0  0  0  0
 53 75  1  0  0  0  0
 54 57  1  0  0  0  0
 54 75  1  0  0  0  0
 55 79  1  0  0  0  0
 56 74  1  0  0  0  0
 57 73  1  0  0  0  0
 60 70  1  0  0  0  0
 61 71  1  0  0  0  0
 62 71  1  0  0  0  0
 63 71  1  0  0  0  0
 64 82  1  0  0  0  0
 65 69  1  0  0  0  0
 66 80  1  0  0  0  0
 67 69  1  0  0  0  0
 67 90  1  0  0  0  0
 68 71  1  0  0  0  0
 68 81  1  0  0  0  0
 70 82  1  0  0  0  0
 72 73  1  0  0  0  0
M  CHG  1  82   1
M  ISO  4  45 100  67 101  78 100  90 101
M  END
> <Batch ID>
0053

> <Smiles>
CNC(C)C(=O)NC(C(=O)N1Cc2cc([101O:1][101CH2:1]C(Cc3ccccc3C)C(=O)NCc3cccc([100NH:0][100C:0](=O)N4CCCC(n5nc(-c6ccc(Oc7ccc(F)cc7F)cc6)c(C(N)=O)c5N)C4)c3C)ccc2CC1C(=O)NC1CCCc2ccccc21)C(C)(C)C

> <Shape>
0.278

> <Color>
0.078

> <Negative vol penalty>
0.000

$$$$

  -OEChem-04042322433D

 85 93  0     1  0  0  0  0  0999 V2000
  -25.9184  -36.6639   25.1873 C   0  0  0  0  0  0  0  0  0  0  0  0
  -26.6863  -35.5925   24.7426 C   0  0  0  0  0  0  0  0  0  0  0  0
  -23.1208  -12.0921   23.1855 C   0  0  0  0  0  0  0  0  0  0  0  0
  -22.1894  -13.4509   21.4182 C   0  0  0  0  0  0  0  0  0  0  0  0
  -24.5583  -36.4882   25.4388 C   0  0  0  0  0  0  0  0  0  0  0  0
  -26.0948  -34.3445   24.5502 C   0  0  0  0  0  0  0  0  0  0  0  0
  -27.5130  -30.2221   20.2489 C   0  0  0  0  0  0  0  0  0  0  0  0
  -26.4121  -20.1769   16.8653 C   0  0  0  0  0  0  0  0  0  0  0  0
  -26.6880  -18.9338   17.4346 C   0  0  0  0  0  0  0  0  0  0  0  0
  -21.9185  -12.1805   23.8871 C   0  0  0  0  0  0  0  0  0  0  0  0
  -20.9871  -13.5394   22.1199 C   0  0  0  0  0  0  0  0  0  0  0  0
  -28.3052  -29.0752   20.2738 C   0  0  0  0  0  0  0  0  0  0  0  0
  -18.8604  -10.7421   23.7803 C   0  0  0  0  0  0  0  0  0  0  0  0
  -18.3496   -9.5716   24.3413 C   0  0  0  0  0  0  0  0  0  0  0  0
  -26.3380  -27.7320   20.6547 C   0  0  0  0  0  0  0  0  0  0  0  0
  -28.5509  -19.8967   18.6344 C   0  0  0  0  0  0  0  0  0  0  0  0
  -18.4620  -10.5748   26.5364 C   0  0  0  0  0  0  0  0  0  0  0  0
  -23.2562  -12.7273   21.9510 C   0  0  0  0  0  0  0  0  0  0  0  0
  -24.8617  -11.6582   20.2816 C   0  0  0  0  0  0  0  0  0  0  0  0
  -23.9478  -35.2399   25.2401 C   0  0  0  0  0  0  0  0  0  0  0  0
  -26.1263  -30.1336   20.4378 C   0  0  0  0  0  0  0  0  0  0  0  0
  -24.7256  -34.1517   24.8005 C   0  0  0  0  0  0  0  0  0  0  0  0
  -25.5301  -28.8790   20.6291 C   0  0  0  0  0  0  0  0  0  0  0  0
  -27.2056  -21.2800   17.1805 C   0  0  0  0  0  0  0  0  0  0  0  0
  -28.2750  -21.1398   18.0651 C   0  0  0  0  0  0  0  0  0  0  0  0
  -27.7574  -18.7937   18.3191 C   0  0  0  0  0  0  0  0  0  0  0  0
  -20.8517  -12.9042   23.3543 C   0  0  0  0  0  0  0  0  0  0  0  0
  -27.7182  -27.8302   20.4796 C   0  0  0  0  0  0  0  0  0  0  0  0
  -19.1720  -11.8289   24.5972 C   0  0  0  0  0  0  0  0  0  0  0  0
  -18.1504   -9.4880   25.7193 C   0  0  0  0  0  0  0  0  0  0  0  0
  -18.9728  -11.7453   25.9753 C   0  0  0  0  0  0  0  0  0  0  0  0
  -24.4981  -12.6368   21.2260 C   0  0  0  0  0  0  0  0  0  0  0  0
  -26.1281  -12.0151   19.8875 C   0  0  0  0  0  0  0  0  0  0  0  0
  -24.1210  -10.5276   19.8033 C   0  0  0  0  0  0  0  0  0  0  0  0
  -24.0799  -31.2589   22.5942 C   0  0  0  0  0  0  0  0  0  0  0  0
  -21.8702  -29.9889   20.5876 C   0  0  0  0  0  0  0  0  0  0  0  0
  -28.9176  -24.5692   19.4619 C   0  0  0  0  0  0  0  0  0  0  0  0
  -21.1364  -27.7134   18.1524 C   0  0  0  0  0  0  0  0  0  0  0  0
  -29.0594  -17.2213   19.7952 C   0  0  0  0  0  0  0  0  0  0  0  0
  -22.4842  -35.0867   25.5706 C   0  0  0  0  0  0  0  0  0  0  0  0
  -25.2824  -31.3774   20.3815 C   0  0  0  0  0  0  0  0  0  0  0  0
  -24.0434  -28.7279   20.8168 C   0  0  0  0  0  0  0  0  0  0  0  0
  -21.8559  -33.8256   24.9832 C   0  0  0  0  0  0  0  0  0  0  0  0
  -30.0558  -14.2461   21.4782 C   0  0  0  0  0  0  0  0  0  0  0  0
  -22.7508  -32.6162   25.2349 C   0  0  0  0  0  0  0  0  0  0  0  0
  -28.7783  -13.4042   21.5132 C   0  0  0  0  0  0  0  0  0  0  0  0
  -29.7596  -15.7339   21.6586 C   0  0  0  0  0  0  0  0  0  0  0  0
  -27.4799  -15.4417   20.7718 C   0  0  0  0  0  0  0  0  0  0  0  0
  -24.1151  -32.7887   24.5562 C   0  0  1  0  0  0  0  0  0  0  0  0
  -23.9443  -31.2245   21.0982 C   0  0  1  0  0  0  0  0  0  0  0  0
  -27.7213  -13.9428   20.5293 C   0  0  2  0  0  0  0  0  0  0  0  0
  -26.8912  -22.6006   16.5579 C   0  0  0  0  0  0  0  0  0  0  0  0
  -19.2365  -26.8869   16.7365 C   0  0  0  0  0  0  0  0  0  0  0  0
  -20.7420  -28.4790   22.9870 C   0  0  0  0  0  0  0  0  0  0  0  0
  -19.5145  -26.9947   21.3876 C   0  0  0  0  0  0  0  0  0  0  0  0
  -19.0159  -29.4380   21.4523 C   0  0  0  0  0  0  0  0  0  0  0  0
  -22.5178  -28.4762   15.6486 C   0  0  0  0  0  0  0  0  0  0  0  0
  -27.8833  -25.4940   20.0662 C   0  0  0  0  0  0  0  0  0  1  0  0
  -21.1975  -28.6443   20.4511 C   0  0  1  0  0  0  0  0  0  0  0  0
  -20.4062  -27.8544   16.8290 C   0  0  2  0  0  0  0  0  0  0  0  0
  -29.1456  -22.3191   18.4225 C   0  0  0  0  0  0  0  0  0  0  0  0
  -20.1458  -28.3917   21.5679 C   0  0  0  0  0  0  0  0  0  0  0  0
  -25.4561  -13.5470   21.4203 N   0  0  0  0  0  0  0  0  0  0  0  0
  -26.4343  -13.1417   20.5926 N   0  0  0  0  0  0  0  0  0  0  0  0
  -23.2616  -29.9741   20.7599 N   0  0  0  0  0  0  0  0  0  0  0  0
  -28.7532  -16.1743   20.6901 N   0  0  0  0  0  0  0  0  0  0  0  0
  -26.9986  -11.4720   19.0102 N   0  0  0  0  0  0  0  0  0  0  0  0
  -22.8342  -10.3076   20.3133 N   0  0  0  0  0  0  0  0  0  0  0  0
  -28.0369  -17.5314   18.8992 N   0  0  0  0  0  0  0  0  0  0  0  0
  -24.0098  -32.5279   23.1365 N   0  0  0  0  0  0  0  0  0  0  0  0
  -20.6555  -28.5946   19.0975 N   0  0  0  0  0  0  0  0  0  0  0  0
  -28.3545  -23.3746   19.0395 N   0  0  0  0  0  0  0  0  0  0  0  0
  -21.3329  -27.5812   15.6943 N   0  3  0  0  0  0  0  0  0  0  0  0
  -24.5927   -9.7266   18.9611 O   0  0  0  0  0  0  0  0  0  0  0  0
  -24.2351  -30.2114   23.2110 O   0  0  0  0  0  0  0  0  0  0  0  0
  -21.1872  -31.0148   20.5358 O   0  0  0  0  0  0  0  0  0  0  0  0
  -30.1053  -24.8673   19.3692 O   0  0  0  0  0  0  0  0  0  0  0  0
  -22.0403  -26.9000   18.3310 O   0  0  0  0  0  0  0  0  0  0  0  0
  -30.1584  -17.7817   19.8037 O   0  0  0  0  0  0  0  0  0  0  0  0
  -19.6783  -12.9905   24.0386 O   0  0  0  0  0  0  0  0  0  0  0  0
  -28.4892  -26.7091   20.5051 O   0  0  0  0  0  0  0  0  0  1  0  0
  -17.6585   -8.3645   26.2578 F   0  0  0  0  0  0  0  0  0  0  0  0
  -19.2692  -12.7865   26.7651 F   0  0  0  0  0  0  0  0  0  0  0  0
  -30.1493  -21.9708   19.2810 F   0  0  0  0  0  0  0  0  0  0  0  0
  -29.7797  -22.8352   17.3285 F   0  0  0  0  0  0  0  0  0  0  0  0
  1  2  1  0  0  0  0
  1  5  2  0  0  0  0
  2  6  2  0  0  0  0
  3 10  2  0  0  0  0
  3 18  1  0  0  0  0
  4 11  1  0  0  0  0
  4 18  2  0  0  0  0
  5 20  1  0  0  0  0
  6 22  1  0  0  0  0
  7 12  2  0  0  0  0
  7 21  1  0  0  0  0
  8  9  2  0  0  0  0
  8 24  1  0  0  0  0
  9 26  1  0  0  0  0
 10 27  1  0  0  0  0
 11 27  2  0  0  0  0
 12 28  1  0  0  0  0
 13 14  2  0  0  0  0
 13 29  1  0  0  0  0
 14 30  1  0  0  0  0
 15 23  1  0  0  0  0
 15 28  2  0  0  0  0
 16 25  1  0  0  0  0
 16 26  2  0  0  0  0
 17 30  2  0  0  0  0
 17 31  1  0  0  0  0
 18 32  1  0  0  0  0
 19 32  1  0  0  0  0
 19 33  2  0  0  0  0
 19 34  1  0  0  0  0
 20 22  2  0  0  0  0
 20 40  1  0  0  0  0
 21 23  2  0  0  0  0
 21 41  1  0  0  0  0
 22 49  1  0  0  0  0
 23 42  1  0  0  0  0
 24 25  2  0  0  0  0
 24 52  1  0  0  0  0
 25 61  1  0  0  0  0
 26 69  1  0  0  0  0
 27 80  1  0  0  0  0
 28 81  1  0  0  0  0
 29 31  2  0  0  0  0
 29 80  1  0  0  0  0
 30 82  1  0  0  0  0
 31 83  1  0  0  0  0
 32 63  2  0  0  0  0
 33 64  1  0  0  0  0
 33 67  1  0  0  0  0
 34 68  1  0  0  0  0
 34 74  2  0  0  0  0
 35 50  1  0  0  0  0
 35 70  1  0  0  0  0
 35 75  2  0  0  0  0
 36 59  1  0  0  0  0
 36 65  1  0  0  0  0
 36 76  2  0  0  0  0
 37 58  1  0  0  0  0
 37 72  1  0  0  0  0
 37 77  2  0  0  0  0
 38 60  1  0  0  0  0
 38 71  1  0  0  0  0
 38 78  2  0  0  0  0
 39 66  1  0  0  0  0
 39 69  1  0  0  0  0
 39 79  2  0  0  0  0
 40 43  1  0  0  0  0
 41 50  1  0  0  0  0
 42 65  1  0  0  0  0
 43 45  1  0  0  0  0
 44 46  1  0  0  0  0
 44 47  1  0  0  0  0
 45 49  1  0  0  0  0
 46 51  1  0  0  0  0
 47 66  1  0  0  0  0
 48 51  1  0  0  0  0
 48 66  1  0  0  0  0
 49 70  1  0  0  0  0
 50 65  1  0  0  0  0
 51 64  1  0  0  0  0
 53 60  1  0  0  0  0
 54 62  1  0  0  0  0
 55 62  1  0  0  0  0
 56 62  1  0  0  0  0
 57 73  1  0  0  0  0
 58 81  1  0  0  0  0
 59 62  1  0  0  0  0
 59 71  1  0  0  0  0
 60 73  1  0  0  0  0
 61 72  1  0  0  0  0
 61 84  1  0  0  0  0
 61 85  1  0  0  0  0
 63 64  1  0  0  0  0
M  CHG  1  73   1
M  ISO  4  39 100  58 101  69 100  81 101
M  END
> <Batch ID>
0053

> <Smiles>
CNC(C)C(=O)NC(C(=O)N1Cc2cc([101O:1][101CH2:1]C(=O)NC(F)(F)c3cc([100NH:0][100C:0](=O)N4CCCC(n5nc(-c6ccc(Oc7ccc(F)cc7F)cc6)c(C(N)=O)c5N)C4)ccc3C)ccc2CC1C(=O)NC1CCCc2ccccc21)C(C)(C)C

> <Shape>
0.287

> <Color>
0.087

> <Negative vol penalty>
0.000

$$$$

  -OEChem-04042322433D

 88 96  0     1  0  0  0  0  0999 V2000
  -17.6710  -26.8935   22.2711 C   0  0  0  0  0  0  0  0  0  0  0  0
  -18.6005  -27.0708   21.2512 C   0  0  0  0  0  0  0  0  0  0  0  0
  -28.9490  -20.4615   18.9646 C   0  0  0  0  0  0  0  0  0  0  0  0
  -25.5319  -13.6499   19.9861 C   0  0  0  0  0  0  0  0  0  0  0  0
  -24.4339  -12.4850   21.7957 C   0  0  0  0  0  0  0  0  0  0  0  0
  -28.4719  -20.3885   20.2732 C   0  0  0  0  0  0  0  0  0  0  0  0
  -17.8331  -27.5612   23.4842 C   0  0  0  0  0  0  0  0  0  0  0  0
  -19.6920  -27.9169   21.4436 C   0  0  0  0  0  0  0  0  0  0  0  0
  -25.3442  -27.2032   19.1966 C   0  0  0  0  0  0  0  0  0  0  0  0
  -29.1244  -21.7035   18.3544 C   0  0  0  0  0  0  0  0  0  0  0  0
  -26.1677  -12.4666   19.6102 C   0  0  0  0  0  0  0  0  0  0  0  0
  -25.0697  -11.3017   21.4198 C   0  0  0  0  0  0  0  0  0  0  0  0
  -25.9903  -27.7535   18.0904 C   0  0  0  0  0  0  0  0  0  0  0  0
  -28.8151  -10.6294   20.6302 C   0  0  0  0  0  0  0  0  0  0  0  0
  -30.1760  -10.6925   20.3312 C   0  0  0  0  0  0  0  0  0  0  0  0
  -26.9637  -29.4452   19.5081 C   0  0  0  0  0  0  0  0  0  0  0  0
  -29.7219   -9.8954   18.0961 C   0  0  0  0  0  0  0  0  0  0  0  0
  -24.6651  -13.6591   21.0789 C   0  0  0  0  0  0  0  0  0  0  0  0
  -28.1700  -21.5575   20.9717 C   0  0  0  0  0  0  0  0  0  0  0  0
  -22.7622  -15.3570   21.0184 C   0  0  0  0  0  0  0  0  0  0  0  0
  -18.9324  -28.4084   23.6950 C   0  0  0  0  0  0  0  0  0  0  0  0
  -25.4947  -27.7773   20.4671 C   0  0  0  0  0  0  0  0  0  0  0  0
  -19.8682  -28.5977   22.6603 C   0  0  0  0  0  0  0  0  0  0  0  0
  -26.3206  -28.8988   20.6292 C   0  0  0  0  0  0  0  0  0  0  0  0
  -28.8226  -22.8725   19.0529 C   0  0  0  0  0  0  0  0  0  0  0  0
  -28.3454  -22.7995   20.3616 C   0  0  0  0  0  0  0  0  0  0  0  0
  -25.9366  -11.2926   20.3270 C   0  0  0  0  0  0  0  0  0  0  0  0
  -26.7978  -28.8763   18.2455 C   0  0  0  0  0  0  0  0  0  0  0  0
  -27.9075  -10.1991   19.6622 C   0  0  0  0  0  0  0  0  0  0  0  0
  -30.6295  -10.3256   19.0641 C   0  0  0  0  0  0  0  0  0  0  0  0
  -28.3610   -9.8322   18.3951 C   0  0  0  0  0  0  0  0  0  0  0  0
  -24.0084  -14.8812   21.4681 C   0  0  0  0  0  0  0  0  0  0  0  0
  -22.5898  -16.5476   21.6813 C   0  0  0  0  0  0  0  0  0  0  0  0
  -27.6689  -21.4484   22.3533 C   0  0  0  0  0  0  0  0  0  0  0  0
  -21.8426  -14.7749   20.0851 C   0  0  0  0  0  0  0  0  0  0  0  0
  -23.5248  -29.1211   22.5689 C   0  0  0  0  0  0  0  0  0  0  0  0
  -26.1726  -29.1536   24.4425 C   0  0  0  0  0  0  0  0  0  0  0  0
  -29.5793  -29.1360   24.6444 C   0  0  0  0  0  0  0  0  0  0  0  0
  -26.5383  -20.3954   24.0575 C   0  0  0  0  0  0  0  0  0  0  0  0
  -30.3549  -26.2825   18.7719 C   0  0  0  0  0  0  0  0  0  0  0  0
  -19.0398  -29.1456   25.0064 C   0  0  0  0  0  0  0  0  0  0  0  0
  -24.8123  -27.1558   21.6548 C   0  0  0  0  0  0  0  0  0  0  0  0
  -26.5311  -29.5406   21.9753 C   0  0  0  0  0  0  0  0  0  0  0  0
  -20.4252  -29.7329   25.2633 C   0  0  0  0  0  0  0  0  0  0  0  0
  -23.7692  -18.7988   25.7271 C   0  0  0  0  0  0  0  0  0  0  0  0
  -20.9376  -30.4550   24.0213 C   0  0  0  0  0  0  0  0  0  0  0  0
  -23.4268  -17.6355   24.7965 C   0  0  0  0  0  0  0  0  0  0  0  0
  -25.2696  -19.0740   25.7510 C   0  0  0  0  0  0  0  0  0  0  0  0
  -25.5199  -18.1487   23.4640 C   0  0  0  0  0  0  0  0  0  0  0  0
  -21.0788  -29.4879   22.8396 C   0  0  1  0  0  0  0  0  0  0  0  0
  -24.6267  -28.1295   22.8144 C   0  0  1  0  0  0  0  0  0  0  0  0
  -24.0103  -17.8622   23.3904 C   0  0  1  0  0  0  0  0  0  0  0  0
  -28.0230  -24.0557   21.1081 C   0  0  0  0  0  0  0  0  0  0  0  0
  -31.4543  -29.2074   26.3107 C   0  0  0  0  0  0  0  0  0  0  0  0
  -27.0452  -28.9372   14.8494 C   0  0  0  0  0  0  0  0  0  0  0  0
  -25.7008  -32.1416   24.8417 C   0  0  0  0  0  0  0  0  0  0  0  0
  -28.0510  -32.3294   25.6838 C   0  0  0  0  0  0  0  0  0  0  0  0
  -26.4005  -30.9114   26.9035 C   0  0  0  0  0  0  0  0  0  0  0  0
  -30.5993  -26.4943   23.7841 C   0  0  0  0  0  0  0  0  0  0  0  0
  -29.0218  -24.1948   18.3750 C   0  0  0  0  0  0  0  0  0  0  0  0
  -29.3077  -28.5459   15.9010 C   0  0  0  0  0  0  0  0  0  0  0  0
  -30.0912  -28.1866   17.1600 C   0  0  0  0  0  0  0  0  0  0  0  0
  -27.3043  -30.1248   24.6772 C   0  0  1  0  0  0  0  0  0  0  0  0
  -30.5339  -28.3151   25.4926 C   0  0  2  0  0  0  0  0  0  0  0  0
  -27.7895  -28.5247   16.1127 C   0  0  1  0  0  0  0  0  0  1  0  0
  -26.8588  -31.3661   25.5007 C   0  0  0  0  0  0  0  0  0  0  0  0
  -24.5869  -15.7025   22.3484 N   0  0  0  0  0  0  0  0  0  0  0  0
  -26.9767  -20.4302   22.7476 N   0  0  0  0  0  0  0  0  0  0  0  0
  -23.7001  -16.7064   22.4572 N   0  0  0  0  0  0  0  0  0  0  0  0
  -25.8376  -28.8999   23.1049 N   0  0  0  0  0  0  0  0  0  0  0  0
  -25.7936  -19.2507   24.3959 N   0  0  0  0  0  0  0  0  0  0  0  0
  -21.5982  -17.4636   21.6703 N   0  0  0  0  0  0  0  0  0  0  0  0
  -22.1756  -13.5475   19.4961 N   0  0  0  0  0  0  0  0  0  0  0  0
  -31.2792  -27.0054   19.5267 N   0  0  0  0  0  0  0  0  0  0  0  0
  -22.2780  -28.6900   22.9800 N   0  0  0  0  0  0  0  0  0  0  0  0
  -28.3815  -29.3557   25.2910 N   0  0  0  0  0  0  0  0  0  0  0  0
  -29.7735  -26.8439   17.6247 N   0  0  0  0  0  0  0  0  0  0  0  0
  -29.9867  -24.9832   19.1405 N   0  3  0  0  0  0  0  0  0  0  0  0
  -31.3746  -27.4405   24.6271 N   0  3  0  0  0  0  0  0  0  0  0  0
  -20.7652  -15.3348   19.7700 O   0  0  0  0  0  0  0  0  0  0  0  0
  -23.7867  -30.1983   22.0465 O   0  0  0  0  0  0  0  0  0  0  0  0
  -25.6114  -28.6336   25.4101 O   0  0  0  0  0  0  0  0  0  0  0  0
  -29.8688  -29.5448   23.5221 O   0  0  0  0  0  0  0  0  0  0  0  0
  -26.7720  -21.2802   24.8844 O   0  0  0  0  0  0  0  0  0  0  0  0
  -26.5566  -10.1377   19.9603 O   0  0  0  0  0  0  0  0  0  0  0  0
  -27.4291  -29.4158   17.1674 O   0  0  0  0  0  0  0  0  0  1  0  0
  -31.9362  -10.3877   18.7766 F   0  0  0  0  0  0  0  0  0  0  0  0
  -27.4937   -9.4192   17.4607 F   0  0  0  0  0  0  0  0  0  0  0  0
  1  2  1  0  0  0  0
  1  7  2  0  0  0  0
  2  8  2  0  0  0  0
  3  6  1  0  0  0  0
  3 10  2  0  0  0  0
  4 11  2  0  0  0  0
  4 18  1  0  0  0  0
  5 12  1  0  0  0  0
  5 18  2  0  0  0  0
  6 19  2  0  0  0  0
  7 21  1  0  0  0  0
  8 23  1  0  0  0  0
  9 13  2  0  0  0  0
  9 22  1  0  0  0  0
 10 25  1  0  0  0  0
 11 27  1  0  0  0  0
 12 27  2  0  0  0  0
 13 28  1  0  0  0  0
 14 15  2  0  0  0  0
 14 29  1  0  0  0  0
 15 30  1  0  0  0  0
 16 24  1  0  0  0  0
 16 28  2  0  0  0  0
 17 30  2  0  0  0  0
 17 31  1  0  0  0  0
 18 32  1  0  0  0  0
 19 26  1  0  0  0  0
 19 34  1  0  0  0  0
 20 32  1  0  0  0  0
 20 33  2  0  0  0  0
 20 35  1  0  0  0  0
 21 23  2  0  0  0  0
 21 41  1  0  0  0  0
 22 24  2  0  0  0  0
 22 42  1  0  0  0  0
 23 50  1  0  0  0  0
 24 43  1  0  0  0  0
 25 26  2  0  0  0  0
 25 60  1  0  0  0  0
 26 53  1  0  0  0  0
 27 85  1  0  0  0  0
 28 86  1  0  0  0  0
 29 31  2  0  0  0  0
 29 85  1  0  0  0  0
 30 87  1  0  0  0  0
 31 88  1  0  0  0  0
 32 67  2  0  0  0  0
 33 69  1  0  0  0  0
 33 72  1  0  0  0  0
 34 68  2  0  0  0  0
 35 73  1  0  0  0  0
 35 80  2  0  0  0  0
 36 51  1  0  0  0  0
 36 75  1  0  0  0  0
 36 81  2  0  0  0  0
 37 63  1  0  0  0  0
 37 70  1  0  0  0  0
 37 82  2  0  0  0  0
 38 64  1  0  0  0  0
 38 76  1  0  0  0  0
 38 83  2  0  0  0  0
 39 68  1  0  0  0  0
 39 71  1  0  0  0  0
 39 84  2  0  0  0  0
 40 74  1  0  0  0  0
 40 77  1  0  0  0  0
 40 78  2  0  0  0  0
 41 44  1  0  0  0  0
 42 51  1  0  0  0  0
 43 70  1  0  0  0  0
 44 46  1  0  0  0  0
 45 47  1  0  0  0  0
 45 48  1  0  0  0  0
 46 50  1  0  0  0  0
 47 52  1  0  0  0  0
 48 71  1  0  0  0  0
 49 52  1  0  0  0  0
 49 71  1  0  0  0  0
 50 75  1  0  0  0  0
 51 70  1  0  0  0  0
 52 69  1  0  0  0  0
 54 64  1  0  0  0  0
 55 65  1  0  0  0  0
 56 66  1  0  0  0  0
 57 66  1  0  0  0  0
 58 66  1  0  0  0  0
 59 79  1  0  0  0  0
 60 78  1  0  0  0  0
 61 62  1  0  0  0  0
 61 65  1  0  0  0  0
 62 77  1  0  0  0  0
 63 66  1  0  0  0  0
 63 76  1  0  0  0  0
 64 79  1  0  0  0  0
 65 86  1  0  0  0  0
 67 69  1  0  0  0  0
M  CHG  2  78   1  79   1
M  ISO  4  39 100  65 101  68 100  86 101
M  END
> <Batch ID>
0053

> <Smiles>
CNC(C)C(=O)NC(C(=O)N1Cc2cc([101O:1][101CH:1](C)CCNC(N)=NCc3cccc(C=[100N:0][100C:0](=O)N4CCCC(n5nc(-c6ccc(Oc7ccc(F)cc7F)cc6)c(C(N)=O)c5N)C4)c3C)ccc2CC1C(=O)NC1CCCc2ccccc21)C(C)(C)C

> <Shape>
0.252

> <Color>
0.062

> <Negative vol penalty>
0.000

$$$$

  -OEChem-04042322433D

 91100  0     1  0  0  0  0  0999 V2000
  -30.6696  -25.3756   26.3834 C   0  0  0  0  0  0  0  0  0  0  0  0
  -31.3971  -24.7096   25.4021 C   0  0  0  0  0  0  0  0  0  0  0  0
  -22.9426   -9.9957   20.0033 C   0  0  0  0  0  0  0  0  0  0  0  0
  -23.6797  -10.0168   22.3040 C   0  0  0  0  0  0  0  0  0  0  0  0
  -29.4668  -25.9995   26.0549 C   0  0  0  0  0  0  0  0  0  0  0  0
  -30.9215  -24.6663   24.0920 C   0  0  0  0  0  0  0  0  0  0  0  0
  -34.2610  -24.7374   18.9590 C   0  0  0  0  0  0  0  0  0  0  0  0
  -22.1417   -8.8853   20.2700 C   0  0  0  0  0  0  0  0  0  0  0  0
  -22.8788   -8.9064   22.5708 C   0  0  0  0  0  0  0  0  0  0  0  0
  -34.6907  -23.7222   18.1054 C   0  0  0  0  0  0  0  0  0  0  0  0
  -21.3054   -5.8583   23.7724 C   0  0  0  0  0  0  0  0  0  0  0  0
  -21.8624   -4.8222   24.5220 C   0  0  0  0  0  0  0  0  0  0  0  0
  -32.8010  -24.1413   16.6657 C   0  0  0  0  0  0  0  0  0  0  0  0
  -29.7413  -17.7478   22.3277 C   0  0  0  0  0  0  0  0  0  0  0  0
  -31.3791  -17.4420   20.5780 C   0  0  0  0  0  0  0  0  0  0  0  0
  -23.5723   -4.5254   22.8410 C   0  0  0  0  0  0  0  0  0  0  0  0
  -23.7117  -10.5614   21.0202 C   0  0  0  0  0  0  0  0  0  0  0  0
  -24.1759  -13.0640   20.8495 C   0  0  0  0  0  0  0  0  0  0  0  0
  -28.9811  -25.9720   24.7381 C   0  0  0  0  0  0  0  0  0  0  0  0
  -33.0902  -25.4560   18.6776 C   0  0  0  0  0  0  0  0  0  0  0  0
  -29.7104  -25.2893   23.7460 C   0  0  0  0  0  0  0  0  0  0  0  0
  -32.3600  -25.1668   17.5160 C   0  0  0  0  0  0  0  0  0  0  0  0
  -29.9765  -19.1225   22.3076 C   0  0  0  0  0  0  0  0  0  0  0  0
  -30.9129  -19.6570   21.4227 C   0  0  0  0  0  0  0  0  0  0  0  0
  -31.6142  -18.8168   20.5579 C   0  0  0  0  0  0  0  0  0  0  0  0
  -30.4426  -16.9075   21.4629 C   0  0  0  0  0  0  0  0  0  0  0  0
  -22.1097   -8.3407   21.5538 C   0  0  0  0  0  0  0  0  0  0  0  0
  -33.9591  -23.4221   16.9600 C   0  0  0  0  0  0  0  0  0  0  0  0
  -21.8818   -6.2279   22.5571 C   0  0  0  0  0  0  0  0  0  0  0  0
  -22.9958   -4.1558   24.0563 C   0  0  0  0  0  0  0  0  0  0  0  0
  -23.0152   -5.5615   22.0915 C   0  0  0  0  0  0  0  0  0  0  0  0
  -24.5397  -11.7081   20.7451 C   0  0  0  0  0  0  0  0  0  0  0  0
  -25.3063  -13.7521   20.4818 C   0  0  0  0  0  0  0  0  0  0  0  0
  -34.5991  -20.6328   19.0391 C   0  0  0  0  0  0  0  0  0  0  0  0
  -34.2424  -20.6813   17.7497 C   0  0  0  0  0  0  0  0  0  0  0  0
  -33.7137  -20.0534   20.0879 C   0  0  0  0  0  0  0  0  0  0  0  0
  -22.9277  -13.6492   21.2435 C   0  0  0  0  0  0  0  0  0  0  0  0
  -30.2980  -25.8577   20.1426 C   0  0  0  0  0  0  0  0  0  0  0  0
  -29.7933  -27.9924   17.7529 C   0  0  0  0  0  0  0  0  0  0  0  0
  -30.5430  -29.0312   14.5897 C   0  0  0  0  0  0  0  0  0  0  0  0
  -30.8145  -14.5381   20.6925 C   0  0  0  0  0  0  0  0  0  0  0  0
  -27.6523  -26.6205   24.4409 C   0  0  0  0  0  0  0  0  0  0  0  0
  -32.6547  -26.5660   19.5944 C   0  0  0  0  0  0  0  0  0  0  0  0
  -31.1072  -25.9224   17.1580 C   0  0  0  0  0  0  0  0  0  0  0  0
  -32.9575  -20.0790   17.2787 C   0  0  0  0  0  0  0  0  0  0  0  0
  -27.4051  -26.8480   22.9518 C   0  0  0  0  0  0  0  0  0  0  0  0
  -29.6081  -12.1288   18.3650 C   0  0  0  0  0  0  0  0  0  0  0  0
  -27.7557  -25.5954   22.1550 C   0  0  0  0  0  0  0  0  0  0  0  0
  -28.1520  -11.9161   18.7853 C   0  0  0  0  0  0  0  0  0  0  0  0
  -32.4772  -18.9800   18.2184 C   0  0  0  0  0  0  0  0  0  0  0  0
  -30.5215  -12.3399   19.5712 C   0  0  0  0  0  0  0  0  0  0  0  0
  -28.6384  -13.1852   20.9160 C   0  0  0  0  0  0  0  0  0  0  0  0
  -29.2398  -25.2414   22.3085 C   0  0  1  0  0  0  0  0  0  0  0  0
  -31.1679  -26.8876   19.4790 C   0  0  1  0  0  0  0  0  0  0  0  0
  -27.6698  -13.0329   19.7318 C   0  0  2  0  0  0  0  0  0  0  0  0
  -31.1613  -21.1330   21.4052 C   0  0  0  0  0  0  0  0  0  0  0  0
  -35.4882  -20.3848   15.6025 C   0  0  0  0  0  0  0  0  0  0  0  0
  -29.9411  -30.7834   12.8972 C   0  0  0  0  0  0  0  0  0  0  0  0
  -27.1931  -26.5140   17.1505 C   0  0  0  0  0  0  0  0  0  0  0  0
  -27.1296  -27.6727   14.9321 C   0  0  0  0  0  0  0  0  0  0  0  0
  -27.0261  -29.0067   17.0374 C   0  0  0  0  0  0  0  0  0  0  0  0
  -33.3053  -30.0921   14.5345 C   0  0  0  0  0  0  0  0  0  0  0  0
  -35.0953  -21.3476   16.7123 C   0  0  1  0  0  0  0  0  0  1  0  0
  -29.2083  -27.9228   16.3630 C   0  0  1  0  0  0  0  0  0  0  0  0
  -30.8783  -30.4030   14.0329 C   0  0  2  0  0  0  0  0  0  0  0  0
  -29.2115  -20.0004   23.2437 C   0  0  0  0  0  0  0  0  0  0  0  0
  -27.6618  -27.7633   16.3782 C   0  0  0  0  0  0  0  0  0  0  0  0
  -25.8024  -11.5425   20.3426 N   0  0  0  0  0  0  0  0  0  0  0  0
  -26.2419  -12.8034   20.1907 N   0  0  0  0  0  0  0  0  0  0  0  0
  -32.5883  -19.3481   19.6354 N   0  0  0  0  0  0  0  0  0  0  0  0
  -30.7189  -26.9944   18.0894 N   0  0  0  0  0  0  0  0  0  0  0  0
  -30.0044  -13.4154   20.4201 N   0  0  0  0  0  0  0  0  0  0  0  0
  -25.5813  -15.0700   20.3824 N   0  0  0  0  0  0  0  0  0  0  0  0
  -21.8700  -12.7972   21.5895 N   0  0  0  0  0  0  0  0  0  0  0  0
  -30.2046  -15.5109   21.4838 N   0  0  0  0  0  0  0  0  0  0  0  0
  -30.0537  -26.1049   21.4800 N   0  0  0  0  0  0  0  0  0  0  0  0
  -29.6795  -29.1121   15.6617 N   0  0  0  0  0  0  0  0  0  0  0  0
  -32.2760  -30.4250   13.5163 N   0  3  0  0  0  0  0  0  0  0  0  0
  -34.0544  -20.2167   21.2596 O   0  0  0  0  0  0  0  0  0  0  0  0
  -22.7504  -14.8907   21.2718 O   0  0  0  0  0  0  0  0  0  0  0  0
  -29.8783  -24.9097   19.4891 O   0  0  0  0  0  0  0  0  0  0  0  0
  -29.4474  -28.9031   18.5097 O   0  0  0  0  0  0  0  0  0  0  0  0
  -30.9984  -27.9915   14.1183 O   0  0  0  0  0  0  0  0  0  0  0  0
  -31.9549  -14.6421   20.2335 O   0  0  0  0  0  0  0  0  0  0  0  0
  -21.3281   -7.2573   21.8145 O   0  0  0  0  0  0  0  0  0  0  0  0
  -34.3759  -22.4313   16.1255 O   0  0  0  0  0  0  0  0  0  1  0  0
  -23.5315   -3.1618   24.7770 F   0  0  0  0  0  0  0  0  0  0  0  0
  -23.5741   -5.9128   20.9253 F   0  0  0  0  0  0  0  0  0  0  0  0
  -28.3372  -19.3177   24.0391 F   0  0  0  0  0  0  0  0  0  0  0  0
  -30.0060  -20.7015   24.1040 F   0  0  0  0  0  0  0  0  0  0  0  0
  -28.4625  -20.9341   22.5900 F   0  0  0  0  0  0  0  0  0  0  0  0
  1  2  1  0  0  0  0
  1  5  2  0  0  0  0
  2  6  2  0  0  0  0
  3  8  2  0  0  0  0
  3 17  1  0  0  0  0
  4  9  1  0  0  0  0
  4 17  2  0  0  0  0
  5 19  1  0  0  0  0
  6 21  1  0  0  0  0
  7 10  2  0  0  0  0
  7 20  1  0  0  0  0
  8 27  1  0  0  0  0
  9 27  2  0  0  0  0
 10 28  1  0  0  0  0
 11 12  2  0  0  0  0
 11 29  1  0  0  0  0
 12 30  1  0  0  0  0
 13 22  1  0  0  0  0
 13 28  2  0  0  0  0
 14 23  2  0  0  0  0
 14 26  1  0  0  0  0
 15 25  1  0  0  0  0
 15 26  2  0  0  0  0
 16 30  2  0  0  0  0
 16 31  1  0  0  0  0
 17 32  1  0  0  0  0
 18 32  1  0  0  0  0
 18 33  2  0  0  0  0
 18 37  1  0  0  0  0
 19 21  2  0  0  0  0
 19 42  1  0  0  0  0
 20 22  2  0  0  0  0
 20 43  1  0  0  0  0
 21 53  1  0  0  0  0
 22 44  1  0  0  0  0
 23 24  1  0  0  0  0
 23 66  1  0  0  0  0
 24 25  2  0  0  0  0
 24 56  1  0  0  0  0
 25 70  1  0  0  0  0
 26 75  1  0  0  0  0
 27 85  1  0  0  0  0
 28 86  1  0  0  0  0
 29 31  2  0  0  0  0
 29 85  1  0  0  0  0
 30 87  1  0  0  0  0
 31 88  1  0  0  0  0
 32 68  2  0  0  0  0
 33 69  1  0  0  0  0
 33 73  1  0  0  0  0
 34 35  2  0  0  0  0
 34 36  1  0  0  0  0
 35 45  1  0  0  0  0
 35 63  1  0  0  0  0
 36 70  1  0  0  0  0
 36 79  2  0  0  0  0
 37 74  1  0  0  0  0
 37 80  2  0  0  0  0
 38 54  1  0  0  0  0
 38 76  1  0  0  0  0
 38 81  2  0  0  0  0
 39 64  1  0  0  0  0
 39 71  1  0  0  0  0
 39 82  2  0  0  0  0
 40 65  1  0  0  0  0
 40 77  1  0  0  0  0
 40 83  2  0  0  0  0
 41 72  1  0  0  0  0
 41 75  1  0  0  0  0
 41 84  2  0  0  0  0
 42 46  1  0  0  0  0
 43 54  1  0  0  0  0
 44 71  1  0  0  0  0
 45 50  1  0  0  0  0
 46 48  1  0  0  0  0
 47 49  1  0  0  0  0
 47 51  1  0  0  0  0
 48 53  1  0  0  0  0
 49 55  1  0  0  0  0
 50 70  1  0  0  0  0
 51 72  1  0  0  0  0
 52 55  1  0  0  0  0
 52 72  1  0  0  0  0
 53 76  1  0  0  0  0
 54 71  1  0  0  0  0
 55 69  1  0  0  0  0
 57 63  1  0  0  0  0
 58 65  1  0  0  0  0
 59 67  1  0  0  0  0
 60 67  1  0  0  0  0
 61 67  1  0  0  0  0
 62 78  1  0  0  0  0
 63 86  1  0  0  0  0
 64 67  1  0  0  0  0
 64 77  1  0  0  0  0
 65 78  1  0  0  0  0
 66 89  1  0  0  0  0
 66 90  1  0  0  0  0
 66 91  1  0  0  0  0
 68 69  1  0  0  0  0
M  CHG  1  78   1
M  ISO  4  41 100  63 101  75 100  86 101
M  END
> <Batch ID>
0053

> <Smiles>
CNC(C)C(=O)NC(C(=O)N1Cc2cc([101O:1][101C:1](C)=C3CCN(c4cc([100NH:0][100C:0](=O)N5CCCC(n6nc(-c7ccc(Oc8ccc(F)cc8F)cc7)c(C(N)=O)c6N)C5)cc(C(F)(F)F)c4C)C(=O)C3)ccc2CC1C(=O)NC1CCCc2ccccc21)C(C)(C)C

> <Shape>
0.221

> <Color>
0.205

> <Negative vol penalty>
0.000

$$$$

  -OEChem-04042322433D

 89 97  0     1  0  0  0  0  0999 V2000
  -21.8499  -12.4782   19.5881 C   0  0  0  0  0  0  0  0  0  0  0  0
  -21.6946  -13.8450   19.7959 C   0  0  0  0  0  0  0  0  0  0  0  0
  -30.9619  -26.5087   20.7057 C   0  0  0  0  0  0  0  0  0  0  0  0
  -30.8120  -27.7853   22.7514 C   0  0  0  0  0  0  0  0  0  0  0  0
  -23.0559  -11.8577   19.9112 C   0  0  0  0  0  0  0  0  0  0  0  0
  -22.7451  -14.5919   20.3280 C   0  0  0  0  0  0  0  0  0  0  0  0
  -23.4578  -18.9642   17.8745 C   0  0  0  0  0  0  0  0  0  0  0  0
  -32.3487  -26.6588   20.7137 C   0  0  0  0  0  0  0  0  0  0  0  0
  -32.1987  -27.9354   22.7595 C   0  0  0  0  0  0  0  0  0  0  0  0
  -22.5792  -20.0073   18.1638 C   0  0  0  0  0  0  0  0  0  0  0  0
  -34.9947  -25.2752   22.3002 C   0  0  0  0  0  0  0  0  0  0  0  0
  -35.7703  -24.1476   22.0312 C   0  0  0  0  0  0  0  0  0  0  0  0
  -24.2306  -20.9850   19.6254 C   0  0  0  0  0  0  0  0  0  0  0  0
  -18.5444  -26.0310   21.8205 C   0  0  0  0  0  0  0  0  0  0  0  0
  -19.1344  -28.3656   22.0174 C   0  0  0  0  0  0  0  0  0  0  0  0
  -36.7373  -25.2682   20.1217 C   0  0  0  0  0  0  0  0  0  0  0  0
  -30.1936  -27.0721   21.7245 C   0  0  0  0  0  0  0  0  0  0  0  0
  -28.0141  -25.8818   22.3086 C   0  0  0  0  0  0  0  0  0  0  0  0
  -24.1250  -12.5991   20.4385 C   0  0  0  0  0  0  0  0  0  0  0  0
  -24.7276  -18.9179   18.4678 C   0  0  0  0  0  0  0  0  0  0  0  0
  -23.9661  -13.9805   20.6597 C   0  0  0  0  0  0  0  0  0  0  0  0
  -25.1245  -19.9416   19.3399 C   0  0  0  0  0  0  0  0  0  0  0  0
  -19.5807  -25.6956   22.6917 C   0  0  0  0  0  0  0  0  0  0  0  0
  -20.1707  -28.0302   22.8887 C   0  0  0  0  0  0  0  0  0  0  0  0
  -20.3939  -26.6952   23.2259 C   0  0  0  0  0  0  0  0  0  0  0  0
  -18.3213  -27.3661   21.4833 C   0  0  0  0  0  0  0  0  0  0  0  0
  -32.9671  -27.3721   21.7406 C   0  0  0  0  0  0  0  0  0  0  0  0
  -22.9644  -21.0163   19.0416 C   0  0  0  0  0  0  0  0  0  0  0  0
  -35.0903  -26.3994   21.4800 C   0  0  0  0  0  0  0  0  0  0  0  0
  -36.6416  -24.1441   20.9420 C   0  0  0  0  0  0  0  0  0  0  0  0
  -35.9616  -26.3959   20.3907 C   0  0  0  0  0  0  0  0  0  0  0  0
  -28.7610  -26.9179   21.7165 C   0  0  0  0  0  0  0  0  0  0  0  0
  -26.7077  -26.1922   22.0201 C   0  0  0  0  0  0  0  0  0  0  0  0
  -14.4615  -26.9483   18.4413 C   0  0  0  0  0  0  0  0  0  0  0  0
  -15.4111  -27.5943   19.1252 C   0  0  0  0  0  0  0  0  0  0  0  0
  -28.4614  -24.7409   23.0528 C   0  0  0  0  0  0  0  0  0  0  0  0
  -16.3720  -26.8431   19.9840 C   0  0  0  0  0  0  0  0  0  0  0  0
  -26.2218  -16.8967   20.4136 C   0  0  0  0  0  0  0  0  0  0  0  0
  -28.7524  -18.8506   19.8656 C   0  0  0  0  0  0  0  0  0  0  0  0
  -20.8681  -23.1309   21.0913 C   0  0  0  0  0  0  0  0  0  0  0  0
  -29.8845  -21.9412   18.9635 C   0  0  0  0  0  0  0  0  0  0  0  0
  -22.5534  -29.9007   21.6529 C   0  0  0  0  0  0  0  0  0  0  0  0
  -25.3933  -11.8759   20.8165 C   0  0  0  0  0  0  0  0  0  0  0  0
  -25.6737  -17.8001   18.1246 C   0  0  0  0  0  0  0  0  0  0  0  0
  -26.4843  -19.9489   19.9875 C   0  0  0  0  0  0  0  0  0  0  0  0
  -26.5855  -12.8060   21.0262 C   0  0  0  0  0  0  0  0  0  0  0  0
  -24.7607  -29.6392   18.8714 C   0  0  0  0  0  0  0  0  0  0  0  0
  -26.1868  -13.9983   21.8901 C   0  0  0  0  0  0  0  0  0  0  0  0
  -25.9387  -28.8282   19.4143 C   0  0  0  0  0  0  0  0  0  0  0  0
  -24.1931  -30.5857   19.9269 C   0  0  0  0  0  0  0  0  0  0  0  0
  -25.0021  -29.1311   21.7445 C   0  0  0  0  0  0  0  0  0  0  0  0
  -25.0909  -14.8291   21.2118 C   0  0  1  0  0  0  0  0  0  0  0  0
  -26.7491  -17.5810   19.1842 C   0  0  1  0  0  0  0  0  0  0  0  0
  -25.5726  -28.1218   20.7334 C   0  0  2  0  0  0  0  0  0  0  0  0
  -21.5048  -26.3354   24.1606 C   0  0  0  0  0  0  0  0  0  0  0  0
  -32.0036  -23.2468   18.6436 C   0  0  0  0  0  0  0  0  0  0  0  0
  -29.0426  -19.1164   22.8913 C   0  0  0  0  0  0  0  0  0  0  0  0
  -30.5017  -21.1141   22.5059 C   0  0  0  0  0  0  0  0  0  0  0  0
  -31.2023  -18.8769   21.6533 C   0  0  0  0  0  0  0  0  0  0  0  0
  -29.3062  -22.3996   16.0975 C   0  0  0  0  0  0  0  0  0  0  0  0
  -19.8003  -24.2513   23.0381 C   0  0  0  0  0  0  0  0  0  0  0  0
  -21.0269  -29.1195   23.4469 C   0  0  0  0  0  0  0  0  0  0  0  0
  -22.2169  -22.6330   20.6176 C   0  0  0  0  0  0  0  0  0  1  0  0
  -29.3016  -20.0969   20.5170 C   0  0  1  0  0  0  0  0  0  0  0  0
  -30.9528  -22.3738   17.9755 C   0  0  2  0  0  0  0  0  0  0  0  0
  -29.9856  -19.8002   21.8813 C   0  0  0  0  0  0  0  0  0  0  0  0
  -27.9929  -27.8190   21.0985 N   0  0  0  0  0  0  0  0  0  0  0  0
  -26.7497  -27.3500   21.3005 N   0  0  0  0  0  0  0  0  0  0  0  0
  -27.3713  -18.8311   19.6251 N   0  0  0  0  0  0  0  0  0  0  0  0
  -23.8650  -29.8530   21.1523 N   0  0  0  0  0  0  0  0  0  0  0  0
  -25.5384  -25.5849   22.3142 N   0  0  0  0  0  0  0  0  0  0  0  0
  -29.8379  -24.5740   23.2570 N   0  0  0  0  0  0  0  0  0  0  0  0
  -17.2840  -27.7020   20.6126 N   0  0  0  0  0  0  0  0  0  0  0  0
  -25.6575  -15.6590   20.1703 N   0  0  0  0  0  0  0  0  0  0  0  0
  -20.9461  -23.6992   22.3531 N   0  0  0  0  0  0  0  0  0  0  0  0
  -30.1789  -20.7197   19.5316 N   0  0  0  0  0  0  0  0  0  0  0  0
  -22.3262  -29.1733   22.8147 N   0  0  0  0  0  0  0  0  0  0  0  0
  -30.3417  -23.1464   16.8572 N   0  3  0  0  0  0  0  0  0  0  0  0
  -27.6650  -23.8857   23.5088 O   0  0  0  0  0  0  0  0  0  0  0  0
  -16.3158  -25.6230   20.0833 O   0  0  0  0  0  0  0  0  0  0  0  0
  -26.3209  -17.4500   21.5025 O   0  0  0  0  0  0  0  0  0  0  0  0
  -29.5217  -17.9314   19.5743 O   0  0  0  0  0  0  0  0  0  0  0  0
  -19.8473  -23.0277   20.4165 O   0  0  0  0  0  0  0  0  0  0  0  0
  -28.8905  -22.6207   19.2097 O   0  0  0  0  0  0  0  0  0  0  0  0
  -21.6505  -30.5396   21.1020 O   0  0  0  0  0  0  0  0  0  0  0  0
  -34.3202  -27.5185   21.7489 O   0  0  0  0  0  0  0  0  0  0  0  0
  -22.1085  -22.0353   19.3263 O   0  0  0  0  0  0  0  0  0  1  0  0
  -37.3875  -23.0617   20.6846 F   0  0  0  0  0  0  0  0  0  0  0  0
  -36.0587  -27.4734   19.5999 F   0  0  0  0  0  0  0  0  0  0  0  0
  1  2  1  0  0  0  0
  1  5  2  0  0  0  0
  2  6  2  0  0  0  0
  3  8  2  0  0  0  0
  3 17  1  0  0  0  0
  4  9  1  0  0  0  0
  4 17  2  0  0  0  0
  5 19  1  0  0  0  0
  6 21  1  0  0  0  0
  7 10  2  0  0  0  0
  7 20  1  0  0  0  0
  8 27  1  0  0  0  0
  9 27  2  0  0  0  0
 10 28  1  0  0  0  0
 11 12  2  0  0  0  0
 11 29  1  0  0  0  0
 12 30  1  0  0  0  0
 13 22  1  0  0  0  0
 13 28  2  0  0  0  0
 14 23  2  0  0  0  0
 14 26  1  0  0  0  0
 15 24  1  0  0  0  0
 15 26  2  0  0  0  0
 16 30  2  0  0  0  0
 16 31  1  0  0  0  0
 17 32  1  0  0  0  0
 18 32  1  0  0  0  0
 18 33  2  0  0  0  0
 18 36  1  0  0  0  0
 19 21  2  0  0  0  0
 19 43  1  0  0  0  0
 20 22  2  0  0  0  0
 20 44  1  0  0  0  0
 21 52  1  0  0  0  0
 22 45  1  0  0  0  0
 23 25  1  0  0  0  0
 23 61  1  0  0  0  0
 24 25  2  0  0  0  0
 24 62  1  0  0  0  0
 25 55  1  0  0  0  0
 26 73  1  0  0  0  0
 27 86  1  0  0  0  0
 28 87  1  0  0  0  0
 29 31  2  0  0  0  0
 29 86  1  0  0  0  0
 30 88  1  0  0  0  0
 31 89  1  0  0  0  0
 32 67  2  0  0  0  0
 33 68  1  0  0  0  0
 33 71  1  0  0  0  0
 34 35  2  0  0  0  0
 35 37  1  0  0  0  0
 36 72  1  0  0  0  0
 36 79  2  0  0  0  0
 37 73  1  0  0  0  0
 37 80  2  0  0  0  0
 38 53  1  0  0  0  0
 38 74  1  0  0  0  0
 38 81  2  0  0  0  0
 39 64  1  0  0  0  0
 39 69  1  0  0  0  0
 39 82  2  0  0  0  0
 40 63  1  0  0  0  0
 40 75  1  0  0  0  0
 40 83  2  0  0  0  0
 41 65  1  0  0  0  0
 41 76  1  0  0  0  0
 41 84  2  0  0  0  0
 42 70  1  0  0  0  0
 42 77  1  0  0  0  0
 42 85  2  0  0  0  0
 43 46  1  0  0  0  0
 44 53  1  0  0  0  0
 45 69  1  0  0  0  0
 46 48  1  0  0  0  0
 47 49  1  0  0  0  0
 47 50  1  0  0  0  0
 48 52  1  0  0  0  0
 49 54  1  0  0  0  0
 50 70  1  0  0  0  0
 51 54  1  0  0  0  0
 51 70  1  0  0  0  0
 52 74  1  0  0  0  0
 53 69  1  0  0  0  0
 54 68  1  0  0  0  0
 56 65  1  0  0  0  0
 57 66  1  0  0  0  0
 58 66  1  0  0  0  0
 59 66  1  0  0  0  0
 60 78  1  0  0  0  0
 61 75  1  0  0  0  0
 62 77  1  0  0  0  0
 63 87  1  0  0  0  0
 64 66  1  0  0  0  0
 64 76  1  0  0  0  0
 65 78  1  0  0  0  0
 67 68  1  0  0  0  0
M  CHG  1  78   1
M  ISO  4  42 100  63 101  77 100  87 101
M  END
> <Batch ID>
0053

> <Smiles>
C=CC(=O)Nc1cc(CNC(=O)[101CH2:1][101O:1]c2ccc3c(c2)CN(C(=O)C(NC(=O)C(C)NC)C(C)(C)C)C(C(=O)NC2CCCc4ccccc42)C3)c(C)c(C[100NH:0][100C:0](=O)N2CCCC(n3nc(-c4ccc(Oc5ccc(F)cc5F)cc4)c(C(N)=O)c3N)C2)c1

> <Shape>
0.218

> <Color>
0.071

> <Negative vol penalty>
0.000

$$$$

  -OEChem-04042322433D

 85 93  0     1  0  0  0  0  0999 V2000
  -17.7579  -25.7133   22.7549 C   0  0  0  0  0  0  0  0  0  0  0  0
  -19.0293  -25.4017   22.2838 C   0  0  0  0  0  0  0  0  0  0  0  0
  -29.4438  -20.3578   14.8603 C   0  0  0  0  0  0  0  0  0  0  0  0
  -24.9470  -13.5957   21.9448 C   0  0  0  0  0  0  0  0  0  0  0  0
  -26.2172  -13.4282   19.8965 C   0  0  0  0  0  0  0  0  0  0  0  0
  -17.3289  -27.0398   22.7747 C   0  0  0  0  0  0  0  0  0  0  0  0
  -19.8719  -26.4163   21.8311 C   0  0  0  0  0  0  0  0  0  0  0  0
  -25.9673  -26.6561   22.3745 C   0  0  0  0  0  0  0  0  0  0  0  0
  -28.9617  -21.5681   14.3622 C   0  0  0  0  0  0  0  0  0  0  0  0
  -29.2258  -20.0165   16.1952 C   0  0  0  0  0  0  0  0  0  0  0  0
  -24.1159  -12.5616   21.5140 C   0  0  0  0  0  0  0  0  0  0  0  0
  -25.3861  -12.3941   19.4657 C   0  0  0  0  0  0  0  0  0  0  0  0
  -27.0006  -26.3477   21.4908 C   0  0  0  0  0  0  0  0  0  0  0  0
  -25.0298   -9.0831   20.0411 C   0  0  0  0  0  0  0  0  0  0  0  0
  -25.6346   -7.9595   19.4781 C   0  0  0  0  0  0  0  0  0  0  0  0
  -27.1473  -28.6718   20.8610 C   0  0  0  0  0  0  0  0  0  0  0  0
  -28.0437  -22.0963   16.5337 C   0  0  0  0  0  0  0  0  0  0  0  0
  -24.4280   -8.3412   17.4201 C   0  0  0  0  0  0  0  0  0  0  0  0
  -25.9976  -14.0290   21.1360 C   0  0  0  0  0  0  0  0  0  0  0  0
  -28.0441  -14.9792   22.3264 C   0  0  0  0  0  0  0  0  0  0  0  0
  -18.1703  -28.0722   22.3310 C   0  0  0  0  0  0  0  0  0  0  0  0
  -25.5081  -27.9751   22.5003 C   0  0  0  0  0  0  0  0  0  0  0  0
  -19.4532  -27.7576   21.8437 C   0  0  0  0  0  0  0  0  0  0  0  0
  -26.1098  -28.9946   21.7488 C   0  0  0  0  0  0  0  0  0  0  0  0
  -28.2617  -22.4374   15.1989 C   0  0  0  0  0  0  0  0  0  0  0  0
  -28.5258  -20.8858   17.0319 C   0  0  0  0  0  0  0  0  0  0  0  0
  -24.3355  -11.9608   20.2745 C   0  0  0  0  0  0  0  0  0  0  0  0
  -27.5889  -27.3552   20.7317 C   0  0  0  0  0  0  0  0  0  0  0  0
  -24.1239   -9.8358   19.2937 C   0  0  0  0  0  0  0  0  0  0  0  0
  -25.3338   -7.5885   18.1676 C   0  0  0  0  0  0  0  0  0  0  0  0
  -23.8231   -9.4648   17.9832 C   0  0  0  0  0  0  0  0  0  0  0  0
  -26.8561  -15.0975   21.5803 C   0  0  0  0  0  0  0  0  0  0  0  0
  -28.4778  -16.2723   22.4886 C   0  0  0  0  0  0  0  0  0  0  0  0
  -28.5499  -25.5268   16.7983 C   0  0  0  0  0  0  0  0  0  0  0  0
  -29.2074  -25.8338   17.9254 C   0  0  0  0  0  0  0  0  0  0  0  0
  -28.6971  -13.8054   22.8278 C   0  0  0  0  0  0  0  0  0  0  0  0
  -29.2477  -25.6111   15.4828 C   0  0  0  0  0  0  0  0  0  0  0  0
  -22.7376  -29.4447   21.9821 C   0  0  0  0  0  0  0  0  0  0  0  0
  -24.2819  -31.9782   23.2933 C   0  0  0  0  0  0  0  0  0  0  0  0
  -27.2455  -33.5185   23.9945 C   0  0  0  0  0  0  0  0  0  0  0  0
  -27.6291  -21.2867   19.3517 C   0  0  0  0  0  0  0  0  0  0  0  0
  -17.6448  -29.4859   22.3273 C   0  0  0  0  0  0  0  0  0  0  0  0
  -24.4106  -28.2955   23.4776 C   0  0  0  0  0  0  0  0  0  0  0  0
  -25.6671  -30.4298   21.8619 C   0  0  0  0  0  0  0  0  0  0  0  0
  -18.7377  -30.5415   22.1800 C   0  0  0  0  0  0  0  0  0  0  0  0
  -26.8393  -20.7626   22.7837 C   0  0  0  0  0  0  0  0  0  0  0  0
  -19.7010  -30.1599   21.0605 C   0  0  0  0  0  0  0  0  0  0  0  0
  -26.8681  -19.2398   22.9339 C   0  0  0  0  0  0  0  0  0  0  0  0
  -26.2717  -21.1884   21.4308 C   0  0  0  0  0  0  0  0  0  0  0  0
  -26.9443  -19.0471   20.4151 C   0  0  0  0  0  0  0  0  0  0  0  0
  -20.4056  -28.8329   21.3673 C   0  0  1  0  0  0  0  0  0  0  0  0
  -23.6754  -29.5907   23.1470 C   0  0  1  0  0  0  0  0  0  0  0  0
  -27.5684  -18.5686   21.7362 C   0  0  2  0  0  0  0  0  0  0  0  0
  -28.1865  -35.5964   25.0405 C   0  0  0  0  0  0  0  0  0  0  0  0
  -23.5057  -33.5757   20.8122 C   0  0  0  0  0  0  0  0  0  0  0  0
  -25.2286  -35.2755   21.4530 C   0  0  0  0  0  0  0  0  0  0  0  0
  -23.2971  -34.8281   22.9669 C   0  0  0  0  0  0  0  0  0  0  0  0
  -29.4631  -24.7273   13.1917 C   0  0  0  0  0  0  0  0  0  0  0  0
  -28.6952  -31.9646   26.0542 C   0  0  0  0  0  0  0  0  0  0  0  0
  -27.7431  -23.7401   14.6622 C   0  0  0  0  0  0  0  0  0  0  0  0
  -28.5878  -25.7551   19.2833 C   0  0  0  0  0  0  0  0  0  1  0  0
  -25.1344  -33.1038   22.7592 C   0  0  1  0  0  0  0  0  0  0  0  0
  -27.7756  -34.1501   25.2690 C   0  0  2  0  0  0  0  0  0  0  0  0
  -24.2987  -34.1685   21.9940 C   0  0  0  0  0  0  0  0  0  0  0  0
  -26.5544  -16.3656   21.2889 N   0  0  0  0  0  0  0  0  0  0  0  0
  -27.5589  -17.0560   21.8548 N   0  0  0  0  0  0  0  0  0  0  0  0
  -24.5862  -30.6916   22.8266 N   0  0  0  0  0  0  0  0  0  0  0  0
  -26.9866  -20.5161   20.3437 N   0  0  0  0  0  0  0  0  0  0  0  0
  -29.5517  -16.8040   23.1103 N   0  0  0  0  0  0  0  0  0  0  0  0
  -28.1161  -12.5562   22.5706 N   0  0  0  0  0  0  0  0  0  0  0  0
  -28.3039  -20.5386   18.3876 N   0  0  0  0  0  0  0  0  0  0  0  0
  -21.4653  -29.0346   22.3321 N   0  0  0  0  0  0  0  0  0  0  0  0
  -25.8745  -33.6320   23.9001 N   0  0  0  0  0  0  0  0  0  0  0  0
  -28.8093  -24.7258   14.4940 N   0  0  0  0  0  0  0  0  0  0  0  0
  -28.9620  -33.3973   25.7656 N   0  3  0  0  0  0  0  0  0  0  0  0
  -29.7554  -13.8639   23.4986 O   0  0  0  0  0  0  0  0  0  0  0  0
  -30.1700  -26.4135   15.3305 O   0  0  0  0  0  0  0  0  0  0  0  0
  -23.1383  -29.6877   20.8498 O   0  0  0  0  0  0  0  0  0  0  0  0
  -23.3838  -32.2304   24.1004 O   0  0  0  0  0  0  0  0  0  0  0  0
  -27.9750  -32.9815   23.1638 O   0  0  0  0  0  0  0  0  0  0  0  0
  -27.6068  -22.5200   19.3723 O   0  0  0  0  0  0  0  0  0  0  0  0
  -23.5248  -10.9516   19.8539 O   0  0  0  0  0  0  0  0  0  0  0  0
  -28.5972  -27.0569   19.8680 O   0  0  0  0  0  0  0  0  0  1  0  0
  -25.9159   -6.5103   17.6265 F   0  0  0  0  0  0  0  0  0  0  0  0
  -22.9545  -10.1847   17.2598 F   0  0  0  0  0  0  0  0  0  0  0  0
  1  2  1  0  0  0  0
  1  6  2  0  0  0  0
  2  7  2  0  0  0  0
  3  9  2  0  0  0  0
  3 10  1  0  0  0  0
  4 11  2  0  0  0  0
  4 19  1  0  0  0  0
  5 12  1  0  0  0  0
  5 19  2  0  0  0  0
  6 21  1  0  0  0  0
  7 23  1  0  0  0  0
  8 13  2  0  0  0  0
  8 22  1  0  0  0  0
  9 25  1  0  0  0  0
 10 26  2  0  0  0  0
 11 27  1  0  0  0  0
 12 27  2  0  0  0  0
 13 28  1  0  0  0  0
 14 15  2  0  0  0  0
 14 29  1  0  0  0  0
 15 30  1  0  0  0  0
 16 24  1  0  0  0  0
 16 28  2  0  0  0  0
 17 25  2  0  0  0  0
 17 26  1  0  0  0  0
 18 30  2  0  0  0  0
 18 31  1  0  0  0  0
 19 32  1  0  0  0  0
 20 32  1  0  0  0  0
 20 33  2  0  0  0  0
 20 36  1  0  0  0  0
 21 23  2  0  0  0  0
 21 42  1  0  0  0  0
 22 24  2  0  0  0  0
 22 43  1  0  0  0  0
 23 51  1  0  0  0  0
 24 44  1  0  0  0  0
 25 60  1  0  0  0  0
 26 71  1  0  0  0  0
 27 82  1  0  0  0  0
 28 83  1  0  0  0  0
 29 31  2  0  0  0  0
 29 82  1  0  0  0  0
 30 84  1  0  0  0  0
 31 85  1  0  0  0  0
 32 65  2  0  0  0  0
 33 66  1  0  0  0  0
 33 69  1  0  0  0  0
 34 35  2  0  0  0  0
 34 37  1  0  0  0  0
 35 61  1  0  0  0  0
 36 70  1  0  0  0  0
 36 76  2  0  0  0  0
 37 74  1  0  0  0  0
 37 77  2  0  0  0  0
 38 52  1  0  0  0  0
 38 72  1  0  0  0  0
 38 78  2  0  0  0  0
 39 62  1  0  0  0  0
 39 67  1  0  0  0  0
 39 79  2  0  0  0  0
 40 63  1  0  0  0  0
 40 73  1  0  0  0  0
 40 80  2  0  0  0  0
 41 68  1  0  0  0  0
 41 71  1  0  0  0  0
 41 81  2  0  0  0  0
 42 45  1  0  0  0  0
 43 52  1  0  0  0  0
 44 67  1  0  0  0  0
 45 47  1  0  0  0  0
 46 48  1  0  0  0  0
 46 49  1  0  0  0  0
 47 51  1  0  0  0  0
 48 53  1  0  0  0  0
 49 68  1  0  0  0  0
 50 53  1  0  0  0  0
 50 68  1  0  0  0  0
 51 72  1  0  0  0  0
 52 67  1  0  0  0  0
 53 66  1  0  0  0  0
 54 63  1  0  0  0  0
 55 64  1  0  0  0  0
 56 64  1  0  0  0  0
 57 64  1  0  0  0  0
 58 74  1  0  0  0  0
 59 75  1  0  0  0  0
 60 74  1  0  0  0  0
 61 83  1  0  0  0  0
 62 64  1  0  0  0  0
 62 73  1  0  0  0  0
 63 75  1  0  0  0  0
 65 66  1  0  0  0  0
M  CHG  1  75   1
M  ISO  4  41 100  61 101  71 100  83 101
M  END
> <Batch ID>
0053

> <Smiles>
CNC(C)C(=O)NC(C(=O)N1Cc2cc([101O:1][101CH2:1]C=CC(=O)N(C)Cc3cccc([100NH:0][100C:0](=O)N4CCCC(n5nc(-c6ccc(Oc7ccc(F)cc7F)cc6)c(C(N)=O)c5N)C4)c3)ccc2CC1C(=O)NC1CCCc2ccccc21)C(C)(C)C

> <Shape>
0.233

> <Color>
0.096

> <Negative vol penalty>
0.000

$$$$

  -OEChem-04042322433D

 97106  0     1  0  0  0  0  0999 V2000
  -32.0574  -26.6353   24.5071 C   0  0  0  0  0  0  0  0  0  0  0  0
  -31.6370  -26.5116   23.1867 C   0  0  0  0  0  0  0  0  0  0  0  0
  -25.3834  -18.9509   14.2317 C   0  0  0  0  0  0  0  0  0  0  0  0
  -26.6619  -12.6967   21.4545 C   0  0  0  0  0  0  0  0  0  0  0  0
  -26.4245  -13.4389   19.1676 C   0  0  0  0  0  0  0  0  0  0  0  0
  -31.1403  -26.4852   25.5464 C   0  0  0  0  0  0  0  0  0  0  0  0
  -30.2993  -26.2366   22.9049 C   0  0  0  0  0  0  0  0  0  0  0  0
  -27.0488  -28.2724   18.1305 C   0  0  0  0  0  0  0  0  0  0  0  0
  -24.4872  -19.9650   13.8939 C   0  0  0  0  0  0  0  0  0  0  0  0
  -25.3586  -12.2004   21.4288 C   0  0  0  0  0  0  0  0  0  0  0  0
  -25.1212  -12.9426   19.1419 C   0  0  0  0  0  0  0  0  0  0  0  0
  -26.7095  -27.6901   16.9101 C   0  0  0  0  0  0  0  0  0  0  0  0
  -23.7548   -9.4728   20.2367 C   0  0  0  0  0  0  0  0  0  0  0  0
  -23.5344   -8.2022   20.7682 C   0  0  0  0  0  0  0  0  0  0  0  0
  -26.7530  -19.2131   14.2652 C   0  0  0  0  0  0  0  0  0  0  0  0
  -24.5870  -27.0088   17.8322 C   0  0  0  0  0  0  0  0  0  0  0  0
  -30.0625  -22.1369   18.2217 C   0  0  0  0  0  0  0  0  0  0  0  0
  -26.3302  -21.5034   13.6227 C   0  0  0  0  0  0  0  0  0  0  0  0
  -29.7490  -20.3957   16.5765 C   0  0  0  0  0  0  0  0  0  0  0  0
  -21.9984   -9.1425   22.3788 C   0  0  0  0  0  0  0  0  0  0  0  0
  -27.1949  -13.3160   20.3239 C   0  0  0  0  0  0  0  0  0  0  0  0
  -29.7198  -13.1419   20.0044 C   0  0  0  0  0  0  0  0  0  0  0  0
  -29.7888  -26.2178   25.2770 C   0  0  0  0  0  0  0  0  0  0  0  0
  -26.1628  -28.2177   19.2161 C   0  0  0  0  0  0  0  0  0  0  0  0
  -29.3635  -26.0814   23.9417 C   0  0  0  0  0  0  0  0  0  0  0  0
  -24.9165  -27.5934   19.0646 C   0  0  0  0  0  0  0  0  0  0  0  0
  -24.9606  -21.2412   13.5894 C   0  0  0  0  0  0  0  0  0  0  0  0
  -29.6859  -23.0945   17.2800 C   0  0  0  0  0  0  0  0  0  0  0  0
  -29.3408  -22.7027   15.9866 C   0  0  0  0  0  0  0  0  0  0  0  0
  -30.0942  -20.7875   17.8699 C   0  0  0  0  0  0  0  0  0  0  0  0
  -24.5882  -12.3234   20.2725 C   0  0  0  0  0  0  0  0  0  0  0  0
  -25.4796  -27.0556   16.7616 C   0  0  0  0  0  0  0  0  0  0  0  0
  -23.0971  -10.5783   20.7762 C   0  0  0  0  0  0  0  0  0  0  0  0
  -22.6562   -8.0370   21.8392 C   0  0  0  0  0  0  0  0  0  0  0  0
  -22.2189  -10.4131   21.8472 C   0  0  0  0  0  0  0  0  0  0  0  0
  -27.2264  -20.4894   13.9606 C   0  0  0  0  0  0  0  0  0  0  0  0
  -29.3724  -21.3533   15.6348 C   0  0  0  0  0  0  0  0  0  0  0  0
  -28.5409  -13.8293   20.3501 C   0  0  0  0  0  0  0  0  0  0  0  0
  -30.7223  -14.0606   20.1976 C   0  0  0  0  0  0  0  0  0  0  0  0
  -29.8931  -11.7934   19.5492 C   0  0  0  0  0  0  0  0  0  0  0  0
  -26.2631  -26.9562   22.1319 C   0  0  0  0  0  0  0  0  0  0  0  0
  -23.4256  -28.4913   22.4704 C   0  0  0  0  0  0  0  0  0  0  0  0
  -24.5760  -24.4414   14.4421 C   0  0  0  0  0  0  0  0  0  0  0  0
  -20.6643  -29.8372   20.9836 C   0  0  0  0  0  0  0  0  0  0  0  0
  -30.8489  -20.0345   20.1524 C   0  0  0  0  0  0  0  0  0  0  0  0
  -28.8436  -26.0169   26.4350 C   0  0  0  0  0  0  0  0  0  0  0  0
  -26.5328  -28.8741   20.5179 C   0  0  0  0  0  0  0  0  0  0  0  0
  -23.9214  -27.5251   20.1931 C   0  0  0  0  0  0  0  0  0  0  0  0
  -27.3712  -26.0978   26.0405 C   0  0  0  0  0  0  0  0  0  0  0  0
  -31.8220  -17.9042   22.8342 C   0  0  0  0  0  0  0  0  0  0  0  0
  -27.1090  -25.2734   24.7842 C   0  0  0  0  0  0  0  0  0  0  0  0
  -31.2034  -16.5534   22.4670 C   0  0  0  0  0  0  0  0  0  0  0  0
  -30.9150  -19.0690   22.4412 C   0  0  0  0  0  0  0  0  0  0  0  0
  -29.8585  -17.7184   20.6723 C   0  0  0  0  0  0  0  0  0  0  0  0
  -27.9160  -25.8081   23.5950 C   0  0  1  0  0  0  0  0  0  0  0  0
  -25.7664  -28.3102   21.7104 C   0  0  1  0  0  0  0  0  0  0  0  0
  -30.7644  -16.5175   20.9900 C   0  0  2  0  0  0  0  0  0  0  0  0
  -28.9381  -23.7370   14.9833 C   0  0  0  0  0  0  0  0  0  0  0  0
  -18.4997  -30.9866   21.5227 C   0  0  0  0  0  0  0  0  0  0  0  0
  -22.2285  -25.8231   23.3408 C   0  0  0  0  0  0  0  0  0  0  0  0
  -19.9547  -26.7934   22.9446 C   0  0  0  0  0  0  0  0  0  0  0  0
  -21.4540  -27.7964   24.6677 C   0  0  0  0  0  0  0  0  0  0  0  0
  -22.7613  -22.9341   15.2711 C   0  0  0  0  0  0  0  0  0  0  0  0
  -21.4444  -32.2641   19.4800 C   0  0  0  0  0  0  0  0  0  0  0  0
  -23.9953  -22.3322   13.2258 C   0  0  0  0  0  0  0  0  0  0  0  0
  -24.2794  -25.3530   15.6142 C   0  0  0  0  0  0  0  0  0  1  0  0
  -21.9805  -28.1349   22.2181 C   0  0  1  0  0  0  0  0  0  0  0  0
  -19.9681  -31.1727   21.1736 C   0  0  2  0  0  0  0  0  0  0  0  0
  -29.6607  -24.5327   17.6831 C   0  0  0  0  0  0  0  0  0  0  0  0
  -21.4237  -27.1364   23.2719 C   0  0  0  0  0  0  0  0  0  0  0  0
  -28.7716  -15.0876   20.7341 N   0  0  0  0  0  0  0  0  0  0  0  0
  -30.1070  -15.1981   20.6308 N   0  0  0  0  0  0  0  0  0  0  0  0
  -24.3320  -28.1761   21.4481 N   0  0  0  0  0  0  0  0  0  0  0  0
  -30.5433  -18.9711   21.0280 N   0  0  0  0  0  0  0  0  0  0  0  0
  -32.0613  -13.9984   20.0377 N   0  0  0  0  0  0  0  0  0  0  0  0
  -28.7570  -10.9854   19.4057 N   0  0  0  0  0  0  0  0  0  0  0  0
  -30.4768  -19.8148   18.8266 N   0  0  0  0  0  0  0  0  0  0  0  0
  -27.2917  -26.9963   23.0539 N   0  0  0  0  0  0  0  0  0  0  0  0
  -21.2543  -29.3984   22.1500 N   0  0  0  0  0  0  0  0  0  0  0  0
  -23.8082  -23.2830   14.3187 N   0  0  0  0  0  0  0  0  0  0  0  0
  -20.0555  -31.9844   19.9268 N   0  3  0  0  0  0  0  0  0  0  0  0
  -31.0237  -11.3139   19.2934 O   0  0  0  0  0  0  0  0  0  0  0  0
  -25.7502  -25.9497   21.6571 O   0  0  0  0  0  0  0  0  0  0  0  0
  -23.7376  -29.0360   23.5323 O   0  0  0  0  0  0  0  0  0  0  0  0
  -25.4687  -24.7628   13.6518 O   0  0  0  0  0  0  0  0  0  0  0  0
  -20.6798  -29.2410   19.9090 O   0  0  0  0  0  0  0  0  0  0  0  0
  -31.4245  -21.0528   20.5443 O   0  0  0  0  0  0  0  0  0  0  0  0
  -29.6072  -19.5440   13.7617 O   0  0  0  0  0  0  0  0  0  0  0  0
  -29.2292  -21.9573   13.1416 O   0  0  0  0  0  0  0  0  0  0  0  0
  -23.3165  -11.8390   20.2469 O   0  0  0  0  0  0  0  0  0  0  0  0
  -25.1461  -26.4858   15.5717 O   0  0  0  0  0  0  0  0  0  1  0  0
  -22.4434   -6.8166   22.3485 F   0  0  0  0  0  0  0  0  0  0  0  0
  -21.5833  -11.4712   22.3690 F   0  0  0  0  0  0  0  0  0  0  0  0
  -30.0257  -24.7414   18.9817 F   0  0  0  0  0  0  0  0  0  0  0  0
  -30.4969  -25.3196   16.9451 F   0  0  0  0  0  0  0  0  0  0  0  0
  -28.4223  -25.0898   17.5548 F   0  0  0  0  0  0  0  0  0  0  0  0
  -28.9408  -20.8165   14.0013 S   0  0  0  0  0  0  0  0  0  0  0  0
  1  2  1  0  0  0  0
  1  6  2  0  0  0  0
  2  7  2  0  0  0  0
  3  9  2  0  0  0  0
  3 15  1  0  0  0  0
  4 10  2  0  0  0  0
  4 21  1  0  0  0  0
  5 11  1  0  0  0  0
  5 21  2  0  0  0  0
  6 23  1  0  0  0  0
  7 25  1  0  0  0  0
  8 12  2  0  0  0  0
  8 24  1  0  0  0  0
  9 27  1  0  0  0  0
 10 31  1  0  0  0  0
 11 31  2  0  0  0  0
 12 32  1  0  0  0  0
 13 14  2  0  0  0  0
 13 33  1  0  0  0  0
 14 34  1  0  0  0  0
 15 36  2  0  0  0  0
 16 26  1  0  0  0  0
 16 32  2  0  0  0  0
 17 28  2  0  0  0  0
 17 30  1  0  0  0  0
 18 27  2  0  0  0  0
 18 36  1  0  0  0  0
 19 30  2  0  0  0  0
 19 37  1  0  0  0  0
 20 34  2  0  0  0  0
 20 35  1  0  0  0  0
 21 38  1  0  0  0  0
 22 38  1  0  0  0  0
 22 39  2  0  0  0  0
 22 40  1  0  0  0  0
 23 25  2  0  0  0  0
 23 46  1  0  0  0  0
 24 26  2  0  0  0  0
 24 47  1  0  0  0  0
 25 55  1  0  0  0  0
 26 48  1  0  0  0  0
 27 65  1  0  0  0  0
 28 29  1  0  0  0  0
 28 69  1  0  0  0  0
 29 37  2  0  0  0  0
 29 58  1  0  0  0  0
 30 77  1  0  0  0  0
 31 90  1  0  0  0  0
 32 91  1  0  0  0  0
 33 35  2  0  0  0  0
 33 90  1  0  0  0  0
 34 92  1  0  0  0  0
 35 93  1  0  0  0  0
 36 97  1  0  0  0  0
 37 97  1  0  0  0  0
 38 71  2  0  0  0  0
 39 72  1  0  0  0  0
 39 75  1  0  0  0  0
 40 76  1  0  0  0  0
 40 82  2  0  0  0  0
 41 56  1  0  0  0  0
 41 78  1  0  0  0  0
 41 83  2  0  0  0  0
 42 67  1  0  0  0  0
 42 73  1  0  0  0  0
 42 84  2  0  0  0  0
 43 66  1  0  0  0  0
 43 80  1  0  0  0  0
 43 85  2  0  0  0  0
 44 68  1  0  0  0  0
 44 79  1  0  0  0  0
 44 86  2  0  0  0  0
 45 74  1  0  0  0  0
 45 77  1  0  0  0  0
 45 87  2  0  0  0  0
 46 49  1  0  0  0  0
 47 56  1  0  0  0  0
 48 73  1  0  0  0  0
 49 51  1  0  0  0  0
 50 52  1  0  0  0  0
 50 53  1  0  0  0  0
 51 55  1  0  0  0  0
 52 57  1  0  0  0  0
 53 74  1  0  0  0  0
 54 57  1  0  0  0  0
 54 74  1  0  0  0  0
 55 78  1  0  0  0  0
 56 73  1  0  0  0  0
 57 72  1  0  0  0  0
 59 68  1  0  0  0  0
 60 70  1  0  0  0  0
 61 70  1  0  0  0  0
 62 70  1  0  0  0  0
 63 80  1  0  0  0  0
 64 81  1  0  0  0  0
 65 80  1  0  0  0  0
 66 91  1  0  0  0  0
 67 70  1  0  0  0  0
 67 79  1  0  0  0  0
 68 81  1  0  0  0  0
 69 94  1  0  0  0  0
 69 95  1  0  0  0  0
 69 96  1  0  0  0  0
 71 72  1  0  0  0  0
 88 97  2  0  0  0  0
 89 97  2  0  0  0  0
M  CHG  1  81   1
M  ISO  4  45 100  66 101  77 100  91 101
M  END
> <Batch ID>
0053

> <Smiles>
CNC(C)C(=O)NC(C(=O)N1Cc2cc([101O:1][101CH2:1]C(=O)N(C)Cc3cccc(S(=O)(=O)c4cc([100NH:0][100C:0](=O)N5CCCC(n6nc(-c7ccc(Oc8ccc(F)cc8F)cc7)c(C(N)=O)c6N)C5)cc(C(F)(F)F)c4C)c3)ccc2CC1C(=O)NC1CCCc2ccccc21)C(C)(C)C

> <Shape>
0.234

> <Color>
0.081

> <Negative vol penalty>
0.000

$$$$

  -OEChem-04042322433D

 84 92  0     1  0  0  0  0  0999 V2000
  -29.4090  -33.8598   17.9365 C   0  0  0  0  0  0  0  0  0  0  0  0
  -29.8257  -32.8486   18.7963 C   0  0  0  0  0  0  0  0  0  0  0  0
  -23.0687   -9.8777   19.9378 C   0  0  0  0  0  0  0  0  0  0  0  0
  -23.8347   -9.8717   22.2292 C   0  0  0  0  0  0  0  0  0  0  0  0
  -28.1356  -33.8114   17.3708 C   0  0  0  0  0  0  0  0  0  0  0  0
  -28.9688  -31.7890   19.0918 C   0  0  0  0  0  0  0  0  0  0  0  0
  -30.5385  -25.9557   20.0990 C   0  0  0  0  0  0  0  0  0  0  0  0
  -22.3218   -8.7258   20.1845 C   0  0  0  0  0  0  0  0  0  0  0  0
  -23.0877   -8.7198   22.4759 C   0  0  0  0  0  0  0  0  0  0  0  0
  -30.7288  -25.2245   21.2706 C   0  0  0  0  0  0  0  0  0  0  0  0
  -19.8585   -7.9297   23.0833 C   0  0  0  0  0  0  0  0  0  0  0  0
  -19.1045   -7.8868   24.2560 C   0  0  0  0  0  0  0  0  0  0  0  0
  -28.4675  -24.3990   21.1156 C   0  0  0  0  0  0  0  0  0  0  0  0
  -31.8891  -18.3196   24.2123 C   0  0  0  0  0  0  0  0  0  0  0  0
  -32.0848  -16.5760   22.5515 C   0  0  0  0  0  0  0  0  0  0  0  0
  -20.3416   -5.9420   24.9802 C   0  0  0  0  0  0  0  0  0  0  0  0
  -23.8252  -10.4506   20.9602 C   0  0  0  0  0  0  0  0  0  0  0  0
  -24.1749  -12.9752   20.8508 C   0  0  0  0  0  0  0  0  0  0  0  0
  -27.2662  -32.7457   17.6519 C   0  0  0  0  0  0  0  0  0  0  0  0
  -29.3056  -25.9226   19.4316 C   0  0  0  0  0  0  0  0  0  0  0  0
  -27.6820  -31.7270   18.5304 C   0  0  0  0  0  0  0  0  0  0  0  0
  -28.2649  -25.1287   19.9343 C   0  0  0  0  0  0  0  0  0  0  0  0
  -32.6802  -17.4531   23.4581 C   0  0  0  0  0  0  0  0  0  0  0  0
  -30.5026  -18.3090   24.0600 C   0  0  0  0  0  0  0  0  0  0  0  0
  -30.6983  -16.5654   22.3992 C   0  0  0  0  0  0  0  0  0  0  0  0
  -22.3312   -8.1469   21.4535 C   0  0  0  0  0  0  0  0  0  0  0  0
  -29.6923  -24.4482   21.7807 C   0  0  0  0  0  0  0  0  0  0  0  0
  -20.8540   -6.9787   22.8590 C   0  0  0  0  0  0  0  0  0  0  0  0
  -19.3461   -6.8930   25.2045 C   0  0  0  0  0  0  0  0  0  0  0  0
  -21.0956   -5.9849   23.8075 C   0  0  0  0  0  0  0  0  0  0  0  0
  -29.9072  -17.4319   23.1535 C   0  0  0  0  0  0  0  0  0  0  0  0
  -24.5975  -11.6402   20.7059 C   0  0  0  0  0  0  0  0  0  0  0  0
  -25.2685  -13.7228   20.4881 C   0  0  0  0  0  0  0  0  0  0  0  0
  -22.9072  -13.4932   21.2755 C   0  0  0  0  0  0  0  0  0  0  0  0
  -27.0920  -28.0834   18.7005 C   0  0  0  0  0  0  0  0  0  0  0  0
  -25.7687  -25.6070   17.0762 C   0  0  0  0  0  0  0  0  0  0  0  0
  -29.8792  -21.5324   23.9281 C   0  0  0  0  0  0  0  0  0  0  0  0
  -25.4471  -22.2303   16.7005 C   0  0  0  0  0  0  0  0  0  0  0  0
  -30.7385  -14.7499   20.6531 C   0  0  0  0  0  0  0  0  0  0  0  0
  -25.8817  -32.7612   17.0538 C   0  0  0  0  0  0  0  0  0  0  0  0
  -29.1250  -26.6961   18.1543 C   0  0  0  0  0  0  0  0  0  0  0  0
  -26.9287  -25.0431   19.2446 C   0  0  0  0  0  0  0  0  0  0  0  0
  -25.1731  -31.4109   17.1233 C   0  0  0  0  0  0  0  0  0  0  0  0
  -29.6101  -12.3506   18.2768 C   0  0  0  0  0  0  0  0  0  0  0  0
  -25.3172  -30.8033   18.5150 C   0  0  0  0  0  0  0  0  0  0  0  0
  -28.1706  -12.0617   18.7088 C   0  0  0  0  0  0  0  0  0  0  0  0
  -30.5291  -12.5709   19.4771 C   0  0  0  0  0  0  0  0  0  0  0  0
  -28.6281  -13.2952   20.8667 C   0  0  0  0  0  0  0  0  0  0  0  0
  -26.7905  -30.5483   18.8558 C   0  0  1  0  0  0  0  0  0  0  0  0
  -27.6626  -26.9936   17.8377 C   0  0  1  0  0  0  0  0  0  0  0  0
  -27.6517  -13.1305   19.6906 C   0  0  2  0  0  0  0  0  0  0  0  0
  -34.1626  -17.4645   23.6209 C   0  0  0  0  0  0  0  0  0  0  0  0
  -24.2664  -20.5064   15.3107 C   0  0  0  0  0  0  0  0  0  0  0  0
  -23.1830  -26.1512   18.6021 C   0  0  0  0  0  0  0  0  0  0  0  0
  -22.3779  -23.8846   17.9073 C   0  0  0  0  0  0  0  0  0  0  0  0
  -22.8714  -25.6148   16.1794 C   0  0  0  0  0  0  0  0  0  0  0  0
  -28.0017  -21.1050   15.7173 C   0  0  0  0  0  0  0  0  0  0  0  0
  -29.6543  -19.2431   24.8737 C   0  0  0  0  0  0  0  0  0  0  0  0
  -29.1331  -22.5226   23.0595 C   0  0  0  0  0  0  0  0  0  1  0  0
  -24.7843  -24.5127   17.4116 C   0  0  1  0  0  0  0  0  0  0  0  0
  -25.5272  -21.3412   15.4727 C   0  0  2  0  0  0  0  0  0  0  0  0
  -23.3286  -25.0437   17.5394 C   0  0  0  0  0  0  0  0  0  0  0  0
  -25.8609  -11.5422   20.2838 N   0  0  0  0  0  0  0  0  0  0  0  0
  -26.2416  -12.8251   20.1604 N   0  0  0  0  0  0  0  0  0  0  0  0
  -26.7991  -25.8225   18.0023 N   0  0  0  0  0  0  0  0  0  0  0  0
  -29.9758  -13.5995   20.3606 N   0  0  0  0  0  0  0  0  0  0  0  0
  -25.4831  -15.0539   20.4206 N   0  0  0  0  0  0  0  0  0  0  0  0
  -21.8933  -12.5857   21.6113 N   0  0  0  0  0  0  0  0  0  0  0  0
  -30.0963  -15.6733   21.4775 N   0  0  0  0  0  0  0  0  0  0  0  0
  -27.2645  -29.3551   18.1880 N   0  0  0  0  0  0  0  0  0  0  0  0
  -29.1675  -20.3538   24.0886 N   0  0  0  0  0  0  0  0  0  0  0  0
  -24.9572  -23.4821   16.3936 N   0  0  0  0  0  0  0  0  0  0  0  0
  -26.6922  -20.4177   15.5770 N   0  3  0  0  0  0  0  0  0  0  0  0
  -22.6751  -14.7243   21.3391 O   0  0  0  0  0  0  0  0  0  0  0  0
  -26.5352  -27.7921   19.7525 O   0  0  0  0  0  0  0  0  0  0  0  0
  -25.6326  -26.2422   16.0276 O   0  0  0  0  0  0  0  0  0  0  0  0
  -30.9791  -21.7746   24.4174 O   0  0  0  0  0  0  0  0  0  0  0  0
  -25.7819  -21.8509   17.8206 O   0  0  0  0  0  0  0  0  0  0  0  0
  -31.8669  -14.9171   20.1833 O   0  0  0  0  0  0  0  0  0  0  0  0
  -21.6023   -7.0230   21.6946 O   0  0  0  0  0  0  0  0  0  0  0  0
  -29.8752  -23.7340   22.9245 O   0  0  0  0  0  0  0  0  0  1  0  0
  -18.6230   -6.8529   26.3313 F   0  0  0  0  0  0  0  0  0  0  0  0
  -22.0514   -5.0692   23.5982 F   0  0  0  0  0  0  0  0  0  0  0  0
  -28.5734  -17.4232   23.0084 F   0  0  0  0  0  0  0  0  0  0  0  0
  1  2  1  0  0  0  0
  1  5  2  0  0  0  0
  2  6  2  0  0  0  0
  3  8  2  0  0  0  0
  3 17  1  0  0  0  0
  4  9  1  0  0  0  0
  4 17  2  0  0  0  0
  5 19  1  0  0  0  0
  6 21  1  0  0  0  0
  7 10  2  0  0  0  0
  7 20  1  0  0  0  0
  8 26  1  0  0  0  0
  9 26  2  0  0  0  0
 10 27  1  0  0  0  0
 11 12  2  0  0  0  0
 11 28  1  0  0  0  0
 12 29  1  0  0  0  0
 13 22  1  0  0  0  0
 13 27  2  0  0  0  0
 14 23  2  0  0  0  0
 14 24  1  0  0  0  0
 15 23  1  0  0  0  0
 15 25  2  0  0  0  0
 16 29  2  0  0  0  0
 16 30  1  0  0  0  0
 17 32  1  0  0  0  0
 18 32  1  0  0  0  0
 18 33  2  0  0  0  0
 18 34  1  0  0  0  0
 19 21  2  0  0  0  0
 19 40  1  0  0  0  0
 20 22  2  0  0  0  0
 20 41  1  0  0  0  0
 21 49  1  0  0  0  0
 22 42  1  0  0  0  0
 23 52  1  0  0  0  0
 24 31  2  0  0  0  0
 24 58  1  0  0  0  0
 25 31  1  0  0  0  0
 25 69  1  0  0  0  0
 26 80  1  0  0  0  0
 27 81  1  0  0  0  0
 28 30  2  0  0  0  0
 28 80  1  0  0  0  0
 29 82  1  0  0  0  0
 30 83  1  0  0  0  0
 31 84  1  0  0  0  0
 32 63  2  0  0  0  0
 33 64  1  0  0  0  0
 33 67  1  0  0  0  0
 34 68  1  0  0  0  0
 34 74  2  0  0  0  0
 35 50  1  0  0  0  0
 35 70  1  0  0  0  0
 35 75  2  0  0  0  0
 36 60  1  0  0  0  0
 36 65  1  0  0  0  0
 36 76  2  0  0  0  0
 37 59  1  0  0  0  0
 37 71  1  0  0  0  0
 37 77  2  0  0  0  0
 38 61  1  0  0  0  0
 38 72  1  0  0  0  0
 38 78  2  0  0  0  0
 39 66  1  0  0  0  0
 39 69  1  0  0  0  0
 39 79  2  0  0  0  0
 40 43  1  0  0  0  0
 41 50  1  0  0  0  0
 42 65  1  0  0  0  0
 43 45  1  0  0  0  0
 44 46  1  0  0  0  0
 44 47  1  0  0  0  0
 45 49  1  0  0  0  0
 46 51  1  0  0  0  0
 47 66  1  0  0  0  0
 48 51  1  0  0  0  0
 48 66  1  0  0  0  0
 49 70  1  0  0  0  0
 50 65  1  0  0  0  0
 51 64  1  0  0  0  0
 53 61  1  0  0  0  0
 54 62  1  0  0  0  0
 55 62  1  0  0  0  0
 56 62  1  0  0  0  0
 57 73  1  0  0  0  0
 58 71  1  0  0  0  0
 59 81  1  0  0  0  0
 60 62  1  0  0  0  0
 60 72  1  0  0  0  0
 61 73  1  0  0  0  0
 63 64  1  0  0  0  0
M  CHG  1  73   1
M  ISO  4  39 100  59 101  69 100  81 101
M  END
> <Batch ID>
0053

> <Smiles>
CNC(C)C(=O)NC(C(=O)N1Cc2cc([101O:1][101CH2:1]C(=O)NCc3cc(C)cc([100NH:0][100C:0](=O)N4CCCC(n5nc(-c6ccc(Oc7ccc(F)cc7F)cc6)c(C(N)=O)c5N)C4)c3F)ccc2CC1C(=O)NC1CCCc2ccccc21)C(C)(C)C

> <Shape>
0.217

> <Color>
0.192

> <Negative vol penalty>
0.000

$$$$

  -OEChem-04042322433D

 82 90  0     1  0  0  0  0  0999 V2000
  -18.7543  -27.0561   26.0032 C   0  0  0  0  0  0  0  0  0  0  0  0
  -19.9874  -26.5667   25.5846 C   0  0  0  0  0  0  0  0  0  0  0  0
  -27.1802  -20.0208   17.2766 C   0  0  0  0  0  0  0  0  0  0  0  0
  -24.5067   -9.2460   21.1266 C   0  0  0  0  0  0  0  0  0  0  0  0
  -22.5339  -10.5476   20.6255 C   0  0  0  0  0  0  0  0  0  0  0  0
  -17.9992  -27.8606   25.1509 C   0  0  0  0  0  0  0  0  0  0  0  0
  -20.4657  -26.8807   24.3129 C   0  0  0  0  0  0  0  0  0  0  0  0
  -26.3005  -27.8051   22.6986 C   0  0  0  0  0  0  0  0  0  0  0  0
  -28.2504  -20.7922   17.7296 C   0  0  0  0  0  0  0  0  0  0  0  0
  -26.4897  -19.1961   18.1647 C   0  0  0  0  0  0  0  0  0  0  0  0
  -23.7049   -8.1413   21.4139 C   0  0  0  0  0  0  0  0  0  0  0  0
  -21.7321   -9.4429   20.9127 C   0  0  0  0  0  0  0  0  0  0  0  0
  -27.2498  -26.9791   22.0983 C   0  0  0  0  0  0  0  0  0  0  0  0
  -21.7893   -7.0538   23.9774 C   0  0  0  0  0  0  0  0  0  0  0  0
  -22.0833   -6.3221   25.1280 C   0  0  0  0  0  0  0  0  0  0  0  0
  -26.6958  -27.9169   19.9459 C   0  0  0  0  0  0  0  0  0  0  0  0
  -27.9396  -19.9141   19.9589 C   0  0  0  0  0  0  0  0  0  0  0  0
  -22.4520   -4.3510   23.7803 C   0  0  0  0  0  0  0  0  0  0  0  0
  -23.9212  -10.4491   20.7325 C   0  0  0  0  0  0  0  0  0  0  0  0
  -25.2974  -11.9421   19.1882 C   0  0  0  0  0  0  0  0  0  0  0  0
  -18.4727  -28.1926   23.8718 C   0  0  0  0  0  0  0  0  0  0  0  0
  -25.5328  -28.6869   21.9243 C   0  0  0  0  0  0  0  0  0  0  0  0
  -19.7155  -27.6894   23.4422 C   0  0  0  0  0  0  0  0  0  0  0  0
  -25.7392  -28.7548   20.5391 C   0  0  0  0  0  0  0  0  0  0  0  0
  -28.6301  -20.7389   19.0708 C   0  0  0  0  0  0  0  0  0  0  0  0
  -26.8694  -19.1427   19.5058 C   0  0  0  0  0  0  0  0  0  0  0  0
  -22.3177   -8.2398   21.3069 C   0  0  0  0  0  0  0  0  0  0  0  0
  -27.4455  -27.0328   20.7214 C   0  0  0  0  0  0  0  0  0  0  0  0
  -21.8265   -6.4340   22.7283 C   0  0  0  0  0  0  0  0  0  0  0  0
  -22.4147   -4.9708   25.0294 C   0  0  0  0  0  0  0  0  0  0  0  0
  -22.1578   -5.0827   22.6298 C   0  0  0  0  0  0  0  0  0  0  0  0
  -24.7488  -11.5908   20.4362 C   0  0  0  0  0  0  0  0  0  0  0  0
  -25.9969  -13.0983   19.4338 C   0  0  0  0  0  0  0  0  0  0  0  0
  -25.1847  -11.2823   17.9203 C   0  0  0  0  0  0  0  0  0  0  0  0
  -22.4303  -29.0214   21.3189 C   0  0  0  0  0  0  0  0  0  0  0  0
  -23.4182  -31.6967   19.7732 C   0  0  0  0  0  0  0  0  0  0  0  0
  -29.0684  -23.9458   19.7290 C   0  0  0  0  0  0  0  0  0  0  0  0
  -25.9407  -33.3636   18.1904 C   0  0  0  0  0  0  0  0  0  0  0  0
  -26.4146  -18.1354   21.7696 C   0  0  0  0  0  0  0  0  0  0  0  0
  -17.5995  -29.0267   22.9683 C   0  0  0  0  0  0  0  0  0  0  0  0
  -24.5316  -29.5904   22.5905 C   0  0  0  0  0  0  0  0  0  0  0  0
  -24.9551  -29.6988   19.6658 C   0  0  0  0  0  0  0  0  0  0  0  0
  -18.3471  -29.6208   21.7774 C   0  0  0  0  0  0  0  0  0  0  0  0
  -27.2390  -15.3315   23.8032 C   0  0  0  0  0  0  0  0  0  0  0  0
  -19.2170  -28.5602   21.1101 C   0  0  0  0  0  0  0  0  0  0  0  0
  -26.7098  -14.1372   23.0059 C   0  0  0  0  0  0  0  0  0  0  0  0
  -26.3226  -16.5475   23.6788 C   0  0  0  0  0  0  0  0  0  0  0  0
  -25.4781  -15.7546   21.5045 C   0  0  0  0  0  0  0  0  0  0  0  0
  -20.2795  -28.0283   22.0794 C   0  0  1  0  0  0  0  0  0  0  0  0
  -23.4450  -30.0823   21.6393 C   0  0  1  0  0  0  0  0  0  0  0  0
  -26.4013  -14.5260   21.5467 C   0  0  2  0  0  0  0  0  0  0  0  0
  -26.4359  -35.5160   16.9991 C   0  0  0  0  0  0  0  0  0  0  0  0
  -21.9235  -30.6778   17.3160 C   0  0  0  0  0  0  0  0  0  0  0  0
  -23.2105  -32.3238   15.9368 C   0  0  0  0  0  0  0  0  0  0  0  0
  -21.6860  -33.1312   17.7385 C   0  0  0  0  0  0  0  0  0  0  0  0
  -28.0109  -34.1161   20.1670 C   0  0  0  0  0  0  0  0  0  0  0  0
  -29.7820  -21.5695   19.5579 C   0  0  0  0  0  0  0  0  0  0  0  0
  -28.6246  -24.9677   20.7538 C   0  0  0  0  0  0  0  0  0  1  0  0
  -23.8658  -32.0153   18.3671 C   0  0  1  0  0  0  0  0  0  0  0  0
  -26.4532  -34.7854   18.3327 C   0  0  2  0  0  0  0  0  0  0  0  0
  -22.6850  -32.0177   17.3555 C   0  0  0  0  0  0  0  0  0  0  0  0
  -25.0721  -12.4539   21.4029 N   0  0  0  0  0  0  0  0  0  0  0  0
  -25.8315  -13.3589   20.7623 N   0  0  0  0  0  0  0  0  0  0  0  0
  -23.9835  -30.5574   20.3632 N   0  0  0  0  0  0  0  0  0  0  0  0
  -26.0783  -16.8593   22.2689 N   0  0  0  0  0  0  0  0  0  0  0  0
  -26.7312  -13.9073   18.6409 N   0  0  0  0  0  0  0  0  0  0  0  0
  -24.4281  -10.1050   17.8446 N   0  0  0  0  0  0  0  0  0  0  0  0
  -26.1673  -18.3053   20.4078 N   0  0  0  0  0  0  0  0  0  0  0  0
  -21.3692  -28.9726   22.2027 N   0  0  0  0  0  0  0  0  0  0  0  0
  -29.3388  -22.7184   20.3133 N   0  0  0  0  0  0  0  0  0  0  0  0
  -24.5882  -33.2804   18.4454 N   0  0  0  0  0  0  0  0  0  0  0  0
  -27.8512  -34.7828   18.8490 N   0  3  0  0  0  0  0  0  0  0  0  0
  -25.7521  -11.7147   16.8885 O   0  0  0  0  0  0  0  0  0  0  0  0
  -22.5970  -28.3015   20.3414 O   0  0  0  0  0  0  0  0  0  0  0  0
  -22.6026  -32.4357   20.3302 O   0  0  0  0  0  0  0  0  0  0  0  0
  -29.1681  -24.2046   18.5327 O   0  0  0  0  0  0  0  0  0  0  0  0
  -26.6667  -32.4217   17.8801 O   0  0  0  0  0  0  0  0  0  0  0  0
  -26.9125  -19.0038   22.4907 O   0  0  0  0  0  0  0  0  0  0  0  0
  -21.5350   -7.1620   21.5869 O   0  0  0  0  0  0  0  0  0  0  0  0
  -28.3710  -26.2272   20.1328 O   0  0  0  0  0  0  0  0  0  1  0  0
  -22.6986   -4.2687   26.1343 F   0  0  0  0  0  0  0  0  0  0  0  0
  -22.1964   -4.4822   21.4324 F   0  0  0  0  0  0  0  0  0  0  0  0
  1  2  1  0  0  0  0
  1  6  2  0  0  0  0
  2  7  2  0  0  0  0
  3  9  2  0  0  0  0
  3 10  1  0  0  0  0
  4 11  2  0  0  0  0
  4 19  1  0  0  0  0
  5 12  1  0  0  0  0
  5 19  2  0  0  0  0
  6 21  1  0  0  0  0
  7 23  1  0  0  0  0
  8 13  2  0  0  0  0
  8 22  1  0  0  0  0
  9 25  1  0  0  0  0
 10 26  2  0  0  0  0
 11 27  1  0  0  0  0
 12 27  2  0  0  0  0
 13 28  1  0  0  0  0
 14 15  2  0  0  0  0
 14 29  1  0  0  0  0
 15 30  1  0  0  0  0
 16 24  1  0  0  0  0
 16 28  2  0  0  0  0
 17 25  2  0  0  0  0
 17 26  1  0  0  0  0
 18 30  2  0  0  0  0
 18 31  1  0  0  0  0
 19 32  1  0  0  0  0
 20 32  1  0  0  0  0
 20 33  2  0  0  0  0
 20 34  1  0  0  0  0
 21 23  2  0  0  0  0
 21 40  1  0  0  0  0
 22 24  2  0  0  0  0
 22 41  1  0  0  0  0
 23 49  1  0  0  0  0
 24 42  1  0  0  0  0
 25 57  1  0  0  0  0
 26 68  1  0  0  0  0
 27 79  1  0  0  0  0
 28 80  1  0  0  0  0
 29 31  2  0  0  0  0
 29 79  1  0  0  0  0
 30 81  1  0  0  0  0
 31 82  1  0  0  0  0
 32 62  2  0  0  0  0
 33 63  1  0  0  0  0
 33 66  1  0  0  0  0
 34 67  1  0  0  0  0
 34 73  2  0  0  0  0
 35 50  1  0  0  0  0
 35 69  1  0  0  0  0
 35 74  2  0  0  0  0
 36 59  1  0  0  0  0
 36 64  1  0  0  0  0
 36 75  2  0  0  0  0
 37 58  1  0  0  0  0
 37 70  1  0  0  0  0
 37 76  2  0  0  0  0
 38 60  1  0  0  0  0
 38 71  1  0  0  0  0
 38 77  2  0  0  0  0
 39 65  1  0  0  0  0
 39 68  1  0  0  0  0
 39 78  2  0  0  0  0
 40 43  1  0  0  0  0
 41 50  1  0  0  0  0
 42 64  1  0  0  0  0
 43 45  1  0  0  0  0
 44 46  1  0  0  0  0
 44 47  1  0  0  0  0
 45 49  1  0  0  0  0
 46 51  1  0  0  0  0
 47 65  1  0  0  0  0
 48 51  1  0  0  0  0
 48 65  1  0  0  0  0
 49 69  1  0  0  0  0
 50 64  1  0  0  0  0
 51 63  1  0  0  0  0
 52 60  1  0  0  0  0
 53 61  1  0  0  0  0
 54 61  1  0  0  0  0
 55 61  1  0  0  0  0
 56 72  1  0  0  0  0
 57 70  1  0  0  0  0
 58 80  1  0  0  0  0
 59 61  1  0  0  0  0
 59 71  1  0  0  0  0
 60 72  1  0  0  0  0
 62 63  1  0  0  0  0
M  CHG  1  72   1
M  ISO  4  39 100  58 101  68 100  80 101
M  END
> <Batch ID>
0053

> <Smiles>
CNC(C)C(=O)NC(C(=O)N1Cc2cc([101O:1][101CH2:1]C(=O)NCc3cccc([100NH:0][100C:0](=O)N4CCCC(n5nc(-c6ccc(Oc7ccc(F)cc7F)cc6)c(C(N)=O)c5N)C4)c3)ccc2CC1C(=O)NC1CCCc2ccccc21)C(C)(C)C

> <Shape>
0.255

> <Color>
0.132

> <Negative vol penalty>
0.000

$$$$

  -OEChem-04042322433D

 89 98  0     1  0  0  0  0  0999 V2000
  -30.2935  -32.3073   25.3258 C   0  0  0  0  0  0  0  0  0  0  0  0
  -29.8649  -31.1225   24.7361 C   0  0  0  0  0  0  0  0  0  0  0  0
  -31.0814  -19.1344   21.8045 C   0  0  0  0  0  0  0  0  0  0  0  0
  -22.6604  -12.7185   20.8303 C   0  0  0  0  0  0  0  0  0  0  0  0
  -22.9117  -10.9161   19.2412 C   0  0  0  0  0  0  0  0  0  0  0  0
  -29.3592  -33.2160   25.8210 C   0  0  0  0  0  0  0  0  0  0  0  0
  -28.5016  -30.8451   24.6422 C   0  0  0  0  0  0  0  0  0  0  0  0
  -27.1901  -29.0677   20.0852 C   0  0  0  0  0  0  0  0  0  0  0  0
  -30.0135  -20.0104   21.6109 C   0  0  0  0  0  0  0  0  0  0  0  0
  -30.8862  -17.7587   21.6812 C   0  0  0  0  0  0  0  0  0  0  0  0
  -21.3965  -12.9996   20.3117 C   0  0  0  0  0  0  0  0  0  0  0  0
  -21.6477  -11.1971   18.7226 C   0  0  0  0  0  0  0  0  0  0  0  0
  -27.4735  -27.7290   19.8182 C   0  0  0  0  0  0  0  0  0  0  0  0
  -18.2667  -11.7442   20.5597 C   0  0  0  0  0  0  0  0  0  0  0  0
  -17.2301  -11.9699   21.4652 C   0  0  0  0  0  0  0  0  0  0  0  0
  -25.1791  -27.1548   20.2931 C   0  0  0  0  0  0  0  0  0  0  0  0
  -16.9152  -14.1847   20.5525 C   0  0  0  0  0  0  0  0  0  0  0  0
  -23.4181  -11.6768   20.2950 C   0  0  0  0  0  0  0  0  0  0  0  0
  -25.0350  -10.5028   21.8809 C   0  0  0  0  0  0  0  0  0  0  0  0
  -27.9834  -32.9540   25.7245 C   0  0  0  0  0  0  0  0  0  0  0  0
  -25.8995  -29.4591   20.4694 C   0  0  0  0  0  0  0  0  0  0  0  0
  -27.5480  -31.7505   25.1378 C   0  0  0  0  0  0  0  0  0  0  0  0
  -24.8813  -28.4994   20.5619 C   0  0  0  0  0  0  0  0  0  0  0  0
  -28.7502  -19.5109   21.2941 C   0  0  0  0  0  0  0  0  0  0  0  0
  -28.5550  -18.1352   21.1709 C   0  0  0  0  0  0  0  0  0  0  0  0
  -29.6230  -17.2591   21.3645 C   0  0  0  0  0  0  0  0  0  0  0  0
  -20.8901  -12.2389   19.2579 C   0  0  0  0  0  0  0  0  0  0  0  0
  -26.4687  -26.7719   19.9250 C   0  0  0  0  0  0  0  0  0  0  0  0
  -18.6277  -12.7387   19.6506 C   0  0  0  0  0  0  0  0  0  0  0  0
  -16.5543  -13.1901   21.4615 C   0  0  0  0  0  0  0  0  0  0  0  0
  -17.9519  -13.9589   19.6470 C   0  0  0  0  0  0  0  0  0  0  0  0
  -24.7241  -11.3863   20.8299 C   0  0  0  0  0  0  0  0  0  0  0  0
  -26.4006  -10.5831   22.0044 C   0  0  0  0  0  0  0  0  0  0  0  0
  -28.5948  -23.1273   17.9159 C   0  0  0  0  0  0  0  0  0  0  0  0
  -28.2133  -23.6662   19.0829 C   0  0  0  0  0  0  0  0  0  0  0  0
  -27.9648  -22.7811   20.2676 C   0  0  0  0  0  0  0  0  0  0  0  0
  -24.1671   -9.6827   22.6745 C   0  0  0  0  0  0  0  0  0  0  0  0
  -24.6426  -30.8119   23.0567 C   0  0  0  0  0  0  0  0  0  0  0  0
  -21.9510  -30.8600   21.2470 C   0  0  0  0  0  0  0  0  0  0  0  0
  -20.1863  -29.5357   18.6433 C   0  0  0  0  0  0  0  0  0  0  0  0
  -30.1686  -15.0813   20.2900 C   0  0  0  0  0  0  0  0  0  0  0  0
  -27.0125  -33.9446   26.3166 C   0  0  0  0  0  0  0  0  0  0  0  0
  -25.6036  -30.9110   20.7280 C   0  0  0  0  0  0  0  0  0  0  0  0
  -23.4745  -28.8709   20.9510 C   0  0  0  0  0  0  0  0  0  0  0  0
  -28.7240  -21.6582   17.6935 C   0  0  0  0  0  0  0  0  0  0  0  0
  -25.5754  -33.7477   25.8411 C   0  0  0  0  0  0  0  0  0  0  0  0
  -30.3536  -11.4876   19.4769 C   0  0  0  0  0  0  0  0  0  0  0  0
  -25.1872  -32.2742   25.9110 C   0  0  0  0  0  0  0  0  0  0  0  0
  -28.9343  -11.0002   19.7632 C   0  0  0  0  0  0  0  0  0  0  0  0
  -27.8394  -20.8827   18.6533 C   0  0  0  0  0  0  0  0  0  0  0  0
  -30.3740  -12.9504   19.0435 C   0  0  0  0  0  0  0  0  0  0  0  0
  -28.2791  -13.3831   20.2902 C   0  0  0  0  0  0  0  0  0  0  0  0
  -26.0770  -31.4252   24.9951 C   0  0  1  0  0  0  0  0  0  0  0  0
  -24.3775  -31.1229   21.6108 C   0  0  1  0  0  0  0  0  0  0  0  0
  -28.2294  -11.9248   20.7707 C   0  0  1  0  0  0  0  0  0  0  0  0
  -26.2565  -17.6198   22.0299 C   0  0  0  0  0  0  0  0  0  0  0  0
  -18.0015  -29.7581   17.4290 C   0  0  0  0  0  0  0  0  0  0  0  0
  -20.5336  -29.4318   23.5407 C   0  0  0  0  0  0  0  0  0  0  0  0
  -18.6945  -28.8449   21.9465 C   0  0  0  0  0  0  0  0  0  0  0  0
  -19.1917  -31.2374   22.4480 C   0  0  0  0  0  0  0  0  0  0  0  0
  -28.6816  -15.1299   22.2791 C   0  0  0  0  0  0  0  0  0  0  0  0
  -21.5370  -30.2120   16.0982 C   0  0  0  0  0  0  0  0  0  0  0  0
  -27.1978  -17.6040   20.8308 C   0  0  0  0  0  0  0  0  0  0  0  0
  -27.6181  -20.4759   21.0910 C   0  0  0  0  0  0  0  0  0  0  0  0
  -28.0813  -25.1437   19.2891 C   0  0  0  0  0  0  0  0  0  1  0  0
  -20.7998  -29.9107   21.0176 C   0  0  1  0  0  0  0  0  0  0  0  0
  -19.4585  -30.1906   17.4832 C   0  0  2  0  0  0  0  0  0  0  0  0
  -19.8318  -29.8486   22.2327 C   0  0  0  0  0  0  0  0  0  0  0  0
  -25.8051  -11.9841   20.3220 N   0  0  0  0  0  0  0  0  0  0  0  0
  -26.8086  -11.4754   21.0570 N   0  0  0  0  0  0  0  0  0  0  0  0
  -27.8887  -21.4133   20.0110 N   0  0  0  0  0  0  0  0  0  0  0  0
  -23.2365  -30.3023   21.1998 N   0  0  0  0  0  0  0  0  0  0  0  0
  -29.6583  -13.8011   19.9952 N   0  0  0  0  0  0  0  0  0  0  0  0
  -27.2801   -9.9770   22.8299 N   0  0  0  0  0  0  0  0  0  0  0  0
  -22.7903   -9.7206   22.4150 N   0  0  0  0  0  0  0  0  0  0  0  0
  -25.6593  -31.5621   23.6163 N   0  0  0  0  0  0  0  0  0  0  0  0
  -20.1679  -30.3290   19.7710 N   0  0  0  0  0  0  0  0  0  0  0  0
  -29.4442  -15.8317   21.2414 N   0  0  0  0  0  0  0  0  0  0  0  0
  -20.1060  -29.8239   16.1921 N   0  3  0  0  0  0  0  0  0  0  0  0
  -27.8446  -23.2874   21.3836 O   0  0  0  0  0  0  0  0  0  0  0  0
  -24.5979   -8.9508   23.5977 O   0  0  0  0  0  0  0  0  0  0  0  0
  -23.9734  -29.9558   23.6231 O   0  0  0  0  0  0  0  0  0  0  0  0
  -21.7185  -32.0538   21.4531 O   0  0  0  0  0  0  0  0  0  0  0  0
  -20.7149  -28.4294   18.5588 O   0  0  0  0  0  0  0  0  0  0  0  0
  -31.2053  -15.5068   19.7668 O   0  0  0  0  0  0  0  0  0  0  0  0
  -19.6566  -12.5127   18.7517 O   0  0  0  0  0  0  0  0  0  0  0  0
  -26.7428  -25.4644   19.6656 O   0  0  0  0  0  0  0  0  0  1  0  0
  -15.5577  -13.4062   22.3301 F   0  0  0  0  0  0  0  0  0  0  0  0
  -18.2934  -14.9176   18.7752 F   0  0  0  0  0  0  0  0  0  0  0  0
  1  2  1  0  0  0  0
  1  6  2  0  0  0  0
  2  7  2  0  0  0  0
  3  9  1  0  0  0  0
  3 10  2  0  0  0  0
  4 11  2  0  0  0  0
  4 18  1  0  0  0  0
  5 12  1  0  0  0  0
  5 18  2  0  0  0  0
  6 20  1  0  0  0  0
  7 22  1  0  0  0  0
  8 13  2  0  0  0  0
  8 21  1  0  0  0  0
  9 24  2  0  0  0  0
 10 26  1  0  0  0  0
 11 27  1  0  0  0  0
 12 27  2  0  0  0  0
 13 28  1  0  0  0  0
 14 15  2  0  0  0  0
 14 29  1  0  0  0  0
 15 30  1  0  0  0  0
 16 23  1  0  0  0  0
 16 28  2  0  0  0  0
 17 30  2  0  0  0  0
 17 31  1  0  0  0  0
 18 32  1  0  0  0  0
 19 32  1  0  0  0  0
 19 33  2  0  0  0  0
 19 37  1  0  0  0  0
 20 22  2  0  0  0  0
 20 42  1  0  0  0  0
 21 23  2  0  0  0  0
 21 43  1  0  0  0  0
 22 53  1  0  0  0  0
 23 44  1  0  0  0  0
 24 25  1  0  0  0  0
 24 64  1  0  0  0  0
 25 26  2  0  0  0  0
 25 63  1  0  0  0  0
 26 78  1  0  0  0  0
 27 86  1  0  0  0  0
 28 87  1  0  0  0  0
 29 31  2  0  0  0  0
 29 86  1  0  0  0  0
 30 88  1  0  0  0  0
 31 89  1  0  0  0  0
 32 69  2  0  0  0  0
 33 70  1  0  0  0  0
 33 74  1  0  0  0  0
 34 35  2  0  0  0  0
 34 45  1  0  0  0  0
 35 36  1  0  0  0  0
 35 65  1  0  0  0  0
 36 71  1  0  0  0  0
 36 80  2  0  0  0  0
 37 75  1  0  0  0  0
 37 81  2  0  0  0  0
 38 54  1  0  0  0  0
 38 76  1  0  0  0  0
 38 82  2  0  0  0  0
 39 66  1  0  0  0  0
 39 72  1  0  0  0  0
 39 83  2  0  0  0  0
 40 67  1  0  0  0  0
 40 77  1  0  0  0  0
 40 84  2  0  0  0  0
 41 73  1  0  0  0  0
 41 78  1  0  0  0  0
 41 85  2  0  0  0  0
 42 46  1  0  0  0  0
 43 54  1  0  0  0  0
 44 72  1  0  0  0  0
 45 50  1  0  0  0  0
 46 48  1  0  0  0  0
 47 49  1  0  0  0  0
 47 51  1  0  0  0  0
 48 53  1  0  0  0  0
 49 55  1  0  0  0  0
 50 71  1  0  0  0  0
 51 73  1  0  0  0  0
 52 55  1  0  0  0  0
 52 73  1  0  0  0  0
 53 76  1  0  0  0  0
 54 72  1  0  0  0  0
 55 70  1  0  0  0  0
 56 63  1  0  0  0  0
 57 67  1  0  0  0  0
 58 68  1  0  0  0  0
 59 68  1  0  0  0  0
 60 68  1  0  0  0  0
 61 78  1  0  0  0  0
 62 79  1  0  0  0  0
 64 71  1  0  0  0  0
 65 87  1  0  0  0  0
 66 68  1  0  0  0  0
 66 77  1  0  0  0  0
 67 79  1  0  0  0  0
 69 70  1  0  0  0  0
M  CHG  1  79   1
M  ISO  4  41 100  65 101  78 100  87 101
M  END
> <Batch ID>
0053

> <Smiles>
CCc1c(CN2CCC=C([101CH2:1][101O:1]c3ccc4c(c3)CN(C(=O)C(NC(=O)C(C)NC)C(C)(C)C)C(C(=O)NC3CCCc5ccccc53)C4)C2=O)cccc1[100N:0](C)[100C:0](=O)N1CCCC(n2nc(-c3ccc(Oc4ccc(F)cc4F)cc3)c(C(N)=O)c2N)C1

> <Shape>
0.305

> <Color>
0.079

> <Negative vol penalty>
0.000

$$$$

  -OEChem-04042322433D

 86 94  0     1  0  0  0  0  0999 V2000
  -29.0933   -7.9485   23.1163 C   0  0  0  0  0  0  0  0  0  0  0  0
  -28.0108   -8.8190   23.0384 C   0  0  0  0  0  0  0  0  0  0  0  0
  -24.9418  -31.3175   21.0553 C   0  0  0  0  0  0  0  0  0  0  0  0
  -24.6182  -29.8715   22.9635 C   0  0  0  0  0  0  0  0  0  0  0  0
  -30.3823   -8.4539   23.2801 C   0  0  0  0  0  0  0  0  0  0  0  0
  -28.2168  -10.1953   23.1253 C   0  0  0  0  0  0  0  0  0  0  0  0
  -25.5945  -12.7757   19.6453 C   0  0  0  0  0  0  0  0  0  0  0  0
  -22.0230  -21.0933   22.8177 C   0  0  0  0  0  0  0  0  0  0  0  0
  -22.7931  -21.9944   22.0825 C   0  0  0  0  0  0  0  0  0  0  0  0
  -24.3260  -32.3631   21.7431 C   0  0  0  0  0  0  0  0  0  0  0  0
  -24.0024  -30.9171   23.6514 C   0  0  0  0  0  0  0  0  0  0  0  0
  -24.2355  -12.9710   19.8876 C   0  0  0  0  0  0  0  0  0  0  0  0
  -25.1556  -34.5959   24.1429 C   0  0  0  0  0  0  0  0  0  0  0  0
  -25.7624  -35.8509   24.0930 C   0  0  0  0  0  0  0  0  0  0  0  0
  -21.6129  -21.3621   20.0714 C   0  0  0  0  0  0  0  0  0  0  0  0
  -24.7010  -15.2085   20.6598 C   0  0  0  0  0  0  0  0  0  0  0  0
  -23.7718  -36.7730   23.0808 C   0  0  0  0  0  0  0  0  0  0  0  0
  -25.0879  -30.0716   21.6655 C   0  0  0  0  0  0  0  0  0  0  0  0
  -20.8429  -20.4609   20.8067 C   0  0  0  0  0  0  0  0  0  0  0  0
  -27.0941  -28.6704   20.9451 C   0  0  0  0  0  0  0  0  0  0  0  0
  -30.6052   -9.8376   23.3594 C   0  0  0  0  0  0  0  0  0  0  0  0
  -26.5198  -13.7932   19.9192 C   0  0  0  0  0  0  0  0  0  0  0  0
  -29.5099  -10.7196   23.2917 C   0  0  0  0  0  0  0  0  0  0  0  0
  -26.0709  -15.0245   20.4177 C   0  0  0  0  0  0  0  0  0  0  0  0
  -21.0479  -20.3265   22.1798 C   0  0  0  0  0  0  0  0  0  0  0  0
  -22.5880  -22.1289   20.7094 C   0  0  0  0  0  0  0  0  0  0  0  0
  -23.8563  -32.1629   23.0411 C   0  0  0  0  0  0  0  0  0  0  0  0
  -23.7889  -14.1865   20.3977 C   0  0  0  0  0  0  0  0  0  0  0  0
  -23.8569  -34.4295   23.6617 C   0  0  0  0  0  0  0  0  0  0  0  0
  -25.0705  -36.9394   23.5619 C   0  0  0  0  0  0  0  0  0  0  0  0
  -23.1651  -35.5180   23.1307 C   0  0  0  0  0  0  0  0  0  0  0  0
  -25.7234  -28.9910   20.9553 C   0  0  0  0  0  0  0  0  0  0  0  0
  -27.1833  -27.5702   20.1276 C   0  0  0  0  0  0  0  0  0  0  0  0
  -19.8108  -19.6573   20.1023 C   0  0  0  0  0  0  0  0  0  0  0  0
  -28.1889  -29.3098   21.6147 C   0  0  0  0  0  0  0  0  0  0  0  0
  -29.0133  -14.0928   21.8676 C   0  0  0  0  0  0  0  0  0  0  0  0
  -29.3946  -16.9139   20.3125 C   0  0  0  0  0  0  0  0  0  0  0  0
  -27.9840  -19.4324   18.4920 C   0  0  0  0  0  0  0  0  0  0  0  0
  -23.2969  -23.2984   18.5937 C   0  0  0  0  0  0  0  0  0  0  0  0
  -32.0114  -10.3347   23.5839 C   0  0  0  0  0  0  0  0  0  0  0  0
  -27.9792  -13.5762   19.6271 C   0  0  0  0  0  0  0  0  0  0  0  0
  -27.0212  -16.1560   20.7095 C   0  0  0  0  0  0  0  0  0  0  0  0
  -32.1853  -11.8228   23.2913 C   0  0  0  0  0  0  0  0  0  0  0  0
  -25.0237  -25.4975   16.3894 C   0  0  0  0  0  0  0  0  0  0  0  0
  -31.0581  -12.6278   23.9302 C   0  0  0  0  0  0  0  0  0  0  0  0
  -25.5291  -26.6106   17.3101 C   0  0  0  0  0  0  0  0  0  0  0  0
  -23.6443  -24.9949   16.8115 C   0  0  0  0  0  0  0  0  0  0  0  0
  -24.0413  -25.6994   19.1385 C   0  0  0  0  0  0  0  0  0  0  0  0
  -29.6955  -12.2201   23.3570 C   0  0  1  0  0  0  0  0  0  0  0  0
  -28.8925  -14.5005   20.4265 C   0  0  1  0  0  0  0  0  0  0  0  0
  -25.4554  -26.1931   18.7920 C   0  0  2  0  0  0  0  0  0  0  0  0
  -20.2373  -19.3690   22.9911 C   0  0  0  0  0  0  0  0  0  0  0  0
  -28.5392  -21.6206   17.3962 C   0  0  0  0  0  0  0  0  0  0  0  0
  -29.4164  -18.2734   23.0440 C   0  0  0  0  0  0  0  0  0  0  0  0
  -29.0153  -20.4554   21.8836 C   0  0  0  0  0  0  0  0  0  0  0  0
  -31.0990  -19.1638   21.4221 C   0  0  0  0  0  0  0  0  0  0  0  0
  -27.2444  -18.4117   15.8142 C   0  0  0  0  0  0  0  0  0  0  0  0
  -20.4951  -15.8489   19.0741 C   0  0  0  0  0  0  0  0  0  0  0  0
  -19.1837  -16.6225   18.9084 C   0  0  0  0  0  0  0  0  0  0  0  0
  -20.2502  -14.4654   19.6736 C   0  0  0  0  0  0  0  0  0  0  0  0
  -19.3917  -18.0051   18.2993 C   0  0  0  0  0  0  0  0  0  0  0  0
  -21.5441  -13.6727   19.8037 C   0  0  0  0  0  0  0  0  0  1  0  0
  -28.8934  -18.3232   20.5161 C   0  0  1  0  0  0  0  0  0  0  0  0
  -28.4226  -20.1159   17.2094 C   0  0  2  0  0  0  0  0  0  0  0  0
  -29.5881  -19.0321   21.7129 C   0  0  0  0  0  0  0  0  0  0  0  0
  -24.9942  -28.1617   20.2039 N   0  0  0  0  0  0  0  0  0  0  0  0
  -25.9102  -27.3091   19.7138 N   0  0  0  0  0  0  0  0  0  0  0  0
  -28.4391  -15.8928   20.4132 N   0  0  0  0  0  0  0  0  0  0  0  0
  -23.6514  -24.6135   18.2255 N   0  0  0  0  0  0  0  0  0  0  0  0
  -28.2258  -26.8104   19.7296 N   0  0  0  0  0  0  0  0  0  0  0  0
  -27.9207  -30.4282   22.4157 N   0  0  0  0  0  0  0  0  0  0  0  0
  -23.3719  -23.0429   19.9625 N   0  0  0  0  0  0  0  0  0  0  0  0
  -20.2696  -18.8250   19.0874 N   0  0  0  0  0  0  0  0  0  0  0  0
  -29.4989  -12.8122   22.0512 N   0  0  0  0  0  0  0  0  0  0  0  0
  -29.0624  -19.0053   19.2376 N   0  0  0  0  0  0  0  0  0  0  0  0
  -27.4404  -19.8522   16.1200 N   0  3  0  0  0  0  0  0  0  0  0  0
  -18.6322  -19.7779   20.4261 O   0  0  0  0  0  0  0  0  0  0  0  0
  -29.3721  -28.9113   21.4928 O   0  0  0  0  0  0  0  0  0  0  0  0
  -28.6913  -14.8822   22.7479 O   0  0  0  0  0  0  0  0  0  0  0  0
  -30.5886  -16.7264   20.0658 O   0  0  0  0  0  0  0  0  0  0  0  0
  -26.8030  -19.2946   18.8031 O   0  0  0  0  0  0  0  0  0  0  0  0
  -22.9783  -22.4529   17.7538 O   0  0  0  0  0  0  0  0  0  0  0  0
  -23.2556  -33.1831   23.7127 O   0  0  0  0  0  0  0  0  0  0  0  0
  -22.4630  -14.3796   20.6357 O   0  0  0  0  0  0  0  0  0  1  0  0
  -25.6528  -38.1448   23.5155 F   0  0  0  0  0  0  0  0  0  0  0  0
  -21.9168  -35.3646   22.6679 F   0  0  0  0  0  0  0  0  0  0  0  0
  1  2  1  0  0  0  0
  1  5  2  0  0  0  0
  2  6  2  0  0  0  0
  3 10  2  0  0  0  0
  3 18  1  0  0  0  0
  4 11  1  0  0  0  0
  4 18  2  0  0  0  0
  5 21  1  0  0  0  0
  6 23  1  0  0  0  0
  7 12  2  0  0  0  0
  7 22  1  0  0  0  0
  8  9  2  0  0  0  0
  8 25  1  0  0  0  0
  9 26  1  0  0  0  0
 10 27  1  0  0  0  0
 11 27  2  0  0  0  0
 12 28  1  0  0  0  0
 13 14  2  0  0  0  0
 13 29  1  0  0  0  0
 14 30  1  0  0  0  0
 15 19  1  0  0  0  0
 15 26  2  0  0  0  0
 16 24  1  0  0  0  0
 16 28  2  0  0  0  0
 17 30  2  0  0  0  0
 17 31  1  0  0  0  0
 18 32  1  0  0  0  0
 19 25  2  0  0  0  0
 19 34  1  0  0  0  0
 20 32  1  0  0  0  0
 20 33  2  0  0  0  0
 20 35  1  0  0  0  0
 21 23  2  0  0  0  0
 21 40  1  0  0  0  0
 22 24  2  0  0  0  0
 22 41  1  0  0  0  0
 23 49  1  0  0  0  0
 24 42  1  0  0  0  0
 25 52  1  0  0  0  0
 26 72  1  0  0  0  0
 27 83  1  0  0  0  0
 28 84  1  0  0  0  0
 29 31  2  0  0  0  0
 29 83  1  0  0  0  0
 30 85  1  0  0  0  0
 31 86  1  0  0  0  0
 32 66  2  0  0  0  0
 33 67  1  0  0  0  0
 33 70  1  0  0  0  0
 34 73  1  0  0  0  0
 34 77  2  0  0  0  0
 35 71  1  0  0  0  0
 35 78  2  0  0  0  0
 36 50  1  0  0  0  0
 36 74  1  0  0  0  0
 36 79  2  0  0  0  0
 37 63  1  0  0  0  0
 37 68  1  0  0  0  0
 37 80  2  0  0  0  0
 38 64  1  0  0  0  0
 38 75  1  0  0  0  0
 38 81  2  0  0  0  0
 39 69  1  0  0  0  0
 39 72  1  0  0  0  0
 39 82  2  0  0  0  0
 40 43  1  0  0  0  0
 41 50  1  0  0  0  0
 42 68  1  0  0  0  0
 43 45  1  0  0  0  0
 44 46  1  0  0  0  0
 44 47  1  0  0  0  0
 45 49  1  0  0  0  0
 46 51  1  0  0  0  0
 47 69  1  0  0  0  0
 48 51  1  0  0  0  0
 48 69  1  0  0  0  0
 49 74  1  0  0  0  0
 50 68  1  0  0  0  0
 51 67  1  0  0  0  0
 53 64  1  0  0  0  0
 54 65  1  0  0  0  0
 55 65  1  0  0  0  0
 56 65  1  0  0  0  0
 57 76  1  0  0  0  0
 58 59  1  0  0  0  0
 58 60  1  0  0  0  0
 59 61  1  0  0  0  0
 60 62  1  0  0  0  0
 61 73  1  0  0  0  0
 62 84  1  0  0  0  0
 63 65  1  0  0  0  0
 63 75  1  0  0  0  0
 64 76  1  0  0  0  0
 66 67  1  0  0  0  0
M  CHG  1  76   1
M  ISO  4  39 100  62 101  72 100  84 101
M  END
> <Batch ID>
0053

> <Smiles>
CNC(C)C(=O)NC(C(=O)N1Cc2cc([101O:1][101CH2:1]CCCCNC(=O)c3cc([100NH:0][100C:0](=O)N4CCCC(n5nc(-c6ccc(Oc7ccc(F)cc7F)cc6)c(C(N)=O)c5N)C4)ccc3C)ccc2CC1C(=O)NC1CCCc2ccccc21)C(C)(C)C

> <Shape>
0.217

> <Color>
0.069

> <Negative vol penalty>
0.000

$$$$

  -OEChem-04042322433D

 86 94  0     1  0  0  0  0  0999 V2000
  -17.6747  -25.2085   25.1413 C   0  0  0  0  0  0  0  0  0  0  0  0
  -19.0329  -24.9075   25.1390 C   0  0  0  0  0  0  0  0  0  0  0  0
  -30.8527  -19.4413   21.0824 C   0  0  0  0  0  0  0  0  0  0  0  0
  -23.3246   -9.6878   19.9085 C   0  0  0  0  0  0  0  0  0  0  0  0
  -23.5512  -10.0267   22.2899 C   0  0  0  0  0  0  0  0  0  0  0  0
  -29.9199  -20.2959   21.6699 C   0  0  0  0  0  0  0  0  0  0  0  0
  -17.2112  -26.3390   24.4697 C   0  0  0  0  0  0  0  0  0  0  0  0
  -19.9284  -25.7363   24.4640 C   0  0  0  0  0  0  0  0  0  0  0  0
  -24.0927  -26.7134   27.1749 C   0  0  0  0  0  0  0  0  0  0  0  0
  -30.7286  -18.0606   21.2379 C   0  0  0  0  0  0  0  0  0  0  0  0
  -22.5914   -8.5247   20.1438 C   0  0  0  0  0  0  0  0  0  0  0  0
  -22.8180   -8.8637   22.5252 C   0  0  0  0  0  0  0  0  0  0  0  0
  -25.0662  -25.7168   27.2280 C   0  0  0  0  0  0  0  0  0  0  0  0
  -23.3618   -5.5269   22.4947 C   0  0  0  0  0  0  0  0  0  0  0  0
  -23.8425   -4.6419   23.4597 C   0  0  0  0  0  0  0  0  0  0  0  0
  -26.3397  -26.8794   25.5411 C   0  0  0  0  0  0  0  0  0  0  0  0
  -21.7967   -4.9032   24.7182 C   0  0  0  0  0  0  0  0  0  0  0  0
  -23.8045  -10.4388   20.9816 C   0  0  0  0  0  0  0  0  0  0  0  0
  -28.8631  -19.7700   22.4129 C   0  0  0  0  0  0  0  0  0  0  0  0
  -24.0610  -12.9482   20.6009 C   0  0  0  0  0  0  0  0  0  0  0  0
  -18.1026  -27.1874   23.7943 C   0  0  0  0  0  0  0  0  0  0  0  0
  -24.2302  -27.7967   26.2952 C   0  0  0  0  0  0  0  0  0  0  0  0
  -19.4762  -26.8785   23.7816 C   0  0  0  0  0  0  0  0  0  0  0  0
  -25.3677  -27.8898   25.4806 C   0  0  0  0  0  0  0  0  0  0  0  0
  -28.7389  -18.3893   22.5684 C   0  0  0  0  0  0  0  0  0  0  0  0
  -29.6717  -17.5347   21.9809 C   0  0  0  0  0  0  0  0  0  0  0  0
  -22.3381   -8.1127   21.4521 C   0  0  0  0  0  0  0  0  0  0  0  0
  -26.1885  -25.7982   26.4089 C   0  0  0  0  0  0  0  0  0  0  0  0
  -22.0986   -6.1001   22.6414 C   0  0  0  0  0  0  0  0  0  0  0  0
  -23.0599   -4.3300   24.5715 C   0  0  0  0  0  0  0  0  0  0  0  0
  -21.3161   -5.7882   23.7532 C   0  0  0  0  0  0  0  0  0  0  0  0
  -24.5624  -11.6400   20.7392 C   0  0  0  0  0  0  0  0  0  0  0  0
  -25.1751  -13.7220   20.3857 C   0  0  0  0  0  0  0  0  0  0  0  0
  -27.8856  -20.7063   23.0251 C   0  0  0  0  0  0  0  0  0  0  0  0
  -22.7090  -13.4215   20.6618 C   0  0  0  0  0  0  0  0  0  0  0  0
  -22.5649  -28.9061   23.8255 C   0  0  0  0  0  0  0  0  0  0  0  0
  -24.6987  -31.3443   23.9817 C   0  0  0  0  0  0  0  0  0  0  0  0
  -27.7850  -32.4361   24.9460 C   0  0  0  0  0  0  0  0  0  0  0  0
  -30.4162  -15.1587   21.5981 C   0  0  0  0  0  0  0  0  0  0  0  0
  -17.5490  -28.3720   23.0427 C   0  0  0  0  0  0  0  0  0  0  0  0
  -23.1842  -28.8772   26.2692 C   0  0  0  0  0  0  0  0  0  0  0  0
  -25.5726  -29.0428   24.5335 C   0  0  0  0  0  0  0  0  0  0  0  0
  -18.6089  -29.4041   22.6664 C   0  0  0  0  0  0  0  0  0  0  0  0
  -29.9596  -12.4029   19.3903 C   0  0  0  0  0  0  0  0  0  0  0  0
  -19.8334  -28.7183   22.0689 C   0  0  0  0  0  0  0  0  0  0  0  0
  -28.4735  -12.0664   19.5330 C   0  0  0  0  0  0  0  0  0  0  0  0
  -30.5725  -12.8394   20.7198 C   0  0  0  0  0  0  0  0  0  0  0  0
  -28.3769  -13.5922   21.5454 C   0  0  0  0  0  0  0  0  0  0  0  0
  -20.4818  -27.7667   23.0816 C   0  0  1  0  0  0  0  0  0  0  0  0
  -23.1764  -29.6700   24.9658 C   0  0  1  0  0  0  0  0  0  0  0  0
  -27.7001  -13.2096   20.2190 C   0  0  2  0  0  0  0  0  0  0  0  0
  -27.6043  -17.8262   23.3665 C   0  0  0  0  0  0  0  0  0  0  0  0
  -29.2578  -34.4674   24.9039 C   0  0  0  0  0  0  0  0  0  0  0  0
  -25.2828  -30.8566   21.0268 C   0  0  0  0  0  0  0  0  0  0  0  0
  -27.3690  -32.2161   21.2865 C   0  0  0  0  0  0  0  0  0  0  0  0
  -25.1408  -33.2670   21.6782 C   0  0  0  0  0  0  0  0  0  0  0  0
  -29.0673  -22.6333   26.6750 C   0  0  0  0  0  0  0  0  0  0  0  0
  -27.1190  -21.0530   26.6031 C   0  0  0  0  0  0  0  0  0  0  0  0
  -27.9049  -32.5531   27.9008 C   0  0  0  0  0  0  0  0  0  0  0  0
  -27.5802  -22.5768   24.6264 C   0  0  0  0  0  0  0  0  0  0  0  0
  -26.7072  -23.5105   26.8004 C   0  0  0  0  0  0  0  0  0  1  0  0
  -26.0504  -31.6229   23.3698 C   0  0  1  0  0  0  0  0  0  0  0  0
  -28.2243  -33.6811   25.6953 C   0  0  2  0  0  0  0  0  0  0  0  0
  -25.9562  -31.9678   21.8567 C   0  0  0  0  0  0  0  0  0  0  0  0
  -27.6258  -22.4400   26.1671 C   0  0  0  0  0  0  0  0  0  0  0  0
  -25.8916  -11.5822   20.6215 N   0  0  0  0  0  0  0  0  0  0  0  0
  -26.2349  -12.8637   20.4069 N   0  0  0  0  0  0  0  0  0  0  0  0
  -24.5188  -30.0709   24.5400 N   0  0  0  0  0  0  0  0  0  0  0  0
  -29.7897  -13.9279   21.3089 N   0  0  0  0  0  0  0  0  0  0  0  0
  -25.3419  -15.0460   20.1821 N   0  0  0  0  0  0  0  0  0  0  0  0
  -21.6853  -12.4920   20.8907 N   0  0  0  0  0  0  0  0  0  0  0  0
  -29.5649  -16.1292   22.1253 N   0  0  0  0  0  0  0  0  0  0  0  0
  -28.4030  -21.6221   23.9330 N   0  0  0  0  0  0  0  0  0  0  0  0
  -21.2596  -28.5114   24.0486 N   0  0  0  0  0  0  0  0  0  0  0  0
  -26.6594  -32.6689   24.1843 N   0  0  0  0  0  0  0  0  0  0  0  0
  -28.8208  -33.3111   27.0099 N   0  3  0  0  0  0  0  0  0  0  0  0
  -26.6982  -20.6155   22.7242 O   0  0  0  0  0  0  0  0  0  0  0  0
  -22.4157  -14.6305   20.5010 O   0  0  0  0  0  0  0  0  0  0  0  0
  -23.2278  -28.6921   22.8173 O   0  0  0  0  0  0  0  0  0  0  0  0
  -23.8367  -32.2266   23.9711 O   0  0  0  0  0  0  0  0  0  0  0  0
  -28.3828  -31.3652   25.0254 O   0  0  0  0  0  0  0  0  0  0  0  0
  -31.6134  -15.3473   21.3678 O   0  0  0  0  0  0  0  0  0  0  0  0
  -21.6225   -6.9779   21.6820 O   0  0  0  0  0  0  0  0  0  0  0  0
  -27.1400  -24.8266   26.4583 O   0  0  0  0  0  0  0  0  0  1  0  0
  -23.5210   -3.4789   25.4974 F   0  0  0  0  0  0  0  0  0  0  0  0
  -20.1013   -6.3349   23.8990 F   0  0  0  0  0  0  0  0  0  0  0  0
  1  2  1  0  0  0  0
  1  7  2  0  0  0  0
  2  8  2  0  0  0  0
  3  6  2  0  0  0  0
  3 10  1  0  0  0  0
  4 11  2  0  0  0  0
  4 18  1  0  0  0  0
  5 12  1  0  0  0  0
  5 18  2  0  0  0  0
  6 19  1  0  0  0  0
  7 21  1  0  0  0  0
  8 23  1  0  0  0  0
  9 13  2  0  0  0  0
  9 22  1  0  0  0  0
 10 26  2  0  0  0  0
 11 27  1  0  0  0  0
 12 27  2  0  0  0  0
 13 28  1  0  0  0  0
 14 15  2  0  0  0  0
 14 29  1  0  0  0  0
 15 30  1  0  0  0  0
 16 24  1  0  0  0  0
 16 28  2  0  0  0  0
 17 30  2  0  0  0  0
 17 31  1  0  0  0  0
 18 32  1  0  0  0  0
 19 25  2  0  0  0  0
 19 34  1  0  0  0  0
 20 32  1  0  0  0  0
 20 33  2  0  0  0  0
 20 35  1  0  0  0  0
 21 23  2  0  0  0  0
 21 40  1  0  0  0  0
 22 24  2  0  0  0  0
 22 41  1  0  0  0  0
 23 49  1  0  0  0  0
 24 42  1  0  0  0  0
 25 26  1  0  0  0  0
 25 52  1  0  0  0  0
 26 72  1  0  0  0  0
 27 83  1  0  0  0  0
 28 84  1  0  0  0  0
 29 31  2  0  0  0  0
 29 83  1  0  0  0  0
 30 85  1  0  0  0  0
 31 86  1  0  0  0  0
 32 66  2  0  0  0  0
 33 67  1  0  0  0  0
 33 70  1  0  0  0  0
 34 73  1  0  0  0  0
 34 77  2  0  0  0  0
 35 71  1  0  0  0  0
 35 78  2  0  0  0  0
 36 50  1  0  0  0  0
 36 74  1  0  0  0  0
 36 79  2  0  0  0  0
 37 62  1  0  0  0  0
 37 68  1  0  0  0  0
 37 80  2  0  0  0  0
 38 63  1  0  0  0  0
 38 75  1  0  0  0  0
 38 81  2  0  0  0  0
 39 69  1  0  0  0  0
 39 72  1  0  0  0  0
 39 82  2  0  0  0  0
 40 43  1  0  0  0  0
 41 50  1  0  0  0  0
 42 68  1  0  0  0  0
 43 45  1  0  0  0  0
 44 46  1  0  0  0  0
 44 47  1  0  0  0  0
 45 49  1  0  0  0  0
 46 51  1  0  0  0  0
 47 69  1  0  0  0  0
 48 51  1  0  0  0  0
 48 69  1  0  0  0  0
 49 74  1  0  0  0  0
 50 68  1  0  0  0  0
 51 67  1  0  0  0  0
 53 63  1  0  0  0  0
 54 64  1  0  0  0  0
 55 64  1  0  0  0  0
 56 64  1  0  0  0  0
 57 65  1  0  0  0  0
 58 65  1  0  0  0  0
 59 76  1  0  0  0  0
 60 65  1  0  0  0  0
 60 73  1  0  0  0  0
 61 65  1  0  0  0  0
 61 84  1  0  0  0  0
 62 64  1  0  0  0  0
 62 75  1  0  0  0  0
 63 76  1  0  0  0  0
 66 67  1  0  0  0  0
M  CHG  1  76   1
M  ISO  4  39 100  61 101  72 100  84 101
M  END
> <Batch ID>
0053

> <Smiles>
CNC(C)C(=O)NC(C(=O)N1Cc2cc([101O:1][101CH2:1]C(C)(C)CNC(=O)c3cccc([100NH:0][100C:0](=O)N4CCCC(n5nc(-c6ccc(Oc7ccc(F)cc7F)cc6)c(C(N)=O)c5N)C4)c3C)ccc2CC1C(=O)NC1CCCc2ccccc21)C(C)(C)C

> <Shape>
0.305

> <Color>
0.219

> <Negative vol penalty>
0.000

$$$$

  -OEChem-04042322433D

 91100  0     1  0  0  0  0  0999 V2000
  -28.4242  -37.6484   20.7928 C   0  0  0  0  0  0  0  0  0  0  0  0
  -28.8174  -36.3523   20.4752 C   0  0  0  0  0  0  0  0  0  0  0  0
  -25.7167   -8.9476   21.9842 C   0  0  0  0  0  0  0  0  0  0  0  0
  -26.7566  -10.7023   23.2791 C   0  0  0  0  0  0  0  0  0  0  0  0
  -27.4973  -37.8646   21.8116 C   0  0  0  0  0  0  0  0  0  0  0  0
  -28.2847  -35.2716   21.1771 C   0  0  0  0  0  0  0  0  0  0  0  0
  -27.0150  -29.7064   18.9584 C   0  0  0  0  0  0  0  0  0  0  0  0
  -26.2694   -7.9914   22.8361 C   0  0  0  0  0  0  0  0  0  0  0  0
  -27.3092   -9.7460   24.1311 C   0  0  0  0  0  0  0  0  0  0  0  0
  -27.7130  -28.5001   18.9956 C   0  0  0  0  0  0  0  0  0  0  0  0
  -25.6306   -6.7223   25.9044 C   0  0  0  0  0  0  0  0  0  0  0  0
  -24.8027   -5.6890   26.3428 C   0  0  0  0  0  0  0  0  0  0  0  0
  -26.4307  -27.8246   20.9240 C   0  0  0  0  0  0  0  0  0  0  0  0
  -29.1487  -19.1117   20.5629 C   0  0  0  0  0  0  0  0  0  0  0  0
  -27.6899  -18.5278   22.3982 C   0  0  0  0  0  0  0  0  0  0  0  0
  -26.2804   -4.0723   25.3231 C   0  0  0  0  0  0  0  0  0  0  0  0
  -25.9604  -10.3031   22.2056 C   0  0  0  0  0  0  0  0  0  0  0  0
  -24.0240  -11.5163   21.0715 C   0  0  0  0  0  0  0  0  0  0  0  0
  -26.9457  -36.7854   22.5199 C   0  0  0  0  0  0  0  0  0  0  0  0
  -26.0255  -29.9859   19.9119 C   0  0  0  0  0  0  0  0  0  0  0  0
  -27.3506  -35.4736   22.2073 C   0  0  0  0  0  0  0  0  0  0  0  0
  -25.7198  -29.0341   20.8951 C   0  0  0  0  0  0  0  0  0  0  0  0
  -29.7360  -20.1055   21.3459 C   0  0  0  0  0  0  0  0  0  0  0  0
  -28.2772  -19.5216   23.1812 C   0  0  0  0  0  0  0  0  0  0  0  0
  -29.3003  -20.3104   22.6550 C   0  0  0  0  0  0  0  0  0  0  0  0
  -28.1256  -18.3229   21.0890 C   0  0  0  0  0  0  0  0  0  0  0  0
  -27.0655   -8.3906   23.9096 C   0  0  0  0  0  0  0  0  0  0  0  0
  -27.4229  -27.5602   19.9803 C   0  0  0  0  0  0  0  0  0  0  0  0
  -26.7834   -6.4307   25.1752 C   0  0  0  0  0  0  0  0  0  0  0  0
  -25.1276   -4.3640   26.0522 C   0  0  0  0  0  0  0  0  0  0  0  0
  -27.1083   -5.1057   24.8845 C   0  0  0  0  0  0  0  0  0  0  0  0
  -25.3903  -11.2914   21.3256 C   0  0  0  0  0  0  0  0  0  0  0  0
  -24.0084  -12.5546   20.1725 C   0  0  0  0  0  0  0  0  0  0  0  0
  -30.9956  -23.3906   20.9665 C   0  0  0  0  0  0  0  0  0  0  0  0
  -22.8720  -10.8467   21.6008 C   0  0  0  0  0  0  0  0  0  0  0  0
  -25.6375  -32.2000   22.1593 C   0  0  0  0  0  0  0  0  0  0  0  0
  -22.7243  -30.8094   22.4774 C   0  0  0  0  0  0  0  0  0  0  0  0
  -20.7761  -28.0380   22.0638 C   0  0  0  0  0  0  0  0  0  0  0  0
  -27.8443  -16.9777   18.9777 C   0  0  0  0  0  0  0  0  0  0  0  0
  -25.9827  -37.0716   23.6448 C   0  0  0  0  0  0  0  0  0  0  0  0
  -25.2630  -31.2806   19.8419 C   0  0  0  0  0  0  0  0  0  0  0  0
  -24.6524  -29.2772   21.9296 C   0  0  0  0  0  0  0  0  0  0  0  0
  -30.4157  -24.7476   20.6150 C   0  0  0  0  0  0  0  0  0  0  0  0
  -25.1839  -35.8488   24.0886 C   0  0  0  0  0  0  0  0  0  0  0  0
  -26.6342  -14.5325   16.6900 C   0  0  0  0  0  0  0  0  0  0  0  0
  -26.1028  -34.6429   24.2564 C   0  0  0  0  0  0  0  0  0  0  0  0
  -26.0481  -13.4471   17.5959 C   0  0  0  0  0  0  0  0  0  0  0  0
  -28.7274  -23.6927   19.1499 C   0  0  0  0  0  0  0  0  0  0  0  0
  -27.8939  -15.1536   17.2910 C   0  0  0  0  0  0  0  0  0  0  0  0
  -29.4241  -22.3514   19.2948 C   0  0  0  0  0  0  0  0  0  0  0  0
  -27.1586  -14.5703   19.5688 C   0  0  0  0  0  0  0  0  0  0  0  0
  -26.7766  -34.2738   22.9292 C   0  0  1  0  0  0  0  0  0  0  0  0
  -24.6322  -31.6752   21.1737 C   0  0  1  0  0  0  0  0  0  0  0  0
  -29.7540  -24.8136   19.2448 C   0  0  1  0  0  0  0  0  0  0  0  0
  -25.8518  -13.9604   19.0359 C   0  0  2  0  0  0  0  0  0  0  0  0
  -29.9306  -21.3758   23.4946 C   0  0  0  0  0  0  0  0  0  0  0  0
  -18.4454  -27.1926   22.4520 C   0  0  0  0  0  0  0  0  0  0  0  0
  -28.5663  -18.8636   25.5775 C   0  0  0  0  0  0  0  0  0  0  0  0
  -23.3316  -30.5083   25.4524 C   0  0  0  0  0  0  0  0  0  0  0  0
  -21.4565  -28.8557   25.5968 C   0  0  0  0  0  0  0  0  0  0  0  0
  -20.9895  -31.2142   24.9320 C   0  0  0  0  0  0  0  0  0  0  0  0
  -20.3412  -27.5670   19.1745 C   0  0  0  0  0  0  0  0  0  0  0  0
  -30.8348  -20.9411   20.7556 C   0  0  0  0  0  0  0  0  0  0  0  0
  -29.1012  -26.1751   19.0205 C   0  0  0  0  0  0  0  0  0  1  0  0
  -22.1646  -29.6772   23.3045 C   0  0  1  0  0  0  0  0  0  0  0  0
  -19.3920  -27.8597   21.4663 C   0  0  2  0  0  0  0  0  0  0  0  0
  -27.7924  -19.7207   24.5799 C   0  0  0  0  0  0  0  0  0  0  0  0
  -22.0071  -30.0598   24.8032 C   0  0  0  0  0  0  0  0  0  0  0  0
  -26.1850  -12.1200   20.6431 N   0  0  0  0  0  0  0  0  0  0  0  0
  -25.3154  -12.8757   19.9512 N   0  0  0  0  0  0  0  0  0  0  0  0
  -30.3742  -22.2778   20.4039 N   0  0  0  0  0  0  0  0  0  0  0  0
  -23.9391  -30.5607   21.8231 N   0  0  0  0  0  0  0  0  0  0  0  0
  -27.6313  -15.6211   18.6538 N   0  0  0  0  0  0  0  0  0  0  0  0
  -23.0044  -13.2151   19.5576 N   0  0  0  0  0  0  0  0  0  0  0  0
  -23.0676   -9.8015   22.5138 N   0  0  0  0  0  0  0  0  0  0  0  0
  -27.5295  -17.3125   20.2943 N   0  0  0  0  0  0  0  0  0  0  0  0
  -25.8513  -33.5625   22.0734 N   0  0  0  0  0  0  0  0  0  0  0  0
  -20.9211  -29.2744   22.6567 N   0  0  0  0  0  0  0  0  0  0  0  0
  -19.4623  -27.0176   20.2388 N   0  3  0  0  0  0  0  0  0  0  0  0
  -31.9209  -23.3286   21.7809 O   0  0  0  0  0  0  0  0  0  0  0  0
  -21.7045  -11.1550   21.2613 O   0  0  0  0  0  0  0  0  0  0  0  0
  -26.1781  -31.4264   22.9409 O   0  0  0  0  0  0  0  0  0  0  0  0
  -22.1027  -31.8726   22.4085 O   0  0  0  0  0  0  0  0  0  0  0  0
  -21.6409  -27.1661   22.0131 O   0  0  0  0  0  0  0  0  0  0  0  0
  -28.2484  -17.7890   18.1407 O   0  0  0  0  0  0  0  0  0  0  0  0
  -27.6048   -7.4577   24.7412 O   0  0  0  0  0  0  0  0  0  0  0  0
  -28.1032  -26.3822   20.0193 O   0  0  0  0  0  0  0  0  0  1  0  0
  -24.3332   -3.3716   26.4747 F   0  0  0  0  0  0  0  0  0  0  0  0
  -28.2151   -4.8193   24.1854 F   0  0  0  0  0  0  0  0  0  0  0  0
  -26.4644  -19.4170   24.7332 F   0  0  0  0  0  0  0  0  0  0  0  0
  -27.8956  -21.0212   25.0009 F   0  0  0  0  0  0  0  0  0  0  0  0
  1  2  1  0  0  0  0
  1  5  2  0  0  0  0
  2  6  2  0  0  0  0
  3  8  2  0  0  0  0
  3 17  1  0  0  0  0
  4  9  1  0  0  0  0
  4 17  2  0  0  0  0
  5 19  1  0  0  0  0
  6 21  1  0  0  0  0
  7 10  2  0  0  0  0
  7 20  1  0  0  0  0
  8 27  1  0  0  0  0
  9 27  2  0  0  0  0
 10 28  1  0  0  0  0
 11 12  2  0  0  0  0
 11 29  1  0  0  0  0
 12 30  1  0  0  0  0
 13 22  1  0  0  0  0
 13 28  2  0  0  0  0
 14 23  1  0  0  0  0
 14 26  2  0  0  0  0
 15 24  2  0  0  0  0
 15 26  1  0  0  0  0
 16 30  2  0  0  0  0
 16 31  1  0  0  0  0
 17 32  1  0  0  0  0
 18 32  1  0  0  0  0
 18 33  2  0  0  0  0
 18 35  1  0  0  0  0
 19 21  2  0  0  0  0
 19 40  1  0  0  0  0
 20 22  2  0  0  0  0
 20 41  1  0  0  0  0
 21 52  1  0  0  0  0
 22 42  1  0  0  0  0
 23 25  2  0  0  0  0
 23 63  1  0  0  0  0
 24 25  1  0  0  0  0
 24 67  1  0  0  0  0
 25 56  1  0  0  0  0
 26 76  1  0  0  0  0
 27 86  1  0  0  0  0
 28 87  1  0  0  0  0
 29 31  2  0  0  0  0
 29 86  1  0  0  0  0
 30 88  1  0  0  0  0
 31 89  1  0  0  0  0
 32 69  2  0  0  0  0
 33 70  1  0  0  0  0
 33 74  1  0  0  0  0
 34 43  1  0  0  0  0
 34 71  1  0  0  0  0
 34 80  2  0  0  0  0
 35 75  1  0  0  0  0
 35 81  2  0  0  0  0
 36 53  1  0  0  0  0
 36 77  1  0  0  0  0
 36 82  2  0  0  0  0
 37 65  1  0  0  0  0
 37 72  1  0  0  0  0
 37 83  2  0  0  0  0
 38 66  1  0  0  0  0
 38 78  1  0  0  0  0
 38 84  2  0  0  0  0
 39 73  1  0  0  0  0
 39 76  1  0  0  0  0
 39 85  2  0  0  0  0
 40 44  1  0  0  0  0
 41 53  1  0  0  0  0
 42 72  1  0  0  0  0
 43 54  1  0  0  0  0
 44 46  1  0  0  0  0
 45 47  1  0  0  0  0
 45 49  1  0  0  0  0
 46 52  1  0  0  0  0
 47 55  1  0  0  0  0
 48 50  1  0  0  0  0
 48 54  1  0  0  0  0
 49 73  1  0  0  0  0
 50 71  1  0  0  0  0
 51 55  1  0  0  0  0
 51 73  1  0  0  0  0
 52 77  1  0  0  0  0
 53 72  1  0  0  0  0
 54 64  1  0  0  0  0
 55 70  1  0  0  0  0
 57 66  1  0  0  0  0
 58 67  1  0  0  0  0
 59 68  1  0  0  0  0
 60 68  1  0  0  0  0
 61 68  1  0  0  0  0
 62 79  1  0  0  0  0
 63 71  1  0  0  0  0
 64 87  1  0  0  0  0
 65 68  1  0  0  0  0
 65 78  1  0  0  0  0
 66 79  1  0  0  0  0
 67 90  1  0  0  0  0
 67 91  1  0  0  0  0
 69 70  1  0  0  0  0
M  CHG  1  79   1
M  ISO  4  39 100  64 101  76 100  87 101
M  END
> <Batch ID>
0053

> <Smiles>
CNC(C)C(=O)NC(C(=O)N1Cc2cc([101O:1][101CH2:1]C3CCN(Cc4cc([100NH:0][100C:0](=O)N5CCCC(n6nc(-c7ccc(Oc8ccc(F)cc8F)cc7)c(C(N)=O)c6N)C5)cc(C(C)(F)F)c4C)C(=O)C3)ccc2CC1C(=O)NC1CCCc2ccccc21)C(C)(C)C

> <Shape>
0.259

> <Color>
0.085

> <Negative vol penalty>
0.000

$$$$

  -OEChem-04042322433D

 91100  0     1  0  0  0  0  0999 V2000
  -35.9764  -31.1779   29.8028 C   0  0  0  0  0  0  0  0  0  0  0  0
  -35.9566  -29.7882   29.7403 C   0  0  0  0  0  0  0  0  0  0  0  0
  -22.6726  -10.1808   20.1925 C   0  0  0  0  0  0  0  0  0  0  0  0
  -24.3043   -9.4585   21.8212 C   0  0  0  0  0  0  0  0  0  0  0  0
  -34.9495  -31.9156   29.2155 C   0  0  0  0  0  0  0  0  0  0  0  0
  -34.9091  -29.1355   29.0913 C   0  0  0  0  0  0  0  0  0  0  0  0
  -36.5187  -25.3939   26.0822 C   0  0  0  0  0  0  0  0  0  0  0  0
  -32.6880  -17.3901   23.5050 C   0  0  0  0  0  0  0  0  0  0  0  0
  -32.0757  -16.5416   22.5827 C   0  0  0  0  0  0  0  0  0  0  0  0
  -21.9388   -9.0148   20.4105 C   0  0  0  0  0  0  0  0  0  0  0  0
  -23.5705   -8.2925   22.0393 C   0  0  0  0  0  0  0  0  0  0  0  0
  -36.8775  -24.1939   26.6946 C   0  0  0  0  0  0  0  0  0  0  0  0
  -20.8013   -7.3768   23.7463 C   0  0  0  0  0  0  0  0  0  0  0  0
  -20.5989   -6.9778   25.0674 C   0  0  0  0  0  0  0  0  0  0  0  0
  -34.7371  -23.2557   26.0963 C   0  0  0  0  0  0  0  0  0  0  0  0
  -30.5222  -18.2253   24.1748 C   0  0  0  0  0  0  0  0  0  0  0  0
  -21.7360   -4.8951   24.6125 C   0  0  0  0  0  0  0  0  0  0  0  0
  -23.8554  -10.4027   20.8978 C   0  0  0  0  0  0  0  0  0  0  0  0
  -24.1809  -12.9326   20.8626 C   0  0  0  0  0  0  0  0  0  0  0  0
  -33.8939  -31.2719   28.5507 C   0  0  0  0  0  0  0  0  0  0  0  0
  -35.2601  -25.5377   25.4807 C   0  0  0  0  0  0  0  0  0  0  0  0
  -33.8663  -29.8653   28.4958 C   0  0  0  0  0  0  0  0  0  0  0  0
  -34.3658  -24.4577   25.4747 C   0  0  0  0  0  0  0  0  0  0  0  0
  -31.9113  -18.2319   24.3011 C   0  0  0  0  0  0  0  0  0  0  0  0
  -29.9098  -17.3768   23.2524 C   0  0  0  0  0  0  0  0  0  0  0  0
  -30.6866  -16.5349   22.4564 C   0  0  0  0  0  0  0  0  0  0  0  0
  -22.3877   -8.0707   21.3339 C   0  0  0  0  0  0  0  0  0  0  0  0
  -35.9855  -23.1256   26.7043 C   0  0  0  0  0  0  0  0  0  0  0  0
  -21.4710   -6.5350   22.8582 C   0  0  0  0  0  0  0  0  0  0  0  0
  -21.0663   -5.7370   25.5006 C   0  0  0  0  0  0  0  0  0  0  0  0
  -21.9383   -5.2942   23.2914 C   0  0  0  0  0  0  0  0  0  0  0  0
  -24.6141  -11.6067   20.6726 C   0  0  0  0  0  0  0  0  0  0  0  0
  -25.2639  -13.7012   20.5123 C   0  0  0  0  0  0  0  0  0  0  0  0
  -35.5722  -19.7821   26.8378 C   0  0  0  0  0  0  0  0  0  0  0  0
  -33.2503  -19.3388   27.6253 C   0  0  0  0  0  0  0  0  0  0  0  0
  -29.6698  -19.5475   28.4702 C   0  0  0  0  0  0  0  0  0  0  0  0
  -30.8397  -19.2500   27.8911 C   0  0  0  0  0  0  0  0  0  0  0  0
  -22.9129  -13.4253   21.3155 C   0  0  0  0  0  0  0  0  0  0  0  0
  -36.3613  -20.8233   26.5340 C   0  0  0  0  0  0  0  0  0  1  0  0
  -32.1556  -19.7198   28.3027 C   0  0  0  0  0  0  0  0  0  0  0  0
  -32.7422  -27.4155   25.9684 C   0  0  0  0  0  0  0  0  0  0  0  0
  -31.6497  -25.9955   23.2643 C   0  0  0  0  0  0  0  0  0  0  0  0
  -31.6117  -22.6691   21.8675 C   0  0  0  0  0  0  0  0  0  0  0  0
  -30.7257  -14.7743   20.6550 C   0  0  0  0  0  0  0  0  0  0  0  0
  -32.7817  -32.1103   27.9720 C   0  0  0  0  0  0  0  0  0  0  0  0
  -34.8986  -26.8298   24.8009 C   0  0  0  0  0  0  0  0  0  0  0  0
  -33.0104  -24.5541   24.8251 C   0  0  0  0  0  0  0  0  0  0  0  0
  -34.6337  -19.7997   28.0143 C   0  0  0  0  0  0  0  0  0  0  0  0
  -35.5364  -18.5450   25.9761 C   0  0  0  0  0  0  0  0  0  0  0  0
  -31.9027  -31.3545   26.9788 C   0  0  0  0  0  0  0  0  0  0  0  0
  -29.5952  -12.4384   18.2173 C   0  0  0  0  0  0  0  0  0  0  0  0
  -31.5183  -29.9884   27.5381 C   0  0  0  0  0  0  0  0  0  0  0  0
  -28.1629  -12.1229   18.6544 C   0  0  0  0  0  0  0  0  0  0  0  0
  -30.5243  -12.6305   19.4146 C   0  0  0  0  0  0  0  0  0  0  0  0
  -28.6309  -13.2939   20.8445 C   0  0  0  0  0  0  0  0  0  0  0  0
  -34.3418  -17.6368   26.2797 C   0  0  0  0  0  0  0  0  0  0  0  0
  -32.7601  -29.1217   27.7793 C   0  0  1  0  0  0  0  0  0  0  0  0
  -33.3926  -27.0344   24.6686 C   0  0  1  0  0  0  0  0  0  0  0  0
  -27.6441  -13.1561   19.6736 C   0  0  2  0  0  0  0  0  0  0  0  0
  -28.4199  -17.3929   23.1363 C   0  0  0  0  0  0  0  0  0  0  0  0
  -37.3033  -20.8369   25.3734 C   0  0  0  0  0  0  0  0  0  0  0  0
  -32.2718  -20.6340   29.4921 C   0  0  0  0  0  0  0  0  0  0  0  0
  -31.5265  -21.9033   19.4793 C   0  0  0  0  0  0  0  0  0  0  0  0
  -28.6346  -25.8689   23.7157 C   0  0  0  0  0  0  0  0  0  0  0  0
  -28.5841  -23.7874   22.3253 C   0  0  0  0  0  0  0  0  0  0  0  0
  -29.3277  -25.9431   21.3139 C   0  0  0  0  0  0  0  0  0  0  0  0
  -34.0593  -21.0354   22.1826 C   0  0  0  0  0  0  0  0  0  0  0  0
  -32.5703  -19.1462   25.2915 C   0  0  0  0  0  0  0  0  0  0  0  0
  -30.8394  -24.7590   22.9585 C   0  0  1  0  0  0  0  0  0  0  0  0
  -32.4183  -22.1722   20.6814 C   0  0  2  0  0  0  0  0  0  0  0  0
  -29.3630  -25.0912   22.6014 C   0  0  0  0  0  0  0  0  0  0  0  0
  -25.8741  -11.5336   20.2353 N   0  0  0  0  0  0  0  0  0  0  0  0
  -26.2418  -12.8232   20.1476 N   0  0  0  0  0  0  0  0  0  0  0  0
  -32.7009  -25.8403   24.1790 N   0  0  0  0  0  0  0  0  0  0  0  0
  -29.9706  -13.6263   20.3348 N   0  0  0  0  0  0  0  0  0  0  0  0
  -25.4656  -15.0357   20.4837 N   0  0  0  0  0  0  0  0  0  0  0  0
  -21.9107  -12.4985   21.6332 N   0  0  0  0  0  0  0  0  0  0  0  0
  -30.0835  -15.6659   21.5137 N   0  0  0  0  0  0  0  0  0  0  0  0
  -33.2443  -28.5737   26.5304 N   0  0  0  0  0  0  0  0  0  0  0  0
  -31.5618  -24.0464   21.9104 N   0  0  0  0  0  0  0  0  0  0  0  0
  -33.0733  -18.4263   26.5158 N   0  3  2  0  0  0  0  0  0  0  0  0
  -33.1294  -20.9100   21.0308 N   0  3  0  0  0  0  0  0  0  0  0  0
  -22.6702  -14.6516   21.4192 O   0  0  0  0  0  0  0  0  0  0  0  0
  -31.8499  -26.7117   26.4267 O   0  0  0  0  0  0  0  0  0  0  0  0
  -31.3650  -27.0583   22.7065 O   0  0  0  0  0  0  0  0  0  0  0  0
  -31.0760  -21.9112   22.6732 O   0  0  0  0  0  0  0  0  0  0  0  0
  -31.8477  -14.9665   20.1795 O   0  0  0  0  0  0  0  0  0  0  0  0
  -21.6717   -6.9329   21.5471 O   0  0  0  0  0  0  0  0  0  0  0  0
  -36.3329  -21.9534   27.3019 O   0  0  0  0  0  0  0  0  0  1  0  0
  -20.8733   -5.3546   26.7697 F   0  0  0  0  0  0  0  0  0  0  0  0
  -22.5834   -4.4816   22.4432 F   0  0  0  0  0  0  0  0  0  0  0  0
  1  2  1  0  0  0  0
  1  5  2  0  0  0  0
  2  6  2  0  0  0  0
  3 10  2  0  0  0  0
  3 18  1  0  0  0  0
  4 11  1  0  0  0  0
  4 18  2  0  0  0  0
  5 20  1  0  0  0  0
  6 22  1  0  0  0  0
  7 12  2  0  0  0  0
  7 21  1  0  0  0  0
  8  9  2  0  0  0  0
  8 24  1  0  0  0  0
  9 26  1  0  0  0  0
 10 27  1  0  0  0  0
 11 27  2  0  0  0  0
 12 28  1  0  0  0  0
 13 14  2  0  0  0  0
 13 29  1  0  0  0  0
 14 30  1  0  0  0  0
 15 23  1  0  0  0  0
 15 28  2  0  0  0  0
 16 24  2  0  0  0  0
 16 25  1  0  0  0  0
 17 30  2  0  0  0  0
 17 31  1  0  0  0  0
 18 32  1  0  0  0  0
 19 32  1  0  0  0  0
 19 33  2  0  0  0  0
 19 38  1  0  0  0  0
 20 22  2  0  0  0  0
 20 45  1  0  0  0  0
 21 23  2  0  0  0  0
 21 46  1  0  0  0  0
 22 57  1  0  0  0  0
 23 47  1  0  0  0  0
 24 68  1  0  0  0  0
 25 26  2  0  0  0  0
 25 60  1  0  0  0  0
 26 78  1  0  0  0  0
 27 88  1  0  0  0  0
 28 89  1  0  0  0  0
 29 31  2  0  0  0  0
 29 88  1  0  0  0  0
 30 90  1  0  0  0  0
 31 91  1  0  0  0  0
 32 72  2  0  0  0  0
 33 73  1  0  0  0  0
 33 76  1  0  0  0  0
 34 39  2  0  0  0  0
 34 48  1  0  0  0  0
 34 49  1  0  0  0  0
 35 40  2  0  0  0  0
 35 48  1  0  0  0  0
 35 81  1  0  0  0  0
 36 37  2  0  0  0  0
 37 40  1  0  0  0  0
 38 77  1  0  0  0  0
 38 83  2  0  0  0  0
 39 61  1  0  0  0  0
 39 89  1  0  0  0  0
 40 62  1  0  0  0  0
 41 58  1  0  0  0  0
 41 79  1  0  0  0  0
 41 84  2  0  0  0  0
 42 69  1  0  0  0  0
 42 74  1  0  0  0  0
 42 85  2  0  0  0  0
 43 70  1  0  0  0  0
 43 80  1  0  0  0  0
 43 86  2  0  0  0  0
 44 75  1  0  0  0  0
 44 78  1  0  0  0  0
 44 87  2  0  0  0  0
 45 50  1  0  0  0  0
 46 58  1  0  0  0  0
 47 74  1  0  0  0  0
 49 56  1  0  0  0  0
 50 52  1  0  0  0  0
 51 53  1  0  0  0  0
 51 54  1  0  0  0  0
 52 57  1  0  0  0  0
 53 59  1  0  0  0  0
 54 75  1  0  0  0  0
 55 59  1  0  0  0  0
 55 75  1  0  0  0  0
 56 81  1  0  0  0  0
 57 79  1  0  0  0  0
 58 74  1  0  0  0  0
 59 73  1  0  0  0  0
 63 70  1  0  0  0  0
 64 71  1  0  0  0  0
 65 71  1  0  0  0  0
 66 71  1  0  0  0  0
 67 82  1  0  0  0  0
 68 81  1  0  0  0  0
 69 71  1  0  0  0  0
 69 80  1  0  0  0  0
 70 82  1  0  0  0  0
 72 73  1  0  0  0  0
M  CHG  2  81   1  82   1
M  ISO  4  39 101  44 100  78 100  89 101
M  END
> <Batch ID>
0053

> <Smiles>
C=CC(C)=C1CC(=[101C:1](C)[101O:1]c2ccc3c(c2)CN(C(=O)C(NC(=O)C(C)NC)C(C)(C)C)C(C(=O)NC2CCCc4ccccc42)C3)CCN1Cc1ccc([100NH:0][100C:0](=O)N2CCCC(n3nc(-c4ccc(Oc5ccc(F)cc5F)cc4)c(C(N)=O)c3N)C2)c(C)c1

> <Shape>
0.192

> <Color>
0.184

> <Negative vol penalty>
0.000

$$$$

  -OEChem-04042322433D

 88 96  0     1  0  0  0  0  0999 V2000
  -30.7284  -24.3226   13.8986 C   0  0  0  0  0  0  0  0  0  0  0  0
  -30.3524  -23.6587   15.0619 C   0  0  0  0  0  0  0  0  0  0  0  0
  -29.7321  -17.2688   19.2457 C   0  0  0  0  0  0  0  0  0  0  0  0
  -28.7893  -18.3910   21.1663 C   0  0  0  0  0  0  0  0  0  0  0  0
  -30.8644  -25.7102   13.9022 C   0  0  0  0  0  0  0  0  0  0  0  0
  -30.1132  -24.3820   16.2298 C   0  0  0  0  0  0  0  0  0  0  0  0
  -25.9557  -23.1305   20.5489 C   0  0  0  0  0  0  0  0  0  0  0  0
  -19.3637  -15.1511   24.0075 C   0  0  0  0  0  0  0  0  0  0  0  0
  -20.4253  -14.5173   23.3618 C   0  0  0  0  0  0  0  0  0  0  0  0
  -30.0996  -18.5013   18.7059 C   0  0  0  0  0  0  0  0  0  0  0  0
  -29.1569  -19.6236   20.6266 C   0  0  0  0  0  0  0  0  0  0  0  0
  -26.0498  -22.4913   21.7844 C   0  0  0  0  0  0  0  0  0  0  0  0
  -31.9646  -21.4850   20.3564 C   0  0  0  0  0  0  0  0  0  0  0  0
  -32.5658  -22.4108   21.2091 C   0  0  0  0  0  0  0  0  0  0  0  0
  -21.9908  -15.7269   24.7485 C   0  0  0  0  0  0  0  0  0  0  0  0
  -26.2658  -24.6346   22.8701 C   0  0  0  0  0  0  0  0  0  0  0  0
  -30.7715  -23.9708   20.7803 C   0  0  0  0  0  0  0  0  0  0  0  0
  -29.0769  -17.2136   20.4759 C   0  0  0  0  0  0  0  0  0  0  0  0
  -20.9292  -16.3607   25.3942 C   0  0  0  0  0  0  0  0  0  0  0  0
  -29.4619  -15.1237   21.8871 C   0  0  0  0  0  0  0  0  0  0  0  0
  -30.6174  -26.4518   15.0682 C   0  0  0  0  0  0  0  0  0  0  0  0
  -26.0269  -24.5284   20.4636 C   0  0  0  0  0  0  0  0  0  0  0  0
  -30.2473  -25.7807   16.2494 C   0  0  0  0  0  0  0  0  0  0  0  0
  -26.1697  -25.2893   21.6327 C   0  0  0  0  0  0  0  0  0  0  0  0
  -19.6156  -16.0728   25.0237 C   0  0  0  0  0  0  0  0  0  0  0  0
  -21.7388  -14.8052   23.7323 C   0  0  0  0  0  0  0  0  0  0  0  0
  -29.8121  -19.6787   19.3963 C   0  0  0  0  0  0  0  0  0  0  0  0
  -26.2078  -23.2431   22.9449 C   0  0  0  0  0  0  0  0  0  0  0  0
  -30.7668  -21.8021   19.7156 C   0  0  0  0  0  0  0  0  0  0  0  0
  -31.9692  -23.6537   21.4210 C   0  0  0  0  0  0  0  0  0  0  0  0
  -30.1703  -23.0450   19.9276 C   0  0  0  0  0  0  0  0  0  0  0  0
  -28.6964  -15.9408   21.0338 C   0  0  0  0  0  0  0  0  0  0  0  0
  -28.6602  -14.0354   22.1306 C   0  0  0  0  0  0  0  0  0  0  0  0
  -21.2258  -17.3375   26.4735 C   0  0  0  0  0  0  0  0  0  0  0  0
  -30.7797  -15.3301   22.4129 C   0  0  0  0  0  0  0  0  0  0  0  0
  -28.0003  -26.5928   19.0679 C   0  0  0  0  0  0  0  0  0  0  0  0
  -25.8167  -28.7672   20.0810 C   0  0  0  0  0  0  0  0  0  0  0  0
  -25.1456  -21.1916   25.7252 C   0  0  0  0  0  0  0  0  0  0  0  0
  -23.3329  -29.5709   22.2790 C   0  0  0  0  0  0  0  0  0  0  0  0
  -22.7406  -13.2251   22.0453 C   0  0  0  0  0  0  0  0  0  0  0  0
  -30.8233  -27.9455   15.0358 C   0  0  0  0  0  0  0  0  0  0  0  0
  -25.8969  -25.2042   19.1261 C   0  0  0  0  0  0  0  0  0  0  0  0
  -26.2314  -26.7937   21.5972 C   0  0  0  0  0  0  0  0  0  0  0  0
  -30.1875  -28.6739   16.2171 C   0  0  0  0  0  0  0  0  0  0  0  0
  -25.1618  -11.4411   20.1394 C   0  0  0  0  0  0  0  0  0  0  0  0
  -30.5164  -27.9597   17.5242 C   0  0  0  0  0  0  0  0  0  0  0  0
  -26.4144  -12.3151   20.2352 C   0  0  0  0  0  0  0  0  0  0  0  0
  -23.8889  -12.2815   20.0538 C   0  0  0  0  0  0  0  0  0  0  0  0
  -24.9874  -14.1587   21.2109 C   0  0  0  0  0  0  0  0  0  0  0  0
  -29.9550  -26.5327   17.5297 C   0  0  1  0  0  0  0  0  0  0  0  0
  -26.4982  -26.6061   19.1040 C   0  0  1  0  0  0  0  0  0  0  0  0
  -26.2899  -13.3565   21.3646 C   0  0  2  0  0  0  0  0  0  0  0  0
  -18.4601  -16.7370   25.6987 C   0  0  0  0  0  0  0  0  0  0  0  0
  -21.7632  -31.4334   22.8827 C   0  0  0  0  0  0  0  0  0  0  0  0
  -24.5740  -18.2815   27.5980 C   0  0  0  0  0  0  0  0  0  0  0  0
  -28.1153  -30.2703   21.4103 C   0  0  0  0  0  0  0  0  0  0  0  0
  -26.4209  -31.5341   22.7519 C   0  0  0  0  0  0  0  0  0  0  0  0
  -26.4383  -31.7300   20.2652 C   0  0  0  0  0  0  0  0  0  0  0  0
  -20.9533  -27.9012   21.7235 C   0  0  0  0  0  0  0  0  0  0  0  0
  -25.6129  -21.3798   24.2977 C   0  0  0  0  0  0  0  0  0  1  0  0
  -22.3813  -19.4575   27.0448 C   0  0  0  0  0  0  0  0  0  0  0  0
  -25.6266  -29.5874   21.3340 C   0  0  1  0  0  0  0  0  0  0  0  0
  -21.9522  -30.1648   22.0656 C   0  0  2  0  0  0  0  0  0  0  0  0
  -23.9032  -19.5768   27.1515 C   0  0  2  0  0  0  0  0  0  0  0  0
  -26.6511  -30.7520   21.4412 C   0  0  0  0  0  0  0  0  0  0  0  0
  -27.5004  -15.4163   20.7538 N   0  0  0  0  0  0  0  0  0  0  0  0
  -27.5083  -14.2579   21.4351 N   0  0  0  0  0  0  0  0  0  0  0  0
  -26.1061  -27.4077   20.2649 N   0  0  0  0  0  0  0  0  0  0  0  0
  -23.8374  -13.2424   21.1579 N   0  0  0  0  0  0  0  0  0  0  0  0
  -28.8353  -12.9193   22.8696 N   0  0  0  0  0  0  0  0  0  0  0  0
  -31.4629  -16.5026   22.0622 N   0  0  0  0  0  0  0  0  0  0  0  0
  -22.8170  -14.1627   23.0747 N   0  0  0  0  0  0  0  0  0  0  0  0
  -21.9890  -18.4335   26.1035 N   0  0  0  0  0  0  0  0  0  0  0  0
  -28.5321  -26.5503   17.7932 N   0  0  0  0  0  0  0  0  0  0  0  0
  -24.2322  -30.0163   21.3335 N   0  0  0  0  0  0  0  0  0  0  0  0
  -24.4578  -19.9991   25.8861 N   0  0  0  0  0  0  0  0  0  0  0  0
  -20.9005  -29.1874   22.4651 N   0  3  0  0  0  0  0  0  0  0  0  0
  -20.8106  -17.1215   27.6091 O   0  0  0  0  0  0  0  0  0  0  0  0
  -31.3415  -14.4917   23.1579 O   0  0  0  0  0  0  0  0  0  0  0  0
  -28.6302  -26.6206   20.1187 O   0  0  0  0  0  0  0  0  0  0  0  0
  -25.7053  -29.3112   18.9795 O   0  0  0  0  0  0  0  0  0  0  0  0
  -25.3642  -22.0149   26.6098 O   0  0  0  0  0  0  0  0  0  0  0  0
  -23.5889  -28.7928   23.1953 O   0  0  0  0  0  0  0  0  0  0  0  0
  -21.8159  -12.4184   21.9185 O   0  0  0  0  0  0  0  0  0  0  0  0
  -30.1708  -20.8816   18.8700 O   0  0  0  0  0  0  0  0  0  0  0  0
  -26.3007  -22.6217   24.1520 O   0  0  0  0  0  0  0  0  0  1  0  0
  -32.5459  -24.5421   22.2411 F   0  0  0  0  0  0  0  0  0  0  0  0
  -29.0191  -23.3549   19.3157 F   0  0  0  0  0  0  0  0  0  0  0  0
  1  2  1  0  0  0  0
  1  5  2  0  0  0  0
  2  6  2  0  0  0  0
  3 10  2  0  0  0  0
  3 18  1  0  0  0  0
  4 11  1  0  0  0  0
  4 18  2  0  0  0  0
  5 21  1  0  0  0  0
  6 23  1  0  0  0  0
  7 12  2  0  0  0  0
  7 22  1  0  0  0  0
  8  9  2  0  0  0  0
  8 25  1  0  0  0  0
  9 26  1  0  0  0  0
 10 27  1  0  0  0  0
 11 27  2  0  0  0  0
 12 28  1  0  0  0  0
 13 14  2  0  0  0  0
 13 29  1  0  0  0  0
 14 30  1  0  0  0  0
 15 19  1  0  0  0  0
 15 26  2  0  0  0  0
 16 24  1  0  0  0  0
 16 28  2  0  0  0  0
 17 30  2  0  0  0  0
 17 31  1  0  0  0  0
 18 32  1  0  0  0  0
 19 25  2  0  0  0  0
 19 34  1  0  0  0  0
 20 32  1  0  0  0  0
 20 33  2  0  0  0  0
 20 35  1  0  0  0  0
 21 23  2  0  0  0  0
 21 41  1  0  0  0  0
 22 24  2  0  0  0  0
 22 42  1  0  0  0  0
 23 50  1  0  0  0  0
 24 43  1  0  0  0  0
 25 53  1  0  0  0  0
 26 72  1  0  0  0  0
 27 85  1  0  0  0  0
 28 86  1  0  0  0  0
 29 31  2  0  0  0  0
 29 85  1  0  0  0  0
 30 87  1  0  0  0  0
 31 88  1  0  0  0  0
 32 66  2  0  0  0  0
 33 67  1  0  0  0  0
 33 70  1  0  0  0  0
 34 73  1  0  0  0  0
 34 78  2  0  0  0  0
 35 71  1  0  0  0  0
 35 79  2  0  0  0  0
 36 51  1  0  0  0  0
 36 74  1  0  0  0  0
 36 80  2  0  0  0  0
 37 62  1  0  0  0  0
 37 68  1  0  0  0  0
 37 81  2  0  0  0  0
 38 60  1  0  0  0  0
 38 76  1  0  0  0  0
 38 82  2  0  0  0  0
 39 63  1  0  0  0  0
 39 75  1  0  0  0  0
 39 83  2  0  0  0  0
 40 69  1  0  0  0  0
 40 72  1  0  0  0  0
 40 84  2  0  0  0  0
 41 44  1  0  0  0  0
 42 51  1  0  0  0  0
 43 68  1  0  0  0  0
 44 46  1  0  0  0  0
 45 47  1  0  0  0  0
 45 48  1  0  0  0  0
 46 50  1  0  0  0  0
 47 52  1  0  0  0  0
 48 69  1  0  0  0  0
 49 52  1  0  0  0  0
 49 69  1  0  0  0  0
 50 74  1  0  0  0  0
 51 68  1  0  0  0  0
 52 67  1  0  0  0  0
 54 63  1  0  0  0  0
 55 64  1  0  0  0  0
 56 65  1  0  0  0  0
 57 65  1  0  0  0  0
 58 65  1  0  0  0  0
 59 77  1  0  0  0  0
 60 86  1  0  0  0  0
 61 64  1  0  0  0  0
 61 73  1  0  0  0  0
 62 65  1  0  0  0  0
 62 75  1  0  0  0  0
 63 77  1  0  0  0  0
 64 76  1  0  0  0  0
 66 67  1  0  0  0  0
M  CHG  1  77   1
M  ISO  4  40 100  60 101  72 100  86 101
M  END
> <Batch ID>
0053

> <Smiles>
CNC(C)C(=O)NC(C(=O)N1Cc2cc([101O:1][101CH2:1]C(=O)NC(C)CNC(=O)c3cc([100NH:0][100C:0](=O)N4CCCC(n5nc(-c6ccc(Oc7ccc(F)cc7F)cc6)c(C(N)=O)c5N)C4)ccc3C)ccc2CC1C(=O)NC1CCCc2ccccc21)C(C)(C)C

> <Shape>
0.224

> <Color>
0.069

> <Negative vol penalty>
0.000

$$$$

  -OEChem-04042322433D

 87 95  0     1  0  0  0  0  0999 V2000
  -28.7721  -32.4926   26.6691 C   0  0  0  0  0  0  0  0  0  0  0  0
  -28.6728  -31.3405   25.8957 C   0  0  0  0  0  0  0  0  0  0  0  0
  -25.4197   -8.4065   21.6299 C   0  0  0  0  0  0  0  0  0  0  0  0
  -24.1013  -10.1345   22.6849 C   0  0  0  0  0  0  0  0  0  0  0  0
  -27.6224  -33.2056   27.0063 C   0  0  0  0  0  0  0  0  0  0  0  0
  -27.4236  -30.9001   25.4598 C   0  0  0  0  0  0  0  0  0  0  0  0
  -27.4411  -29.5213   20.5871 C   0  0  0  0  0  0  0  0  0  0  0  0
  -26.3159  -17.9560   22.4043 C   0  0  0  0  0  0  0  0  0  0  0  0
  -25.1273   -7.5403   22.6833 C   0  0  0  0  0  0  0  0  0  0  0  0
  -23.8088   -9.2682   23.7383 C   0  0  0  0  0  0  0  0  0  0  0  0
  -27.9802  -28.2726   20.2806 C   0  0  0  0  0  0  0  0  0  0  0  0
  -22.4193   -7.3953   26.5274 C   0  0  0  0  0  0  0  0  0  0  0  0
  -21.0988   -7.3374   26.9729 C   0  0  0  0  0  0  0  0  0  0  0  0
  -26.1869  -19.0270   23.2886 C   0  0  0  0  0  0  0  0  0  0  0  0
  -25.7549  -27.3506   20.1506 C   0  0  0  0  0  0  0  0  0  0  0  0
  -28.6781  -18.4163   22.1914 C   0  0  0  0  0  0  0  0  0  0  0  0
  -20.3886   -6.6265   24.7758 C   0  0  0  0  0  0  0  0  0  0  0  0
  -24.9068   -9.7037   21.6307 C   0  0  0  0  0  0  0  0  0  0  0  0
  -24.4771  -10.7679   19.3525 C   0  0  0  0  0  0  0  0  0  0  0  0
  -26.3594  -32.7791   26.5663 C   0  0  0  0  0  0  0  0  0  0  0  0
  -26.0530  -29.6919   20.6885 C   0  0  0  0  0  0  0  0  0  0  0  0
  -26.2558  -31.6073   25.7926 C   0  0  0  0  0  0  0  0  0  0  0  0
  -25.2006  -28.6030   20.4560 C   0  0  0  0  0  0  0  0  0  0  0  0
  -28.5491  -19.4873   23.0756 C   0  0  0  0  0  0  0  0  0  0  0  0
  -27.5615  -17.6506   21.8558 C   0  0  0  0  0  0  0  0  0  0  0  0
  -24.3218   -7.9711   23.7375 C   0  0  0  0  0  0  0  0  0  0  0  0
  -27.1372  -27.1864   20.0652 C   0  0  0  0  0  0  0  0  0  0  0  0
  -22.7245   -7.0688   25.2060 C   0  0  0  0  0  0  0  0  0  0  0  0
  -20.0834   -6.9530   26.0972 C   0  0  0  0  0  0  0  0  0  0  0  0
  -21.7092   -6.6844   24.3303 C   0  0  0  0  0  0  0  0  0  0  0  0
  -27.3035  -19.7927   23.6242 C   0  0  0  0  0  0  0  0  0  0  0  0
  -25.2090  -10.5992   20.5431 C   0  0  0  0  0  0  0  0  0  0  0  0
  -25.1722  -11.7253   18.6549 C   0  0  0  0  0  0  0  0  0  0  0  0
  -29.2894  -23.5927   21.6487 C   0  0  0  0  0  0  0  0  0  0  0  0
  -29.0653  -24.1834   20.4670 C   0  0  0  0  0  0  0  0  0  0  0  0
  -23.2762  -10.1174   18.9161 C   0  0  0  0  0  0  0  0  0  0  0  0
  -29.3984  -22.1111   21.7393 C   0  0  0  0  0  0  0  0  0  0  0  0
  -24.0624  -30.5508   23.0131 C   0  0  0  0  0  0  0  0  0  0  0  0
  -21.8622  -30.4611   20.6312 C   0  0  0  0  0  0  0  0  0  0  0  0
  -20.9423  -29.2365   17.5814 C   0  0  0  0  0  0  0  0  0  0  0  0
  -28.8552  -16.1243   20.3250 C   0  0  0  0  0  0  0  0  0  0  0  0
  -25.1404  -33.5565   26.9957 C   0  0  0  0  0  0  0  0  0  0  0  0
  -25.4862  -31.0513   20.9936 C   0  0  0  0  0  0  0  0  0  0  0  0
  -23.7025  -28.7381   20.5330 C   0  0  0  0  0  0  0  0  0  0  0  0
  -23.8918  -33.2310   26.1800 C   0  0  0  0  0  0  0  0  0  0  0  0
  -29.5968  -13.4643   18.0774 C   0  0  0  0  0  0  0  0  0  0  0  0
  -23.7307  -31.7216   26.0299 C   0  0  0  0  0  0  0  0  0  0  0  0
  -28.4856  -12.4457   18.3420 C   0  0  0  0  0  0  0  0  0  0  0  0
  -30.0408  -14.1651   19.3601 C   0  0  0  0  0  0  0  0  0  0  0  0
  -27.8466  -13.7596   20.4042 C   0  0  0  0  0  0  0  0  0  0  0  0
  -24.9210  -31.1115   25.2800 C   0  0  1  0  0  0  0  0  0  0  0  0
  -24.0779  -30.9943   21.5775 C   0  0  1  0  0  0  0  0  0  0  0  0
  -27.3211  -13.0745   19.1320 C   0  0  2  0  0  0  0  0  0  0  0  0
  -19.0718  -29.3138   15.9103 C   0  0  0  0  0  0  0  0  0  0  0  0
  -20.2122  -28.5969   22.3953 C   0  0  0  0  0  0  0  0  0  0  0  0
  -18.8838  -27.9682   20.3685 C   0  0  0  0  0  0  0  0  0  0  0  0
  -18.8816  -30.3283   21.1763 C   0  0  0  0  0  0  0  0  0  0  0  0
  -22.6997  -30.3819   15.4938 C   0  0  0  0  0  0  0  0  0  0  0  0
  -28.9493  -25.6642   20.3001 C   0  0  0  0  0  0  0  0  0  1  0  0
  -20.9512  -29.4033   20.0566 C   0  0  1  0  0  0  0  0  0  0  0  0
  -20.3959  -29.9239   16.3431 C   0  0  2  0  0  0  0  0  0  0  0  0
  -29.7815  -20.2913   23.4134 C   0  0  0  0  0  0  0  0  0  0  0  0
  -19.7604  -29.0708   20.9995 C   0  0  0  0  0  0  0  0  0  0  0  0
  -26.2866  -11.3862   20.6019 N   0  0  0  0  0  0  0  0  0  0  0  0
  -26.2369  -12.0586   19.4394 N   0  0  0  0  0  0  0  0  0  0  0  0
  -23.1968  -30.0861   20.8405 N   0  0  0  0  0  0  0  0  0  0  0  0
  -28.8857  -14.7402   20.0529 N   0  0  0  0  0  0  0  0  0  0  0  0
  -24.9705  -12.3061   17.4530 N   0  0  0  0  0  0  0  0  0  0  0  0
  -22.6927   -9.1587   19.7556 N   0  0  0  0  0  0  0  0  0  0  0  0
  -27.6924  -16.5619   20.9583 N   0  0  0  0  0  0  0  0  0  0  0  0
  -29.6301  -21.6912   23.0387 N   0  0  0  0  0  0  0  0  0  0  0  0
  -24.8018  -31.3557   23.8586 N   0  0  0  0  0  0  0  0  0  0  0  0
  -20.5529  -29.8807   18.7368 N   0  0  0  0  0  0  0  0  0  0  0  0
  -21.3611  -29.8013   15.2143 N   0  3  0  0  0  0  0  0  0  0  0  0
  -22.7456  -10.3667   17.8071 O   0  0  0  0  0  0  0  0  0  0  0  0
  -29.2930  -21.3803   20.7599 O   0  0  0  0  0  0  0  0  0  0  0  0
  -23.4254  -29.5532   23.3304 O   0  0  0  0  0  0  0  0  0  0  0  0
  -21.4080  -31.5811   20.8783 O   0  0  0  0  0  0  0  0  0  0  0  0
  -21.6412  -28.2269   17.5293 O   0  0  0  0  0  0  0  0  0  0  0  0
  -29.7797  -16.8712   19.9943 O   0  0  0  0  0  0  0  0  0  0  0  0
  -24.0361   -7.1260   24.7655 O   0  0  0  0  0  0  0  0  0  0  0  0
  -27.6608  -25.9663   19.7666 O   0  0  0  0  0  0  0  0  0  1  0  0
  -18.8156   -6.8960   26.5255 F   0  0  0  0  0  0  0  0  0  0  0  0
  -21.9964   -6.3685   23.0600 F   0  0  0  0  0  0  0  0  0  0  0  0
  -30.0416  -20.2537   24.7545 F   0  0  0  0  0  0  0  0  0  0  0  0
  -30.9155  -19.8039   22.8291 F   0  0  0  0  0  0  0  0  0  0  0  0
  -27.1051  -21.1096   24.7221 Cl  0  0  0  0  0  0  0  0  0  0  0  0
  1  2  1  0  0  0  0
  1  5  2  0  0  0  0
  2  6  2  0  0  0  0
  3  9  2  0  0  0  0
  3 18  1  0  0  0  0
  4 10  1  0  0  0  0
  4 18  2  0  0  0  0
  5 20  1  0  0  0  0
  6 22  1  0  0  0  0
  7 11  2  0  0  0  0
  7 21  1  0  0  0  0
  8 14  2  0  0  0  0
  8 25  1  0  0  0  0
  9 26  1  0  0  0  0
 10 26  2  0  0  0  0
 11 27  1  0  0  0  0
 12 13  2  0  0  0  0
 12 28  1  0  0  0  0
 13 29  1  0  0  0  0
 14 31  1  0  0  0  0
 15 23  1  0  0  0  0
 15 27  2  0  0  0  0
 16 24  1  0  0  0  0
 16 25  2  0  0  0  0
 17 29  2  0  0  0  0
 17 30  1  0  0  0  0
 18 32  1  0  0  0  0
 19 32  1  0  0  0  0
 19 33  2  0  0  0  0
 19 36  1  0  0  0  0
 20 22  2  0  0  0  0
 20 42  1  0  0  0  0
 21 23  2  0  0  0  0
 21 43  1  0  0  0  0
 22 51  1  0  0  0  0
 23 44  1  0  0  0  0
 24 31  2  0  0  0  0
 24 62  1  0  0  0  0
 25 70  1  0  0  0  0
 26 81  1  0  0  0  0
 27 82  1  0  0  0  0
 28 30  2  0  0  0  0
 28 81  1  0  0  0  0
 29 83  1  0  0  0  0
 30 84  1  0  0  0  0
 31 87  1  0  0  0  0
 32 64  2  0  0  0  0
 33 65  1  0  0  0  0
 33 68  1  0  0  0  0
 34 35  2  0  0  0  0
 34 37  1  0  0  0  0
 35 59  1  0  0  0  0
 36 69  1  0  0  0  0
 36 75  2  0  0  0  0
 37 71  1  0  0  0  0
 37 76  2  0  0  0  0
 38 52  1  0  0  0  0
 38 72  1  0  0  0  0
 38 77  2  0  0  0  0
 39 60  1  0  0  0  0
 39 66  1  0  0  0  0
 39 78  2  0  0  0  0
 40 61  1  0  0  0  0
 40 73  1  0  0  0  0
 40 79  2  0  0  0  0
 41 67  1  0  0  0  0
 41 70  1  0  0  0  0
 41 80  2  0  0  0  0
 42 45  1  0  0  0  0
 43 52  1  0  0  0  0
 44 66  1  0  0  0  0
 45 47  1  0  0  0  0
 46 48  1  0  0  0  0
 46 49  1  0  0  0  0
 47 51  1  0  0  0  0
 48 53  1  0  0  0  0
 49 67  1  0  0  0  0
 50 53  1  0  0  0  0
 50 67  1  0  0  0  0
 51 72  1  0  0  0  0
 52 66  1  0  0  0  0
 53 65  1  0  0  0  0
 54 61  1  0  0  0  0
 55 63  1  0  0  0  0
 56 63  1  0  0  0  0
 57 63  1  0  0  0  0
 58 74  1  0  0  0  0
 59 82  1  0  0  0  0
 60 63  1  0  0  0  0
 60 73  1  0  0  0  0
 61 74  1  0  0  0  0
 62 71  1  0  0  0  0
 62 85  1  0  0  0  0
 62 86  1  0  0  0  0
 64 65  1  0  0  0  0
M  CHG  1  74   1
M  ISO  4  41 100  59 101  70 100  82 101
M  END
> <Batch ID>
0053

> <Smiles>
CNC(C)C(=O)NC(C(=O)N1Cc2cc([101O:1][101CH2:1]C=CC(=O)NC(F)(F)c3cc([100NH:0][100C:0](=O)N4CCCC(n5nc(-c6ccc(Oc7ccc(F)cc7F)cc6)c(C(N)=O)c5N)C4)ccc3Cl)ccc2CC1C(=O)NC1CCCc2ccccc21)C(C)(C)C

> <Shape>
0.276

> <Color>
0.083

> <Negative vol penalty>
0.000

$$$$

  -OEChem-04042322433D

 85 93  0     1  0  0  0  0  0999 V2000
  -29.7712  -12.4699   19.8996 C   0  0  0  0  0  0  0  0  0  0  0  0
  -29.7059  -13.6007   20.7072 C   0  0  0  0  0  0  0  0  0  0  0  0
  -22.4201  -31.1302   24.2814 C   0  0  0  0  0  0  0  0  0  0  0  0
  -29.7201  -23.2546   20.0990 C   0  0  0  0  0  0  0  0  0  0  0  0
  -27.4045  -23.2907   19.4105 C   0  0  0  0  0  0  0  0  0  0  0  0
  -28.8640  -12.3087   18.8532 C   0  0  0  0  0  0  0  0  0  0  0  0
  -28.7341  -14.5717   20.4682 C   0  0  0  0  0  0  0  0  0  0  0  0
  -24.6187  -19.3178   23.9112 C   0  0  0  0  0  0  0  0  0  0  0  0
  -21.3258  -30.2773   24.1376 C   0  0  0  0  0  0  0  0  0  0  0  0
  -23.2454  -31.3962   23.1888 C   0  0  0  0  0  0  0  0  0  0  0  0
  -29.5734  -21.9341   20.5234 C   0  0  0  0  0  0  0  0  0  0  0  0
  -27.2578  -21.9700   19.8350 C   0  0  0  0  0  0  0  0  0  0  0  0
  -24.2851  -20.6713   23.8877 C   0  0  0  0  0  0  0  0  0  0  0  0
  -29.9053  -18.4364   21.4568 C   0  0  0  0  0  0  0  0  0  0  0  0
  -30.9064  -17.5289   21.1106 C   0  0  0  0  0  0  0  0  0  0  0  0
  -22.7206  -20.2483   22.1009 C   0  0  0  0  0  0  0  0  0  0  0  0
  -21.8822  -29.9563   21.8085 C   0  0  0  0  0  0  0  0  0  0  0  0
  -30.4808  -17.9524   18.7703 C   0  0  0  0  0  0  0  0  0  0  0  0
  -28.6356  -23.9330   19.5426 C   0  0  0  0  0  0  0  0  0  0  0  0
  -29.1732  -25.7418   17.8260 C   0  0  0  0  0  0  0  0  0  0  0  0
  -27.8745  -13.2735   18.6072 C   0  0  0  0  0  0  0  0  0  0  0  0
  -24.0127  -18.4197   23.0209 C   0  0  0  0  0  0  0  0  0  0  0  0
  -27.8137  -14.4240   19.4166 C   0  0  0  0  0  0  0  0  0  0  0  0
  -23.0464  -18.8835   22.1169 C   0  0  0  0  0  0  0  0  0  0  0  0
  -21.0569  -29.6903   22.9012 C   0  0  0  0  0  0  0  0  0  0  0  0
  -22.9764  -30.8092   21.9523 C   0  0  0  0  0  0  0  0  0  0  0  0
  -28.3423  -21.2918   20.3914 C   0  0  0  0  0  0  0  0  0  0  0  0
  -23.3380  -21.1372   22.9804 C   0  0  0  0  0  0  0  0  0  0  0  0
  -29.1919  -19.1018   20.4598 C   0  0  0  0  0  0  0  0  0  0  0  0
  -31.1942  -17.2869   19.7674 C   0  0  0  0  0  0  0  0  0  0  0  0
  -29.4796  -18.8598   19.1166 C   0  0  0  0  0  0  0  0  0  0  0  0
  -28.7864  -25.2973   19.1045 C   0  0  0  0  0  0  0  0  0  0  0  0
  -29.1651  -27.1119   17.9218 C   0  0  0  0  0  0  0  0  0  0  0  0
  -20.9591  -25.1780   22.4991 C   0  0  0  0  0  0  0  0  0  0  0  0
  -21.2954  -24.0830   23.1947 C   0  0  0  0  0  0  0  0  0  0  0  0
  -29.5096  -24.9840   16.6563 C   0  0  0  0  0  0  0  0  0  0  0  0
  -20.5883  -26.4344   23.2069 C   0  0  0  0  0  0  0  0  0  0  0  0
  -25.0538  -16.5241   20.6914 C   0  0  0  0  0  0  0  0  0  0  0  0
  -21.9726  -15.5100   20.6695 C   0  0  0  0  0  0  0  0  0  0  0  0
  -18.7003  -16.1696   21.3791 C   0  0  0  0  0  0  0  0  0  0  0  0
  -26.2359  -30.9332   21.4812 C   0  0  0  0  0  0  0  0  0  0  0  0
  -26.9458  -13.0784   17.4349 C   0  0  0  0  0  0  0  0  0  0  0  0
  -24.3640  -16.9583   23.0772 C   0  0  0  0  0  0  0  0  0  0  0  0
  -22.3519  -17.9568   21.1538 C   0  0  0  0  0  0  0  0  0  0  0  0
  -25.7095  -13.9727   17.4818 C   0  0  0  0  0  0  0  0  0  0  0  0
  -29.7632  -30.6476   21.0892 C   0  0  0  0  0  0  0  0  0  0  0  0
  -26.1010  -15.4074   17.8212 C   0  0  0  0  0  0  0  0  0  0  0  0
  -29.9477  -29.2841   20.4208 C   0  0  0  0  0  0  0  0  0  0  0  0
  -28.6162  -30.6313   22.0973 C   0  0  0  0  0  0  0  0  0  0  0  0
  -27.5139  -28.7838   20.8950 C   0  0  0  0  0  0  0  0  0  0  0  0
  -26.7581  -15.4874   19.2044 C   0  0  1  0  0  0  0  0  0  0  0  0
  -24.0603  -16.2203   21.7770 C   0  0  1  0  0  0  0  0  0  0  0  0
  -28.6231  -28.7657   19.8293 C   0  0  2  0  0  0  0  0  0  0  0  0
  -16.4073  -15.1636   21.2137 C   0  0  0  0  0  0  0  0  0  0  0  0
  -21.9276  -16.1101   17.6782 C   0  0  0  0  0  0  0  0  0  0  0  0
  -19.4277  -16.0053   17.7655 C   0  0  0  0  0  0  0  0  0  0  0  0
  -20.7796  -13.9872   18.3336 C   0  0  0  0  0  0  0  0  0  0  0  0
  -18.3290  -16.2453   24.3142 C   0  0  0  0  0  0  0  0  0  0  0  0
  -19.8779  -28.7735   22.7468 C   0  0  0  0  0  0  0  0  0  0  0  0
  -23.8594  -31.0932   20.7842 C   0  0  0  0  0  0  0  0  0  0  0  0
  -21.6831  -22.7905   22.5517 C   0  0  0  0  0  0  0  0  0  1  0  0
  -20.7139  -15.9303   19.9498 C   0  0  1  0  0  0  0  0  0  0  0  0
  -17.6380  -15.3488   22.0877 C   0  0  2  0  0  0  0  0  0  0  0  0
  -20.7265  -15.5263   18.4485 C   0  0  0  0  0  0  0  0  0  0  0  0
  -28.5500  -26.3035   19.9505 N   0  0  0  0  0  0  0  0  0  0  0  0
  -28.7890  -27.3938   19.2021 N   0  0  0  0  0  0  0  0  0  0  0  0
  -22.7342  -16.5379   21.2433 N   0  0  0  0  0  0  0  0  0  0  0  0
  -27.3891  -30.1311   21.4728 N   0  0  0  0  0  0  0  0  0  0  0  0
  -29.4433  -28.0910   17.0350 N   0  0  0  0  0  0  0  0  0  0  0  0
  -29.4664  -23.5851   16.7312 N   0  0  0  0  0  0  0  0  0  0  0  0
  -20.2739  -27.4501   22.3201 N   0  0  0  0  0  0  0  0  0  0  0  0
  -25.7548  -15.4201   20.2452 N   0  0  0  0  0  0  0  0  0  0  0  0
  -19.6023  -15.3694   20.7102 N   0  0  0  0  0  0  0  0  0  0  0  0
  -25.1184  -30.3864   20.8623 N   0  0  0  0  0  0  0  0  0  0  0  0
  -17.2208  -16.0210   23.3506 N   0  3  0  0  0  0  0  0  0  0  0  0
  -29.8547  -25.5308   15.5814 O   0  0  0  0  0  0  0  0  0  0  0  0
  -20.5726  -26.5214   24.4303 O   0  0  0  0  0  0  0  0  0  0  0  0
  -25.1742  -17.6748   20.2874 O   0  0  0  0  0  0  0  0  0  0  0  0
  -22.2655  -14.3131   20.7267 O   0  0  0  0  0  0  0  0  0  0  0  0
  -18.7251  -17.3980   21.4122 O   0  0  0  0  0  0  0  0  0  0  0  0
  -26.2061  -32.0557   21.9969 O   0  0  0  0  0  0  0  0  0  0  0  0
  -28.1988  -20.0031   20.8052 O   0  0  0  0  0  0  0  0  0  0  0  0
  -23.0110  -22.4579   22.9549 O   0  0  0  0  0  0  0  0  0  1  0  0
  -32.1566  -16.4166   19.4350 F   0  0  0  0  0  0  0  0  0  0  0  0
  -28.7985  -19.4970   18.1544 F   0  0  0  0  0  0  0  0  0  0  0  0
  1  2  1  0  0  0  0
  1  6  2  0  0  0  0
  2  7  2  0  0  0  0
  3  9  2  0  0  0  0
  3 10  1  0  0  0  0
  4 11  2  0  0  0  0
  4 19  1  0  0  0  0
  5 12  1  0  0  0  0
  5 19  2  0  0  0  0
  6 21  1  0  0  0  0
  7 23  1  0  0  0  0
  8 13  2  0  0  0  0
  8 22  1  0  0  0  0
  9 25  1  0  0  0  0
 10 26  2  0  0  0  0
 11 27  1  0  0  0  0
 12 27  2  0  0  0  0
 13 28  1  0  0  0  0
 14 15  2  0  0  0  0
 14 29  1  0  0  0  0
 15 30  1  0  0  0  0
 16 24  1  0  0  0  0
 16 28  2  0  0  0  0
 17 25  2  0  0  0  0
 17 26  1  0  0  0  0
 18 30  2  0  0  0  0
 18 31  1  0  0  0  0
 19 32  1  0  0  0  0
 20 32  1  0  0  0  0
 20 33  2  0  0  0  0
 20 36  1  0  0  0  0
 21 23  2  0  0  0  0
 21 42  1  0  0  0  0
 22 24  2  0  0  0  0
 22 43  1  0  0  0  0
 23 51  1  0  0  0  0
 24 44  1  0  0  0  0
 25 59  1  0  0  0  0
 26 60  1  0  0  0  0
 27 82  1  0  0  0  0
 28 83  1  0  0  0  0
 29 31  2  0  0  0  0
 29 82  1  0  0  0  0
 30 84  1  0  0  0  0
 31 85  1  0  0  0  0
 32 65  2  0  0  0  0
 33 66  1  0  0  0  0
 33 69  1  0  0  0  0
 34 35  2  0  0  0  0
 34 37  1  0  0  0  0
 35 61  1  0  0  0  0
 36 70  1  0  0  0  0
 36 76  2  0  0  0  0
 37 71  1  0  0  0  0
 37 77  2  0  0  0  0
 38 52  1  0  0  0  0
 38 72  1  0  0  0  0
 38 78  2  0  0  0  0
 39 62  1  0  0  0  0
 39 67  1  0  0  0  0
 39 79  2  0  0  0  0
 40 63  1  0  0  0  0
 40 73  1  0  0  0  0
 40 80  2  0  0  0  0
 41 68  1  0  0  0  0
 41 74  1  0  0  0  0
 41 81  2  0  0  0  0
 42 45  1  0  0  0  0
 43 52  1  0  0  0  0
 44 67  1  0  0  0  0
 45 47  1  0  0  0  0
 46 48  1  0  0  0  0
 46 49  1  0  0  0  0
 47 51  1  0  0  0  0
 48 53  1  0  0  0  0
 49 68  1  0  0  0  0
 50 53  1  0  0  0  0
 50 68  1  0  0  0  0
 51 72  1  0  0  0  0
 52 67  1  0  0  0  0
 53 66  1  0  0  0  0
 54 63  1  0  0  0  0
 55 64  1  0  0  0  0
 56 64  1  0  0  0  0
 57 64  1  0  0  0  0
 58 75  1  0  0  0  0
 59 71  1  0  0  0  0
 60 74  1  0  0  0  0
 61 83  1  0  0  0  0
 62 64  1  0  0  0  0
 62 73  1  0  0  0  0
 63 75  1  0  0  0  0
 65 66  1  0  0  0  0
M  CHG  1  75   1
M  ISO  4  41 100  61 101  74 100  83 101
M  END
> <Batch ID>
0053

> <Smiles>
CNC(C)C(=O)NC(C(=O)N1Cc2cc([101O:1][101CH2:1]C=CC(=O)NCc3cccc(C[100NH:0][100C:0](=O)N4CCCC(n5nc(-c6ccc(Oc7ccc(F)cc7F)cc6)c(C(N)=O)c5N)C4)c3)ccc2CC1C(=O)NC1CCCc2ccccc21)C(C)(C)C

> <Shape>
0.248

> <Color>
0.062

> <Negative vol penalty>
0.000

$$$$

  -OEChem-04042322433D

 89 98  0     1  0  0  0  0  0999 V2000
  -17.2358  -31.4629   20.8166 C   0  0  0  0  0  0  0  0  0  0  0  0
  -18.5283  -31.9688   20.9106 C   0  0  0  0  0  0  0  0  0  0  0  0
  -20.5900  -17.4487   21.7932 C   0  0  0  0  0  0  0  0  0  0  0  0
  -21.6172  -17.7116   23.9641 C   0  0  0  0  0  0  0  0  0  0  0  0
  -16.8877  -30.3083   21.5164 C   0  0  0  0  0  0  0  0  0  0  0  0
  -19.4733  -31.3210   21.7054 C   0  0  0  0  0  0  0  0  0  0  0  0
  -25.6308  -28.8640   18.8878 C   0  0  0  0  0  0  0  0  0  0  0  0
  -19.3676  -17.8636   22.3214 C   0  0  0  0  0  0  0  0  0  0  0  0
  -20.3947  -18.1266   24.4923 C   0  0  0  0  0  0  0  0  0  0  0  0
  -26.9237  -28.5531   18.4660 C   0  0  0  0  0  0  0  0  0  0  0  0
  -18.5306  -20.9450   24.5369 C   0  0  0  0  0  0  0  0  0  0  0  0
  -18.5330  -22.0620   25.3724 C   0  0  0  0  0  0  0  0  0  0  0  0
  -28.7660  -21.8218   17.4113 C   0  0  0  0  0  0  0  0  0  0  0  0
  -27.4367  -27.6663   20.6566 C   0  0  0  0  0  0  0  0  0  0  0  0
  -26.5043  -21.3137   16.7305 C   0  0  0  0  0  0  0  0  0  0  0  0
  -17.6308  -20.7208   27.1680 C   0  0  0  0  0  0  0  0  0  0  0  0
  -21.7149  -17.3726   22.6146 C   0  0  0  0  0  0  0  0  0  0  0  0
  -28.9818  -22.4821   16.2017 C   0  0  0  0  0  0  0  0  0  0  0  0
  -23.2646  -15.7075   21.4600 C   0  0  0  0  0  0  0  0  0  0  0  0
  -17.8316  -29.6405   22.3125 C   0  0  0  0  0  0  0  0  0  0  0  0
  -25.2306  -28.5628   20.1926 C   0  0  0  0  0  0  0  0  0  0  0  0
  -19.1372  -30.1571   22.4176 C   0  0  0  0  0  0  0  0  0  0  0  0
  -26.1390  -27.9640   21.0810 C   0  0  0  0  0  0  0  0  0  0  0  0
  -27.9588  -22.5584   15.2566 C   0  0  0  0  0  0  0  0  0  0  0  0
  -27.5273  -21.2375   17.6756 C   0  0  0  0  0  0  0  0  0  0  0  0
  -19.2699  -18.2026   23.6709 C   0  0  0  0  0  0  0  0  0  0  0  0
  -27.8244  -27.9560   19.3483 C   0  0  0  0  0  0  0  0  0  0  0  0
  -18.0782  -19.7160   25.0170 C   0  0  0  0  0  0  0  0  0  0  0  0
  -18.0831  -21.9499   26.6879 C   0  0  0  0  0  0  0  0  0  0  0  0
  -26.7200  -21.9741   15.5209 C   0  0  0  0  0  0  0  0  0  0  0  0
  -17.6284  -19.6039   26.3325 C   0  0  0  0  0  0  0  0  0  0  0  0
  -22.9778  -16.9435   22.0698 C   0  0  0  0  0  0  0  0  0  0  0  0
  -24.5917  -15.7937   21.1166 C   0  0  0  0  0  0  0  0  0  0  0  0
  -29.9086  -24.9761   17.5614 C   0  0  0  0  0  0  0  0  0  0  0  0
  -30.3029  -23.0916   15.9479 C   0  0  0  0  0  0  0  0  0  0  0  0
  -22.4080  -14.5820   21.2249 C   0  0  0  0  0  0  0  0  0  0  0  0
  -22.4848  -28.6285   22.7485 C   0  0  0  0  0  0  0  0  0  0  0  0
  -23.9250  -25.9376   23.0569 C   0  0  0  0  0  0  0  0  0  0  0  0
  -24.7663  -22.6859   23.6535 C   0  0  0  0  0  0  0  0  0  0  0  0
  -28.2153  -20.3995   19.9496 C   0  0  0  0  0  0  0  0  0  0  0  0
  -17.3956  -28.4225   23.0878 C   0  0  0  0  0  0  0  0  0  0  0  0
  -23.8674  -28.9358   20.7087 C   0  0  0  0  0  0  0  0  0  0  0  0
  -25.6755  -27.6897   22.4856 C   0  0  0  0  0  0  0  0  0  0  0  0
  -18.5595  -27.5850   23.6114 C   0  0  0  0  0  0  0  0  0  0  0  0
  -32.7344  -24.4514   18.2764 C   0  0  0  0  0  0  0  0  0  0  0  0
  -28.6755  -17.9089   22.4520 C   0  0  0  0  0  0  0  0  0  0  0  0
  -19.6098  -28.4788   24.2630 C   0  0  0  0  0  0  0  0  0  0  0  0
  -31.7370  -25.0628   19.2584 C   0  0  0  0  0  0  0  0  0  0  0  0
  -27.2942  -17.2621   22.5782 C   0  0  0  0  0  0  0  0  0  0  0  0
  -32.1860  -24.3754   16.8553 C   0  0  0  0  0  0  0  0  0  0  0  0
  -28.5768  -19.4126   22.2013 C   0  0  0  0  0  0  0  0  0  0  0  0
  -26.3429  -19.1520   21.1959 C   0  0  0  0  0  0  0  0  0  0  0  0
  -20.1972  -29.4688   23.2499 C   0  0  1  0  0  0  0  0  0  0  0  0
  -30.6674  -25.8832   18.5360 C   0  0  2  0  0  0  0  0  0  0  0  0
  -23.3016  -27.9147   21.7118 C   0  0  1  0  0  0  0  0  0  0  0  0
  -26.3900  -17.6269   21.3844 C   0  0  2  0  0  0  0  0  0  0  0  0
  -28.1664  -23.2593   13.9533 C   0  0  0  0  0  0  0  0  0  0  0  0
  -24.9043  -20.5053   24.8878 C   0  0  0  0  0  0  0  0  0  0  0  0
  -26.2807  -27.2898   24.4447 C   0  0  0  0  0  0  0  0  0  0  0  0
  -26.7710  -25.1124   25.5789 C   0  0  0  0  0  0  0  0  0  0  0  0
  -24.6015  -26.2718   25.9934 C   0  0  0  0  0  0  0  0  0  0  0  0
  -22.1939  -21.7522   22.5266 C   0  0  0  0  0  0  0  0  0  0  0  0
  -29.7180  -26.5297   19.5422 C   0  0  0  0  0  0  0  0  0  1  0  0
  -25.0025  -25.1531   23.7618 C   0  0  1  0  0  0  0  0  0  0  0  0
  -23.9805  -21.5367   24.2588 C   0  0  2  0  0  0  0  0  0  0  0  0
  -25.6629  -25.9584   24.9163 C   0  0  0  0  0  0  0  0  0  0  0  0
  -24.0375  -17.7554   22.1129 N   0  0  0  0  0  0  0  0  0  0  0  0
  -25.0032  -17.0280   21.5260 N   0  0  0  0  0  0  0  0  0  0  0  0
  -30.7505  -24.0935   16.8371 N   0  0  0  0  0  0  0  0  0  0  0  0
  -24.3076  -27.1482   22.4665 N   0  0  0  0  0  0  0  0  0  0  0  0
  -27.7080  -19.6821   21.0535 N   0  0  0  0  0  0  0  0  0  0  0  0
  -25.4352  -14.9335   20.5076 N   0  0  0  0  0  0  0  0  0  0  0  0
  -22.3227  -13.5898   22.2111 N   0  0  0  0  0  0  0  0  0  0  0  0
  -27.3076  -20.5664   18.9041 N   0  0  0  0  0  0  0  0  0  0  0  0
  -21.1605  -28.8068   22.3966 N   0  0  0  0  0  0  0  0  0  0  0  0
  -24.3854  -23.9003   24.1840 N   0  0  0  0  0  0  0  0  0  0  0  0
  -23.1637  -20.8597   23.2121 N   0  3  0  0  0  0  0  0  0  0  0  0
  -28.6917  -25.0752   17.4066 O   0  0  0  0  0  0  0  0  0  0  0  0
  -30.9255  -22.6926   14.9645 O   0  0  0  0  0  0  0  0  0  0  0  0
  -21.7508  -14.4517   20.1645 O   0  0  0  0  0  0  0  0  0  0  0  0
  -23.0156  -28.9903   23.7921 O   0  0  0  0  0  0  0  0  0  0  0  0
  -22.7734  -25.4943   23.0337 O   0  0  0  0  0  0  0  0  0  0  0  0
  -25.6339  -22.5223   22.7986 O   0  0  0  0  0  0  0  0  0  0  0  0
  -29.3782  -20.8102   19.9214 O   0  0  0  0  0  0  0  0  0  0  0  0
  -18.0772  -18.6078   24.1865 O   0  0  0  0  0  0  0  0  0  0  0  0
  -29.0837  -27.6510   18.9286 O   0  0  0  0  0  0  0  0  0  1  0  0
  -18.0869  -23.0222   27.4906 F   0  0  0  0  0  0  0  0  0  0  0  0
  -25.7304  -22.0410   14.6193 F   0  0  0  0  0  0  0  0  0  0  0  0
  -17.1937  -18.4255   26.7997 F   0  0  0  0  0  0  0  0  0  0  0  0
  1  2  1  0  0  0  0
  1  5  2  0  0  0  0
  2  6  2  0  0  0  0
  3  8  2  0  0  0  0
  3 17  1  0  0  0  0
  4  9  1  0  0  0  0
  4 17  2  0  0  0  0
  5 20  1  0  0  0  0
  6 22  1  0  0  0  0
  7 10  2  0  0  0  0
  7 21  1  0  0  0  0
  8 26  1  0  0  0  0
  9 26  2  0  0  0  0
 10 27  1  0  0  0  0
 11 12  2  0  0  0  0
 11 28  1  0  0  0  0
 12 29  1  0  0  0  0
 13 18  1  0  0  0  0
 13 25  2  0  0  0  0
 14 23  1  0  0  0  0
 14 27  2  0  0  0  0
 15 25  1  0  0  0  0
 15 30  2  0  0  0  0
 16 29  2  0  0  0  0
 16 31  1  0  0  0  0
 17 32  1  0  0  0  0
 18 24  2  0  0  0  0
 18 35  1  0  0  0  0
 19 32  1  0  0  0  0
 19 33  2  0  0  0  0
 19 36  1  0  0  0  0
 20 22  2  0  0  0  0
 20 41  1  0  0  0  0
 21 23  2  0  0  0  0
 21 42  1  0  0  0  0
 22 53  1  0  0  0  0
 23 43  1  0  0  0  0
 24 30  1  0  0  0  0
 24 57  1  0  0  0  0
 25 74  1  0  0  0  0
 26 85  1  0  0  0  0
 27 86  1  0  0  0  0
 28 31  2  0  0  0  0
 28 85  1  0  0  0  0
 29 87  1  0  0  0  0
 30 88  1  0  0  0  0
 31 89  1  0  0  0  0
 32 67  2  0  0  0  0
 33 68  1  0  0  0  0
 33 72  1  0  0  0  0
 34 54  1  0  0  0  0
 34 69  1  0  0  0  0
 34 78  2  0  0  0  0
 35 69  1  0  0  0  0
 35 79  2  0  0  0  0
 36 73  1  0  0  0  0
 36 80  2  0  0  0  0
 37 55  1  0  0  0  0
 37 75  1  0  0  0  0
 37 81  2  0  0  0  0
 38 64  1  0  0  0  0
 38 70  1  0  0  0  0
 38 82  2  0  0  0  0
 39 65  1  0  0  0  0
 39 76  1  0  0  0  0
 39 83  2  0  0  0  0
 40 71  1  0  0  0  0
 40 74  1  0  0  0  0
 40 84  2  0  0  0  0
 41 44  1  0  0  0  0
 42 55  1  0  0  0  0
 43 70  1  0  0  0  0
 44 47  1  0  0  0  0
 45 48  1  0  0  0  0
 45 50  1  0  0  0  0
 46 49  1  0  0  0  0
 46 51  1  0  0  0  0
 47 53  1  0  0  0  0
 48 54  1  0  0  0  0
 49 56  1  0  0  0  0
 50 69  1  0  0  0  0
 51 71  1  0  0  0  0
 52 56  1  0  0  0  0
 52 71  1  0  0  0  0
 53 75  1  0  0  0  0
 54 63  1  0  0  0  0
 55 70  1  0  0  0  0
 56 68  1  0  0  0  0
 58 65  1  0  0  0  0
 59 66  1  0  0  0  0
 60 66  1  0  0  0  0
 61 66  1  0  0  0  0
 62 77  1  0  0  0  0
 63 86  1  0  0  0  0
 64 66  1  0  0  0  0
 64 76  1  0  0  0  0
 65 77  1  0  0  0  0
 67 68  1  0  0  0  0
M  CHG  1  77   1
M  ISO  4  40 100  63 101  74 100  86 101
M  END
> <Batch ID>
0053

> <Smiles>
CNC(C)C(=O)NC(C(=O)N1Cc2cc([101O:1][101CH2:1]C3CCCN(C(=O)c4cc([100NH:0][100C:0](=O)N5CCCC(n6nc(-c7ccc(Oc8ccc(F)cc8F)cc7)c(C(N)=O)c6N)C5)cc(F)c4C)C3=O)ccc2CC1C(=O)NC1CCCc2ccccc21)C(C)(C)C

> <Shape>
0.154

> <Color>
0.124

> <Negative vol penalty>
0.000

$$$$

  -OEChem-04042322433D

 87 95  0     1  0  0  0  0  0999 V2000
  -18.9559  -24.2546   22.9395 C   0  0  0  0  0  0  0  0  0  0  0  0
  -20.2438  -24.4123   22.4374 C   0  0  0  0  0  0  0  0  0  0  0  0
  -22.4893  -13.4589   23.0489 C   0  0  0  0  0  0  0  0  0  0  0  0
  -21.9833  -14.7366   21.0618 C   0  0  0  0  0  0  0  0  0  0  0  0
  -18.1297  -25.3664   23.0979 C   0  0  0  0  0  0  0  0  0  0  0  0
  -20.7057  -25.6820   22.0925 C   0  0  0  0  0  0  0  0  0  0  0  0
  -25.4068  -26.5579   23.7591 C   0  0  0  0  0  0  0  0  0  0  0  0
  -29.6733  -20.7514   17.5810 C   0  0  0  0  0  0  0  0  0  0  0  0
  -27.7685  -19.9964   16.3007 C   0  0  0  0  0  0  0  0  0  0  0  0
  -29.6598  -19.5588   18.3043 C   0  0  0  0  0  0  0  0  0  0  0  0
  -27.7551  -18.8038   17.0240 C   0  0  0  0  0  0  0  0  0  0  0  0
  -21.2708  -13.8447   23.6074 C   0  0  0  0  0  0  0  0  0  0  0  0
  -20.7647  -15.1224   21.6203 C   0  0  0  0  0  0  0  0  0  0  0  0
  -26.4547  -25.9884   23.0371 C   0  0  0  0  0  0  0  0  0  0  0  0
  -18.0160  -12.9717   23.3301 C   0  0  0  0  0  0  0  0  0  0  0  0
  -17.2480  -11.9880   23.9531 C   0  0  0  0  0  0  0  0  0  0  0  0
  -26.8444  -28.1039   21.9455 C   0  0  0  0  0  0  0  0  0  0  0  0
  -17.3630  -13.2146   26.0314 C   0  0  0  0  0  0  0  0  0  0  0  0
  -22.8457  -13.9049   21.7762 C   0  0  0  0  0  0  0  0  0  0  0  0
  -24.3548  -12.3718   20.4050 C   0  0  0  0  0  0  0  0  0  0  0  0
  -18.5852  -26.6515   22.7638 C   0  0  0  0  0  0  0  0  0  0  0  0
  -25.0622  -27.9042   23.5713 C   0  0  0  0  0  0  0  0  0  0  0  0
  -19.8843  -26.8119   22.2453 C   0  0  0  0  0  0  0  0  0  0  0  0
  -25.7934  -28.6888   22.6681 C   0  0  0  0  0  0  0  0  0  0  0  0
  -28.7276  -20.9702   16.5792 C   0  0  0  0  0  0  0  0  0  0  0  0
  -28.7007  -18.5850   18.0258 C   0  0  0  0  0  0  0  0  0  0  0  0
  -20.4085  -14.6764   22.8930 C   0  0  0  0  0  0  0  0  0  0  0  0
  -27.1719  -26.7606   22.1281 C   0  0  0  0  0  0  0  0  0  0  0  0
  -18.4575  -14.0768   24.0577 C   0  0  0  0  0  0  0  0  0  0  0  0
  -16.9215  -12.1094   25.3038 C   0  0  0  0  0  0  0  0  0  0  0  0
  -18.1310  -14.1983   25.4084 C   0  0  0  0  0  0  0  0  0  0  0  0
  -24.1045  -13.5071   21.1990 C   0  0  0  0  0  0  0  0  0  0  0  0
  -25.6944  -12.4469   20.1112 C   0  0  0  0  0  0  0  0  0  0  0  0
  -25.6715  -24.1418   14.3542 C   0  0  0  0  0  0  0  0  0  0  0  0
  -28.4600  -25.2596   18.1176 C   0  0  0  0  0  0  0  0  0  0  0  0
  -26.4264  -24.4737   15.4076 C   0  0  0  0  0  0  0  0  0  0  0  0
  -29.0256  -25.6635   19.2638 C   0  0  0  0  0  0  0  0  0  0  0  0
  -23.4567  -11.3416   19.9718 C   0  0  0  0  0  0  0  0  0  0  0  0
  -29.0839  -24.1597   17.3266 C   0  0  0  0  0  0  0  0  0  0  0  0
  -22.4679  -29.4351   22.5566 C   0  0  0  0  0  0  0  0  0  0  0  0
  -24.1604  -32.0659   23.4147 C   0  0  0  0  0  0  0  0  0  0  0  0
  -27.2082  -33.4899   23.9895 C   0  0  0  0  0  0  0  0  0  0  0  0
  -29.5535  -16.9974   19.7860 C   0  0  0  0  0  0  0  0  0  0  0  0
  -17.6391  -27.8172   22.9081 C   0  0  0  0  0  0  0  0  0  0  0  0
  -23.9464  -28.5106   24.3774 C   0  0  0  0  0  0  0  0  0  0  0  0
  -25.4764  -30.1442   22.4447 C   0  0  0  0  0  0  0  0  0  0  0  0
  -18.3356  -29.1751   22.8710 C   0  0  0  0  0  0  0  0  0  0  0  0
  -29.8249  -14.1195   21.8649 C   0  0  0  0  0  0  0  0  0  0  0  0
  -19.3316  -29.2328   21.7170 C   0  0  0  0  0  0  0  0  0  0  0  0
  -28.4130  -13.5292   21.8529 C   0  0  0  0  0  0  0  0  0  0  0  0
  -29.8010  -15.6470   21.8573 C   0  0  0  0  0  0  0  0  0  0  0  0
  -27.5899  -15.6597   20.7711 C   0  0  0  0  0  0  0  0  0  0  0  0
  -20.4302  -28.1760   21.8831 C   0  0  1  0  0  0  0  0  0  0  0  0
  -23.3501  -29.7565   23.7297 C   0  0  1  0  0  0  0  0  0  0  0  0
  -27.5633  -14.1237   20.7126 C   0  0  2  0  0  0  0  0  0  0  0  0
  -28.2743  -35.6662   24.6410 C   0  0  0  0  0  0  0  0  0  0  0  0
  -23.6677  -33.1459   20.6038 C   0  0  0  0  0  0  0  0  0  0  0  0
  -25.4994  -34.8070   20.9963 C   0  0  0  0  0  0  0  0  0  0  0  0
  -23.4558  -34.8453   22.4264 C   0  0  0  0  0  0  0  0  0  0  0  0
  -28.3976  -32.3102   26.4293 C   0  0  0  0  0  0  0  0  0  0  0  0
  -28.7422  -22.2540   15.8007 C   0  0  0  0  0  0  0  0  0  0  0  0
  -26.7596  -23.5366   16.5219 C   0  0  0  0  0  0  0  0  0  0  0  0
  -28.4532  -26.7431   20.1246 C   0  0  0  0  0  0  0  0  0  1  0  0
  -25.1388  -32.9815   22.7193 C   0  0  1  0  0  0  0  0  0  0  0  0
  -27.7228  -34.3389   25.1379 C   0  0  2  0  0  0  0  0  0  0  0  0
  -24.4454  -33.9170   21.6890 C   0  0  0  0  0  0  0  0  0  0  0  0
  -25.1974  -14.2489   21.3971 N   0  0  0  0  0  0  0  0  0  0  0  0
  -26.1475  -13.5783   20.7234 N   0  0  0  0  0  0  0  0  0  0  0  0
  -24.3725  -30.6896   23.2520 N   0  0  0  0  0  0  0  0  0  0  0  0
  -28.9809  -16.1385   20.7479 N   0  0  0  0  0  0  0  0  0  0  0  0
  -26.5172  -11.6548   19.3914 N   0  0  0  0  0  0  0  0  0  0  0  0
  -22.1133  -11.4180   20.3640 N   0  0  0  0  0  0  0  0  0  0  0  0
  -28.6870  -17.3733   18.7602 N   0  0  0  0  0  0  0  0  0  0  0  0
  -21.4037  -28.6086   22.8628 N   0  0  0  0  0  0  0  0  0  0  0  0
  -25.8603  -33.6849   23.7743 N   0  0  0  0  0  0  0  0  0  0  0  0
  -28.2106  -23.3677   16.5757 N   0  0  0  0  0  0  0  0  0  0  0  0
  -28.8077  -33.6223   25.8662 N   0  3  0  0  0  0  0  0  0  0  0  0
  -23.8377  -10.3730   19.2718 O   0  0  0  0  0  0  0  0  0  0  0  0
  -30.3015  -23.9810   17.3830 O   0  0  0  0  0  0  0  0  0  0  0  0
  -22.7322  -29.9036   21.4556 O   0  0  0  0  0  0  0  0  0  0  0  0
  -23.2461  -32.5539   24.0836 O   0  0  0  0  0  0  0  0  0  0  0  0
  -27.9305  -32.7325   23.3453 O   0  0  0  0  0  0  0  0  0  0  0  0
  -30.7339  -17.3500   19.8516 O   0  0  0  0  0  0  0  0  0  0  0  0
  -19.2192  -15.0529   23.4376 O   0  0  0  0  0  0  0  0  0  0  0  0
  -28.1948  -26.2070   21.4216 O   0  0  0  0  0  0  0  0  0  1  0  0
  -16.1827  -11.1655   25.9016 F   0  0  0  0  0  0  0  0  0  0  0  0
  -18.5513  -15.2583   26.1123 F   0  0  0  0  0  0  0  0  0  0  0  0
  1  2  1  0  0  0  0
  1  5  2  0  0  0  0
  2  6  2  0  0  0  0
  3 12  2  0  0  0  0
  3 19  1  0  0  0  0
  4 13  1  0  0  0  0
  4 19  2  0  0  0  0
  5 21  1  0  0  0  0
  6 23  1  0  0  0  0
  7 14  2  0  0  0  0
  7 22  1  0  0  0  0
  8 10  2  0  0  0  0
  8 25  1  0  0  0  0
  9 11  1  0  0  0  0
  9 25  2  0  0  0  0
 10 26  1  0  0  0  0
 11 26  2  0  0  0  0
 12 27  1  0  0  0  0
 13 27  2  0  0  0  0
 14 28  1  0  0  0  0
 15 16  2  0  0  0  0
 15 29  1  0  0  0  0
 16 30  1  0  0  0  0
 17 24  1  0  0  0  0
 17 28  2  0  0  0  0
 18 30  2  0  0  0  0
 18 31  1  0  0  0  0
 19 32  1  0  0  0  0
 20 32  1  0  0  0  0
 20 33  2  0  0  0  0
 20 38  1  0  0  0  0
 21 23  2  0  0  0  0
 21 44  1  0  0  0  0
 22 24  2  0  0  0  0
 22 45  1  0  0  0  0
 23 53  1  0  0  0  0
 24 46  1  0  0  0  0
 25 61  1  0  0  0  0
 26 73  1  0  0  0  0
 27 84  1  0  0  0  0
 28 85  1  0  0  0  0
 29 31  2  0  0  0  0
 29 84  1  0  0  0  0
 30 86  1  0  0  0  0
 31 87  1  0  0  0  0
 32 67  2  0  0  0  0
 33 68  1  0  0  0  0
 33 71  1  0  0  0  0
 34 36  2  0  0  0  0
 35 37  2  0  0  0  0
 35 39  1  0  0  0  0
 36 62  1  0  0  0  0
 37 63  1  0  0  0  0
 38 72  1  0  0  0  0
 38 78  2  0  0  0  0
 39 76  1  0  0  0  0
 39 79  2  0  0  0  0
 40 54  1  0  0  0  0
 40 74  1  0  0  0  0
 40 80  2  0  0  0  0
 41 64  1  0  0  0  0
 41 69  1  0  0  0  0
 41 81  2  0  0  0  0
 42 65  1  0  0  0  0
 42 75  1  0  0  0  0
 42 82  2  0  0  0  0
 43 70  1  0  0  0  0
 43 73  1  0  0  0  0
 43 83  2  0  0  0  0
 44 47  1  0  0  0  0
 45 54  1  0  0  0  0
 46 69  1  0  0  0  0
 47 49  1  0  0  0  0
 48 50  1  0  0  0  0
 48 51  1  0  0  0  0
 49 53  1  0  0  0  0
 50 55  1  0  0  0  0
 51 70  1  0  0  0  0
 52 55  1  0  0  0  0
 52 70  1  0  0  0  0
 53 74  1  0  0  0  0
 54 69  1  0  0  0  0
 55 68  1  0  0  0  0
 56 65  1  0  0  0  0
 57 66  1  0  0  0  0
 58 66  1  0  0  0  0
 59 66  1  0  0  0  0
 60 77  1  0  0  0  0
 61 76  1  0  0  0  0
 62 76  1  0  0  0  0
 63 85  1  0  0  0  0
 64 66  1  0  0  0  0
 64 75  1  0  0  0  0
 65 77  1  0  0  0  0
 67 68  1  0  0  0  0
M  CHG  1  77   1
M  ISO  4  43 100  63 101  73 100  85 101
M  END
> <Batch ID>
0053

> <Smiles>
C=CCN(Cc1ccc([100NH:0][100C:0](=O)N2CCCC(n3nc(-c4ccc(Oc5ccc(F)cc5F)cc4)c(C(N)=O)c3N)C2)cc1)C(=O)C=C[101CH2:1][101O:1]c1ccc2c(c1)CN(C(=O)C(NC(=O)C(C)NC)C(C)(C)C)C(C(=O)NC1CCCc3ccccc31)C2

> <Shape>
0.263

> <Color>
0.089

> <Negative vol penalty>
0.000

$$$$

  -OEChem-04042322433D

 85 93  0     1  0  0  0  0  0999 V2000
  -24.8422  -18.4988   20.1986 C   0  0  0  0  0  0  0  0  0  0  0  0
  -25.5834  -19.6745   20.1377 C   0  0  0  0  0  0  0  0  0  0  0  0
  -26.5991  -12.7223   21.5157 C   0  0  0  0  0  0  0  0  0  0  0  0
  -26.2551  -13.5488   19.2717 C   0  0  0  0  0  0  0  0  0  0  0  0
  -23.4661  -18.5314   19.9768 C   0  0  0  0  0  0  0  0  0  0  0  0
  -24.9491  -20.8834   19.8537 C   0  0  0  0  0  0  0  0  0  0  0  0
  -26.4708  -24.6369   22.8936 C   0  0  0  0  0  0  0  0  0  0  0  0
  -28.8795  -21.6675   15.9530 C   0  0  0  0  0  0  0  0  0  0  0  0
  -29.3131  -20.6830   16.8408 C   0  0  0  0  0  0  0  0  0  0  0  0
  -25.3077  -12.1953   21.5196 C   0  0  0  0  0  0  0  0  0  0  0  0
  -24.9637  -13.0217   19.2755 C   0  0  0  0  0  0  0  0  0  0  0  0
  -27.7028  -25.2253   22.6110 C   0  0  0  0  0  0  0  0  0  0  0  0
  -23.7224   -9.4783   20.2795 C   0  0  0  0  0  0  0  0  0  0  0  0
  -23.5525   -8.1825   20.7669 C   0  0  0  0  0  0  0  0  0  0  0  0
  -29.6518  -22.3656   18.5412 C   0  0  0  0  0  0  0  0  0  0  0  0
  -26.5713  -27.0592   21.5267 C   0  0  0  0  0  0  0  0  0  0  0  0
  -22.0594   -9.0195   22.4719 C   0  0  0  0  0  0  0  0  0  0  0  0
  -27.0728  -13.3991   20.3917 C   0  0  0  0  0  0  0  0  0  0  0  0
  -29.2182  -23.3501   17.6532 C   0  0  0  0  0  0  0  0  0  0  0  0
  -29.5867  -13.3006   19.9692 C   0  0  0  0  0  0  0  0  0  0  0  0
  -22.8131  -19.7427   19.6996 C   0  0  0  0  0  0  0  0  0  0  0  0
  -25.2783  -25.2508   22.4846 C   0  0  0  0  0  0  0  0  0  0  0  0
  -23.5631  -20.9320   19.6267 C   0  0  0  0  0  0  0  0  0  0  0  0
  -25.3255  -26.4779   21.8076 C   0  0  0  0  0  0  0  0  0  0  0  0
  -28.8321  -23.0011   16.3591 C   0  0  0  0  0  0  0  0  0  0  0  0
  -29.6992  -21.0320   18.1349 C   0  0  0  0  0  0  0  0  0  0  0  0
  -24.4900  -12.3450   20.3995 C   0  0  0  0  0  0  0  0  0  0  0  0
  -27.7533  -26.4352   21.9250 C   0  0  0  0  0  0  0  0  0  0  0  0
  -23.0608  -10.5448   20.8884 C   0  0  0  0  0  0  0  0  0  0  0  0
  -22.7210   -7.9531   21.8631 C   0  0  0  0  0  0  0  0  0  0  0  0
  -22.2293  -10.3153   21.9845 C   0  0  0  0  0  0  0  0  0  0  0  0
  -28.4066  -13.9443   20.3874 C   0  0  0  0  0  0  0  0  0  0  0  0
  -30.5743  -14.2356   20.1613 C   0  0  0  0  0  0  0  0  0  0  0  0
  -29.1769  -24.7625   18.1121 C   0  0  0  0  0  0  0  0  0  0  0  0
  -29.7734  -11.9760   19.4532 C   0  0  0  0  0  0  0  0  0  0  0  0
  -22.8951  -24.4495   20.5399 C   0  0  0  0  0  0  0  0  0  0  0  0
  -21.5691  -27.1847   21.6723 C   0  0  0  0  0  0  0  0  0  0  0  0
  -22.0260  -30.2542   23.0922 C   0  0  0  0  0  0  0  0  0  0  0  0
  -30.5600  -20.2078   20.3544 C   0  0  0  0  0  0  0  0  0  0  0  0
  -21.3311  -19.7211   19.4201 C   0  0  0  0  0  0  0  0  0  0  0  0
  -23.9564  -24.6166   22.8205 C   0  0  0  0  0  0  0  0  0  0  0  0
  -24.0732  -27.1878   21.3645 C   0  0  0  0  0  0  0  0  0  0  0  0
  -20.6770  -21.0983   19.4951 C   0  0  0  0  0  0  0  0  0  0  0  0
  -31.6867  -17.9974   22.9082 C   0  0  0  0  0  0  0  0  0  0  0  0
  -21.5082  -22.1262   18.7340 C   0  0  0  0  0  0  0  0  0  0  0  0
  -31.0858  -16.6473   22.5102 C   0  0  0  0  0  0  0  0  0  0  0  0
  -30.7381  -19.1540   22.5978 C   0  0  0  0  0  0  0  0  0  0  0  0
  -29.6449  -17.8490   20.8171 C   0  0  0  0  0  0  0  0  0  0  0  0
  -22.9073  -22.2666   19.3458 C   0  0  1  0  0  0  0  0  0  0  0  0
  -22.8247  -25.0732   21.9050 C   0  0  1  0  0  0  0  0  0  0  0  0
  -30.5902  -16.6593   21.0508 C   0  0  2  0  0  0  0  0  0  0  0  0
  -28.3637  -24.0354   15.3881 C   0  0  0  0  0  0  0  0  0  0  0  0
  -20.7561  -32.2764   23.8641 C   0  0  0  0  0  0  0  0  0  0  0  0
  -32.4386  -26.1266   20.5752 C   0  0  0  0  0  0  0  0  0  0  0  0
  -21.2125  -28.0646   18.7726 C   0  0  0  0  0  0  0  0  0  0  0  0
  -20.8470  -30.3995   19.5990 C   0  0  0  0  0  0  0  0  0  0  0  0
  -19.2740  -28.5818   20.2655 C   0  0  0  0  0  0  0  0  0  0  0  0
  -22.9547  -29.9162   25.8819 C   0  0  0  0  0  0  0  0  0  0  0  0
  -30.5057  -26.6541   19.0133 C   0  0  0  0  0  0  0  0  0  0  0  0
  -30.0664  -26.1369   21.4597 C   0  0  0  0  0  0  0  0  0  1  0  0
  -21.5975  -28.6369   21.2606 C   0  0  1  0  0  0  0  0  0  0  0  0
  -21.3436  -30.9326   24.2664 C   0  0  2  0  0  0  0  0  0  0  0  0
  -31.0433  -26.7475   20.4478 C   0  0  1  0  0  0  0  0  0  0  0  0
  -20.7566  -28.9066   19.9809 C   0  0  0  0  0  0  0  0  0  0  0  0
  -28.6227  -15.1917   20.8131 N   0  0  0  0  0  0  0  0  0  0  0  0
  -29.9501  -15.3393   20.6636 N   0  0  0  0  0  0  0  0  0  0  0  0
  -22.8053  -26.5244   21.7110 N   0  0  0  0  0  0  0  0  0  0  0  0
  -30.3138  -19.1032   21.1970 N   0  0  0  0  0  0  0  0  0  0  0  0
  -31.9071  -14.2130   19.9479 N   0  0  0  0  0  0  0  0  0  0  0  0
  -28.6516  -11.1464   19.3204 N   0  0  0  0  0  0  0  0  0  0  0  0
  -30.1415  -20.0318   19.0359 N   0  0  0  0  0  0  0  0  0  0  0  0
  -30.3879  -25.3085   18.5205 N   0  0  0  0  0  0  0  0  0  0  0  0
  -22.8544  -23.0683   20.5496 N   0  0  0  0  0  0  0  0  0  0  0  0
  -21.1708  -29.4006   22.4281 N   0  0  0  0  0  0  0  0  0  0  0  0
  -22.3172  -31.1574   25.3721 N   0  3  0  0  0  0  0  0  0  0  0  0
  -28.1022  -25.3570   18.1280 O   0  0  0  0  0  0  0  0  0  0  0  0
  -30.9040  -11.5353   19.1352 O   0  0  0  0  0  0  0  0  0  0  0  0
  -22.9785  -25.1682   19.5508 O   0  0  0  0  0  0  0  0  0  0  0  0
  -20.4905  -26.6577   21.9563 O   0  0  0  0  0  0  0  0  0  0  0  0
  -23.1992  -30.4637   22.7919 O   0  0  0  0  0  0  0  0  0  0  0  0
  -31.1267  -21.2237   20.7652 O   0  0  0  0  0  0  0  0  0  0  0  0
  -23.2298  -11.8306   20.4028 O   0  0  0  0  0  0  0  0  0  0  0  0
  -28.9545  -27.0114   21.6473 O   0  0  0  0  0  0  0  0  0  1  0  0
  -22.5568   -6.7084   22.3300 F   0  0  0  0  0  0  0  0  0  0  0  0
  -21.5901  -11.3357   22.5728 F   0  0  0  0  0  0  0  0  0  0  0  0
  1  2  1  0  0  0  0
  1  5  2  0  0  0  0
  2  6  2  0  0  0  0
  3 10  2  0  0  0  0
  3 18  1  0  0  0  0
  4 11  1  0  0  0  0
  4 18  2  0  0  0  0
  5 21  1  0  0  0  0
  6 23  1  0  0  0  0
  7 12  2  0  0  0  0
  7 22  1  0  0  0  0
  8  9  2  0  0  0  0
  8 25  1  0  0  0  0
  9 26  1  0  0  0  0
 10 27  1  0  0  0  0
 11 27  2  0  0  0  0
 12 28  1  0  0  0  0
 13 14  2  0  0  0  0
 13 29  1  0  0  0  0
 14 30  1  0  0  0  0
 15 19  1  0  0  0  0
 15 26  2  0  0  0  0
 16 24  1  0  0  0  0
 16 28  2  0  0  0  0
 17 30  2  0  0  0  0
 17 31  1  0  0  0  0
 18 32  1  0  0  0  0
 19 25  2  0  0  0  0
 19 34  1  0  0  0  0
 20 32  1  0  0  0  0
 20 33  2  0  0  0  0
 20 35  1  0  0  0  0
 21 23  2  0  0  0  0
 21 40  1  0  0  0  0
 22 24  2  0  0  0  0
 22 41  1  0  0  0  0
 23 49  1  0  0  0  0
 24 42  1  0  0  0  0
 25 52  1  0  0  0  0
 26 71  1  0  0  0  0
 27 82  1  0  0  0  0
 28 83  1  0  0  0  0
 29 31  2  0  0  0  0
 29 82  1  0  0  0  0
 30 84  1  0  0  0  0
 31 85  1  0  0  0  0
 32 65  2  0  0  0  0
 33 66  1  0  0  0  0
 33 69  1  0  0  0  0
 34 72  1  0  0  0  0
 34 76  2  0  0  0  0
 35 70  1  0  0  0  0
 35 77  2  0  0  0  0
 36 50  1  0  0  0  0
 36 73  1  0  0  0  0
 36 78  2  0  0  0  0
 37 61  1  0  0  0  0
 37 67  1  0  0  0  0
 37 79  2  0  0  0  0
 38 62  1  0  0  0  0
 38 74  1  0  0  0  0
 38 80  2  0  0  0  0
 39 68  1  0  0  0  0
 39 71  1  0  0  0  0
 39 81  2  0  0  0  0
 40 43  1  0  0  0  0
 41 50  1  0  0  0  0
 42 67  1  0  0  0  0
 43 45  1  0  0  0  0
 44 46  1  0  0  0  0
 44 47  1  0  0  0  0
 45 49  1  0  0  0  0
 46 51  1  0  0  0  0
 47 68  1  0  0  0  0
 48 51  1  0  0  0  0
 48 68  1  0  0  0  0
 49 73  1  0  0  0  0
 50 67  1  0  0  0  0
 51 66  1  0  0  0  0
 53 62  1  0  0  0  0
 54 63  1  0  0  0  0
 55 64  1  0  0  0  0
 56 64  1  0  0  0  0
 57 64  1  0  0  0  0
 58 75  1  0  0  0  0
 59 63  1  0  0  0  0
 59 72  1  0  0  0  0
 60 63  1  0  0  0  0
 60 83  1  0  0  0  0
 61 64  1  0  0  0  0
 61 74  1  0  0  0  0
 62 75  1  0  0  0  0
 65 66  1  0  0  0  0
M  CHG  1  75   1
M  ISO  4  39 100  60 101  71 100  83 101
M  END
> <Batch ID>
0053

> <Smiles>
CNC(C)C(=O)NC(C(=O)N1Cc2cc([101O:1][101CH2:1]C(C)CNC(=O)c3cc([100NH:0][100C:0](=O)N4CCCC(n5nc(-c6ccc(Oc7ccc(F)cc7F)cc6)c(C(N)=O)c5N)C4)ccc3C)ccc2CC1C(=O)NC1CCCc2ccccc21)C(C)(C)C

> <Shape>
0.246

> <Color>
0.064

> <Negative vol penalty>
0.000

$$$$

  -OEChem-04042322433D

 87 96  0     1  0  0  0  0  0999 V2000
  -27.9358  -38.1701   22.4343 C   0  0  0  0  0  0  0  0  0  0  0  0
  -28.2348  -37.2043   21.4787 C   0  0  0  0  0  0  0  0  0  0  0  0
  -24.3172   -9.9022   22.2766 C   0  0  0  0  0  0  0  0  0  0  0  0
  -24.7526  -11.5833   23.9562 C   0  0  0  0  0  0  0  0  0  0  0  0
  -30.0858  -20.7863   19.0479 C   0  0  0  0  0  0  0  0  0  0  0  0
  -27.5859  -37.7844   23.7277 C   0  0  0  0  0  0  0  0  0  0  0  0
  -28.1850  -35.8522   21.8161 C   0  0  0  0  0  0  0  0  0  0  0  0
  -26.6453  -29.4481   18.9995 C   0  0  0  0  0  0  0  0  0  0  0  0
  -29.9594  -19.3998   18.9633 C   0  0  0  0  0  0  0  0  0  0  0  0
  -24.0071   -8.9820   23.2779 C   0  0  0  0  0  0  0  0  0  0  0  0
  -24.4425  -10.6631   24.9576 C   0  0  0  0  0  0  0  0  0  0  0  0
  -27.1954  -28.1754   18.8533 C   0  0  0  0  0  0  0  0  0  0  0  0
  -21.3857   -8.2872   25.2973 C   0  0  0  0  0  0  0  0  0  0  0  0
  -20.2462   -7.5013   25.1252 C   0  0  0  0  0  0  0  0  0  0  0  0
  -27.5637  -19.6037   19.2010 C   0  0  0  0  0  0  0  0  0  0  0  0
  -26.5012  -27.6243   21.0969 C   0  0  0  0  0  0  0  0  0  0  0  0
  -21.6087   -5.5078   25.2071 C   0  0  0  0  0  0  0  0  0  0  0  0
  -24.6900  -11.2028   22.6157 C   0  0  0  0  0  0  0  0  0  0  0  0
  -28.9511  -21.5815   19.2092 C   0  0  0  0  0  0  0  0  0  0  0  0
  -27.6901  -20.9902   19.2857 C   0  0  0  0  0  0  0  0  0  0  0  0
  -24.1253  -13.0334   20.9312 C   0  0  0  0  0  0  0  0  0  0  0  0
  -27.5224  -36.4267   24.0786 C   0  0  0  0  0  0  0  0  0  0  0  0
  -26.0277  -29.8228   20.2014 C   0  0  0  0  0  0  0  0  0  0  0  0
  -27.8352  -35.4481   23.1158 C   0  0  0  0  0  0  0  0  0  0  0  0
  -25.9419  -28.9015   21.2549 C   0  0  0  0  0  0  0  0  0  0  0  0
  -28.6983  -18.8085   19.0398 C   0  0  0  0  0  0  0  0  0  0  0  0
  -24.0697   -9.3625   24.6184 C   0  0  0  0  0  0  0  0  0  0  0  0
  -27.1259  -27.2642   19.9031 C   0  0  0  0  0  0  0  0  0  0  0  0
  -22.6367   -7.6833   25.4242 C   0  0  0  0  0  0  0  0  0  0  0  0
  -20.3577   -6.1116   25.0801 C   0  0  0  0  0  0  0  0  0  0  0  0
  -22.7482   -6.2937   25.3791 C   0  0  0  0  0  0  0  0  0  0  0  0
  -25.0111  -12.1537   21.5818 C   0  0  0  0  0  0  0  0  0  0  0  0
  -24.9149  -13.7195   20.0410 C   0  0  0  0  0  0  0  0  0  0  0  0
  -29.1093  -23.7911   18.1789 C   0  0  0  0  0  0  0  0  0  0  0  0
  -29.1335  -23.0412   19.2936 C   0  0  0  0  0  0  0  0  0  0  0  0
  -29.3986  -23.7136   20.6044 C   0  0  0  0  0  0  0  0  0  0  0  0
  -26.4768  -21.7820   19.4547 C   0  0  0  0  0  0  0  0  0  0  0  0
  -25.4426  -21.8343   18.5886 C   0  0  0  0  0  0  0  0  0  0  0  0
  -22.7150  -13.2144   21.1150 C   0  0  0  0  0  0  0  0  0  0  0  0
  -26.5706  -32.0502   22.4032 C   0  0  0  0  0  0  0  0  0  0  0  0
  -23.7683  -30.9687   23.6278 C   0  0  0  0  0  0  0  0  0  0  0  0
  -21.5165  -28.4184   23.8971 C   0  0  0  0  0  0  0  0  0  0  0  0
  -29.5946  -16.4670   18.7939 C   0  0  0  0  0  0  0  0  0  0  0  0
  -27.1852  -36.0598   25.5021 C   0  0  0  0  0  0  0  0  0  0  0  0
  -25.4156  -31.1904   20.3338 C   0  0  0  0  0  0  0  0  0  0  0  0
  -25.2715  -29.2476   22.5585 C   0  0  0  0  0  0  0  0  0  0  0  0
  -29.2662  -25.2825   18.1335 C   0  0  0  0  0  0  0  0  0  0  0  0
  -29.7634  -25.1846   20.6063 C   0  0  0  0  0  0  0  0  0  0  0  0
  -26.7914  -34.5953   25.6766 C   0  0  0  0  0  0  0  0  0  0  0  0
  -29.6928  -12.9145   18.5762 C   0  0  0  0  0  0  0  0  0  0  0  0
  -27.7738  -33.6873   24.9437 C   0  0  0  0  0  0  0  0  0  0  0  0
  -28.4107  -12.4722   19.2852 C   0  0  0  0  0  0  0  0  0  0  0  0
  -30.3207  -14.1343   19.2483 C   0  0  0  0  0  0  0  0  0  0  0  0
  -28.1338  -14.8340   20.1411 C   0  0  0  0  0  0  0  0  0  0  0  0
  -27.7682  -33.9707   23.4367 C   0  0  1  0  0  0  0  0  0  0  0  0
  -25.2647  -31.6397   21.7838 C   0  0  1  0  0  0  0  0  0  0  0  0
  -27.4299  -13.6481   19.4615 C   0  0  2  0  0  0  0  0  0  0  0  0
  -29.0623  -25.9449   19.4911 C   0  0  2  0  0  0  0  0  0  1  0  0
  -24.2209  -22.6686   18.7991 C   0  0  0  0  0  0  0  0  0  0  0  0
  -19.3425  -27.8181   24.9973 C   0  0  0  0  0  0  0  0  0  0  0  0
  -25.2209  -30.5859   26.2836 C   0  0  0  0  0  0  0  0  0  0  0  0
  -23.3219  -29.1368   27.0336 C   0  0  0  0  0  0  0  0  0  0  0  0
  -22.9159  -31.5357   26.4827 C   0  0  0  0  0  0  0  0  0  0  0  0
  -20.1752  -28.0148   21.2900 C   0  0  0  0  0  0  0  0  0  0  0  0
  -23.3761  -29.8955   24.6144 C   0  0  1  0  0  0  0  0  0  0  0  0
  -20.0056  -28.3894   23.7537 C   0  0  2  0  0  0  0  0  0  0  0  0
  -23.7231  -30.2823   26.0798 C   0  0  0  0  0  0  0  0  0  0  0  0
  -26.2671  -12.2681   21.1423 N   0  0  0  0  0  0  0  0  0  0  0  0
  -26.1764  -13.2279   20.2059 N   0  0  0  0  0  0  0  0  0  0  0  0
  -24.6937  -30.5991   22.6415 N   0  0  0  0  0  0  0  0  0  0  0  0
  -29.3343  -15.2091   19.3776 N   0  0  0  0  0  0  0  0  0  0  0  0
  -24.6463  -14.6892   19.1411 N   0  0  0  0  0  0  0  0  0  0  0  0
  -22.0595  -12.4273   22.0716 N   0  0  0  0  0  0  0  0  0  0  0  0
  -28.5706  -17.3999   18.9540 N   0  0  0  0  0  0  0  0  0  0  0  0
  -26.6088  -33.3691   22.8136 N   0  0  0  0  0  0  0  0  0  0  0  0
  -21.9600  -29.6289   24.3861 N   0  0  0  0  0  0  0  0  0  0  0  0
  -19.6121  -27.5528   22.5848 N   0  3  0  0  0  0  0  0  0  0  0  0
  -29.3711  -23.0735   21.6555 O   0  0  0  0  0  0  0  0  0  0  0  0
  -22.0526  -14.0378   20.4392 O   0  0  0  0  0  0  0  0  0  0  0  0
  -27.4762  -31.2305   22.5028 O   0  0  0  0  0  0  0  0  0  0  0  0
  -23.2665  -32.0914   23.7242 O   0  0  0  0  0  0  0  0  0  0  0  0
  -22.2316  -27.4615   23.6079 O   0  0  0  0  0  0  0  0  0  0  0  0
  -30.6366  -16.6909   18.1726 O   0  0  0  0  0  0  0  0  0  0  0  0
  -23.7669   -8.4649   25.5957 O   0  0  0  0  0  0  0  0  0  0  0  0
  -27.6626  -26.0215   19.7632 O   0  0  0  0  0  0  0  0  0  1  0  0
  -19.2631   -5.3571   24.9164 F   0  0  0  0  0  0  0  0  0  0  0  0
  -23.9472   -5.7078   25.5016 F   0  0  0  0  0  0  0  0  0  0  0  0
  1  2  1  0  0  0  0
  1  6  2  0  0  0  0
  2  7  2  0  0  0  0
  3 10  2  0  0  0  0
  3 18  1  0  0  0  0
  4 11  1  0  0  0  0
  4 18  2  0  0  0  0
  5  9  2  0  0  0  0
  5 19  1  0  0  0  0
  6 22  1  0  0  0  0
  7 24  1  0  0  0  0
  8 12  2  0  0  0  0
  8 23  1  0  0  0  0
  9 26  1  0  0  0  0
 10 27  1  0  0  0  0
 11 27  2  0  0  0  0
 12 28  1  0  0  0  0
 13 14  2  0  0  0  0
 13 29  1  0  0  0  0
 14 30  1  0  0  0  0
 15 20  1  0  0  0  0
 15 26  2  0  0  0  0
 16 25  1  0  0  0  0
 16 28  2  0  0  0  0
 17 30  2  0  0  0  0
 17 31  1  0  0  0  0
 18 32  1  0  0  0  0
 19 20  2  0  0  0  0
 19 35  1  0  0  0  0
 20 37  1  0  0  0  0
 21 32  1  0  0  0  0
 21 33  2  0  0  0  0
 21 39  1  0  0  0  0
 22 24  2  0  0  0  0
 22 44  1  0  0  0  0
 23 25  2  0  0  0  0
 23 45  1  0  0  0  0
 24 55  1  0  0  0  0
 25 46  1  0  0  0  0
 26 74  1  0  0  0  0
 27 84  1  0  0  0  0
 28 85  1  0  0  0  0
 29 31  2  0  0  0  0
 29 84  1  0  0  0  0
 30 86  1  0  0  0  0
 31 87  1  0  0  0  0
 32 68  2  0  0  0  0
 33 69  1  0  0  0  0
 33 72  1  0  0  0  0
 34 35  2  0  0  0  0
 34 47  1  0  0  0  0
 35 36  1  0  0  0  0
 36 48  1  0  0  0  0
 36 78  2  0  0  0  0
 37 38  2  0  0  0  0
 38 59  1  0  0  0  0
 39 73  1  0  0  0  0
 39 79  2  0  0  0  0
 40 56  1  0  0  0  0
 40 75  1  0  0  0  0
 40 80  2  0  0  0  0
 41 65  1  0  0  0  0
 41 70  1  0  0  0  0
 41 81  2  0  0  0  0
 42 66  1  0  0  0  0
 42 76  1  0  0  0  0
 42 82  2  0  0  0  0
 43 71  1  0  0  0  0
 43 74  1  0  0  0  0
 43 83  2  0  0  0  0
 44 49  1  0  0  0  0
 45 56  1  0  0  0  0
 46 70  1  0  0  0  0
 47 58  1  0  0  0  0
 48 58  1  0  0  0  0
 49 51  1  0  0  0  0
 50 52  1  0  0  0  0
 50 53  1  0  0  0  0
 51 55  1  0  0  0  0
 52 57  1  0  0  0  0
 53 71  1  0  0  0  0
 54 57  1  0  0  0  0
 54 71  1  0  0  0  0
 55 75  1  0  0  0  0
 56 70  1  0  0  0  0
 57 69  1  0  0  0  0
 58 85  1  0  0  0  0
 60 66  1  0  0  0  0
 61 67  1  0  0  0  0
 62 67  1  0  0  0  0
 63 67  1  0  0  0  0
 64 77  1  0  0  0  0
 65 67  1  0  0  0  0
 65 76  1  0  0  0  0
 66 77  1  0  0  0  0
 68 69  1  0  0  0  0
M  CHG  1  77   1
M  ISO  4  43 100  58 101  74 100  85 101
M  END
> <Batch ID>
0053

> <Smiles>
CC=Cc1cc([100NH:0][100C:0](=O)N2CCCC(n3nc(-c4ccc(Oc5ccc(F)cc5F)cc4)c(C(N)=O)c3N)C2)ccc1C1=CC[101CH:1]([101O:1]c2ccc3c(c2)CN(C(=O)C(NC(=O)C(C)NC)C(C)(C)C)C(C(=O)NC2CCCc4ccccc42)C3)CC1=O

> <Shape>
0.332

> <Color>
0.115

> <Negative vol penalty>
0.000

$$$$

  -OEChem-04042322433D

 85 93  0     1  0  0  0  0  0999 V2000
  -32.6982  -21.2501   35.7257 C   0  0  0  0  0  0  0  0  0  0  0  0
  -33.0884  -20.1750   34.9337 C   0  0  0  0  0  0  0  0  0  0  0  0
  -23.1904   -9.8196   19.9315 C   0  0  0  0  0  0  0  0  0  0  0  0
  -23.5696   -9.9994   22.3108 C   0  0  0  0  0  0  0  0  0  0  0  0
  -33.3862  -11.7966   25.1115 C   0  0  0  0  0  0  0  0  0  0  0  0
  -31.3433  -21.5115   35.9258 C   0  0  0  0  0  0  0  0  0  0  0  0
  -32.1240  -19.3599   34.3422 C   0  0  0  0  0  0  0  0  0  0  0  0
  -33.1618  -18.3262   29.4946 C   0  0  0  0  0  0  0  0  0  0  0  0
  -32.6589  -12.1066   23.9625 C   0  0  0  0  0  0  0  0  0  0  0  0
  -22.4245   -8.6726   20.1402 C   0  0  0  0  0  0  0  0  0  0  0  0
  -22.8036   -8.8525   22.5195 C   0  0  0  0  0  0  0  0  0  0  0  0
  -34.1279  -17.3528   29.2439 C   0  0  0  0  0  0  0  0  0  0  0  0
  -23.2055   -5.5060   22.2544 C   0  0  0  0  0  0  0  0  0  0  0  0
  -23.7045   -4.5445   23.1331 C   0  0  0  0  0  0  0  0  0  0  0  0
  -32.3844  -15.7377   28.8301 C   0  0  0  0  0  0  0  0  0  0  0  0
  -30.6986  -12.5163   25.3139 C   0  0  0  0  0  0  0  0  0  0  0  0
  -21.7484   -4.8036   24.5273 C   0  0  0  0  0  0  0  0  0  0  0  0
  -23.7630  -10.4829   21.0168 C   0  0  0  0  0  0  0  0  0  0  0  0
  -32.7698  -11.8463   26.3618 C   0  0  0  0  0  0  0  0  0  0  0  0
  -24.1010  -12.9997   20.7736 C   0  0  0  0  0  0  0  0  0  0  0  0
  -30.3618  -20.7050   35.3286 C   0  0  0  0  0  0  0  0  0  0  0  0
  -31.7975  -18.0095   29.4255 C   0  0  0  0  0  0  0  0  0  0  0  0
  -30.7547  -19.6099   34.5356 C   0  0  0  0  0  0  0  0  0  0  0  0
  -31.4030  -16.7096   29.0779 C   0  0  0  0  0  0  0  0  0  0  0  0
  -31.4259  -12.2062   26.4630 C   0  0  0  0  0  0  0  0  0  0  0  0
  -31.3151  -12.4665   24.0636 C   0  0  0  0  0  0  0  0  0  0  0  0
  -22.2311   -8.1891   21.4342 C   0  0  0  0  0  0  0  0  0  0  0  0
  -33.7393  -16.0576   28.9144 C   0  0  0  0  0  0  0  0  0  0  0  0
  -21.9780   -6.1163   22.5121 C   0  0  0  0  0  0  0  0  0  0  0  0
  -22.9759   -4.1933   24.2696 C   0  0  0  0  0  0  0  0  0  0  0  0
  -21.2494   -5.7651   23.6485 C   0  0  0  0  0  0  0  0  0  0  0  0
  -24.5548  -11.6674   20.8018 C   0  0  0  0  0  0  0  0  0  0  0  0
  -25.2319  -13.7427   20.5381 C   0  0  0  0  0  0  0  0  0  0  0  0
  -33.5582  -11.5150   27.5656 C   0  0  0  0  0  0  0  0  0  0  0  0
  -22.7757  -13.5192   20.9451 C   0  0  0  0  0  0  0  0  0  0  0  0
  -29.3851  -18.0182   31.4953 C   0  0  0  0  0  0  0  0  0  0  0  0
  -35.1134  -14.3585   29.7766 C   0  0  0  0  0  0  0  0  0  1  0  0
  -27.6323  -17.3112   28.8590 C   0  0  0  0  0  0  0  0  0  0  0  0
  -27.5382  -16.0084   25.7061 C   0  0  0  0  0  0  0  0  0  0  0  0
  -31.0370  -12.7833   21.5800 C   0  0  0  0  0  0  0  0  0  0  0  0
  -28.9098  -20.9984   35.6124 C   0  0  0  0  0  0  0  0  0  0  0  0
  -30.7677  -19.0776   29.6727 C   0  0  0  0  0  0  0  0  0  0  0  0
  -29.9512  -16.3235   28.9707 C   0  0  0  0  0  0  0  0  0  0  0  0
  -27.9493  -20.3113   34.6452 C   0  0  0  0  0  0  0  0  0  0  0  0
  -29.5231  -13.4654   18.4303 C   0  0  0  0  0  0  0  0  0  0  0  0
  -28.3344  -18.8470   34.4603 C   0  0  0  0  0  0  0  0  0  0  0  0
  -28.0352  -13.2088   18.6801 C   0  0  0  0  0  0  0  0  0  0  0  0
  -30.4048  -12.4804   19.1959 C   0  0  0  0  0  0  0  0  0  0  0  0
  -28.6457  -12.1380   20.8864 C   0  0  0  0  0  0  0  0  0  0  0  0
  -29.7382  -18.7177   33.8568 C   0  0  1  0  0  0  0  0  0  0  0  0
  -29.4087  -18.5150   30.0775 C   0  0  1  0  0  0  0  0  0  0  0  0
  -27.7194  -13.1465   20.1874 C   0  0  2  0  0  0  0  0  0  0  0  0
  -30.7445  -12.2693   27.7907 C   0  0  0  0  0  0  0  0  0  0  0  0
  -25.9555  -15.5330   23.8176 C   0  0  0  0  0  0  0  0  0  0  0  0
  -26.5361  -14.9076   30.3859 C   0  0  0  0  0  0  0  0  0  0  0  0
  -25.7413  -13.9721   28.2038 C   0  0  0  0  0  0  0  0  0  0  0  0
  -24.8377  -16.1454   29.0302 C   0  0  0  0  0  0  0  0  0  0  0  0
  -29.0180  -17.7903   23.8639 C   0  0  0  0  0  0  0  0  0  0  0  0
  -36.1519  -13.3310   29.4140 C   0  0  0  0  0  0  0  0  0  0  0  0
  -35.5007  -12.0224   29.0029 C   0  0  0  0  0  0  0  0  0  0  0  0
  -27.2109  -16.0384   28.1651 C   0  0  1  0  0  0  0  0  0  0  0  0
  -26.9319  -16.5331   24.4171 C   0  0  2  0  0  0  0  0  0  0  0  0
  -26.1089  -15.2723   28.9501 C   0  0  0  0  0  0  0  0  0  0  0  0
  -25.8713  -11.5667   20.6001 N   0  0  0  0  0  0  0  0  0  0  0  0
  -34.6534  -14.5202   30.9732 N   0  0  0  0  0  0  0  0  0  0  0  0
  -26.2544  -12.8452   20.4429 N   0  0  0  0  0  0  0  0  0  0  0  0
  -28.9820  -17.4015   29.2277 N   0  0  0  0  0  0  0  0  0  0  0  0
  -30.0516  -12.4784   20.6172 N   0  0  0  0  0  0  0  0  0  0  0  0
  -25.4414  -15.0697   20.4051 N   0  0  0  0  0  0  0  0  0  0  0  0
  -33.1530  -10.4938   28.3205 N   0  0  0  0  0  0  0  0  0  0  0  0
  -21.7294  -12.6167   21.1793 N   0  0  0  0  0  0  0  0  0  0  0  0
  -30.5767  -12.7826   22.8963 N   0  0  0  0  0  0  0  0  0  0  0  0
  -29.7030  -18.9810   32.4342 N   0  0  0  0  0  0  0  0  0  0  0  0
  -26.8240  -16.4205   26.8113 N   0  0  0  0  0  0  0  0  0  0  0  0
  -34.6385  -12.2555   27.8424 N   0  3  0  0  0  0  0  0  0  0  0  0
  -28.0008  -16.8050   23.4150 N   0  3  0  0  0  0  0  0  0  0  0  0
  -22.5242  -14.7462   20.8759 O   0  0  0  0  0  0  0  0  0  0  0  0
  -29.0983  -16.8483   31.7209 O   0  0  0  0  0  0  0  0  0  0  0  0
  -26.7963  -18.1957   29.0600 O   0  0  0  0  0  0  0  0  0  0  0  0
  -28.5426  -15.3005   25.7300 O   0  0  0  0  0  0  0  0  0  0  0  0
  -32.1969  -13.0538   21.2582 O   0  0  0  0  0  0  0  0  0  0  0  0
  -21.4836   -7.0701   21.6383 O   0  0  0  0  0  0  0  0  0  0  0  0
  -34.6802  -15.1054   28.6698 O   0  0  0  0  0  0  0  0  0  1  0  0
  -23.4545   -3.2689   25.1125 F   0  0  0  0  0  0  0  0  0  0  0  0
  -20.0690   -6.3472   23.9008 F   0  0  0  0  0  0  0  0  0  0  0  0
  1  2  1  0  0  0  0
  1  6  2  0  0  0  0
  2  7  2  0  0  0  0
  3 10  2  0  0  0  0
  3 18  1  0  0  0  0
  4 11  1  0  0  0  0
  4 18  2  0  0  0  0
  5  9  2  0  0  0  0
  5 19  1  0  0  0  0
  6 21  1  0  0  0  0
  7 23  1  0  0  0  0
  8 12  2  0  0  0  0
  8 22  1  0  0  0  0
  9 26  1  0  0  0  0
 10 27  1  0  0  0  0
 11 27  2  0  0  0  0
 12 28  1  0  0  0  0
 13 14  2  0  0  0  0
 13 29  1  0  0  0  0
 14 30  1  0  0  0  0
 15 24  1  0  0  0  0
 15 28  2  0  0  0  0
 16 25  1  0  0  0  0
 16 26  2  0  0  0  0
 17 30  2  0  0  0  0
 17 31  1  0  0  0  0
 18 32  1  0  0  0  0
 19 25  2  0  0  0  0
 19 34  1  0  0  0  0
 20 32  1  0  0  0  0
 20 33  2  0  0  0  0
 20 35  1  0  0  0  0
 21 23  2  0  0  0  0
 21 41  1  0  0  0  0
 22 24  2  0  0  0  0
 22 42  1  0  0  0  0
 23 50  1  0  0  0  0
 24 43  1  0  0  0  0
 25 53  1  0  0  0  0
 26 72  1  0  0  0  0
 27 82  1  0  0  0  0
 28 83  1  0  0  0  0
 29 31  2  0  0  0  0
 29 82  1  0  0  0  0
 30 84  1  0  0  0  0
 31 85  1  0  0  0  0
 32 64  2  0  0  0  0
 33 66  1  0  0  0  0
 33 69  1  0  0  0  0
 34 70  1  0  0  0  0
 34 75  2  0  0  0  0
 35 71  1  0  0  0  0
 35 77  2  0  0  0  0
 36 51  1  0  0  0  0
 36 73  1  0  0  0  0
 36 78  2  0  0  0  0
 37 59  1  0  0  0  0
 37 65  2  0  0  0  0
 37 83  1  0  0  0  0
 38 61  1  0  0  0  0
 38 67  1  0  0  0  0
 38 79  2  0  0  0  0
 39 62  1  0  0  0  0
 39 74  1  0  0  0  0
 39 80  2  0  0  0  0
 40 68  1  0  0  0  0
 40 72  1  0  0  0  0
 40 81  2  0  0  0  0
 41 44  1  0  0  0  0
 42 51  1  0  0  0  0
 43 67  1  0  0  0  0
 44 46  1  0  0  0  0
 45 47  1  0  0  0  0
 45 48  1  0  0  0  0
 46 50  1  0  0  0  0
 47 52  1  0  0  0  0
 48 68  1  0  0  0  0
 49 52  1  0  0  0  0
 49 68  1  0  0  0  0
 50 73  1  0  0  0  0
 51 67  1  0  0  0  0
 52 66  1  0  0  0  0
 54 62  1  0  0  0  0
 55 63  1  0  0  0  0
 56 63  1  0  0  0  0
 57 63  1  0  0  0  0
 58 76  1  0  0  0  0
 59 60  1  0  0  0  0
 60 75  1  0  0  0  0
 61 63  1  0  0  0  0
 61 74  1  0  0  0  0
 62 76  1  0  0  0  0
 64 66  1  0  0  0  0
M  CHG  2  75   1  76   1
M  ISO  4  37 101  40 100  72 100  83 101
M  END
> <Batch ID>
0053

> <Smiles>
CNC(C)C(=O)NC(C(=O)N1Cc2cc([101O:1][101C:1](=N)CCNC(=N)c3ccc([100NH:0][100C:0](=O)N4CCCC(n5nc(-c6ccc(Oc7ccc(F)cc7F)cc6)c(C(N)=O)c5N)C4)cc3C)ccc2CC1C(=O)NC1CCCc2ccccc21)C(C)(C)C

> <Shape>
0.141

> <Color>
0.178

> <Negative vol penalty>
0.000

$$$$

  -OEChem-04042322433D

 83 91  0     1  0  0  0  0  0999 V2000
  -40.8375  -26.2962   11.7960 C   0  0  0  0  0  0  0  0  0  0  0  0
  -40.3659  -25.1605   12.4467 C   0  0  0  0  0  0  0  0  0  0  0  0
  -23.0760   -9.8673   19.9413 C   0  0  0  0  0  0  0  0  0  0  0  0
  -23.8349   -9.8753   22.2350 C   0  0  0  0  0  0  0  0  0  0  0  0
  -41.1610  -27.4357   12.5314 C   0  0  0  0  0  0  0  0  0  0  0  0
  -40.2187  -25.1634   13.8333 C   0  0  0  0  0  0  0  0  0  0  0  0
  -35.8973  -22.2868   17.0825 C   0  0  0  0  0  0  0  0  0  0  0  0
  -29.8775  -17.4583   23.1382 C   0  0  0  0  0  0  0  0  0  0  0  0
  -22.3320   -8.7143   20.1914 C   0  0  0  0  0  0  0  0  0  0  0  0
  -23.0909   -8.7223   22.4851 C   0  0  0  0  0  0  0  0  0  0  0  0
  -35.8944  -21.0771   17.7755 C   0  0  0  0  0  0  0  0  0  0  0  0
  -19.8624   -7.9249   23.0866 C   0  0  0  0  0  0  0  0  0  0  0  0
  -19.1050   -7.8855   24.2572 C   0  0  0  0  0  0  0  0  0  0  0  0
  -30.4641  -18.3424   24.0437 C   0  0  0  0  0  0  0  0  0  0  0  0
  -36.3919  -22.2547   19.8212 C   0  0  0  0  0  0  0  0  0  0  0  0
  -32.0621  -16.6095   22.5516 C   0  0  0  0  0  0  0  0  0  0  0  0
  -20.3460   -5.9484   24.9951 C   0  0  0  0  0  0  0  0  0  0  0  0
  -23.8275  -10.4478   20.9630 C   0  0  0  0  0  0  0  0  0  0  0  0
  -24.1695  -12.9729   20.8420 C   0  0  0  0  0  0  0  0  0  0  0  0
  -41.0085  -27.4557   13.9267 C   0  0  0  0  0  0  0  0  0  0  0  0
  -36.1588  -23.4905   17.7528 C   0  0  0  0  0  0  0  0  0  0  0  0
  -40.5417  -26.3038   14.5881 C   0  0  0  0  0  0  0  0  0  0  0  0
  -36.3951  -23.4787   19.1349 C   0  0  0  0  0  0  0  0  0  0  0  0
  -32.6488  -17.4936   23.4571 C   0  0  0  0  0  0  0  0  0  0  0  0
  -30.6765  -16.5918   22.3922 C   0  0  0  0  0  0  0  0  0  0  0  0
  -22.3394   -8.1418   21.4633 C   0  0  0  0  0  0  0  0  0  0  0  0
  -36.1446  -21.0606   19.1446 C   0  0  0  0  0  0  0  0  0  0  0  0
  -20.8616   -6.9760   22.8702 C   0  0  0  0  0  0  0  0  0  0  0  0
  -19.3467   -6.8973   25.2114 C   0  0  0  0  0  0  0  0  0  0  0  0
  -21.1034   -5.9877   23.8244 C   0  0  0  0  0  0  0  0  0  0  0  0
  -31.8497  -18.3601   24.2031 C   0  0  0  0  0  0  0  0  0  0  0  0
  -24.5968  -11.6386   20.7051 C   0  0  0  0  0  0  0  0  0  0  0  0
  -25.2618  -13.7222   20.4789 C   0  0  0  0  0  0  0  0  0  0  0  0
  -22.8989  -13.4890   21.2601 C   0  0  0  0  0  0  0  0  0  0  0  0
  -38.4051  -25.7300   17.5477 C   0  0  0  0  0  0  0  0  0  0  0  0
  -36.5302  -27.2575   19.7096 C   0  0  0  0  0  0  0  0  0  0  0  0
  -35.1302  -18.6050   21.6122 C   0  0  0  0  0  0  0  0  0  0  0  0
  -34.1625  -27.0391   22.1576 C   0  0  0  0  0  0  0  0  0  0  0  0
  -30.7280  -14.7677   20.6555 C   0  0  0  0  0  0  0  0  0  0  0  0
  -41.4160  -28.6949   14.6838 C   0  0  0  0  0  0  0  0  0  0  0  0
  -36.1320  -24.7899   16.9957 C   0  0  0  0  0  0  0  0  0  0  0  0
  -36.6612  -24.7455   19.9047 C   0  0  0  0  0  0  0  0  0  0  0  0
  -40.8764  -28.7418   16.1110 C   0  0  0  0  0  0  0  0  0  0  0  0
  -29.6145  -12.3528   18.2878 C   0  0  0  0  0  0  0  0  0  0  0  0
  -41.0953  -27.4031   16.8087 C   0  0  0  0  0  0  0  0  0  0  0  0
  -28.1747  -12.0615   18.7169 C   0  0  0  0  0  0  0  0  0  0  0  0
  -30.5291  -12.5822   19.4897 C   0  0  0  0  0  0  0  0  0  0  0  0
  -28.6216  -13.3073   20.8698 C   0  0  0  0  0  0  0  0  0  0  0  0
  -40.3450  -26.2763   16.0884 C   0  0  1  0  0  0  0  0  0  0  0  0
  -36.9186  -25.8999   17.6858 C   0  0  1  0  0  0  0  0  0  0  0  0
  -27.6493  -13.1335   19.6917 C   0  0  2  0  0  0  0  0  0  0  0  0
  -32.8564  -28.4540   23.7668 C   0  0  0  0  0  0  0  0  0  0  0  0
  -39.0020  -27.5229   21.4787 C   0  0  0  0  0  0  0  0  0  0  0  0
  -37.4854  -28.0557   23.3981 C   0  0  0  0  0  0  0  0  0  0  0  0
  -37.5478  -29.5562   21.4063 C   0  0  0  0  0  0  0  0  0  0  0  0
  -31.5821  -26.2277   20.9569 C   0  0  0  0  0  0  0  0  0  0  0  0
  -34.1433  -17.4817   23.5996 C   0  0  0  0  0  0  0  0  0  0  0  0
  -35.7500  -19.9214   21.1946 C   0  0  0  0  0  0  0  0  0  1  0  0
  -36.4442  -27.2895   21.2164 C   0  0  1  0  0  0  0  0  0  0  0  0
  -32.8772  -27.8133   22.3878 C   0  0  2  0  0  0  0  0  0  0  0  0
  -37.6168  -28.0818   21.8603 C   0  0  0  0  0  0  0  0  0  0  0  0
  -25.8618  -11.5425   20.2874 N   0  0  0  0  0  0  0  0  0  0  0  0
  -26.2388  -12.8260   20.1586 N   0  0  0  0  0  0  0  0  0  0  0  0
  -36.6305  -25.9900   19.1187 N   0  0  0  0  0  0  0  0  0  0  0  0
  -29.9698  -13.6134   20.3664 N   0  0  0  0  0  0  0  0  0  0  0  0
  -25.4723  -15.0536   20.4053 N   0  0  0  0  0  0  0  0  0  0  0  0
  -21.8868  -12.5800   21.5974 N   0  0  0  0  0  0  0  0  0  0  0  0
  -30.0803  -15.6931   21.4732 N   0  0  0  0  0  0  0  0  0  0  0  0
  -38.9357  -26.3179   16.4153 N   0  0  0  0  0  0  0  0  0  0  0  0
  -34.7576  -18.6148   22.9473 N   0  0  0  0  0  0  0  0  0  0  0  0
  -35.1211  -27.8132   21.5386 N   0  0  0  0  0  0  0  0  0  0  0  0
  -31.6993  -26.9076   22.2726 N   0  3  0  0  0  0  0  0  0  0  0  0
  -22.6626  -14.7196   21.3168 O   0  0  0  0  0  0  0  0  0  0  0  0
  -39.0250  -25.1126   18.4057 O   0  0  0  0  0  0  0  0  0  0  0  0
  -36.5021  -28.3177   19.0796 O   0  0  0  0  0  0  0  0  0  0  0  0
  -34.9899  -17.6617   20.8387 O   0  0  0  0  0  0  0  0  0  0  0  0
  -34.3035  -25.8662   22.4967 O   0  0  0  0  0  0  0  0  0  0  0  0
  -31.8573  -14.9362   20.1883 O   0  0  0  0  0  0  0  0  0  0  0  0
  -21.6133   -7.0169   21.7079 O   0  0  0  0  0  0  0  0  0  0  0  0
  -36.1429  -19.8811   19.8233 O   0  0  0  0  0  0  0  0  0  1  0  0
  -18.6203   -6.8606   26.3362 F   0  0  0  0  0  0  0  0  0  0  0  0
  -22.0628   -5.0741   23.6227 F   0  0  0  0  0  0  0  0  0  0  0  0
  -32.5393  -19.4673   25.3335 Cl  0  0  0  0  0  0  0  0  0  0  0  0
  1  2  1  0  0  0  0
  1  5  2  0  0  0  0
  2  6  2  0  0  0  0
  3  9  2  0  0  0  0
  3 18  1  0  0  0  0
  4 10  1  0  0  0  0
  4 18  2  0  0  0  0
  5 20  1  0  0  0  0
  6 22  1  0  0  0  0
  7 11  2  0  0  0  0
  7 21  1  0  0  0  0
  8 14  2  0  0  0  0
  8 25  1  0  0  0  0
  9 26  1  0  0  0  0
 10 26  2  0  0  0  0
 11 27  1  0  0  0  0
 12 13  2  0  0  0  0
 12 28  1  0  0  0  0
 13 29  1  0  0  0  0
 14 31  1  0  0  0  0
 15 23  1  0  0  0  0
 15 27  2  0  0  0  0
 16 24  1  0  0  0  0
 16 25  2  0  0  0  0
 17 29  2  0  0  0  0
 17 30  1  0  0  0  0
 18 32  1  0  0  0  0
 19 32  1  0  0  0  0
 19 33  2  0  0  0  0
 19 34  1  0  0  0  0
 20 22  2  0  0  0  0
 20 40  1  0  0  0  0
 21 23  2  0  0  0  0
 21 41  1  0  0  0  0
 22 49  1  0  0  0  0
 23 42  1  0  0  0  0
 24 31  2  0  0  0  0
 24 57  1  0  0  0  0
 25 68  1  0  0  0  0
 26 79  1  0  0  0  0
 27 80  1  0  0  0  0
 28 30  2  0  0  0  0
 28 79  1  0  0  0  0
 29 81  1  0  0  0  0
 30 82  1  0  0  0  0
 31 83  1  0  0  0  0
 32 62  2  0  0  0  0
 33 63  1  0  0  0  0
 33 66  1  0  0  0  0
 34 67  1  0  0  0  0
 34 73  2  0  0  0  0
 35 50  1  0  0  0  0
 35 69  1  0  0  0  0
 35 74  2  0  0  0  0
 36 59  1  0  0  0  0
 36 64  1  0  0  0  0
 36 75  2  0  0  0  0
 37 58  1  0  0  0  0
 37 70  1  0  0  0  0
 37 76  2  0  0  0  0
 38 60  1  0  0  0  0
 38 71  1  0  0  0  0
 38 77  2  0  0  0  0
 39 65  1  0  0  0  0
 39 68  1  0  0  0  0
 39 78  2  0  0  0  0
 40 43  1  0  0  0  0
 41 50  1  0  0  0  0
 42 64  1  0  0  0  0
 43 45  1  0  0  0  0
 44 46  1  0  0  0  0
 44 47  1  0  0  0  0
 45 49  1  0  0  0  0
 46 51  1  0  0  0  0
 47 65  1  0  0  0  0
 48 51  1  0  0  0  0
 48 65  1  0  0  0  0
 49 69  1  0  0  0  0
 50 64  1  0  0  0  0
 51 63  1  0  0  0  0
 52 60  1  0  0  0  0
 53 61  1  0  0  0  0
 54 61  1  0  0  0  0
 55 61  1  0  0  0  0
 56 72  1  0  0  0  0
 57 70  1  0  0  0  0
 58 80  1  0  0  0  0
 59 61  1  0  0  0  0
 59 71  1  0  0  0  0
 60 72  1  0  0  0  0
 62 63  1  0  0  0  0
M  CHG  1  72   1
M  ISO  4  39 100  58 101  68 100  80 101
M  END
> <Batch ID>
0053

> <Smiles>
CNC(C)C(=O)NC(C(=O)N1Cc2cc([101O:1][101CH2:1]C(=O)NCc3cc([100NH:0][100C:0](=O)N4CCCC(n5nc(-c6ccc(Oc7ccc(F)cc7F)cc6)c(C(N)=O)c5N)C4)ccc3Cl)ccc2CC1C(=O)NC1CCCc2ccccc21)C(C)(C)C

> <Shape>
0.171

> <Color>
0.191

> <Negative vol penalty>
0.000

$$$$

  -OEChem-04042322433D

 85 93  0     1  0  0  0  0  0999 V2000
  -27.9009  -37.2074   24.9572 C   0  0  0  0  0  0  0  0  0  0  0  0
  -28.5056  -36.0890   24.3926 C   0  0  0  0  0  0  0  0  0  0  0  0
  -24.0299   -8.5088   20.3668 C   0  0  0  0  0  0  0  0  0  0  0  0
  -23.2003  -10.6723   21.0510 C   0  0  0  0  0  0  0  0  0  0  0  0
  -26.5976  -37.1222   25.4450 C   0  0  0  0  0  0  0  0  0  0  0  0
  -27.8075  -34.8842   24.3164 C   0  0  0  0  0  0  0  0  0  0  0  0
  -27.1230  -29.0811   20.1726 C   0  0  0  0  0  0  0  0  0  0  0  0
  -28.1420  -18.2511   22.4485 C   0  0  0  0  0  0  0  0  0  0  0  0
  -30.4712  -17.8180   22.9218 C   0  0  0  0  0  0  0  0  0  0  0  0
  -28.1053  -17.1373   21.6097 C   0  0  0  0  0  0  0  0  0  0  0  0
  -30.4345  -16.7041   22.0829 C   0  0  0  0  0  0  0  0  0  0  0  0
  -23.1667   -7.8915   21.2720 C   0  0  0  0  0  0  0  0  0  0  0  0
  -22.3371  -10.0550   21.9563 C   0  0  0  0  0  0  0  0  0  0  0  0
  -27.1603  -27.6897   20.2531 C   0  0  0  0  0  0  0  0  0  0  0  0
  -23.0558   -7.2960   24.5973 C   0  0  0  0  0  0  0  0  0  0  0  0
  -23.5727   -6.2695   25.3876 C   0  0  0  0  0  0  0  0  0  0  0  0
  -24.8856  -27.6812   21.0561 C   0  0  0  0  0  0  0  0  0  0  0  0
  -21.9569   -4.7359   24.4524 C   0  0  0  0  0  0  0  0  0  0  0  0
  -24.0467   -9.8992   20.2563 C   0  0  0  0  0  0  0  0  0  0  0  0
  -24.6722  -10.8606   17.9777 C   0  0  0  0  0  0  0  0  0  0  0  0
  -25.8797  -35.9184   25.3660 C   0  0  0  0  0  0  0  0  0  0  0  0
  -25.9684  -29.7848   20.5443 C   0  0  0  0  0  0  0  0  0  0  0  0
  -26.4938  -34.7825   24.8048 C   0  0  0  0  0  0  0  0  0  0  0  0
  -24.8353  -29.0813   20.9770 C   0  0  0  0  0  0  0  0  0  0  0  0
  -29.3250  -18.5915   23.1045 C   0  0  0  0  0  0  0  0  0  0  0  0
  -29.2515  -16.3638   21.4269 C   0  0  0  0  0  0  0  0  0  0  0  0
  -22.3203   -8.6646   22.0668 C   0  0  0  0  0  0  0  0  0  0  0  0
  -26.0424  -26.9897   20.6976 C   0  0  0  0  0  0  0  0  0  0  0  0
  -21.9894   -7.0425   23.7346 C   0  0  0  0  0  0  0  0  0  0  0  0
  -23.0233   -4.9894   25.3152 C   0  0  0  0  0  0  0  0  0  0  0  0
  -21.4400   -5.7625   23.6621 C   0  0  0  0  0  0  0  0  0  0  0  0
  -24.9385  -10.5375   19.3217 C   0  0  0  0  0  0  0  0  0  0  0  0
  -25.8305  -11.4474   17.5296 C   0  0  0  0  0  0  0  0  0  0  0  0
  -23.4841  -10.6494   17.2034 C   0  0  0  0  0  0  0  0  0  0  0  0
  -25.2790  -31.9490   22.7680 C   0  0  0  0  0  0  0  0  0  0  0  0
  -22.4161  -32.0316   21.2451 C   0  0  0  0  0  0  0  0  0  0  0  0
  -28.2347  -21.7368   22.9098 C   0  0  0  0  0  0  0  0  0  0  0  0
  -20.1478  -30.4413   19.2520 C   0  0  0  0  0  0  0  0  0  0  0  0
  -30.2621  -14.3588   20.2845 C   0  0  0  0  0  0  0  0  0  0  0  0
  -24.4902  -35.8622   25.9496 C   0  0  0  0  0  0  0  0  0  0  0  0
  -25.9352  -31.2840   20.4264 C   0  0  0  0  0  0  0  0  0  0  0  0
  -23.5644  -29.7885   21.3685 C   0  0  0  0  0  0  0  0  0  0  0  0
  -23.6857  -34.6486   25.4911 C   0  0  0  0  0  0  0  0  0  0  0  0
  -30.5619  -11.4385   18.2697 C   0  0  0  0  0  0  0  0  0  0  0  0
  -24.5282  -33.3809   25.5908 C   0  0  0  0  0  0  0  0  0  0  0  0
  -29.1287  -10.9089   18.1835 C   0  0  0  0  0  0  0  0  0  0  0  0
  -30.8645  -12.0348   19.6433 C   0  0  0  0  0  0  0  0  0  0  0  0
  -28.4789  -12.5249   20.0146 C   0  0  0  0  0  0  0  0  0  0  0  0
  -25.7604  -33.4645   24.6817 C   0  0  1  0  0  0  0  0  0  0  0  0
  -24.8806  -31.9303   21.3194 C   0  0  1  0  0  0  0  0  0  0  0  0
  -28.1068  -11.9733   18.6287 C   0  0  2  0  0  0  0  0  0  0  0  0
  -17.8851  -30.7464   18.2107 C   0  0  0  0  0  0  0  0  0  0  0  0
  -21.1037  -31.5074   23.9493 C   0  0  0  0  0  0  0  0  0  0  0  0
  -19.0062  -30.8849   22.7324 C   0  0  0  0  0  0  0  0  0  0  0  0
  -19.9260  -33.1946   22.5277 C   0  0  0  0  0  0  0  0  0  0  0  0
  -30.7310  -21.5083   22.8887 C   0  0  0  0  0  0  0  0  0  0  0  0
  -21.2467  -30.1996   16.5146 C   0  0  0  0  0  0  0  0  0  0  0  0
  -29.3644  -19.7904   24.0074 C   0  0  0  0  0  0  0  0  0  0  0  0
  -28.4341  -23.0257   22.1229 C   0  0  0  0  0  0  0  0  0  0  0  0
  -27.1155  -23.7202   21.7893 C   0  0  0  0  0  0  0  0  0  0  0  0
  -27.3416  -25.0282   21.0448 C   0  0  0  0  0  0  0  0  0  1  0  0
  -21.1128  -31.2814   21.3774 C   0  0  1  0  0  0  0  0  0  0  0  0
  -19.3859  -30.9056   18.0238 C   0  0  2  0  0  0  0  0  0  0  0  0
  -20.3116  -31.7036   22.6412 C   0  0  0  0  0  0  0  0  0  0  0  0
  -26.1694  -10.8895   19.7026 N   0  0  0  0  0  0  0  0  0  0  0  0
  -26.6869  -11.4399   18.5911 N   0  0  0  0  0  0  0  0  0  0  0  0
  -23.5836  -31.2551   21.2419 N   0  0  0  0  0  0  0  0  0  0  0  0
  -29.8578  -13.0380   19.9964 N   0  0  0  0  0  0  0  0  0  0  0  0
  -26.1898  -11.9637   16.3352 N   0  0  0  0  0  0  0  0  0  0  0  0
  -22.3863  -10.0329   17.8190 N   0  0  0  0  0  0  0  0  0  0  0  0
  -29.2145  -15.2321   20.5750 N   0  0  0  0  0  0  0  0  0  0  0  0
  -25.3901  -33.2175   23.3046 N   0  0  0  0  0  0  0  0  0  0  0  0
  -20.3973  -31.4816   20.1219 N   0  0  0  0  0  0  0  0  0  0  0  0
  -29.3969  -21.0388   23.2554 N   0  0  0  0  0  0  0  0  0  0  0  0
  -19.7973  -30.1150   16.8294 N   0  3  0  0  0  0  0  0  0  0  0  0
  -23.4043  -10.9822   15.9966 O   0  0  0  0  0  0  0  0  0  0  0  0
  -25.4700  -30.8908   23.3558 O   0  0  0  0  0  0  0  0  0  0  0  0
  -22.3986  -33.2606   21.1410 O   0  0  0  0  0  0  0  0  0  0  0  0
  -27.1000  -21.3567   23.2102 O   0  0  0  0  0  0  0  0  0  0  0  0
  -20.4845  -29.2719   19.4242 O   0  0  0  0  0  0  0  0  0  0  0  0
  -31.4480  -14.6970   20.2477 O   0  0  0  0  0  0  0  0  0  0  0  0
  -21.4778   -8.0626   22.9501 O   0  0  0  0  0  0  0  0  0  0  0  0
  -26.0764  -25.6317   20.7777 O   0  0  0  0  0  0  0  0  0  1  0  0
  -23.5208   -4.0033   26.0730 F   0  0  0  0  0  0  0  0  0  0  0  0
  -20.4162   -5.5126   22.8344 F   0  0  0  0  0  0  0  0  0  0  0  0
  1  2  1  0  0  0  0
  1  5  2  0  0  0  0
  2  6  2  0  0  0  0
  3 12  2  0  0  0  0
  3 19  1  0  0  0  0
  4 13  1  0  0  0  0
  4 19  2  0  0  0  0
  5 21  1  0  0  0  0
  6 23  1  0  0  0  0
  7 14  2  0  0  0  0
  7 22  1  0  0  0  0
  8 10  2  0  0  0  0
  8 25  1  0  0  0  0
  9 11  1  0  0  0  0
  9 25  2  0  0  0  0
 10 26  1  0  0  0  0
 11 26  2  0  0  0  0
 12 27  1  0  0  0  0
 13 27  2  0  0  0  0
 14 28  1  0  0  0  0
 15 16  2  0  0  0  0
 15 29  1  0  0  0  0
 16 30  1  0  0  0  0
 17 24  1  0  0  0  0
 17 28  2  0  0  0  0
 18 30  2  0  0  0  0
 18 31  1  0  0  0  0
 19 32  1  0  0  0  0
 20 32  1  0  0  0  0
 20 33  2  0  0  0  0
 20 34  1  0  0  0  0
 21 23  2  0  0  0  0
 21 40  1  0  0  0  0
 22 24  2  0  0  0  0
 22 41  1  0  0  0  0
 23 49  1  0  0  0  0
 24 42  1  0  0  0  0
 25 58  1  0  0  0  0
 26 71  1  0  0  0  0
 27 82  1  0  0  0  0
 28 83  1  0  0  0  0
 29 31  2  0  0  0  0
 29 82  1  0  0  0  0
 30 84  1  0  0  0  0
 31 85  1  0  0  0  0
 32 65  2  0  0  0  0
 33 66  1  0  0  0  0
 33 69  1  0  0  0  0
 34 70  1  0  0  0  0
 34 76  2  0  0  0  0
 35 50  1  0  0  0  0
 35 72  1  0  0  0  0
 35 77  2  0  0  0  0
 36 62  1  0  0  0  0
 36 67  1  0  0  0  0
 36 78  2  0  0  0  0
 37 59  1  0  0  0  0
 37 74  1  0  0  0  0
 37 79  2  0  0  0  0
 38 63  1  0  0  0  0
 38 73  1  0  0  0  0
 38 80  2  0  0  0  0
 39 68  1  0  0  0  0
 39 71  1  0  0  0  0
 39 81  2  0  0  0  0
 40 43  1  0  0  0  0
 41 50  1  0  0  0  0
 42 67  1  0  0  0  0
 43 45  1  0  0  0  0
 44 46  1  0  0  0  0
 44 47  1  0  0  0  0
 45 49  1  0  0  0  0
 46 51  1  0  0  0  0
 47 68  1  0  0  0  0
 48 51  1  0  0  0  0
 48 68  1  0  0  0  0
 49 72  1  0  0  0  0
 50 67  1  0  0  0  0
 51 66  1  0  0  0  0
 52 63  1  0  0  0  0
 53 64  1  0  0  0  0
 54 64  1  0  0  0  0
 55 64  1  0  0  0  0
 56 74  1  0  0  0  0
 57 75  1  0  0  0  0
 58 74  1  0  0  0  0
 59 60  1  0  0  0  0
 60 61  1  0  0  0  0
 61 83  1  0  0  0  0
 62 64  1  0  0  0  0
 62 73  1  0  0  0  0
 63 75  1  0  0  0  0
 65 66  1  0  0  0  0
M  CHG  1  75   1
M  ISO  4  39 100  61 101  71 100  83 101
M  END
> <Batch ID>
0053

> <Smiles>
CNC(C)C(=O)NC(C(=O)N1Cc2cc([101O:1][101CH2:1]CCC(=O)N(C)Cc3ccc([100NH:0][100C:0](=O)N4CCCC(n5nc(-c6ccc(Oc7ccc(F)cc7F)cc6)c(C(N)=O)c5N)C4)cc3)ccc2CC1C(=O)NC1CCCc2ccccc21)C(C)(C)C

> <Shape>
0.265

> <Color>
0.089

> <Negative vol penalty>
0.000

$$$$

  -OEChem-04042322433D

 85 93  0     1  0  0  0  0  0999 V2000
  -31.5540   -2.0727   38.0490 C   0  0  0  0  0  0  0  0  0  0  0  0
  -31.6009   -3.0402   37.0505 C   0  0  0  0  0  0  0  0  0  0  0  0
  -23.1908   -9.8194   19.9317 C   0  0  0  0  0  0  0  0  0  0  0  0
  -23.5702   -9.9992   22.3109 C   0  0  0  0  0  0  0  0  0  0  0  0
  -30.9803   -0.8293   37.7870 C   0  0  0  0  0  0  0  0  0  0  0  0
  -31.0750   -2.7645   35.7888 C   0  0  0  0  0  0  0  0  0  0  0  0
  -28.2523   -6.6966   32.0370 C   0  0  0  0  0  0  0  0  0  0  0  0
  -33.3866  -11.7981   25.1119 C   0  0  0  0  0  0  0  0  0  0  0  0
  -32.6595  -12.1072   23.9624 C   0  0  0  0  0  0  0  0  0  0  0  0
  -22.4250   -8.6725   20.1404 C   0  0  0  0  0  0  0  0  0  0  0  0
  -22.8044   -8.8522   22.5197 C   0  0  0  0  0  0  0  0  0  0  0  0
  -28.6967   -7.4237   30.9335 C   0  0  0  0  0  0  0  0  0  0  0  0
  -23.2065   -5.5058   22.2544 C   0  0  0  0  0  0  0  0  0  0  0  0
  -23.7057   -4.5444   23.1330 C   0  0  0  0  0  0  0  0  0  0  0  0
  -27.8544   -5.7027   29.4679 C   0  0  0  0  0  0  0  0  0  0  0  0
  -30.6988  -12.5178   25.3131 C   0  0  0  0  0  0  0  0  0  0  0  0
  -21.7497   -4.8032   24.5274 C   0  0  0  0  0  0  0  0  0  0  0  0
  -23.7634  -10.4828   21.0169 C   0  0  0  0  0  0  0  0  0  0  0  0
  -24.1011  -12.9997   20.7738 C   0  0  0  0  0  0  0  0  0  0  0  0
  -30.4384   -0.5416   36.5244 C   0  0  0  0  0  0  0  0  0  0  0  0
  -27.6142   -5.4599   31.8644 C   0  0  0  0  0  0  0  0  0  0  0  0
  -30.4947   -1.5155   35.5092 C   0  0  0  0  0  0  0  0  0  0  0  0
  -27.4005   -4.9632   30.5707 C   0  0  0  0  0  0  0  0  0  0  0  0
  -32.7698  -11.8487   26.3620 C   0  0  0  0  0  0  0  0  0  0  0  0
  -31.4260  -12.2086   26.4626 C   0  0  0  0  0  0  0  0  0  0  0  0
  -31.3156  -12.4671   24.0630 C   0  0  0  0  0  0  0  0  0  0  0  0
  -22.2318   -8.1889   21.4344 C   0  0  0  0  0  0  0  0  0  0  0  0
  -28.5004   -6.9254   29.6489 C   0  0  0  0  0  0  0  0  0  0  0  0
  -21.9790   -6.1160   22.5122 C   0  0  0  0  0  0  0  0  0  0  0  0
  -22.9773   -4.1930   24.2696 C   0  0  0  0  0  0  0  0  0  0  0  0
  -21.2506   -5.7647   23.6487 C   0  0  0  0  0  0  0  0  0  0  0  0
  -24.5551  -11.6674   20.8019 C   0  0  0  0  0  0  0  0  0  0  0  0
  -25.2319  -13.7428   20.5382 C   0  0  0  0  0  0  0  0  0  0  0  0
  -29.0880   -9.8890   27.7879 C   0  0  0  0  0  0  0  0  0  0  0  0
  -28.4270   -8.8872   28.3774 C   0  0  0  0  0  0  0  0  0  1  0  0
  -22.7758  -13.5191   20.9454 C   0  0  0  0  0  0  0  0  0  0  0  0
  -28.4355  -11.2235   27.6599 C   0  0  0  0  0  0  0  0  0  0  0  0
  -28.2445   -2.4694   32.7379 C   0  0  0  0  0  0  0  0  0  0  0  0
  -25.3056   -1.8980   31.4896 C   0  0  0  0  0  0  0  0  0  0  0  0
  -22.8322   -2.8599   29.3439 C   0  0  0  0  0  0  0  0  0  0  0  0
  -31.0372  -12.7839   21.5794 C   0  0  0  0  0  0  0  0  0  0  0  0
  -29.8711    0.8333   36.2741 C   0  0  0  0  0  0  0  0  0  0  0  0
  -27.1168   -4.7006   33.0638 C   0  0  0  0  0  0  0  0  0  0  0  0
  -26.7027   -3.6502   30.3307 C   0  0  0  0  0  0  0  0  0  0  0  0
  -28.9996    0.9142   35.0234 C   0  0  0  0  0  0  0  0  0  0  0  0
  -29.5230  -13.4660   18.4299 C   0  0  0  0  0  0  0  0  0  0  0  0
  -29.6873    0.2265   33.8482 C   0  0  0  0  0  0  0  0  0  0  0  0
  -28.0351  -13.2093   18.6799 C   0  0  0  0  0  0  0  0  0  0  0  0
  -30.4049  -12.4810   19.1954 C   0  0  0  0  0  0  0  0  0  0  0  0
  -28.6460  -12.1384   20.8860 C   0  0  0  0  0  0  0  0  0  0  0  0
  -29.9125   -1.2628   34.1354 C   0  0  1  0  0  0  0  0  0  0  0  0
  -26.9381   -3.2095   32.7950 C   0  0  1  0  0  0  0  0  0  0  0  0
  -27.7194  -13.1468   20.1872 C   0  0  2  0  0  0  0  0  0  0  0  0
  -33.5686  -11.5127   27.5784 C   0  0  0  0  0  0  0  0  0  0  0  0
  -20.5658   -2.1719   28.5148 C   0  0  0  0  0  0  0  0  0  0  0  0
  -26.5949    0.2669   29.7689 C   0  0  0  0  0  0  0  0  0  0  0  0
  -24.5454    0.2470   28.3311 C   0  0  0  0  0  0  0  0  0  0  0  0
  -24.3737    0.8880   30.7358 C   0  0  0  0  0  0  0  0  0  0  0  0
  -28.7195  -13.6706   27.5733 C   0  0  0  0  0  0  0  0  0  0  0  0
  -21.5834   -5.3513   30.3402 C   0  0  0  0  0  0  0  0  0  0  0  0
  -30.7417  -12.2719   27.7975 C   0  0  0  0  0  0  0  0  0  0  0  0
  -24.7769   -1.5317   30.1238 C   0  0  1  0  0  0  0  0  0  0  0  0
  -21.3326   -3.0007   29.5335 C   0  0  2  0  0  0  0  0  0  0  0  0
  -25.0877   -0.0563   29.7442 C   0  0  0  0  0  0  0  0  0  0  0  0
  -25.8716  -11.5668   20.6000 N   0  0  0  0  0  0  0  0  0  0  0  0
  -26.2546  -12.8454   20.4428 N   0  0  0  0  0  0  0  0  0  0  0  0
  -26.2404   -2.9419   31.5357 N   0  0  0  0  0  0  0  0  0  0  0  0
  -30.0518  -12.4790   20.6167 N   0  0  0  0  0  0  0  0  0  0  0  0
  -25.4413  -15.0698   20.4052 N   0  0  0  0  0  0  0  0  0  0  0  0
  -21.7296  -12.6164   21.1797 N   0  0  0  0  0  0  0  0  0  0  0  0
  -30.5771  -12.7831   22.8958 N   0  0  0  0  0  0  0  0  0  0  0  0
  -28.6807   -2.0027   33.9633 N   0  0  0  0  0  0  0  0  0  0  0  0
  -23.3553   -1.8591   30.1351 N   0  0  0  0  0  0  0  0  0  0  0  0
  -29.2875  -12.3315   27.6643 N   0  0  0  0  0  0  0  0  0  0  0  0
  -20.9232   -4.4258   29.3838 N   0  3  0  0  0  0  0  0  0  0  0  0
  -22.5241  -14.7460   20.8763 O   0  0  0  0  0  0  0  0  0  0  0  0
  -27.2081  -11.2985   27.5828 O   0  0  0  0  0  0  0  0  0  0  0  0
  -28.8138   -2.3306   31.6617 O   0  0  0  0  0  0  0  0  0  0  0  0
  -24.8985   -1.2854   32.4799 O   0  0  0  0  0  0  0  0  0  0  0  0
  -23.4747   -3.5646   28.5686 O   0  0  0  0  0  0  0  0  0  0  0  0
  -32.1971  -13.0545   21.2575 O   0  0  0  0  0  0  0  0  0  0  0  0
  -21.4844   -7.0698   21.6385 O   0  0  0  0  0  0  0  0  0  0  0  0
  -28.9338   -7.6327   28.5701 O   0  0  0  0  0  0  0  0  0  1  0  0
  -23.4560   -3.2686   25.1125 F   0  0  0  0  0  0  0  0  0  0  0  0
  -20.0701   -6.3466   23.9012 F   0  0  0  0  0  0  0  0  0  0  0  0
  1  2  1  0  0  0  0
  1  5  2  0  0  0  0
  2  6  2  0  0  0  0
  3 10  2  0  0  0  0
  3 18  1  0  0  0  0
  4 11  1  0  0  0  0
  4 18  2  0  0  0  0
  5 20  1  0  0  0  0
  6 22  1  0  0  0  0
  7 12  2  0  0  0  0
  7 21  1  0  0  0  0
  8  9  2  0  0  0  0
  8 24  1  0  0  0  0
  9 26  1  0  0  0  0
 10 27  1  0  0  0  0
 11 27  2  0  0  0  0
 12 28  1  0  0  0  0
 13 14  2  0  0  0  0
 13 29  1  0  0  0  0
 14 30  1  0  0  0  0
 15 23  1  0  0  0  0
 15 28  2  0  0  0  0
 16 25  1  0  0  0  0
 16 26  2  0  0  0  0
 17 30  2  0  0  0  0
 17 31  1  0  0  0  0
 18 32  1  0  0  0  0
 19 32  1  0  0  0  0
 19 33  2  0  0  0  0
 19 36  1  0  0  0  0
 20 22  2  0  0  0  0
 20 42  1  0  0  0  0
 21 23  2  0  0  0  0
 21 43  1  0  0  0  0
 22 51  1  0  0  0  0
 23 44  1  0  0  0  0
 24 25  2  0  0  0  0
 24 54  1  0  0  0  0
 25 61  1  0  0  0  0
 26 71  1  0  0  0  0
 27 82  1  0  0  0  0
 28 83  1  0  0  0  0
 29 31  2  0  0  0  0
 29 82  1  0  0  0  0
 30 84  1  0  0  0  0
 31 85  1  0  0  0  0
 32 65  2  0  0  0  0
 33 66  1  0  0  0  0
 33 69  1  0  0  0  0
 34 35  2  0  0  0  0
 34 37  1  0  0  0  0
 35 83  1  0  0  0  0
 36 70  1  0  0  0  0
 36 76  2  0  0  0  0
 37 74  1  0  0  0  0
 37 77  2  0  0  0  0
 38 52  1  0  0  0  0
 38 72  1  0  0  0  0
 38 78  2  0  0  0  0
 39 62  1  0  0  0  0
 39 67  1  0  0  0  0
 39 79  2  0  0  0  0
 40 63  1  0  0  0  0
 40 73  1  0  0  0  0
 40 80  2  0  0  0  0
 41 68  1  0  0  0  0
 41 71  1  0  0  0  0
 41 81  2  0  0  0  0
 42 45  1  0  0  0  0
 43 52  1  0  0  0  0
 44 67  1  0  0  0  0
 45 47  1  0  0  0  0
 46 48  1  0  0  0  0
 46 49  1  0  0  0  0
 47 51  1  0  0  0  0
 48 53  1  0  0  0  0
 49 68  1  0  0  0  0
 50 53  1  0  0  0  0
 50 68  1  0  0  0  0
 51 72  1  0  0  0  0
 52 67  1  0  0  0  0
 53 66  1  0  0  0  0
 55 63  1  0  0  0  0
 56 64  1  0  0  0  0
 57 64  1  0  0  0  0
 58 64  1  0  0  0  0
 59 74  1  0  0  0  0
 60 75  1  0  0  0  0
 61 74  1  0  0  0  0
 62 64  1  0  0  0  0
 62 73  1  0  0  0  0
 63 75  1  0  0  0  0
 65 66  1  0  0  0  0
M  CHG  1  75   1
M  ISO  4  35 101  41 100  71 100  83 101
M  END
> <Batch ID>
0053

> <Smiles>
CNC(C)C(=O)NC(C(=O)N1Cc2cc([101O:1][101CH:1]=CC(=O)N(C)Cc3cc([100NH:0][100C:0](=O)N4CCCC(n5nc(-c6ccc(Oc7ccc(F)cc7F)cc6)c(C(N)=O)c5N)C4)ccc3C)ccc2CC1C(=O)NC1CCCc2ccccc21)C(C)(C)C

> <Shape>
0.139

> <Color>
0.186

> <Negative vol penalty>
0.000

$$$$

  -OEChem-04042322433D

 86 94  0     1  0  0  0  0  0999 V2000
  -18.8130  -33.1805   23.4919 C   0  0  0  0  0  0  0  0  0  0  0  0
  -20.0487  -32.6162   23.7918 C   0  0  0  0  0  0  0  0  0  0  0  0
  -24.5801  -10.3757   22.9810 C   0  0  0  0  0  0  0  0  0  0  0  0
  -24.4509  -12.0730   24.6955 C   0  0  0  0  0  0  0  0  0  0  0  0
  -17.7038  -32.3602   23.2903 C   0  0  0  0  0  0  0  0  0  0  0  0
  -20.1756  -31.2311   23.8914 C   0  0  0  0  0  0  0  0  0  0  0  0
  -25.0261  -27.8539   22.2872 C   0  0  0  0  0  0  0  0  0  0  0  0
  -28.5511  -22.5182   20.8838 C   0  0  0  0  0  0  0  0  0  0  0  0
  -27.3645  -21.8124   20.6854 C   0  0  0  0  0  0  0  0  0  0  0  0
  -24.1551   -9.4157   23.8993 C   0  0  0  0  0  0  0  0  0  0  0  0
  -24.0258  -11.1130   25.6138 C   0  0  0  0  0  0  0  0  0  0  0  0
  -26.0771  -27.3117   23.0256 C   0  0  0  0  0  0  0  0  0  0  0  0
  -21.2399   -8.4220   25.2947 C   0  0  0  0  0  0  0  0  0  0  0  0
  -20.2571   -7.5217   24.8834 C   0  0  0  0  0  0  0  0  0  0  0  0
  -24.8914  -25.2154   23.1625 C   0  0  0  0  0  0  0  0  0  0  0  0
  -29.7854  -20.4413   20.8907 C   0  0  0  0  0  0  0  0  0  0  0  0
  -21.7713   -5.6833   25.2890 C   0  0  0  0  0  0  0  0  0  0  0  0
  -24.7281  -11.7044   23.3791 C   0  0  0  0  0  0  0  0  0  0  0  0
  -24.3601  -13.4850   21.5897 C   0  0  0  0  0  0  0  0  0  0  0  0
  -17.8192  -30.9639   23.3780 C   0  0  0  0  0  0  0  0  0  0  0  0
  -23.8931  -27.0830   21.9897 C   0  0  0  0  0  0  0  0  0  0  0  0
  -19.0666  -30.3914   23.6922 C   0  0  0  0  0  0  0  0  0  0  0  0
  -23.8286  -25.7493   22.4180 C   0  0  0  0  0  0  0  0  0  0  0  0
  -29.7616  -21.8327   20.9864 C   0  0  0  0  0  0  0  0  0  0  0  0
  -27.3883  -20.4211   20.5897 C   0  0  0  0  0  0  0  0  0  0  0  0
  -28.5988  -19.7355   20.6923 C   0  0  0  0  0  0  0  0  0  0  0  0
  -23.8779   -9.7843   25.2157 C   0  0  0  0  0  0  0  0  0  0  0  0
  -26.0086  -25.9932   23.4658 C   0  0  0  0  0  0  0  0  0  0  0  0
  -22.4885   -7.9529   25.7032 C   0  0  0  0  0  0  0  0  0  0  0  0
  -20.5228   -6.1524   24.8805 C   0  0  0  0  0  0  0  0  0  0  0  0
  -22.7542   -6.5836   25.7003 C   0  0  0  0  0  0  0  0  0  0  0  0
  -25.1676  -12.6964   22.4310 C   0  0  0  0  0  0  0  0  0  0  0  0
  -25.2500  -14.2617   20.8890 C   0  0  0  0  0  0  0  0  0  0  0  0
  -30.1941  -24.4302   23.2779 C   0  0  0  0  0  0  0  0  0  0  0  0
  -29.3382  -24.8901   24.2014 C   0  0  0  0  0  0  0  0  0  0  0  0
  -22.9330  -13.5129   21.4539 C   0  0  0  0  0  0  0  0  0  0  0  0
  -31.1447  -23.3343   23.6241 C   0  0  0  0  0  0  0  0  0  0  0  0
  -20.7966  -27.2882   22.6773 C   0  0  0  0  0  0  0  0  0  0  0  0
  -20.5796  -24.7564   20.6610 C   0  0  0  0  0  0  0  0  0  0  0  0
  -22.1128  -22.0886   19.1848 C   0  0  0  0  0  0  0  0  0  0  0  0
  -29.7708  -17.5055   20.6791 C   0  0  0  0  0  0  0  0  0  0  0  0
  -16.5819  -30.1205   23.1987 C   0  0  0  0  0  0  0  0  0  0  0  0
  -22.7797  -27.6744   21.1694 C   0  0  0  0  0  0  0  0  0  0  0  0
  -22.6433  -24.8733   22.1077 C   0  0  0  0  0  0  0  0  0  0  0  0
  -16.8815  -28.6440   22.9529 C   0  0  0  0  0  0  0  0  0  0  0  0
  -30.2916  -13.9865   20.5306 C   0  0  0  0  0  0  0  0  0  0  0  0
  -17.9240  -28.1384   23.9451 C   0  0  0  0  0  0  0  0  0  0  0  0
  -28.9386  -13.4020   20.9425 C   0  0  0  0  0  0  0  0  0  0  0  0
  -30.6215  -15.2578   21.3107 C   0  0  0  0  0  0  0  0  0  0  0  0
  -28.2294  -15.7104   21.6877 C   0  0  0  0  0  0  0  0  0  0  0  0
  -19.2497  -28.8921   23.7844 C   0  0  1  0  0  0  0  0  0  0  0  0
  -21.4477  -26.9567   21.3644 C   0  0  1  0  0  0  0  0  0  0  0  0
  -27.8239  -14.4648   20.8829 C   0  0  2  0  0  0  0  0  0  0  0  0
  -26.1018  -19.6910   20.3780 C   0  0  0  0  0  0  0  0  0  0  0  0
  -21.6685  -20.1822   17.6147 C   0  0  0  0  0  0  0  0  0  0  0  0
  -19.1070  -23.2724   22.8834 C   0  0  0  0  0  0  0  0  0  0  0  0
  -19.5326  -21.1384   21.6452 C   0  0  0  0  0  0  0  0  0  0  0  0
  -18.1560  -22.9343   20.5952 C   0  0  0  0  0  0  0  0  0  0  0  0
  -32.4175  -21.3725   22.8440 C   0  0  0  0  0  0  0  0  0  0  0  0
  -24.1263  -23.0632   17.2471 C   0  0  0  0  0  0  0  0  0  0  0  0
  -31.0384  -22.5933   21.1997 C   0  0  0  0  0  0  0  0  0  0  0  0
  -28.3411  -25.9699   23.9295 C   0  0  0  0  0  0  0  0  0  1  0  0
  -20.6538  -23.2566   20.8163 C   0  0  1  0  0  0  0  0  0  0  0  0
  -22.1490  -21.6195   17.7416 C   0  0  2  0  0  0  0  0  0  0  0  0
  -19.3840  -22.6673   21.4927 C   0  0  0  0  0  0  0  0  0  0  0  0
  -26.4705  -12.9489   22.2799 N   0  0  0  0  0  0  0  0  0  0  0  0
  -26.4884  -13.9049   21.3355 N   0  0  0  0  0  0  0  0  0  0  0  0
  -21.5774  -25.4992   21.3080 N   0  0  0  0  0  0  0  0  0  0  0  0
  -29.5225  -16.2201   21.2053 N   0  0  0  0  0  0  0  0  0  0  0  0
  -25.0863  -15.2083   19.9405 N   0  0  0  0  0  0  0  0  0  0  0  0
  -22.1690  -12.6491   22.2504 N   0  0  0  0  0  0  0  0  0  0  0  0
  -28.6436  -18.3224   20.5970 N   0  0  0  0  0  0  0  0  0  0  0  0
  -19.9753  -28.3986   22.6335 N   0  0  0  0  0  0  0  0  0  0  0  0
  -20.9255  -22.7215   19.4865 N   0  0  0  0  0  0  0  0  0  0  0  0
  -31.5156  -22.4856   22.5772 N   0  0  0  0  0  0  0  0  0  0  0  0
  -23.5371  -21.7001   17.2053 N   0  3  0  0  0  0  0  0  0  0  0  0
  -22.3535  -14.2694   20.6382 O   0  0  0  0  0  0  0  0  0  0  0  0
  -31.5342  -23.2073   24.7859 O   0  0  0  0  0  0  0  0  0  0  0  0
  -21.0214  -26.5874   23.6572 O   0  0  0  0  0  0  0  0  0  0  0  0
  -19.6740  -25.2503   19.9845 O   0  0  0  0  0  0  0  0  0  0  0  0
  -23.0431  -21.9082   19.9674 O   0  0  0  0  0  0  0  0  0  0  0  0
  -30.8948  -17.8464   20.3020 O   0  0  0  0  0  0  0  0  0  0  0  0
  -23.4629   -8.8479   26.1120 O   0  0  0  0  0  0  0  0  0  0  0  0
  -27.0328  -25.4617   24.1872 O   0  0  0  0  0  0  0  0  0  1  0  0
  -19.5784   -5.2879   24.4869 F   0  0  0  0  0  0  0  0  0  0  0  0
  -23.9514   -6.1269   26.0928 F   0  0  0  0  0  0  0  0  0  0  0  0
  1  2  1  0  0  0  0
  1  5  2  0  0  0  0
  2  6  2  0  0  0  0
  3 10  2  0  0  0  0
  3 18  1  0  0  0  0
  4 11  1  0  0  0  0
  4 18  2  0  0  0  0
  5 20  1  0  0  0  0
  6 22  1  0  0  0  0
  7 12  2  0  0  0  0
  7 21  1  0  0  0  0
  8  9  2  0  0  0  0
  8 24  1  0  0  0  0
  9 25  1  0  0  0  0
 10 27  1  0  0  0  0
 11 27  2  0  0  0  0
 12 28  1  0  0  0  0
 13 14  2  0  0  0  0
 13 29  1  0  0  0  0
 14 30  1  0  0  0  0
 15 23  1  0  0  0  0
 15 28  2  0  0  0  0
 16 24  2  0  0  0  0
 16 26  1  0  0  0  0
 17 30  2  0  0  0  0
 17 31  1  0  0  0  0
 18 32  1  0  0  0  0
 19 32  1  0  0  0  0
 19 33  2  0  0  0  0
 19 36  1  0  0  0  0
 20 22  2  0  0  0  0
 20 42  1  0  0  0  0
 21 23  2  0  0  0  0
 21 43  1  0  0  0  0
 22 51  1  0  0  0  0
 23 44  1  0  0  0  0
 24 61  1  0  0  0  0
 25 26  2  0  0  0  0
 25 54  1  0  0  0  0
 26 72  1  0  0  0  0
 27 83  1  0  0  0  0
 28 84  1  0  0  0  0
 29 31  2  0  0  0  0
 29 83  1  0  0  0  0
 30 85  1  0  0  0  0
 31 86  1  0  0  0  0
 32 66  2  0  0  0  0
 33 67  1  0  0  0  0
 33 70  1  0  0  0  0
 34 35  2  0  0  0  0
 34 37  1  0  0  0  0
 35 62  1  0  0  0  0
 36 71  1  0  0  0  0
 36 77  2  0  0  0  0
 37 75  1  0  0  0  0
 37 78  2  0  0  0  0
 38 52  1  0  0  0  0
 38 73  1  0  0  0  0
 38 79  2  0  0  0  0
 39 63  1  0  0  0  0
 39 68  1  0  0  0  0
 39 80  2  0  0  0  0
 40 64  1  0  0  0  0
 40 74  1  0  0  0  0
 40 81  2  0  0  0  0
 41 69  1  0  0  0  0
 41 72  1  0  0  0  0
 41 82  2  0  0  0  0
 42 45  1  0  0  0  0
 43 52  1  0  0  0  0
 44 68  1  0  0  0  0
 45 47  1  0  0  0  0
 46 48  1  0  0  0  0
 46 49  1  0  0  0  0
 47 51  1  0  0  0  0
 48 53  1  0  0  0  0
 49 69  1  0  0  0  0
 50 53  1  0  0  0  0
 50 69  1  0  0  0  0
 51 73  1  0  0  0  0
 52 68  1  0  0  0  0
 53 67  1  0  0  0  0
 55 64  1  0  0  0  0
 56 65  1  0  0  0  0
 57 65  1  0  0  0  0
 58 65  1  0  0  0  0
 59 75  1  0  0  0  0
 60 76  1  0  0  0  0
 61 75  1  0  0  0  0
 62 84  1  0  0  0  0
 63 65  1  0  0  0  0
 63 74  1  0  0  0  0
 64 76  1  0  0  0  0
 66 67  1  0  0  0  0
M  CHG  1  76   1
M  ISO  4  41 100  62 101  72 100  84 101
M  END
> <Batch ID>
0053

> <Smiles>
CNC(C)C(=O)NC(C(=O)N1Cc2cc([101O:1][101CH2:1]C=CC(=O)N(C)Cc3ccc(C)c([100NH:0][100C:0](=O)N4CCCC(n5nc(-c6ccc(Oc7ccc(F)cc7F)cc6)c(C(N)=O)c5N)C4)c3)ccc2CC1C(=O)NC1CCCc2ccccc21)C(C)(C)C

> <Shape>
0.201

> <Color>
0.102

> <Negative vol penalty>
0.000

$$$$

  -OEChem-04042322433D

 89 97  0     1  0  0  0  0  0999 V2000
  -27.2781  -31.1247   17.9542 C   0  0  0  0  0  0  0  0  0  0  0  0
  -28.1393  -30.3649   18.7394 C   0  0  0  0  0  0  0  0  0  0  0  0
  -23.1744   -9.7257   19.9228 C   0  0  0  0  0  0  0  0  0  0  0  0
  -23.8865   -9.7963   22.2303 C   0  0  0  0  0  0  0  0  0  0  0  0
  -26.0008  -31.4331   18.4206 C   0  0  0  0  0  0  0  0  0  0  0  0
  -27.7241  -29.9140   19.9919 C   0  0  0  0  0  0  0  0  0  0  0  0
  -28.9206  -25.0608   20.8043 C   0  0  0  0  0  0  0  0  0  0  0  0
  -32.3226  -17.8229   23.5187 C   0  0  0  0  0  0  0  0  0  0  0  0
  -31.7945  -16.9000   22.6160 C   0  0  0  0  0  0  0  0  0  0  0  0
  -22.4782   -8.5434   20.1737 C   0  0  0  0  0  0  0  0  0  0  0  0
  -23.1903   -8.6140   22.4814 C   0  0  0  0  0  0  0  0  0  0  0  0
  -30.2419  -24.7799   21.1492 C   0  0  0  0  0  0  0  0  0  0  0  0
  -19.9897   -7.6788   23.0310 C   0  0  0  0  0  0  0  0  0  0  0  0
  -19.2117   -7.6196   24.1873 C   0  0  0  0  0  0  0  0  0  0  0  0
  -29.5972  -24.6248   23.4686 C   0  0  0  0  0  0  0  0  0  0  0  0
  -29.5626  -17.6567   23.1481 C   0  0  0  0  0  0  0  0  0  0  0  0
  -20.5238   -5.7498   24.9744 C   0  0  0  0  0  0  0  0  0  0  0  0
  -23.8786  -10.3522   20.9511 C   0  0  0  0  0  0  0  0  0  0  0  0
  -24.1089  -12.8885   20.8033 C   0  0  0  0  0  0  0  0  0  0  0  0
  -25.5663  -30.9776   19.6753 C   0  0  0  0  0  0  0  0  0  0  0  0
  -27.9279  -25.1367   21.7919 C   0  0  0  0  0  0  0  0  0  0  0  0
  -26.4404  -30.2178   20.4760 C   0  0  0  0  0  0  0  0  0  0  0  0
  -28.2636  -24.9043   23.1333 C   0  0  0  0  0  0  0  0  0  0  0  0
  -31.4708  -18.6627   24.2362 C   0  0  0  0  0  0  0  0  0  0  0  0
  -30.0908  -18.5796   24.0509 C   0  0  0  0  0  0  0  0  0  0  0  0
  -30.4145  -16.8169   22.4306 C   0  0  0  0  0  0  0  0  0  0  0  0
  -22.4861   -7.9876   21.4530 C   0  0  0  0  0  0  0  0  0  0  0  0
  -30.5809  -24.5647   22.4818 C   0  0  0  0  0  0  0  0  0  0  0  0
  -21.0347   -6.7734   22.8464 C   0  0  0  0  0  0  0  0  0  0  0  0
  -19.4788   -6.6551   25.1589 C   0  0  0  0  0  0  0  0  0  0  0  0
  -21.3018   -5.8090   23.8181 C   0  0  0  0  0  0  0  0  0  0  0  0
  -24.5984  -11.5732   20.6923 C   0  0  0  0  0  0  0  0  0  0  0  0
  -25.1734  -13.6819   20.4514 C   0  0  0  0  0  0  0  0  0  0  0  0
  -22.8083  -13.3516   21.1901 C   0  0  0  0  0  0  0  0  0  0  0  0
  -25.9760  -27.4161   22.8398 C   0  0  0  0  0  0  0  0  0  0  0  0
  -24.7385  -24.9991   24.6144 C   0  0  0  0  0  0  0  0  0  0  0  0
  -34.0303  -20.7990   24.1677 C   0  0  0  0  0  0  0  0  0  0  0  0
  -25.1976  -21.9507   26.0785 C   0  0  0  0  0  0  0  0  0  0  0  0
  -30.5824  -14.9758   20.7194 C   0  0  0  0  0  0  0  0  0  0  0  0
  -24.1938  -31.3763   20.1569 C   0  0  0  0  0  0  0  0  0  0  0  0
  -26.5024  -25.4143   21.4004 C   0  0  0  0  0  0  0  0  0  0  0  0
  -27.2315  -24.9544   24.2291 C   0  0  0  0  0  0  0  0  0  0  0  0
  -23.6965  -30.5441   21.3360 C   0  0  0  0  0  0  0  0  0  0  0  0
  -29.6259  -12.4840   18.3628 C   0  0  0  0  0  0  0  0  0  0  0  0
  -24.7877  -30.4113   22.3936 C   0  0  0  0  0  0  0  0  0  0  0  0
  -28.1924  -12.1331   18.7679 C   0  0  0  0  0  0  0  0  0  0  0  0
  -30.5053  -12.7693   19.5790 C   0  0  0  0  0  0  0  0  0  0  0  0
  -28.5400  -13.4243   20.9125 C   0  0  0  0  0  0  0  0  0  0  0  0
  -26.0176  -29.6896   21.8297 C   0  0  1  0  0  0  0  0  0  0  0  0
  -25.6664  -25.9753   22.5467 C   0  0  1  0  0  0  0  0  0  0  0  0
  -27.6001  -13.1922   19.7182 C   0  0  2  0  0  0  0  0  0  0  0  0
  -24.6059  -19.8485   27.3146 C   0  0  0  0  0  0  0  0  0  0  0  0
  -28.8877  -20.7731   24.0604 C   0  0  0  0  0  0  0  0  0  0  0  0
  -25.1508  -26.7597   27.0721 C   0  0  0  0  0  0  0  0  0  0  0  0
  -24.8679  -24.7193   28.4951 C   0  0  0  0  0  0  0  0  0  0  0  0
  -22.9930  -25.4958   27.0444 C   0  0  0  0  0  0  0  0  0  0  0  0
  -34.3384  -18.8717   25.7410 C   0  0  0  0  0  0  0  0  0  0  0  0
  -24.4054  -20.5690   23.5841 C   0  0  0  0  0  0  0  0  0  0  0  0
  -32.0626  -19.6474   25.2028 C   0  0  0  0  0  0  0  0  0  0  0  0
  -33.0232  -21.7025   23.4681 C   0  0  0  0  0  0  0  0  0  0  0  0
  -33.6912  -22.7480   22.5777 C   0  0  0  0  0  0  0  0  0  0  0  0
  -32.6655  -23.6078   21.8533 C   0  0  0  0  0  0  0  0  0  1  0  0
  -25.0206  -24.4233   25.9811 C   0  0  1  0  0  0  0  0  0  0  0  0
  -24.3454  -20.6944   26.0780 C   0  0  2  0  0  0  0  0  0  0  0  0
  -29.1596  -19.4699   24.8065 C   0  0  0  0  0  0  0  0  0  0  0  0
  -24.5281  -25.3504   27.1280 C   0  0  0  0  0  0  0  0  0  0  0  0
  -25.8746  -11.5294   20.3003 N   0  0  0  0  0  0  0  0  0  0  0  0
  -26.1959  -12.8269   20.1619 N   0  0  0  0  0  0  0  0  0  0  0  0
  -25.8526  -25.2357   23.7967 N   0  0  0  0  0  0  0  0  0  0  0  0
  -29.8828  -13.7849   20.4311 N   0  0  0  0  0  0  0  0  0  0  0  0
  -25.3252  -15.0205   20.3644 N   0  0  0  0  0  0  0  0  0  0  0  0
  -21.8317  -12.4020   21.5197 N   0  0  0  0  0  0  0  0  0  0  0  0
  -29.8776  -15.8809   21.5122 N   0  0  0  0  0  0  0  0  0  0  0  0
  -25.7814  -28.2632   21.7656 N   0  0  0  0  0  0  0  0  0  0  0  0
  -24.4268  -23.0908   25.9932 N   0  0  0  0  0  0  0  0  0  0  0  0
  -33.4973  -19.8120   25.0039 N   0  0  0  0  0  0  0  0  0  0  0  0
  -24.6408  -19.8687   24.8730 N   0  3  0  0  0  0  0  0  0  0  0  0
  -22.5159  -14.5709   21.2259 O   0  0  0  0  0  0  0  0  0  0  0  0
  -26.3613  -27.7358   23.9583 O   0  0  0  0  0  0  0  0  0  0  0  0
  -23.5721  -25.2238   24.2819 O   0  0  0  0  0  0  0  0  0  0  0  0
  -35.2409  -20.9539   23.9867 O   0  0  0  0  0  0  0  0  0  0  0  0
  -26.4242  -21.9236   26.1513 O   0  0  0  0  0  0  0  0  0  0  0  0
  -31.7120  -15.1894   20.2719 O   0  0  0  0  0  0  0  0  0  0  0  0
  -21.8067   -6.8340   21.6984 O   0  0  0  0  0  0  0  0  0  0  0  0
  -31.8700  -24.2910   22.8212 O   0  0  0  0  0  0  0  0  0  1  0  0
  -18.7326   -6.5994   26.2699 F   0  0  0  0  0  0  0  0  0  0  0  0
  -22.3051   -4.9373   23.6469 F   0  0  0  0  0  0  0  0  0  0  0  0
  -29.6331  -19.8079   26.0478 F   0  0  0  0  0  0  0  0  0  0  0  0
  -27.9440  -18.8857   25.0528 F   0  0  0  0  0  0  0  0  0  0  0  0
  1  2  1  0  0  0  0
  1  5  2  0  0  0  0
  2  6  2  0  0  0  0
  3 10  2  0  0  0  0
  3 18  1  0  0  0  0
  4 11  1  0  0  0  0
  4 18  2  0  0  0  0
  5 20  1  0  0  0  0
  6 22  1  0  0  0  0
  7 12  2  0  0  0  0
  7 21  1  0  0  0  0
  8  9  2  0  0  0  0
  8 24  1  0  0  0  0
  9 26  1  0  0  0  0
 10 27  1  0  0  0  0
 11 27  2  0  0  0  0
 12 28  1  0  0  0  0
 13 14  2  0  0  0  0
 13 29  1  0  0  0  0
 14 30  1  0  0  0  0
 15 23  1  0  0  0  0
 15 28  2  0  0  0  0
 16 25  1  0  0  0  0
 16 26  2  0  0  0  0
 17 30  2  0  0  0  0
 17 31  1  0  0  0  0
 18 32  1  0  0  0  0
 19 32  1  0  0  0  0
 19 33  2  0  0  0  0
 19 34  1  0  0  0  0
 20 22  2  0  0  0  0
 20 40  1  0  0  0  0
 21 23  2  0  0  0  0
 21 41  1  0  0  0  0
 22 49  1  0  0  0  0
 23 42  1  0  0  0  0
 24 25  2  0  0  0  0
 24 59  1  0  0  0  0
 25 65  1  0  0  0  0
 26 73  1  0  0  0  0
 27 84  1  0  0  0  0
 28 85  1  0  0  0  0
 29 31  2  0  0  0  0
 29 84  1  0  0  0  0
 30 86  1  0  0  0  0
 31 87  1  0  0  0  0
 32 67  2  0  0  0  0
 33 68  1  0  0  0  0
 33 71  1  0  0  0  0
 34 72  1  0  0  0  0
 34 78  2  0  0  0  0
 35 50  1  0  0  0  0
 35 74  1  0  0  0  0
 35 79  2  0  0  0  0
 36 63  1  0  0  0  0
 36 69  1  0  0  0  0
 36 80  2  0  0  0  0
 37 60  1  0  0  0  0
 37 76  1  0  0  0  0
 37 81  2  0  0  0  0
 38 64  1  0  0  0  0
 38 75  1  0  0  0  0
 38 82  2  0  0  0  0
 39 70  1  0  0  0  0
 39 73  1  0  0  0  0
 39 83  2  0  0  0  0
 40 43  1  0  0  0  0
 41 50  1  0  0  0  0
 42 69  1  0  0  0  0
 43 45  1  0  0  0  0
 44 46  1  0  0  0  0
 44 47  1  0  0  0  0
 45 49  1  0  0  0  0
 46 51  1  0  0  0  0
 47 70  1  0  0  0  0
 48 51  1  0  0  0  0
 48 70  1  0  0  0  0
 49 74  1  0  0  0  0
 50 69  1  0  0  0  0
 51 68  1  0  0  0  0
 52 64  1  0  0  0  0
 53 65  1  0  0  0  0
 54 66  1  0  0  0  0
 55 66  1  0  0  0  0
 56 66  1  0  0  0  0
 57 76  1  0  0  0  0
 58 77  1  0  0  0  0
 59 76  1  0  0  0  0
 60 61  1  0  0  0  0
 61 62  1  0  0  0  0
 62 85  1  0  0  0  0
 63 66  1  0  0  0  0
 63 75  1  0  0  0  0
 64 77  1  0  0  0  0
 65 88  1  0  0  0  0
 65 89  1  0  0  0  0
 67 68  1  0  0  0  0
M  CHG  1  77   1
M  ISO  4  39 100  62 101  73 100  85 101
M  END
> <Batch ID>
0053

> <Smiles>
CNC(C)C(=O)NC(C(=O)N1Cc2cc([101O:1][101CH2:1]CCC(=O)N(C)Cc3ccc([100NH:0][100C:0](=O)N4CCCC(n5nc(-c6ccc(Oc7ccc(F)cc7F)cc6)c(C(N)=O)c5N)C4)cc3C(C)(F)F)ccc2CC1C(=O)NC1CCCc2ccccc21)C(C)(C)C

> <Shape>
0.215

> <Color>
0.208

> <Negative vol penalty>
0.000

$$$$

  -OEChem-04042322433D

 88 97  0     1  0  0  0  0  0999 V2000
  -31.2419  -35.1623   22.5958 C   0  0  0  0  0  0  0  0  0  0  0  0
  -31.0772  -33.9661   21.9049 C   0  0  0  0  0  0  0  0  0  0  0  0
  -23.6824   -9.1981   19.6877 C   0  0  0  0  0  0  0  0  0  0  0  0
  -25.0665   -8.3296   21.4673 C   0  0  0  0  0  0  0  0  0  0  0  0
  -30.5056  -35.4034   23.7550 C   0  0  0  0  0  0  0  0  0  0  0  0
  -30.1768  -33.0099   22.3733 C   0  0  0  0  0  0  0  0  0  0  0  0
  -26.7351  -29.2299   19.0011 C   0  0  0  0  0  0  0  0  0  0  0  0
  -22.5392   -8.8363   20.4003 C   0  0  0  0  0  0  0  0  0  0  0  0
  -23.9233   -7.9679   22.1799 C   0  0  0  0  0  0  0  0  0  0  0  0
  -26.8951  -27.8955   18.6300 C   0  0  0  0  0  0  0  0  0  0  0  0
  -21.6418   -5.4733   22.1300 C   0  0  0  0  0  0  0  0  0  0  0  0
  -21.6168   -4.2077   22.7159 C   0  0  0  0  0  0  0  0  0  0  0  0
  -25.5020  -27.2202   20.4799 C   0  0  0  0  0  0  0  0  0  0  0  0
  -26.9245  -18.1831   18.6275 C   0  0  0  0  0  0  0  0  0  0  0  0
  -29.2117  -17.4357   20.0393 C   0  0  0  0  0  0  0  0  0  0  0  0
  -21.3481   -5.2208   24.8928 C   0  0  0  0  0  0  0  0  0  0  0  0
  -24.9461   -8.9447   20.2212 C   0  0  0  0  0  0  0  0  0  0  0  0
  -26.5101   -8.8680   18.2073 C   0  0  0  0  0  0  0  0  0  0  0  0
  -29.5887  -34.4537   24.2326 C   0  0  0  0  0  0  0  0  0  0  0  0
  -25.9649  -29.5692   20.1227 C   0  0  0  0  0  0  0  0  0  0  0  0
  -29.4286  -33.2380   23.5407 C   0  0  0  0  0  0  0  0  0  0  0  0
  -25.3316  -28.5597   20.8617 C   0  0  0  0  0  0  0  0  0  0  0  0
  -27.3537  -16.8561   18.6077 C   0  0  0  0  0  0  0  0  0  0  0  0
  -28.7824  -18.7627   20.0590 C   0  0  0  0  0  0  0  0  0  0  0  0
  -27.6389  -19.1364   19.3532 C   0  0  0  0  0  0  0  0  0  0  0  0
  -28.4973  -16.4824   19.3136 C   0  0  0  0  0  0  0  0  0  0  0  0
  -22.6596   -8.2213   21.6464 C   0  0  0  0  0  0  0  0  0  0  0  0
  -26.2809  -26.8903   19.3711 C   0  0  0  0  0  0  0  0  0  0  0  0
  -21.5201   -6.6127   22.9255 C   0  0  0  0  0  0  0  0  0  0  0  0
  -21.4699   -4.0815   24.0973 C   0  0  0  0  0  0  0  0  0  0  0  0
  -21.3731   -6.4864   24.3068 C   0  0  0  0  0  0  0  0  0  0  0  0
  -26.1274   -9.3176   19.4852 C   0  0  0  0  0  0  0  0  0  0  0  0
  -27.6973   -9.5120   17.9580 C   0  0  0  0  0  0  0  0  0  0  0  0
  -27.9942  -21.5448   18.8801 C   0  0  0  0  0  0  0  0  0  0  0  0
  -25.8512   -7.9503   17.3244 C   0  0  0  0  0  0  0  0  0  0  0  0
  -26.5521  -31.0108   22.8942 C   0  0  0  0  0  0  0  0  0  0  0  0
  -23.3356  -30.7844   23.2481 C   0  0  0  0  0  0  0  0  0  0  0  0
  -20.7832  -28.3161   22.6076 C   0  0  0  0  0  0  0  0  0  0  0  0
  -30.0681  -14.6204   19.9553 C   0  0  0  0  0  0  0  0  0  0  0  0
  -28.8501  -34.7393   25.5162 C   0  0  0  0  0  0  0  0  0  0  0  0
  -25.7802  -31.0150   20.4942 C   0  0  0  0  0  0  0  0  0  0  0  0
  -24.4777  -28.8727   22.0622 C   0  0  0  0  0  0  0  0  0  0  0  0
  -27.5715  -22.9607   19.2342 C   0  0  0  0  0  0  0  0  0  0  0  0
  -27.6423  -33.8326   25.7385 C   0  0  0  0  0  0  0  0  0  0  0  0
  -31.4952  -11.3682   20.2086 C   0  0  0  0  0  0  0  0  0  0  0  0
  -28.0086  -32.3780   25.4616 C   0  0  0  0  0  0  0  0  0  0  0  0
  -30.3167  -10.4325   19.9295 C   0  0  0  0  0  0  0  0  0  0  0  0
  -25.4288  -22.1542   20.1437 C   0  0  0  0  0  0  0  0  0  0  0  0
  -31.0654  -12.6000   21.0034 C   0  0  0  0  0  0  0  0  0  0  0  0
  -25.7611  -20.7400   19.6918 C   0  0  0  0  0  0  0  0  0  0  0  0
  -28.7622  -12.4130   20.1491 C   0  0  0  0  0  0  0  0  0  0  0  0
  -28.4435  -32.1866   24.0036 C   0  0  1  0  0  0  0  0  0  0  0  0
  -25.3948  -31.2116   21.9571 C   0  0  1  0  0  0  0  0  0  0  0  0
  -29.1338  -11.1898   19.2950 C   0  0  2  0  0  0  0  0  0  0  0  0
  -26.0636  -23.2108   19.2378 C   0  0  2  0  0  0  0  0  0  0  0  0
  -26.5700  -15.8566   17.8207 C   0  0  0  0  0  0  0  0  0  0  0  0
  -29.5666  -19.7631   20.8445 C   0  0  0  0  0  0  0  0  0  0  0  0
  -25.4978  -23.1550   17.8074 C   0  0  0  0  0  0  0  0  0  0  0  0
  -18.3359  -28.5877   22.1232 C   0  0  0  0  0  0  0  0  0  0  0  0
  -22.9933  -30.3966   26.2552 C   0  0  0  0  0  0  0  0  0  0  0  0
  -20.9297  -29.0617   25.7777 C   0  0  0  0  0  0  0  0  0  0  0  0
  -21.0413  -31.4631   25.1119 C   0  0  0  0  0  0  0  0  0  0  0  0
  -20.9905  -26.7683   20.0936 C   0  0  0  0  0  0  0  0  0  0  0  0
  -25.7785  -24.6086   19.8156 C   0  0  0  0  0  0  0  0  0  1  0  0
  -22.3934  -29.7566   23.8269 C   0  0  1  0  0  0  0  0  0  0  0  0
  -19.7180  -28.3696   21.5273 C   0  0  2  0  0  0  0  0  0  0  0  0
  -21.8644  -30.1620   25.2316 C   0  0  0  0  0  0  0  0  0  0  0  0
  -27.0008  -10.1804   20.0112 N   0  0  0  0  0  0  0  0  0  0  0  0
  -27.9442  -10.2781   19.0591 N   0  0  0  0  0  0  0  0  0  0  0  0
  -27.1766  -20.5086   19.3606 N   0  0  0  0  0  0  0  0  0  0  0  0
  -24.3326  -30.3008   22.3891 N   0  0  0  0  0  0  0  0  0  0  0  0
  -29.9438  -13.2687   20.3403 N   0  0  0  0  0  0  0  0  0  0  0  0
  -28.5438   -9.4920   16.9066 N   0  0  0  0  0  0  0  0  0  0  0  0
  -24.6393   -7.3797   17.7368 N   0  0  0  0  0  0  0  0  0  0  0  0
  -28.9497  -15.1396   19.3040 N   0  0  0  0  0  0  0  0  0  0  0  0
  -27.2889  -32.1554   23.1317 N   0  0  0  0  0  0  0  0  0  0  0  0
  -21.3476  -29.5544   22.8300 N   0  0  0  0  0  0  0  0  0  0  0  0
  -19.7006  -27.0959   20.7537 N   0  3  0  0  0  0  0  0  0  0  0  0
  -29.0459  -21.3941   18.2521 O   0  0  0  0  0  0  0  0  0  0  0  0
  -26.3314   -7.6328   16.2099 O   0  0  0  0  0  0  0  0  0  0  0  0
  -26.7602  -29.8999   23.3679 O   0  0  0  0  0  0  0  0  0  0  0  0
  -23.1878  -31.9734   23.5416 O   0  0  0  0  0  0  0  0  0  0  0  0
  -21.0818  -27.2804   23.1980 O   0  0  0  0  0  0  0  0  0  0  0  0
  -31.1017  -15.2616   20.1620 O   0  0  0  0  0  0  0  0  0  0  0  0
  -21.5443   -7.8684   22.3422 O   0  0  0  0  0  0  0  0  0  0  0  0
  -26.4360  -25.5870   19.0114 O   0  0  0  0  0  0  0  0  0  1  0  0
  -21.4443   -2.8660   24.6596 F   0  0  0  0  0  0  0  0  0  0  0  0
  -21.2545   -7.5773   25.0761 F   0  0  0  0  0  0  0  0  0  0  0  0
  1  2  1  0  0  0  0
  1  5  2  0  0  0  0
  2  6  2  0  0  0  0
  3  8  2  0  0  0  0
  3 17  1  0  0  0  0
  4  9  1  0  0  0  0
  4 17  2  0  0  0  0
  5 19  1  0  0  0  0
  6 21  1  0  0  0  0
  7 10  2  0  0  0  0
  7 20  1  0  0  0  0
  8 27  1  0  0  0  0
  9 27  2  0  0  0  0
 10 28  1  0  0  0  0
 11 12  2  0  0  0  0
 11 29  1  0  0  0  0
 12 30  1  0  0  0  0
 13 22  1  0  0  0  0
 13 28  2  0  0  0  0
 14 23  2  0  0  0  0
 14 25  1  0  0  0  0
 15 24  1  0  0  0  0
 15 26  2  0  0  0  0
 16 30  2  0  0  0  0
 16 31  1  0  0  0  0
 17 32  1  0  0  0  0
 18 32  1  0  0  0  0
 18 33  2  0  0  0  0
 18 35  1  0  0  0  0
 19 21  2  0  0  0  0
 19 40  1  0  0  0  0
 20 22  2  0  0  0  0
 20 41  1  0  0  0  0
 21 52  1  0  0  0  0
 22 42  1  0  0  0  0
 23 26  1  0  0  0  0
 23 56  1  0  0  0  0
 24 25  2  0  0  0  0
 24 57  1  0  0  0  0
 25 70  1  0  0  0  0
 26 75  1  0  0  0  0
 27 85  1  0  0  0  0
 28 86  1  0  0  0  0
 29 31  2  0  0  0  0
 29 85  1  0  0  0  0
 30 87  1  0  0  0  0
 31 88  1  0  0  0  0
 32 68  2  0  0  0  0
 33 69  1  0  0  0  0
 33 73  1  0  0  0  0
 34 43  1  0  0  0  0
 34 70  1  0  0  0  0
 34 79  2  0  0  0  0
 35 74  1  0  0  0  0
 35 80  2  0  0  0  0
 36 53  1  0  0  0  0
 36 76  1  0  0  0  0
 36 81  2  0  0  0  0
 37 65  1  0  0  0  0
 37 71  1  0  0  0  0
 37 82  2  0  0  0  0
 38 66  1  0  0  0  0
 38 77  1  0  0  0  0
 38 83  2  0  0  0  0
 39 72  1  0  0  0  0
 39 75  1  0  0  0  0
 39 84  2  0  0  0  0
 40 44  1  0  0  0  0
 41 53  1  0  0  0  0
 42 71  1  0  0  0  0
 43 55  1  0  0  0  0
 44 46  1  0  0  0  0
 45 47  1  0  0  0  0
 45 49  1  0  0  0  0
 46 52  1  0  0  0  0
 47 54  1  0  0  0  0
 48 50  1  0  0  0  0
 48 55  1  0  0  0  0
 49 72  1  0  0  0  0
 50 70  1  0  0  0  0
 51 54  1  0  0  0  0
 51 72  1  0  0  0  0
 52 76  1  0  0  0  0
 53 71  1  0  0  0  0
 54 69  1  0  0  0  0
 55 58  1  0  0  0  0
 55 64  1  0  0  0  0
 59 66  1  0  0  0  0
 60 67  1  0  0  0  0
 61 67  1  0  0  0  0
 62 67  1  0  0  0  0
 63 78  1  0  0  0  0
 64 86  1  0  0  0  0
 65 67  1  0  0  0  0
 65 77  1  0  0  0  0
 66 78  1  0  0  0  0
 68 69  1  0  0  0  0
M  CHG  1  78   1
M  ISO  4  39 100  64 101  75 100  86 101
M  END
> <Batch ID>
0053

> <Smiles>
CNC(C)C(=O)NC(C(=O)N1Cc2cc([101O:1][101CH2:1]C3(C)CCN(c4cc(C)c([100NH:0][100C:0](=O)N5CCCC(n6nc(-c7ccc(Oc8ccc(F)cc8F)cc7)c(C(N)=O)c6N)C5)cc4C)C(=O)C3)ccc2CC1C(=O)NC1CCCc2ccccc21)C(C)(C)C

> <Shape>
0.287

> <Color>
0.105

> <Negative vol penalty>
0.000

$$$$

  -OEChem-04042322433D

 86 94  0     1  0  0  0  0  0999 V2000
  -35.5909  -29.5552   19.6564 C   0  0  0  0  0  0  0  0  0  0  0  0
  -34.6502  -28.5698   19.3746 C   0  0  0  0  0  0  0  0  0  0  0  0
  -24.4320   -9.3098   22.1061 C   0  0  0  0  0  0  0  0  0  0  0  0
  -23.2477   -9.7288   20.0424 C   0  0  0  0  0  0  0  0  0  0  0  0
  -22.4469  -17.7514   15.7089 C   0  0  0  0  0  0  0  0  0  0  0  0
  -35.4403  -30.3585   20.7860 C   0  0  0  0  0  0  0  0  0  0  0  0
  -33.5589  -28.3862   20.2230 C   0  0  0  0  0  0  0  0  0  0  0  0
  -27.8847  -26.7336   18.6172 C   0  0  0  0  0  0  0  0  0  0  0  0
  -23.3731  -17.0309   16.4627 C   0  0  0  0  0  0  0  0  0  0  0  0
  -23.3953   -8.4795   22.5324 C   0  0  0  0  0  0  0  0  0  0  0  0
  -22.2111   -8.8985   20.4687 C   0  0  0  0  0  0  0  0  0  0  0  0
  -27.2257  -25.5051   18.6329 C   0  0  0  0  0  0  0  0  0  0  0  0
  -22.3456   -5.3153   21.9678 C   0  0  0  0  0  0  0  0  0  0  0  0
  -22.6896   -4.0919   22.5426 C   0  0  0  0  0  0  0  0  0  0  0  0
  -26.2636  -26.0554   20.7755 C   0  0  0  0  0  0  0  0  0  0  0  0
  -23.6965  -18.9477   17.8975 C   0  0  0  0  0  0  0  0  0  0  0  0
  -21.5717   -4.7371   24.5850 C   0  0  0  0  0  0  0  0  0  0  0  0
  -24.3581   -9.9344   20.8611 C   0  0  0  0  0  0  0  0  0  0  0  0
  -22.1455  -19.0702   16.0492 C   0  0  0  0  0  0  0  0  0  0  0  0
  -26.5713  -10.4187   19.6884 C   0  0  0  0  0  0  0  0  0  0  0  0
  -34.3414  -30.1912   21.6434 C   0  0  0  0  0  0  0  0  0  0  0  0
  -27.7465  -27.6292   19.6874 C   0  0  0  0  0  0  0  0  0  0  0  0
  -33.3941  -29.1871   21.3659 C   0  0  0  0  0  0  0  0  0  0  0  0
  -26.9199  -27.2957   20.7698 C   0  0  0  0  0  0  0  0  0  0  0  0
  -22.7703  -19.6683   17.1435 C   0  0  0  0  0  0  0  0  0  0  0  0
  -23.9980  -17.6289   17.5571 C   0  0  0  0  0  0  0  0  0  0  0  0
  -22.2849   -8.2739   21.7137 C   0  0  0  0  0  0  0  0  0  0  0  0
  -26.4173  -25.1646   19.7135 C   0  0  0  0  0  0  0  0  0  0  0  0
  -21.6147   -6.2498   22.7016 C   0  0  0  0  0  0  0  0  0  0  0  0
  -22.3026   -3.8028   23.8512 C   0  0  0  0  0  0  0  0  0  0  0  0
  -21.2278   -5.9606   24.0102 C   0  0  0  0  0  0  0  0  0  0  0  0
  -25.4284  -10.7926   20.4204 C   0  0  0  0  0  0  0  0  0  0  0  0
  -27.2713  -11.5889   19.5234 C   0  0  0  0  0  0  0  0  0  0  0  0
  -21.1748  -19.7996   15.2441 C   0  0  0  0  0  0  0  0  0  0  0  0
  -26.9649   -9.1290   19.2012 C   0  0  0  0  0  0  0  0  0  0  0  0
  -29.7356  -28.9157   21.8069 C   0  0  0  0  0  0  0  0  0  0  0  0
  -27.1078  -30.6162   22.6585 C   0  0  0  0  0  0  0  0  0  0  0  0
  -24.1555  -22.5667   18.6339 C   0  0  0  0  0  0  0  0  0  0  0  0
  -23.7035  -30.8416   22.7394 C   0  0  0  0  0  0  0  0  0  0  0  0
  -25.6487  -17.3391   19.4379 C   0  0  0  0  0  0  0  0  0  0  0  0
  -34.2463  -31.0520   22.8781 C   0  0  0  0  0  0  0  0  0  0  0  0
  -28.4428  -28.9617   19.6430 C   0  0  0  0  0  0  0  0  0  0  0  0
  -26.7222  -28.2305   21.9341 C   0  0  0  0  0  0  0  0  0  0  0  0
  -32.8623  -31.0424   23.5222 C   0  0  0  0  0  0  0  0  0  0  0  0
  -28.0247  -15.8292   21.6178 C   0  0  0  0  0  0  0  0  0  0  0  0
  -32.3351  -29.6153   23.6332 C   0  0  0  0  0  0  0  0  0  0  0  0
  -27.7366  -14.3318   21.4868 C   0  0  0  0  0  0  0  0  0  0  0  0
  -26.7440  -16.6601   21.5626 C   0  0  0  0  0  0  0  0  0  0  0  0
  -25.5982  -14.9051   20.2678 C   0  0  0  0  0  0  0  0  0  0  0  0
  -32.1835  -28.9740   22.2486 C   0  0  1  0  0  0  0  0  0  0  0  0
  -28.6387  -29.5799   21.0239 C   0  0  1  0  0  0  0  0  0  0  0  0
  -26.8634  -14.0318   20.2526 C   0  0  2  0  0  0  0  0  0  0  0  0
  -21.4828  -19.9818   13.7875 C   0  0  0  0  0  0  0  0  0  0  0  0
  -21.8462  -32.3305   23.5339 C   0  0  0  0  0  0  0  0  0  0  0  0
  -27.5772  -29.6702   25.5212 C   0  0  0  0  0  0  0  0  0  0  0  0
  -25.2356  -30.3714   26.0629 C   0  0  0  0  0  0  0  0  0  0  0  0
  -26.9022  -32.0692   25.3128 C   0  0  0  0  0  0  0  0  0  0  0  0
  -24.2865  -22.0609   16.1886 C   0  0  0  0  0  0  0  0  0  0  0  0
  -22.6804  -31.2276   19.9893 C   0  0  0  0  0  0  0  0  0  0  0  0
  -22.4651  -21.0864   17.5307 C   0  0  0  0  0  0  0  0  0  0  0  0
  -25.4038  -23.4080   18.4712 C   0  0  0  0  0  0  0  0  0  1  0  0
  -25.9765  -30.4169   23.6380 C   0  0  1  0  0  0  0  0  0  0  0  0
  -22.7599  -31.9726   22.3720 C   0  0  2  0  0  0  0  0  0  0  0  0
  -26.4279  -30.6133   25.1128 C   0  0  0  0  0  0  0  0  0  0  0  0
  -25.4001  -12.0982   20.7011 N   0  0  0  0  0  0  0  0  0  0  0  0
  -26.5340  -12.5548   20.1427 N   0  0  0  0  0  0  0  0  0  0  0  0
  -27.4292  -29.5189   21.8471 N   0  0  0  0  0  0  0  0  0  0  0  0
  -25.9704  -16.3253   20.3650 N   0  0  0  0  0  0  0  0  0  0  0  0
  -28.4394  -11.8754   18.9104 N   0  0  0  0  0  0  0  0  0  0  0  0
  -26.1293   -8.0338   19.4592 N   0  0  0  0  0  0  0  0  0  0  0  0
  -24.9388  -16.8961   18.3224 N   0  0  0  0  0  0  0  0  0  0  0  0
  -30.9877  -29.4603   21.5945 N   0  0  0  0  0  0  0  0  0  0  0  0
  -24.9077  -31.3155   23.2155 N   0  0  0  0  0  0  0  0  0  0  0  0
  -23.6565  -21.9307   17.4966 N   0  0  0  0  0  0  0  0  0  0  0  0
  -21.9120  -31.5829   21.2101 N   0  3  0  0  0  0  0  0  0  0  0  0
  -20.1249  -20.2804   15.6718 O   0  0  0  0  0  0  0  0  0  0  0  0
  -28.0343   -8.9502   18.5704 O   0  0  0  0  0  0  0  0  0  0  0  0
  -29.4658  -27.9794   22.5500 O   0  0  0  0  0  0  0  0  0  0  0  0
  -27.6805  -31.7077   22.6101 O   0  0  0  0  0  0  0  0  0  0  0  0
  -23.6437  -22.4750   19.7540 O   0  0  0  0  0  0  0  0  0  0  0  0
  -23.4011  -29.6564   22.6198 O   0  0  0  0  0  0  0  0  0  0  0  0
  -26.0022  -18.5089   19.6068 O   0  0  0  0  0  0  0  0  0  0  0  0
  -21.2733   -7.4636   22.1293 O   0  0  0  0  0  0  0  0  0  0  0  0
  -25.7734  -23.9659   19.7316 O   0  0  0  0  0  0  0  0  0  1  0  0
  -22.6317   -2.6272   24.4025 F   0  0  0  0  0  0  0  0  0  0  0  0
  -20.5245   -6.8538   24.7196 F   0  0  0  0  0  0  0  0  0  0  0  0
  1  2  1  0  0  0  0
  1  6  2  0  0  0  0
  2  7  2  0  0  0  0
  3 10  2  0  0  0  0
  3 18  1  0  0  0  0
  4 11  1  0  0  0  0
  4 18  2  0  0  0  0
  5  9  2  0  0  0  0
  5 19  1  0  0  0  0
  6 21  1  0  0  0  0
  7 23  1  0  0  0  0
  8 12  2  0  0  0  0
  8 22  1  0  0  0  0
  9 26  1  0  0  0  0
 10 27  1  0  0  0  0
 11 27  2  0  0  0  0
 12 28  1  0  0  0  0
 13 14  2  0  0  0  0
 13 29  1  0  0  0  0
 14 30  1  0  0  0  0
 15 24  1  0  0  0  0
 15 28  2  0  0  0  0
 16 25  1  0  0  0  0
 16 26  2  0  0  0  0
 17 30  2  0  0  0  0
 17 31  1  0  0  0  0
 18 32  1  0  0  0  0
 19 25  2  0  0  0  0
 19 34  1  0  0  0  0
 20 32  1  0  0  0  0
 20 33  2  0  0  0  0
 20 35  1  0  0  0  0
 21 23  2  0  0  0  0
 21 41  1  0  0  0  0
 22 24  2  0  0  0  0
 22 42  1  0  0  0  0
 23 50  1  0  0  0  0
 24 43  1  0  0  0  0
 25 60  1  0  0  0  0
 26 71  1  0  0  0  0
 27 83  1  0  0  0  0
 28 84  1  0  0  0  0
 29 31  2  0  0  0  0
 29 83  1  0  0  0  0
 30 85  1  0  0  0  0
 31 86  1  0  0  0  0
 32 65  2  0  0  0  0
 33 66  1  0  0  0  0
 33 69  1  0  0  0  0
 34 53  1  0  0  0  0
 34 76  2  0  0  0  0
 35 70  1  0  0  0  0
 35 77  2  0  0  0  0
 36 51  1  0  0  0  0
 36 72  1  0  0  0  0
 36 78  2  0  0  0  0
 37 62  1  0  0  0  0
 37 67  1  0  0  0  0
 37 79  2  0  0  0  0
 38 61  1  0  0  0  0
 38 74  1  0  0  0  0
 38 80  2  0  0  0  0
 39 63  1  0  0  0  0
 39 73  1  0  0  0  0
 39 81  2  0  0  0  0
 40 68  1  0  0  0  0
 40 71  1  0  0  0  0
 40 82  2  0  0  0  0
 41 44  1  0  0  0  0
 42 51  1  0  0  0  0
 43 67  1  0  0  0  0
 44 46  1  0  0  0  0
 45 47  1  0  0  0  0
 45 48  1  0  0  0  0
 46 50  1  0  0  0  0
 47 52  1  0  0  0  0
 48 68  1  0  0  0  0
 49 52  1  0  0  0  0
 49 68  1  0  0  0  0
 50 72  1  0  0  0  0
 51 67  1  0  0  0  0
 52 66  1  0  0  0  0
 54 63  1  0  0  0  0
 55 64  1  0  0  0  0
 56 64  1  0  0  0  0
 57 64  1  0  0  0  0
 58 74  1  0  0  0  0
 59 75  1  0  0  0  0
 60 74  1  0  0  0  0
 61 84  1  0  0  0  0
 62 64  1  0  0  0  0
 62 73  1  0  0  0  0
 63 75  1  0  0  0  0
 65 66  1  0  0  0  0
M  CHG  1  75   1
M  ISO  4  40 100  61 101  71 100  84 101
M  END
> <Batch ID>
0053

> <Smiles>
CNC(C)C(=O)NC(C(=O)N1Cc2cc([101O:1][101CH2:1]C(=O)N(C)Cc3cc([100NH:0][100C:0](=O)N4CCCC(n5nc(-c6ccc(Oc7ccc(F)cc7F)cc6)c(C(N)=O)c5N)C4)ccc3C(C)=O)ccc2CC1C(=O)NC1CCCc2ccccc21)C(C)(C)C

> <Shape>
0.224

> <Color>
0.072

> <Negative vol penalty>
0.000

$$$$

  -OEChem-04042322433D

 87 95  0     1  0  0  0  0  0999 V2000
  -29.0679  -33.6018   25.8494 C   0  0  0  0  0  0  0  0  0  0  0  0
  -28.9719  -32.3483   25.2536 C   0  0  0  0  0  0  0  0  0  0  0  0
  -24.1723   -8.6083   20.8350 C   0  0  0  0  0  0  0  0  0  0  0  0
  -23.1636  -10.7936   21.0442 C   0  0  0  0  0  0  0  0  0  0  0  0
  -27.9108  -34.2987   26.1946 C   0  0  0  0  0  0  0  0  0  0  0  0
  -27.7186  -31.7906   25.0036 C   0  0  0  0  0  0  0  0  0  0  0  0
  -27.3916  -29.7381   20.3856 C   0  0  0  0  0  0  0  0  0  0  0  0
  -29.8196  -18.6605   22.1640 C   0  0  0  0  0  0  0  0  0  0  0  0
  -29.9231  -17.4153   21.5440 C   0  0  0  0  0  0  0  0  0  0  0  0
  -23.2648   -8.1003   21.7645 C   0  0  0  0  0  0  0  0  0  0  0  0
  -22.2560  -10.2857   21.9737 C   0  0  0  0  0  0  0  0  0  0  0  0
  -27.9772  -28.4863   20.2023 C   0  0  0  0  0  0  0  0  0  0  0  0
  -20.0348   -7.1011   21.8027 C   0  0  0  0  0  0  0  0  0  0  0  0
  -19.4221   -5.8824   21.5113 C   0  0  0  0  0  0  0  0  0  0  0  0
  -25.8099  -27.4482   20.4131 C   0  0  0  0  0  0  0  0  0  0  0  0
  -27.6278  -17.5899   20.8103 C   0  0  0  0  0  0  0  0  0  0  0  0
  -20.3671   -4.9272   23.5192 C   0  0  0  0  0  0  0  0  0  0  0  0
  -24.1218   -9.9549   20.4749 C   0  0  0  0  0  0  0  0  0  0  0  0
  -24.9012  -10.5413   18.1177 C   0  0  0  0  0  0  0  0  0  0  0  0
  -26.6425  -33.7534   25.9399 C   0  0  0  0  0  0  0  0  0  0  0  0
  -26.0099  -29.8537   20.5953 C   0  0  0  0  0  0  0  0  0  0  0  0
  -26.5434  -32.4803   25.3469 C   0  0  0  0  0  0  0  0  0  0  0  0
  -25.2088  -28.7029   20.5963 C   0  0  0  0  0  0  0  0  0  0  0  0
  -28.6202  -19.3704   22.1072 C   0  0  0  0  0  0  0  0  0  0  0  0
  -27.5243  -18.8351   21.4304 C   0  0  0  0  0  0  0  0  0  0  0  0
  -28.8272  -16.8800   20.8671 C   0  0  0  0  0  0  0  0  0  0  0  0
  -22.3066   -8.9390   22.3338 C   0  0  0  0  0  0  0  0  0  0  0  0
  -27.1868  -27.3408   20.2189 C   0  0  0  0  0  0  0  0  0  0  0  0
  -20.8137   -7.2329   22.9523 C   0  0  0  0  0  0  0  0  0  0  0  0
  -19.5882   -4.7954   22.3695 C   0  0  0  0  0  0  0  0  0  0  0  0
  -20.9799   -6.1459   23.8106 C   0  0  0  0  0  0  0  0  0  0  0  0
  -25.0594  -10.4803   19.5152 C   0  0  0  0  0  0  0  0  0  0  0  0
  -26.0614  -11.1211   17.6658 C   0  0  0  0  0  0  0  0  0  0  0  0
  -28.1479  -23.9695   20.9636 C   0  0  0  0  0  0  0  0  0  0  0  0
  -27.6266  -25.1959   21.0416 C   0  0  0  0  0  0  0  0  0  1  0  0
  -23.8036  -10.1124   17.3011 C   0  0  0  0  0  0  0  0  0  0  0  0
  -27.9692  -23.0149   22.0895 C   0  0  0  0  0  0  0  0  0  0  0  0
  -24.1828  -30.9356   22.9607 C   0  0  0  0  0  0  0  0  0  0  0  0
  -21.7910  -30.4028   20.8351 C   0  0  0  0  0  0  0  0  0  0  0  0
  -20.6830  -28.7155   18.0834 C   0  0  0  0  0  0  0  0  0  0  0  0
  -30.0495  -14.7823   20.1948 C   0  0  0  0  0  0  0  0  0  0  0  0
  -25.4206  -34.5237   26.3740 C   0  0  0  0  0  0  0  0  0  0  0  0
  -25.3897  -31.2135   20.7648 C   0  0  0  0  0  0  0  0  0  0  0  0
  -23.7179  -28.7746   20.7973 C   0  0  0  0  0  0  0  0  0  0  0  0
  -24.1275  -34.0258   25.7336 C   0  0  0  0  0  0  0  0  0  0  0  0
  -30.6970  -11.5814   18.7765 C   0  0  0  0  0  0  0  0  0  0  0  0
  -24.0467  -32.5043   25.8072 C   0  0  0  0  0  0  0  0  0  0  0  0
  -29.3097  -10.9437   18.6721 C   0  0  0  0  0  0  0  0  0  0  0  0
  -30.8373  -12.4308   20.0384 C   0  0  0  0  0  0  0  0  0  0  0  0
  -28.4040  -12.8069   20.1196 C   0  0  0  0  0  0  0  0  0  0  0  0
  -25.2016  -31.8527   25.0371 C   0  0  1  0  0  0  0  0  0  0  0  0
  -24.0446  -31.1715   21.4832 C   0  0  1  0  0  0  0  0  0  0  0  0
  -28.1932  -11.9941   18.8317 C   0  0  2  0  0  0  0  0  0  0  0  0
  -18.6715  -28.4644   16.6042 C   0  0  0  0  0  0  0  0  0  0  0  0
  -20.4204  -28.7292   22.9871 C   0  0  0  0  0  0  0  0  0  0  0  0
  -18.9598  -27.7561   21.2016 C   0  0  0  0  0  0  0  0  0  0  0  0
  -18.8839  -30.2039   21.6761 C   0  0  0  0  0  0  0  0  0  0  0  0
  -22.1762  -29.6375   15.7002 C   0  0  0  0  0  0  0  0  0  0  0  0
  -28.5328  -20.7083   22.7829 C   0  0  0  0  0  0  0  0  0  0  0  0
  -20.8996  -29.2313   20.5002 C   0  0  1  0  0  0  0  0  0  0  0  0
  -19.9886  -29.1931   16.8208 C   0  0  2  0  0  0  0  0  0  0  0  0
  -26.2309  -19.5780   21.3547 C   0  0  0  0  0  0  0  0  0  0  0  0
  -19.8193  -28.9783   21.5894 C   0  0  0  0  0  0  0  0  0  0  0  0
  -26.2281  -10.9812   19.9242 N   0  0  0  0  0  0  0  0  0  0  0  0
  -26.8148  -11.3624   18.7768 N   0  0  0  0  0  0  0  0  0  0  0  0
  -23.1594  -30.1264   20.9649 N   0  0  0  0  0  0  0  0  0  0  0  0
  -29.7478  -13.4060   20.1202 N   0  0  0  0  0  0  0  0  0  0  0  0
  -26.5005  -11.4428   16.4305 N   0  0  0  0  0  0  0  0  0  0  0  0
  -22.6895   -9.5373   17.9275 N   0  0  0  0  0  0  0  0  0  0  0  0
  -28.9324  -15.6160   20.2354 N   0  0  0  0  0  0  0  0  0  0  0  0
  -28.5746  -21.7964   21.8345 N   0  0  0  0  0  0  0  0  0  0  0  0
  -24.9429  -31.8870   23.6136 N   0  0  0  0  0  0  0  0  0  0  0  0
  -20.3582  -29.4970   19.1719 N   0  0  0  0  0  0  0  0  0  0  0  0
  -20.8563  -28.9590   15.6321 N   0  3  0  0  0  0  0  0  0  0  0  0
  -23.8174  -10.2204   16.0514 O   0  0  0  0  0  0  0  0  0  0  0  0
  -27.3510  -23.3033   23.1092 O   0  0  0  0  0  0  0  0  0  0  0  0
  -23.6387  -29.9632   23.4707 O   0  0  0  0  0  0  0  0  0  0  0  0
  -21.2924  -31.5231   20.9694 O   0  0  0  0  0  0  0  0  0  0  0  0
  -21.4353  -27.7438   18.1028 O   0  0  0  0  0  0  0  0  0  0  0  0
  -31.2129  -15.1927   20.1933 O   0  0  0  0  0  0  0  0  0  0  0  0
  -21.4207   -8.4437   23.2407 O   0  0  0  0  0  0  0  0  0  0  0  0
  -27.7560  -26.1176   20.0409 O   0  0  0  0  0  0  0  0  0  1  0  0
  -18.9986   -3.6256   22.0904 F   0  0  0  0  0  0  0  0  0  0  0  0
  -21.7260   -6.2668   24.9171 F   0  0  0  0  0  0  0  0  0  0  0  0
  -25.2624  -18.9172   20.6554 F   0  0  0  0  0  0  0  0  0  0  0  0
  -25.6781  -19.8348   22.5761 F   0  0  0  0  0  0  0  0  0  0  0  0
  -26.3600  -20.7922   20.7466 F   0  0  0  0  0  0  0  0  0  0  0  0
  1  2  1  0  0  0  0
  1  5  2  0  0  0  0
  2  6  2  0  0  0  0
  3 10  2  0  0  0  0
  3 18  1  0  0  0  0
  4 11  1  0  0  0  0
  4 18  2  0  0  0  0
  5 20  1  0  0  0  0
  6 22  1  0  0  0  0
  7 12  2  0  0  0  0
  7 21  1  0  0  0  0
  8  9  2  0  0  0  0
  8 24  1  0  0  0  0
  9 26  1  0  0  0  0
 10 27  1  0  0  0  0
 11 27  2  0  0  0  0
 12 28  1  0  0  0  0
 13 14  2  0  0  0  0
 13 29  1  0  0  0  0
 14 30  1  0  0  0  0
 15 23  1  0  0  0  0
 15 28  2  0  0  0  0
 16 25  1  0  0  0  0
 16 26  2  0  0  0  0
 17 30  2  0  0  0  0
 17 31  1  0  0  0  0
 18 32  1  0  0  0  0
 19 32  1  0  0  0  0
 19 33  2  0  0  0  0
 19 36  1  0  0  0  0
 20 22  2  0  0  0  0
 20 42  1  0  0  0  0
 21 23  2  0  0  0  0
 21 43  1  0  0  0  0
 22 51  1  0  0  0  0
 23 44  1  0  0  0  0
 24 25  2  0  0  0  0
 24 59  1  0  0  0  0
 25 62  1  0  0  0  0
 26 70  1  0  0  0  0
 27 81  1  0  0  0  0
 28 82  1  0  0  0  0
 29 31  2  0  0  0  0
 29 81  1  0  0  0  0
 30 83  1  0  0  0  0
 31 84  1  0  0  0  0
 32 64  2  0  0  0  0
 33 65  1  0  0  0  0
 33 68  1  0  0  0  0
 34 35  2  0  0  0  0
 34 37  1  0  0  0  0
 35 82  1  0  0  0  0
 36 69  1  0  0  0  0
 36 75  2  0  0  0  0
 37 71  1  0  0  0  0
 37 76  2  0  0  0  0
 38 52  1  0  0  0  0
 38 72  1  0  0  0  0
 38 77  2  0  0  0  0
 39 60  1  0  0  0  0
 39 66  1  0  0  0  0
 39 78  2  0  0  0  0
 40 61  1  0  0  0  0
 40 73  1  0  0  0  0
 40 79  2  0  0  0  0
 41 67  1  0  0  0  0
 41 70  1  0  0  0  0
 41 80  2  0  0  0  0
 42 45  1  0  0  0  0
 43 52  1  0  0  0  0
 44 66  1  0  0  0  0
 45 47  1  0  0  0  0
 46 48  1  0  0  0  0
 46 49  1  0  0  0  0
 47 51  1  0  0  0  0
 48 53  1  0  0  0  0
 49 67  1  0  0  0  0
 50 53  1  0  0  0  0
 50 67  1  0  0  0  0
 51 72  1  0  0  0  0
 52 66  1  0  0  0  0
 53 65  1  0  0  0  0
 54 61  1  0  0  0  0
 55 63  1  0  0  0  0
 56 63  1  0  0  0  0
 57 63  1  0  0  0  0
 58 74  1  0  0  0  0
 59 71  1  0  0  0  0
 60 63  1  0  0  0  0
 60 73  1  0  0  0  0
 61 74  1  0  0  0  0
 62 85  1  0  0  0  0
 62 86  1  0  0  0  0
 62 87  1  0  0  0  0
 64 65  1  0  0  0  0
M  CHG  1  74   1
M  ISO  4  35 101  41 100  70 100  82 101
M  END
> <Batch ID>
0053

> <Smiles>
CNC(C)C(=O)NC(C(=O)N1Cc2cc([101O:1][101CH:1]=CC(=O)NCc3ccc([100NH:0][100C:0](=O)N4CCCC(n5nc(-c6ccc(Oc7ccc(F)cc7F)cc6)c(C(N)=O)c5N)C4)cc3C(F)(F)F)ccc2CC1C(=O)NC1CCCc2ccccc21)C(C)(C)C

> <Shape>
0.293

> <Color>
0.091

> <Negative vol penalty>
0.000

$$$$

  -OEChem-04042322433D

 96105  0     1  0  0  0  0  0999 V2000
  -21.3405  -30.1093   14.3158 C   0  0  0  0  0  0  0  0  0  0  0  0
  -22.5368  -29.6703   14.8740 C   0  0  0  0  0  0  0  0  0  0  0  0
  -22.9145  -11.4108   21.6626 C   0  0  0  0  0  0  0  0  0  0  0  0
  -23.3243  -13.4562   20.4439 C   0  0  0  0  0  0  0  0  0  0  0  0
  -20.7844  -31.3204   14.7255 C   0  0  0  0  0  0  0  0  0  0  0  0
  -23.1783  -30.4429   15.8416 C   0  0  0  0  0  0  0  0  0  0  0  0
  -24.8142  -27.6835   19.7601 C   0  0  0  0  0  0  0  0  0  0  0  0
  -31.4699  -17.2165   18.6179 C   0  0  0  0  0  0  0  0  0  0  0  0
  -30.8719  -15.9619   18.7355 C   0  0  0  0  0  0  0  0  0  0  0  0
  -21.8390  -12.0144   22.3141 C   0  0  0  0  0  0  0  0  0  0  0  0
  -22.2487  -14.0598   21.0954 C   0  0  0  0  0  0  0  0  0  0  0  0
  -25.9866  -26.9512   19.5778 C   0  0  0  0  0  0  0  0  0  0  0  0
  -18.8779  -14.0652   20.8545 C   0  0  0  0  0  0  0  0  0  0  0  0
  -17.9907  -14.8134   20.0808 C   0  0  0  0  0  0  0  0  0  0  0  0
  -27.2285  -28.6618   20.7401 C   0  0  0  0  0  0  0  0  0  0  0  0
  -30.2389  -21.5632   17.3130 C   0  0  0  0  0  0  0  0  0  0  0  0
  -31.8392  -23.0152   18.3935 C   0  0  0  0  0  0  0  0  0  0  0  0
  -32.6238  -15.2686   20.2479 C   0  0  0  0  0  0  0  0  0  0  0  0
  -18.4985  -16.7755   21.3959 C   0  0  0  0  0  0  0  0  0  0  0  0
  -23.6573  -12.1317   20.7276 C   0  0  0  0  0  0  0  0  0  0  0  0
  -32.5784  -20.9617   17.3573 C   0  0  0  0  0  0  0  0  0  0  0  0
  -24.7363  -10.7936   18.8427 C   0  0  0  0  0  0  0  0  0  0  0  0
  -21.4144  -32.1035   15.7056 C   0  0  0  0  0  0  0  0  0  0  0  0
  -24.8421  -28.9177   20.4252 C   0  0  0  0  0  0  0  0  0  0  0  0
  -22.6308  -31.6662   16.2638 C   0  0  0  0  0  0  0  0  0  0  0  0
  -26.0547  -29.4066   20.9317 C   0  0  0  0  0  0  0  0  0  0  0  0
  -32.6450  -17.4972   19.3153 C   0  0  0  0  0  0  0  0  0  0  0  0
  -31.2651  -20.6782   16.9823 C   0  0  0  0  0  0  0  0  0  0  0  0
  -32.8655  -22.1302   18.0629 C   0  0  0  0  0  0  0  0  0  0  0  0
  -31.4488  -14.9879   19.5505 C   0  0  0  0  0  0  0  0  0  0  0  0
  -30.5260  -22.7317   18.0185 C   0  0  0  0  0  0  0  0  0  0  0  0
  -21.5060  -13.3389   22.0304 C   0  0  0  0  0  0  0  0  0  0  0  0
  -27.1944  -27.4417   20.0653 C   0  0  0  0  0  0  0  0  0  0  0  0
  -19.5754  -14.6721   21.8990 C   0  0  0  0  0  0  0  0  0  0  0  0
  -17.8010  -16.1686   20.3515 C   0  0  0  0  0  0  0  0  0  0  0  0
  -33.2219  -16.5232   20.1302 C   0  0  0  0  0  0  0  0  0  0  0  0
  -19.3857  -16.0272   22.1697 C   0  0  0  0  0  0  0  0  0  0  0  0
  -24.7688  -11.5090   20.0547 C   0  0  0  0  0  0  0  0  0  0  0  0
  -26.0387  -10.4101   18.6353 C   0  0  0  0  0  0  0  0  0  0  0  0
  -33.6514  -20.0348   17.0123 C   0  0  0  0  0  0  0  0  0  0  0  0
  -23.6278  -10.5019   17.9813 C   0  0  0  0  0  0  0  0  0  0  0  0
  -24.1513  -31.9146   19.6223 C   0  0  0  0  0  0  0  0  0  0  0  0
  -24.6953  -32.4719   22.7712 C   0  0  0  0  0  0  0  0  0  0  0  0
  -29.5920  -24.8304   19.0469 C   0  0  0  0  0  0  0  0  0  0  0  0
  -26.2118  -31.4919   25.6672 C   0  0  0  0  0  0  0  0  0  0  0  0
  -31.2849  -12.6344   20.4339 C   0  0  0  0  0  0  0  0  0  0  0  0
  -20.7996  -33.4282   16.0821 C   0  0  0  0  0  0  0  0  0  0  0  0
  -23.5644  -29.6827   20.6371 C   0  0  0  0  0  0  0  0  0  0  0  0
  -26.1350  -30.7165   21.6706 C   0  0  0  0  0  0  0  0  0  0  0  0
  -21.3490  -34.0068   17.3835 C   0  0  0  0  0  0  0  0  0  0  0  0
  -30.0537   -9.3451   21.0186 C   0  0  0  0  0  0  0  0  0  0  0  0
  -22.8719  -33.9215   17.4047 C   0  0  0  0  0  0  0  0  0  0  0  0
  -28.5568   -9.4602   20.7216 C   0  0  0  0  0  0  0  0  0  0  0  0
  -30.5969  -10.6045   21.6914 C   0  0  0  0  0  0  0  0  0  0  0  0
  -28.8120  -11.9743   20.6878 C   0  0  0  0  0  0  0  0  0  0  0  0
  -23.3438  -32.4642   17.3339 C   0  0  1  0  0  0  0  0  0  0  0  0
  -23.7925  -31.1717   20.8781 C   0  0  1  0  0  0  0  0  0  0  0  0
  -28.2331  -10.7553   19.9512 C   0  0  2  0  0  0  0  0  0  0  0  0
  -30.9272  -19.4345   16.2259 C   0  0  0  0  0  0  0  0  0  0  0  0
  -34.2622  -22.4604   18.4792 C   0  0  0  0  0  0  0  0  0  0  0  0
  -36.3443  -18.4995   18.1453 C   0  0  0  0  0  0  0  0  0  0  0  0
  -26.5026  -32.1698   28.0658 C   0  0  0  0  0  0  0  0  0  0  0  0
  -26.6766  -34.6300   21.9186 C   0  0  0  0  0  0  0  0  0  0  0  0
  -27.6060  -34.5970   24.2431 C   0  0  0  0  0  0  0  0  0  0  0  0
  -25.2293  -35.2513   23.8612 C   0  0  0  0  0  0  0  0  0  0  0  0
  -24.9434  -29.0032   26.6452 C   0  0  0  0  0  0  0  0  0  0  0  0
  -33.2843  -18.8496   19.1874 C   0  0  0  0  0  0  0  0  0  0  0  0
  -28.2321  -25.4873   19.1940 C   0  0  0  0  0  0  0  0  0  1  0  0
  -35.0236  -18.0299   17.6376 C   0  0  0  0  0  0  0  0  0  0  0  0
  -25.9053  -32.8292   23.6003 C   0  0  1  0  0  0  0  0  0  0  0  0
  -25.6828  -31.3486   27.0828 C   0  0  2  0  0  0  0  0  0  0  0  0
  -26.3534  -34.3031   23.3902 C   0  0  0  0  0  0  0  0  0  0  0  0
  -25.9948  -11.5772   20.5804 N   0  0  0  0  0  0  0  0  0  0  0  0
  -26.7447  -10.8997   19.6946 N   0  0  0  0  0  0  0  0  0  0  0  0
  -24.8596  -31.4305   21.8469 N   0  0  0  0  0  0  0  0  0  0  0  0
  -30.2558  -11.7909   20.9032 N   0  0  0  0  0  0  0  0  0  0  0  0
  -26.6375   -9.7051   17.6520 N   0  0  0  0  0  0  0  0  0  0  0  0
  -22.3581  -10.9715   18.3441 N   0  0  0  0  0  0  0  0  0  0  0  0
  -29.4848  -23.6296   18.3535 N   0  0  0  0  0  0  0  0  0  0  0  0
  -30.8424  -13.7127   19.6684 N   0  0  0  0  0  0  0  0  0  0  0  0
  -23.2007  -31.8233   18.6235 N   0  0  0  0  0  0  0  0  0  0  0  0
  -25.5667  -32.4984   24.9802 N   0  0  0  0  0  0  0  0  0  0  0  0
  -33.9740  -19.0082   17.9148 N   0  0  0  0  0  0  0  0  0  0  0  0
  -25.7274  -29.9217   27.5105 N   0  3  0  0  0  0  0  0  0  0  0  0
  -34.2082  -20.2086   15.9226 O   0  0  0  0  0  0  0  0  0  0  0  0
  -23.7567   -9.8303   16.9297 O   0  0  0  0  0  0  0  0  0  0  0  0
  -25.2113  -32.5267   19.5643 O   0  0  0  0  0  0  0  0  0  0  0  0
  -23.6412  -33.0892   22.9426 O   0  0  0  0  0  0  0  0  0  0  0  0
  -30.6073  -25.3457   19.5034 O   0  0  0  0  0  0  0  0  0  0  0  0
  -27.1103  -30.7843   25.2170 O   0  0  0  0  0  0  0  0  0  0  0  0
  -32.4733  -12.4011   20.6692 O   0  0  0  0  0  0  0  0  0  0  0  0
  -20.4564  -13.9281   22.6658 O   0  0  0  0  0  0  0  0  0  0  0  0
  -28.3403  -26.7293   19.8883 O   0  0  0  0  0  0  0  0  0  1  0  0
  -16.9502  -16.8873   19.6074 F   0  0  0  0  0  0  0  0  0  0  0  0
  -34.3507  -16.7835   20.8043 F   0  0  0  0  0  0  0  0  0  0  0  0
  -20.0538  -16.6161   23.1710 F   0  0  0  0  0  0  0  0  0  0  0  0
  1  2  1  0  0  0  0
  1  5  2  0  0  0  0
  2  6  2  0  0  0  0
  3 10  2  0  0  0  0
  3 20  1  0  0  0  0
  4 11  1  0  0  0  0
  4 20  2  0  0  0  0
  5 23  1  0  0  0  0
  6 25  1  0  0  0  0
  7 12  2  0  0  0  0
  7 24  1  0  0  0  0
  8  9  2  0  0  0  0
  8 27  1  0  0  0  0
  9 30  1  0  0  0  0
 10 32  1  0  0  0  0
 11 32  2  0  0  0  0
 12 33  1  0  0  0  0
 13 14  2  0  0  0  0
 13 34  1  0  0  0  0
 14 35  1  0  0  0  0
 15 26  1  0  0  0  0
 15 33  2  0  0  0  0
 16 28  2  0  0  0  0
 16 31  1  0  0  0  0
 17 29  1  0  0  0  0
 17 31  2  0  0  0  0
 18 30  2  0  0  0  0
 18 36  1  0  0  0  0
 19 35  2  0  0  0  0
 19 37  1  0  0  0  0
 20 38  1  0  0  0  0
 21 28  1  0  0  0  0
 21 29  2  0  0  0  0
 21 40  1  0  0  0  0
 22 38  1  0  0  0  0
 22 39  2  0  0  0  0
 22 41  1  0  0  0  0
 23 25  2  0  0  0  0
 23 47  1  0  0  0  0
 24 26  2  0  0  0  0
 24 48  1  0  0  0  0
 25 56  1  0  0  0  0
 26 49  1  0  0  0  0
 27 36  2  0  0  0  0
 27 67  1  0  0  0  0
 28 59  1  0  0  0  0
 29 60  1  0  0  0  0
 30 80  1  0  0  0  0
 31 79  1  0  0  0  0
 32 92  1  0  0  0  0
 33 93  1  0  0  0  0
 34 37  2  0  0  0  0
 34 92  1  0  0  0  0
 35 94  1  0  0  0  0
 36 95  1  0  0  0  0
 37 96  1  0  0  0  0
 38 73  2  0  0  0  0
 39 74  1  0  0  0  0
 39 77  1  0  0  0  0
 40 83  1  0  0  0  0
 40 85  2  0  0  0  0
 41 78  1  0  0  0  0
 41 86  2  0  0  0  0
 42 57  1  0  0  0  0
 42 81  1  0  0  0  0
 42 87  2  0  0  0  0
 43 70  1  0  0  0  0
 43 75  1  0  0  0  0
 43 88  2  0  0  0  0
 44 68  1  0  0  0  0
 44 79  1  0  0  0  0
 44 89  2  0  0  0  0
 45 71  1  0  0  0  0
 45 82  1  0  0  0  0
 45 90  2  0  0  0  0
 46 76  1  0  0  0  0
 46 80  1  0  0  0  0
 46 91  2  0  0  0  0
 47 50  1  0  0  0  0
 48 57  1  0  0  0  0
 49 75  1  0  0  0  0
 50 52  1  0  0  0  0
 51 53  1  0  0  0  0
 51 54  1  0  0  0  0
 52 56  1  0  0  0  0
 53 58  1  0  0  0  0
 54 76  1  0  0  0  0
 55 58  1  0  0  0  0
 55 76  1  0  0  0  0
 56 81  1  0  0  0  0
 57 75  1  0  0  0  0
 58 74  1  0  0  0  0
 61 69  1  0  0  0  0
 62 71  1  0  0  0  0
 63 72  1  0  0  0  0
 64 72  1  0  0  0  0
 65 72  1  0  0  0  0
 66 84  1  0  0  0  0
 67 83  1  0  0  0  0
 68 93  1  0  0  0  0
 69 83  1  0  0  0  0
 70 72  1  0  0  0  0
 70 82  1  0  0  0  0
 71 84  1  0  0  0  0
 73 74  1  0  0  0  0
M  CHG  1  84   1
M  ISO  4  46 100  68 101  80 100  93 101
M  END
> <Batch ID>
0053

> <Smiles>
CCN(Cc1ccc([100NH:0][100C:0](=O)N2CCCC(n3nc(-c4ccc(Oc5ccc(F)cc5F)cc4)c(C(N)=O)c3N)C2)cc1F)C(=O)c1c(C)cc(NC(=O)[101CH2:1][101O:1]c2ccc3c(c2)CN(C(=O)C(NC(=O)C(C)NC)C(C)(C)C)C(C(=O)NC2CCCc4ccccc42)C3)cc1C

> <Shape>
0.232

> <Color>
0.098

> <Negative vol penalty>
0.000

$$$$

  -OEChem-04042322433D

 87 95  0     1  0  0  0  0  0999 V2000
  -25.4657  -36.5182   24.1609 C   0  0  0  0  0  0  0  0  0  0  0  0
  -26.2455  -35.4805   23.6604 C   0  0  0  0  0  0  0  0  0  0  0  0
  -24.2943  -13.3758   24.1375 C   0  0  0  0  0  0  0  0  0  0  0  0
  -23.5315  -15.2322   22.7924 C   0  0  0  0  0  0  0  0  0  0  0  0
  -24.2304  -36.2413   24.7450 C   0  0  0  0  0  0  0  0  0  0  0  0
  -25.7909  -34.1650   23.7448 C   0  0  0  0  0  0  0  0  0  0  0  0
  -26.7270  -29.6786   19.6825 C   0  0  0  0  0  0  0  0  0  0  0  0
  -30.5707  -19.1848   16.2920 C   0  0  0  0  0  0  0  0  0  0  0  0
  -28.1750  -19.4491   16.1247 C   0  0  0  0  0  0  0  0  0  0  0  0
  -30.3925  -17.9107   16.8311 C   0  0  0  0  0  0  0  0  0  0  0  0
  -27.9968  -18.1750   16.6637 C   0  0  0  0  0  0  0  0  0  0  0  0
  -23.7315  -13.9649   25.2696 C   0  0  0  0  0  0  0  0  0  0  0  0
  -22.9686  -15.8212   23.9246 C   0  0  0  0  0  0  0  0  0  0  0  0
  -27.6450  -28.6303   19.6378 C   0  0  0  0  0  0  0  0  0  0  0  0
  -20.1796  -15.4516   25.7969 C   0  0  0  0  0  0  0  0  0  0  0  0
  -18.8919  -15.9750   25.6810 C   0  0  0  0  0  0  0  0  0  0  0  0
  -26.0016  -27.1576   20.6124 C   0  0  0  0  0  0  0  0  0  0  0  0
  -19.7269  -18.1619   26.2786 C   0  0  0  0  0  0  0  0  0  0  0  0
  -24.1944  -14.0095   22.8988 C   0  0  0  0  0  0  0  0  0  0  0  0
  -24.1560  -12.5033   20.8403 C   0  0  0  0  0  0  0  0  0  0  0  0
  -23.7561  -34.9226   24.8278 C   0  0  0  0  0  0  0  0  0  0  0  0
  -25.4408  -29.4767   20.2035 C   0  0  0  0  0  0  0  0  0  0  0  0
  -24.5486  -33.8700   24.3318 C   0  0  0  0  0  0  0  0  0  0  0  0
  -25.0683  -28.2044   20.6603 C   0  0  0  0  0  0  0  0  0  0  0  0
  -29.4619  -19.9540   15.9388 C   0  0  0  0  0  0  0  0  0  0  0  0
  -29.1056  -17.4058   17.0169 C   0  0  0  0  0  0  0  0  0  0  0  0
  -23.0686  -15.1875   25.1632 C   0  0  0  0  0  0  0  0  0  0  0  0
  -27.2833  -27.3703   20.1054 C   0  0  0  0  0  0  0  0  0  0  0  0
  -21.2410  -16.2834   26.1538 C   0  0  0  0  0  0  0  0  0  0  0  0
  -18.6655  -17.3301   25.9218 C   0  0  0  0  0  0  0  0  0  0  0  0
  -21.0146  -17.6385   26.3946 C   0  0  0  0  0  0  0  0  0  0  0  0
  -24.7761  -13.4019   21.7290 C   0  0  0  0  0  0  0  0  0  0  0  0
  -25.1221  -12.2237   19.9049 C   0  0  0  0  0  0  0  0  0  0  0  0
  -29.3745  -24.4412   17.4509 C   0  0  0  0  0  0  0  0  0  0  0  0
  -29.5234  -24.9659   18.6753 C   0  0  0  0  0  0  0  0  0  0  0  0
  -22.8255  -11.9692   20.8586 C   0  0  0  0  0  0  0  0  0  0  0  0
  -29.7573  -23.0194   17.1888 C   0  0  0  0  0  0  0  0  0  0  0  0
  -23.8019  -30.6631   22.6550 C   0  0  0  0  0  0  0  0  0  0  0  0
  -21.3807  -28.9258   21.3737 C   0  0  0  0  0  0  0  0  0  0  0  0
  -27.6593  -22.6284   15.8678 C   0  0  0  0  0  0  0  0  0  0  0  0
  -20.4184  -26.2890   19.4326 C   0  0  0  0  0  0  0  0  0  0  0  0
  -29.9163  -15.2182   17.9674 C   0  0  0  0  0  0  0  0  0  0  0  0
  -22.4356  -34.6678   25.5105 C   0  0  0  0  0  0  0  0  0  0  0  0
  -24.4534  -30.6112   20.2201 C   0  0  0  0  0  0  0  0  0  0  0  0
  -23.6932  -27.9305   21.2103 C   0  0  0  0  0  0  0  0  0  0  0  0
  -21.8586  -33.2839   25.2235 C   0  0  0  0  0  0  0  0  0  0  0  0
  -29.8766  -11.9574   19.3966 C   0  0  0  0  0  0  0  0  0  0  0  0
  -22.9346  -32.2140   25.3798 C   0  0  0  0  0  0  0  0  0  0  0  0
  -28.5053  -11.8737   20.0709 C   0  0  0  0  0  0  0  0  0  0  0  0
  -30.4811  -13.3556   19.5123 C   0  0  0  0  0  0  0  0  0  0  0  0
  -28.2430  -14.3633   19.7238 C   0  0  0  0  0  0  0  0  0  0  0  0
  -24.0787  -32.4324   24.3825 C   0  0  1  0  0  0  0  0  0  0  0  0
  -23.3405  -30.4198   21.2459 C   0  0  1  0  0  0  0  0  0  0  0  0
  -27.5654  -12.9911   19.5771 C   0  0  2  0  0  0  0  0  0  0  0  0
  -26.7846  -23.1102   16.9993 C   0  0  0  0  0  0  0  0  0  0  0  0
  -18.3718  -25.0976   18.6022 C   0  0  0  0  0  0  0  0  0  0  0  0
  -21.0209  -27.6374   24.1161 C   0  0  0  0  0  0  0  0  0  0  0  0
  -19.6673  -25.8407   23.0171 C   0  0  0  0  0  0  0  0  0  0  0  0
  -18.8869  -28.2089   22.9439 C   0  0  0  0  0  0  0  0  0  0  0  0
  -21.0951  -26.8524   16.6071 C   0  0  0  0  0  0  0  0  0  0  0  0
  -29.6538  -21.3254   15.3586 C   0  0  0  0  0  0  0  0  0  0  0  0
  -29.1469  -26.3716   19.0165 C   0  0  0  0  0  0  0  0  0  1  0  0
  -20.8725  -27.5142   21.5414 C   0  0  1  0  0  0  0  0  0  0  0  0
  -19.3987  -26.1815   18.3132 C   0  0  2  0  0  0  0  0  0  0  0  0
  -20.1385  -27.3056   22.8961 C   0  0  0  0  0  0  0  0  0  0  0  0
  -26.0386  -13.6748   21.3889 N   0  0  0  0  0  0  0  0  0  0  0  0
  -26.2196  -12.9435   20.2760 N   0  0  0  0  0  0  0  0  0  0  0  0
  -22.7654  -29.0736   21.2113 N   0  0  0  0  0  0  0  0  0  0  0  0
  -29.5363  -14.3615   19.0221 N   0  0  0  0  0  0  0  0  0  0  0  0
  -25.1315  -11.4348   18.8095 N   0  0  0  0  0  0  0  0  0  0  0  0
  -21.9623  -12.3614   21.8907 N   0  0  0  0  0  0  0  0  0  0  0  0
  -28.9243  -16.1115   17.5642 N   0  0  0  0  0  0  0  0  0  0  0  0
  -23.6929  -31.9787   23.0635 N   0  0  0  0  0  0  0  0  0  0  0  0
  -20.0523  -27.2336   20.3680 N   0  0  0  0  0  0  0  0  0  0  0  0
  -29.0158  -22.3622   16.1775 N   0  0  0  0  0  0  0  0  0  0  0  0
  -20.0753  -25.8566   17.0257 N   0  3  0  0  0  0  0  0  0  0  0  0
  -22.4196  -11.1552   19.9947 O   0  0  0  0  0  0  0  0  0  0  0  0
  -30.6824  -22.5143   17.8242 O   0  0  0  0  0  0  0  0  0  0  0  0
  -24.2241  -29.7264   23.3228 O   0  0  0  0  0  0  0  0  0  0  0  0
  -20.5777  -29.8623   21.3792 O   0  0  0  0  0  0  0  0  0  0  0  0
  -27.1645  -22.4981   14.7445 O   0  0  0  0  0  0  0  0  0  0  0  0
  -21.4359  -25.6010   19.4751 O   0  0  0  0  0  0  0  0  0  0  0  0
  -31.0296  -15.1451   17.4410 O   0  0  0  0  0  0  0  0  0  0  0  0
  -22.5190  -15.7624   26.2677 O   0  0  0  0  0  0  0  0  0  0  0  0
  -28.1777  -26.3454   20.0635 O   0  0  0  0  0  0  0  0  0  1  0  0
  -17.4291  -17.8329   25.8089 F   0  0  0  0  0  0  0  0  0  0  0  0
  -22.0305  -18.4428   26.7366 F   0  0  0  0  0  0  0  0  0  0  0  0
  1  2  1  0  0  0  0
  1  5  2  0  0  0  0
  2  6  2  0  0  0  0
  3 12  2  0  0  0  0
  3 19  1  0  0  0  0
  4 13  1  0  0  0  0
  4 19  2  0  0  0  0
  5 21  1  0  0  0  0
  6 23  1  0  0  0  0
  7 14  2  0  0  0  0
  7 22  1  0  0  0  0
  8 10  2  0  0  0  0
  8 25  1  0  0  0  0
  9 11  1  0  0  0  0
  9 25  2  0  0  0  0
 10 26  1  0  0  0  0
 11 26  2  0  0  0  0
 12 27  1  0  0  0  0
 13 27  2  0  0  0  0
 14 28  1  0  0  0  0
 15 16  2  0  0  0  0
 15 29  1  0  0  0  0
 16 30  1  0  0  0  0
 17 24  1  0  0  0  0
 17 28  2  0  0  0  0
 18 30  2  0  0  0  0
 18 31  1  0  0  0  0
 19 32  1  0  0  0  0
 20 32  1  0  0  0  0
 20 33  2  0  0  0  0
 20 36  1  0  0  0  0
 21 23  2  0  0  0  0
 21 43  1  0  0  0  0
 22 24  2  0  0  0  0
 22 44  1  0  0  0  0
 23 52  1  0  0  0  0
 24 45  1  0  0  0  0
 25 61  1  0  0  0  0
 26 72  1  0  0  0  0
 27 84  1  0  0  0  0
 28 85  1  0  0  0  0
 29 31  2  0  0  0  0
 29 84  1  0  0  0  0
 30 86  1  0  0  0  0
 31 87  1  0  0  0  0
 32 66  2  0  0  0  0
 33 67  1  0  0  0  0
 33 70  1  0  0  0  0
 34 35  2  0  0  0  0
 34 37  1  0  0  0  0
 35 62  1  0  0  0  0
 36 71  1  0  0  0  0
 36 77  2  0  0  0  0
 37 75  1  0  0  0  0
 37 78  2  0  0  0  0
 38 53  1  0  0  0  0
 38 73  1  0  0  0  0
 38 79  2  0  0  0  0
 39 63  1  0  0  0  0
 39 68  1  0  0  0  0
 39 80  2  0  0  0  0
 40 55  1  0  0  0  0
 40 75  1  0  0  0  0
 40 81  2  0  0  0  0
 41 64  1  0  0  0  0
 41 74  1  0  0  0  0
 41 82  2  0  0  0  0
 42 69  1  0  0  0  0
 42 72  1  0  0  0  0
 42 83  2  0  0  0  0
 43 46  1  0  0  0  0
 44 53  1  0  0  0  0
 45 68  1  0  0  0  0
 46 48  1  0  0  0  0
 47 49  1  0  0  0  0
 47 50  1  0  0  0  0
 48 52  1  0  0  0  0
 49 54  1  0  0  0  0
 50 69  1  0  0  0  0
 51 54  1  0  0  0  0
 51 69  1  0  0  0  0
 52 73  1  0  0  0  0
 53 68  1  0  0  0  0
 54 67  1  0  0  0  0
 56 64  1  0  0  0  0
 57 65  1  0  0  0  0
 58 65  1  0  0  0  0
 59 65  1  0  0  0  0
 60 76  1  0  0  0  0
 61 75  1  0  0  0  0
 62 85  1  0  0  0  0
 63 65  1  0  0  0  0
 63 74  1  0  0  0  0
 64 76  1  0  0  0  0
 66 67  1  0  0  0  0
M  CHG  1  76   1
M  ISO  4  42 100  62 101  72 100  85 101
M  END
> <Batch ID>
0053

> <Smiles>
CNC(C)C(=O)NC(C(=O)N1Cc2cc([101O:1][101CH2:1]C=CC(=O)N(Cc3ccc([100NH:0][100C:0](=O)N4CCCC(n5nc(-c6ccc(Oc7ccc(F)cc7F)cc6)c(C(N)=O)c5N)C4)cc3)C(C)=O)ccc2CC1C(=O)NC1CCCc2ccccc21)C(C)(C)C

> <Shape>
0.256

> <Color>
0.096

> <Negative vol penalty>
0.000

$$$$

  -OEChem-04042322433D

 97106  0     1  0  0  0  0  0999 V2000
  -25.6122  -37.0964   15.7377 C   0  0  0  0  0  0  0  0  0  0  0  0
  -25.8912  -35.9569   16.4853 C   0  0  0  0  0  0  0  0  0  0  0  0
  -23.0300   -9.8398   19.9615 C   0  0  0  0  0  0  0  0  0  0  0  0
  -23.7470   -9.8963   22.2680 C   0  0  0  0  0  0  0  0  0  0  0  0
  -25.7150  -38.3567   16.3252 C   0  0  0  0  0  0  0  0  0  0  0  0
  -26.2743  -36.0770   17.8207 C   0  0  0  0  0  0  0  0  0  0  0  0
  -23.8969  -32.7688   20.8289 C   0  0  0  0  0  0  0  0  0  0  0  0
  -32.5997  -17.4746   23.4555 C   0  0  0  0  0  0  0  0  0  0  0  0
  -32.0037  -16.5801   22.5665 C   0  0  0  0  0  0  0  0  0  0  0  0
  -22.2756   -8.6963   20.2240 C   0  0  0  0  0  0  0  0  0  0  0  0
  -22.9926   -8.7528   22.5305 C   0  0  0  0  0  0  0  0  0  0  0  0
  -24.3608  -31.4541   20.8216 C   0  0  0  0  0  0  0  0  0  0  0  0
  -23.2766   -5.4175   22.0556 C   0  0  0  0  0  0  0  0  0  0  0  0
  -23.8733   -4.4062   22.8085 C   0  0  0  0  0  0  0  0  0  0  0  0
  -29.3096  -23.3200   23.3467 C   0  0  0  0  0  0  0  0  0  0  0  0
  -25.5725  -31.8767   22.8642 C   0  0  0  0  0  0  0  0  0  0  0  0
  -27.8885  -25.2542   23.0703 C   0  0  0  0  0  0  0  0  0  0  0  0
  -22.1413   -4.6274   24.4783 C   0  0  0  0  0  0  0  0  0  0  0  0
  -23.7657  -10.4398   20.9835 C   0  0  0  0  0  0  0  0  0  0  0  0
  -28.3658  -22.7484   24.2000 C   0  0  0  0  0  0  0  0  0  0  0  0
  -30.4263  -18.3733   24.0085 C   0  0  0  0  0  0  0  0  0  0  0  0
  -24.1228  -12.9598   20.8116 C   0  0  0  0  0  0  0  0  0  0  0  0
  -26.0902  -38.4918   17.6712 C   0  0  0  0  0  0  0  0  0  0  0  0
  -24.2767  -33.6520   21.8498 C   0  0  0  0  0  0  0  0  0  0  0  0
  -26.3835  -37.3403   18.4264 C   0  0  0  0  0  0  0  0  0  0  0  0
  -25.1100  -33.2014   22.8835 C   0  0  0  0  0  0  0  0  0  0  0  0
  -31.8110  -18.3711   24.1765 C   0  0  0  0  0  0  0  0  0  0  0  0
  -26.9447  -24.6826   23.9236 C   0  0  0  0  0  0  0  0  0  0  0  0
  -27.1833  -23.4297   24.4884 C   0  0  0  0  0  0  0  0  0  0  0  0
  -29.8303  -17.4788   23.1195 C   0  0  0  0  0  0  0  0  0  0  0  0
  -30.6190  -16.5823   22.3985 C   0  0  0  0  0  0  0  0  0  0  0  0
  -22.2569   -8.1528   21.5085 C   0  0  0  0  0  0  0  0  0  0  0  0
  -25.2011  -31.0087   21.8377 C   0  0  0  0  0  0  0  0  0  0  0  0
  -22.1123   -6.0338   22.5141 C   0  0  0  0  0  0  0  0  0  0  0  0
  -23.3056   -4.0111   24.0198 C   0  0  0  0  0  0  0  0  0  0  0  0
  -29.0710  -24.5729   22.7819 C   0  0  0  0  0  0  0  0  0  0  0  0
  -21.5446   -5.6387   23.7254 C   0  0  0  0  0  0  0  0  0  0  0  0
  -24.5456  -11.6207   20.7128 C   0  0  0  0  0  0  0  0  0  0  0  0
  -25.2254  -13.6955   20.4517 C   0  0  0  0  0  0  0  0  0  0  0  0
  -28.6446  -21.4400   24.7767 C   0  0  0  0  0  0  0  0  0  0  0  0
  -29.5857  -19.3329   24.7815 C   0  0  0  0  0  0  0  0  0  0  0  0
  -22.8474  -13.4913   21.1946 C   0  0  0  0  0  0  0  0  0  0  0  0
  -25.8836  -36.3922   21.9625 C   0  0  0  0  0  0  0  0  0  0  0  0
  -25.0072  -36.3273   25.0850 C   0  0  0  0  0  0  0  0  0  0  0  0
  -25.6851  -27.6330   23.0154 C   0  0  0  0  0  0  0  0  0  0  0  0
  -24.0468  -34.4766   27.7867 C   0  0  0  0  0  0  0  0  0  0  0  0
  -30.6927  -14.7189   20.7047 C   0  0  0  0  0  0  0  0  0  0  0  0
  -26.2335  -39.8774   18.2492 C   0  0  0  0  0  0  0  0  0  0  0  0
  -23.7462  -35.0594   21.8577 C   0  0  0  0  0  0  0  0  0  0  0  0
  -25.5308  -34.1040   24.0134 C   0  0  0  0  0  0  0  0  0  0  0  0
  -26.2825  -39.8989   19.7748 C   0  0  0  0  0  0  0  0  0  0  0  0
  -29.6102  -12.2561   18.3723 C   0  0  0  0  0  0  0  0  0  0  0  0
  -27.2414  -38.8318   20.2932 C   0  0  0  0  0  0  0  0  0  0  0  0
  -28.1613  -11.9814   18.7814 C   0  0  0  0  0  0  0  0  0  0  0  0
  -30.5039  -12.5084   19.5853 C   0  0  0  0  0  0  0  0  0  0  0  0
  -28.5753  -13.2737   20.9135 C   0  0  0  0  0  0  0  0  0  0  0  0
  -26.7781  -37.4283   19.8847 C   0  0  1  0  0  0  0  0  0  0  0  0
  -24.6109  -36.0194   22.6689 C   0  0  1  0  0  0  0  0  0  0  0  0
  -27.6237  -13.0778   19.7219 C   0  0  2  0  0  0  0  0  0  0  0  0
  -32.4794  -19.3168   25.1212 C   0  0  0  0  0  0  0  0  0  0  0  0
  -26.1694  -22.8197   25.4044 C   0  0  0  0  0  0  0  0  0  0  0  0
  -28.3438  -17.4809   22.9370 C   0  0  0  0  0  0  0  0  0  0  0  0
  -23.4381  -34.6990   30.2111 C   0  0  0  0  0  0  0  0  0  0  0  0
  -27.9547  -36.6805   25.7902 C   0  0  0  0  0  0  0  0  0  0  0  0
  -27.4122  -35.9512   28.1230 C   0  0  0  0  0  0  0  0  0  0  0  0
  -26.3783  -38.0223   27.1934 C   0  0  0  0  0  0  0  0  0  0  0  0
  -26.3166  -27.4873   25.4304 C   0  0  0  0  0  0  0  0  0  0  0  0
  -21.3290  -33.4008   27.3227 C   0  0  0  0  0  0  0  0  0  0  0  0
  -25.6815  -25.4384   24.2192 C   0  0  0  0  0  0  0  0  0  0  0  0
  -25.9217  -29.1262   23.0998 C   0  0  0  0  0  0  0  0  0  1  0  0
  -25.6063  -35.7666   26.3521 C   0  0  1  0  0  0  0  0  0  0  0  0
  -22.9163  -34.6603   28.7831 C   0  0  2  0  0  0  0  0  0  0  0  0
  -26.8317  -36.5885   26.8425 C   0  0  0  0  0  0  0  0  0  0  0  0
  -25.8176  -11.5092   20.3206 N   0  0  0  0  0  0  0  0  0  0  0  0
  -29.3690  -20.5471   24.1660 N   0  0  0  0  0  0  0  0  0  0  0  0
  -26.2035  -12.7876   20.1698 N   0  0  0  0  0  0  0  0  0  0  0  0
  -24.9908  -35.4731   23.9733 N   0  0  0  0  0  0  0  0  0  0  0  0
  -29.9340  -13.5619   20.4280 N   0  0  0  0  0  0  0  0  0  0  0  0
  -25.4441  -15.0239   20.3519 N   0  0  0  0  0  0  0  0  0  0  0  0
  -21.8247  -12.5950   21.5337 N   0  0  0  0  0  0  0  0  0  0  0  0
  -30.0350  -15.6657   21.4892 N   0  0  0  0  0  0  0  0  0  0  0  0
  -25.6897  -36.9890   20.7314 N   0  0  0  0  0  0  0  0  0  0  0  0
  -24.5160  -35.6855   27.3181 N   0  0  0  0  0  0  0  0  0  0  0  0
  -25.8865  -26.8839   24.1751 N   0  0  0  0  0  0  0  0  0  0  0  0
  -21.9391  -33.5408   28.6700 N   0  3  0  0  0  0  0  0  0  0  0  0
  -29.1572  -18.9909   25.8803 O   0  0  0  0  0  0  0  0  0  0  0  0
  -22.6165  -14.7240   21.2190 O   0  0  0  0  0  0  0  0  0  0  0  0
  -26.9617  -36.1573   22.4957 O   0  0  0  0  0  0  0  0  0  0  0  0
  -24.5633  -37.4782   25.0837 O   0  0  0  0  0  0  0  0  0  0  0  0
  -25.3214  -27.1501   21.9387 O   0  0  0  0  0  0  0  0  0  0  0  0
  -24.4735  -33.3713   27.4599 O   0  0  0  0  0  0  0  0  0  0  0  0
  -31.8312  -14.8714   20.2546 O   0  0  0  0  0  0  0  0  0  0  0  0
  -21.5207   -7.0371   21.7651 O   0  0  0  0  0  0  0  0  0  0  0  0
  -25.6558  -29.7261   21.8326 O   0  0  0  0  0  0  0  0  0  1  0  0
  -23.8779   -3.0389   24.7419 F   0  0  0  0  0  0  0  0  0  0  0  0
  -29.9778  -25.1223   21.9632 F   0  0  0  0  0  0  0  0  0  0  0  0
  -20.4255   -6.2263   24.1705 F   0  0  0  0  0  0  0  0  0  0  0  0
  1  2  1  0  0  0  0
  1  5  2  0  0  0  0
  2  6  2  0  0  0  0
  3 10  2  0  0  0  0
  3 19  1  0  0  0  0
  4 11  1  0  0  0  0
  4 19  2  0  0  0  0
  5 23  1  0  0  0  0
  6 25  1  0  0  0  0
  7 12  2  0  0  0  0
  7 24  1  0  0  0  0
  8  9  1  0  0  0  0
  8 27  2  0  0  0  0
  9 31  2  0  0  0  0
 10 32  1  0  0  0  0
 11 32  2  0  0  0  0
 12 33  1  0  0  0  0
 13 14  2  0  0  0  0
 13 34  1  0  0  0  0
 14 35  1  0  0  0  0
 15 20  2  0  0  0  0
 15 36  1  0  0  0  0
 16 26  1  0  0  0  0
 16 33  2  0  0  0  0
 17 28  1  0  0  0  0
 17 36  2  0  0  0  0
 18 35  2  0  0  0  0
 18 37  1  0  0  0  0
 19 38  1  0  0  0  0
 20 29  1  0  0  0  0
 20 40  1  0  0  0  0
 21 27  1  0  0  0  0
 21 30  2  0  0  0  0
 21 41  1  0  0  0  0
 22 38  1  0  0  0  0
 22 39  2  0  0  0  0
 22 42  1  0  0  0  0
 23 25  2  0  0  0  0
 23 48  1  0  0  0  0
 24 26  2  0  0  0  0
 24 49  1  0  0  0  0
 25 57  1  0  0  0  0
 26 50  1  0  0  0  0
 27 60  1  0  0  0  0
 28 29  2  0  0  0  0
 28 69  1  0  0  0  0
 29 61  1  0  0  0  0
 30 31  1  0  0  0  0
 30 62  1  0  0  0  0
 31 81  1  0  0  0  0
 32 93  1  0  0  0  0
 33 94  1  0  0  0  0
 34 37  2  0  0  0  0
 34 93  1  0  0  0  0
 35 95  1  0  0  0  0
 36 96  1  0  0  0  0
 37 97  1  0  0  0  0
 38 74  2  0  0  0  0
 39 76  1  0  0  0  0
 39 79  1  0  0  0  0
 40 75  2  0  0  0  0
 41 75  1  0  0  0  0
 41 86  2  0  0  0  0
 42 80  1  0  0  0  0
 42 87  2  0  0  0  0
 43 58  1  0  0  0  0
 43 82  1  0  0  0  0
 43 88  2  0  0  0  0
 44 71  1  0  0  0  0
 44 77  1  0  0  0  0
 44 89  2  0  0  0  0
 45 70  1  0  0  0  0
 45 84  1  0  0  0  0
 45 90  2  0  0  0  0
 46 72  1  0  0  0  0
 46 83  1  0  0  0  0
 46 91  2  0  0  0  0
 47 78  1  0  0  0  0
 47 81  1  0  0  0  0
 47 92  2  0  0  0  0
 48 51  1  0  0  0  0
 49 58  1  0  0  0  0
 50 77  1  0  0  0  0
 51 53  1  0  0  0  0
 52 54  1  0  0  0  0
 52 55  1  0  0  0  0
 53 57  1  0  0  0  0
 54 59  1  0  0  0  0
 55 78  1  0  0  0  0
 56 59  1  0  0  0  0
 56 78  1  0  0  0  0
 57 82  1  0  0  0  0
 58 77  1  0  0  0  0
 59 76  1  0  0  0  0
 63 72  1  0  0  0  0
 64 73  1  0  0  0  0
 65 73  1  0  0  0  0
 66 73  1  0  0  0  0
 67 84  1  0  0  0  0
 68 85  1  0  0  0  0
 69 84  1  0  0  0  0
 70 94  1  0  0  0  0
 71 73  1  0  0  0  0
 71 83  1  0  0  0  0
 72 85  1  0  0  0  0
 74 76  1  0  0  0  0
M  CHG  1  85   1
M  ISO  4  47 100  70 101  81 100  94 101
M  END
> <Batch ID>
0053

> <Smiles>
CNC(C)C(=O)NC(C(=O)N1Cc2cc([101O:1][101CH2:1]C(=O)N(C)Cc3cc(F)cc(C=NC(=O)c4c(C)ccc([100NH:0][100C:0](=O)N5CCCC(n6nc(-c7ccc(Oc8ccc(F)cc8F)cc7)c(C(N)=O)c6N)C5)c4C)c3C)ccc2CC1C(=O)NC1CCCc2ccccc21)C(C)(C)C

> <Shape>
0.257

> <Color>
0.190

> <Negative vol penalty>
0.000

$$$$

  -OEChem-04042322433D

 87 96  0     1  0  0  0  0  0999 V2000
  -30.8562  -23.3035   16.2710 C   0  0  0  0  0  0  0  0  0  0  0  0
  -29.4894  -23.5591   16.2289 C   0  0  0  0  0  0  0  0  0  0  0  0
  -23.9956  -13.3659   20.4185 C   0  0  0  0  0  0  0  0  0  0  0  0
  -26.4057  -13.2018   20.4527 C   0  0  0  0  0  0  0  0  0  0  0  0
  -31.5698  -23.5253   17.4481 C   0  0  0  0  0  0  0  0  0  0  0  0
  -28.8351  -24.0357   17.3643 C   0  0  0  0  0  0  0  0  0  0  0  0
  -23.4146  -28.2965   19.3086 C   0  0  0  0  0  0  0  0  0  0  0  0
  -23.7749  -24.1578   23.6612 C   0  0  0  0  0  0  0  0  0  0  0  0
  -24.6471  -23.2555   23.0523 C   0  0  0  0  0  0  0  0  0  0  0  0
  -23.9026  -12.1369   21.0716 C   0  0  0  0  0  0  0  0  0  0  0  0
  -26.3128  -11.9728   21.1059 C   0  0  0  0  0  0  0  0  0  0  0  0
  -22.2664  -28.2858   20.0994 C   0  0  0  0  0  0  0  0  0  0  0  0
  -24.1388   -8.8633   20.2638 C   0  0  0  0  0  0  0  0  0  0  0  0
  -23.2080   -7.9430   19.7821 C   0  0  0  0  0  0  0  0  0  0  0  0
  -23.6161  -28.7070   22.0540 C   0  0  0  0  0  0  0  0  0  0  0  0
  -22.9000  -21.5871   23.0219 C   0  0  0  0  0  0  0  0  0  0  0  0
  -22.0920   -7.9500   21.9249 C   0  0  0  0  0  0  0  0  0  0  0  0
  -25.2472  -13.8983   20.1090 C   0  0  0  0  0  0  0  0  0  0  0  0
  -24.8226  -15.4995   18.1690 C   0  0  0  0  0  0  0  0  0  0  0  0
  -30.9258  -24.0140   18.5957 C   0  0  0  0  0  0  0  0  0  0  0  0
  -24.6754  -28.5020   19.8870 C   0  0  0  0  0  0  0  0  0  0  0  0
  -29.5405  -24.2630   18.5583 C   0  0  0  0  0  0  0  0  0  0  0  0
  -24.7784  -28.7224   21.2679 C   0  0  0  0  0  0  0  0  0  0  0  0
  -22.0278  -22.4894   23.6308 C   0  0  0  0  0  0  0  0  0  0  0  0
  -22.4652  -23.7747   23.9506 C   0  0  0  0  0  0  0  0  0  0  0  0
  -24.2097  -21.9702   22.7326 C   0  0  0  0  0  0  0  0  0  0  0  0
  -25.0612  -11.4403   21.4153 C   0  0  0  0  0  0  0  0  0  0  0  0
  -22.3674  -28.4882   21.4727 C   0  0  0  0  0  0  0  0  0  0  0  0
  -24.0464   -9.3269   21.5762 C   0  0  0  0  0  0  0  0  0  0  0  0
  -22.1846   -7.4864   20.6125 C   0  0  0  0  0  0  0  0  0  0  0  0
  -23.0230   -8.8703   22.4067 C   0  0  0  0  0  0  0  0  0  0  0  0
  -25.3438  -15.1675   19.4339 C   0  0  0  0  0  0  0  0  0  0  0  0
  -25.1803  -16.8126   17.9840 C   0  0  0  0  0  0  0  0  0  0  0  0
  -19.9637  -26.4590   24.0001 C   0  0  0  0  0  0  0  0  0  0  0  0
  -20.9946  -24.4555   25.8354 C   0  0  0  0  0  0  0  0  0  0  0  0
  -19.4141  -27.1778   23.0096 C   0  0  0  0  0  0  0  0  0  0  0  0
  -24.0812  -14.6930   17.2440 C   0  0  0  0  0  0  0  0  0  0  0  0
  -27.3421  -26.7881   20.1214 C   0  0  0  0  0  0  0  0  0  0  0  0
  -28.5167  -29.5146   21.4286 C   0  0  0  0  0  0  0  0  0  0  0  0
  -27.3689  -32.0316   23.7447 C   0  0  0  0  0  0  0  0  0  0  0  0
  -26.4261  -21.2747   21.7580 C   0  0  0  0  0  0  0  0  0  0  0  0
  -31.7302  -24.1933   19.8588 C   0  0  0  0  0  0  0  0  0  0  0  0
  -25.9015  -28.5373   19.0164 C   0  0  0  0  0  0  0  0  0  0  0  0
  -26.1064  -28.9677   21.9349 C   0  0  0  0  0  0  0  0  0  0  0  0
  -19.1488  -26.0082   25.1792 C   0  0  0  0  0  0  0  0  0  0  0  0
  -21.4167  -26.0578   23.9833 C   0  0  0  0  0  0  0  0  0  0  0  0
  -20.0541  -25.5483   26.3121 C   0  0  0  0  0  0  0  0  0  0  0  0
  -31.0324  -25.0549   20.9081 C   0  0  0  0  0  0  0  0  0  0  0  0
  -28.5528  -19.9836   19.2110 C   0  0  0  0  0  0  0  0  0  0  0  0
  -29.5781  -24.6246   21.0709 C   0  0  0  0  0  0  0  0  0  0  0  0
  -27.9204  -18.6350   18.8597 C   0  0  0  0  0  0  0  0  0  0  0  0
  -28.4485  -20.2870   20.7046 C   0  0  0  0  0  0  0  0  0  0  0  0
  -26.4613  -18.8458   20.9125 C   0  0  0  0  0  0  0  0  0  0  0  0
  -28.7998  -24.8040   19.7619 C   0  0  1  0  0  0  0  0  0  0  0  0
  -27.1873  -28.2439   19.7832 C   0  0  1  0  0  0  0  0  0  0  0  0
  -26.4844  -18.5259   19.4089 C   0  0  2  0  0  0  0  0  0  0  0  0
  -20.6305  -22.0522   23.9298 C   0  0  0  0  0  0  0  0  0  0  0  0
  -28.0059  -34.4478   23.9761 C   0  0  0  0  0  0  0  0  0  0  0  0
  -30.5168  -28.4899   23.4924 C   0  0  0  0  0  0  0  0  0  0  0  0
  -30.0295  -30.5221   24.8712 C   0  0  0  0  0  0  0  0  0  0  0  0
  -31.0195  -30.7694   22.5949 C   0  0  0  0  0  0  0  0  0  0  0  0
  -24.5550  -32.9166   23.5046 C   0  0  0  0  0  0  0  0  0  0  0  0
  -20.1651  -27.6570   21.8117 C   0  0  0  0  0  0  0  0  0  1  0  0
  -28.5973  -30.0823   22.8251 C   0  0  1  0  0  0  0  0  0  0  0  0
  -26.9903  -33.4644   23.4157 C   0  0  2  0  0  0  0  0  0  0  0  0
  -30.0198  -29.9483   23.4382 C   0  0  0  0  0  0  0  0  0  0  0  0
  -25.9842  -16.1875   20.0115 N   0  0  0  0  0  0  0  0  0  0  0  0
  -25.8677  -17.1732   19.1055 N   0  0  0  0  0  0  0  0  0  0  0  0
  -21.5808  -24.7210   24.5793 N   0  0  0  0  0  0  0  0  0  0  0  0
  -27.2768  -28.9866   21.0420 N   0  0  0  0  0  0  0  0  0  0  0  0
  -27.0593  -20.1684   21.1529 N   0  0  0  0  0  0  0  0  0  0  0  0
  -24.9709  -17.6824   16.9731 N   0  0  0  0  0  0  0  0  0  0  0  0
  -23.8000  -13.3648   17.5919 N   0  0  0  0  0  0  0  0  0  0  0  0
  -25.0958  -21.0542   22.1134 N   0  0  0  0  0  0  0  0  0  0  0  0
  -28.4591  -26.1965   19.5632 N   0  0  0  0  0  0  0  0  0  0  0  0
  -28.1118  -31.4552   22.7362 N   0  0  0  0  0  0  0  0  0  0  0  0
  -25.6539  -33.7916   23.9883 N   0  3  0  0  0  0  0  0  0  0  0  0
  -21.2210  -23.4888   26.5626 O   0  0  0  0  0  0  0  0  0  0  0  0
  -23.6942  -15.1322   16.1345 O   0  0  0  0  0  0  0  0  0  0  0  0
  -26.5104  -26.2424   20.8372 O   0  0  0  0  0  0  0  0  0  0  0  0
  -29.5152  -29.5452   20.7049 O   0  0  0  0  0  0  0  0  0  0  0  0
  -27.0418  -31.4802   24.7933 O   0  0  0  0  0  0  0  0  0  0  0  0
  -27.0120  -22.3479   21.9223 O   0  0  0  0  0  0  0  0  0  0  0  0
  -24.9708  -10.2412   22.0528 O   0  0  0  0  0  0  0  0  0  0  0  0
  -21.2483  -28.4776   22.2470 O   0  0  0  0  0  0  0  0  0  1  0  0
  -21.2898   -6.6038   20.1493 F   0  0  0  0  0  0  0  0  0  0  0  0
  -22.9283   -9.3129   23.6680 F   0  0  0  0  0  0  0  0  0  0  0  0
  1  2  1  0  0  0  0
  1  5  2  0  0  0  0
  2  6  2  0  0  0  0
  3 10  2  0  0  0  0
  3 18  1  0  0  0  0
  4 11  1  0  0  0  0
  4 18  2  0  0  0  0
  5 20  1  0  0  0  0
  6 22  1  0  0  0  0
  7 12  2  0  0  0  0
  7 21  1  0  0  0  0
  8  9  2  0  0  0  0
  8 25  1  0  0  0  0
  9 26  1  0  0  0  0
 10 27  1  0  0  0  0
 11 27  2  0  0  0  0
 12 28  1  0  0  0  0
 13 14  2  0  0  0  0
 13 29  1  0  0  0  0
 14 30  1  0  0  0  0
 15 23  1  0  0  0  0
 15 28  2  0  0  0  0
 16 24  1  0  0  0  0
 16 26  2  0  0  0  0
 17 30  2  0  0  0  0
 17 31  1  0  0  0  0
 18 32  1  0  0  0  0
 19 32  1  0  0  0  0
 19 33  2  0  0  0  0
 19 37  1  0  0  0  0
 20 22  2  0  0  0  0
 20 42  1  0  0  0  0
 21 23  2  0  0  0  0
 21 43  1  0  0  0  0
 22 54  1  0  0  0  0
 23 44  1  0  0  0  0
 24 25  2  0  0  0  0
 24 57  1  0  0  0  0
 25 69  1  0  0  0  0
 26 74  1  0  0  0  0
 27 84  1  0  0  0  0
 28 85  1  0  0  0  0
 29 31  2  0  0  0  0
 29 84  1  0  0  0  0
 30 86  1  0  0  0  0
 31 87  1  0  0  0  0
 32 67  2  0  0  0  0
 33 68  1  0  0  0  0
 33 72  1  0  0  0  0
 34 36  2  0  0  0  0
 34 45  1  0  0  0  0
 34 46  1  0  0  0  0
 35 47  1  0  0  0  0
 35 69  1  0  0  0  0
 35 78  2  0  0  0  0
 36 63  1  0  0  0  0
 37 73  1  0  0  0  0
 37 79  2  0  0  0  0
 38 55  1  0  0  0  0
 38 75  1  0  0  0  0
 38 80  2  0  0  0  0
 39 64  1  0  0  0  0
 39 70  1  0  0  0  0
 39 81  2  0  0  0  0
 40 65  1  0  0  0  0
 40 76  1  0  0  0  0
 40 82  2  0  0  0  0
 41 71  1  0  0  0  0
 41 74  1  0  0  0  0
 41 83  2  0  0  0  0
 42 48  1  0  0  0  0
 43 55  1  0  0  0  0
 44 70  1  0  0  0  0
 45 47  1  0  0  0  0
 46 69  1  0  0  0  0
 48 50  1  0  0  0  0
 49 51  1  0  0  0  0
 49 52  1  0  0  0  0
 50 54  1  0  0  0  0
 51 56  1  0  0  0  0
 52 71  1  0  0  0  0
 53 56  1  0  0  0  0
 53 71  1  0  0  0  0
 54 75  1  0  0  0  0
 55 70  1  0  0  0  0
 56 68  1  0  0  0  0
 58 65  1  0  0  0  0
 59 66  1  0  0  0  0
 60 66  1  0  0  0  0
 61 66  1  0  0  0  0
 62 77  1  0  0  0  0
 63 85  1  0  0  0  0
 64 66  1  0  0  0  0
 64 76  1  0  0  0  0
 65 77  1  0  0  0  0
 67 68  1  0  0  0  0
M  CHG  1  77   1
M  ISO  4  41 100  63 101  74 100  85 101
M  END
> <Batch ID>
0053

> <Smiles>
CNC(C)C(=O)NC(C(=O)N1Cc2cc([101O:1][101CH2:1]C=C3CCC(=O)N(c4ccc([100NH:0][100C:0](=O)N5CCCC(n6nc(-c7ccc(Oc8ccc(F)cc8F)cc7)c(C(N)=O)c6N)C5)cc4C)C3)ccc2CC1C(=O)NC1CCCc2ccccc21)C(C)(C)C

> <Shape>
0.254

> <Color>
0.065

> <Negative vol penalty>
0.000

$$$$

  -OEChem-04042322433D

 85 93  0     1  0  0  0  0  0999 V2000
  -22.2549  -19.4349   32.8981 C   0  0  0  0  0  0  0  0  0  0  0  0
  -23.0403  -18.5914   32.1189 C   0  0  0  0  0  0  0  0  0  0  0  0
  -23.1909   -9.8191   19.9316 C   0  0  0  0  0  0  0  0  0  0  0  0
  -23.5685   -9.9995   22.3111 C   0  0  0  0  0  0  0  0  0  0  0  0
  -20.9918  -19.0193   33.3173 C   0  0  0  0  0  0  0  0  0  0  0  0
  -22.5635  -17.3314   31.7593 C   0  0  0  0  0  0  0  0  0  0  0  0
  -23.6077  -14.3609   26.5065 C   0  0  0  0  0  0  0  0  0  0  0  0
  -30.5368  -14.0820   26.0118 C   0  0  0  0  0  0  0  0  0  0  0  0
  -22.4248   -8.6724   20.1400 C   0  0  0  0  0  0  0  0  0  0  0  0
  -22.8022   -8.8527   22.5195 C   0  0  0  0  0  0  0  0  0  0  0  0
  -24.5115  -13.3575   26.1601 C   0  0  0  0  0  0  0  0  0  0  0  0
  -23.2038   -5.5061   22.2554 C   0  0  0  0  0  0  0  0  0  0  0  0
  -29.9067  -14.0006   27.2535 C   0  0  0  0  0  0  0  0  0  0  0  0
  -23.7020   -4.5448   23.1347 C   0  0  0  0  0  0  0  0  0  0  0  0
  -22.8067  -11.6958   26.5496 C   0  0  0  0  0  0  0  0  0  0  0  0
  -30.5593  -11.6705   25.8652 C   0  0  0  0  0  0  0  0  0  0  0  0
  -21.7450   -4.8044   24.5274 C   0  0  0  0  0  0  0  0  0  0  0  0
  -23.7628  -10.4827   21.0171 C   0  0  0  0  0  0  0  0  0  0  0  0
  -24.1013  -12.9994   20.7736 C   0  0  0  0  0  0  0  0  0  0  0  0
  -20.4953  -17.7573   32.9546 C   0  0  0  0  0  0  0  0  0  0  0  0
  -22.2976  -14.0380   26.8883 C   0  0  0  0  0  0  0  0  0  0  0  0
  -21.2930  -16.8980   32.1752 C   0  0  0  0  0  0  0  0  0  0  0  0
  -21.8874  -12.6972   26.8980 C   0  0  0  0  0  0  0  0  0  0  0  0
  -30.8631  -12.9169   25.3175 C   0  0  0  0  0  0  0  0  0  0  0  0
  -29.9293  -11.5892   27.1070 C   0  0  0  0  0  0  0  0  0  0  0  0
  -22.2304   -8.1891   21.4339 C   0  0  0  0  0  0  0  0  0  0  0  0
  -24.1119  -12.0245   26.1844 C   0  0  0  0  0  0  0  0  0  0  0  0
  -21.9762   -6.1166   22.5121 C   0  0  0  0  0  0  0  0  0  0  0  0
  -22.9726   -4.1939   24.2707 C   0  0  0  0  0  0  0  0  0  0  0  0
  -29.6030  -12.7543   27.8012 C   0  0  0  0  0  0  0  0  0  0  0  0
  -21.2468   -5.7658   23.6481 C   0  0  0  0  0  0  0  0  0  0  0  0
  -24.5549  -11.6670   20.8024 C   0  0  0  0  0  0  0  0  0  0  0  0
  -25.2325  -13.7422   20.5387 C   0  0  0  0  0  0  0  0  0  0  0  0
  -22.7759  -13.5191   20.9440 C   0  0  0  0  0  0  0  0  0  0  0  0
  -20.5725  -14.4201   29.5306 C   0  0  0  0  0  0  0  0  0  0  0  0
  -18.1834  -13.2529   27.6726 C   0  0  0  0  0  0  0  0  0  0  0  0
  -27.1552   -9.8541   27.4567 C   0  0  0  0  0  0  0  0  0  0  0  0
  -17.2671  -11.4054   24.9534 C   0  0  0  0  0  0  0  0  0  0  0  0
  -31.0471  -12.7530   21.5697 C   0  0  0  0  0  0  0  0  0  0  0  0
  -19.1432  -17.3334   33.4711 C   0  0  0  0  0  0  0  0  0  0  0  0
  -21.3269  -15.1340   27.2334 C   0  0  0  0  0  0  0  0  0  0  0  0
  -20.4862  -12.2993   27.2809 C   0  0  0  0  0  0  0  0  0  0  0  0
  -18.5591  -16.1311   32.7338 C   0  0  0  0  0  0  0  0  0  0  0  0
  -29.5205  -13.4703   18.4341 C   0  0  0  0  0  0  0  0  0  0  0  0
  -19.6117  -15.0384   32.5764 C   0  0  0  0  0  0  0  0  0  0  0  0
  -28.0339  -13.2097   18.6829 C   0  0  0  0  0  0  0  0  0  0  0  0
  -30.4018  -12.4810   19.1935 C   0  0  0  0  0  0  0  0  0  0  0  0
  -28.6477  -12.1379   20.8904 C   0  0  0  0  0  0  0  0  0  0  0  0
  -20.8006  -15.5336   31.7440 C   0  0  1  0  0  0  0  0  0  0  0  0
  -20.1685  -14.6544   28.1025 C   0  0  1  0  0  0  0  0  0  0  0  0
  -27.7204  -13.1456   20.1898 C   0  0  2  0  0  0  0  0  0  0  0  0
  -15.2410  -10.6000   23.7110 C   0  0  0  0  0  0  0  0  0  0  0  0
  -17.6878  -11.1633   29.8401 C   0  0  0  0  0  0  0  0  0  0  0  0
  -16.3566   -9.8520   28.1739 C   0  0  0  0  0  0  0  0  0  0  0  0
  -15.6146  -12.1390   28.8381 C   0  0  0  0  0  0  0  0  0  0  0  0
  -18.0725  -12.8264   22.4854 C   0  0  0  0  0  0  0  0  0  0  0  0
  -31.5364  -13.0041   23.9897 C   0  0  0  0  0  0  0  0  0  0  0  0
  -29.6045  -10.2463   27.6947 C   0  0  0  0  0  0  0  0  0  0  0  0
  -26.1685   -9.0816   26.5952 C   0  0  0  0  0  0  0  0  0  0  0  0
  -24.8190   -9.7722   26.4729 C   0  0  0  0  0  0  0  0  0  1  0  0
  -17.6481  -11.8766   27.3590 C   0  0  1  0  0  0  0  0  0  0  0  0
  -16.2949  -11.6907   23.8229 C   0  0  2  0  0  0  0  0  0  0  0  0
  -16.8538  -11.2648   28.5474 C   0  0  0  0  0  0  0  0  0  0  0  0
  -25.8715  -11.5661   20.6016 N   0  0  0  0  0  0  0  0  0  0  0  0
  -26.2549  -12.8445   20.4444 N   0  0  0  0  0  0  0  0  0  0  0  0
  -19.5759  -13.4068   27.6162 N   0  0  0  0  0  0  0  0  0  0  0  0
  -30.0548  -12.4698   20.6167 N   0  0  0  0  0  0  0  0  0  0  0  0
  -25.4423  -15.0691   20.4056 N   0  0  0  0  0  0  0  0  0  0  0  0
  -21.7293  -12.6167   21.1777 N   0  0  0  0  0  0  0  0  0  0  0  0
  -20.4651  -15.5377   30.3362 N   0  0  0  0  0  0  0  0  0  0  0  0
  -28.4639   -9.6357   27.0507 N   0  0  0  0  0  0  0  0  0  0  0  0
  -16.8750  -12.0098   26.1290 N   0  0  0  0  0  0  0  0  0  0  0  0
  -30.6324  -12.7275   22.8956 N   0  0  0  0  0  0  0  0  0  0  0  0
  -17.0213  -11.7774   22.5245 N   0  3  0  0  0  0  0  0  0  0  0  0
  -22.5246  -14.7461   20.8743 O   0  0  0  0  0  0  0  0  0  0  0  0
  -20.9520  -13.3075   29.8764 O   0  0  0  0  0  0  0  0  0  0  0  0
  -17.3947  -14.1598   27.9500 O   0  0  0  0  0  0  0  0  0  0  0  0
  -26.8137  -10.5754   28.3900 O   0  0  0  0  0  0  0  0  0  0  0  0
  -18.2718  -10.7124   24.8089 O   0  0  0  0  0  0  0  0  0  0  0  0
  -32.2147  -13.0148   21.2614 O   0  0  0  0  0  0  0  0  0  0  0  0
  -21.4826   -7.0703   21.6377 O   0  0  0  0  0  0  0  0  0  0  0  0
  -24.9922  -11.0430   25.8473 O   0  0  0  0  0  0  0  0  0  1  0  0
  -23.4505   -3.2696   25.1142 F   0  0  0  0  0  0  0  0  0  0  0  0
  -28.9989  -12.6862   28.9958 F   0  0  0  0  0  0  0  0  0  0  0  0
  -20.0663   -6.3481   23.8994 F   0  0  0  0  0  0  0  0  0  0  0  0
  1  2  1  0  0  0  0
  1  5  2  0  0  0  0
  2  6  2  0  0  0  0
  3  9  2  0  0  0  0
  3 18  1  0  0  0  0
  4 10  1  0  0  0  0
  4 18  2  0  0  0  0
  5 20  1  0  0  0  0
  6 22  1  0  0  0  0
  7 11  2  0  0  0  0
  7 21  1  0  0  0  0
  8 13  2  0  0  0  0
  8 24  1  0  0  0  0
  9 26  1  0  0  0  0
 10 26  2  0  0  0  0
 11 27  1  0  0  0  0
 12 14  2  0  0  0  0
 12 28  1  0  0  0  0
 13 30  1  0  0  0  0
 14 29  1  0  0  0  0
 15 23  1  0  0  0  0
 15 27  2  0  0  0  0
 16 24  2  0  0  0  0
 16 25  1  0  0  0  0
 17 29  2  0  0  0  0
 17 31  1  0  0  0  0
 18 32  1  0  0  0  0
 19 32  1  0  0  0  0
 19 33  2  0  0  0  0
 19 34  1  0  0  0  0
 20 22  2  0  0  0  0
 20 40  1  0  0  0  0
 21 23  2  0  0  0  0
 21 41  1  0  0  0  0
 22 49  1  0  0  0  0
 23 42  1  0  0  0  0
 24 57  1  0  0  0  0
 25 30  2  0  0  0  0
 25 58  1  0  0  0  0
 26 81  1  0  0  0  0
 27 82  1  0  0  0  0
 28 31  2  0  0  0  0
 28 81  1  0  0  0  0
 29 83  1  0  0  0  0
 30 84  1  0  0  0  0
 31 85  1  0  0  0  0
 32 64  2  0  0  0  0
 33 65  1  0  0  0  0
 33 68  1  0  0  0  0
 34 69  1  0  0  0  0
 34 75  2  0  0  0  0
 35 50  1  0  0  0  0
 35 70  1  0  0  0  0
 35 76  2  0  0  0  0
 36 61  1  0  0  0  0
 36 66  1  0  0  0  0
 36 77  2  0  0  0  0
 37 59  1  0  0  0  0
 37 71  1  0  0  0  0
 37 78  2  0  0  0  0
 38 62  1  0  0  0  0
 38 72  1  0  0  0  0
 38 79  2  0  0  0  0
 39 67  1  0  0  0  0
 39 73  1  0  0  0  0
 39 80  2  0  0  0  0
 40 43  1  0  0  0  0
 41 50  1  0  0  0  0
 42 66  1  0  0  0  0
 43 45  1  0  0  0  0
 44 46  1  0  0  0  0
 44 47  1  0  0  0  0
 45 49  1  0  0  0  0
 46 51  1  0  0  0  0
 47 67  1  0  0  0  0
 48 51  1  0  0  0  0
 48 67  1  0  0  0  0
 49 70  1  0  0  0  0
 50 66  1  0  0  0  0
 51 65  1  0  0  0  0
 52 62  1  0  0  0  0
 53 63  1  0  0  0  0
 54 63  1  0  0  0  0
 55 63  1  0  0  0  0
 56 74  1  0  0  0  0
 57 73  1  0  0  0  0
 58 71  1  0  0  0  0
 59 60  1  0  0  0  0
 60 82  1  0  0  0  0
 61 63  1  0  0  0  0
 61 72  1  0  0  0  0
 62 74  1  0  0  0  0
 64 65  1  0  0  0  0
M  CHG  1  74   1
M  ISO  4  39 100  60 101  73 100  82 101
M  END
> <Batch ID>
0053

> <Smiles>
CNC(C)C(=O)NC(C(=O)N1Cc2cc([101O:1][101CH2:1]CC(=O)NCc3cc(C[100NH:0][100C:0](=O)N4CCCC(n5nc(-c6ccc(Oc7ccc(F)cc7F)cc6)c(C(N)=O)c5N)C4)ccc3F)ccc2CC1C(=O)NC1CCCc2ccccc21)C(C)(C)C

> <Shape>
0.139

> <Color>
0.182

> <Negative vol penalty>
0.000

$$$$

  -OEChem-04042322433D

 85 93  0     1  0  0  0  0  0999 V2000
  -22.1439  -24.0940   29.4933 C   0  0  0  0  0  0  0  0  0  0  0  0
  -23.4463  -23.8299   29.0818 C   0  0  0  0  0  0  0  0  0  0  0  0
  -23.0816   -9.8632   19.9444 C   0  0  0  0  0  0  0  0  0  0  0  0
  -23.8393   -9.8766   22.2385 C   0  0  0  0  0  0  0  0  0  0  0  0
  -32.6412  -17.5124   23.4487 C   0  0  0  0  0  0  0  0  0  0  0  0
  -21.1795  -24.4637   28.5568 C   0  0  0  0  0  0  0  0  0  0  0  0
  -23.7848  -23.9343   27.7331 C   0  0  0  0  0  0  0  0  0  0  0  0
  -28.1637  -26.3735   27.0122 C   0  0  0  0  0  0  0  0  0  0  0  0
  -32.0558  -16.6245   22.5462 C   0  0  0  0  0  0  0  0  0  0  0  0
  -22.3393   -8.7095   20.1963 C   0  0  0  0  0  0  0  0  0  0  0  0
  -23.0970   -8.7228   22.4904 C   0  0  0  0  0  0  0  0  0  0  0  0
  -29.3372  -25.6572   27.2439 C   0  0  0  0  0  0  0  0  0  0  0  0
  -19.8695   -7.9213   23.0917 C   0  0  0  0  0  0  0  0  0  0  0  0
  -19.1115   -7.8828   24.2619 C   0  0  0  0  0  0  0  0  0  0  0  0
  -29.5758  -25.2926   24.8713 C   0  0  0  0  0  0  0  0  0  0  0  0
  -29.8699  -17.4717   23.1306 C   0  0  0  0  0  0  0  0  0  0  0  0
  -20.3552   -5.9490   25.0039 C   0  0  0  0  0  0  0  0  0  0  0  0
  -23.8317  -10.4468   20.9655 C   0  0  0  0  0  0  0  0  0  0  0  0
  -31.8410  -18.3799   24.1923 C   0  0  0  0  0  0  0  0  0  0  0  0
  -24.1697  -12.9722   20.8402 C   0  0  0  0  0  0  0  0  0  0  0  0
  -21.5086  -24.5820   27.1972 C   0  0  0  0  0  0  0  0  0  0  0  0
  -27.6808  -26.5457   25.7070 C   0  0  0  0  0  0  0  0  0  0  0  0
  -22.8235  -24.3046   26.7772 C   0  0  0  0  0  0  0  0  0  0  0  0
  -28.3974  -26.0136   24.6255 C   0  0  0  0  0  0  0  0  0  0  0  0
  -30.4554  -18.3595   24.0332 C   0  0  0  0  0  0  0  0  0  0  0  0
  -30.6702  -16.6041   22.3872 C   0  0  0  0  0  0  0  0  0  0  0  0
  -22.3469   -8.1393   21.4692 C   0  0  0  0  0  0  0  0  0  0  0  0
  -30.0419  -25.1142   26.1736 C   0  0  0  0  0  0  0  0  0  0  0  0
  -20.8703   -6.9736   22.8774 C   0  0  0  0  0  0  0  0  0  0  0  0
  -19.3544   -6.8967   25.2181 C   0  0  0  0  0  0  0  0  0  0  0  0
  -21.1132   -5.9875   23.8335 C   0  0  0  0  0  0  0  0  0  0  0  0
  -24.5991  -11.6383   20.7058 C   0  0  0  0  0  0  0  0  0  0  0  0
  -25.2610  -13.7225   20.4762 C   0  0  0  0  0  0  0  0  0  0  0  0
  -31.8124  -21.2670   27.6468 C   0  0  0  0  0  0  0  0  0  0  0  0
  -32.1923  -22.5378   27.4493 C   0  0  0  0  0  0  0  0  0  0  0  0
  -32.4811  -19.3124   25.1416 C   0  0  0  0  0  0  0  0  0  0  0  0
  -22.8980  -13.4869   21.2567 C   0  0  0  0  0  0  0  0  0  0  0  0
  -25.0332  -25.6996   24.1649 C   0  0  0  0  0  0  0  0  0  0  0  0
  -26.3086  -27.5004   21.7874 C   0  0  0  0  0  0  0  0  0  0  0  0
  -29.0945  -28.8535   20.3539 C   0  0  0  0  0  0  0  0  0  0  0  0
  -30.7254  -14.7770   20.6537 C   0  0  0  0  0  0  0  0  0  0  0  0
  -20.4208  -24.9387   26.2153 C   0  0  0  0  0  0  0  0  0  0  0  0
  -26.4278  -27.3438   25.4718 C   0  0  0  0  0  0  0  0  0  0  0  0
  -27.9322  -26.1875   23.2036 C   0  0  0  0  0  0  0  0  0  0  0  0
  -20.9507  -25.3907   24.8569 C   0  0  0  0  0  0  0  0  0  0  0  0
  -29.6170  -12.3562   18.2898 C   0  0  0  0  0  0  0  0  0  0  0  0
  -22.0399  -24.4421   24.3663 C   0  0  0  0  0  0  0  0  0  0  0  0
  -28.1774  -12.0633   18.7187 C   0  0  0  0  0  0  0  0  0  0  0  0
  -30.5306  -12.5891   19.4918 C   0  0  0  0  0  0  0  0  0  0  0  0
  -28.6212  -13.3137   20.8696 C   0  0  0  0  0  0  0  0  0  0  0  0
  -23.2354  -24.4310   25.3265 C   0  0  1  0  0  0  0  0  0  0  0  0
  -25.7528  -27.0184   24.1429 C   0  0  1  0  0  0  0  0  0  0  0  0
  -27.6498  -13.1363   19.6913 C   0  0  2  0  0  0  0  0  0  0  0  0
  -29.5778  -19.2806   24.8159 C   0  0  0  0  0  0  0  0  0  0  0  0
  -29.8251  -30.2451   18.3976 C   0  0  0  0  0  0  0  0  0  0  0  0
  -25.9657  -25.0903   19.9480 C   0  0  0  0  0  0  0  0  0  0  0  0
  -27.5394  -26.1839   18.3368 C   0  0  0  0  0  0  0  0  0  0  0  0
  -25.3768  -27.2876   18.9091 C   0  0  0  0  0  0  0  0  0  0  0  0
  -30.1738  -30.9723   22.1159 C   0  0  0  0  0  0  0  0  0  0  0  0
  -32.7197  -20.0946   27.4714 C   0  0  0  0  0  0  0  0  0  0  0  0
  -31.2885  -23.7124   27.6355 C   0  0  0  0  0  0  0  0  0  1  0  0
  -27.2336  -27.2353   20.6242 C   0  0  1  0  0  0  0  0  0  0  0  0
  -29.3903  -30.2563   19.8548 C   0  0  2  0  0  0  0  0  0  0  0  0
  -26.5369  -26.4442   19.4813 C   0  0  0  0  0  0  0  0  0  0  0  0
  -25.8645  -11.5434   20.2889 N   0  0  0  0  0  0  0  0  0  0  0  0
  -26.2396  -12.8273   20.1581 N   0  0  0  0  0  0  0  0  0  0  0  0
  -26.6982  -26.9704   23.0256 N   0  0  0  0  0  0  0  0  0  0  0  0
  -29.9692  -13.6210   20.3663 N   0  0  0  0  0  0  0  0  0  0  0  0
  -25.4694  -15.0542   20.4004 N   0  0  0  0  0  0  0  0  0  0  0  0
  -33.3552  -20.1966   24.6607 N   0  0  0  0  0  0  0  0  0  0  0  0
  -21.8872  -12.5770   21.5951 N   0  0  0  0  0  0  0  0  0  0  0  0
  -30.0758  -15.7029   21.4694 N   0  0  0  0  0  0  0  0  0  0  0  0
  -24.0506  -25.6110   25.1324 N   0  0  0  0  0  0  0  0  0  0  0  0
  -27.7602  -28.5336   20.2173 N   0  0  0  0  0  0  0  0  0  0  0  0
  -32.1567  -19.2255   26.4386 N   0  3  0  0  0  0  0  0  0  0  0  0
  -30.4771  -30.8758   20.6648 N   0  3  0  0  0  0  0  0  0  0  0  0
  -22.6598  -14.7173   21.3111 O   0  0  0  0  0  0  0  0  0  0  0  0
  -25.3454  -24.8275   23.3626 O   0  0  0  0  0  0  0  0  0  0  0  0
  -25.2820  -28.1597   21.6056 O   0  0  0  0  0  0  0  0  0  0  0  0
  -29.9611  -28.1140   20.8150 O   0  0  0  0  0  0  0  0  0  0  0  0
  -31.8547  -14.9464   20.1868 O   0  0  0  0  0  0  0  0  0  0  0  0
  -21.6225   -7.0136   21.7154 O   0  0  0  0  0  0  0  0  0  0  0  0
  -31.1872  -24.4140   26.3970 O   0  0  0  0  0  0  0  0  0  1  0  0
  -18.6275   -6.8608   26.3425 F   0  0  0  0  0  0  0  0  0  0  0  0
  -22.0741   -5.0750   23.6339 F   0  0  0  0  0  0  0  0  0  0  0  0
  1  2  1  0  0  0  0
  1  6  2  0  0  0  0
  2  7  2  0  0  0  0
  3 10  2  0  0  0  0
  3 18  1  0  0  0  0
  4 11  1  0  0  0  0
  4 18  2  0  0  0  0
  5  9  2  0  0  0  0
  5 19  1  0  0  0  0
  6 21  1  0  0  0  0
  7 23  1  0  0  0  0
  8 12  2  0  0  0  0
  8 22  1  0  0  0  0
  9 26  1  0  0  0  0
 10 27  1  0  0  0  0
 11 27  2  0  0  0  0
 12 28  1  0  0  0  0
 13 14  2  0  0  0  0
 13 29  1  0  0  0  0
 14 30  1  0  0  0  0
 15 24  1  0  0  0  0
 15 28  2  0  0  0  0
 16 25  1  0  0  0  0
 16 26  2  0  0  0  0
 17 30  2  0  0  0  0
 17 31  1  0  0  0  0
 18 32  1  0  0  0  0
 19 25  2  0  0  0  0
 19 36  1  0  0  0  0
 20 32  1  0  0  0  0
 20 33  2  0  0  0  0
 20 37  1  0  0  0  0
 21 23  2  0  0  0  0
 21 42  1  0  0  0  0
 22 24  2  0  0  0  0
 22 43  1  0  0  0  0
 23 51  1  0  0  0  0
 24 44  1  0  0  0  0
 25 54  1  0  0  0  0
 26 72  1  0  0  0  0
 27 82  1  0  0  0  0
 28 83  1  0  0  0  0
 29 31  2  0  0  0  0
 29 82  1  0  0  0  0
 30 84  1  0  0  0  0
 31 85  1  0  0  0  0
 32 65  2  0  0  0  0
 33 66  1  0  0  0  0
 33 69  1  0  0  0  0
 34 35  2  0  0  0  0
 34 60  1  0  0  0  0
 35 61  1  0  0  0  0
 36 70  1  0  0  0  0
 36 75  2  0  0  0  0
 37 71  1  0  0  0  0
 37 77  2  0  0  0  0
 38 52  1  0  0  0  0
 38 73  1  0  0  0  0
 38 78  2  0  0  0  0
 39 62  1  0  0  0  0
 39 67  1  0  0  0  0
 39 79  2  0  0  0  0
 40 63  1  0  0  0  0
 40 74  1  0  0  0  0
 40 80  2  0  0  0  0
 41 68  1  0  0  0  0
 41 72  1  0  0  0  0
 41 81  2  0  0  0  0
 42 45  1  0  0  0  0
 43 52  1  0  0  0  0
 44 67  1  0  0  0  0
 45 47  1  0  0  0  0
 46 48  1  0  0  0  0
 46 49  1  0  0  0  0
 47 51  1  0  0  0  0
 48 53  1  0  0  0  0
 49 68  1  0  0  0  0
 50 53  1  0  0  0  0
 50 68  1  0  0  0  0
 51 73  1  0  0  0  0
 52 67  1  0  0  0  0
 53 66  1  0  0  0  0
 55 63  1  0  0  0  0
 56 64  1  0  0  0  0
 57 64  1  0  0  0  0
 58 64  1  0  0  0  0
 59 76  1  0  0  0  0
 60 75  1  0  0  0  0
 61 83  1  0  0  0  0
 62 64  1  0  0  0  0
 62 74  1  0  0  0  0
 63 76  1  0  0  0  0
 65 66  1  0  0  0  0
M  CHG  2  75   1  76   1
M  ISO  4  41 100  61 101  72 100  83 101
M  END
> <Batch ID>
0053

> <Smiles>
CNC(C)C(=O)NC(C(=O)N1Cc2cc([101O:1][101CH2:1]C=CCNC(=N)c3ccc([100NH:0][100C:0](=O)N4CCCC(n5nc(-c6ccc(Oc7ccc(F)cc7F)cc6)c(C(N)=O)c5N)C4)cc3C)ccc2CC1C(=O)NC1CCCc2ccccc21)C(C)(C)C

> <Shape>
0.211

> <Color>
0.188

> <Negative vol penalty>
0.000

$$$$

  -OEChem-04042322433D

 87 95  0     1  0  0  0  0  0999 V2000
  -27.7097  -24.5374   15.4207 C   0  0  0  0  0  0  0  0  0  0  0  0
  -26.4602  -24.8787   15.9284 C   0  0  0  0  0  0  0  0  0  0  0  0
  -26.8417  -12.7644   21.5236 C   0  0  0  0  0  0  0  0  0  0  0  0
  -26.2317  -13.9391   19.5025 C   0  0  0  0  0  0  0  0  0  0  0  0
  -28.8356  -24.6030   16.2404 C   0  0  0  0  0  0  0  0  0  0  0  0
  -26.3358  -25.2847   17.2566 C   0  0  0  0  0  0  0  0  0  0  0  0
  -22.4417  -29.4547   19.4821 C   0  0  0  0  0  0  0  0  0  0  0  0
  -23.6349  -22.6903   18.8155 C   0  0  0  0  0  0  0  0  0  0  0  0
  -24.5131  -21.8898   19.5458 C   0  0  0  0  0  0  0  0  0  0  0  0
  -26.1368  -11.6436   21.0850 C   0  0  0  0  0  0  0  0  0  0  0  0
  -25.5268  -12.8183   19.0638 C   0  0  0  0  0  0  0  0  0  0  0  0
  -21.2091  -29.3391   20.1232 C   0  0  0  0  0  0  0  0  0  0  0  0
  -22.9161  -10.6293   20.9337 C   0  0  0  0  0  0  0  0  0  0  0  0
  -22.0879   -9.9849   21.8526 C   0  0  0  0  0  0  0  0  0  0  0  0
  -22.3137  -29.4952   22.2620 C   0  0  0  0  0  0  0  0  0  0  0  0
  -23.6380  -22.8063   21.6028 C   0  0  0  0  0  0  0  0  0  0  0  0
  -23.3669   -7.9533   21.5808 C   0  0  0  0  0  0  0  0  0  0  0  0
  -26.8892  -13.9122   20.7324 C   0  0  0  0  0  0  0  0  0  0  0  0
  -28.9721  -15.3688   20.9493 C   0  0  0  0  0  0  0  0  0  0  0  0
  -28.7263  -25.0193   17.5766 C   0  0  0  0  0  0  0  0  0  0  0  0
  -23.6227  -29.5807   20.2276 C   0  0  0  0  0  0  0  0  0  0  0  0
  -27.4611  -25.3546   18.0954 C   0  0  0  0  0  0  0  0  0  0  0  0
  -23.5598  -29.6149   21.6279 C   0  0  0  0  0  0  0  0  0  0  0  0
  -22.7582  -23.5489   19.4788 C   0  0  0  0  0  0  0  0  0  0  0  0
  -22.7597  -23.6069   20.8724 C   0  0  0  0  0  0  0  0  0  0  0  0
  -24.5147  -21.9478   20.9395 C   0  0  0  0  0  0  0  0  0  0  0  0
  -25.4793  -11.6705   19.8551 C   0  0  0  0  0  0  0  0  0  0  0  0
  -21.1452  -29.3564   21.5134 C   0  0  0  0  0  0  0  0  0  0  0  0
  -23.9697   -9.9356   20.3382 C   0  0  0  0  0  0  0  0  0  0  0  0
  -22.3133   -8.6470   22.1762 C   0  0  0  0  0  0  0  0  0  0  0  0
  -24.1951   -8.5977   20.6618 C   0  0  0  0  0  0  0  0  0  0  0  0
  -27.6167  -15.0705   21.1852 C   0  0  0  0  0  0  0  0  0  0  0  0
  -29.1751  -16.5694   21.5848 C   0  0  0  0  0  0  0  0  0  0  0  0
  -29.9594  -14.6271   20.2208 C   0  0  0  0  0  0  0  0  0  0  0  0
  -26.2696  -27.8499   20.5463 C   0  0  0  0  0  0  0  0  0  0  0  0
  -27.2409  -30.3771   22.3329 C   0  0  0  0  0  0  0  0  0  0  0  0
  -19.3499  -24.7817   21.7236 C   0  0  0  0  0  0  0  0  0  0  0  0
  -18.3318  -26.8706   22.5901 C   0  0  0  0  0  0  0  0  0  0  0  0
  -26.3875  -33.0703   24.2475 C   0  0  0  0  0  0  0  0  0  0  0  0
  -25.5348  -21.0695   23.0689 C   0  0  0  0  0  0  0  0  0  0  0  0
  -29.9647  -25.0290   18.4375 C   0  0  0  0  0  0  0  0  0  0  0  0
  -24.9417  -29.7314   19.5204 C   0  0  0  0  0  0  0  0  0  0  0  0
  -24.7965  -29.7685   22.4738 C   0  0  0  0  0  0  0  0  0  0  0  0
  -29.8031  -25.8284   19.7279 C   0  0  0  0  0  0  0  0  0  0  0  0
  -27.5804  -19.1684   25.2776 C   0  0  0  0  0  0  0  0  0  0  0  0
  -28.4878  -25.4741   20.4143 C   0  0  0  0  0  0  0  0  0  0  0  0
  -27.9502  -17.9319   24.4552 C   0  0  0  0  0  0  0  0  0  0  0  0
  -26.1510  -19.6290   24.9977 C   0  0  0  0  0  0  0  0  0  0  0  0
  -26.2036  -18.6055   22.7574 C   0  0  0  0  0  0  0  0  0  0  0  0
  -27.2892  -25.8236   19.5239 C   0  0  1  0  0  0  0  0  0  0  0  0
  -26.1332  -29.3378   20.3881 C   0  0  1  0  0  0  0  0  0  0  0  0
  -27.6561  -18.1428   22.9570 C   0  0  2  0  0  0  0  0  0  0  0  0
  -21.8276  -24.3969   18.6754 C   0  0  0  0  0  0  0  0  0  0  0  0
  -18.0225  -24.2856   21.2854 C   0  0  0  0  0  0  0  0  0  0  0  0
  -27.3999  -34.9231   25.6037 C   0  0  0  0  0  0  0  0  0  0  0  0
  -27.8618  -28.3971   24.5699 C   0  0  0  0  0  0  0  0  0  0  0  0
  -27.9482  -30.3285   26.1607 C   0  0  0  0  0  0  0  0  0  0  0  0
  -29.5688  -30.1998   24.2687 C   0  0  0  0  0  0  0  0  0  0  0  0
  -25.1709  -35.1498   22.5286 C   0  0  0  0  0  0  0  0  0  0  0  0
  -21.8250  -24.5205   21.6069 C   0  0  0  0  0  0  0  0  0  0  0  0
  -18.6109  -27.9175   23.6443 C   0  0  0  0  0  0  0  0  0  0  0  0
  -19.9389  -28.6258   23.4284 C   0  0  0  0  0  0  0  0  0  1  0  0
  -27.1484  -30.7534   23.7920 C   0  0  1  0  0  0  0  0  0  0  0  0
  -26.8751  -34.5078   24.2381 C   0  0  2  0  0  0  0  0  0  0  0  0
  -28.1085  -29.9149   24.6822 C   0  0  0  0  0  0  0  0  0  0  0  0
  -27.0021  -16.0061   21.9139 N   0  0  0  0  0  0  0  0  0  0  0  0
  -27.9758  -16.9040   22.1414 N   0  0  0  0  0  0  0  0  0  0  0  0
  -26.0630  -29.9059   21.7359 N   0  0  0  0  0  0  0  0  0  0  0  0
  -25.9470  -19.8123   23.5590 N   0  0  0  0  0  0  0  0  0  0  0  0
  -30.2608  -17.3609   21.7164 N   0  0  0  0  0  0  0  0  0  0  0  0
  -29.5820  -13.4134   19.6302 N   0  0  0  0  0  0  0  0  0  0  0  0
  -25.4053  -21.1333   21.6819 N   0  0  0  0  0  0  0  0  0  0  0  0
  -27.0292  -27.2467   19.5621 N   0  0  0  0  0  0  0  0  0  0  0  0
  -19.3355  -25.8321   22.5510 N   0  0  0  0  0  0  0  0  0  0  0  0
  -27.3771  -32.1928   23.8576 N   0  0  0  0  0  0  0  0  0  0  0  0
  -20.4433  -24.1603   21.2738 N   0  3  0  0  0  0  0  0  0  0  0  0
  -25.7656  -35.4287   23.8611 N   0  3  0  0  0  0  0  0  0  0  0  0
  -31.1454  -15.0206   20.1110 O   0  0  0  0  0  0  0  0  0  0  0  0
  -25.7272  -27.2906   21.4922 O   0  0  0  0  0  0  0  0  0  0  0  0
  -28.3166  -30.5036   21.7427 O   0  0  0  0  0  0  0  0  0  0  0  0
  -17.3745  -26.8624   21.8300 O   0  0  0  0  0  0  0  0  0  0  0  0
  -25.2443  -32.7567   24.5720 O   0  0  0  0  0  0  0  0  0  0  0  0
  -25.3392  -22.0271   23.8216 O   0  0  0  0  0  0  0  0  0  0  0  0
  -24.7915  -10.5769   19.4266 O   0  0  0  0  0  0  0  0  0  0  0  0
  -19.9435  -29.2430   22.1417 O   0  0  0  0  0  0  0  0  0  1  0  0
  -21.5188   -8.0288   23.0599 F   0  0  0  0  0  0  0  0  0  0  0  0
  -25.2064   -7.9264   20.0939 F   0  0  0  0  0  0  0  0  0  0  0  0
  1  2  1  0  0  0  0
  1  5  2  0  0  0  0
  2  6  2  0  0  0  0
  3 10  2  0  0  0  0
  3 18  1  0  0  0  0
  4 11  1  0  0  0  0
  4 18  2  0  0  0  0
  5 20  1  0  0  0  0
  6 22  1  0  0  0  0
  7 12  2  0  0  0  0
  7 21  1  0  0  0  0
  8  9  2  0  0  0  0
  8 24  1  0  0  0  0
  9 26  1  0  0  0  0
 10 27  1  0  0  0  0
 11 27  2  0  0  0  0
 12 28  1  0  0  0  0
 13 14  2  0  0  0  0
 13 29  1  0  0  0  0
 14 30  1  0  0  0  0
 15 23  1  0  0  0  0
 15 28  2  0  0  0  0
 16 25  1  0  0  0  0
 16 26  2  0  0  0  0
 17 30  2  0  0  0  0
 17 31  1  0  0  0  0
 18 32  1  0  0  0  0
 19 32  1  0  0  0  0
 19 33  2  0  0  0  0
 19 34  1  0  0  0  0
 20 22  2  0  0  0  0
 20 41  1  0  0  0  0
 21 23  2  0  0  0  0
 21 42  1  0  0  0  0
 22 50  1  0  0  0  0
 23 43  1  0  0  0  0
 24 25  2  0  0  0  0
 24 53  1  0  0  0  0
 25 60  1  0  0  0  0
 26 72  1  0  0  0  0
 27 84  1  0  0  0  0
 28 85  1  0  0  0  0
 29 31  2  0  0  0  0
 29 84  1  0  0  0  0
 30 86  1  0  0  0  0
 31 87  1  0  0  0  0
 32 66  2  0  0  0  0
 33 67  1  0  0  0  0
 33 70  1  0  0  0  0
 34 71  1  0  0  0  0
 34 78  2  0  0  0  0
 35 51  1  0  0  0  0
 35 73  1  0  0  0  0
 35 79  2  0  0  0  0
 36 63  1  0  0  0  0
 36 68  1  0  0  0  0
 36 80  2  0  0  0  0
 37 54  1  0  0  0  0
 37 74  1  0  0  0  0
 37 76  2  0  0  0  0
 38 61  1  0  0  0  0
 38 74  1  0  0  0  0
 38 81  2  0  0  0  0
 39 64  1  0  0  0  0
 39 75  1  0  0  0  0
 39 82  2  0  0  0  0
 40 69  1  0  0  0  0
 40 72  1  0  0  0  0
 40 83  2  0  0  0  0
 41 44  1  0  0  0  0
 42 51  1  0  0  0  0
 43 68  1  0  0  0  0
 44 46  1  0  0  0  0
 45 47  1  0  0  0  0
 45 48  1  0  0  0  0
 46 50  1  0  0  0  0
 47 52  1  0  0  0  0
 48 69  1  0  0  0  0
 49 52  1  0  0  0  0
 49 69  1  0  0  0  0
 50 73  1  0  0  0  0
 51 68  1  0  0  0  0
 52 67  1  0  0  0  0
 55 64  1  0  0  0  0
 56 65  1  0  0  0  0
 57 65  1  0  0  0  0
 58 65  1  0  0  0  0
 59 77  1  0  0  0  0
 60 76  1  0  0  0  0
 61 62  1  0  0  0  0
 62 85  1  0  0  0  0
 63 65  1  0  0  0  0
 63 75  1  0  0  0  0
 64 77  1  0  0  0  0
 66 67  1  0  0  0  0
M  CHG  2  76   1  77   1
M  ISO  4  40 100  62 101  72 100  85 101
M  END
> <Batch ID>
0053

> <Smiles>
CNC(C)C(=O)NC(C(=O)N1Cc2cc([101O:1][101CH2:1]CC(=O)N=C(C)NCc3cc([100NH:0][100C:0](=O)N4CCCC(n5nc(-c6ccc(Oc7ccc(F)cc7F)cc6)c(C(N)=O)c5N)C4)ccc3C)ccc2CC1C(=O)NC1CCCc2ccccc21)C(C)(C)C

> <Shape>
0.291

> <Color>
0.054

> <Negative vol penalty>
0.000

$$$$

  -OEChem-04042322433D

 85 93  0     1  0  0  0  0  0999 V2000
  -24.8422  -18.4988   20.1986 C   0  0  0  0  0  0  0  0  0  0  0  0
  -25.5834  -19.6745   20.1377 C   0  0  0  0  0  0  0  0  0  0  0  0
  -26.5991  -12.7223   21.5157 C   0  0  0  0  0  0  0  0  0  0  0  0
  -26.2551  -13.5488   19.2717 C   0  0  0  0  0  0  0  0  0  0  0  0
  -23.4661  -18.5314   19.9768 C   0  0  0  0  0  0  0  0  0  0  0  0
  -24.9491  -20.8834   19.8537 C   0  0  0  0  0  0  0  0  0  0  0  0
  -26.4708  -24.6369   22.8936 C   0  0  0  0  0  0  0  0  0  0  0  0
  -28.8795  -21.6675   15.9530 C   0  0  0  0  0  0  0  0  0  0  0  0
  -29.3131  -20.6830   16.8408 C   0  0  0  0  0  0  0  0  0  0  0  0
  -25.3077  -12.1953   21.5196 C   0  0  0  0  0  0  0  0  0  0  0  0
  -24.9637  -13.0217   19.2755 C   0  0  0  0  0  0  0  0  0  0  0  0
  -27.7028  -25.2253   22.6110 C   0  0  0  0  0  0  0  0  0  0  0  0
  -23.7224   -9.4783   20.2795 C   0  0  0  0  0  0  0  0  0  0  0  0
  -23.5525   -8.1825   20.7669 C   0  0  0  0  0  0  0  0  0  0  0  0
  -29.6518  -22.3656   18.5412 C   0  0  0  0  0  0  0  0  0  0  0  0
  -26.5713  -27.0592   21.5267 C   0  0  0  0  0  0  0  0  0  0  0  0
  -22.0594   -9.0195   22.4719 C   0  0  0  0  0  0  0  0  0  0  0  0
  -27.0728  -13.3991   20.3917 C   0  0  0  0  0  0  0  0  0  0  0  0
  -29.2182  -23.3501   17.6532 C   0  0  0  0  0  0  0  0  0  0  0  0
  -29.5867  -13.3006   19.9692 C   0  0  0  0  0  0  0  0  0  0  0  0
  -22.8131  -19.7427   19.6996 C   0  0  0  0  0  0  0  0  0  0  0  0
  -25.2783  -25.2508   22.4846 C   0  0  0  0  0  0  0  0  0  0  0  0
  -23.5631  -20.9320   19.6267 C   0  0  0  0  0  0  0  0  0  0  0  0
  -25.3255  -26.4779   21.8076 C   0  0  0  0  0  0  0  0  0  0  0  0
  -28.8321  -23.0011   16.3591 C   0  0  0  0  0  0  0  0  0  0  0  0
  -29.6992  -21.0320   18.1349 C   0  0  0  0  0  0  0  0  0  0  0  0
  -24.4900  -12.3450   20.3995 C   0  0  0  0  0  0  0  0  0  0  0  0
  -27.7533  -26.4352   21.9250 C   0  0  0  0  0  0  0  0  0  0  0  0
  -23.0608  -10.5448   20.8884 C   0  0  0  0  0  0  0  0  0  0  0  0
  -22.7210   -7.9531   21.8631 C   0  0  0  0  0  0  0  0  0  0  0  0
  -22.2293  -10.3153   21.9845 C   0  0  0  0  0  0  0  0  0  0  0  0
  -28.4066  -13.9443   20.3874 C   0  0  0  0  0  0  0  0  0  0  0  0
  -30.5743  -14.2356   20.1613 C   0  0  0  0  0  0  0  0  0  0  0  0
  -29.1769  -24.7625   18.1121 C   0  0  0  0  0  0  0  0  0  0  0  0
  -29.7734  -11.9760   19.4532 C   0  0  0  0  0  0  0  0  0  0  0  0
  -22.8951  -24.4495   20.5399 C   0  0  0  0  0  0  0  0  0  0  0  0
  -21.5691  -27.1847   21.6723 C   0  0  0  0  0  0  0  0  0  0  0  0
  -22.0260  -30.2542   23.0922 C   0  0  0  0  0  0  0  0  0  0  0  0
  -30.5600  -20.2078   20.3544 C   0  0  0  0  0  0  0  0  0  0  0  0
  -21.3311  -19.7211   19.4201 C   0  0  0  0  0  0  0  0  0  0  0  0
  -23.9564  -24.6166   22.8205 C   0  0  0  0  0  0  0  0  0  0  0  0
  -24.0732  -27.1878   21.3645 C   0  0  0  0  0  0  0  0  0  0  0  0
  -20.6770  -21.0983   19.4951 C   0  0  0  0  0  0  0  0  0  0  0  0
  -31.6867  -17.9974   22.9082 C   0  0  0  0  0  0  0  0  0  0  0  0
  -21.5082  -22.1262   18.7340 C   0  0  0  0  0  0  0  0  0  0  0  0
  -31.0858  -16.6473   22.5102 C   0  0  0  0  0  0  0  0  0  0  0  0
  -30.7381  -19.1540   22.5978 C   0  0  0  0  0  0  0  0  0  0  0  0
  -29.6449  -17.8490   20.8171 C   0  0  0  0  0  0  0  0  0  0  0  0
  -22.9073  -22.2666   19.3458 C   0  0  1  0  0  0  0  0  0  0  0  0
  -22.8247  -25.0732   21.9050 C   0  0  1  0  0  0  0  0  0  0  0  0
  -30.5902  -16.6593   21.0508 C   0  0  2  0  0  0  0  0  0  0  0  0
  -28.3637  -24.0354   15.3881 C   0  0  0  0  0  0  0  0  0  0  0  0
  -20.7561  -32.2764   23.8641 C   0  0  0  0  0  0  0  0  0  0  0  0
  -32.4386  -26.1266   20.5752 C   0  0  0  0  0  0  0  0  0  0  0  0
  -21.2125  -28.0646   18.7726 C   0  0  0  0  0  0  0  0  0  0  0  0
  -20.8470  -30.3995   19.5990 C   0  0  0  0  0  0  0  0  0  0  0  0
  -19.2740  -28.5818   20.2655 C   0  0  0  0  0  0  0  0  0  0  0  0
  -22.9547  -29.9162   25.8819 C   0  0  0  0  0  0  0  0  0  0  0  0
  -30.5057  -26.6541   19.0133 C   0  0  0  0  0  0  0  0  0  0  0  0
  -30.0664  -26.1369   21.4597 C   0  0  0  0  0  0  0  0  0  1  0  0
  -21.5975  -28.6369   21.2606 C   0  0  1  0  0  0  0  0  0  0  0  0
  -21.3436  -30.9326   24.2664 C   0  0  2  0  0  0  0  0  0  0  0  0
  -31.0433  -26.7475   20.4478 C   0  0  1  0  0  0  0  0  0  0  0  0
  -20.7566  -28.9066   19.9809 C   0  0  0  0  0  0  0  0  0  0  0  0
  -28.6227  -15.1917   20.8131 N   0  0  0  0  0  0  0  0  0  0  0  0
  -29.9501  -15.3393   20.6636 N   0  0  0  0  0  0  0  0  0  0  0  0
  -22.8053  -26.5244   21.7110 N   0  0  0  0  0  0  0  0  0  0  0  0
  -30.3138  -19.1032   21.1970 N   0  0  0  0  0  0  0  0  0  0  0  0
  -31.9071  -14.2130   19.9479 N   0  0  0  0  0  0  0  0  0  0  0  0
  -28.6516  -11.1464   19.3204 N   0  0  0  0  0  0  0  0  0  0  0  0
  -30.1415  -20.0318   19.0359 N   0  0  0  0  0  0  0  0  0  0  0  0
  -30.3879  -25.3085   18.5205 N   0  0  0  0  0  0  0  0  0  0  0  0
  -22.8544  -23.0683   20.5496 N   0  0  0  0  0  0  0  0  0  0  0  0
  -21.1708  -29.4006   22.4281 N   0  0  0  0  0  0  0  0  0  0  0  0
  -22.3172  -31.1574   25.3721 N   0  3  0  0  0  0  0  0  0  0  0  0
  -28.1022  -25.3570   18.1280 O   0  0  0  0  0  0  0  0  0  0  0  0
  -30.9040  -11.5353   19.1352 O   0  0  0  0  0  0  0  0  0  0  0  0
  -22.9785  -25.1682   19.5508 O   0  0  0  0  0  0  0  0  0  0  0  0
  -20.4905  -26.6577   21.9563 O   0  0  0  0  0  0  0  0  0  0  0  0
  -23.1992  -30.4637   22.7919 O   0  0  0  0  0  0  0  0  0  0  0  0
  -31.1267  -21.2237   20.7652 O   0  0  0  0  0  0  0  0  0  0  0  0
  -23.2298  -11.8306   20.4028 O   0  0  0  0  0  0  0  0  0  0  0  0
  -28.9545  -27.0114   21.6473 O   0  0  0  0  0  0  0  0  0  1  0  0
  -22.5568   -6.7084   22.3300 F   0  0  0  0  0  0  0  0  0  0  0  0
  -21.5901  -11.3357   22.5728 F   0  0  0  0  0  0  0  0  0  0  0  0
  1  2  1  0  0  0  0
  1  5  2  0  0  0  0
  2  6  2  0  0  0  0
  3 10  2  0  0  0  0
  3 18  1  0  0  0  0
  4 11  1  0  0  0  0
  4 18  2  0  0  0  0
  5 21  1  0  0  0  0
  6 23  1  0  0  0  0
  7 12  2  0  0  0  0
  7 22  1  0  0  0  0
  8  9  2  0  0  0  0
  8 25  1  0  0  0  0
  9 26  1  0  0  0  0
 10 27  1  0  0  0  0
 11 27  2  0  0  0  0
 12 28  1  0  0  0  0
 13 14  2  0  0  0  0
 13 29  1  0  0  0  0
 14 30  1  0  0  0  0
 15 19  1  0  0  0  0
 15 26  2  0  0  0  0
 16 24  1  0  0  0  0
 16 28  2  0  0  0  0
 17 30  2  0  0  0  0
 17 31  1  0  0  0  0
 18 32  1  0  0  0  0
 19 25  2  0  0  0  0
 19 34  1  0  0  0  0
 20 32  1  0  0  0  0
 20 33  2  0  0  0  0
 20 35  1  0  0  0  0
 21 23  2  0  0  0  0
 21 40  1  0  0  0  0
 22 24  2  0  0  0  0
 22 41  1  0  0  0  0
 23 49  1  0  0  0  0
 24 42  1  0  0  0  0
 25 52  1  0  0  0  0
 26 71  1  0  0  0  0
 27 82  1  0  0  0  0
 28 83  1  0  0  0  0
 29 31  2  0  0  0  0
 29 82  1  0  0  0  0
 30 84  1  0  0  0  0
 31 85  1  0  0  0  0
 32 65  2  0  0  0  0
 33 66  1  0  0  0  0
 33 69  1  0  0  0  0
 34 72  1  0  0  0  0
 34 76  2  0  0  0  0
 35 70  1  0  0  0  0
 35 77  2  0  0  0  0
 36 50  1  0  0  0  0
 36 73  1  0  0  0  0
 36 78  2  0  0  0  0
 37 61  1  0  0  0  0
 37 67  1  0  0  0  0
 37 79  2  0  0  0  0
 38 62  1  0  0  0  0
 38 74  1  0  0  0  0
 38 80  2  0  0  0  0
 39 68  1  0  0  0  0
 39 71  1  0  0  0  0
 39 81  2  0  0  0  0
 40 43  1  0  0  0  0
 41 50  1  0  0  0  0
 42 67  1  0  0  0  0
 43 45  1  0  0  0  0
 44 46  1  0  0  0  0
 44 47  1  0  0  0  0
 45 49  1  0  0  0  0
 46 51  1  0  0  0  0
 47 68  1  0  0  0  0
 48 51  1  0  0  0  0
 48 68  1  0  0  0  0
 49 73  1  0  0  0  0
 50 67  1  0  0  0  0
 51 66  1  0  0  0  0
 53 62  1  0  0  0  0
 54 63  1  0  0  0  0
 55 64  1  0  0  0  0
 56 64  1  0  0  0  0
 57 64  1  0  0  0  0
 58 75  1  0  0  0  0
 59 63  1  0  0  0  0
 59 72  1  0  0  0  0
 60 63  1  0  0  0  0
 60 83  1  0  0  0  0
 61 64  1  0  0  0  0
 61 74  1  0  0  0  0
 62 75  1  0  0  0  0
 65 66  1  0  0  0  0
M  CHG  1  75   1
M  ISO  4  39 100  60 101  71 100  83 101
M  END
> <Batch ID>
0053

> <Smiles>
CNC(C)C(=O)NC(C(=O)N1Cc2cc([101O:1][101CH2:1]C(C)CNC(=O)c3cc([100NH:0][100C:0](=O)N4CCCC(n5nc(-c6ccc(Oc7ccc(F)cc7F)cc6)c(C(N)=O)c5N)C4)ccc3C)ccc2CC1C(=O)NC1CCCc2ccccc21)C(C)(C)C

> <Shape>
0.246

> <Color>
0.064

> <Negative vol penalty>
0.000

$$$$

  -OEChem-04042322433D

 88 97  0     1  0  0  0  0  0999 V2000
  -22.8485   -7.9625   20.6142 C   0  0  0  0  0  0  0  0  0  0  0  0
  -22.3960   -9.1267   20.0015 C   0  0  0  0  0  0  0  0  0  0  0  0
  -28.8122  -28.1642   20.3021 C   0  0  0  0  0  0  0  0  0  0  0  0
  -27.4265  -26.3583   19.4922 C   0  0  0  0  0  0  0  0  0  0  0  0
  -23.6667   -8.0416   21.7404 C   0  0  0  0  0  0  0  0  0  0  0  0
  -22.7606  -10.3707   20.5154 C   0  0  0  0  0  0  0  0  0  0  0  0
  -23.8451  -15.4922   17.3374 C   0  0  0  0  0  0  0  0  0  0  0  0
  -29.9499  -27.3845   20.0941 C   0  0  0  0  0  0  0  0  0  0  0  0
  -28.5642  -25.5786   19.2841 C   0  0  0  0  0  0  0  0  0  0  0  0
  -23.0570  -16.6081   17.0593 C   0  0  0  0  0  0  0  0  0  0  0  0
  -31.0202  -25.3252   16.9767 C   0  0  0  0  0  0  0  0  0  0  0  0
  -31.1131  -24.6250   15.7739 C   0  0  0  0  0  0  0  0  0  0  0  0
  -24.0549  -17.7699   18.9231 C   0  0  0  0  0  0  0  0  0  0  0  0
  -18.8301  -23.8781   18.7717 C   0  0  0  0  0  0  0  0  0  0  0  0
  -18.6564  -24.6323   21.4519 C   0  0  0  0  0  0  0  0  0  0  0  0
  -31.2232  -22.5429   16.9945 C   0  0  0  0  0  0  0  0  0  0  0  0
  -27.5504  -27.6511   20.0013 C   0  0  0  0  0  0  0  0  0  0  0  0
  -26.0762  -29.6992   19.6278 C   0  0  0  0  0  0  0  0  0  0  0  0
  -24.0494   -9.2872   22.2625 C   0  0  0  0  0  0  0  0  0  0  0  0
  -24.7377  -15.5029   18.4190 C   0  0  0  0  0  0  0  0  0  0  0  0
  -23.5836  -10.4664   21.6504 C   0  0  0  0  0  0  0  0  0  0  0  0
  -24.8551  -16.6538   19.2113 C   0  0  0  0  0  0  0  0  0  0  0  0
  -17.9609  -23.2055   19.6305 C   0  0  0  0  0  0  0  0  0  0  0  0
  -19.6125  -24.9278   19.2530 C   0  0  0  0  0  0  0  0  0  0  0  0
  -17.8740  -23.5825   20.9706 C   0  0  0  0  0  0  0  0  0  0  0  0
  -19.5257  -25.3049   20.5931 C   0  0  0  0  0  0  0  0  0  0  0  0
  -29.8259  -26.0917   19.5851 C   0  0  0  0  0  0  0  0  0  0  0  0
  -23.1597  -17.7462   17.8539 C   0  0  0  0  0  0  0  0  0  0  0  0
  -31.0289  -24.6342   18.1884 C   0  0  0  0  0  0  0  0  0  0  0  0
  -31.2146  -23.2339   15.7828 C   0  0  0  0  0  0  0  0  0  0  0  0
  -31.1304  -23.2431   18.1973 C   0  0  0  0  0  0  0  0  0  0  0  0
  -26.3748  -28.4558   20.2165 C   0  0  0  0  0  0  0  0  0  0  0  0
  -24.8557  -30.0443   20.1546 C   0  0  0  0  0  0  0  0  0  0  0  0
  -17.8716  -20.6635   17.1941 C   0  0  0  0  0  0  0  0  0  0  0  0
  -26.8344  -30.4731   18.6886 C   0  0  0  0  0  0  0  0  0  0  0  0
  -25.0348  -13.8195   21.0988 C   0  0  0  0  0  0  0  0  0  0  0  0
  -27.7773  -15.5244   21.4052 C   0  0  0  0  0  0  0  0  0  0  0  0
  -29.5417  -18.3390   20.6230 C   0  0  0  0  0  0  0  0  0  0  0  0
  -20.3327  -26.8549   22.4076 C   0  0  0  0  0  0  0  0  0  0  0  0
  -24.8966   -9.3222   23.5098 C   0  0  0  0  0  0  0  0  0  0  0  0
  -25.6001  -14.3006   18.6895 C   0  0  0  0  0  0  0  0  0  0  0  0
  -25.8127  -16.7233   20.3717 C   0  0  0  0  0  0  0  0  0  0  0  0
  -18.7648  -19.4980   16.8179 C   0  0  0  0  0  0  0  0  0  0  0  0
  -25.5433  -10.6804   23.7689 C   0  0  0  0  0  0  0  0  0  0  0  0
  -22.1538  -29.4295   24.0606 C   0  0  0  0  0  0  0  0  0  0  0  0
  -24.5215  -11.7998   23.5967 C   0  0  0  0  0  0  0  0  0  0  0  0
  -23.4129  -29.5893   23.2054 C   0  0  0  0  0  0  0  0  0  0  0  0
  -20.0642  -19.7646   18.9694 C   0  0  0  0  0  0  0  0  0  0  0  0
  -21.7100  -27.9704   24.1493 C   0  0  0  0  0  0  0  0  0  0  0  0
  -18.6831  -20.1706   19.4810 C   0  0  0  0  0  0  0  0  0  0  0  0
  -22.8013  -27.4527   22.0022 C   0  0  0  0  0  0  0  0  0  0  0  0
  -23.9776  -11.8345   22.1634 C   0  0  1  0  0  0  0  0  0  0  0  0
  -26.1030  -14.2376   20.1284 C   0  0  1  0  0  0  0  0  0  0  0  0
  -20.1483  -19.6919   17.4371 C   0  0  1  0  0  0  0  0  0  0  0  0
  -23.2495  -28.9132   21.8300 C   0  0  2  0  0  0  0  0  0  0  0  0
  -20.5349  -25.6307   18.3105 C   0  0  0  0  0  0  0  0  0  0  0  0
  -16.9508  -22.8768   21.9087 C   0  0  0  0  0  0  0  0  0  0  0  0
  -31.7410  -19.4683   21.0531 C   0  0  0  0  0  0  0  0  0  0  0  0
  -26.8126  -16.3399   24.1827 C   0  0  0  0  0  0  0  0  0  0  0  0
  -28.5267  -18.1647   24.1660 C   0  0  0  0  0  0  0  0  0  0  0  0
  -29.2460  -15.7791   24.0465 C   0  0  0  0  0  0  0  0  0  0  0  0
  -30.2667  -18.2767   17.7543 C   0  0  0  0  0  0  0  0  0  0  0  0
  -17.1290  -22.0786   19.0899 C   0  0  0  0  0  0  0  0  0  0  0  0
  -21.1167  -18.6015   16.9875 C   0  0  0  0  0  0  0  0  0  1  0  0
  -28.1503  -16.8456   22.0331 C   0  0  1  0  0  0  0  0  0  0  0  0
  -30.9673  -18.5319   20.1382 C   0  0  2  0  0  0  0  0  0  0  0  0
  -28.1643  -16.7806   23.5865 C   0  0  0  0  0  0  0  0  0  0  0  0
  -25.4208  -28.0392   21.0534 N   0  0  0  0  0  0  0  0  0  0  0  0
  -24.5109  -29.0265   20.9944 N   0  0  0  0  0  0  0  0  0  0  0  0
  -17.9492  -21.0108   18.5429 N   0  0  0  0  0  0  0  0  0  0  0  0
  -26.6297  -15.5200   20.5997 N   0  0  0  0  0  0  0  0  0  0  0  0
  -21.5720  -27.3972   22.8087 N   0  0  0  0  0  0  0  0  0  0  0  0
  -24.0544  -31.1162   19.9769 N   0  0  0  0  0  0  0  0  0  0  0  0
  -26.6228  -30.2573   17.3201 N   0  0  0  0  0  0  0  0  0  0  0  0
  -20.3121  -26.3687   21.1008 N   0  0  0  0  0  0  0  0  0  0  0  0
  -24.9373  -12.4522   21.2735 N   0  0  0  0  0  0  0  0  0  0  0  0
  -29.4252  -17.2341   21.4397 N   0  0  0  0  0  0  0  0  0  0  0  0
  -30.9734  -19.1070   18.7633 N   0  3  0  0  0  0  0  0  0  0  0  0
  -17.1493  -21.2050   16.3588 O   0  0  0  0  0  0  0  0  0  0  0  0
  -27.6865  -31.3188   19.0523 O   0  0  0  0  0  0  0  0  0  0  0  0
  -24.3506  -14.6741   21.6495 O   0  0  0  0  0  0  0  0  0  0  0  0
  -28.4824  -14.5344   21.6158 O   0  0  0  0  0  0  0  0  0  0  0  0
  -28.6241  -19.0950   20.3117 O   0  0  0  0  0  0  0  0  0  0  0  0
  -19.3536  -26.8489   23.1580 O   0  0  0  0  0  0  0  0  0  0  0  0
  -30.9359  -25.3307   19.3817 O   0  0  0  0  0  0  0  0  0  0  0  0
  -22.3911  -18.8365   17.5851 O   0  0  0  0  0  0  0  0  0  1  0  0
  -31.3022  -22.5615   14.6276 F   0  0  0  0  0  0  0  0  0  0  0  0
  -31.1381  -22.5737   19.3582 F   0  0  0  0  0  0  0  0  0  0  0  0
  1  2  1  0  0  0  0
  1  5  2  0  0  0  0
  2  6  2  0  0  0  0
  3  8  2  0  0  0  0
  3 17  1  0  0  0  0
  4  9  1  0  0  0  0
  4 17  2  0  0  0  0
  5 19  1  0  0  0  0
  6 21  1  0  0  0  0
  7 10  2  0  0  0  0
  7 20  1  0  0  0  0
  8 27  1  0  0  0  0
  9 27  2  0  0  0  0
 10 28  1  0  0  0  0
 11 12  2  0  0  0  0
 11 29  1  0  0  0  0
 12 30  1  0  0  0  0
 13 22  1  0  0  0  0
 13 28  2  0  0  0  0
 14 23  1  0  0  0  0
 14 24  2  0  0  0  0
 15 25  1  0  0  0  0
 15 26  2  0  0  0  0
 16 30  2  0  0  0  0
 16 31  1  0  0  0  0
 17 32  1  0  0  0  0
 18 32  1  0  0  0  0
 18 33  2  0  0  0  0
 18 35  1  0  0  0  0
 19 21  2  0  0  0  0
 19 40  1  0  0  0  0
 20 22  2  0  0  0  0
 20 41  1  0  0  0  0
 21 52  1  0  0  0  0
 22 42  1  0  0  0  0
 23 25  2  0  0  0  0
 23 63  1  0  0  0  0
 24 26  1  0  0  0  0
 24 56  1  0  0  0  0
 25 57  1  0  0  0  0
 26 75  1  0  0  0  0
 27 85  1  0  0  0  0
 28 86  1  0  0  0  0
 29 31  2  0  0  0  0
 29 85  1  0  0  0  0
 30 87  1  0  0  0  0
 31 88  1  0  0  0  0
 32 68  2  0  0  0  0
 33 69  1  0  0  0  0
 33 73  1  0  0  0  0
 34 43  1  0  0  0  0
 34 70  1  0  0  0  0
 34 79  2  0  0  0  0
 35 74  1  0  0  0  0
 35 80  2  0  0  0  0
 36 53  1  0  0  0  0
 36 76  1  0  0  0  0
 36 81  2  0  0  0  0
 37 65  1  0  0  0  0
 37 71  1  0  0  0  0
 37 82  2  0  0  0  0
 38 66  1  0  0  0  0
 38 77  1  0  0  0  0
 38 83  2  0  0  0  0
 39 72  1  0  0  0  0
 39 75  1  0  0  0  0
 39 84  2  0  0  0  0
 40 44  1  0  0  0  0
 41 53  1  0  0  0  0
 42 71  1  0  0  0  0
 43 54  1  0  0  0  0
 44 46  1  0  0  0  0
 45 47  1  0  0  0  0
 45 49  1  0  0  0  0
 46 52  1  0  0  0  0
 47 55  1  0  0  0  0
 48 50  1  0  0  0  0
 48 54  1  0  0  0  0
 49 72  1  0  0  0  0
 50 70  1  0  0  0  0
 51 55  1  0  0  0  0
 51 72  1  0  0  0  0
 52 76  1  0  0  0  0
 53 71  1  0  0  0  0
 54 64  1  0  0  0  0
 55 69  1  0  0  0  0
 58 66  1  0  0  0  0
 59 67  1  0  0  0  0
 60 67  1  0  0  0  0
 61 67  1  0  0  0  0
 62 78  1  0  0  0  0
 63 70  1  0  0  0  0
 64 86  1  0  0  0  0
 65 67  1  0  0  0  0
 65 77  1  0  0  0  0
 66 78  1  0  0  0  0
 68 69  1  0  0  0  0
M  CHG  1  78   1
M  ISO  4  39 100  64 101  75 100  86 101
M  END
> <Batch ID>
0053

> <Smiles>
CNC(C)C(=O)NC(C(=O)N1Cc2cc([101O:1][101CH2:1]C3CCN(Cc4cc(C)c([100NH:0][100C:0](=O)N5CCCC(n6nc(-c7ccc(Oc8ccc(F)cc8F)cc7)c(C(N)=O)c6N)C5)cc4C)C(=O)C3)ccc2CC1C(=O)NC1CCCc2ccccc21)C(C)(C)C

> <Shape>
0.241

> <Color>
0.049

> <Negative vol penalty>
0.000

$$$$

  -OEChem-04042322433D

 86 94  0     1  0  0  0  0  0999 V2000
  -33.9312  -35.0810   22.0882 C   0  0  0  0  0  0  0  0  0  0  0  0
  -33.9289  -33.6911   22.1491 C   0  0  0  0  0  0  0  0  0  0  0  0
  -23.0701   -9.8840   19.9319 C   0  0  0  0  0  0  0  0  0  0  0  0
  -23.8483   -9.8598   22.2189 C   0  0  0  0  0  0  0  0  0  0  0  0
  -32.8611  -35.8025   22.6156 C   0  0  0  0  0  0  0  0  0  0  0  0
  -32.8568  -33.0220   22.7385 C   0  0  0  0  0  0  0  0  0  0  0  0
  -30.5212  -27.6147   21.0615 C   0  0  0  0  0  0  0  0  0  0  0  0
  -22.3282   -8.7276   20.1720 C   0  0  0  0  0  0  0  0  0  0  0  0
  -23.1064   -8.7033   22.4591 C   0  0  0  0  0  0  0  0  0  0  0  0
  -30.7035  -26.3220   21.5506 C   0  0  0  0  0  0  0  0  0  0  0  0
  -19.8831   -7.8972   23.0766 C   0  0  0  0  0  0  0  0  0  0  0  0
  -19.1355   -7.8413   24.2528 C   0  0  0  0  0  0  0  0  0  0  0  0
  -28.7159  -26.5577   22.8971 C   0  0  0  0  0  0  0  0  0  0  0  0
  -29.7212  -19.2684   22.4192 C   0  0  0  0  0  0  0  0  0  0  0  0
  -31.1550  -17.6871   20.6230 C   0  0  0  0  0  0  0  0  0  0  0  0
  -20.3827   -5.8940   24.9528 C   0  0  0  0  0  0  0  0  0  0  0  0
  -23.8302  -10.4501   20.9553 C   0  0  0  0  0  0  0  0  0  0  0  0
  -24.1713  -12.9767   20.8670 C   0  0  0  0  0  0  0  0  0  0  0  0
  -31.7709  -35.1415   23.2031 C   0  0  0  0  0  0  0  0  0  0  0  0
  -29.4392  -28.3940   21.4955 C   0  0  0  0  0  0  0  0  0  0  0  0
  -31.7717  -33.7354   23.2755 C   0  0  0  0  0  0  0  0  0  0  0  0
  -28.5207  -27.8591   22.4100 C   0  0  0  0  0  0  0  0  0  0  0  0
  -29.5411  -17.8853   22.4100 C   0  0  0  0  0  0  0  0  0  0  0  0
  -31.3350  -19.0703   20.6322 C   0  0  0  0  0  0  0  0  0  0  0  0
  -30.2580  -17.0946   21.5119 C   0  0  0  0  0  0  0  0  0  0  0  0
  -30.6181  -19.8609   21.5303 C   0  0  0  0  0  0  0  0  0  0  0  0
  -22.3463   -8.1372   21.4356 C   0  0  0  0  0  0  0  0  0  0  0  0
  -29.8024  -25.7943   22.4708 C   0  0  0  0  0  0  0  0  0  0  0  0
  -20.8804   -6.9515   22.8383 C   0  0  0  0  0  0  0  0  0  0  0  0
  -19.3853   -6.8397   25.1910 C   0  0  0  0  0  0  0  0  0  0  0  0
  -21.1302   -5.9499   23.7765 C   0  0  0  0  0  0  0  0  0  0  0  0
  -24.5973  -11.6444   20.7077 C   0  0  0  0  0  0  0  0  0  0  0  0
  -25.2605  -13.7311   20.5053 C   0  0  0  0  0  0  0  0  0  0  0  0
  -22.9042  -13.4867   21.3031 C   0  0  0  0  0  0  0  0  0  0  0  0
  -29.1409  -31.1508   23.0495 C   0  0  0  0  0  0  0  0  0  0  0  0
  -25.9908  -30.7276   22.4014 C   0  0  0  0  0  0  0  0  0  0  0  0
  -30.1487  -22.1806   22.3864 C   0  0  0  0  0  0  0  0  0  0  0  0
  -23.4462  -28.5722   21.6759 C   0  0  0  0  0  0  0  0  0  0  0  0
  -30.7280  -14.7744   20.6504 C   0  0  0  0  0  0  0  0  0  0  0  0
  -30.6590  -35.9660   23.8020 C   0  0  0  0  0  0  0  0  0  0  0  0
  -29.2417  -29.7770   20.9380 C   0  0  0  0  0  0  0  0  0  0  0  0
  -27.3313  -28.6473   22.8923 C   0  0  0  0  0  0  0  0  0  0  0  0
  -29.3869  -35.1672   24.0740 C   0  0  0  0  0  0  0  0  0  0  0  0
  -29.5945  -12.3931   18.2584 C   0  0  0  0  0  0  0  0  0  0  0  0
  -29.7215  -33.8508   24.7684 C   0  0  0  0  0  0  0  0  0  0  0  0
  -28.1583  -12.0956   18.6955 C   0  0  0  0  0  0  0  0  0  0  0  0
  -30.5192  -12.6055   19.4557 C   0  0  0  0  0  0  0  0  0  0  0  0
  -28.6235  -13.3110   20.8620 C   0  0  0  0  0  0  0  0  0  0  0  0
  -30.6154  -32.9725   23.8847 C   0  0  1  0  0  0  0  0  0  0  0  0
  -28.3928  -30.6687   21.8389 C   0  0  1  0  0  0  0  0  0  0  0  0
  -27.6412  -13.1538   19.6897 C   0  0  2  0  0  0  0  0  0  0  0  0
  -28.5726  -17.2780   23.3722 C   0  0  0  0  0  0  0  0  0  0  0  0
  -20.9758  -28.5169   21.2386 C   0  0  0  0  0  0  0  0  0  0  0  0
  -25.4572  -31.0864   25.3840 C   0  0  0  0  0  0  0  0  0  0  0  0
  -23.1855  -30.0968   25.0257 C   0  0  0  0  0  0  0  0  0  0  0  0
  -23.8108  -32.2255   23.8853 C   0  0  0  0  0  0  0  0  0  0  0  0
  -23.8350  -27.4759   18.9546 C   0  0  0  0  0  0  0  0  0  0  0  0
  -30.6159  -23.5928   22.0866 C   0  0  0  0  0  0  0  0  0  1  0  0
  -24.8366  -30.0517   23.1014 C   0  0  1  0  0  0  0  0  0  0  0  0
  -22.3599  -28.6163   20.6165 C   0  0  2  0  0  0  0  0  0  0  0  0
  -32.3021  -19.6785   19.6691 C   0  0  0  0  0  0  0  0  0  0  0  0
  -24.3459  -30.8507   24.3417 C   0  0  0  0  0  0  0  0  0  0  0  0
  -25.8588  -11.5544   20.2780 N   0  0  0  0  0  0  0  0  0  0  0  0
  -26.2347  -12.8396   20.1642 N   0  0  0  0  0  0  0  0  0  0  0  0
  -27.1849  -29.9970   22.3227 N   0  0  0  0  0  0  0  0  0  0  0  0
  -29.9674  -13.6243   20.3515 N   0  0  0  0  0  0  0  0  0  0  0  0
  -25.4704  -15.0634   20.4487 N   0  0  0  0  0  0  0  0  0  0  0  0
  -21.8950  -12.5730   21.6360 N   0  0  0  0  0  0  0  0  0  0  0  0
  -30.7863  -21.2658   21.5553 N   0  0  0  0  0  0  0  0  0  0  0  0
  -30.0873  -15.6882   21.4865 N   0  0  0  0  0  0  0  0  0  0  0  0
  -29.8309  -32.3314   22.8513 N   0  0  0  0  0  0  0  0  0  0  0  0
  -23.8120  -29.8370   22.0853 N   0  0  0  0  0  0  0  0  0  0  0  0
  -22.5260  -27.4883   19.6569 N   0  3  0  0  0  0  0  0  0  0  0  0
  -22.6685  -14.7164   21.3791 O   0  0  0  0  0  0  0  0  0  0  0  0
  -29.0942  -30.5005   24.0871 O   0  0  0  0  0  0  0  0  0  0  0  0
  -25.8363  -31.8590   21.9349 O   0  0  0  0  0  0  0  0  0  0  0  0
  -29.3173  -21.9503   23.2584 O   0  0  0  0  0  0  0  0  0  0  0  0
  -23.9200  -27.5207   22.1007 O   0  0  0  0  0  0  0  0  0  0  0  0
  -31.8533  -14.9495   20.1761 O   0  0  0  0  0  0  0  0  0  0  0  0
  -21.6222   -7.0088   21.6704 O   0  0  0  0  0  0  0  0  0  0  0  0
  -29.9783  -24.5330   22.9503 O   0  0  0  0  0  0  0  0  0  1  0  0
  -18.6684   -6.7871   26.3212 F   0  0  0  0  0  0  0  0  0  0  0  0
  -22.0878   -5.0393   23.5538 F   0  0  0  0  0  0  0  0  0  0  0  0
  -32.9168  -18.7639   18.8638 F   0  0  0  0  0  0  0  0  0  0  0  0
  -31.7288  -20.5779   18.8176 F   0  0  0  0  0  0  0  0  0  0  0  0
  -33.3083  -20.3533   20.2953 F   0  0  0  0  0  0  0  0  0  0  0  0
  1  2  1  0  0  0  0
  1  5  2  0  0  0  0
  2  6  2  0  0  0  0
  3  8  2  0  0  0  0
  3 17  1  0  0  0  0
  4  9  1  0  0  0  0
  4 17  2  0  0  0  0
  5 19  1  0  0  0  0
  6 21  1  0  0  0  0
  7 10  2  0  0  0  0
  7 20  1  0  0  0  0
  8 27  1  0  0  0  0
  9 27  2  0  0  0  0
 10 28  1  0  0  0  0
 11 12  2  0  0  0  0
 11 29  1  0  0  0  0
 12 30  1  0  0  0  0
 13 22  1  0  0  0  0
 13 28  2  0  0  0  0
 14 23  2  0  0  0  0
 14 26  1  0  0  0  0
 15 24  1  0  0  0  0
 15 25  2  0  0  0  0
 16 30  2  0  0  0  0
 16 31  1  0  0  0  0
 17 32  1  0  0  0  0
 18 32  1  0  0  0  0
 18 33  2  0  0  0  0
 18 34  1  0  0  0  0
 19 21  2  0  0  0  0
 19 40  1  0  0  0  0
 20 22  2  0  0  0  0
 20 41  1  0  0  0  0
 21 49  1  0  0  0  0
 22 42  1  0  0  0  0
 23 25  1  0  0  0  0
 23 52  1  0  0  0  0
 24 26  2  0  0  0  0
 24 61  1  0  0  0  0
 25 70  1  0  0  0  0
 26 69  1  0  0  0  0
 27 80  1  0  0  0  0
 28 81  1  0  0  0  0
 29 31  2  0  0  0  0
 29 80  1  0  0  0  0
 30 82  1  0  0  0  0
 31 83  1  0  0  0  0
 32 63  2  0  0  0  0
 33 64  1  0  0  0  0
 33 67  1  0  0  0  0
 34 68  1  0  0  0  0
 34 74  2  0  0  0  0
 35 50  1  0  0  0  0
 35 71  1  0  0  0  0
 35 75  2  0  0  0  0
 36 59  1  0  0  0  0
 36 65  1  0  0  0  0
 36 76  2  0  0  0  0
 37 58  1  0  0  0  0
 37 69  1  0  0  0  0
 37 77  2  0  0  0  0
 38 60  1  0  0  0  0
 38 72  1  0  0  0  0
 38 78  2  0  0  0  0
 39 66  1  0  0  0  0
 39 70  1  0  0  0  0
 39 79  2  0  0  0  0
 40 43  1  0  0  0  0
 41 50  1  0  0  0  0
 42 65  1  0  0  0  0
 43 45  1  0  0  0  0
 44 46  1  0  0  0  0
 44 47  1  0  0  0  0
 45 49  1  0  0  0  0
 46 51  1  0  0  0  0
 47 66  1  0  0  0  0
 48 51  1  0  0  0  0
 48 66  1  0  0  0  0
 49 71  1  0  0  0  0
 50 65  1  0  0  0  0
 51 64  1  0  0  0  0
 53 60  1  0  0  0  0
 54 62  1  0  0  0  0
 55 62  1  0  0  0  0
 56 62  1  0  0  0  0
 57 73  1  0  0  0  0
 58 81  1  0  0  0  0
 59 62  1  0  0  0  0
 59 72  1  0  0  0  0
 60 73  1  0  0  0  0
 61 84  1  0  0  0  0
 61 85  1  0  0  0  0
 61 86  1  0  0  0  0
 63 64  1  0  0  0  0
M  CHG  1  73   1
M  ISO  4  39 100  58 101  70 100  81 101
M  END
> <Batch ID>
0053

> <Smiles>
CNC(C)C(=O)NC(C(=O)N1Cc2cc([101O:1][101CH2:1]C(=O)Nc3cc(C)c([100NH:0][100C:0](=O)N4CCCC(n5nc(-c6ccc(Oc7ccc(F)cc7F)cc6)c(C(N)=O)c5N)C4)cc3C(F)(F)F)ccc2CC1C(=O)NC1CCCc2ccccc21)C(C)(C)C

> <Shape>
0.290

> <Color>
0.192

> <Negative vol penalty>
0.000

$$$$

  -OEChem-04042322433D

 87 95  0     1  0  0  0  0  0999 V2000
  -32.8567  -31.4377   23.4432 C   0  0  0  0  0  0  0  0  0  0  0  0
  -32.4981  -30.6491   22.3547 C   0  0  0  0  0  0  0  0  0  0  0  0
  -27.4070  -11.2788   20.5804 C   0  0  0  0  0  0  0  0  0  0  0  0
  -26.6116  -12.6973   18.7937 C   0  0  0  0  0  0  0  0  0  0  0  0
  -32.0848  -31.4142   24.6040 C   0  0  0  0  0  0  0  0  0  0  0  0
  -31.3679  -29.8356   22.4267 C   0  0  0  0  0  0  0  0  0  0  0  0
  -27.5133  -28.4766   17.8659 C   0  0  0  0  0  0  0  0  0  0  0  0
  -26.3598  -10.3893   20.3406 C   0  0  0  0  0  0  0  0  0  0  0  0
  -25.5643  -11.8077   18.5538 C   0  0  0  0  0  0  0  0  0  0  0  0
  -27.4087  -27.3698   17.0246 C   0  0  0  0  0  0  0  0  0  0  0  0
  -23.0596  -10.1809   21.0405 C   0  0  0  0  0  0  0  0  0  0  0  0
  -22.3603   -9.6916   22.1438 C   0  0  0  0  0  0  0  0  0  0  0  0
  -28.8925  -23.0151   18.6166 C   0  0  0  0  0  0  0  0  0  0  0  0
  -27.8741  -20.8574   18.9962 C   0  0  0  0  0  0  0  0  0  0  0  0
  -29.1897  -21.8951   20.7366 C   0  0  0  0  0  0  0  0  0  0  0  0
  -25.7303  -26.4296   18.4800 C   0  0  0  0  0  0  0  0  0  0  0  0
  -22.9860   -7.4373   21.5405 C   0  0  0  0  0  0  0  0  0  0  0  0
  -27.5329  -12.4329   19.8071 C   0  0  0  0  0  0  0  0  0  0  0  0
  -28.1145  -21.9500   18.1630 C   0  0  0  0  0  0  0  0  0  0  0  0
  -29.4302  -22.9877   19.9035 C   0  0  0  0  0  0  0  0  0  0  0  0
  -29.8951  -13.3356   19.4709 C   0  0  0  0  0  0  0  0  0  0  0  0
  -30.9390  -30.6073   24.6868 C   0  0  0  0  0  0  0  0  0  0  0  0
  -26.7337  -28.5632   19.0283 C   0  0  0  0  0  0  0  0  0  0  0  0
  -30.5806  -29.8002   23.5902 C   0  0  0  0  0  0  0  0  0  0  0  0
  -25.8250  -27.5397   19.3331 C   0  0  0  0  0  0  0  0  0  0  0  0
  -28.4117  -20.8300   20.2830 C   0  0  0  0  0  0  0  0  0  0  0  0
  -25.4384  -10.6537   19.3273 C   0  0  0  0  0  0  0  0  0  0  0  0
  -26.5192  -26.3447   17.3331 C   0  0  0  0  0  0  0  0  0  0  0  0
  -23.7220   -9.2984   20.1872 C   0  0  0  0  0  0  0  0  0  0  0  0
  -22.3235   -8.3198   22.3938 C   0  0  0  0  0  0  0  0  0  0  0  0
  -23.6852   -7.9267   20.4372 C   0  0  0  0  0  0  0  0  0  0  0  0
  -28.6142  -13.3524   20.0547 C   0  0  0  0  0  0  0  0  0  0  0  0
  -30.5428  -14.4084   20.0330 C   0  0  0  0  0  0  0  0  0  0  0  0
  -27.5483  -21.9790   16.8092 C   0  0  0  0  0  0  0  0  0  0  0  0
  -30.2410  -24.0985   20.3769 C   0  0  0  0  0  0  0  0  0  0  0  0
  -30.4497  -12.4311   18.5065 C   0  0  0  0  0  0  0  0  0  0  0  0
  -26.6848  -22.9006   16.3439 C   0  0  0  0  0  0  0  0  0  0  0  0
  -26.2111  -22.7410   14.9315 C   0  0  0  0  0  0  0  0  0  0  0  0
  -27.3578  -28.7203   22.1411 C   0  0  0  0  0  0  0  0  0  0  0  0
  -24.1522  -29.1640   22.3649 C   0  0  0  0  0  0  0  0  0  0  0  0
  -21.0638  -28.7315   20.9787 C   0  0  0  0  0  0  0  0  0  0  0  0
  -28.6266  -19.5342   22.4327 C   0  0  0  0  0  0  0  0  0  0  0  0
  -30.1627  -30.5793   25.9796 C   0  0  0  0  0  0  0  0  0  0  0  0
  -26.8390  -29.7763   19.9114 C   0  0  0  0  0  0  0  0  0  0  0  0
  -24.9509  -27.5943   20.5584 C   0  0  0  0  0  0  0  0  0  0  0  0
  -28.7686  -29.9734   25.8399 C   0  0  0  0  0  0  0  0  0  0  0  0
  -30.6331  -17.0586   24.0208 C   0  0  0  0  0  0  0  0  0  0  0  0
  -28.8285  -28.6745   25.0423 C   0  0  0  0  0  0  0  0  0  0  0  0
  -30.4645  -15.8274   23.1275 C   0  0  0  0  0  0  0  0  0  0  0  0
  -29.3388  -17.8629   24.1282 C   0  0  0  0  0  0  0  0  0  0  0  0
  -28.5650  -17.0084   21.9510 C   0  0  0  0  0  0  0  0  0  0  0  0
  -29.3476  -28.9234   23.6210 C   0  0  1  0  0  0  0  0  0  0  0  0
  -26.3687  -29.5183   21.3395 C   0  0  1  0  0  0  0  0  0  0  0  0
  -29.8599  -16.2019   21.7601 C   0  0  2  0  0  0  0  0  0  0  0  0
  -18.6309  -29.1660   21.4140 C   0  0  0  0  0  0  0  0  0  0  0  0
  -24.0965  -26.8483   24.3510 C   0  0  0  0  0  0  0  0  0  0  0  0
  -21.6189  -26.7129   24.0169 C   0  0  0  0  0  0  0  0  0  0  0  0
  -22.6366  -28.7841   24.9643 C   0  0  0  0  0  0  0  0  0  0  0  0
  -31.3318  -26.1369   20.3217 C   0  0  0  0  0  0  0  0  0  0  0  0
  -26.9844  -22.6984   12.5723 C   0  0  0  0  0  0  0  0  0  0  0  0
  -20.8196  -30.4402   18.5746 C   0  0  0  0  0  0  0  0  0  0  0  0
  -26.0569  -24.0216   17.1196 C   0  0  0  0  0  0  0  0  0  1  0  0
  -22.9550  -28.2563   22.5123 C   0  0  1  0  0  0  0  0  0  0  0  0
  -19.9069  -29.6933   20.7764 C   0  0  2  0  0  0  0  0  0  0  0  0
  -22.8445  -27.6482   23.9390 C   0  0  0  0  0  0  0  0  0  0  0  0
  -28.4558  -14.3562   20.9215 N   0  0  0  0  0  0  0  0  0  0  0  0
  -30.4984  -25.1440   19.6496 N   0  0  0  0  0  0  0  0  0  0  0  0
  -29.6456  -14.9801   20.8865 N   0  0  0  0  0  0  0  0  0  0  0  0
  -25.0949  -28.7980   21.3937 N   0  0  0  0  0  0  0  0  0  0  0  0
  -28.8269  -18.1852   22.7944 N   0  0  0  0  0  0  0  0  0  0  0  0
  -31.7866  -14.9089   19.8757 N   0  0  0  0  0  0  0  0  0  0  0  0
  -29.6471  -11.3840   18.0336 N   0  0  0  0  0  0  0  0  0  0  0  0
  -28.1681  -19.7196   21.1289 N   0  0  0  0  0  0  0  0  0  0  0  0
  -27.2293  -22.7704   13.9946 N   0  0  0  0  0  0  0  0  0  0  0  0
  -28.3035  -29.4883   22.7933 N   0  0  0  0  0  0  0  0  0  0  0  0
  -21.7947  -29.0418   22.1060 N   0  0  0  0  0  0  0  0  0  0  0  0
  -19.6545  -29.9015   19.3225 N   0  3  0  0  0  0  0  0  0  0  0  0
  -31.6278  -12.5383   18.0892 O   0  0  0  0  0  0  0  0  0  0  0  0
  -25.0117  -22.6531   14.6822 O   0  0  0  0  0  0  0  0  0  0  0  0
  -27.2686  -27.4984   22.1673 O   0  0  0  0  0  0  0  0  0  0  0  0
  -24.2439  -30.1649   23.0800 O   0  0  0  0  0  0  0  0  0  0  0  0
  -21.2938  -27.7962   20.2153 O   0  0  0  0  0  0  0  0  0  0  0  0
  -28.8716  -20.4584   23.2124 O   0  0  0  0  0  0  0  0  0  0  0  0
  -24.4165   -9.7859   19.0927 O   0  0  0  0  0  0  0  0  0  0  0  0
  -26.4157  -25.2630   16.5140 O   0  0  0  0  0  0  0  0  0  1  0  0
  -21.6533   -7.8502   23.4542 F   0  0  0  0  0  0  0  0  0  0  0  0
  -24.3207   -7.0741   19.6217 F   0  0  0  0  0  0  0  0  0  0  0  0
  1  2  1  0  0  0  0
  1  5  2  0  0  0  0
  2  6  2  0  0  0  0
  3  8  2  0  0  0  0
  3 18  1  0  0  0  0
  4  9  1  0  0  0  0
  4 18  2  0  0  0  0
  5 22  1  0  0  0  0
  6 24  1  0  0  0  0
  7 10  2  0  0  0  0
  7 23  1  0  0  0  0
  8 27  1  0  0  0  0
  9 27  2  0  0  0  0
 10 28  1  0  0  0  0
 11 12  2  0  0  0  0
 11 29  1  0  0  0  0
 12 30  1  0  0  0  0
 13 19  2  0  0  0  0
 13 20  1  0  0  0  0
 14 19  1  0  0  0  0
 14 26  2  0  0  0  0
 15 20  2  0  0  0  0
 15 26  1  0  0  0  0
 16 25  1  0  0  0  0
 16 28  2  0  0  0  0
 17 30  2  0  0  0  0
 17 31  1  0  0  0  0
 18 32  1  0  0  0  0
 19 34  1  0  0  0  0
 20 35  1  0  0  0  0
 21 32  1  0  0  0  0
 21 33  2  0  0  0  0
 21 36  1  0  0  0  0
 22 24  2  0  0  0  0
 22 43  1  0  0  0  0
 23 25  2  0  0  0  0
 23 44  1  0  0  0  0
 24 52  1  0  0  0  0
 25 45  1  0  0  0  0
 26 73  1  0  0  0  0
 27 84  1  0  0  0  0
 28 85  1  0  0  0  0
 29 31  2  0  0  0  0
 29 84  1  0  0  0  0
 30 86  1  0  0  0  0
 31 87  1  0  0  0  0
 32 66  2  0  0  0  0
 33 68  1  0  0  0  0
 33 71  1  0  0  0  0
 34 37  2  0  0  0  0
 35 67  2  0  0  0  0
 36 72  1  0  0  0  0
 36 78  2  0  0  0  0
 37 38  1  0  0  0  0
 37 62  1  0  0  0  0
 38 74  1  0  0  0  0
 38 79  2  0  0  0  0
 39 53  1  0  0  0  0
 39 75  1  0  0  0  0
 39 80  2  0  0  0  0
 40 63  1  0  0  0  0
 40 69  1  0  0  0  0
 40 81  2  0  0  0  0
 41 64  1  0  0  0  0
 41 76  1  0  0  0  0
 41 82  2  0  0  0  0
 42 70  1  0  0  0  0
 42 73  1  0  0  0  0
 42 83  2  0  0  0  0
 43 46  1  0  0  0  0
 44 53  1  0  0  0  0
 45 69  1  0  0  0  0
 46 48  1  0  0  0  0
 47 49  1  0  0  0  0
 47 50  1  0  0  0  0
 48 52  1  0  0  0  0
 49 54  1  0  0  0  0
 50 70  1  0  0  0  0
 51 54  1  0  0  0  0
 51 70  1  0  0  0  0
 52 75  1  0  0  0  0
 53 69  1  0  0  0  0
 54 68  1  0  0  0  0
 55 64  1  0  0  0  0
 56 65  1  0  0  0  0
 57 65  1  0  0  0  0
 58 65  1  0  0  0  0
 59 67  1  0  0  0  0
 60 74  1  0  0  0  0
 61 77  1  0  0  0  0
 62 85  1  0  0  0  0
 63 65  1  0  0  0  0
 63 76  1  0  0  0  0
 64 77  1  0  0  0  0
 66 68  1  0  0  0  0
M  CHG  1  77   1
M  ISO  4  42 100  62 101  73 100  85 101
M  END
> <Batch ID>
0053

> <Smiles>
CN=Cc1cc(C=C(C(=O)NC)[101CH2:1][101O:1]c2ccc3c(c2)CN(C(=O)C(NC(=O)C(C)NC)C(C)(C)C)C(C(=O)NC2CCCc4ccccc42)C3)cc([100NH:0][100C:0](=O)N2CCCC(n3nc(-c4ccc(Oc5ccc(F)cc5F)cc4)c(C(N)=O)c3N)C2)c1

> <Shape>
0.242

> <Color>
0.084

> <Negative vol penalty>
0.000

$$$$

  -OEChem-04042322433D

 91100  0     1  0  0  0  0  0999 V2000
  -18.8294  -25.1038   23.8858 C   0  0  0  0  0  0  0  0  0  0  0  0
  -19.9671  -25.0280   23.0887 C   0  0  0  0  0  0  0  0  0  0  0  0
  -20.3420  -16.9918   21.4461 C   0  0  0  0  0  0  0  0  0  0  0  0
  -21.3756  -17.7157   23.5064 C   0  0  0  0  0  0  0  0  0  0  0  0
  -18.1405  -26.3103   24.0026 C   0  0  0  0  0  0  0  0  0  0  0  0
  -20.4159  -26.1586   22.4070 C   0  0  0  0  0  0  0  0  0  0  0  0
  -26.2310  -27.6953   21.2538 C   0  0  0  0  0  0  0  0  0  0  0  0
  -19.0868  -17.3119   21.9633 C   0  0  0  0  0  0  0  0  0  0  0  0
  -20.1204  -18.0359   24.0236 C   0  0  0  0  0  0  0  0  0  0  0  0
  -27.0353  -27.5428   20.1253 C   0  0  0  0  0  0  0  0  0  0  0  0
  -17.2266  -20.0943   22.4443 C   0  0  0  0  0  0  0  0  0  0  0  0
  -16.3443  -20.7919   21.6195 C   0  0  0  0  0  0  0  0  0  0  0  0
  -26.4963  -29.7934   19.4445 C   0  0  0  0  0  0  0  0  0  0  0  0
  -24.9069  -24.0081   15.4500 C   0  0  0  0  0  0  0  0  0  0  0  0
  -26.5148  -22.8602   16.8406 C   0  0  0  0  0  0  0  0  0  0  0  0
  -14.7579  -18.9769   21.7811 C   0  0  0  0  0  0  0  0  0  0  0  0
  -21.4864  -17.1936   22.2177 C   0  0  0  0  0  0  0  0  0  0  0  0
  -23.2261  -15.5992   21.2487 C   0  0  0  0  0  0  0  0  0  0  0  0
  -18.5866  -27.4587   23.3296 C   0  0  0  0  0  0  0  0  0  0  0  0
  -25.5435  -28.8962   21.4809 C   0  0  0  0  0  0  0  0  0  0  0  0
  -19.7316  -27.3813   22.5138 C   0  0  0  0  0  0  0  0  0  0  0  0
  -25.6859  -29.9595   20.5780 C   0  0  0  0  0  0  0  0  0  0  0  0
  -26.2190  -23.6059   15.6995 C   0  0  0  0  0  0  0  0  0  0  0  0
  -23.8907  -23.6648   16.3417 C   0  0  0  0  0  0  0  0  0  0  0  0
  -24.1865  -22.9191   17.4828 C   0  0  0  0  0  0  0  0  0  0  0  0
  -25.4986  -22.5168   17.7323 C   0  0  0  0  0  0  0  0  0  0  0  0
  -18.9759  -17.8340   23.2521 C   0  0  0  0  0  0  0  0  0  0  0  0
  -27.1658  -28.5909   19.2190 C   0  0  0  0  0  0  0  0  0  0  0  0
  -16.8746  -18.8378   22.9375 C   0  0  0  0  0  0  0  0  0  0  0  0
  -15.1100  -20.2333   21.2879 C   0  0  0  0  0  0  0  0  0  0  0  0
  -15.6402  -18.2792   22.6059 C   0  0  0  0  0  0  0  0  0  0  0  0
  -22.7833  -16.8625   21.6842 C   0  0  0  0  0  0  0  0  0  0  0  0
  -24.5188  -15.8119   20.8362 C   0  0  0  0  0  0  0  0  0  0  0  0
  -29.2959  -24.7469   15.9824 C   0  0  0  0  0  0  0  0  0  0  0  0
  -22.5310  -14.3455   21.2195 C   0  0  0  0  0  0  0  0  0  0  0  0
  -22.4822  -29.7176   21.7206 C   0  0  0  0  0  0  0  0  0  0  0  0
  -23.7229  -32.6063   22.5195 C   0  0  0  0  0  0  0  0  0  0  0  0
  -26.3533  -34.7746   22.3576 C   0  0  0  0  0  0  0  0  0  0  0  0
  -27.0770  -21.2826   19.2702 C   0  0  0  0  0  0  0  0  0  0  0  0
  -17.7819  -28.7286   23.4489 C   0  0  0  0  0  0  0  0  0  0  0  0
  -24.7010  -29.0541   22.7169 C   0  0  0  0  0  0  0  0  0  0  0  0
  -24.9851  -31.2762   20.7865 C   0  0  0  0  0  0  0  0  0  0  0  0
  -30.1638  -25.9129   16.4188 C   0  0  0  0  0  0  0  0  0  0  0  0
  -18.5375  -29.9737   22.9916 C   0  0  0  0  0  0  0  0  0  0  0  0
  -28.1261  -18.8780   21.8732 C   0  0  0  0  0  0  0  0  0  0  0  0
  -19.2298  -29.7178   21.6567 C   0  0  0  0  0  0  0  0  0  0  0  0
  -27.0314  -17.8114   21.9309 C   0  0  0  0  0  0  0  0  0  0  0  0
  -28.5668  -27.5224   15.4293 C   0  0  0  0  0  0  0  0  0  0  0  0
  -28.2864  -19.4878   20.4874 C   0  0  0  0  0  0  0  0  0  0  0  0
  -27.5848  -26.3994   15.1461 C   0  0  0  0  0  0  0  0  0  0  0  0
  -25.7916  -19.3453   20.3239 C   0  0  0  0  0  0  0  0  0  0  0  0
  -20.2639  -28.5921   21.7784 C   0  0  1  0  0  0  0  0  0  0  0  0
  -23.6388  -30.1408   22.5812 C   0  0  1  0  0  0  0  0  0  0  0  0
  -29.4215  -27.2219   16.6541 C   0  0  1  0  0  0  0  0  0  0  0  0
  -26.0479  -17.8917   20.7515 C   0  0  2  0  0  0  0  0  0  0  0  0
  -22.4945  -24.1098   16.0519 C   0  0  0  0  0  0  0  0  0  0  0  0
  -27.0574  -37.0743   23.0740 C   0  0  0  0  0  0  0  0  0  0  0  0
  -21.9871  -33.8194   20.3229 C   0  0  0  0  0  0  0  0  0  0  0  0
  -23.4014  -35.8819   20.4408 C   0  0  0  0  0  0  0  0  0  0  0  0
  -22.0862  -35.1581   22.4330 C   0  0  0  0  0  0  0  0  0  0  0  0
  -28.6006  -33.7123   23.9638 C   0  0  0  0  0  0  0  0  0  0  0  0
  -27.3131  -23.9766   14.7405 C   0  0  0  0  0  0  0  0  0  0  0  0
  -28.6097  -27.1902   17.9504 C   0  0  0  0  0  0  0  0  0  1  0  0
  -24.1351  -33.8411   21.7552 C   0  0  1  0  0  0  0  0  0  0  0  0
  -27.0495  -35.5953   23.4282 C   0  0  2  0  0  0  0  0  0  0  0  0
  -23.0926  -22.5542   18.4368 C   0  0  0  0  0  0  0  0  0  0  0  0
  -22.9143  -34.6498   21.2327 C   0  0  0  0  0  0  0  0  0  0  0  0
  -23.7188  -17.8078   21.5601 N   0  0  0  0  0  0  0  0  0  0  0  0
  -24.7624  -17.1380   21.0421 N   0  0  0  0  0  0  0  0  0  0  0  0
  -28.1478  -25.0540   15.2558 N   0  0  0  0  0  0  0  0  0  0  0  0
  -24.1677  -31.3795   22.0067 N   0  0  0  0  0  0  0  0  0  0  0  0
  -27.0314  -20.0765   20.0112 N   0  0  0  0  0  0  0  0  0  0  0  0
  -25.4596  -14.9921   20.3213 N   0  0  0  0  0  0  0  0  0  0  0  0
  -22.6109  -13.5110   22.3426 N   0  0  0  0  0  0  0  0  0  0  0  0
  -25.8209  -21.7578   18.8847 N   0  0  0  0  0  0  0  0  0  0  0  0
  -21.4699  -29.0800   22.4122 N   0  0  0  0  0  0  0  0  0  0  0  0
  -25.0160  -34.5945   22.6412 N   0  0  0  0  0  0  0  0  0  0  0  0
  -28.4602  -35.1436   23.5915 N   0  3  0  0  0  0  0  0  0  0  0  0
  -29.6791  -23.5973   16.2169 O   0  0  0  0  0  0  0  0  0  0  0  0
  -21.8725  -13.9690   20.2204 O   0  0  0  0  0  0  0  0  0  0  0  0
  -22.5056  -29.9534   20.5183 O   0  0  0  0  0  0  0  0  0  0  0  0
  -23.0377  -32.7262   23.5382 O   0  0  0  0  0  0  0  0  0  0  0  0
  -26.9365  -34.3402   21.3669 O   0  0  0  0  0  0  0  0  0  0  0  0
  -28.1434  -21.8472   19.0172 O   0  0  0  0  0  0  0  0  0  0  0  0
  -17.7513  -18.1468   23.7570 O   0  0  0  0  0  0  0  0  0  0  0  0
  -27.9498  -28.4445   18.1163 O   0  0  0  0  0  0  0  0  0  1  0  0
  -14.2622  -20.9041   20.4970 F   0  0  0  0  0  0  0  0  0  0  0  0
  -15.2960  -17.0731   23.0777 F   0  0  0  0  0  0  0  0  0  0  0  0
  -21.8668  -23.0181   18.0594 F   0  0  0  0  0  0  0  0  0  0  0  0
  -22.9365  -21.2083   18.5925 F   0  0  0  0  0  0  0  0  0  0  0  0
  -23.3072  -23.0498   19.6881 F   0  0  0  0  0  0  0  0  0  0  0  0
  1  2  1  0  0  0  0
  1  5  2  0  0  0  0
  2  6  2  0  0  0  0
  3  8  2  0  0  0  0
  3 17  1  0  0  0  0
  4  9  1  0  0  0  0
  4 17  2  0  0  0  0
  5 19  1  0  0  0  0
  6 21  1  0  0  0  0
  7 10  2  0  0  0  0
  7 20  1  0  0  0  0
  8 27  1  0  0  0  0
  9 27  2  0  0  0  0
 10 28  1  0  0  0  0
 11 12  2  0  0  0  0
 11 29  1  0  0  0  0
 12 30  1  0  0  0  0
 13 22  1  0  0  0  0
 13 28  2  0  0  0  0
 14 23  1  0  0  0  0
 14 24  2  0  0  0  0
 15 23  2  0  0  0  0
 15 26  1  0  0  0  0
 16 30  2  0  0  0  0
 16 31  1  0  0  0  0
 17 32  1  0  0  0  0
 18 32  1  0  0  0  0
 18 33  2  0  0  0  0
 18 35  1  0  0  0  0
 19 21  2  0  0  0  0
 19 40  1  0  0  0  0
 20 22  2  0  0  0  0
 20 41  1  0  0  0  0
 21 52  1  0  0  0  0
 22 42  1  0  0  0  0
 23 62  1  0  0  0  0
 24 25  1  0  0  0  0
 24 56  1  0  0  0  0
 25 26  2  0  0  0  0
 25 66  1  0  0  0  0
 26 75  1  0  0  0  0
 27 85  1  0  0  0  0
 28 86  1  0  0  0  0
 29 31  2  0  0  0  0
 29 85  1  0  0  0  0
 30 87  1  0  0  0  0
 31 88  1  0  0  0  0
 32 68  2  0  0  0  0
 33 69  1  0  0  0  0
 33 73  1  0  0  0  0
 34 43  1  0  0  0  0
 34 70  1  0  0  0  0
 34 79  2  0  0  0  0
 35 74  1  0  0  0  0
 35 80  2  0  0  0  0
 36 53  1  0  0  0  0
 36 76  1  0  0  0  0
 36 81  2  0  0  0  0
 37 64  1  0  0  0  0
 37 71  1  0  0  0  0
 37 82  2  0  0  0  0
 38 65  1  0  0  0  0
 38 77  1  0  0  0  0
 38 83  2  0  0  0  0
 39 72  1  0  0  0  0
 39 75  1  0  0  0  0
 39 84  2  0  0  0  0
 40 44  1  0  0  0  0
 41 53  1  0  0  0  0
 42 71  1  0  0  0  0
 43 54  1  0  0  0  0
 44 46  1  0  0  0  0
 45 47  1  0  0  0  0
 45 49  1  0  0  0  0
 46 52  1  0  0  0  0
 47 55  1  0  0  0  0
 48 50  1  0  0  0  0
 48 54  1  0  0  0  0
 49 72  1  0  0  0  0
 50 70  1  0  0  0  0
 51 55  1  0  0  0  0
 51 72  1  0  0  0  0
 52 76  1  0  0  0  0
 53 71  1  0  0  0  0
 54 63  1  0  0  0  0
 55 69  1  0  0  0  0
 57 65  1  0  0  0  0
 58 67  1  0  0  0  0
 59 67  1  0  0  0  0
 60 67  1  0  0  0  0
 61 78  1  0  0  0  0
 62 70  1  0  0  0  0
 63 86  1  0  0  0  0
 64 67  1  0  0  0  0
 64 77  1  0  0  0  0
 65 78  1  0  0  0  0
 66 89  1  0  0  0  0
 66 90  1  0  0  0  0
 66 91  1  0  0  0  0
 68 69  1  0  0  0  0
M  CHG  1  78   1
M  ISO  4  39 100  63 101  75 100  86 101
M  END
> <Batch ID>
0053

> <Smiles>
CNC(C)C(=O)NC(C(=O)N1Cc2cc([101O:1][101CH2:1]C3CCN(Cc4cc(C)c(C(F)(F)F)c([100NH:0][100C:0](=O)N5CCCC(n6nc(-c7ccc(Oc8ccc(F)cc8F)cc7)c(C(N)=O)c6N)C5)c4)C(=O)C3)ccc2CC1C(=O)NC1CCCc2ccccc21)C(C)(C)C

> <Shape>
0.176

> <Color>
0.128

> <Negative vol penalty>
0.000

$$$$

  -OEChem-04042322433D

 87 95  0     1  0  0  0  0  0999 V2000
  -26.7360  -23.7798   28.9075 C   0  0  0  0  0  0  0  0  0  0  0  0
  -27.1454  -23.9252   27.5859 C   0  0  0  0  0  0  0  0  0  0  0  0
  -24.5525   -9.5818   21.5327 C   0  0  0  0  0  0  0  0  0  0  0  0
  -24.8037  -10.7319   23.6425 C   0  0  0  0  0  0  0  0  0  0  0  0
  -25.3794  -23.6613   29.2069 C   0  0  0  0  0  0  0  0  0  0  0  0
  -26.1984  -23.9513   26.5627 C   0  0  0  0  0  0  0  0  0  0  0  0
  -27.0842  -27.6225   23.1889 C   0  0  0  0  0  0  0  0  0  0  0  0
  -24.2798   -8.3946   22.2123 C   0  0  0  0  0  0  0  0  0  0  0  0
  -24.5310   -9.5447   24.3221 C   0  0  0  0  0  0  0  0  0  0  0  0
  -28.0856  -27.3931   22.2465 C   0  0  0  0  0  0  0  0  0  0  0  0
  -21.6529   -6.9842   23.8069 C   0  0  0  0  0  0  0  0  0  0  0  0
  -20.5825   -6.2111   23.3575 C   0  0  0  0  0  0  0  0  0  0  0  0
  -26.4079  -26.8070   20.6152 C   0  0  0  0  0  0  0  0  0  0  0  0
  -29.5668  -19.9673   21.3696 C   0  0  0  0  0  0  0  0  0  0  0  0
  -27.1561  -19.9412   21.5274 C   0  0  0  0  0  0  0  0  0  0  0  0
  -22.0883   -4.3683   22.9406 C   0  0  0  0  0  0  0  0  0  0  0  0
  -24.8145  -10.7505   22.2478 C   0  0  0  0  0  0  0  0  0  0  0  0
  -24.1691  -12.9493   21.1270 C   0  0  0  0  0  0  0  0  0  0  0  0
  -24.4147  -23.6956   28.1876 C   0  0  0  0  0  0  0  0  0  0  0  0
  -25.7354  -27.4351   22.8542 C   0  0  0  0  0  0  0  0  0  0  0  0
  -24.8277  -23.8318   26.8485 C   0  0  0  0  0  0  0  0  0  0  0  0
  -25.3911  -27.0372   21.5545 C   0  0  0  0  0  0  0  0  0  0  0  0
  -29.5843  -21.2755   21.8532 C   0  0  0  0  0  0  0  0  0  0  0  0
  -27.1735  -21.2494   22.0111 C   0  0  0  0  0  0  0  0  0  0  0  0
  -28.3877  -21.9166   22.1740 C   0  0  0  0  0  0  0  0  0  0  0  0
  -28.3526  -19.3001   21.2067 C   0  0  0  0  0  0  0  0  0  0  0  0
  -24.2690   -8.3761   23.6070 C   0  0  0  0  0  0  0  0  0  0  0  0
  -27.7477  -26.9825   20.9602 C   0  0  0  0  0  0  0  0  0  0  0  0
  -22.9411   -6.4494   23.8232 C   0  0  0  0  0  0  0  0  0  0  0  0
  -20.8001   -4.9032   22.9243 C   0  0  0  0  0  0  0  0  0  0  0  0
  -23.1588   -5.1415   23.3900 C   0  0  0  0  0  0  0  0  0  0  0  0
  -25.0968  -11.9770   21.5464 C   0  0  0  0  0  0  0  0  0  0  0  0
  -24.9337  -13.9109   20.5128 C   0  0  0  0  0  0  0  0  0  0  0  0
  -22.7438  -12.9806   21.2792 C   0  0  0  0  0  0  0  0  0  0  0  0
  -23.4132  -25.5246   23.8843 C   0  0  0  0  0  0  0  0  0  0  0  0
  -21.5895  -27.3054   21.8780 C   0  0  0  0  0  0  0  0  0  0  0  0
  -31.9266  -24.0679   21.1770 C   0  0  0  0  0  0  0  0  0  0  0  0
  -21.4290  -29.3210   19.1288 C   0  0  0  0  0  0  0  0  0  0  0  0
  -29.4310  -17.1899   20.3521 C   0  0  0  0  0  0  0  0  0  0  0  0
  -22.9631  -23.5163   28.5557 C   0  0  0  0  0  0  0  0  0  0  0  0
  -24.6655  -27.7126   23.8744 C   0  0  0  0  0  0  0  0  0  0  0  0
  -23.9567  -26.8412   21.1389 C   0  0  0  0  0  0  0  0  0  0  0  0
  -21.9982  -23.9297   27.4474 C   0  0  0  0  0  0  0  0  0  0  0  0
  -29.8046  -13.8641   19.1368 C   0  0  0  0  0  0  0  0  0  0  0  0
  -22.4467  -23.3552   26.1074 C   0  0  0  0  0  0  0  0  0  0  0  0
  -28.5368  -13.1567   19.6208 C   0  0  0  0  0  0  0  0  0  0  0  0
  -30.3159  -14.8757   20.1611 C   0  0  0  0  0  0  0  0  0  0  0  0
  -28.0540  -15.1496   21.0981 C   0  0  0  0  0  0  0  0  0  0  0  0
  -23.8290  -23.8895   25.7131 C   0  0  1  0  0  0  0  0  0  0  0  0
  -23.3536  -26.9938   23.5752 C   0  0  1  0  0  0  0  0  0  0  0  0
  -27.4647  -14.1678   20.0722 C   0  0  2  0  0  0  0  0  0  0  0  0
  -28.4066  -23.3192   22.6931 C   0  0  0  0  0  0  0  0  0  0  0  0
  -19.7948  -30.5930   17.7114 C   0  0  0  0  0  0  0  0  0  0  0  0
  -20.6767  -24.6938   20.5912 C   0  0  0  0  0  0  0  0  0  0  0  0
  -19.8391  -26.0269   18.6444 C   0  0  0  0  0  0  0  0  0  0  0  0
  -18.8649  -26.3876   20.9124 C   0  0  0  0  0  0  0  0  0  0  0  0
  -22.7421  -31.9046   19.7286 C   0  0  0  0  0  0  0  0  0  0  0  0
  -30.9042  -21.9716   22.0188 C   0  0  0  0  0  0  0  0  0  0  0  0
  -25.8783  -21.9131   22.3472 C   0  0  0  0  0  0  0  0  0  0  0  0
  -32.0054  -24.9251   19.9264 C   0  0  0  0  0  0  0  0  0  0  0  0
  -30.6379  -25.4252   19.4752 C   0  0  0  0  0  0  0  0  0  0  0  0
  -29.9882  -26.3124   20.5272 C   0  0  0  0  0  0  0  0  0  1  0  0
  -21.2027  -27.2158   20.4216 C   0  0  1  0  0  0  0  0  0  0  0  0
  -20.7449  -30.6562   18.8972 C   0  0  2  0  0  0  0  0  0  0  0  0
  -20.1731  -26.0827   20.1505 C   0  0  0  0  0  0  0  0  0  0  0  0
  -26.3545  -12.2920   21.2255 N   0  0  0  0  0  0  0  0  0  0  0  0
  -26.2225  -13.4730   20.5979 N   0  0  0  0  0  0  0  0  0  0  0  0
  -22.9473  -27.1191   22.1740 N   0  0  0  0  0  0  0  0  0  0  0  0
  -29.2473  -15.8034   20.5384 N   0  0  0  0  0  0  0  0  0  0  0  0
  -24.6225  -15.0798   19.9135 N   0  0  0  0  0  0  0  0  0  0  0  0
  -22.1184  -11.9117   21.9355 N   0  0  0  0  0  0  0  0  0  0  0  0
  -28.3346  -17.9708   20.7164 N   0  0  0  0  0  0  0  0  0  0  0  0
  -23.7220  -25.2386   25.2005 N   0  0  0  0  0  0  0  0  0  0  0  0
  -31.1355  -22.9457   20.9787 N   0  0  0  0  0  0  0  0  0  0  0  0
  -20.7418  -28.5461   20.0390 N   0  0  0  0  0  0  0  0  0  0  0  0
  -21.7568  -31.7178   18.6326 N   0  3  0  0  0  0  0  0  0  0  0  0
  -22.0438  -13.9203   20.8316 O   0  0  0  0  0  0  0  0  0  0  0  0
  -23.1937  -24.7106   22.9949 O   0  0  0  0  0  0  0  0  0  0  0  0
  -20.7202  -27.5394   22.7213 O   0  0  0  0  0  0  0  0  0  0  0  0
  -32.5005  -24.3497   22.2255 O   0  0  0  0  0  0  0  0  0  0  0  0
  -22.4670  -28.9963   18.5564 O   0  0  0  0  0  0  0  0  0  0  0  0
  -30.4731  -17.6484   19.8770 O   0  0  0  0  0  0  0  0  0  0  0  0
  -24.0027   -7.2179   24.2705 O   0  0  0  0  0  0  0  0  0  0  0  0
  -28.7233  -26.7572   20.0386 O   0  0  0  0  0  0  0  0  0  1  0  0
  -19.7718   -4.1604   22.4941 F   0  0  0  0  0  0  0  0  0  0  0  0
  -24.3939   -4.6218   23.4044 F   0  0  0  0  0  0  0  0  0  0  0  0
  -24.8364  -21.2234   21.8050 F   0  0  0  0  0  0  0  0  0  0  0  0
  1  2  1  0  0  0  0
  1  5  2  0  0  0  0
  2  6  2  0  0  0  0
  3  8  2  0  0  0  0
  3 17  1  0  0  0  0
  4  9  1  0  0  0  0
  4 17  2  0  0  0  0
  5 19  1  0  0  0  0
  6 21  1  0  0  0  0
  7 10  2  0  0  0  0
  7 20  1  0  0  0  0
  8 27  1  0  0  0  0
  9 27  2  0  0  0  0
 10 28  1  0  0  0  0
 11 12  2  0  0  0  0
 11 29  1  0  0  0  0
 12 30  1  0  0  0  0
 13 22  1  0  0  0  0
 13 28  2  0  0  0  0
 14 23  1  0  0  0  0
 14 26  2  0  0  0  0
 15 24  2  0  0  0  0
 15 26  1  0  0  0  0
 16 30  2  0  0  0  0
 16 31  1  0  0  0  0
 17 32  1  0  0  0  0
 18 32  1  0  0  0  0
 18 33  2  0  0  0  0
 18 34  1  0  0  0  0
 19 21  2  0  0  0  0
 19 40  1  0  0  0  0
 20 22  2  0  0  0  0
 20 41  1  0  0  0  0
 21 49  1  0  0  0  0
 22 42  1  0  0  0  0
 23 25  2  0  0  0  0
 23 58  1  0  0  0  0
 24 25  1  0  0  0  0
 24 59  1  0  0  0  0
 25 52  1  0  0  0  0
 26 72  1  0  0  0  0
 27 83  1  0  0  0  0
 28 84  1  0  0  0  0
 29 31  2  0  0  0  0
 29 83  1  0  0  0  0
 30 85  1  0  0  0  0
 31 86  1  0  0  0  0
 32 66  2  0  0  0  0
 33 67  1  0  0  0  0
 33 70  1  0  0  0  0
 34 71  1  0  0  0  0
 34 77  2  0  0  0  0
 35 50  1  0  0  0  0
 35 73  1  0  0  0  0
 35 78  2  0  0  0  0
 36 63  1  0  0  0  0
 36 68  1  0  0  0  0
 36 79  2  0  0  0  0
 37 60  1  0  0  0  0
 37 74  1  0  0  0  0
 37 80  2  0  0  0  0
 38 64  1  0  0  0  0
 38 75  1  0  0  0  0
 38 81  2  0  0  0  0
 39 69  1  0  0  0  0
 39 72  1  0  0  0  0
 39 82  2  0  0  0  0
 40 43  1  0  0  0  0
 41 50  1  0  0  0  0
 42 68  1  0  0  0  0
 43 45  1  0  0  0  0
 44 46  1  0  0  0  0
 44 47  1  0  0  0  0
 45 49  1  0  0  0  0
 46 51  1  0  0  0  0
 47 69  1  0  0  0  0
 48 51  1  0  0  0  0
 48 69  1  0  0  0  0
 49 73  1  0  0  0  0
 50 68  1  0  0  0  0
 51 67  1  0  0  0  0
 53 64  1  0  0  0  0
 54 65  1  0  0  0  0
 55 65  1  0  0  0  0
 56 65  1  0  0  0  0
 57 76  1  0  0  0  0
 58 74  1  0  0  0  0
 59 87  1  0  0  0  0
 60 61  1  0  0  0  0
 61 62  1  0  0  0  0
 62 84  1  0  0  0  0
 63 65  1  0  0  0  0
 63 75  1  0  0  0  0
 64 76  1  0  0  0  0
 66 67  1  0  0  0  0
M  CHG  1  76   1
M  ISO  4  39 100  62 101  72 100  84 101
M  END
> <Batch ID>
0053

> <Smiles>
CNC(C)C(=O)NC(C(=O)N1Cc2cc([101O:1][101CH2:1]CCC(=O)NCc3cc([100NH:0][100C:0](=O)N4CCCC(n5nc(-c6ccc(Oc7ccc(F)cc7F)cc6)c(C(N)=O)c5N)C4)cc(CF)c3C)ccc2CC1C(=O)NC1CCCc2ccccc21)C(C)(C)C

> <Shape>
0.224

> <Color>
0.113

> <Negative vol penalty>
0.000

$$$$

  -OEChem-04042322433D

 86 94  0     1  0  0  0  0  0999 V2000
  -22.4977  -33.8995   13.1413 C   0  0  0  0  0  0  0  0  0  0  0  0
  -22.9401  -32.7112   13.7138 C   0  0  0  0  0  0  0  0  0  0  0  0
  -22.8952  -10.1517   19.9035 C   0  0  0  0  0  0  0  0  0  0  0  0
  -23.8849   -9.6989   22.0604 C   0  0  0  0  0  0  0  0  0  0  0  0
  -22.9585  -35.1213   13.6299 C   0  0  0  0  0  0  0  0  0  0  0  0
  -23.8444  -32.7441   14.7747 C   0  0  0  0  0  0  0  0  0  0  0  0
  -24.0952  -28.8803   19.5196 C   0  0  0  0  0  0  0  0  0  0  0  0
  -29.9280  -18.1834   21.7047 C   0  0  0  0  0  0  0  0  0  0  0  0
  -32.0038  -17.9668   20.4877 C   0  0  0  0  0  0  0  0  0  0  0  0
  -29.6722  -19.3902   21.0538 C   0  0  0  0  0  0  0  0  0  0  0  0
  -31.7480  -19.1736   19.8367 C   0  0  0  0  0  0  0  0  0  0  0  0
  -22.0846   -9.0247   20.0388 C   0  0  0  0  0  0  0  0  0  0  0  0
  -23.0743   -8.5718   22.1957 C   0  0  0  0  0  0  0  0  0  0  0  0
  -24.8898  -27.7647   19.7798 C   0  0  0  0  0  0  0  0  0  0  0  0
  -19.8687   -7.8965   23.0256 C   0  0  0  0  0  0  0  0  0  0  0  0
  -19.2357   -7.6989   24.2527 C   0  0  0  0  0  0  0  0  0  0  0  0
  -26.3993  -29.1454   21.0581 C   0  0  0  0  0  0  0  0  0  0  0  0
  -20.3750   -5.5828   24.4997 C   0  0  0  0  0  0  0  0  0  0  0  0
  -23.7954  -10.4888   20.9143 C   0  0  0  0  0  0  0  0  0  0  0  0
  -24.3390  -12.9664   21.1860 C   0  0  0  0  0  0  0  0  0  0  0  0
  -23.8615  -35.1694   14.7036 C   0  0  0  0  0  0  0  0  0  0  0  0
  -24.4531  -30.1411   20.0185 C   0  0  0  0  0  0  0  0  0  0  0  0
  -24.3188  -33.9676   15.2773 C   0  0  0  0  0  0  0  0  0  0  0  0
  -25.6062  -30.2750   20.8050 C   0  0  0  0  0  0  0  0  0  0  0  0
  -31.0938  -17.4717   21.4217 C   0  0  0  0  0  0  0  0  0  0  0  0
  -30.5822  -19.8853   20.1198 C   0  0  0  0  0  0  0  0  0  0  0  0
  -22.1741   -8.2348   21.1849 C   0  0  0  0  0  0  0  0  0  0  0  0
  -26.0435  -27.8976   20.5467 C   0  0  0  0  0  0  0  0  0  0  0  0
  -20.7548   -6.9371   22.5355 C   0  0  0  0  0  0  0  0  0  0  0  0
  -19.4889   -6.5421   24.9898 C   0  0  0  0  0  0  0  0  0  0  0  0
  -21.0080   -5.7803   23.2725 C   0  0  0  0  0  0  0  0  0  0  0  0
  -24.6334  -11.6526   20.7748 C   0  0  0  0  0  0  0  0  0  0  0  0
  -25.4484  -13.6941   20.8307 C   0  0  0  0  0  0  0  0  0  0  0  0
  -23.1675  -13.4828   21.8315 C   0  0  0  0  0  0  0  0  0  0  0  0
  -25.2110  -32.9379   18.7119 C   0  0  0  0  0  0  0  0  0  0  0  0
  -25.1822  -33.9449   21.7953 C   0  0  0  0  0  0  0  0  0  0  0  0
  -29.2191  -21.9433   19.6186 C   0  0  0  0  0  0  0  0  0  0  0  0
  -28.1591  -25.0390   19.8391 C   0  0  0  0  0  0  0  0  0  0  0  0
  -25.4687  -33.1565   25.1034 C   0  0  0  0  0  0  0  0  0  0  0  0
  -30.9896  -14.2951   20.5498 C   0  0  0  0  0  0  0  0  0  0  0  0
  -24.3680  -36.5125   15.1666 C   0  0  0  0  0  0  0  0  0  0  0  0
  -23.5710  -31.3297   19.7512 C   0  0  0  0  0  0  0  0  0  0  0  0
  -26.0235  -31.6027   21.3809 C   0  0  0  0  0  0  0  0  0  0  0  0
  -25.0367  -36.4715   16.5382 C   0  0  0  0  0  0  0  0  0  0  0  0
  -29.4114  -12.4558   17.9415 C   0  0  0  0  0  0  0  0  0  0  0  0
  -26.0100  -35.3000   16.6228 C   0  0  0  0  0  0  0  0  0  0  0  0
  -28.0063  -12.1861   18.4826 C   0  0  0  0  0  0  0  0  0  0  0  0
  -30.4629  -12.3973   19.0474 C   0  0  0  0  0  0  0  0  0  0  0  0
  -28.7840  -12.9945   20.7498 C   0  0  0  0  0  0  0  0  0  0  0  0
  -25.2805  -33.9629   16.4457 C   0  0  1  0  0  0  0  0  0  0  0  0
  -24.3064  -32.6603   19.8790 C   0  0  1  0  0  0  0  0  0  0  0  0
  -27.6824  -13.0981   19.6812 C   0  0  2  0  0  0  0  0  0  0  0  0
  -25.4371  -34.1977   27.3864 C   0  0  0  0  0  0  0  0  0  0  0  0
  -27.9943  -35.0355   21.3342 C   0  0  0  0  0  0  0  0  0  0  0  0
  -28.2664  -35.1900   23.8182 C   0  0  0  0  0  0  0  0  0  0  0  0
  -26.5020  -36.5307   22.6728 C   0  0  0  0  0  0  0  0  0  0  0  0
  -23.1301  -31.5438   25.9335 C   0  0  0  0  0  0  0  0  0  0  0  0
  -31.3672  -16.1814   22.1178 C   0  0  0  0  0  0  0  0  0  0  0  0
  -29.3363  -23.1572   18.7172 C   0  0  0  0  0  0  0  0  0  0  0  0
  -26.8386  -25.7787   19.8159 C   0  0  0  0  0  0  0  0  0  1  0  0
  -26.2058  -34.0303   22.9016 C   0  0  1  0  0  0  0  0  0  0  0  0
  -24.6126  -33.5198   26.3032 C   0  0  2  0  0  0  0  0  0  0  0  0
  -27.2356  -35.1718   22.6694 C   0  0  0  0  0  0  0  0  0  0  0  0
  -25.8356  -11.5487   20.2020 N   0  0  0  0  0  0  0  0  0  0  0  0
  -26.3063  -12.8066   20.2506 N   0  0  0  0  0  0  0  0  0  0  0  0
  -25.1315  -32.7363   21.0863 N   0  0  0  0  0  0  0  0  0  0  0  0
  -30.0970  -13.2857   20.1532 N   0  0  0  0  0  0  0  0  0  0  0  0
  -25.7639  -15.0002   20.9609 N   0  0  0  0  0  0  0  0  0  0  0  0
  -22.1213  -12.5976   22.1248 N   0  0  0  0  0  0  0  0  0  0  0  0
  -30.3228  -21.1096   19.4590 N   0  0  0  0  0  0  0  0  0  0  0  0
  -24.5935  -33.5964   17.6657 N   0  0  0  0  0  0  0  0  0  0  0  0
  -28.1915  -24.0189   18.9013 N   0  0  0  0  0  0  0  0  0  0  0  0
  -25.4532  -34.1486   24.1458 N   0  0  0  0  0  0  0  0  0  0  0  0
  -30.5625  -15.0967   21.6013 N   0  0  0  0  0  0  0  0  0  0  0  0
  -23.9886  -32.2971   26.8835 N   0  3  0  0  0  0  0  0  0  0  0  0
  -23.0452  -14.6964   22.1241 O   0  0  0  0  0  0  0  0  0  0  0  0
  -26.3828  -32.5823   18.7577 O   0  0  0  0  0  0  0  0  0  0  0  0
  -24.4497  -34.9122   21.5732 O   0  0  0  0  0  0  0  0  0  0  0  0
  -28.2649  -21.7779   20.3719 O   0  0  0  0  0  0  0  0  0  0  0  0
  -29.0707  -25.3308   20.6085 O   0  0  0  0  0  0  0  0  0  0  0  0
  -26.0920  -32.1002   25.0251 O   0  0  0  0  0  0  0  0  0  0  0  0
  -32.0837  -14.4725   20.0034 O   0  0  0  0  0  0  0  0  0  0  0  0
  -21.3831   -7.1351   21.3174 O   0  0  0  0  0  0  0  0  0  0  0  0
  -26.8213  -26.8104   20.8016 O   0  0  0  0  0  0  0  0  0  1  0  0
  -18.8821   -6.3532   26.1689 F   0  0  0  0  0  0  0  0  0  0  0  0
  -21.8592   -4.8557   22.8074 F   0  0  0  0  0  0  0  0  0  0  0  0
  1  2  1  0  0  0  0
  1  5  2  0  0  0  0
  2  6  2  0  0  0  0
  3 12  2  0  0  0  0
  3 19  1  0  0  0  0
  4 13  1  0  0  0  0
  4 19  2  0  0  0  0
  5 21  1  0  0  0  0
  6 23  1  0  0  0  0
  7 14  2  0  0  0  0
  7 22  1  0  0  0  0
  8 10  2  0  0  0  0
  8 25  1  0  0  0  0
  9 11  1  0  0  0  0
  9 25  2  0  0  0  0
 10 26  1  0  0  0  0
 11 26  2  0  0  0  0
 12 27  1  0  0  0  0
 13 27  2  0  0  0  0
 14 28  1  0  0  0  0
 15 16  2  0  0  0  0
 15 29  1  0  0  0  0
 16 30  1  0  0  0  0
 17 24  1  0  0  0  0
 17 28  2  0  0  0  0
 18 30  2  0  0  0  0
 18 31  1  0  0  0  0
 19 32  1  0  0  0  0
 20 32  1  0  0  0  0
 20 33  2  0  0  0  0
 20 34  1  0  0  0  0
 21 23  2  0  0  0  0
 21 41  1  0  0  0  0
 22 24  2  0  0  0  0
 22 42  1  0  0  0  0
 23 50  1  0  0  0  0
 24 43  1  0  0  0  0
 25 58  1  0  0  0  0
 26 70  1  0  0  0  0
 27 83  1  0  0  0  0
 28 84  1  0  0  0  0
 29 31  2  0  0  0  0
 29 83  1  0  0  0  0
 30 85  1  0  0  0  0
 31 86  1  0  0  0  0
 32 64  2  0  0  0  0
 33 65  1  0  0  0  0
 33 68  1  0  0  0  0
 34 69  1  0  0  0  0
 34 76  2  0  0  0  0
 35 51  1  0  0  0  0
 35 71  1  0  0  0  0
 35 77  2  0  0  0  0
 36 61  1  0  0  0  0
 36 66  1  0  0  0  0
 36 78  2  0  0  0  0
 37 59  1  0  0  0  0
 37 70  1  0  0  0  0
 37 79  2  0  0  0  0
 38 60  1  0  0  0  0
 38 72  1  0  0  0  0
 38 80  2  0  0  0  0
 39 62  1  0  0  0  0
 39 73  1  0  0  0  0
 39 81  2  0  0  0  0
 40 67  1  0  0  0  0
 40 74  1  0  0  0  0
 40 82  2  0  0  0  0
 41 44  1  0  0  0  0
 42 51  1  0  0  0  0
 43 66  1  0  0  0  0
 44 46  1  0  0  0  0
 45 47  1  0  0  0  0
 45 48  1  0  0  0  0
 46 50  1  0  0  0  0
 47 52  1  0  0  0  0
 48 67  1  0  0  0  0
 49 52  1  0  0  0  0
 49 67  1  0  0  0  0
 50 71  1  0  0  0  0
 51 66  1  0  0  0  0
 52 65  1  0  0  0  0
 53 62  1  0  0  0  0
 54 63  1  0  0  0  0
 55 63  1  0  0  0  0
 56 63  1  0  0  0  0
 57 75  1  0  0  0  0
 58 74  1  0  0  0  0
 59 72  1  0  0  0  0
 60 84  1  0  0  0  0
 61 63  1  0  0  0  0
 61 73  1  0  0  0  0
 62 75  1  0  0  0  0
 64 65  1  0  0  0  0
M  CHG  1  75   1
M  ISO  4  40 100  60 101  74 100  84 101
M  END
> <Batch ID>
0053

> <Smiles>
CNC(C)C(=O)NC(C(=O)N1Cc2cc([101O:1][101CH2:1]C(=O)NCC(=O)Nc3ccc(C[100NH:0][100C:0](=O)N4CCCC(n5nc(-c6ccc(Oc7ccc(F)cc7F)cc6)c(C(N)=O)c5N)C4)cc3)ccc2CC1C(=O)NC1CCCc2ccccc21)C(C)(C)C

> <Shape>
0.339

> <Color>
0.192

> <Negative vol penalty>
0.000

$$$$

  -OEChem-04042322433D

 84 92  0     1  0  0  0  0  0999 V2000
  -25.4678  -10.9958   20.9143 C   0  0  0  0  0  0  0  0  0  0  0  0
  -26.5899  -11.7799   20.6663 C   0  0  0  0  0  0  0  0  0  0  0  0
  -19.2163  -27.0817   19.7553 C   0  0  0  0  0  0  0  0  0  0  0  0
  -20.6303  -25.1587   20.1289 C   0  0  0  0  0  0  0  0  0  0  0  0
  -24.1923  -11.5361   20.7556 C   0  0  0  0  0  0  0  0  0  0  0  0
  -26.4371  -13.1046   20.2583 C   0  0  0  0  0  0  0  0  0  0  0  0
  -29.5810  -19.5169   20.8194 C   0  0  0  0  0  0  0  0  0  0  0  0
  -30.6826  -30.2615   18.1835 C   0  0  0  0  0  0  0  0  0  0  0  0
  -18.4047  -26.3214   18.9133 C   0  0  0  0  0  0  0  0  0  0  0  0
  -19.8187  -24.3983   19.2869 C   0  0  0  0  0  0  0  0  0  0  0  0
  -30.0387  -20.5654   20.0226 C   0  0  0  0  0  0  0  0  0  0  0  0
  -17.9137  -21.8547   17.5209 C   0  0  0  0  0  0  0  0  0  0  0  0
  -17.5548  -20.5757   17.9462 C   0  0  0  0  0  0  0  0  0  0  0  0
  -31.2125  -29.8632   16.9562 C   0  0  0  0  0  0  0  0  0  0  0  0
  -27.7871  -21.4154   19.8583 C   0  0  0  0  0  0  0  0  0  0  0  0
  -30.5287  -27.9494   18.8674 C   0  0  0  0  0  0  0  0  0  0  0  0
  -16.4838  -21.5237   19.8933 C   0  0  0  0  0  0  0  0  0  0  0  0
  -20.3291  -26.5003   20.3630 C   0  0  0  0  0  0  0  0  0  0  0  0
  -21.0296  -27.4534   22.6233 C   0  0  0  0  0  0  0  0  0  0  0  0
  -24.0239  -12.8709   20.3548 C   0  0  0  0  0  0  0  0  0  0  0  0
  -28.2190  -19.4034   21.1331 C   0  0  0  0  0  0  0  0  0  0  0  0
  -25.1582  -13.6628   20.0928 C   0  0  0  0  0  0  0  0  0  0  0  0
  -27.3150  -20.3659   20.6613 C   0  0  0  0  0  0  0  0  0  0  0  0
  -30.3407  -29.3046   19.1391 C   0  0  0  0  0  0  0  0  0  0  0  0
  -31.0585  -27.5511   17.6401 C   0  0  0  0  0  0  0  0  0  0  0  0
  -18.7059  -24.9797   18.6792 C   0  0  0  0  0  0  0  0  0  0  0  0
  -29.1413  -21.5132   19.5395 C   0  0  0  0  0  0  0  0  0  0  0  0
  -17.5577  -22.9683   18.2818 C   0  0  0  0  0  0  0  0  0  0  0  0
  -16.8398  -20.4102   19.1324 C   0  0  0  0  0  0  0  0  0  0  0  0
  -16.8427  -22.8027   19.4680 C   0  0  0  0  0  0  0  0  0  0  0  0
  -31.4004  -28.5080   16.6845 C   0  0  0  0  0  0  0  0  0  0  0  0
  -21.1682  -27.2854   21.2324 C   0  0  0  0  0  0  0  0  0  0  0  0
  -22.0666  -28.2830   22.9738 C   0  0  0  0  0  0  0  0  0  0  0  0
  -20.0511  -26.9084   23.5183 C   0  0  0  0  0  0  0  0  0  0  0  0
  -25.9609  -17.2375   20.5727 C   0  0  0  0  0  0  0  0  0  0  0  0
  -24.1930  -19.1502   22.5062 C   0  0  0  0  0  0  0  0  0  0  0  0
  -30.9390  -25.1106   18.2515 C   0  0  0  0  0  0  0  0  0  0  0  0
  -23.6817  -22.2546   23.8282 C   0  0  0  0  0  0  0  0  0  0  0  0
  -27.3419  -29.2449   20.5036 C   0  0  0  0  0  0  0  0  0  0  0  0
  -22.6250  -13.3967   20.1511 C   0  0  0  0  0  0  0  0  0  0  0  0
  -27.7452  -18.2814   22.0158 C   0  0  0  0  0  0  0  0  0  0  0  0
  -25.8458  -20.3005   20.9862 C   0  0  0  0  0  0  0  0  0  0  0  0
  -22.5515  -14.9197   20.0778 C   0  0  0  0  0  0  0  0  0  0  0  0
  -24.8396  -31.7623   21.2096 C   0  0  0  0  0  0  0  0  0  0  0  0
  -23.6349  -15.4625   19.1512 C   0  0  0  0  0  0  0  0  0  0  0  0
  -23.5946  -30.9007   21.4285 C   0  0  0  0  0  0  0  0  0  0  0  0
  -25.7181  -31.1925   20.0998 C   0  0  0  0  0  0  0  0  0  0  0  0
  -24.8860  -28.9119   20.5246 C   0  0  0  0  0  0  0  0  0  0  0  0
  -25.0335  -15.1113   19.6727 C   0  0  1  0  0  0  0  0  0  0  0  0
  -26.2603  -17.9748   21.8473 C   0  0  1  0  0  0  0  0  0  0  0  0
  -23.9678  -29.4229   21.6497 C   0  0  2  0  0  0  0  0  0  0  0  0
  -22.1345  -23.5187   25.3467 C   0  0  0  0  0  0  0  0  0  0  0  0
  -22.0959  -19.2390   20.2916 C   0  0  0  0  0  0  0  0  0  0  0  0
  -21.0708  -21.2151   21.4373 C   0  0  0  0  0  0  0  0  0  0  0  0
  -21.1648  -19.0110   22.6015 C   0  0  0  0  0  0  0  0  0  0  0  0
  -25.8679  -22.8875   25.7199 C   0  0  0  0  0  0  0  0  0  0  0  0
  -29.7746  -29.7308   20.4513 C   0  0  0  0  0  0  0  0  0  0  0  0
  -31.2842  -23.7795   17.5935 C   0  0  0  0  0  0  0  0  0  0  0  0
  -30.9834  -22.5796   18.4787 C   0  0  0  0  0  0  0  0  0  1  0  0
  -23.2919  -20.3430   22.2959 C   0  0  1  0  0  0  0  0  0  0  0  0
  -23.4207  -22.7128   25.2517 C   0  0  2  0  0  0  0  0  0  0  0  0
  -21.9332  -19.9525   21.6487 C   0  0  0  0  0  0  0  0  0  0  0  0
  -22.2109  -27.9545   20.7335 N   0  0  0  0  0  0  0  0  0  0  0  0
  -22.7369  -28.5512   21.8167 N   0  0  0  0  0  0  0  0  0  0  0  0
  -25.4304  -19.1812   21.8476 N   0  0  0  0  0  0  0  0  0  0  0  0
  -26.0527  -29.7891   20.3803 N   0  0  0  0  0  0  0  0  0  0  0  0
  -22.4613  -28.8020   24.1559 N   0  0  0  0  0  0  0  0  0  0  0  0
  -19.0551  -26.0746   22.9919 N   0  0  0  0  0  0  0  0  0  0  0  0
  -31.2353  -26.1684   17.3959 N   0  0  0  0  0  0  0  0  0  0  0  0
  -25.4012  -15.9886   20.7634 N   0  0  0  0  0  0  0  0  0  0  0  0
  -23.1693  -20.9960   23.5947 N   0  0  0  0  0  0  0  0  0  0  0  0
  -28.3920  -30.1411   20.3464 N   0  0  0  0  0  0  0  0  0  0  0  0
  -24.5447  -23.5627   25.7367 N   0  3  0  0  0  0  0  0  0  0  0  0
  -20.0501  -27.1666   24.7458 O   0  0  0  0  0  0  0  0  0  0  0  0
  -26.2174  -17.7634   19.4960 O   0  0  0  0  0  0  0  0  0  0  0  0
  -23.8159  -18.2283   23.2339 O   0  0  0  0  0  0  0  0  0  0  0  0
  -30.4680  -25.1773   19.3820 O   0  0  0  0  0  0  0  0  0  0  0  0
  -24.2770  -22.9458   23.0046 O   0  0  0  0  0  0  0  0  0  0  0  0
  -27.5425  -28.0490   20.7416 O   0  0  0  0  0  0  0  0  0  0  0  0
  -17.9140  -24.2375   17.8578 O   0  0  0  0  0  0  0  0  0  0  0  0
  -29.5853  -22.5374   18.7611 O   0  0  0  0  0  0  0  0  0  1  0  0
  -16.4939  -19.1820   19.5399 F   0  0  0  0  0  0  0  0  0  0  0  0
  -16.4969  -23.8688   20.2027 F   0  0  0  0  0  0  0  0  0  0  0  0
  -32.0591  -28.0592   15.1517 Cl  0  0  0  0  0  0  0  0  0  0  0  0
  1  2  1  0  0  0  0
  1  5  2  0  0  0  0
  2  6  2  0  0  0  0
  3  9  2  0  0  0  0
  3 18  1  0  0  0  0
  4 10  1  0  0  0  0
  4 18  2  0  0  0  0
  5 20  1  0  0  0  0
  6 22  1  0  0  0  0
  7 11  2  0  0  0  0
  7 21  1  0  0  0  0
  8 14  2  0  0  0  0
  8 24  1  0  0  0  0
  9 26  1  0  0  0  0
 10 26  2  0  0  0  0
 11 27  1  0  0  0  0
 12 13  2  0  0  0  0
 12 28  1  0  0  0  0
 13 29  1  0  0  0  0
 14 31  1  0  0  0  0
 15 23  1  0  0  0  0
 15 27  2  0  0  0  0
 16 24  2  0  0  0  0
 16 25  1  0  0  0  0
 17 29  2  0  0  0  0
 17 30  1  0  0  0  0
 18 32  1  0  0  0  0
 19 32  1  0  0  0  0
 19 33  2  0  0  0  0
 19 34  1  0  0  0  0
 20 22  2  0  0  0  0
 20 40  1  0  0  0  0
 21 23  2  0  0  0  0
 21 41  1  0  0  0  0
 22 49  1  0  0  0  0
 23 42  1  0  0  0  0
 24 57  1  0  0  0  0
 25 31  2  0  0  0  0
 25 69  1  0  0  0  0
 26 80  1  0  0  0  0
 27 81  1  0  0  0  0
 28 30  2  0  0  0  0
 28 80  1  0  0  0  0
 29 82  1  0  0  0  0
 30 83  1  0  0  0  0
 31 84  1  0  0  0  0
 32 63  2  0  0  0  0
 33 64  1  0  0  0  0
 33 67  1  0  0  0  0
 34 68  1  0  0  0  0
 34 74  2  0  0  0  0
 35 50  1  0  0  0  0
 35 70  1  0  0  0  0
 35 75  2  0  0  0  0
 36 60  1  0  0  0  0
 36 65  1  0  0  0  0
 36 76  2  0  0  0  0
 37 58  1  0  0  0  0
 37 69  1  0  0  0  0
 37 77  2  0  0  0  0
 38 61  1  0  0  0  0
 38 71  1  0  0  0  0
 38 78  2  0  0  0  0
 39 66  1  0  0  0  0
 39 72  1  0  0  0  0
 39 79  2  0  0  0  0
 40 43  1  0  0  0  0
 41 50  1  0  0  0  0
 42 65  1  0  0  0  0
 43 45  1  0  0  0  0
 44 46  1  0  0  0  0
 44 47  1  0  0  0  0
 45 49  1  0  0  0  0
 46 51  1  0  0  0  0
 47 66  1  0  0  0  0
 48 51  1  0  0  0  0
 48 66  1  0  0  0  0
 49 70  1  0  0  0  0
 50 65  1  0  0  0  0
 51 64  1  0  0  0  0
 52 61  1  0  0  0  0
 53 62  1  0  0  0  0
 54 62  1  0  0  0  0
 55 62  1  0  0  0  0
 56 73  1  0  0  0  0
 57 72  1  0  0  0  0
 58 59  1  0  0  0  0
 59 81  1  0  0  0  0
 60 62  1  0  0  0  0
 60 71  1  0  0  0  0
 61 73  1  0  0  0  0
 63 64  1  0  0  0  0
M  CHG  1  73   1
M  ISO  4  39 100  59 101  72 100  81 101
M  END
> <Batch ID>
0053

> <Smiles>
CNC(C)C(=O)NC(C(=O)N1Cc2cc([101O:1][101CH2:1]CC(=O)Nc3cc(C[100NH:0][100C:0](=O)N4CCCC(n5nc(-c6ccc(Oc7ccc(F)cc7F)cc6)c(C(N)=O)c5N)C4)ccc3Cl)ccc2CC1C(=O)NC1CCCc2ccccc21)C(C)(C)C

> <Shape>
0.203

> <Color>
0.077

> <Negative vol penalty>
0.000

$$$$

  -OEChem-04042322433D

 89 97  0     1  0  0  0  0  0999 V2000
  -16.6416  -29.0787   24.0773 C   0  0  0  0  0  0  0  0  0  0  0  0
  -17.0923  -28.3317   22.9936 C   0  0  0  0  0  0  0  0  0  0  0  0
  -29.0704  -20.3288   17.0965 C   0  0  0  0  0  0  0  0  0  0  0  0
  -22.4005  -13.0109   23.1488 C   0  0  0  0  0  0  0  0  0  0  0  0
  -21.8407  -14.0134   21.0230 C   0  0  0  0  0  0  0  0  0  0  0  0
  -17.3598  -30.1971   24.4985 C   0  0  0  0  0  0  0  0  0  0  0  0
  -18.2609  -28.7033   22.3298 C   0  0  0  0  0  0  0  0  0  0  0  0
  -22.3887  -24.9705   19.7738 C   0  0  0  0  0  0  0  0  0  0  0  0
  -28.1486  -20.3681   16.0504 C   0  0  0  0  0  0  0  0  0  0  0  0
  -29.1277  -19.2149   17.9342 C   0  0  0  0  0  0  0  0  0  0  0  0
  -21.1343  -13.3358   23.6354 C   0  0  0  0  0  0  0  0  0  0  0  0
  -20.5745  -14.3382   21.5097 C   0  0  0  0  0  0  0  0  0  0  0  0
  -22.5921  -24.5578   18.4577 C   0  0  0  0  0  0  0  0  0  0  0  0
  -17.6343  -12.7611   22.0468 C   0  0  0  0  0  0  0  0  0  0  0  0
  -16.5392  -12.5047   21.2218 C   0  0  0  0  0  0  0  0  0  0  0  0
  -24.2512  -26.2865   18.1783 C   0  0  0  0  0  0  0  0  0  0  0  0
  -15.9707  -14.8528   21.2468 C   0  0  0  0  0  0  0  0  0  0  0  0
  -22.7537  -13.3498   21.8426 C   0  0  0  0  0  0  0  0  0  0  0  0
  -24.4415  -11.8304   20.6806 C   0  0  0  0  0  0  0  0  0  0  0  0
  -18.5430  -30.5770   23.8455 C   0  0  0  0  0  0  0  0  0  0  0  0
  -23.1084  -26.0532   20.2995 C   0  0  0  0  0  0  0  0  0  0  0  0
  -18.9949  -29.8286   22.7418 C   0  0  0  0  0  0  0  0  0  0  0  0
  -24.0569  -26.7094   19.5021 C   0  0  0  0  0  0  0  0  0  0  0  0
  -27.2840  -19.2935   15.8420 C   0  0  0  0  0  0  0  0  0  0  0  0
  -27.3413  -18.1796   16.6797 C   0  0  0  0  0  0  0  0  0  0  0  0
  -28.2631  -18.1404   17.7257 C   0  0  0  0  0  0  0  0  0  0  0  0
  -20.2213  -13.9994   22.8159 C   0  0  0  0  0  0  0  0  0  0  0  0
  -23.5214  -25.2176   17.6588 C   0  0  0  0  0  0  0  0  0  0  0  0
  -17.8975  -14.0633   22.4719 C   0  0  0  0  0  0  0  0  0  0  0  0
  -15.7074  -13.5505   20.8217 C   0  0  0  0  0  0  0  0  0  0  0  0
  -17.0657  -15.1091   22.0719 C   0  0  0  0  0  0  0  0  0  0  0  0
  -24.0617  -13.0150   21.3395 C   0  0  0  0  0  0  0  0  0  0  0  0
  -25.7769  -12.0017   20.4087 C   0  0  0  0  0  0  0  0  0  0  0  0
  -25.3272  -22.0718   15.0436 C   0  0  0  0  0  0  0  0  0  0  0  0
  -24.4072  -23.0424   14.9519 C   0  0  0  0  0  0  0  0  0  0  0  0
  -23.6574  -10.6781   20.3442 C   0  0  0  0  0  0  0  0  0  0  0  0
  -26.1943  -21.7547   13.8722 C   0  0  0  0  0  0  0  0  0  0  0  0
  -22.3350  -28.9115   21.4551 C   0  0  0  0  0  0  0  0  0  0  0  0
  -25.4978  -29.0497   22.1621 C   0  0  0  0  0  0  0  0  0  0  0  0
  -28.6654  -27.9687   21.4955 C   0  0  0  0  0  0  0  0  0  0  0  0
  -29.2040  -16.8401   19.6675 C   0  0  0  0  0  0  0  0  0  0  0  0
  -19.2598  -31.8210   24.3074 C   0  0  0  0  0  0  0  0  0  0  0  0
  -22.8965  -26.4691   21.7293 C   0  0  0  0  0  0  0  0  0  0  0  0
  -24.8698  -27.8644   20.0252 C   0  0  0  0  0  0  0  0  0  0  0  0
  -20.6899  -31.9295   23.7848 C   0  0  0  0  0  0  0  0  0  0  0  0
  -29.6764  -14.2416   22.0553 C   0  0  0  0  0  0  0  0  0  0  0  0
  -20.7378  -31.6190   22.2921 C   0  0  0  0  0  0  0  0  0  0  0  0
  -28.3267  -13.5206   22.0783 C   0  0  0  0  0  0  0  0  0  0  0  0
  -29.5107  -15.7500   21.8795 C   0  0  0  0  0  0  0  0  0  0  0  0
  -27.3433  -15.4338   20.7517 C   0  0  0  0  0  0  0  0  0  0  0  0
  -20.2714  -30.1854   22.0115 C   0  0  1  0  0  0  0  0  0  0  0  0
  -23.3145  -27.9111   22.0004 C   0  0  1  0  0  0  0  0  0  0  0  0
  -27.4617  -13.9049   20.8619 C   0  0  2  0  0  0  0  0  0  0  0  0
  -31.0484  -28.2899   22.2134 C   0  0  0  0  0  0  0  0  0  0  0  0
  -25.5894  -31.7047   20.6613 C   0  0  0  0  0  0  0  0  0  0  0  0
  -28.0834  -31.4972   20.5875 C   0  0  0  0  0  0  0  0  0  0  0  0
  -26.9115  -31.6599   22.7837 C   0  0  0  0  0  0  0  0  0  0  0  0
  -27.5030  -20.0501   12.6646 C   0  0  0  0  0  0  0  0  0  0  0  0
  -28.9253  -25.1340   22.3055 C   0  0  0  0  0  0  0  0  0  0  0  0
  -26.1311  -14.6959   15.6275 C   0  0  0  0  0  0  0  0  0  0  0  0
  -27.8059  -16.1999   14.5627 C   0  0  0  0  0  0  0  0  0  0  0  0
  -26.3016  -19.3617   14.7087 C   0  0  0  0  0  0  0  0  0  0  0  0
  -26.4117  -17.0290   16.4520 C   0  0  0  0  0  0  0  0  0  0  0  0
  -23.5143  -23.4353   16.0843 C   0  0  0  0  0  0  0  0  0  1  0  0
  -26.7349  -29.5258   21.4397 C   0  0  1  0  0  0  0  0  0  0  0  0
  -29.7760  -27.4802   22.4080 C   0  0  2  0  0  0  0  0  0  0  0  0
  -26.8133  -31.0764   21.3573 C   0  0  0  0  0  0  0  0  0  0  0  0
  -25.0741  -13.8753   21.4780 N   0  0  0  0  0  0  0  0  0  0  0  0
  -26.1032  -13.2305   20.9024 N   0  0  0  0  0  0  0  0  0  0  0  0
  -24.6220  -28.2377   21.4276 N   0  0  0  0  0  0  0  0  0  0  0  0
  -28.6838  -16.0385   20.7056 N   0  0  0  0  0  0  0  0  0  0  0  0
  -26.6922  -11.2195   19.7981 N   0  0  0  0  0  0  0  0  0  0  0  0
  -22.3010  -10.6669   20.6970 N   0  0  0  0  0  0  0  0  0  0  0  0
  -28.3391  -17.0188   18.5884 N   0  0  0  0  0  0  0  0  0  0  0  0
  -21.3198  -29.2409   22.3328 N   0  0  0  0  0  0  0  0  0  0  0  0
  -27.8678  -28.9055   22.1181 N   0  0  0  0  0  0  0  0  0  0  0  0
  -26.6275  -20.4301   13.7658 N   0  0  0  0  0  0  0  0  0  0  0  0
  -30.0828  -26.0486   22.1299 N   0  3  0  0  0  0  0  0  0  0  0  0
  -27.0777  -15.8508   15.8361 N   0  3  0  0  0  0  0  0  0  0  0  0
  -24.1488   -9.6810   19.7631 O   0  0  0  0  0  0  0  0  0  0  0  0
  -26.5062  -22.6480   13.0832 O   0  0  0  0  0  0  0  0  0  0  0  0
  -22.4897  -29.3531   20.3225 O   0  0  0  0  0  0  0  0  0  0  0  0
  -25.3188  -29.3800   23.3370 O   0  0  0  0  0  0  0  0  0  0  0  0
  -28.5222  -27.5628   20.3443 O   0  0  0  0  0  0  0  0  0  0  0  0
  -30.3438  -17.3094   19.7190 O   0  0  0  0  0  0  0  0  0  0  0  0
  -18.9856  -14.3163   23.2903 O   0  0  0  0  0  0  0  0  0  0  0  0
  -23.7214  -24.8172   16.3737 O   0  0  0  0  0  0  0  0  0  1  0  0
  -14.6567  -13.3044   20.0282 F   0  0  0  0  0  0  0  0  0  0  0  0
  -17.3143  -16.3624   22.4761 F   0  0  0  0  0  0  0  0  0  0  0  0
  1  2  1  0  0  0  0
  1  6  2  0  0  0  0
  2  7  2  0  0  0  0
  3  9  2  0  0  0  0
  3 10  1  0  0  0  0
  4 11  2  0  0  0  0
  4 18  1  0  0  0  0
  5 12  1  0  0  0  0
  5 18  2  0  0  0  0
  6 20  1  0  0  0  0
  7 22  1  0  0  0  0
  8 13  2  0  0  0  0
  8 21  1  0  0  0  0
  9 24  1  0  0  0  0
 10 26  2  0  0  0  0
 11 27  1  0  0  0  0
 12 27  2  0  0  0  0
 13 28  1  0  0  0  0
 14 15  2  0  0  0  0
 14 29  1  0  0  0  0
 15 30  1  0  0  0  0
 16 23  1  0  0  0  0
 16 28  2  0  0  0  0
 17 30  2  0  0  0  0
 17 31  1  0  0  0  0
 18 32  1  0  0  0  0
 19 32  1  0  0  0  0
 19 33  2  0  0  0  0
 19 36  1  0  0  0  0
 20 22  2  0  0  0  0
 20 42  1  0  0  0  0
 21 23  2  0  0  0  0
 21 43  1  0  0  0  0
 22 51  1  0  0  0  0
 23 44  1  0  0  0  0
 24 25  2  0  0  0  0
 24 62  1  0  0  0  0
 25 26  1  0  0  0  0
 25 63  1  0  0  0  0
 26 74  1  0  0  0  0
 27 86  1  0  0  0  0
 28 87  1  0  0  0  0
 29 31  2  0  0  0  0
 29 86  1  0  0  0  0
 30 88  1  0  0  0  0
 31 89  1  0  0  0  0
 32 68  2  0  0  0  0
 33 69  1  0  0  0  0
 33 72  1  0  0  0  0
 34 35  2  0  0  0  0
 34 37  1  0  0  0  0
 35 64  1  0  0  0  0
 36 73  1  0  0  0  0
 36 80  2  0  0  0  0
 37 77  1  0  0  0  0
 37 81  2  0  0  0  0
 38 52  1  0  0  0  0
 38 75  1  0  0  0  0
 38 82  2  0  0  0  0
 39 65  1  0  0  0  0
 39 70  1  0  0  0  0
 39 83  2  0  0  0  0
 40 66  1  0  0  0  0
 40 76  1  0  0  0  0
 40 84  2  0  0  0  0
 41 71  1  0  0  0  0
 41 74  1  0  0  0  0
 41 85  2  0  0  0  0
 42 45  1  0  0  0  0
 43 52  1  0  0  0  0
 44 70  1  0  0  0  0
 45 47  1  0  0  0  0
 46 48  1  0  0  0  0
 46 49  1  0  0  0  0
 47 51  1  0  0  0  0
 48 53  1  0  0  0  0
 49 71  1  0  0  0  0
 50 53  1  0  0  0  0
 50 71  1  0  0  0  0
 51 75  1  0  0  0  0
 52 70  1  0  0  0  0
 53 69  1  0  0  0  0
 54 66  1  0  0  0  0
 55 67  1  0  0  0  0
 56 67  1  0  0  0  0
 57 67  1  0  0  0  0
 58 77  1  0  0  0  0
 59 78  1  0  0  0  0
 60 79  1  0  0  0  0
 61 79  1  0  0  0  0
 62 77  1  0  0  0  0
 63 79  1  0  0  0  0
 64 87  1  0  0  0  0
 65 67  1  0  0  0  0
 65 76  1  0  0  0  0
 66 78  1  0  0  0  0
 68 69  1  0  0  0  0
M  CHG  2  78   1  79   1
M  ISO  4  41 100  64 101  74 100  87 101
M  END
> <Batch ID>
0053

> <Smiles>
CNC(C)C(=O)NC(C(=O)N1Cc2cc([101O:1][101CH2:1]C=CC(=O)N(C)Cc3cccc([100NH:0][100C:0](=O)N4CCCC(n5nc(-c6ccc(Oc7ccc(F)cc7F)cc6)c(C(N)=O)c5N)C4)c3CN(C)C)ccc2CC1C(=O)NC1CCCc2ccccc21)C(C)(C)C

> <Shape>
0.220

> <Color>
0.084

> <Negative vol penalty>
0.000

$$$$

  -OEChem-04042322433D

 91100  0     1  0  0  0  0  0999 V2000
  -17.4285  -26.4491   25.8028 C   0  0  0  0  0  0  0  0  0  0  0  0
  -18.6825  -26.4027   25.2022 C   0  0  0  0  0  0  0  0  0  0  0  0
  -23.0715  -10.0426   21.3973 C   0  0  0  0  0  0  0  0  0  0  0  0
  -23.8392  -10.8592   23.5376 C   0  0  0  0  0  0  0  0  0  0  0  0
  -16.5627  -27.5062   25.5255 C   0  0  0  0  0  0  0  0  0  0  0  0
  -19.0710  -27.4128   24.3229 C   0  0  0  0  0  0  0  0  0  0  0  0
  -23.8037  -29.0064   25.1638 C   0  0  0  0  0  0  0  0  0  0  0  0
  -22.3175   -9.0620   22.0418 C   0  0  0  0  0  0  0  0  0  0  0  0
  -23.0852   -9.8786   24.1822 C   0  0  0  0  0  0  0  0  0  0  0  0
  -24.8397  -28.2038   24.6882 C   0  0  0  0  0  0  0  0  0  0  0  0
  -22.8590   -6.0598   23.4971 C   0  0  0  0  0  0  0  0  0  0  0  0
  -22.9128   -4.7626   22.9873 C   0  0  0  0  0  0  0  0  0  0  0  0
  -30.6819  -19.8635   19.2828 C   0  0  0  0  0  0  0  0  0  0  0  0
  -29.5999  -18.3344   20.8085 C   0  0  0  0  0  0  0  0  0  0  0  0
  -25.0830  -29.6592   22.7799 C   0  0  0  0  0  0  0  0  0  0  0  0
  -31.2222  -17.5096   19.2196 C   0  0  0  0  0  0  0  0  0  0  0  0
  -20.5288   -4.8163   22.5991 C   0  0  0  0  0  0  0  0  0  0  0  0
  -23.8324  -10.9412   22.1451 C   0  0  0  0  0  0  0  0  0  0  0  0
  -29.7804  -19.6287   20.3209 C   0  0  0  0  0  0  0  0  0  0  0  0
  -24.1979  -13.2540   21.1326 C   0  0  0  0  0  0  0  0  0  0  0  0
  -16.9445  -28.5348   24.6498 C   0  0  0  0  0  0  0  0  0  0  0  0
  -23.3915  -30.1372   24.4443 C   0  0  0  0  0  0  0  0  0  0  0  0
  -18.2090  -28.4840   24.0325 C   0  0  0  0  0  0  0  0  0  0  0  0
  -24.0432  -30.4760   23.2498 C   0  0  0  0  0  0  0  0  0  0  0  0
  -31.4028  -18.8039   18.7321 C   0  0  0  0  0  0  0  0  0  0  0  0
  -30.3208  -17.2748   20.2579 C   0  0  0  0  0  0  0  0  0  0  0  0
  -22.3243   -8.9800   23.4343 C   0  0  0  0  0  0  0  0  0  0  0  0
  -25.4776  -28.5285   23.4946 C   0  0  0  0  0  0  0  0  0  0  0  0
  -21.6401   -6.7353   23.5580 C   0  0  0  0  0  0  0  0  0  0  0  0
  -21.7477   -4.1408   22.5383 C   0  0  0  0  0  0  0  0  0  0  0  0
  -20.4750   -6.1135   23.1089 C   0  0  0  0  0  0  0  0  0  0  0  0
  -24.6120  -11.9540   21.4799 C   0  0  0  0  0  0  0  0  0  0  0  0
  -25.2960  -13.8135   20.5262 C   0  0  0  0  0  0  0  0  0  0  0  0
  -29.7513  -21.7400   21.4551 C   0  0  0  0  0  0  0  0  0  0  0  0
  -29.0153  -20.7519   20.9049 C   0  0  0  0  0  0  0  0  0  0  0  0
  -27.5475  -20.8069   20.9389 C   0  0  0  0  0  0  0  0  0  0  0  0
  -22.9339  -13.8981   21.3398 C   0  0  0  0  0  0  0  0  0  0  0  0
  -26.7619  -19.9945   20.2120 C   0  0  0  0  0  0  0  0  0  0  0  0
  -20.6865  -31.0390   23.0394 C   0  0  0  0  0  0  0  0  0  0  0  0
  -22.3010  -33.8168   22.5924 C   0  0  0  0  0  0  0  0  0  0  0  0
  -27.1262  -25.5326   22.2886 C   0  0  0  0  0  0  0  0  0  0  0  0
  -25.3072  -35.4086   22.3175 C   0  0  0  0  0  0  0  0  0  0  0  0
  -30.7725  -14.7971   20.3177 C   0  0  0  0  0  0  0  0  0  0  0  0
  -15.9562  -29.6323   24.3443 C   0  0  0  0  0  0  0  0  0  0  0  0
  -22.2902  -31.0077   24.9845 C   0  0  0  0  0  0  0  0  0  0  0  0
  -23.6520  -31.6908   22.4500 C   0  0  0  0  0  0  0  0  0  0  0  0
  -29.1744  -22.9744   22.0901 C   0  0  0  0  0  0  0  0  0  0  0  0
  -26.9323  -21.8526   21.8459 C   0  0  0  0  0  0  0  0  0  0  0  0
  -16.5896  -30.8580   23.6910 C   0  0  0  0  0  0  0  0  0  0  0  0
  -29.6269  -11.7090   18.9656 C   0  0  0  0  0  0  0  0  0  0  0  0
  -17.5254  -30.4375   22.5621 C   0  0  0  0  0  0  0  0  0  0  0  0
  -28.1860  -11.6044   19.4706 C   0  0  0  0  0  0  0  0  0  0  0  0
  -30.5483  -12.3419   20.0069 C   0  0  0  0  0  0  0  0  0  0  0  0
  -28.6531  -13.5306   21.0386 C   0  0  0  0  0  0  0  0  0  0  0  0
  -18.6762  -29.5738   23.0923 C   0  0  1  0  0  0  0  0  0  0  0  0
  -21.6092  -31.8468   23.9077 C   0  0  1  0  0  0  0  0  0  0  0  0
  -27.6746  -12.9586   19.9998 C   0  0  2  0  0  0  0  0  0  0  0  0
  -27.6957  -23.1753   21.7456 C   0  0  1  0  0  0  0  0  0  0  0  0
  -32.3663  -19.0542   17.6215 C   0  0  0  0  0  0  0  0  0  0  0  0
  -25.2666  -20.0788   20.2717 C   0  0  0  0  0  0  0  0  0  0  0  0
  -27.3325  -18.9535   19.2970 C   0  0  0  0  0  0  0  0  0  0  0  0
  -26.3066  -37.6751   21.9159 C   0  0  0  0  0  0  0  0  0  0  0  0
  -21.6266  -33.5858   19.6256 C   0  0  0  0  0  0  0  0  0  0  0  0
  -23.4001  -35.2907   19.1611 C   0  0  0  0  0  0  0  0  0  0  0  0
  -21.4280  -35.8955   20.5638 C   0  0  0  0  0  0  0  0  0  0  0  0
  -26.6634  -35.4047   24.9480 C   0  0  0  0  0  0  0  0  0  0  0  0
  -26.4411  -26.3587   23.3562 C   0  0  0  0  0  0  0  0  0  1  0  0
  -23.2035  -34.3673   21.5147 C   0  0  1  0  0  0  0  0  0  0  0  0
  -25.8386  -36.6759   22.9624 C   0  0  2  0  0  0  0  0  0  0  0  0
  -22.4209  -34.7608   20.2302 C   0  0  0  0  0  0  0  0  0  0  0  0
  -25.8744  -11.7025   21.1235 N   0  0  0  0  0  0  0  0  0  0  0  0
  -26.2631  -12.8521   20.5460 N   0  0  0  0  0  0  0  0  0  0  0  0
  -22.5654  -32.5068   23.0165 N   0  0  0  0  0  0  0  0  0  0  0  0
  -30.0022  -13.6234   20.4589 N   0  0  0  0  0  0  0  0  0  0  0  0
  -25.5188  -15.0292   19.9833 N   0  0  0  0  0  0  0  0  0  0  0  0
  -21.9145  -13.1793   21.9789 N   0  0  0  0  0  0  0  0  0  0  0  0
  -30.1368  -15.9597   20.7523 N   0  0  0  0  0  0  0  0  0  0  0  0
  -19.6757  -30.4015   23.7331 N   0  0  0  0  0  0  0  0  0  0  0  0
  -27.1085  -24.1812   22.5965 N   0  0  0  0  0  0  0  0  0  0  0  0
  -23.9432  -35.4671   22.1242 N   0  0  0  0  0  0  0  0  0  0  0  0
  -26.9878  -36.3593   23.8569 N   0  3  0  0  0  0  0  0  0  0  0  0
  -22.7096  -15.0706   20.9545 O   0  0  0  0  0  0  0  0  0  0  0  0
  -20.8767  -30.9984   21.8295 O   0  0  0  0  0  0  0  0  0  0  0  0
  -21.3993  -34.5256   23.0465 O   0  0  0  0  0  0  0  0  0  0  0  0
  -27.6282  -26.0296   21.2841 O   0  0  0  0  0  0  0  0  0  0  0  0
  -26.0303  -34.4629   22.0121 O   0  0  0  0  0  0  0  0  0  0  0  0
  -31.9015  -14.7766   19.8209 O   0  0  0  0  0  0  0  0  0  0  0  0
  -21.5885   -8.0234   24.0636 O   0  0  0  0  0  0  0  0  0  0  0  0
  -26.4887  -27.7465   23.0277 O   0  0  0  0  0  0  0  0  0  1  0  0
  -21.7998   -2.8957   22.0473 F   0  0  0  0  0  0  0  0  0  0  0  0
  -19.3013   -6.7578   23.1638 F   0  0  0  0  0  0  0  0  0  0  0  0
  1  2  1  0  0  0  0
  1  5  2  0  0  0  0
  2  6  2  0  0  0  0
  3  8  2  0  0  0  0
  3 18  1  0  0  0  0
  4  9  1  0  0  0  0
  4 18  2  0  0  0  0
  5 21  1  0  0  0  0
  6 23  1  0  0  0  0
  7 10  2  0  0  0  0
  7 22  1  0  0  0  0
  8 27  1  0  0  0  0
  9 27  2  0  0  0  0
 10 28  1  0  0  0  0
 11 12  2  0  0  0  0
 11 29  1  0  0  0  0
 12 30  1  0  0  0  0
 13 19  1  0  0  0  0
 13 25  2  0  0  0  0
 14 19  2  0  0  0  0
 14 26  1  0  0  0  0
 15 24  1  0  0  0  0
 15 28  2  0  0  0  0
 16 25  1  0  0  0  0
 16 26  2  0  0  0  0
 17 30  2  0  0  0  0
 17 31  1  0  0  0  0
 18 32  1  0  0  0  0
 19 35  1  0  0  0  0
 20 32  1  0  0  0  0
 20 33  2  0  0  0  0
 20 37  1  0  0  0  0
 21 23  2  0  0  0  0
 21 44  1  0  0  0  0
 22 24  2  0  0  0  0
 22 45  1  0  0  0  0
 23 55  1  0  0  0  0
 24 46  1  0  0  0  0
 25 59  1  0  0  0  0
 26 77  1  0  0  0  0
 27 88  1  0  0  0  0
 28 89  1  0  0  0  0
 29 31  2  0  0  0  0
 29 88  1  0  0  0  0
 30 90  1  0  0  0  0
 31 91  1  0  0  0  0
 32 71  2  0  0  0  0
 33 72  1  0  0  0  0
 33 75  1  0  0  0  0
 34 35  2  0  0  0  0
 34 47  1  0  0  0  0
 35 36  1  0  0  0  0
 36 38  2  0  0  0  0
 36 48  1  0  0  0  0
 37 76  1  0  0  0  0
 37 82  2  0  0  0  0
 38 60  1  0  0  0  0
 38 61  1  0  0  0  0
 39 56  1  0  0  0  0
 39 78  1  0  0  0  0
 39 83  2  0  0  0  0
 40 68  1  0  0  0  0
 40 73  1  0  0  0  0
 40 84  2  0  0  0  0
 41 67  1  0  0  0  0
 41 79  1  0  0  0  0
 41 85  2  0  0  0  0
 42 69  1  0  0  0  0
 42 80  1  0  0  0  0
 42 86  2  0  0  0  0
 43 74  1  0  0  0  0
 43 77  1  0  0  0  0
 43 87  2  0  0  0  0
 44 49  1  0  0  0  0
 45 56  1  0  0  0  0
 46 73  1  0  0  0  0
 47 58  1  0  0  0  0
 48 58  1  0  0  0  0
 49 51  1  0  0  0  0
 50 52  1  0  0  0  0
 50 53  1  0  0  0  0
 51 55  1  0  0  0  0
 52 57  1  0  0  0  0
 53 74  1  0  0  0  0
 54 57  1  0  0  0  0
 54 74  1  0  0  0  0
 55 78  1  0  0  0  0
 56 73  1  0  0  0  0
 57 72  1  0  0  0  0
 58 79  1  0  0  0  0
 62 69  1  0  0  0  0
 63 70  1  0  0  0  0
 64 70  1  0  0  0  0
 65 70  1  0  0  0  0
 66 81  1  0  0  0  0
 67 89  1  0  0  0  0
 68 70  1  0  0  0  0
 68 80  1  0  0  0  0
 69 81  1  0  0  0  0
 71 72  1  0  0  0  0
M  CHG  1  81   1
M  ISO  4  43 100  67 101  77 100  89 101
M  END
> <Batch ID>
0053

> <Smiles>
CNC(C)C(=O)NC(C(=O)N1Cc2cc([101O:1][101CH2:1]C(=O)NC3CC=C(c4cc(C)cc([100NH:0][100C:0](=O)N5CCCC(n6nc(-c7ccc(Oc8ccc(F)cc8F)cc7)c(C(N)=O)c6N)C5)c4)C(=C(C)C)C3)ccc2CC1C(=O)NC1CCCc2ccccc21)C(C)(C)C

> <Shape>
0.293

> <Color>
0.185

> <Negative vol penalty>
0.000

$$$$

  -OEChem-04042322433D

 92101  0     1  0  0  0  0  0999 V2000
  -18.8195  -28.9455   22.9959 C   0  0  0  0  0  0  0  0  0  0  0  0
  -22.2967  -14.7308   17.6448 C   0  0  0  0  0  0  0  0  0  0  0  0
  -21.9989  -16.0748   17.8454 C   0  0  0  0  0  0  0  0  0  0  0  0
  -18.6236  -27.7087   23.6103 C   0  0  0  0  0  0  0  0  0  0  0  0
  -28.3758  -17.3028   20.4039 C   0  0  0  0  0  0  0  0  0  0  0  0
  -26.6813  -18.4269   19.0993 C   0  0  0  0  0  0  0  0  0  0  0  0
  -19.7683  -29.0781   21.9820 C   0  0  0  0  0  0  0  0  0  0  0  0
  -22.3848  -13.8671   18.7358 C   0  0  0  0  0  0  0  0  0  0  0  0
  -21.7878  -16.5558   19.1371 C   0  0  0  0  0  0  0  0  0  0  0  0
  -23.2901  -22.0858   21.2977 C   0  0  0  0  0  0  0  0  0  0  0  0
  -19.3766  -26.6045   23.2110 C   0  0  0  0  0  0  0  0  0  0  0  0
  -24.9067  -27.4067   18.9831 C   0  0  0  0  0  0  0  0  0  0  0  0
  -25.9879  -26.5317   19.0877 C   0  0  0  0  0  0  0  0  0  0  0  0
  -27.4770  -16.2740   20.6850 C   0  0  0  0  0  0  0  0  0  0  0  0
  -25.7824  -17.3980   19.3804 C   0  0  0  0  0  0  0  0  0  0  0  0
  -22.5503  -23.2527   21.4840 C   0  0  0  0  0  0  0  0  0  0  0  0
  -26.2402  -13.5479   19.1128 C   0  0  0  0  0  0  0  0  0  0  0  0
  -26.7004  -12.2360   18.9993 C   0  0  0  0  0  0  0  0  0  0  0  0
  -22.1909  -22.6493   23.7918 C   0  0  0  0  0  0  0  0  0  0  0  0
  -26.7370  -27.6943   21.0688 C   0  0  0  0  0  0  0  0  0  0  0  0
  -26.2002  -11.8587   21.3327 C   0  0  0  0  0  0  0  0  0  0  0  0
  -27.9780  -18.3793   19.6111 C   0  0  0  0  0  0  0  0  0  0  0  0
  -20.5213  -27.9740   21.5827 C   0  0  0  0  0  0  0  0  0  0  0  0
  -29.7955  -19.5213   18.2326 C   0  0  0  0  0  0  0  0  0  0  0  0
  -22.1843  -14.3397   20.0423 C   0  0  0  0  0  0  0  0  0  0  0  0
  -23.4769  -21.1849   22.3560 C   0  0  0  0  0  0  0  0  0  0  0  0
  -21.8720  -15.6973   20.2465 C   0  0  0  0  0  0  0  0  0  0  0  0
  -22.9356  -21.4729   23.6170 C   0  0  0  0  0  0  0  0  0  0  0  0
  -20.3254  -26.7371   22.1971 C   0  0  0  0  0  0  0  0  0  0  0  0
  -24.7406  -28.4255   19.9213 C   0  0  0  0  0  0  0  0  0  0  0  0
  -25.6558  -28.5693   20.9641 C   0  0  0  0  0  0  0  0  0  0  0  0
  -26.9031  -26.6755   20.1306 C   0  0  0  0  0  0  0  0  0  0  0  0
  -26.1802  -16.3215   20.1733 C   0  0  0  0  0  0  0  0  0  0  0  0
  -21.9981  -23.5333   22.7304 C   0  0  0  0  0  0  0  0  0  0  0  0
  -25.7601  -14.0152   20.3363 C   0  0  0  0  0  0  0  0  0  0  0  0
  -26.6803  -11.3914   20.1092 C   0  0  0  0  0  0  0  0  0  0  0  0
  -25.7401  -13.1706   21.4462 C   0  0  0  0  0  0  0  0  0  0  0  0
  -28.9059  -19.4427   19.3208 C   0  0  0  0  0  0  0  0  0  0  0  0
  -30.4502  -20.7156   18.4098 C   0  0  0  0  0  0  0  0  0  0  0  0
  -21.5058  -28.1405   20.5221 C   0  0  0  0  0  0  0  0  0  0  0  0
  -30.0108  -18.5973   17.1576 C   0  0  0  0  0  0  0  0  0  0  0  0
  -22.6885  -18.1515   22.8854 C   0  0  0  0  0  0  0  0  0  0  0  0
  -24.4741  -18.5613   25.5623 C   0  0  0  0  0  0  0  0  0  0  0  0
  -25.7790  -20.7057   27.8743 C   0  0  0  0  0  0  0  0  0  0  0  0
  -28.9989  -25.7898   21.2119 C   0  0  0  0  0  0  0  0  0  0  0  0
  -22.2433  -13.3585   21.1862 C   0  0  0  0  0  0  0  0  0  0  0  0
  -24.3001  -19.9437   22.1458 C   0  0  0  0  0  0  0  0  0  0  0  0
  -23.1243  -20.5484   24.7910 C   0  0  0  0  0  0  0  0  0  0  0  0
  -22.3753  -14.0243   22.5536 C   0  0  0  0  0  0  0  0  0  0  0  0
  -31.8460  -23.7474   21.8440 C   0  0  0  0  0  0  0  0  0  0  0  0
  -21.3855  -15.1777   22.6835 C   0  0  0  0  0  0  0  0  0  0  0  0
  -31.4987  -22.4209   21.1645 C   0  0  0  0  0  0  0  0  0  0  0  0
  -30.6187  -24.3967   22.4810 C   0  0  0  0  0  0  0  0  0  0  0  0
  -29.1219  -23.2393   20.9033 C   0  0  0  0  0  0  0  0  0  0  0  0
  -21.6609  -16.2619   21.6346 C   0  0  1  0  0  0  0  0  0  0  0  0
  -23.9933  -18.8447   23.1585 C   0  0  1  0  0  0  0  0  0  0  0  0
  -30.3141  -22.5794   20.1912 C   0  0  2  0  0  0  0  0  0  0  0  0
  -27.1642  -20.7421   29.9665 C   0  0  0  0  0  0  0  0  0  0  0  0
  -26.2168  -30.9317   21.5670 C   0  0  0  0  0  0  0  0  0  0  0  0
  -22.0787  -17.5566   27.1629 C   0  0  0  0  0  0  0  0  0  0  0  0
  -23.1483  -18.4973   29.2219 C   0  0  0  0  0  0  0  0  0  0  0  0
  -24.2912  -16.6879   27.9403 C   0  0  0  0  0  0  0  0  0  0  0  0
  -27.8693  -22.3688   26.6000 C   0  0  0  0  0  0  0  0  0  0  0  0
  -23.5695  -29.3555   19.7874 C   0  0  0  0  0  0  0  0  0  0  0  0
  -21.1218  -25.5331   21.7878 C   0  0  0  0  0  0  0  0  0  1  0  0
  -24.1960  -19.0218   26.9728 C   0  0  1  0  0  0  0  0  0  0  0  0
  -27.1779  -20.8382   28.4488 C   0  0  2  0  0  0  0  0  0  0  0  0
  -25.4970  -29.6513   21.9813 C   0  0  0  0  0  0  0  0  0  0  0  0
  -23.4232  -17.9576   27.8021 C   0  0  0  0  0  0  0  0  0  0  0  0
  -28.9857  -20.5027   20.1296 N   0  0  0  0  0  0  0  0  0  0  0  0
  -29.9333  -21.2586   19.5492 N   0  0  0  0  0  0  0  0  0  0  0  0
  -23.9316  -19.3444   24.5336 N   0  0  0  0  0  0  0  0  0  0  0  0
  -29.5390  -24.5183   21.4990 N   0  0  0  0  0  0  0  0  0  0  0  0
  -31.4118  -21.3438   17.7006 N   0  0  0  0  0  0  0  0  0  0  0  0
  -29.2529  -17.4186   17.1278 N   0  0  0  0  0  0  0  0  0  0  0  0
  -28.0005  -25.7857   20.2384 N   0  0  0  0  0  0  0  0  0  0  0  0
  -22.5329  -29.0619   20.7507 N   0  0  0  0  0  0  0  0  0  0  0  0
  -22.7936  -17.0714   22.0299 N   0  0  0  0  0  0  0  0  0  0  0  0
  -25.4855  -19.4005   27.5403 N   0  0  0  0  0  0  0  0  0  0  0  0
  -27.7729  -22.1499   28.0662 N   0  3  0  0  0  0  0  0  0  0  0  0
  -21.4048  -27.4976   19.4635 O   0  0  0  0  0  0  0  0  0  0  0  0
  -30.8619  -18.8027   16.2594 O   0  0  0  0  0  0  0  0  0  0  0  0
  -21.6626  -18.5650   23.4129 O   0  0  0  0  0  0  0  0  0  0  0  0
  -25.1539  -17.5483   25.3798 O   0  0  0  0  0  0  0  0  0  0  0  0
  -25.0210  -21.6637   27.7391 O   0  0  0  0  0  0  0  0  0  0  0  0
  -29.4120  -26.8109   21.7675 O   0  0  0  0  0  0  0  0  0  0  0  0
  -25.3029  -15.3176   20.4472 O   0  0  0  0  0  0  0  0  0  0  0  0
  -21.2751  -24.6713   22.9148 O   0  0  0  0  0  0  0  0  0  1  0  0
  -27.1208  -10.1312   19.9997 F   0  0  0  0  0  0  0  0  0  0  0  0
  -25.2789  -13.6135   22.6239 F   0  0  0  0  0  0  0  0  0  0  0  0
  -25.9795  -29.2995   23.2153 F   0  0  0  0  0  0  0  0  0  0  0  0
  -24.1862  -29.9820   22.2094 F   0  0  0  0  0  0  0  0  0  0  0  0
  1  4  1  0  0  0  0
  1  7  2  0  0  0  0
  2  3  1  0  0  0  0
  2  8  2  0  0  0  0
  3  9  2  0  0  0  0
  4 11  2  0  0  0  0
  5 14  2  0  0  0  0
  5 22  1  0  0  0  0
  6 15  1  0  0  0  0
  6 22  2  0  0  0  0
  7 23  1  0  0  0  0
  8 25  1  0  0  0  0
  9 27  1  0  0  0  0
 10 16  2  0  0  0  0
 10 26  1  0  0  0  0
 11 29  1  0  0  0  0
 12 13  2  0  0  0  0
 12 30  1  0  0  0  0
 13 32  1  0  0  0  0
 14 33  1  0  0  0  0
 15 33  2  0  0  0  0
 16 34  1  0  0  0  0
 17 18  2  0  0  0  0
 17 35  1  0  0  0  0
 18 36  1  0  0  0  0
 19 28  1  0  0  0  0
 19 34  2  0  0  0  0
 20 31  1  0  0  0  0
 20 32  2  0  0  0  0
 21 36  2  0  0  0  0
 21 37  1  0  0  0  0
 22 38  1  0  0  0  0
 23 29  2  0  0  0  0
 23 40  1  0  0  0  0
 24 38  1  0  0  0  0
 24 39  2  0  0  0  0
 24 41  1  0  0  0  0
 25 27  2  0  0  0  0
 25 46  1  0  0  0  0
 26 28  2  0  0  0  0
 26 47  1  0  0  0  0
 27 55  1  0  0  0  0
 28 48  1  0  0  0  0
 29 65  1  0  0  0  0
 30 31  2  0  0  0  0
 30 64  1  0  0  0  0
 31 68  1  0  0  0  0
 32 76  1  0  0  0  0
 33 87  1  0  0  0  0
 34 88  1  0  0  0  0
 35 37  2  0  0  0  0
 35 87  1  0  0  0  0
 36 89  1  0  0  0  0
 37 90  1  0  0  0  0
 38 70  2  0  0  0  0
 39 71  1  0  0  0  0
 39 74  1  0  0  0  0
 40 77  1  0  0  0  0
 40 81  2  0  0  0  0
 41 75  1  0  0  0  0
 41 82  2  0  0  0  0
 42 56  1  0  0  0  0
 42 78  1  0  0  0  0
 42 83  2  0  0  0  0
 43 66  1  0  0  0  0
 43 72  1  0  0  0  0
 43 84  2  0  0  0  0
 44 67  1  0  0  0  0
 44 79  1  0  0  0  0
 44 85  2  0  0  0  0
 45 73  1  0  0  0  0
 45 76  1  0  0  0  0
 45 86  2  0  0  0  0
 46 49  1  0  0  0  0
 47 56  1  0  0  0  0
 48 72  1  0  0  0  0
 49 51  1  0  0  0  0
 50 52  1  0  0  0  0
 50 53  1  0  0  0  0
 51 55  1  0  0  0  0
 52 57  1  0  0  0  0
 53 73  1  0  0  0  0
 54 57  1  0  0  0  0
 54 73  1  0  0  0  0
 55 78  1  0  0  0  0
 56 72  1  0  0  0  0
 57 71  1  0  0  0  0
 58 67  1  0  0  0  0
 59 68  1  0  0  0  0
 60 69  1  0  0  0  0
 61 69  1  0  0  0  0
 62 69  1  0  0  0  0
 63 80  1  0  0  0  0
 64 77  1  0  0  0  0
 65 88  1  0  0  0  0
 66 69  1  0  0  0  0
 66 79  1  0  0  0  0
 67 80  1  0  0  0  0
 68 91  1  0  0  0  0
 68 92  1  0  0  0  0
 70 71  1  0  0  0  0
M  CHG  1  80   1
M  ISO  4  45 100  65 101  76 100  88 101
M  END
> <Batch ID>
0053

> <Smiles>
CNC(C)C(=O)NC(C(=O)N1Cc2cc([101O:1][101CH2:1]c3ccccc3C(=O)NCc3ccc([100NH:0][100C:0](=O)N4CCCC(n5nc(-c6ccc(Oc7ccc(F)cc7F)cc6)c(C(N)=O)c5N)C4)cc3C(C)(F)F)ccc2CC1C(=O)NC1CCCc2ccccc21)C(C)(C)C

> <Shape>
0.210

> <Color>
0.069

> <Negative vol penalty>
0.000

$$$$

  -OEChem-04042322433D

 84 92  0     1  0  0  0  0  0999 V2000
  -23.3669  -34.9261   20.1789 C   0  0  0  0  0  0  0  0  0  0  0  0
  -24.3422  -33.9556   19.9729 C   0  0  0  0  0  0  0  0  0  0  0  0
  -23.9070   -9.6237   21.6730 C   0  0  0  0  0  0  0  0  0  0  0  0
  -24.4930  -10.8549   23.6674 C   0  0  0  0  0  0  0  0  0  0  0  0
  -23.4195  -35.7359   21.3127 C   0  0  0  0  0  0  0  0  0  0  0  0
  -25.3713  -33.7951   20.9000 C   0  0  0  0  0  0  0  0  0  0  0  0
  -26.2551  -28.9313   21.9989 C   0  0  0  0  0  0  0  0  0  0  0  0
  -29.7629  -19.7560   17.6328 C   0  0  0  0  0  0  0  0  0  0  0  0
  -29.9184  -18.5255   18.2711 C   0  0  0  0  0  0  0  0  0  0  0  0
  -23.4315   -8.5750   22.4600 C   0  0  0  0  0  0  0  0  0  0  0  0
  -24.0174   -9.8061   24.4546 C   0  0  0  0  0  0  0  0  0  0  0  0
  -26.9859  -28.1914   21.0704 C   0  0  0  0  0  0  0  0  0  0  0  0
  -20.6544   -7.8682   24.2549 C   0  0  0  0  0  0  0  0  0  0  0  0
  -19.4274   -7.3025   23.9085 C   0  0  0  0  0  0  0  0  0  0  0  0
  -28.9682  -28.4720   22.4160 C   0  0  0  0  0  0  0  0  0  0  0  0
  -28.1734  -19.1160   19.8343 C   0  0  0  0  0  0  0  0  0  0  0  0
  -20.5018   -5.1604   23.6012 C   0  0  0  0  0  0  0  0  0  0  0  0
  -24.4378  -10.7637   22.2767 C   0  0  0  0  0  0  0  0  0  0  0  0
  -24.2009  -12.9560   20.9940 C   0  0  0  0  0  0  0  0  0  0  0  0
  -24.4444  -35.5787   22.2591 C   0  0  0  0  0  0  0  0  0  0  0  0
  -26.8788  -29.4573   23.1394 C   0  0  0  0  0  0  0  0  0  0  0  0
  -25.4384  -34.6045   22.0468 C   0  0  0  0  0  0  0  0  0  0  0  0
  -28.2425  -29.2161   23.3588 C   0  0  0  0  0  0  0  0  0  0  0  0
  -28.8128  -20.6665   18.0953 C   0  0  0  0  0  0  0  0  0  0  0  0
  -28.0180  -20.3465   19.1960 C   0  0  0  0  0  0  0  0  0  0  0  0
  -29.1236  -18.2055   19.3718 C   0  0  0  0  0  0  0  0  0  0  0  0
  -23.4866   -8.6662   23.8508 C   0  0  0  0  0  0  0  0  0  0  0  0
  -28.3433  -27.9641   21.2774 C   0  0  0  0  0  0  0  0  0  0  0  0
  -21.8052   -7.0801   24.2743 C   0  0  0  0  0  0  0  0  0  0  0  0
  -19.3511   -5.9486   23.5817 C   0  0  0  0  0  0  0  0  0  0  0  0
  -21.7288   -5.7262   23.9475 C   0  0  0  0  0  0  0  0  0  0  0  0
  -24.9297  -11.8472   21.4641 C   0  0  0  0  0  0  0  0  0  0  0  0
  -25.1144  -13.6876   20.2751 C   0  0  0  0  0  0  0  0  0  0  0  0
  -29.3198  -23.0940   18.1697 C   0  0  0  0  0  0  0  0  0  0  0  0
  -22.8215  -13.2946   21.1897 C   0  0  0  0  0  0  0  0  0  0  0  0
  -27.3754  -32.3839   24.2762 C   0  0  0  0  0  0  0  0  0  0  0  0
  -29.2871  -25.0981   19.2692 C   0  0  0  0  0  0  0  0  0  0  0  0
  -28.5301  -30.7696   26.8419 C   0  0  0  0  0  0  0  0  0  0  0  0
  -29.8952  -27.8992   28.0845 C   0  0  0  0  0  0  0  0  0  0  0  0
  -30.1736  -15.9374   19.6871 C   0  0  0  0  0  0  0  0  0  0  0  0
  -24.4861  -36.5093   23.4452 C   0  0  0  0  0  0  0  0  0  0  0  0
  -26.0706  -30.2307   24.1449 C   0  0  0  0  0  0  0  0  0  0  0  0
  -28.9548  -29.7417   24.5774 C   0  0  0  0  0  0  0  0  0  0  0  0
  -25.3988  -36.0239   24.5684 C   0  0  0  0  0  0  0  0  0  0  0  0
  -29.7980  -12.5234   18.7487 C   0  0  0  0  0  0  0  0  0  0  0  0
  -26.7393  -35.5626   24.0052 C   0  0  0  0  0  0  0  0  0  0  0  0
  -28.4380  -12.1344   19.3328 C   0  0  0  0  0  0  0  0  0  0  0  0
  -30.5557  -13.4821   19.6655 C   0  0  0  0  0  0  0  0  0  0  0  0
  -28.4473  -14.2915   20.6495 C   0  0  0  0  0  0  0  0  0  0  0  0
  -26.5567  -34.3833   23.0422 C   0  0  1  0  0  0  0  0  0  0  0  0
  -26.9208  -31.1548   25.0113 C   0  0  1  0  0  0  0  0  0  0  0  0
  -27.6192  -13.3779   19.7311 C   0  0  2  0  0  0  0  0  0  0  0  0
  -26.9929  -21.3048   19.7074 C   0  0  0  0  0  0  0  0  0  0  0  0
  -30.7673  -26.8926   30.2113 C   0  0  0  0  0  0  0  0  0  0  0  0
  -31.0838  -32.4175   26.5718 C   0  0  0  0  0  0  0  0  0  0  0  0
  -32.2295  -30.7565   28.0540 C   0  0  0  0  0  0  0  0  0  0  0  0
  -30.3031  -32.0813   28.9238 C   0  0  0  0  0  0  0  0  0  0  0  0
  -27.8656  -25.7458   28.0340 C   0  0  0  0  0  0  0  0  0  0  0  0
  -28.6642  -21.9874   17.3911 C   0  0  0  0  0  0  0  0  0  0  0  0
  -28.3582  -26.2352   19.6444 C   0  0  0  0  0  0  0  0  0  1  0  0
  -29.8820  -30.2350   27.2488 C   0  0  1  0  0  0  0  0  0  0  0  0
  -29.5553  -27.0705   29.3102 C   0  0  2  0  0  0  0  0  0  0  0  0
  -30.8619  -31.3642   27.6756 C   0  0  0  0  0  0  0  0  0  0  0  0
  -26.2077  -11.8682   21.0764 N   0  0  0  0  0  0  0  0  0  0  0  0
  -28.6338  -24.1200   18.5498 N   0  0  0  0  0  0  0  0  0  0  0  0
  -26.2890  -12.9991   20.3549 N   0  0  0  0  0  0  0  0  0  0  0  0
  -28.1228  -30.4974   25.5282 N   0  0  0  0  0  0  0  0  0  0  0  0
  -29.7197  -14.6379   19.9971 N   0  0  0  0  0  0  0  0  0  0  0  0
  -25.0194  -14.8461   19.5887 N   0  0  0  0  0  0  0  0  0  0  0  0
  -22.0241  -12.4327   21.9551 N   0  0  0  0  0  0  0  0  0  0  0  0
  -29.2797  -16.9549   20.0193 N   0  0  0  0  0  0  0  0  0  0  0  0
  -26.3430  -33.1567   23.7799 N   0  0  0  0  0  0  0  0  0  0  0  0
  -29.6319  -29.2379   28.2840 N   0  0  0  0  0  0  0  0  0  0  0  0
  -29.0690  -25.7214   28.9047 N   0  3  0  0  0  0  0  0  0  0  0  0
  -22.3071  -14.3222   20.6867 O   0  0  0  0  0  0  0  0  0  0  0  0
  -28.5741  -32.6148   24.1685 O   0  0  0  0  0  0  0  0  0  0  0  0
  -30.4718  -25.1011   19.5968 O   0  0  0  0  0  0  0  0  0  0  0  0
  -27.8571  -31.3993   27.6618 O   0  0  0  0  0  0  0  0  0  0  0  0
  -30.3523  -27.4086   27.0545 O   0  0  0  0  0  0  0  0  0  0  0  0
  -31.2625  -16.1313   19.1406 O   0  0  0  0  0  0  0  0  0  0  0  0
  -23.0225   -7.6430   24.6192 O   0  0  0  0  0  0  0  0  0  0  0  0
  -29.0592  -27.2428   20.3723 O   0  0  0  0  0  0  0  0  0  1  0  0
  -18.1724   -5.4052   23.2506 F   0  0  0  0  0  0  0  0  0  0  0  0
  -22.8307   -4.9637   23.9657 F   0  0  0  0  0  0  0  0  0  0  0  0
  1  2  1  0  0  0  0
  1  5  2  0  0  0  0
  2  6  2  0  0  0  0
  3 10  2  0  0  0  0
  3 18  1  0  0  0  0
  4 11  1  0  0  0  0
  4 18  2  0  0  0  0
  5 20  1  0  0  0  0
  6 22  1  0  0  0  0
  7 12  2  0  0  0  0
  7 21  1  0  0  0  0
  8  9  2  0  0  0  0
  8 24  1  0  0  0  0
  9 26  1  0  0  0  0
 10 27  1  0  0  0  0
 11 27  2  0  0  0  0
 12 28  1  0  0  0  0
 13 14  2  0  0  0  0
 13 29  1  0  0  0  0
 14 30  1  0  0  0  0
 15 23  1  0  0  0  0
 15 28  2  0  0  0  0
 16 25  1  0  0  0  0
 16 26  2  0  0  0  0
 17 30  2  0  0  0  0
 17 31  1  0  0  0  0
 18 32  1  0  0  0  0
 19 32  1  0  0  0  0
 19 33  2  0  0  0  0
 19 35  1  0  0  0  0
 20 22  2  0  0  0  0
 20 41  1  0  0  0  0
 21 23  2  0  0  0  0
 21 42  1  0  0  0  0
 22 50  1  0  0  0  0
 23 43  1  0  0  0  0
 24 25  2  0  0  0  0
 24 59  1  0  0  0  0
 25 53  1  0  0  0  0
 26 71  1  0  0  0  0
 27 81  1  0  0  0  0
 28 82  1  0  0  0  0
 29 31  2  0  0  0  0
 29 81  1  0  0  0  0
 30 83  1  0  0  0  0
 31 84  1  0  0  0  0
 32 64  2  0  0  0  0
 33 66  1  0  0  0  0
 33 69  1  0  0  0  0
 34 59  1  0  0  0  0
 34 65  2  0  0  0  0
 35 70  1  0  0  0  0
 35 75  2  0  0  0  0
 36 51  1  0  0  0  0
 36 72  1  0  0  0  0
 36 76  2  0  0  0  0
 37 60  1  0  0  0  0
 37 65  1  0  0  0  0
 37 77  2  0  0  0  0
 38 61  1  0  0  0  0
 38 67  1  0  0  0  0
 38 78  2  0  0  0  0
 39 62  1  0  0  0  0
 39 73  1  0  0  0  0
 39 79  2  0  0  0  0
 40 68  1  0  0  0  0
 40 71  1  0  0  0  0
 40 80  2  0  0  0  0
 41 44  1  0  0  0  0
 42 51  1  0  0  0  0
 43 67  1  0  0  0  0
 44 46  1  0  0  0  0
 45 47  1  0  0  0  0
 45 48  1  0  0  0  0
 46 50  1  0  0  0  0
 47 52  1  0  0  0  0
 48 68  1  0  0  0  0
 49 52  1  0  0  0  0
 49 68  1  0  0  0  0
 50 72  1  0  0  0  0
 51 67  1  0  0  0  0
 52 66  1  0  0  0  0
 54 62  1  0  0  0  0
 55 63  1  0  0  0  0
 56 63  1  0  0  0  0
 57 63  1  0  0  0  0
 58 74  1  0  0  0  0
 60 82  1  0  0  0  0
 61 63  1  0  0  0  0
 61 73  1  0  0  0  0
 62 74  1  0  0  0  0
 64 66  1  0  0  0  0
M  CHG  1  74   1
M  ISO  4  40 100  60 101  71 100  82 101
M  END
> <Batch ID>
0053

> <Smiles>
CNC(C)C(=O)NC(C(=O)N1Cc2cc([101O:1][101CH2:1]C(=O)NC=Cc3ccc([100NH:0][100C:0](=O)N4CCCC(n5nc(-c6ccc(Oc7ccc(F)cc7F)cc6)c(C(N)=O)c5N)C4)cc3C)ccc2CC1C(=O)NC1CCCc2ccccc21)C(C)(C)C

> <Shape>
0.303

> <Color>
0.136

> <Negative vol penalty>
0.000

$$$$

  -OEChem-04042322433D

 87 95  0     1  0  0  0  0  0999 V2000
  -24.2591   -7.2241   24.7361 C   0  0  0  0  0  0  0  0  0  0  0  0
  -25.4105   -7.9684   24.4998 C   0  0  0  0  0  0  0  0  0  0  0  0
  -24.7331  -31.5351   22.6704 C   0  0  0  0  0  0  0  0  0  0  0  0
  -26.0874  -31.4671   20.6708 C   0  0  0  0  0  0  0  0  0  0  0  0
  -23.1807   -7.3124   23.8567 C   0  0  0  0  0  0  0  0  0  0  0  0
  -25.4845   -8.8006   23.3834 C   0  0  0  0  0  0  0  0  0  0  0  0
  -28.3627  -14.1924   22.9951 C   0  0  0  0  0  0  0  0  0  0  0  0
  -25.2571  -32.7895   22.9827 C   0  0  0  0  0  0  0  0  0  0  0  0
  -26.6114  -32.7216   20.9831 C   0  0  0  0  0  0  0  0  0  0  0  0
  -29.6106  -14.5553   22.4903 C   0  0  0  0  0  0  0  0  0  0  0  0
  -24.7894  -35.9955   22.0156 C   0  0  0  0  0  0  0  0  0  0  0  0
  -23.8986  -36.9848   22.4320 C   0  0  0  0  0  0  0  0  0  0  0  0
  -29.9759  -22.8789   19.7167 C   0  0  0  0  0  0  0  0  0  0  0  0
  -28.5803  -15.1601   20.3946 C   0  0  0  0  0  0  0  0  0  0  0  0
  -29.4733  -24.5526   18.0485 C   0  0  0  0  0  0  0  0  0  0  0  0
  -25.0762  -37.1603   24.5343 C   0  0  0  0  0  0  0  0  0  0  0  0
  -25.1483  -30.8739   21.5145 C   0  0  0  0  0  0  0  0  0  0  0  0
  -31.1669  -22.5780   19.0561 C   0  0  0  0  0  0  0  0  0  0  0  0
  -23.4605  -29.3025   20.4237 C   0  0  0  0  0  0  0  0  0  0  0  0
  -23.2379   -8.1534   22.7342 C   0  0  0  0  0  0  0  0  0  0  0  0
  -27.2138  -14.3005   22.1984 C   0  0  0  0  0  0  0  0  0  0  0  0
  -24.4064   -8.8991   22.4874 C   0  0  0  0  0  0  0  0  0  0  0  0
  -27.3187  -14.8003   20.8925 C   0  0  0  0  0  0  0  0  0  0  0  0
  -31.5112  -23.2645   17.8917 C   0  0  0  0  0  0  0  0  0  0  0  0
  -29.1290  -23.8662   19.2129 C   0  0  0  0  0  0  0  0  0  0  0  0
  -26.1962  -33.3827   22.1391 C   0  0  0  0  0  0  0  0  0  0  0  0
  -29.7200  -15.0365   21.1890 C   0  0  0  0  0  0  0  0  0  0  0  0
  -25.8236  -35.5885   22.8586 C   0  0  0  0  0  0  0  0  0  0  0  0
  -24.0420  -37.5672   23.6913 C   0  0  0  0  0  0  0  0  0  0  0  0
  -30.6644  -24.2518   17.3878 C   0  0  0  0  0  0  0  0  0  0  0  0
  -25.9670  -36.1710   24.1179 C   0  0  0  0  0  0  0  0  0  0  0  0
  -24.6078  -29.5778   21.1916 C   0  0  0  0  0  0  0  0  0  0  0  0
  -23.3760  -27.9317   20.4120 C   0  0  0  0  0  0  0  0  0  0  0  0
  -32.0401  -21.5299   19.6134 C   0  0  0  0  0  0  0  0  0  0  0  0
  -31.6840  -20.2464   19.7696 C   0  0  0  0  0  0  0  0  0  0  0  0
  -22.5525  -30.2052   19.7785 C   0  0  0  0  0  0  0  0  0  0  0  0
  -32.6560  -19.2688   20.3369 C   0  0  0  0  0  0  0  0  0  0  0  0
  -25.0645  -12.2478   21.0711 C   0  0  0  0  0  0  0  0  0  0  0  0
  -23.5904  -14.9519   20.0525 C   0  0  0  0  0  0  0  0  0  0  0  0
  -23.8535  -18.2371   19.1665 C   0  0  0  0  0  0  0  0  0  0  0  0
  -27.4278  -23.5864   21.0497 C   0  0  0  0  0  0  0  0  0  0  0  0
  -22.0651   -8.1797   21.7863 C   0  0  0  0  0  0  0  0  0  0  0  0
  -25.8713  -13.9301   22.7667 C   0  0  0  0  0  0  0  0  0  0  0  0
  -26.1129  -14.9547   20.0032 C   0  0  0  0  0  0  0  0  0  0  0  0
  -22.0809   -9.3700   20.8307 C   0  0  0  0  0  0  0  0  0  0  0  0
  -24.5127  -24.0873   23.0317 C   0  0  0  0  0  0  0  0  0  0  0  0
  -23.4672   -9.5451   20.2189 C   0  0  0  0  0  0  0  0  0  0  0  0
  -24.0983  -25.5250   22.7102 C   0  0  0  0  0  0  0  0  0  0  0  0
  -26.0317  -23.9313   23.0763 C   0  0  0  0  0  0  0  0  0  0  0  0
  -26.3264  -25.8532   21.5635 C   0  0  0  0  0  0  0  0  0  0  0  0
  -24.5154   -9.8319   21.3008 C   0  0  1  0  0  0  0  0  0  0  0  0
  -24.8395  -13.5968   21.6935 C   0  0  1  0  0  0  0  0  0  0  0  0
  -24.8058  -26.0456   21.4437 C   0  0  2  0  0  0  0  0  0  0  0  0
  -32.7805  -22.9661   17.1599 C   0  0  0  0  0  0  0  0  0  0  0  0
  -22.4830  -20.1710   18.3425 C   0  0  0  0  0  0  0  0  0  0  0  0
  -33.6175  -16.1864   19.8122 C   0  0  0  0  0  0  0  0  0  0  0  0
  -23.5382  -13.7222   17.2606 C   0  0  0  0  0  0  0  0  0  0  0  0
  -23.0569  -16.0009   16.3418 C   0  0  0  0  0  0  0  0  0  0  0  0
  -21.4436  -14.9242   17.9104 C   0  0  0  0  0  0  0  0  0  0  0  0
  -24.4798  -19.8530   21.5655 C   0  0  0  0  0  0  0  0  0  0  0  0
  -31.9007  -15.8788   21.6260 C   0  0  0  0  0  0  0  0  0  1  0  0
  -23.6453  -15.7924   18.7997 C   0  0  1  0  0  0  0  0  0  0  0  0
  -23.0401  -19.4557   19.5635 C   0  0  2  0  0  0  0  0  0  0  0  0
  -32.8469  -16.8618   20.9391 C   0  0  2  0  0  0  0  0  0  0  0  0
  -22.9441  -15.1053   17.5940 C   0  0  0  0  0  0  0  0  0  0  0  0
  -25.2089  -28.4708   21.6357 N   0  0  0  0  0  0  0  0  0  0  0  0
  -24.4363  -27.4866   21.1454 N   0  0  0  0  0  0  0  0  0  0  0  0
  -24.8233  -14.5731   20.6024 N   0  0  0  0  0  0  0  0  0  0  0  0
  -26.6328  -24.4414   21.8421 N   0  0  0  0  0  0  0  0  0  0  0  0
  -22.4989  -27.0757   19.8461 N   0  0  0  0  0  0  0  0  0  0  0  0
  -22.7866  -31.5825   19.8912 N   0  0  0  0  0  0  0  0  0  0  0  0
  -27.9189  -24.1723   19.8835 N   0  0  0  0  0  0  0  0  0  0  0  0
  -32.1152  -17.9967   20.4239 N   0  0  0  0  0  0  0  0  0  0  0  0
  -24.4330  -11.2111   21.7314 N   0  0  0  0  0  0  0  0  0  0  0  0
  -23.0856  -17.0919   19.1552 N   0  0  0  0  0  0  0  0  0  0  0  0
  -23.8858  -20.4170   20.3261 N   0  3  0  0  0  0  0  0  0  0  0  0
  -21.5535  -29.8029   19.1353 O   0  0  0  0  0  0  0  0  0  0  0  0
  -33.7911  -19.5879   20.6752 O   0  0  0  0  0  0  0  0  0  0  0  0
  -25.7584  -12.1546   20.0653 O   0  0  0  0  0  0  0  0  0  0  0  0
  -22.4941  -14.6487   20.5299 O   0  0  0  0  0  0  0  0  0  0  0  0
  -25.0497  -18.2958   18.8901 O   0  0  0  0  0  0  0  0  0  0  0  0
  -27.6336  -22.4122   21.3675 O   0  0  0  0  0  0  0  0  0  0  0  0
  -26.7076  -34.6068   22.4434 O   0  0  0  0  0  0  0  0  0  0  0  0
  -30.9369  -15.3908   20.6936 O   0  0  0  0  0  0  0  0  0  1  0  0
  -23.1874  -38.5183   24.0905 F   0  0  0  0  0  0  0  0  0  0  0  0
  -30.9856  -24.9177   16.2696 F   0  0  0  0  0  0  0  0  0  0  0  0
  -26.9593  -35.7850   24.9316 F   0  0  0  0  0  0  0  0  0  0  0  0
  1  2  1  0  0  0  0
  1  5  2  0  0  0  0
  2  6  2  0  0  0  0
  3  8  2  0  0  0  0
  3 17  1  0  0  0  0
  4  9  1  0  0  0  0
  4 17  2  0  0  0  0
  5 20  1  0  0  0  0
  6 22  1  0  0  0  0
  7 10  2  0  0  0  0
  7 21  1  0  0  0  0
  8 26  1  0  0  0  0
  9 26  2  0  0  0  0
 10 27  1  0  0  0  0
 11 12  2  0  0  0  0
 11 28  1  0  0  0  0
 12 29  1  0  0  0  0
 13 18  1  0  0  0  0
 13 25  2  0  0  0  0
 14 23  1  0  0  0  0
 14 27  2  0  0  0  0
 15 25  1  0  0  0  0
 15 30  2  0  0  0  0
 16 29  2  0  0  0  0
 16 31  1  0  0  0  0
 17 32  1  0  0  0  0
 18 24  2  0  0  0  0
 18 34  1  0  0  0  0
 19 32  1  0  0  0  0
 19 33  2  0  0  0  0
 19 36  1  0  0  0  0
 20 22  2  0  0  0  0
 20 42  1  0  0  0  0
 21 23  2  0  0  0  0
 21 43  1  0  0  0  0
 22 51  1  0  0  0  0
 23 44  1  0  0  0  0
 24 30  1  0  0  0  0
 24 54  1  0  0  0  0
 25 72  1  0  0  0  0
 26 83  1  0  0  0  0
 27 84  1  0  0  0  0
 28 31  2  0  0  0  0
 28 83  1  0  0  0  0
 29 85  1  0  0  0  0
 30 86  1  0  0  0  0
 31 87  1  0  0  0  0
 32 66  2  0  0  0  0
 33 67  1  0  0  0  0
 33 70  1  0  0  0  0
 34 35  2  0  0  0  0
 35 37  1  0  0  0  0
 36 71  1  0  0  0  0
 36 77  2  0  0  0  0
 37 73  1  0  0  0  0
 37 78  2  0  0  0  0
 38 52  1  0  0  0  0
 38 74  1  0  0  0  0
 38 79  2  0  0  0  0
 39 62  1  0  0  0  0
 39 68  1  0  0  0  0
 39 80  2  0  0  0  0
 40 63  1  0  0  0  0
 40 75  1  0  0  0  0
 40 81  2  0  0  0  0
 41 69  1  0  0  0  0
 41 72  1  0  0  0  0
 41 82  2  0  0  0  0
 42 45  1  0  0  0  0
 43 52  1  0  0  0  0
 44 68  1  0  0  0  0
 45 47  1  0  0  0  0
 46 48  1  0  0  0  0
 46 49  1  0  0  0  0
 47 51  1  0  0  0  0
 48 53  1  0  0  0  0
 49 69  1  0  0  0  0
 50 53  1  0  0  0  0
 50 69  1  0  0  0  0
 51 74  1  0  0  0  0
 52 68  1  0  0  0  0
 53 67  1  0  0  0  0
 55 63  1  0  0  0  0
 56 64  1  0  0  0  0
 57 65  1  0  0  0  0
 58 65  1  0  0  0  0
 59 65  1  0  0  0  0
 60 76  1  0  0  0  0
 61 64  1  0  0  0  0
 61 84  1  0  0  0  0
 62 65  1  0  0  0  0
 62 75  1  0  0  0  0
 63 76  1  0  0  0  0
 64 73  1  0  0  0  0
 66 67  1  0  0  0  0
M  CHG  1  76   1
M  ISO  4  41 100  61 101  72 100  84 101
M  END
> <Batch ID>
0053

> <Smiles>
CNC(C)C(=O)NC(C(=O)N1Cc2cc([101O:1][101CH2:1]C(C)NC(=O)C=Cc3cc([100NH:0][100C:0](=O)N4CCCC(n5nc(-c6ccc(Oc7ccc(F)cc7F)cc6)c(C(N)=O)c5N)C4)cc(F)c3C)ccc2CC1C(=O)NC1CCCc2ccccc21)C(C)(C)C

> <Shape>
0.250

> <Color>
0.068

> <Negative vol penalty>
0.000

$$$$

  -OEChem-04042322433D

 84 92  0     1  0  0  0  0  0999 V2000
  -22.2173  -12.2221   18.7097 C   0  0  0  0  0  0  0  0  0  0  0  0
  -21.9754  -13.5312   19.1136 C   0  0  0  0  0  0  0  0  0  0  0  0
  -30.2761  -27.2563   19.9650 C   0  0  0  0  0  0  0  0  0  0  0  0
  -29.1884  -26.7829   22.0697 C   0  0  0  0  0  0  0  0  0  0  0  0
  -19.8244  -27.2694   23.7457 C   0  0  0  0  0  0  0  0  0  0  0  0
  -23.3979  -11.5840   19.0877 C   0  0  0  0  0  0  0  0  0  0  0  0
  -22.9136  -14.2027   19.8967 C   0  0  0  0  0  0  0  0  0  0  0  0
  -24.2616  -20.1740   19.7172 C   0  0  0  0  0  0  0  0  0  0  0  0
  -31.3818  -27.7604   20.6498 C   0  0  0  0  0  0  0  0  0  0  0  0
  -30.2941  -27.2870   22.7546 C   0  0  0  0  0  0  0  0  0  0  0  0
  -23.8554  -21.2513   20.5033 C   0  0  0  0  0  0  0  0  0  0  0  0
  -32.6793  -28.7798   25.0550 C   0  0  0  0  0  0  0  0  0  0  0  0
  -32.4410  -29.6375   26.1289 C   0  0  0  0  0  0  0  0  0  0  0  0
  -18.5775  -27.7487   23.3444 C   0  0  0  0  0  0  0  0  0  0  0  0
  -25.8545  -21.0259   21.8346 C   0  0  0  0  0  0  0  0  0  0  0  0
  -19.5092  -28.3835   21.2076 C   0  0  0  0  0  0  0  0  0  0  0  0
  -31.3100  -31.1763   24.6489 C   0  0  0  0  0  0  0  0  0  0  0  0
  -29.1794  -26.7675   20.6750 C   0  0  0  0  0  0  0  0  0  0  0  0
  -20.9138  -27.3473   22.8779 C   0  0  0  0  0  0  0  0  0  0  0  0
  -27.8235  -24.9172   19.5590 C   0  0  0  0  0  0  0  0  0  0  0  0
  -24.3554  -12.2513   19.8678 C   0  0  0  0  0  0  0  0  0  0  0  0
  -25.4641  -19.5065   19.9910 C   0  0  0  0  0  0  0  0  0  0  0  0
  -24.1075  -13.5725   20.2867 C   0  0  0  0  0  0  0  0  0  0  0  0
  -26.2749  -19.9420   21.0488 C   0  0  0  0  0  0  0  0  0  0  0  0
  -20.7561  -27.9043   21.6089 C   0  0  0  0  0  0  0  0  0  0  0  0
  -31.3908  -27.7758   22.0446 C   0  0  0  0  0  0  0  0  0  0  0  0
  -24.6504  -21.6756   21.5640 C   0  0  0  0  0  0  0  0  0  0  0  0
  -32.2330  -29.1204   23.7781 C   0  0  0  0  0  0  0  0  0  0  0  0
  -31.7564  -30.8357   25.9258 C   0  0  0  0  0  0  0  0  0  0  0  0
  -31.5483  -30.3186   23.5750 C   0  0  0  0  0  0  0  0  0  0  0  0
  -18.4198  -28.3057   22.0753 C   0  0  0  0  0  0  0  0  0  0  0  0
  -28.0367  -26.2472   19.9682 C   0  0  0  0  0  0  0  0  0  0  0  0
  -26.6009  -24.9420   18.9337 C   0  0  0  0  0  0  0  0  0  0  0  0
  -22.3084  -25.3904   23.7087 C   0  0  0  0  0  0  0  0  0  0  0  0
  -23.4672  -24.8762   24.1437 C   0  0  0  0  0  0  0  0  0  0  0  0
  -22.2252  -26.8284   23.3363 C   0  0  0  0  0  0  0  0  0  0  0  0
  -28.6562  -23.7624   19.7291 C   0  0  0  0  0  0  0  0  0  0  0  0
  -26.2432  -16.5395   20.8240 C   0  0  0  0  0  0  0  0  0  0  0  0
  -29.2695  -17.6421   20.4391 C   0  0  0  0  0  0  0  0  0  0  0  0
  -31.3953  -20.3113   20.3828 C   0  0  0  0  0  0  0  0  0  0  0  0
  -21.8395  -28.5196   19.4194 C   0  0  0  0  0  0  0  0  0  0  0  0
  -25.5952  -11.5042   20.2914 C   0  0  0  0  0  0  0  0  0  0  0  0
  -25.9012  -18.3630   19.1170 C   0  0  0  0  0  0  0  0  0  0  0  0
  -27.5846  -19.2720   21.3718 C   0  0  0  0  0  0  0  0  0  0  0  0
  -26.7073  -12.4132   20.8083 C   0  0  0  0  0  0  0  0  0  0  0  0
  -23.7157  -27.8609   16.4658 C   0  0  0  0  0  0  0  0  0  0  0  0
  -26.1472  -13.4354   21.7923 C   0  0  0  0  0  0  0  0  0  0  0  0
  -25.0148  -27.2457   16.9912 C   0  0  0  0  0  0  0  0  0  0  0  0
  -23.1978  -28.9644   17.3866 C   0  0  0  0  0  0  0  0  0  0  0  0
  -24.3488  -27.9634   19.3211 C   0  0  0  0  0  0  0  0  0  0  0  0
  -25.1122  -14.3426   21.1160 C   0  0  1  0  0  0  0  0  0  0  0  0
  -26.8941  -17.4310   19.8046 C   0  0  1  0  0  0  0  0  0  0  0  0
  -24.8746  -26.8028   18.4608 C   0  0  2  0  0  0  0  0  0  0  0  0
  -33.5403  -21.5733   20.0607 C   0  0  0  0  0  0  0  0  0  0  0  0
  -29.8598  -16.6397   23.2599 C   0  0  0  0  0  0  0  0  0  0  0  0
  -31.9221  -18.0594   23.2577 C   0  0  0  0  0  0  0  0  0  0  0  0
  -31.6798  -16.2123   21.5987 C   0  0  0  0  0  0  0  0  0  0  0  0
  -30.8254  -20.7783   17.5164 C   0  0  0  0  0  0  0  0  0  0  0  0
  -23.6316  -23.4383   24.5525 C   0  0  0  0  0  0  0  0  0  0  0  0
  -24.6729  -22.7249   23.6981 C   0  0  0  0  0  0  0  0  0  1  0  0
  -30.2874  -18.3060   21.3347 C   0  0  1  0  0  0  0  0  0  0  0  0
  -32.4717  -20.7210   19.3939 C   0  0  2  0  0  0  0  0  0  0  0  0
  -30.9117  -17.3160   22.3581 C   0  0  0  0  0  0  0  0  0  0  0  0
  -27.0303  -27.0580   19.6310 N   0  0  0  0  0  0  0  0  0  0  0  0
  -26.1729  -26.2352   19.0033 N   0  0  0  0  0  0  0  0  0  0  0  0
  -27.9655  -18.1546   20.4922 N   0  0  0  0  0  0  0  0  0  0  0  0
  -23.0865  -28.4710   18.7610 N   0  0  0  0  0  0  0  0  0  0  0  0
  -25.8609  -23.9838   18.3366 N   0  0  0  0  0  0  0  0  0  0  0  0
  -29.8802  -23.9135   20.3948 N   0  0  0  0  0  0  0  0  0  0  0  0
  -21.8482  -27.9926   20.7104 N   0  0  0  0  0  0  0  0  0  0  0  0
  -25.7712  -15.3472   20.3092 N   0  0  0  0  0  0  0  0  0  0  0  0
  -31.2576  -18.9409   20.4492 N   0  0  0  0  0  0  0  0  0  0  0  0
  -31.8760  -21.5047   18.2750 N   0  3  0  0  0  0  0  0  0  0  0  0
  -23.1844  -27.5875   23.4202 O   0  0  0  0  0  0  0  0  0  0  0  0
  -28.3321  -22.6334   19.2889 O   0  0  0  0  0  0  0  0  0  0  0  0
  -26.1756  -16.9056   21.9915 O   0  0  0  0  0  0  0  0  0  0  0  0
  -29.6201  -16.7080   19.7138 O   0  0  0  0  0  0  0  0  0  0  0  0
  -30.7444  -21.1253   21.0341 O   0  0  0  0  0  0  0  0  0  0  0  0
  -20.8316  -28.9688   18.8678 O   0  0  0  0  0  0  0  0  0  0  0  0
  -32.4696  -28.2674   22.7131 O   0  0  0  0  0  0  0  0  0  0  0  0
  -24.2560  -22.7265   22.3334 O   0  0  0  0  0  0  0  0  0  1  0  0
  -31.5263  -31.6586   26.9574 F   0  0  0  0  0  0  0  0  0  0  0  0
  -31.1161  -30.6505   22.3508 F   0  0  0  0  0  0  0  0  0  0  0  0
  -16.8806  -28.8960   21.5809 Cl  0  0  0  0  0  0  0  0  0  0  0  0
  1  2  1  0  0  0  0
  1  6  2  0  0  0  0
  2  7  2  0  0  0  0
  3  9  2  0  0  0  0
  3 18  1  0  0  0  0
  4 10  1  0  0  0  0
  4 18  2  0  0  0  0
  5 14  2  0  0  0  0
  5 19  1  0  0  0  0
  6 21  1  0  0  0  0
  7 23  1  0  0  0  0
  8 11  2  0  0  0  0
  8 22  1  0  0  0  0
  9 26  1  0  0  0  0
 10 26  2  0  0  0  0
 11 27  1  0  0  0  0
 12 13  2  0  0  0  0
 12 28  1  0  0  0  0
 13 29  1  0  0  0  0
 14 31  1  0  0  0  0
 15 24  1  0  0  0  0
 15 27  2  0  0  0  0
 16 25  1  0  0  0  0
 16 31  2  0  0  0  0
 17 29  2  0  0  0  0
 17 30  1  0  0  0  0
 18 32  1  0  0  0  0
 19 25  2  0  0  0  0
 19 36  1  0  0  0  0
 20 32  1  0  0  0  0
 20 33  2  0  0  0  0
 20 37  1  0  0  0  0
 21 23  2  0  0  0  0
 21 42  1  0  0  0  0
 22 24  2  0  0  0  0
 22 43  1  0  0  0  0
 23 51  1  0  0  0  0
 24 44  1  0  0  0  0
 25 70  1  0  0  0  0
 26 80  1  0  0  0  0
 27 81  1  0  0  0  0
 28 30  2  0  0  0  0
 28 80  1  0  0  0  0
 29 82  1  0  0  0  0
 30 83  1  0  0  0  0
 31 84  1  0  0  0  0
 32 64  2  0  0  0  0
 33 65  1  0  0  0  0
 33 68  1  0  0  0  0
 34 35  2  0  0  0  0
 34 36  1  0  0  0  0
 35 59  1  0  0  0  0
 36 74  2  0  0  0  0
 37 69  1  0  0  0  0
 37 75  2  0  0  0  0
 38 52  1  0  0  0  0
 38 71  1  0  0  0  0
 38 76  2  0  0  0  0
 39 61  1  0  0  0  0
 39 66  1  0  0  0  0
 39 77  2  0  0  0  0
 40 62  1  0  0  0  0
 40 72  1  0  0  0  0
 40 78  2  0  0  0  0
 41 67  1  0  0  0  0
 41 70  1  0  0  0  0
 41 79  2  0  0  0  0
 42 45  1  0  0  0  0
 43 52  1  0  0  0  0
 44 66  1  0  0  0  0
 45 47  1  0  0  0  0
 46 48  1  0  0  0  0
 46 49  1  0  0  0  0
 47 51  1  0  0  0  0
 48 53  1  0  0  0  0
 49 67  1  0  0  0  0
 50 53  1  0  0  0  0
 50 67  1  0  0  0  0
 51 71  1  0  0  0  0
 52 66  1  0  0  0  0
 53 65  1  0  0  0  0
 54 62  1  0  0  0  0
 55 63  1  0  0  0  0
 56 63  1  0  0  0  0
 57 63  1  0  0  0  0
 58 73  1  0  0  0  0
 59 60  1  0  0  0  0
 60 81  1  0  0  0  0
 61 63  1  0  0  0  0
 61 72  1  0  0  0  0
 62 73  1  0  0  0  0
 64 65  1  0  0  0  0
M  CHG  1  73   1
M  ISO  4  41 100  60 101  70 100  81 101
M  END
> <Batch ID>
0053

> <Smiles>
CNC(C)C(=O)NC(C(=O)N1Cc2cc([101O:1][101CH2:1]CC=CC(=O)c3ccc(Cl)cc3[100NH:0][100C:0](=O)N3CCCC(n4nc(-c5ccc(Oc6ccc(F)cc6F)cc5)c(C(N)=O)c4N)C3)ccc2CC1C(=O)NC1CCCc2ccccc21)C(C)(C)C

> <Shape>
0.197

> <Color>
0.072

> <Negative vol penalty>
0.000

$$$$

  -OEChem-04042322433D

 86 94  0     1  0  0  0  0  0999 V2000
  -38.2778  -21.4469   22.2692 C   0  0  0  0  0  0  0  0  0  0  0  0
  -30.7670  -30.5436   22.5162 C   0  0  0  0  0  0  0  0  0  0  0  0
  -31.6461  -29.4900   22.7452 C   0  0  0  0  0  0  0  0  0  0  0  0
  -30.4581  -18.3577   24.0300 C   0  0  0  0  0  0  0  0  0  0  0  0
  -23.0788   -9.8678   19.9422 C   0  0  0  0  0  0  0  0  0  0  0  0
  -23.8372   -9.8809   22.2360 C   0  0  0  0  0  0  0  0  0  0  0  0
  -29.8490  -30.9102   23.4994 C   0  0  0  0  0  0  0  0  0  0  0  0
  -31.6084  -28.8030   23.9581 C   0  0  0  0  0  0  0  0  0  0  0  0
  -31.8381  -23.7804   23.3539 C   0  0  0  0  0  0  0  0  0  0  0  0
  -31.8436  -18.3771   24.1898 C   0  0  0  0  0  0  0  0  0  0  0  0
  -29.8725  -17.4711   23.1263 C   0  0  0  0  0  0  0  0  0  0  0  0
  -22.3358   -8.7146   20.1943 C   0  0  0  0  0  0  0  0  0  0  0  0
  -23.0941   -8.7276   22.4882 C   0  0  0  0  0  0  0  0  0  0  0  0
  -33.0901  -23.2277   23.0881 C   0  0  0  0  0  0  0  0  0  0  0  0
  -19.8663   -7.9284   23.0905 C   0  0  0  0  0  0  0  0  0  0  0  0
  -19.1086   -7.8905   24.2609 C   0  0  0  0  0  0  0  0  0  0  0  0
  -33.2925  -22.5868   25.4048 C   0  0  0  0  0  0  0  0  0  0  0  0
  -32.0581  -16.6234   22.5419 C   0  0  0  0  0  0  0  0  0  0  0  0
  -20.3512   -5.9559   25.0027 C   0  0  0  0  0  0  0  0  0  0  0  0
  -23.8296  -10.4510   20.9630 C   0  0  0  0  0  0  0  0  0  0  0  0
  -24.1692  -12.9761   20.8373 C   0  0  0  0  0  0  0  0  0  0  0  0
  -29.7935  -30.2212   24.7212 C   0  0  0  0  0  0  0  0  0  0  0  0
  -31.3077  -23.7501   24.6517 C   0  0  0  0  0  0  0  0  0  0  0  0
  -30.6897  -29.1616   24.9591 C   0  0  0  0  0  0  0  0  0  0  0  0
  -32.0324  -23.1375   25.6840 C   0  0  0  0  0  0  0  0  0  0  0  0
  -32.6436  -17.5100   23.4457 C   0  0  0  0  0  0  0  0  0  0  0  0
  -30.6725  -16.6039   22.3822 C   0  0  0  0  0  0  0  0  0  0  0  0
  -22.3434   -8.1445   21.4673 C   0  0  0  0  0  0  0  0  0  0  0  0
  -33.8188  -22.6333   24.1141 C   0  0  0  0  0  0  0  0  0  0  0  0
  -20.8664   -6.9800   22.8760 C   0  0  0  0  0  0  0  0  0  0  0  0
  -19.3511   -6.9043   25.2171 C   0  0  0  0  0  0  0  0  0  0  0  0
  -21.1089   -5.9938   23.8322 C   0  0  0  0  0  0  0  0  0  0  0  0
  -24.5978  -11.6419   20.7030 C   0  0  0  0  0  0  0  0  0  0  0  0
  -25.2610  -13.7257   20.4730 C   0  0  0  0  0  0  0  0  0  0  0  0
  -22.8980  -13.4918   21.2542 C   0  0  0  0  0  0  0  0  0  0  0  0
  -30.4487  -25.9532   26.7758 C   0  0  0  0  0  0  0  0  0  0  0  0
  -29.3896  -23.3771   28.4385 C   0  0  0  0  0  0  0  0  0  0  0  0
  -35.9011  -19.2801   23.4260 C   0  0  0  0  0  0  0  0  0  0  0  0
  -29.6074  -20.0237   29.0339 C   0  0  0  0  0  0  0  0  0  0  0  0
  -30.7261  -14.7766   20.6489 C   0  0  0  0  0  0  0  0  0  0  0  0
  -28.8158  -30.6844   25.7721 C   0  0  0  0  0  0  0  0  0  0  0  0
  -29.9441  -24.3270   24.9166 C   0  0  0  0  0  0  0  0  0  0  0  0
  -31.4987  -23.0610   27.0904 C   0  0  0  0  0  0  0  0  0  0  0  0
  -28.5881  -29.6638   26.8842 C   0  0  0  0  0  0  0  0  0  0  0  0
  -29.6154  -12.3562   18.2855 C   0  0  0  0  0  0  0  0  0  0  0  0
  -29.9194  -29.1059   27.3776 C   0  0  0  0  0  0  0  0  0  0  0  0
  -28.1757  -12.0644   18.7148 C   0  0  0  0  0  0  0  0  0  0  0  0
  -30.5295  -12.5887   19.4872 C   0  0  0  0  0  0  0  0  0  0  0  0
  -28.6210  -13.3147   20.8655 C   0  0  0  0  0  0  0  0  0  0  0  0
  -30.6628  -28.3762   26.2523 C   0  0  1  0  0  0  0  0  0  0  0  0
  -29.7258  -24.6967   26.3805 C   0  0  1  0  0  0  0  0  0  0  0  0
  -27.6491  -13.1378   19.6875 C   0  0  2  0  0  0  0  0  0  0  0  0
  -29.0159  -17.7890   30.0103 C   0  0  0  0  0  0  0  0  0  0  0  0
  -31.0481  -24.3746   30.7974 C   0  0  0  0  0  0  0  0  0  0  0  0
  -30.8168  -22.1056   31.8298 C   0  0  0  0  0  0  0  0  0  0  0  0
  -28.7882  -23.4950   31.4088 C   0  0  0  0  0  0  0  0  0  0  0  0
  -27.6812  -19.4541   26.8603 C   0  0  0  0  0  0  0  0  0  0  0  0
  -34.1349  -17.5312   23.6180 C   0  0  0  0  0  0  0  0  0  0  0  0
  -35.2575  -21.5679   22.5486 C   0  0  0  0  0  0  0  0  0  1  0  0
  -29.9941  -22.4379   29.4541 C   0  0  1  0  0  0  0  0  0  0  0  0
  -36.3069  -20.4620   22.5586 C   0  0  1  0  0  0  0  0  0  0  0  0
  -28.5406  -18.9501   29.1508 C   0  0  2  0  0  0  0  0  0  0  0  0
  -30.1730  -23.1063   30.8465 C   0  0  0  0  0  0  0  0  0  0  0  0
  -25.8630  -11.5462   20.2858 N   0  0  0  0  0  0  0  0  0  0  0  0
  -37.5683  -20.9923   23.0853 N   0  0  0  0  0  0  0  0  0  0  0  0
  -26.2388  -12.8298   20.1547 N   0  0  0  0  0  0  0  0  0  0  0  0
  -30.1636  -23.6448   27.3004 N   0  0  0  0  0  0  0  0  0  0  0  0
  -29.9690  -13.6211   20.3618 N   0  0  0  0  0  0  0  0  0  0  0  0
  -25.4702  -15.0572   20.3970 N   0  0  0  0  0  0  0  0  0  0  0  0
  -21.8867  -12.5825   21.5929 N   0  0  0  0  0  0  0  0  0  0  0  0
  -30.0774  -15.7030   21.4647 N   0  0  0  0  0  0  0  0  0  0  0  0
  -30.0909  -27.0644   26.0365 N   0  0  0  0  0  0  0  0  0  0  0  0
  -34.7376  -18.6755   22.9728 N   0  0  0  0  0  0  0  0  0  0  0  0
  -29.1476  -21.2497   29.4660 N   0  0  0  0  0  0  0  0  0  0  0  0
  -28.1865  -18.4227   27.8026 N   0  3  0  0  0  0  0  0  0  0  0  0
  -38.9931  -21.9042   21.4550 O   0  0  0  0  0  0  0  0  0  0  0  0
  -22.6606  -14.7223   21.3085 O   0  0  0  0  0  0  0  0  0  0  0  0
  -31.2691  -25.9175   27.6854 O   0  0  0  0  0  0  0  0  0  0  0  0
  -28.2690  -23.8499   28.6437 O   0  0  0  0  0  0  0  0  0  0  0  0
  -36.5447  -18.9221   24.4099 O   0  0  0  0  0  0  0  0  0  0  0  0
  -30.7369  -19.7967   28.6059 O   0  0  0  0  0  0  0  0  0  0  0  0
  -31.8554  -14.9452   20.1816 O   0  0  0  0  0  0  0  0  0  0  0  0
  -21.6183   -7.0194   21.7138 O   0  0  0  0  0  0  0  0  0  0  0  0
  -35.0414  -22.0936   23.8575 O   0  0  0  0  0  0  0  0  0  1  0  0
  -18.6244   -6.8690   26.3418 F   0  0  0  0  0  0  0  0  0  0  0  0
  -22.0692   -5.0806   23.6324 F   0  0  0  0  0  0  0  0  0  0  0  0
  1 65  2  0  0  0  0
  1 76  2  0  0  0  0
  2  3  1  0  0  0  0
  2  7  2  0  0  0  0
  3  8  2  0  0  0  0
  4 10  2  0  0  0  0
  4 11  1  0  0  0  0
  5 12  2  0  0  0  0
  5 20  1  0  0  0  0
  6 13  1  0  0  0  0
  6 20  2  0  0  0  0
  7 22  1  0  0  0  0
  8 24  1  0  0  0  0
  9 14  2  0  0  0  0
  9 23  1  0  0  0  0
 10 26  1  0  0  0  0
 11 27  2  0  0  0  0
 12 28  1  0  0  0  0
 13 28  2  0  0  0  0
 14 29  1  0  0  0  0
 15 16  2  0  0  0  0
 15 30  1  0  0  0  0
 16 31  1  0  0  0  0
 17 25  1  0  0  0  0
 17 29  2  0  0  0  0
 18 26  2  0  0  0  0
 18 27  1  0  0  0  0
 19 31  2  0  0  0  0
 19 32  1  0  0  0  0
 20 33  1  0  0  0  0
 21 33  1  0  0  0  0
 21 34  2  0  0  0  0
 21 35  1  0  0  0  0
 22 24  2  0  0  0  0
 22 41  1  0  0  0  0
 23 25  2  0  0  0  0
 23 42  1  0  0  0  0
 24 50  1  0  0  0  0
 25 43  1  0  0  0  0
 26 58  1  0  0  0  0
 27 71  1  0  0  0  0
 28 83  1  0  0  0  0
 29 84  1  0  0  0  0
 30 32  2  0  0  0  0
 30 83  1  0  0  0  0
 31 85  1  0  0  0  0
 32 86  1  0  0  0  0
 33 64  2  0  0  0  0
 34 66  1  0  0  0  0
 34 69  1  0  0  0  0
 35 70  1  0  0  0  0
 35 77  2  0  0  0  0
 36 51  1  0  0  0  0
 36 72  1  0  0  0  0
 36 78  2  0  0  0  0
 37 60  1  0  0  0  0
 37 67  1  0  0  0  0
 37 79  2  0  0  0  0
 38 61  1  0  0  0  0
 38 73  1  0  0  0  0
 38 80  2  0  0  0  0
 39 62  1  0  0  0  0
 39 74  1  0  0  0  0
 39 81  2  0  0  0  0
 40 68  1  0  0  0  0
 40 71  1  0  0  0  0
 40 82  2  0  0  0  0
 41 44  1  0  0  0  0
 42 51  1  0  0  0  0
 43 67  1  0  0  0  0
 44 46  1  0  0  0  0
 45 47  1  0  0  0  0
 45 48  1  0  0  0  0
 46 50  1  0  0  0  0
 47 52  1  0  0  0  0
 48 68  1  0  0  0  0
 49 52  1  0  0  0  0
 49 68  1  0  0  0  0
 50 72  1  0  0  0  0
 51 67  1  0  0  0  0
 52 66  1  0  0  0  0
 53 62  1  0  0  0  0
 54 63  1  0  0  0  0
 55 63  1  0  0  0  0
 56 63  1  0  0  0  0
 57 75  1  0  0  0  0
 58 73  1  0  0  0  0
 59 61  1  0  0  0  0
 59 84  1  0  0  0  0
 60 63  1  0  0  0  0
 60 74  1  0  0  0  0
 61 65  1  0  0  0  0
 62 75  1  0  0  0  0
 64 66  1  0  0  0  0
M  CHG  1  75   1
M  ISO  4  40 100  59 101  71 100  84 101
M  END
> <Batch ID>
0053

> <Smiles>
CNC(C)C(=O)NC(C(=O)N1Cc2cc([101O:1][101CH2:1]C(N=C=O)C(=O)NCc3cccc([100NH:0][100C:0](=O)N4CCCC(n5nc(-c6ccc(Oc7ccc(F)cc7F)cc6)c(C(N)=O)c5N)C4)c3)ccc2CC1C(=O)NC1CCCc2ccccc21)C(C)(C)C

> <Shape>
0.170

> <Color>
0.187

> <Negative vol penalty>
0.000

$$$$

  -OEChem-04042322433D

 84 92  0     1  0  0  0  0  0999 V2000
  -32.2223  -25.9765   17.7316 C   0  0  0  0  0  0  0  0  0  0  0  0
  -31.0133  -25.7153   18.3684 C   0  0  0  0  0  0  0  0  0  0  0  0
  -24.8879   -8.7086   21.4044 C   0  0  0  0  0  0  0  0  0  0  0  0
  -23.3975   -9.7420   19.8082 C   0  0  0  0  0  0  0  0  0  0  0  0
  -22.0296  -18.7100   18.5886 C   0  0  0  0  0  0  0  0  0  0  0  0
  -33.0616  -26.9790   18.2157 C   0  0  0  0  0  0  0  0  0  0  0  0
  -30.6435  -26.4558   19.4906 C   0  0  0  0  0  0  0  0  0  0  0  0
  -25.8060  -27.9450   19.3277 C   0  0  0  0  0  0  0  0  0  0  0  0
  -23.0537  -17.8177   18.9057 C   0  0  0  0  0  0  0  0  0  0  0  0
  -23.9207   -7.7427   21.6822 C   0  0  0  0  0  0  0  0  0  0  0  0
  -22.4303   -8.7761   20.0860 C   0  0  0  0  0  0  0  0  0  0  0  0
  -24.8363  -26.9946   19.6441 C   0  0  0  0  0  0  0  0  0  0  0  0
  -21.0840   -7.5113   23.5053 C   0  0  0  0  0  0  0  0  0  0  0  0
  -20.8481   -7.1976   24.8437 C   0  0  0  0  0  0  0  0  0  0  0  0
  -24.6611  -27.9215   21.8644 C   0  0  0  0  0  0  0  0  0  0  0  0
  -23.6264  -19.1595   20.8315 C   0  0  0  0  0  0  0  0  0  0  0  0
  -21.4714   -4.9029   24.4158 C   0  0  0  0  0  0  0  0  0  0  0  0
  -24.6263   -9.7083   20.4674 C   0  0  0  0  0  0  0  0  0  0  0  0
  -21.8039  -19.8271   19.3928 C   0  0  0  0  0  0  0  0  0  0  0  0
  -26.6321  -10.6440   19.1990 C   0  0  0  0  0  0  0  0  0  0  0  0
  -32.6974  -27.7387   19.3386 C   0  0  0  0  0  0  0  0  0  0  0  0
  -26.2192  -28.8854   20.2823 C   0  0  0  0  0  0  0  0  0  0  0  0
  -31.4794  -27.4686   19.9911 C   0  0  0  0  0  0  0  0  0  0  0  0
  -25.6344  -28.8843   21.5567 C   0  0  0  0  0  0  0  0  0  0  0  0
  -22.6023  -20.0519   20.5143 C   0  0  0  0  0  0  0  0  0  0  0  0
  -23.8521  -18.0424   20.0272 C   0  0  0  0  0  0  0  0  0  0  0  0
  -22.6919   -7.7764   21.0230 C   0  0  0  0  0  0  0  0  0  0  0  0
  -24.2658  -26.9809   20.9135 C   0  0  0  0  0  0  0  0  0  0  0  0
  -21.5135   -6.5208   22.6220 C   0  0  0  0  0  0  0  0  0  0  0  0
  -21.0418   -5.8935   25.2991 C   0  0  0  0  0  0  0  0  0  0  0  0
  -21.7072   -5.2166   23.0773 C   0  0  0  0  0  0  0  0  0  0  0  0
  -25.6248  -10.7066   20.1804 C   0  0  0  0  0  0  0  0  0  0  0  0
  -27.3130  -11.8296   19.3296 C   0  0  0  0  0  0  0  0  0  0  0  0
  -20.7280  -20.7430   19.0379 C   0  0  0  0  0  0  0  0  0  0  0  0
  -26.9259   -9.6068   18.2537 C   0  0  0  0  0  0  0  0  0  0  0  0
  -28.9725  -29.5618   21.7194 C   0  0  0  0  0  0  0  0  0  0  0  0
  -27.2815  -32.0520   22.9285 C   0  0  0  0  0  0  0  0  0  0  0  0
  -22.8206  -23.6948   21.4246 C   0  0  0  0  0  0  0  0  0  0  0  0
  -24.2388  -33.3602   23.7514 C   0  0  0  0  0  0  0  0  0  0  0  0
  -25.7758  -17.2104   21.4248 C   0  0  0  0  0  0  0  0  0  0  0  0
  -33.6592  -28.7801   19.8535 C   0  0  0  0  0  0  0  0  0  0  0  0
  -27.2471  -29.9209   19.9167 C   0  0  0  0  0  0  0  0  0  0  0  0
  -26.0286  -29.8852   22.6109 C   0  0  0  0  0  0  0  0  0  0  0  0
  -33.0217  -29.7713   20.8238 C   0  0  0  0  0  0  0  0  0  0  0  0
  -28.4464  -15.1586   22.5804 C   0  0  0  0  0  0  0  0  0  0  0  0
  -32.1796  -29.0359   21.8616 C   0  0  0  0  0  0  0  0  0  0  0  0
  -28.1208  -13.7797   22.0017 C   0  0  0  0  0  0  0  0  0  0  0  0
  -27.1845  -15.9082   23.0043 C   0  0  0  0  0  0  0  0  0  0  0  0
  -25.8244  -14.6390   21.3892 C   0  0  0  0  0  0  0  0  0  0  0  0
  -31.0318  -28.2670   21.1962 C   0  0  1  0  0  0  0  0  0  0  0  0
  -27.9634  -30.5061   21.1299 C   0  0  1  0  0  0  0  0  0  0  0  0
  -27.0592  -13.8723   20.8882 C   0  0  2  0  0  0  0  0  0  0  0  0
  -23.1784  -35.4005   24.7565 C   0  0  0  0  0  0  0  0  0  0  0  0
  -28.1581  -31.1371   25.7042 C   0  0  0  0  0  0  0  0  0  0  0  0
  -26.3523  -32.5760   26.6723 C   0  0  0  0  0  0  0  0  0  0  0  0
  -28.2024  -33.6138   25.3597 C   0  0  0  0  0  0  0  0  0  0  0  0
  -22.7140  -33.9277   21.2793 C   0  0  0  0  0  0  0  0  0  0  0  0
  -22.3817  -21.2469   21.3960 C   0  0  0  0  0  0  0  0  0  0  0  0
  -23.4007  -24.7939   20.5603 C   0  0  0  0  0  0  0  0  0  1  0  0
  -26.4305  -32.2707   24.1561 C   0  0  1  0  0  0  0  0  0  0  0  0
  -23.6161  -34.7159   23.4710 C   0  0  2  0  0  0  0  0  0  0  0  0
  -27.2796  -32.3792   25.4541 C   0  0  0  0  0  0  0  0  0  0  0  0
  -25.6592  -11.8422   20.8828 N   0  0  0  0  0  0  0  0  0  0  0  0
  -26.6964  -12.5040   20.3421 N   0  0  0  0  0  0  0  0  0  0  0  0
  -27.0422  -30.8737   22.2072 N   0  0  0  0  0  0  0  0  0  0  0  0
  -26.2265  -15.9598   21.8978 N   0  0  0  0  0  0  0  0  0  0  0  0
  -28.3730  -12.3507   18.6760 N   0  0  0  0  0  0  0  0  0  0  0  0
  -26.1269   -8.4553   18.2554 N   0  0  0  0  0  0  0  0  0  0  0  0
  -24.8922  -17.1354   20.3486 N   0  0  0  0  0  0  0  0  0  0  0  0
  -29.9602  -29.1705   20.8358 N   0  0  0  0  0  0  0  0  0  0  0  0
  -22.8719  -22.4634   20.7903 N   0  0  0  0  0  0  0  0  0  0  0  0
  -25.6091  -33.4442   23.8795 N   0  0  0  0  0  0  0  0  0  0  0  0
  -22.4241  -34.5660   22.5891 N   0  3  0  0  0  0  0  0  0  0  0  0
  -20.0028  -20.5779   18.0547 O   0  0  0  0  0  0  0  0  0  0  0  0
  -27.8793   -9.6913   17.4429 O   0  0  0  0  0  0  0  0  0  0  0  0
  -28.8640  -29.2151   22.8898 O   0  0  0  0  0  0  0  0  0  0  0  0
  -28.1225  -32.8989   22.6168 O   0  0  0  0  0  0  0  0  0  0  0  0
  -22.3663  -23.9017   22.5466 O   0  0  0  0  0  0  0  0  0  0  0  0
  -23.5756  -32.3303   23.8509 O   0  0  0  0  0  0  0  0  0  0  0  0
  -26.1676  -18.2707   21.9191 O   0  0  0  0  0  0  0  0  0  0  0  0
  -21.7480   -6.8339   21.2936 O   0  0  0  0  0  0  0  0  0  0  0  0
  -23.3195  -26.0540   21.2253 O   0  0  0  0  0  0  0  0  0  1  0  0
  -20.8168   -5.5927   26.5848 F   0  0  0  0  0  0  0  0  0  0  0  0
  -22.1209   -4.2610   22.2338 F   0  0  0  0  0  0  0  0  0  0  0  0
  1  2  1  0  0  0  0
  1  6  2  0  0  0  0
  2  7  2  0  0  0  0
  3 10  2  0  0  0  0
  3 18  1  0  0  0  0
  4 11  1  0  0  0  0
  4 18  2  0  0  0  0
  5  9  2  0  0  0  0
  5 19  1  0  0  0  0
  6 21  1  0  0  0  0
  7 23  1  0  0  0  0
  8 12  2  0  0  0  0
  8 22  1  0  0  0  0
  9 26  1  0  0  0  0
 10 27  1  0  0  0  0
 11 27  2  0  0  0  0
 12 28  1  0  0  0  0
 13 14  2  0  0  0  0
 13 29  1  0  0  0  0
 14 30  1  0  0  0  0
 15 24  1  0  0  0  0
 15 28  2  0  0  0  0
 16 25  1  0  0  0  0
 16 26  2  0  0  0  0
 17 30  2  0  0  0  0
 17 31  1  0  0  0  0
 18 32  1  0  0  0  0
 19 25  2  0  0  0  0
 19 34  1  0  0  0  0
 20 32  1  0  0  0  0
 20 33  2  0  0  0  0
 20 35  1  0  0  0  0
 21 23  2  0  0  0  0
 21 41  1  0  0  0  0
 22 24  2  0  0  0  0
 22 42  1  0  0  0  0
 23 50  1  0  0  0  0
 24 43  1  0  0  0  0
 25 58  1  0  0  0  0
 26 69  1  0  0  0  0
 27 81  1  0  0  0  0
 28 82  1  0  0  0  0
 29 31  2  0  0  0  0
 29 81  1  0  0  0  0
 30 83  1  0  0  0  0
 31 84  1  0  0  0  0
 32 63  2  0  0  0  0
 33 64  1  0  0  0  0
 33 67  1  0  0  0  0
 34 74  2  0  0  0  0
 35 68  1  0  0  0  0
 35 75  2  0  0  0  0
 36 51  1  0  0  0  0
 36 70  1  0  0  0  0
 36 76  2  0  0  0  0
 37 60  1  0  0  0  0
 37 65  1  0  0  0  0
 37 77  2  0  0  0  0
 38 59  1  0  0  0  0
 38 71  1  0  0  0  0
 38 78  2  0  0  0  0
 39 61  1  0  0  0  0
 39 72  1  0  0  0  0
 39 79  2  0  0  0  0
 40 66  1  0  0  0  0
 40 69  1  0  0  0  0
 40 80  2  0  0  0  0
 41 44  1  0  0  0  0
 42 51  1  0  0  0  0
 43 65  1  0  0  0  0
 44 46  1  0  0  0  0
 45 47  1  0  0  0  0
 45 48  1  0  0  0  0
 46 50  1  0  0  0  0
 47 52  1  0  0  0  0
 48 66  1  0  0  0  0
 49 52  1  0  0  0  0
 49 66  1  0  0  0  0
 50 70  1  0  0  0  0
 51 65  1  0  0  0  0
 52 64  1  0  0  0  0
 53 61  1  0  0  0  0
 54 62  1  0  0  0  0
 55 62  1  0  0  0  0
 56 62  1  0  0  0  0
 57 73  1  0  0  0  0
 58 71  1  0  0  0  0
 59 82  1  0  0  0  0
 60 62  1  0  0  0  0
 60 72  1  0  0  0  0
 61 73  1  0  0  0  0
 63 64  1  0  0  0  0
M  CHG  1  73   1
M  ISO  4  40 100  59 101  69 100  82 101
M  END
> <Batch ID>
0053

> <Smiles>
CNC(C)C(=O)NC(C(=O)N1Cc2cc([101O:1][101CH2:1]C(=O)NCc3cc([100NH:0][100C:0](=O)N4CCCC(n5nc(-c6ccc(Oc7ccc(F)cc7F)cc6)c(C(N)=O)c5N)C4)ccc3C=O)ccc2CC1C(=O)NC1CCCc2ccccc21)C(C)(C)C

> <Shape>
0.244

> <Color>
0.094

> <Negative vol penalty>
0.000

$$$$
