
  -OEChem-04042322463D

 85 93  0     1  0  0  0  0  0999 V2000
  -28.2760  -38.4337   24.3369 C   0  0  0  0  0  0  0  0  0  0  0  0
  -28.8517  -37.2624   23.8552 C   0  0  0  0  0  0  0  0  0  0  0  0
  -24.1290   -9.4575   21.7887 C   0  0  0  0  0  0  0  0  0  0  0  0
  -24.5077  -10.9316   23.6651 C   0  0  0  0  0  0  0  0  0  0  0  0
  -27.1390  -38.3705   25.1414 C   0  0  0  0  0  0  0  0  0  0  0  0
  -28.2914  -36.0272   24.1786 C   0  0  0  0  0  0  0  0  0  0  0  0
  -28.0658  -31.0436   20.6262 C   0  0  0  0  0  0  0  0  0  0  0  0
  -30.4788  -20.3706   20.1318 C   0  0  0  0  0  0  0  0  0  0  0  0
  -30.3083  -19.0075   19.8902 C   0  0  0  0  0  0  0  0  0  0  0  0
  -23.7203   -8.4501   22.6625 C   0  0  0  0  0  0  0  0  0  0  0  0
  -24.0989   -9.9242   24.5390 C   0  0  0  0  0  0  0  0  0  0  0  0
  -28.8546  -29.8955   20.5698 C   0  0  0  0  0  0  0  0  0  0  0  0
  -20.9458   -7.6549   24.4240 C   0  0  0  0  0  0  0  0  0  0  0  0
  -19.7941   -6.9399   24.0956 C   0  0  0  0  0  0  0  0  0  0  0  0
  -27.2676  -28.7434   21.9745 C   0  0  0  0  0  0  0  0  0  0  0  0
  -28.0815  -20.6518   20.2375 C   0  0  0  0  0  0  0  0  0  0  0  0
  -21.0781   -4.8939   24.0471 C   0  0  0  0  0  0  0  0  0  0  0  0
  -24.5228  -10.6983   22.2900 C   0  0  0  0  0  0  0  0  0  0  0  0
  -24.1370  -12.7190   20.7815 C   0  0  0  0  0  0  0  0  0  0  0  0
  -26.5588  -37.1344   25.4669 C   0  0  0  0  0  0  0  0  0  0  0  0
  -26.8754  -31.0536   21.3674 C   0  0  0  0  0  0  0  0  0  0  0  0
  -27.1463  -35.9474   24.9892 C   0  0  0  0  0  0  0  0  0  0  0  0
  -26.4642  -29.8921   22.0367 C   0  0  0  0  0  0  0  0  0  0  0  0
  -29.3654  -21.1928   20.3055 C   0  0  0  0  0  0  0  0  0  0  0  0
  -29.0244  -18.4665   19.8223 C   0  0  0  0  0  0  0  0  0  0  0  0
  -23.7052   -8.6834   24.0377 C   0  0  0  0  0  0  0  0  0  0  0  0
  -28.4571  -28.7460   21.2464 C   0  0  0  0  0  0  0  0  0  0  0  0
  -22.1637   -6.9895   24.5639 C   0  0  0  0  0  0  0  0  0  0  0  0
  -19.8602   -5.5594   23.9072 C   0  0  0  0  0  0  0  0  0  0  0  0
  -27.9110  -19.2887   19.9959 C   0  0  0  0  0  0  0  0  0  0  0  0
  -22.2299   -5.6090   24.3754 C   0  0  0  0  0  0  0  0  0  0  0  0
  -24.9457  -11.7391   21.3878 C   0  0  0  0  0  0  0  0  0  0  0  0
  -25.0082  -13.4620   20.0231 C   0  0  0  0  0  0  0  0  0  0  0  0
  -22.7245  -12.9380   20.8940 C   0  0  0  0  0  0  0  0  0  0  0  0
  -25.8094  -32.6871   23.8772 C   0  0  0  0  0  0  0  0  0  0  0  0
  -23.0443  -31.1187   23.2318 C   0  0  0  0  0  0  0  0  0  0  0  0
  -21.5066  -28.4176   21.8226 C   0  0  0  0  0  0  0  0  0  0  0  0
  -29.8537  -16.1290   19.3812 C   0  0  0  0  0  0  0  0  0  0  0  0
  -25.3575  -37.1139   26.3786 C   0  0  0  0  0  0  0  0  0  0  0  0
  -26.0222  -32.2920   21.3963 C   0  0  0  0  0  0  0  0  0  0  0  0
  -25.1846  -29.8448   22.8297 C   0  0  0  0  0  0  0  0  0  0  0  0
  -24.6064  -35.7850   26.3667 C   0  0  0  0  0  0  0  0  0  0  0  0
  -29.8435  -12.6186   18.7861 C   0  0  0  0  0  0  0  0  0  0  0  0
  -25.5827  -34.6189   26.4846 C   0  0  0  0  0  0  0  0  0  0  0  0
  -28.5019  -12.1574   19.3600 C   0  0  0  0  0  0  0  0  0  0  0  0
  -30.4663  -13.7331   19.6250 C   0  0  0  0  0  0  0  0  0  0  0  0
  -28.2495  -14.4247   20.4478 C   0  0  0  0  0  0  0  0  0  0  0  0
  -26.5532  -34.5897   25.2977 C   0  0  1  0  0  0  0  0  0  0  0  0
  -25.0899  -32.3472   22.6027 C   0  0  1  0  0  0  0  0  0  0  0  0
  -27.5526  -13.3478   19.6002 C   0  0  2  0  0  0  0  0  0  0  0  0
  -19.2402  -27.3930   21.4890 C   0  0  0  0  0  0  0  0  0  0  0  0
  -23.0389  -30.1902   26.1384 C   0  0  0  0  0  0  0  0  0  0  0  0
  -21.3457  -28.4568   25.5086 C   0  0  0  0  0  0  0  0  0  0  0  0
  -20.8011  -30.8783   25.2588 C   0  0  0  0  0  0  0  0  0  0  0  0
  -21.7370  -28.5839   18.8767 C   0  0  0  0  0  0  0  0  0  0  0  0
  -29.5487  -22.6603   20.5644 C   0  0  0  0  0  0  0  0  0  0  0  0
  -29.9971  -27.4205   20.0105 C   0  0  0  0  0  0  0  0  0  1  0  0
  -30.2147  -25.9357   19.7999 C   0  0  0  0  0  0  0  0  0  0  0  0
  -22.4364  -29.8041   23.6576 C   0  0  1  0  0  0  0  0  0  0  0  0
  -20.3033  -28.3095   20.9035 C   0  0  2  0  0  0  0  0  0  0  0  0
  -21.9307  -29.8335   25.1276 C   0  0  0  0  0  0  0  0  0  0  0  0
  -26.2318  -11.8471   21.0441 N   0  0  0  0  0  0  0  0  0  0  0  0
  -26.2379  -12.9036   20.2135 N   0  0  0  0  0  0  0  0  0  0  0  0
  -24.3879  -31.0829   22.8328 N   0  0  0  0  0  0  0  0  0  0  0  0
  -29.5111  -14.8282   19.8073 N   0  0  0  0  0  0  0  0  0  0  0  0
  -24.8348  -14.5320   19.2184 N   0  0  0  0  0  0  0  0  0  0  0  0
  -21.9790  -12.0819   21.7159 N   0  0  0  0  0  0  0  0  0  0  0  0
  -28.8541  -17.0815   19.5762 N   0  0  0  0  0  0  0  0  0  0  0  0
  -25.9025  -34.0432   24.1262 N   0  0  0  0  0  0  0  0  0  0  0  0
  -21.4023  -29.4956   22.6759 N   0  0  0  0  0  0  0  0  0  0  0  0
  -29.2446  -23.4728   19.3728 N   0  0  0  0  0  0  0  0  0  0  0  0
  -20.7119  -27.7677   19.5767 N   0  3  0  0  0  0  0  0  0  0  0  0
  -22.1382  -13.8552   20.2707 O   0  0  0  0  0  0  0  0  0  0  0  0
  -26.2464  -31.7858   24.5832 O   0  0  0  0  0  0  0  0  0  0  0  0
  -22.3504  -32.1385   23.2458 O   0  0  0  0  0  0  0  0  0  0  0  0
  -22.4435  -27.6228   21.7896 O   0  0  0  0  0  0  0  0  0  0  0  0
  -30.9425  -16.3740   18.8554 O   0  0  0  0  0  0  0  0  0  0  0  0
  -27.9285  -25.1687   20.8172 O   0  0  0  0  0  0  0  0  0  0  0  0
  -28.1024  -25.5198   18.3267 O   0  0  0  0  0  0  0  0  0  0  0  0
  -23.3061   -7.7007   24.8907 O   0  0  0  0  0  0  0  0  0  0  0  0
  -29.2255  -27.6241   21.1935 O   0  0  0  0  0  0  0  0  0  1  0  0
  -18.7538   -4.8726   23.5934 F   0  0  0  0  0  0  0  0  0  0  0  0
  -26.6723  -18.7798   19.9311 F   0  0  0  0  0  0  0  0  0  0  0  0
  -23.3969   -4.9641   24.5096 F   0  0  0  0  0  0  0  0  0  0  0  0
  -28.6874  -25.0754   19.5812 S   0  0  0  0  0  0  0  0  0  0  0  0
  1  2  1  0  0  0  0
  1  5  2  0  0  0  0
  2  6  2  0  0  0  0
  3 10  2  0  0  0  0
  3 18  1  0  0  0  0
  4 11  1  0  0  0  0
  4 18  2  0  0  0  0
  5 20  1  0  0  0  0
  6 22  1  0  0  0  0
  7 12  2  0  0  0  0
  7 21  1  0  0  0  0
  8  9  2  0  0  0  0
  8 24  1  0  0  0  0
  9 25  1  0  0  0  0
 10 26  1  0  0  0  0
 11 26  2  0  0  0  0
 12 27  1  0  0  0  0
 13 14  2  0  0  0  0
 13 28  1  0  0  0  0
 14 29  1  0  0  0  0
 15 23  1  0  0  0  0
 15 27  2  0  0  0  0
 16 24  2  0  0  0  0
 16 30  1  0  0  0  0
 17 29  2  0  0  0  0
 17 31  1  0  0  0  0
 18 32  1  0  0  0  0
 19 32  1  0  0  0  0
 19 33  2  0  0  0  0
 19 34  1  0  0  0  0
 20 22  2  0  0  0  0
 20 39  1  0  0  0  0
 21 23  2  0  0  0  0
 21 40  1  0  0  0  0
 22 48  1  0  0  0  0
 23 41  1  0  0  0  0
 24 56  1  0  0  0  0
 25 30  2  0  0  0  0
 25 68  1  0  0  0  0
 26 80  1  0  0  0  0
 27 81  1  0  0  0  0
 28 31  2  0  0  0  0
 28 80  1  0  0  0  0
 29 82  1  0  0  0  0
 30 83  1  0  0  0  0
 31 84  1  0  0  0  0
 32 62  2  0  0  0  0
 33 63  1  0  0  0  0
 33 66  1  0  0  0  0
 34 67  1  0  0  0  0
 34 73  2  0  0  0  0
 35 49  1  0  0  0  0
 35 69  1  0  0  0  0
 35 74  2  0  0  0  0
 36 59  1  0  0  0  0
 36 64  1  0  0  0  0
 36 75  2  0  0  0  0
 37 60  1  0  0  0  0
 37 70  1  0  0  0  0
 37 76  2  0  0  0  0
 38 65  1  0  0  0  0
 38 68  1  0  0  0  0
 38 77  2  0  0  0  0
 39 42  1  0  0  0  0
 40 49  1  0  0  0  0
 41 64  1  0  0  0  0
 42 44  1  0  0  0  0
 43 45  1  0  0  0  0
 43 46  1  0  0  0  0
 44 48  1  0  0  0  0
 45 50  1  0  0  0  0
 46 65  1  0  0  0  0
 47 50  1  0  0  0  0
 47 65  1  0  0  0  0
 48 69  1  0  0  0  0
 49 64  1  0  0  0  0
 50 63  1  0  0  0  0
 51 60  1  0  0  0  0
 52 61  1  0  0  0  0
 53 61  1  0  0  0  0
 54 61  1  0  0  0  0
 55 72  1  0  0  0  0
 56 71  1  0  0  0  0
 57 58  1  0  0  0  0
 57 81  1  0  0  0  0
 58 85  1  0  0  0  0
 59 61  1  0  0  0  0
 59 70  1  0  0  0  0
 60 72  1  0  0  0  0
 62 63  1  0  0  0  0
 71 85  1  0  0  0  0
 78 85  2  0  0  0  0
 79 85  2  0  0  0  0
M  CHG  1  72   1
M  ISO  4  38 100  57 101  68 100  81 101
M  END
> <Batch ID>
0054

> <Smiles>
CNC(C)C(=O)NC(C(=O)N1Cc2cc([101O:1][101CH2:1]CS(=O)(=O)NCc3ccc([100NH:0][100C:0](=O)N4CCCC(n5nc(-c6ccc(Oc7ccc(F)cc7F)cc6)c(C(N)=O)c5N)C4)c(F)c3)ccc2CC1C(=O)NC1CCCc2ccccc21)C(C)(C)C

> <Shape>
0.369

> <Color>
0.114

> <Negative vol penalty>
0.000

$$$$

  -OEChem-04042322463D

 85 93  0     1  0  0  0  0  0999 V2000
  -23.7346  -18.2561   21.9843 C   0  0  0  0  0  0  0  0  0  0  0  0
  -24.4618  -19.3043   21.4294 C   0  0  0  0  0  0  0  0  0  0  0  0
  -25.2666  -12.9942   19.2526 C   0  0  0  0  0  0  0  0  0  0  0  0
  -25.1242  -14.3004   21.2800 C   0  0  0  0  0  0  0  0  0  0  0  0
  -22.3574  -18.3819   22.1618 C   0  0  0  0  0  0  0  0  0  0  0  0
  -23.8119  -20.4785   21.0506 C   0  0  0  0  0  0  0  0  0  0  0  0
  -26.3021  -24.6369   22.5175 C   0  0  0  0  0  0  0  0  0  0  0  0
  -33.5571  -23.8094   16.3567 C   0  0  0  0  0  0  0  0  0  0  0  0
  -25.1798  -11.8211   20.0022 C   0  0  0  0  0  0  0  0  0  0  0  0
  -25.0374  -13.1273   22.0297 C   0  0  0  0  0  0  0  0  0  0  0  0
  -27.4107  -25.0151   21.7614 C   0  0  0  0  0  0  0  0  0  0  0  0
  -24.6325   -8.4902   21.3516 C   0  0  0  0  0  0  0  0  0  0  0  0
  -34.8667  -23.5975   16.7873 C   0  0  0  0  0  0  0  0  0  0  0  0
  -23.7748   -7.4901   20.8938 C   0  0  0  0  0  0  0  0  0  0  0  0
  -26.0671  -26.6679   20.6291 C   0  0  0  0  0  0  0  0  0  0  0  0
  -34.0461  -22.2605   18.6248 C   0  0  0  0  0  0  0  0  0  0  0  0
  -21.9063   -9.0116   21.0706 C   0  0  0  0  0  0  0  0  0  0  0  0
  -25.2389  -14.2338   19.8915 C   0  0  0  0  0  0  0  0  0  0  0  0
  -24.2644  -16.1844   18.5673 C   0  0  0  0  0  0  0  0  0  0  0  0
  -21.6919  -19.5618   21.7940 C   0  0  0  0  0  0  0  0  0  0  0  0
  -25.0629  -25.2650   22.3270 C   0  0  0  0  0  0  0  0  0  0  0  0
  -22.4244  -20.6196   21.2221 C   0  0  0  0  0  0  0  0  0  0  0  0
  -24.9449  -26.2975   21.3858 C   0  0  0  0  0  0  0  0  0  0  0  0
  -32.4919  -23.2470   17.0601 C   0  0  0  0  0  0  0  0  0  0  0  0
  -32.7364  -22.4725   18.1941 C   0  0  0  0  0  0  0  0  0  0  0  0
  -25.0651  -11.8877   21.3907 C   0  0  0  0  0  0  0  0  0  0  0  0
  -27.2927  -26.0287   20.8150 C   0  0  0  0  0  0  0  0  0  0  0  0
  -24.1272   -9.7511   21.6689 C   0  0  0  0  0  0  0  0  0  0  0  0
  -35.1113  -22.8230   17.9214 C   0  0  0  0  0  0  0  0  0  0  0  0
  -22.4117   -7.7507   20.7533 C   0  0  0  0  0  0  0  0  0  0  0  0
  -22.7641  -10.0117   21.5284 C   0  0  0  0  0  0  0  0  0  0  0  0
  -25.3291  -15.4459   19.1177 C   0  0  0  0  0  0  0  0  0  0  0  0
  -24.8712  -17.2396   17.9311 C   0  0  0  0  0  0  0  0  0  0  0  0
  -22.8531  -15.9386   18.6261 C   0  0  0  0  0  0  0  0  0  0  0  0
  -22.1796  -24.3023   21.3977 C   0  0  0  0  0  0  0  0  0  0  0  0
  -21.3477  -27.3448   22.1550 C   0  0  0  0  0  0  0  0  0  0  0  0
  -29.5497  -25.0832   17.7162 C   0  0  0  0  0  0  0  0  0  0  0  0
  -22.3127  -30.5892   22.5902 C   0  0  0  0  0  0  0  0  0  0  0  0
  -30.0332  -19.9504   18.8588 C   0  0  0  0  0  0  0  0  0  0  0  0
  -20.1947  -19.6332   21.9614 C   0  0  0  0  0  0  0  0  0  0  0  0
  -23.8831  -24.8637   23.1694 C   0  0  0  0  0  0  0  0  0  0  0  0
  -23.6417  -27.0172   21.1572 C   0  0  0  0  0  0  0  0  0  0  0  0
  -19.6397  -21.0529   21.8798 C   0  0  0  0  0  0  0  0  0  0  0  0
  -28.9549  -18.4491   15.7475 C   0  0  0  0  0  0  0  0  0  0  0  0
  -20.2370  -21.7918   20.6864 C   0  0  0  0  0  0  0  0  0  0  0  0
  -27.7922  -17.5738   16.2190 C   0  0  0  0  0  0  0  0  0  0  0  0
  -30.0884  -18.4599   16.7689 C   0  0  0  0  0  0  0  0  0  0  0  0
  -28.5171  -18.0054   18.6123 C   0  0  0  0  0  0  0  0  0  0  0  0
  -21.7592  -21.9186   20.8216 C   0  0  1  0  0  0  0  0  0  0  0  0
  -22.5442  -25.2195   22.5306 C   0  0  1  0  0  0  0  0  0  0  0  0
  -27.3295  -17.9711   17.6333 C   0  0  2  0  0  0  0  0  0  0  0  0
  -21.4021  -32.8542   23.1718 C   0  0  0  0  0  0  0  0  0  0  0  0
  -20.1644  -27.5858   19.3529 C   0  0  0  0  0  0  0  0  0  0  0  0
  -20.1425  -30.0715   19.6516 C   0  0  0  0  0  0  0  0  0  0  0  0
  -18.7835  -28.6237   21.1613 C   0  0  0  0  0  0  0  0  0  0  0  0
  -24.0262  -30.7888   24.9950 C   0  0  0  0  0  0  0  0  0  0  0  0
  -31.0911  -23.4901   16.5778 C   0  0  0  0  0  0  0  0  0  0  0  0
  -31.6122  -21.8616   18.9646 C   0  0  0  0  0  0  0  0  0  0  0  0
  -29.3050  -26.5768   17.8638 C   0  0  0  0  0  0  0  0  0  0  0  0
  -28.1209  -26.8987   18.7624 C   0  0  0  0  0  0  0  0  0  1  0  0
  -21.2992  -28.6568   21.4099 C   0  0  1  0  0  0  0  0  0  0  0  0
  -22.0383  -31.5806   23.7066 C   0  0  2  0  0  0  0  0  0  0  0  0
  -20.1216  -28.7198   20.3966 C   0  0  0  0  0  0  0  0  0  0  0  0
  -26.5219  -15.9862   18.8540 N   0  0  0  0  0  0  0  0  0  0  0  0
  -26.2103  -17.0753   18.1309 N   0  0  0  0  0  0  0  0  0  0  0  0
  -22.5156  -26.5844   22.0011 N   0  0  0  0  0  0  0  0  0  0  0  0
  -29.5849  -18.8641   18.0892 N   0  0  0  0  0  0  0  0  0  0  0  0
  -24.3846  -18.2827   17.2257 N   0  0  0  0  0  0  0  0  0  0  0  0
  -22.4001  -14.8090   19.3211 N   0  0  0  0  0  0  0  0  0  0  0  0
  -22.0978  -22.9703   21.7563 N   0  0  0  0  0  0  0  0  0  0  0  0
  -30.6352  -24.8252   16.8914 N   0  0  0  0  0  0  0  0  0  0  0  0
  -21.2693  -29.7028   22.4265 N   0  0  0  0  0  0  0  0  0  0  0  0
  -31.0515  -20.7092   18.2948 N   0  0  0  0  0  0  0  0  0  0  0  0
  -23.3065  -31.9441   24.3999 N   0  3  0  0  0  0  0  0  0  0  0  0
  -22.0195  -16.6891   18.0645 O   0  0  0  0  0  0  0  0  0  0  0  0
  -21.9853  -24.7687   20.2813 O   0  0  0  0  0  0  0  0  0  0  0  0
  -20.3877  -27.0104   22.8538 O   0  0  0  0  0  0  0  0  0  0  0  0
  -28.8599  -24.2299   18.2675 O   0  0  0  0  0  0  0  0  0  0  0  0
  -23.3474  -30.6024   21.9271 O   0  0  0  0  0  0  0  0  0  0  0  0
  -29.5574  -20.2272   19.9652 O   0  0  0  0  0  0  0  0  0  0  0  0
  -24.9801  -10.7432   22.1225 O   0  0  0  0  0  0  0  0  0  0  0  0
  -28.3730  -26.3994   20.0752 O   0  0  0  0  0  0  0  0  0  1  0  0
  -36.3689  -22.6187   18.3347 F   0  0  0  0  0  0  0  0  0  0  0  0
  -21.5884   -6.7906   20.3122 F   0  0  0  0  0  0  0  0  0  0  0  0
  -22.2730  -11.2214   21.8306 F   0  0  0  0  0  0  0  0  0  0  0  0
  1  2  1  0  0  0  0
  1  5  2  0  0  0  0
  2  6  2  0  0  0  0
  3  9  2  0  0  0  0
  3 18  1  0  0  0  0
  4 10  1  0  0  0  0
  4 18  2  0  0  0  0
  5 20  1  0  0  0  0
  6 22  1  0  0  0  0
  7 11  2  0  0  0  0
  7 21  1  0  0  0  0
  8 13  2  0  0  0  0
  8 24  1  0  0  0  0
  9 26  1  0  0  0  0
 10 26  2  0  0  0  0
 11 27  1  0  0  0  0
 12 14  2  0  0  0  0
 12 28  1  0  0  0  0
 13 29  1  0  0  0  0
 14 30  1  0  0  0  0
 15 23  1  0  0  0  0
 15 27  2  0  0  0  0
 16 25  1  0  0  0  0
 16 29  2  0  0  0  0
 17 30  2  0  0  0  0
 17 31  1  0  0  0  0
 18 32  1  0  0  0  0
 19 32  1  0  0  0  0
 19 33  2  0  0  0  0
 19 34  1  0  0  0  0
 20 22  2  0  0  0  0
 20 40  1  0  0  0  0
 21 23  2  0  0  0  0
 21 41  1  0  0  0  0
 22 49  1  0  0  0  0
 23 42  1  0  0  0  0
 24 25  2  0  0  0  0
 24 57  1  0  0  0  0
 25 58  1  0  0  0  0
 26 81  1  0  0  0  0
 27 82  1  0  0  0  0
 28 31  2  0  0  0  0
 28 81  1  0  0  0  0
 29 83  1  0  0  0  0
 30 84  1  0  0  0  0
 31 85  1  0  0  0  0
 32 64  2  0  0  0  0
 33 65  1  0  0  0  0
 33 68  1  0  0  0  0
 34 69  1  0  0  0  0
 34 75  2  0  0  0  0
 35 50  1  0  0  0  0
 35 70  1  0  0  0  0
 35 76  2  0  0  0  0
 36 61  1  0  0  0  0
 36 66  1  0  0  0  0
 36 77  2  0  0  0  0
 37 59  1  0  0  0  0
 37 71  1  0  0  0  0
 37 78  2  0  0  0  0
 38 62  1  0  0  0  0
 38 72  1  0  0  0  0
 38 79  2  0  0  0  0
 39 67  1  0  0  0  0
 39 73  1  0  0  0  0
 39 80  2  0  0  0  0
 40 43  1  0  0  0  0
 41 50  1  0  0  0  0
 42 66  1  0  0  0  0
 43 45  1  0  0  0  0
 44 46  1  0  0  0  0
 44 47  1  0  0  0  0
 45 49  1  0  0  0  0
 46 51  1  0  0  0  0
 47 67  1  0  0  0  0
 48 51  1  0  0  0  0
 48 67  1  0  0  0  0
 49 70  1  0  0  0  0
 50 66  1  0  0  0  0
 51 65  1  0  0  0  0
 52 62  1  0  0  0  0
 53 63  1  0  0  0  0
 54 63  1  0  0  0  0
 55 63  1  0  0  0  0
 56 74  1  0  0  0  0
 57 71  1  0  0  0  0
 58 73  1  0  0  0  0
 59 60  1  0  0  0  0
 60 82  1  0  0  0  0
 61 63  1  0  0  0  0
 61 72  1  0  0  0  0
 62 74  1  0  0  0  0
 64 65  1  0  0  0  0
M  CHG  1  74   1
M  ISO  4  39 100  60 101  73 100  82 101
M  END
> <Batch ID>
0054

> <Smiles>
CNC(C)C(=O)NC(C(=O)N1Cc2cc([101O:1][101CH2:1]CC(=O)NCc3ccc(F)cc3C[100NH:0][100C:0](=O)N3CCCC(n4nc(-c5ccc(Oc6ccc(F)cc6F)cc5)c(C(N)=O)c4N)C3)ccc2CC1C(=O)NC1CCCc2ccccc21)C(C)(C)C

> <Shape>
0.175

> <Color>
0.087

> <Negative vol penalty>
0.000

$$$$

  -OEChem-04042322463D

 89 98  0     1  0  0  0  0  0999 V2000
  -21.6537  -24.2088   23.6370 C   0  0  0  0  0  0  0  0  0  0  0  0
  -22.9041  -24.7448   23.3461 C   0  0  0  0  0  0  0  0  0  0  0  0
  -23.4980   -9.9143   22.1788 C   0  0  0  0  0  0  0  0  0  0  0  0
  -23.4752   -9.3933   19.8198 C   0  0  0  0  0  0  0  0  0  0  0  0
  -28.6145  -22.2552   22.1425 C   0  0  0  0  0  0  0  0  0  0  0  0
  -20.5004  -24.8440   23.1783 C   0  0  0  0  0  0  0  0  0  0  0  0
  -23.0020  -25.9159   22.5955 C   0  0  0  0  0  0  0  0  0  0  0  0
  -26.3304  -29.1988   24.5420 C   0  0  0  0  0  0  0  0  0  0  0  0
  -29.4476  -23.3128   22.5071 C   0  0  0  0  0  0  0  0  0  0  0  0
  -22.6182   -8.8592   22.4204 C   0  0  0  0  0  0  0  0  0  0  0  0
  -22.5954   -8.3382   20.0613 C   0  0  0  0  0  0  0  0  0  0  0  0
  -27.6822  -28.9469   24.3118 C   0  0  0  0  0  0  0  0  0  0  0  0
  -22.7827   -5.4938   22.7031 C   0  0  0  0  0  0  0  0  0  0  0  0
  -23.0609   -4.6512   23.7794 C   0  0  0  0  0  0  0  0  0  0  0  0
  -27.6766  -30.5758   22.5326 C   0  0  0  0  0  0  0  0  0  0  0  0
  -27.9718  -24.8621   21.3853 C   0  0  0  0  0  0  0  0  0  0  0  0
  -20.9412   -5.2326   24.7824 C   0  0  0  0  0  0  0  0  0  0  0  0
  -23.9265  -10.1814   20.8785 C   0  0  0  0  0  0  0  0  0  0  0  0
  -27.4600  -22.5010   21.3993 C   0  0  0  0  0  0  0  0  0  0  0  0
  -26.2417  -11.2222   20.6254 C   0  0  0  0  0  0  0  0  0  0  0  0
  -20.5838  -26.0287   22.4299 C   0  0  0  0  0  0  0  0  0  0  0  0
  -25.6377  -30.1348   23.7607 C   0  0  0  0  0  0  0  0  0  0  0  0
  -21.8487  -26.5668   22.1253 C   0  0  0  0  0  0  0  0  0  0  0  0
  -26.3167  -30.8396   22.7566 C   0  0  0  0  0  0  0  0  0  0  0  0
  -27.1386  -23.8045   21.0207 C   0  0  0  0  0  0  0  0  0  0  0  0
  -29.1263  -24.6162   22.1285 C   0  0  0  0  0  0  0  0  0  0  0  0
  -22.1670   -8.0711   21.3616 C   0  0  0  0  0  0  0  0  0  0  0  0
  -28.3548  -29.6333   23.3051 C   0  0  0  0  0  0  0  0  0  0  0  0
  -21.5837   -6.2058   22.6665 C   0  0  0  0  0  0  0  0  0  0  0  0
  -22.1401   -4.5206   24.8190 C   0  0  0  0  0  0  0  0  0  0  0  0
  -20.6630   -6.0752   23.7061 C   0  0  0  0  0  0  0  0  0  0  0  0
  -24.8348  -11.2716   20.6283 C   0  0  0  0  0  0  0  0  0  0  0  0
  -26.6298  -12.5077   20.3369 C   0  0  0  0  0  0  0  0  0  0  0  0
  -31.3744  -25.5165   22.6702 C   0  0  0  0  0  0  0  0  0  0  0  0
  -26.5985  -21.3648   21.0274 C   0  0  0  0  0  0  0  0  0  0  0  0
  -27.1193  -10.1134   20.8622 C   0  0  0  0  0  0  0  0  0  0  0  0
  -23.1605  -30.0031   21.7733 C   0  0  0  0  0  0  0  0  0  0  0  0
  -23.5036  -33.2287   21.7529 C   0  0  0  0  0  0  0  0  0  0  0  0
  -25.5404  -35.9285   22.2104 C   0  0  0  0  0  0  0  0  0  0  0  0
  -26.1978  -17.8993   21.2616 C   0  0  0  0  0  0  0  0  0  0  0  0
  -19.3111  -26.6536   21.9156 C   0  0  0  0  0  0  0  0  0  0  0  0
  -24.1863  -30.4144   24.0392 C   0  0  0  0  0  0  0  0  0  0  0  0
  -25.6237  -31.8692   21.9033 C   0  0  0  0  0  0  0  0  0  0  0  0
  -32.1375  -26.6298   23.3650 C   0  0  0  0  0  0  0  0  0  0  0  0
  -19.4873  -28.0950   21.4449 C   0  0  0  0  0  0  0  0  0  0  0  0
  -31.6283  -28.0175   23.0530 C   0  0  0  0  0  0  0  0  0  0  0  0
  -23.9606  -16.4824   18.7372 C   0  0  0  0  0  0  0  0  0  0  0  0
  -20.7242  -28.2206   20.5612 C   0  0  0  0  0  0  0  0  0  0  0  0
  -24.0869  -14.9889   19.0311 C   0  0  0  0  0  0  0  0  0  0  0  0
  -24.0293  -17.3186   20.0139 C   0  0  0  0  0  0  0  0  0  0  0  0
  -25.3703  -15.5687   21.1318 C   0  0  0  0  0  0  0  0  0  0  0  0
  -29.4062  -27.0643   22.5111 C   0  0  0  0  0  0  0  0  0  0  0  0
  -21.9950  -27.8490   21.3349 C   0  0  1  0  0  0  0  0  0  0  0  0
  -23.4536  -31.0158   22.8439 C   0  0  1  0  0  0  0  0  0  0  0  0
  -25.3456  -14.6977   19.8650 C   0  0  1  0  0  0  0  0  0  0  0  0
  -30.1493  -28.0791   23.3673 C   0  0  2  0  0  0  0  0  0  1  0  0
  -24.8199  -23.9938   17.9396 C   0  0  0  0  0  0  0  0  0  0  0  0
  -25.5474  -38.4348   22.0834 C   0  0  0  0  0  0  0  0  0  0  0  0
  -23.6201  -33.0717   18.7080 C   0  0  0  0  0  0  0  0  0  0  0  0
  -24.5606  -35.3919   18.6939 C   0  0  0  0  0  0  0  0  0  0  0  0
  -22.2746  -34.9801   19.6035 C   0  0  0  0  0  0  0  0  0  0  0  0
  -26.1943  -36.1881   25.0851 C   0  0  0  0  0  0  0  0  0  0  0  0
  -25.9090  -24.0952   20.2235 C   0  0  0  0  0  0  0  0  0  0  0  0
  -26.0834  -23.7287   18.7428 C   0  0  0  0  0  0  0  0  0  0  0  0
  -24.2903  -34.2149   20.9238 C   0  0  1  0  0  0  0  0  0  0  0  0
  -25.3402  -37.2227   22.9782 C   0  0  2  0  0  0  0  0  0  0  0  0
  -23.6992  -34.3939   19.4969 C   0  0  0  0  0  0  0  0  0  0  0  0
  -24.3611  -12.4919   20.3629 N   0  0  0  0  0  0  0  0  0  0  0  0
  -26.8823  -20.1503   21.3699 N   0  0  0  0  0  0  0  0  0  0  0  0
  -25.4767  -13.2213   20.1906 N   0  0  0  0  0  0  0  0  0  0  0  0
  -29.9915  -25.7131   22.5073 N   0  0  0  0  0  0  0  0  0  0  0  0
  -24.2028  -32.1026   22.2101 N   0  0  0  0  0  0  0  0  0  0  0  0
  -25.2308  -16.9909   20.7965 N   0  0  0  0  0  0  0  0  0  0  0  0
  -27.8415  -13.0861   20.1967 N   0  0  0  0  0  0  0  0  0  0  0  0
  -26.5541   -8.8624   21.1447 N   0  0  0  0  0  0  0  0  0  0  0  0
  -22.3945  -28.9362   22.2026 N   0  0  0  0  0  0  0  0  0  0  0  0
  -24.3521  -35.4462   21.7038 N   0  0  0  0  0  0  0  0  0  0  0  0
  -25.9805  -19.2309   20.9438 N   0  0  0  0  0  0  0  0  0  0  0  0
  -26.3030  -37.3060   24.1127 N   0  3  0  0  0  0  0  0  0  0  0  0
  -31.9964  -24.4999   22.3500 O   0  0  0  0  0  0  0  0  0  0  0  0
  -28.3679  -10.2322   20.8406 O   0  0  0  0  0  0  0  0  0  0  0  0
  -23.5959  -30.1776   20.6411 O   0  0  0  0  0  0  0  0  0  0  0  0
  -22.3145  -33.4528   21.9923 O   0  0  0  0  0  0  0  0  0  0  0  0
  -26.6413  -35.4004   22.0705 O   0  0  0  0  0  0  0  0  0  0  0  0
  -27.1851  -17.5457   21.9165 O   0  0  0  0  0  0  0  0  0  0  0  0
  -21.3087   -7.0413   21.5970 O   0  0  0  0  0  0  0  0  0  0  0  0
  -29.6741  -29.3889   23.0779 O   0  0  0  0  0  0  0  0  0  1  0  0
  -22.4067   -3.7102   25.8517 F   0  0  0  0  0  0  0  0  0  0  0  0
  -19.5090   -6.7557   23.6760 F   0  0  0  0  0  0  0  0  0  0  0  0
  1  2  1  0  0  0  0
  1  6  2  0  0  0  0
  2  7  2  0  0  0  0
  3 10  2  0  0  0  0
  3 18  1  0  0  0  0
  4 11  1  0  0  0  0
  4 18  2  0  0  0  0
  5  9  2  0  0  0  0
  5 19  1  0  0  0  0
  6 21  1  0  0  0  0
  7 23  1  0  0  0  0
  8 12  2  0  0  0  0
  8 22  1  0  0  0  0
  9 26  1  0  0  0  0
 10 27  1  0  0  0  0
 11 27  2  0  0  0  0
 12 28  1  0  0  0  0
 13 14  2  0  0  0  0
 13 29  1  0  0  0  0
 14 30  1  0  0  0  0
 15 24  1  0  0  0  0
 15 28  2  0  0  0  0
 16 25  1  0  0  0  0
 16 26  2  0  0  0  0
 17 30  2  0  0  0  0
 17 31  1  0  0  0  0
 18 32  1  0  0  0  0
 19 25  2  0  0  0  0
 19 35  1  0  0  0  0
 20 32  1  0  0  0  0
 20 33  2  0  0  0  0
 20 36  1  0  0  0  0
 21 23  2  0  0  0  0
 21 41  1  0  0  0  0
 22 24  2  0  0  0  0
 22 42  1  0  0  0  0
 23 53  1  0  0  0  0
 24 43  1  0  0  0  0
 25 63  1  0  0  0  0
 26 71  1  0  0  0  0
 27 86  1  0  0  0  0
 28 87  1  0  0  0  0
 29 31  2  0  0  0  0
 29 86  1  0  0  0  0
 30 88  1  0  0  0  0
 31 89  1  0  0  0  0
 32 68  2  0  0  0  0
 33 70  1  0  0  0  0
 33 74  1  0  0  0  0
 34 44  1  0  0  0  0
 34 71  1  0  0  0  0
 34 80  2  0  0  0  0
 35 69  2  0  0  0  0
 36 75  1  0  0  0  0
 36 81  2  0  0  0  0
 37 54  1  0  0  0  0
 37 76  1  0  0  0  0
 37 82  2  0  0  0  0
 38 65  1  0  0  0  0
 38 72  1  0  0  0  0
 38 83  2  0  0  0  0
 39 66  1  0  0  0  0
 39 77  1  0  0  0  0
 39 84  2  0  0  0  0
 40 73  1  0  0  0  0
 40 78  1  0  0  0  0
 40 85  2  0  0  0  0
 41 45  1  0  0  0  0
 42 54  1  0  0  0  0
 43 72  1  0  0  0  0
 44 46  1  0  0  0  0
 45 48  1  0  0  0  0
 46 56  1  0  0  0  0
 47 49  1  0  0  0  0
 47 50  1  0  0  0  0
 48 53  1  0  0  0  0
 49 55  1  0  0  0  0
 50 73  1  0  0  0  0
 51 55  1  0  0  0  0
 51 73  1  0  0  0  0
 52 56  1  0  0  0  0
 52 71  1  0  0  0  0
 53 76  1  0  0  0  0
 54 72  1  0  0  0  0
 55 70  1  0  0  0  0
 56 87  1  0  0  0  0
 57 64  1  0  0  0  0
 58 66  1  0  0  0  0
 59 67  1  0  0  0  0
 60 67  1  0  0  0  0
 61 67  1  0  0  0  0
 62 79  1  0  0  0  0
 63 64  1  0  0  0  0
 65 67  1  0  0  0  0
 65 77  1  0  0  0  0
 66 79  1  0  0  0  0
 68 70  1  0  0  0  0
 69 78  1  0  0  0  0
M  CHG  1  79   1
M  ISO  4  40 100  56 101  78 100  87 101
M  END
> <Batch ID>
0054

> <Smiles>
CCCc1cc(N2C[101CH:1]([101O:1]c3ccc4c(c3)CN(C(=O)C(NC(=O)C(C)NC)C(C)(C)C)C(C(=O)NC3CCCc5ccccc53)C4)CCC2=O)ccc1C=N[100NH:0][100C:0](=O)N1CCCC(n2nc(-c3ccc(Oc4ccc(F)cc4F)cc3)c(C(N)=O)c2N)C1

> <Shape>
0.260

> <Color>
0.124

> <Negative vol penalty>
0.000

$$$$

  -OEChem-04042322463D

 84 92  0     1  0  0  0  0  0999 V2000
  -33.0622  -29.4957   12.1285 C   0  0  0  0  0  0  0  0  0  0  0  0
  -32.8411  -29.0280   13.4200 C   0  0  0  0  0  0  0  0  0  0  0  0
  -32.7272  -17.4555   23.2442 C   0  0  0  0  0  0  0  0  0  0  0  0
  -22.9616   -9.9263   20.0637 C   0  0  0  0  0  0  0  0  0  0  0  0
  -23.6716  -10.0752   22.3681 C   0  0  0  0  0  0  0  0  0  0  0  0
  -32.0822  -30.2495   11.4840 C   0  0  0  0  0  0  0  0  0  0  0  0
  -31.6403  -29.3150   14.0682 C   0  0  0  0  0  0  0  0  0  0  0  0
  -29.6882  -25.2765   16.4187 C   0  0  0  0  0  0  0  0  0  0  0  0
  -31.9450  -18.4017   23.9064 C   0  0  0  0  0  0  0  0  0  0  0  0
  -32.1276  -16.5277   22.3925 C   0  0  0  0  0  0  0  0  0  0  0  0
  -22.1714   -8.8208   20.3785 C   0  0  0  0  0  0  0  0  0  0  0  0
  -22.8814   -8.9698   22.6831 C   0  0  0  0  0  0  0  0  0  0  0  0
  -30.2536  -24.9162   17.6411 C   0  0  0  0  0  0  0  0  0  0  0  0
  -23.0643   -5.6079   22.3752 C   0  0  0  0  0  0  0  0  0  0  0  0
  -23.6269   -4.6174   23.1803 C   0  0  0  0  0  0  0  0  0  0  0  0
  -28.4363  -26.0045   18.7954 C   0  0  0  0  0  0  0  0  0  0  0  0
  -29.9636  -17.4923   22.8653 C   0  0  0  0  0  0  0  0  0  0  0  0
  -21.8964   -4.9740   24.8282 C   0  0  0  0  0  0  0  0  0  0  0  0
  -23.7118  -10.5535   21.0585 C   0  0  0  0  0  0  0  0  0  0  0  0
  -24.1469  -13.0498   20.7639 C   0  0  0  0  0  0  0  0  0  0  0  0
  -30.8649  -30.5376   12.1210 C   0  0  0  0  0  0  0  0  0  0  0  0
  -28.4963  -26.0141   16.3755 C   0  0  0  0  0  0  0  0  0  0  0  0
  -30.6437  -30.0745   13.4321 C   0  0  0  0  0  0  0  0  0  0  0  0
  -27.8565  -26.3706   17.5712 C   0  0  0  0  0  0  0  0  0  0  0  0
  -30.5632  -18.4201   23.7169 C   0  0  0  0  0  0  0  0  0  0  0  0
  -30.7458  -16.5461   22.2031 C   0  0  0  0  0  0  0  0  0  0  0  0
  -22.1313   -8.3426   21.6882 C   0  0  0  0  0  0  0  0  0  0  0  0
  -29.6292  -25.2827   18.8298 C   0  0  0  0  0  0  0  0  0  0  0  0
  -21.9179   -6.2815   22.7967 C   0  0  0  0  0  0  0  0  0  0  0  0
  -23.0429   -4.3004   24.4067 C   0  0  0  0  0  0  0  0  0  0  0  0
  -21.3339   -5.9646   24.0231 C   0  0  0  0  0  0  0  0  0  0  0  0
  -24.5287  -11.6951   20.7337 C   0  0  0  0  0  0  0  0  0  0  0  0
  -25.2730  -13.7326   20.3737 C   0  0  0  0  0  0  0  0  0  0  0  0
  -29.3456  -22.5749   22.3849 C   0  0  0  0  0  0  0  0  0  0  0  0
  -29.9047  -23.7501   22.0657 C   0  0  0  0  0  0  0  0  0  0  0  0
  -22.8871  -13.6383   21.1136 C   0  0  0  0  0  0  0  0  0  0  0  0
  -30.0192  -21.6573   23.3448 C   0  0  0  0  0  0  0  0  0  0  0  0
  -27.6675  -28.8742   15.2637 C   0  0  0  0  0  0  0  0  0  0  0  0
  -24.6836  -27.8927   16.0731 C   0  0  0  0  0  0  0  0  0  0  0  0
  -22.7219  -25.8641   17.9924 C   0  0  0  0  0  0  0  0  0  0  0  0
  -30.7683  -14.5996   20.6040 C   0  0  0  0  0  0  0  0  0  0  0  0
  -29.8547  -31.3962   11.4019 C   0  0  0  0  0  0  0  0  0  0  0  0
  -27.8852  -26.3718   15.0485 C   0  0  0  0  0  0  0  0  0  0  0  0
  -26.5648  -27.1451   17.5789 C   0  0  0  0  0  0  0  0  0  0  0  0
  -28.4588  -31.3390   12.0171 C   0  0  0  0  0  0  0  0  0  0  0  0
  -29.6188  -12.0584   18.3908 C   0  0  0  0  0  0  0  0  0  0  0  0
  -28.5371  -31.4879   13.5331 C   0  0  0  0  0  0  0  0  0  0  0  0
  -28.1607  -11.8488   18.8055 C   0  0  0  0  0  0  0  0  0  0  0  0
  -30.5155  -12.3431   19.5944 C   0  0  0  0  0  0  0  0  0  0  0  0
  -28.6066  -13.2320   20.8731 C   0  0  0  0  0  0  0  0  0  0  0  0
  -29.3440  -30.3439   14.1589 C   0  0  1  0  0  0  0  0  0  0  0  0
  -26.9399  -27.5665   15.1286 C   0  0  1  0  0  0  0  0  0  0  0  0
  -27.6537  -13.0064   19.6878 C   0  0  2  0  0  0  0  0  0  0  0  0
  -20.3179  -25.3151   18.4577 C   0  0  0  0  0  0  0  0  0  0  0  0
  -24.4118  -30.4651   17.6913 C   0  0  0  0  0  0  0  0  0  0  0  0
  -22.4500  -29.4398   18.8610 C   0  0  0  0  0  0  0  0  0  0  0  0
  -22.3692  -29.8256   16.3978 C   0  0  0  0  0  0  0  0  0  0  0  0
  -23.0757  -23.0553   17.1295 C   0  0  0  0  0  0  0  0  0  0  0  0
  -29.7217  -19.4388   24.4299 C   0  0  0  0  0  0  0  0  0  0  0  0
  -29.2835  -24.7220   21.1149 C   0  0  0  0  0  0  0  0  0  1  0  0
  -23.8304  -27.9778   17.3156 C   0  0  1  0  0  0  0  0  0  0  0  0
  -21.5501  -24.9667   17.6373 C   0  0  2  0  0  0  0  0  0  0  0  0
  -23.2907  -29.4142   17.5666 C   0  0  0  0  0  0  0  0  0  0  0  0
  -25.7980  -11.5254   20.3541 N   0  0  0  0  0  0  0  0  0  0  0  0
  -26.2236  -12.7824   20.1421 N   0  0  0  0  0  0  0  0  0  0  0  0
  -26.0100  -27.4769   16.2562 N   0  0  0  0  0  0  0  0  0  0  0  0
  -29.9753  -13.4541   20.3810 N   0  0  0  0  0  0  0  0  0  0  0  0
  -25.5328  -15.0471   20.2095 N   0  0  0  0  0  0  0  0  0  0  0  0
  -21.8361  -12.7916   21.4914 N   0  0  0  0  0  0  0  0  0  0  0  0
  -30.1372  -15.6039   21.3373 N   0  0  0  0  0  0  0  0  0  0  0  0
  -29.2896  -20.4980   23.5458 N   0  0  0  0  0  0  0  0  0  0  0  0
  -28.5436  -29.1401   14.2287 N   0  0  0  0  0  0  0  0  0  0  0  0
  -22.7899  -26.9661   17.1664 N   0  0  0  0  0  0  0  0  0  0  0  0
  -21.8954  -23.5393   17.8908 N   0  3  0  0  0  0  0  0  0  0  0  0
  -22.6942  -14.8772   21.0758 O   0  0  0  0  0  0  0  0  0  0  0  0
  -31.0925  -21.9287   23.8731 O   0  0  0  0  0  0  0  0  0  0  0  0
  -27.4490  -29.5898   16.2342 O   0  0  0  0  0  0  0  0  0  0  0  0
  -24.1893  -28.1775   14.9794 O   0  0  0  0  0  0  0  0  0  0  0  0
  -23.4971  -25.6145   18.9129 O   0  0  0  0  0  0  0  0  0  0  0  0
  -31.9125  -14.6947   20.1527 O   0  0  0  0  0  0  0  0  0  0  0  0
  -21.3602   -7.2641   21.9959 O   0  0  0  0  0  0  0  0  0  0  0  0
  -30.1793  -24.9330   20.0243 O   0  0  0  0  0  0  0  0  0  1  0  0
  -23.5823   -3.3482   25.1790 F   0  0  0  0  0  0  0  0  0  0  0  0
  -20.2318   -6.6074   24.4328 F   0  0  0  0  0  0  0  0  0  0  0  0
  1  2  1  0  0  0  0
  1  6  2  0  0  0  0
  2  7  2  0  0  0  0
  3  9  2  0  0  0  0
  3 10  1  0  0  0  0
  4 11  2  0  0  0  0
  4 19  1  0  0  0  0
  5 12  1  0  0  0  0
  5 19  2  0  0  0  0
  6 21  1  0  0  0  0
  7 23  1  0  0  0  0
  8 13  2  0  0  0  0
  8 22  1  0  0  0  0
  9 25  1  0  0  0  0
 10 26  2  0  0  0  0
 11 27  1  0  0  0  0
 12 27  2  0  0  0  0
 13 28  1  0  0  0  0
 14 15  2  0  0  0  0
 14 29  1  0  0  0  0
 15 30  1  0  0  0  0
 16 24  1  0  0  0  0
 16 28  2  0  0  0  0
 17 25  2  0  0  0  0
 17 26  1  0  0  0  0
 18 30  2  0  0  0  0
 18 31  1  0  0  0  0
 19 32  1  0  0  0  0
 20 32  1  0  0  0  0
 20 33  2  0  0  0  0
 20 36  1  0  0  0  0
 21 23  2  0  0  0  0
 21 42  1  0  0  0  0
 22 24  2  0  0  0  0
 22 43  1  0  0  0  0
 23 51  1  0  0  0  0
 24 44  1  0  0  0  0
 25 59  1  0  0  0  0
 26 70  1  0  0  0  0
 27 81  1  0  0  0  0
 28 82  1  0  0  0  0
 29 31  2  0  0  0  0
 29 81  1  0  0  0  0
 30 83  1  0  0  0  0
 31 84  1  0  0  0  0
 32 64  2  0  0  0  0
 33 65  1  0  0  0  0
 33 68  1  0  0  0  0
 34 35  2  0  0  0  0
 34 37  1  0  0  0  0
 35 60  1  0  0  0  0
 36 69  1  0  0  0  0
 36 75  2  0  0  0  0
 37 71  1  0  0  0  0
 37 76  2  0  0  0  0
 38 52  1  0  0  0  0
 38 72  1  0  0  0  0
 38 77  2  0  0  0  0
 39 61  1  0  0  0  0
 39 66  1  0  0  0  0
 39 78  2  0  0  0  0
 40 62  1  0  0  0  0
 40 73  1  0  0  0  0
 40 79  2  0  0  0  0
 41 67  1  0  0  0  0
 41 70  1  0  0  0  0
 41 80  2  0  0  0  0
 42 45  1  0  0  0  0
 43 52  1  0  0  0  0
 44 66  1  0  0  0  0
 45 47  1  0  0  0  0
 46 48  1  0  0  0  0
 46 49  1  0  0  0  0
 47 51  1  0  0  0  0
 48 53  1  0  0  0  0
 49 67  1  0  0  0  0
 50 53  1  0  0  0  0
 50 67  1  0  0  0  0
 51 72  1  0  0  0  0
 52 66  1  0  0  0  0
 53 65  1  0  0  0  0
 54 62  1  0  0  0  0
 55 63  1  0  0  0  0
 56 63  1  0  0  0  0
 57 63  1  0  0  0  0
 58 74  1  0  0  0  0
 59 71  1  0  0  0  0
 60 82  1  0  0  0  0
 61 63  1  0  0  0  0
 61 73  1  0  0  0  0
 62 74  1  0  0  0  0
 64 65  1  0  0  0  0
M  CHG  1  74   1
M  ISO  4  41 100  60 101  70 100  82 101
M  END
> <Batch ID>
0054

> <Smiles>
CNC(C)C(=O)NC(C(=O)N1Cc2cc([101O:1][101CH2:1]C=CC(=O)NCc3cccc([100NH:0][100C:0](=O)N4CCCC(n5nc(-c6ccc(Oc7ccc(F)cc7F)cc6)c(C(N)=O)c5N)C4)c3)ccc2CC1C(=O)NC1CCCc2ccccc21)C(C)(C)C

> <Shape>
0.218

> <Color>
0.204

> <Negative vol penalty>
0.000

$$$$

  -OEChem-04042322463D

 84 92  0     1  0  0  0  0  0999 V2000
  -21.1910  -35.2675   21.6493 C   0  0  0  0  0  0  0  0  0  0  0  0
  -22.3211  -34.5699   21.2349 C   0  0  0  0  0  0  0  0  0  0  0  0
  -32.8138  -20.1095   21.6335 C   0  0  0  0  0  0  0  0  0  0  0  0
  -24.1872  -12.4854   21.5245 C   0  0  0  0  0  0  0  0  0  0  0  0
  -25.1674  -12.0635   19.3570 C   0  0  0  0  0  0  0  0  0  0  0  0
  -20.3851  -34.7485   22.6618 C   0  0  0  0  0  0  0  0  0  0  0  0
  -22.6466  -33.3534   21.8337 C   0  0  0  0  0  0  0  0  0  0  0  0
  -25.2245  -28.4964   19.1374 C   0  0  0  0  0  0  0  0  0  0  0  0
  -32.2461  -19.6341   20.4514 C   0  0  0  0  0  0  0  0  0  0  0  0
  -32.7309  -21.4652   21.9512 C   0  0  0  0  0  0  0  0  0  0  0  0
  -23.2981  -11.4288   21.3282 C   0  0  0  0  0  0  0  0  0  0  0  0
  -24.2784  -11.0068   19.1606 C   0  0  0  0  0  0  0  0  0  0  0  0
  -26.5404  -28.0381   19.0906 C   0  0  0  0  0  0  0  0  0  0  0  0
  -23.3609   -8.0532   21.5143 C   0  0  0  0  0  0  0  0  0  0  0  0
  -23.1671   -7.1642   22.5714 C   0  0  0  0  0  0  0  0  0  0  0  0
  -26.0791  -26.5448   20.9281 C   0  0  0  0  0  0  0  0  0  0  0  0
  -31.5126  -21.8702   19.9045 C   0  0  0  0  0  0  0  0  0  0  0  0
  -20.8165   -7.7213   22.6090 C   0  0  0  0  0  0  0  0  0  0  0  0
  -25.1218  -12.8029   20.5389 C   0  0  0  0  0  0  0  0  0  0  0  0
  -27.3172  -13.8334   21.3302 C   0  0  0  0  0  0  0  0  0  0  0  0
  -20.6956  -33.5203   23.2666 C   0  0  0  0  0  0  0  0  0  0  0  0
  -24.3276  -27.9894   20.0886 C   0  0  0  0  0  0  0  0  0  0  0  0
  -21.8449  -32.8181   22.8561 C   0  0  0  0  0  0  0  0  0  0  0  0
  -24.7517  -26.9965   20.9832 C   0  0  0  0  0  0  0  0  0  0  0  0
  -31.5955  -20.5145   19.5869 C   0  0  0  0  0  0  0  0  0  0  0  0
  -32.0803  -22.3456   21.0867 C   0  0  0  0  0  0  0  0  0  0  0  0
  -23.3437  -10.6894   20.1463 C   0  0  0  0  0  0  0  0  0  0  0  0
  -26.9687  -27.0642   19.9880 C   0  0  0  0  0  0  0  0  0  0  0  0
  -22.2825   -8.7764   21.0045 C   0  0  0  0  0  0  0  0  0  0  0  0
  -21.8949   -6.9982   23.1188 C   0  0  0  0  0  0  0  0  0  0  0  0
  -21.0103   -8.6104   21.5518 C   0  0  0  0  0  0  0  0  0  0  0  0
  -26.0401  -13.8947   20.7409 C   0  0  0  0  0  0  0  0  0  0  0  0
  -27.7781  -15.1265   21.2860 C   0  0  0  0  0  0  0  0  0  0  0  0
  -28.0237  -12.7082   21.8692 C   0  0  0  0  0  0  0  0  0  0  0  0
  -22.6752  -29.2352   22.5014 C   0  0  0  0  0  0  0  0  0  0  0  0
  -21.3833  -26.2629   22.6398 C   0  0  0  0  0  0  0  0  0  0  0  0
  -30.0762  -25.2384   20.6929 C   0  0  0  0  0  0  0  0  0  0  0  0
  -21.6949  -22.9338   21.9568 C   0  0  0  0  0  0  0  0  0  0  0  0
  -28.5177  -19.9389   18.5586 C   0  0  0  0  0  0  0  0  0  0  0  0
  -19.8207  -33.0225   24.3897 C   0  0  0  0  0  0  0  0  0  0  0  0
  -22.9041  -28.4750   20.1085 C   0  0  0  0  0  0  0  0  0  0  0  0
  -23.8224  -26.4051   22.0104 C   0  0  0  0  0  0  0  0  0  0  0  0
  -20.0274  -31.5451   24.7138 C   0  0  0  0  0  0  0  0  0  0  0  0
  -25.3822  -19.4393   20.1697 C   0  0  0  0  0  0  0  0  0  0  0  0
  -21.5154  -31.2210   24.8020 C   0  0  0  0  0  0  0  0  0  0  0  0
  -25.3768  -17.9467   20.5046 C   0  0  0  0  0  0  0  0  0  0  0  0
  -26.0659  -19.7151   18.8323 C   0  0  0  0  0  0  0  0  0  0  0  0
  -27.4210  -17.6672   19.0411 C   0  0  0  0  0  0  0  0  0  0  0  0
  -22.2174  -31.4833   23.4642 C   0  0  1  0  0  0  0  0  0  0  0  0
  -22.2181  -28.2596   21.4540 C   0  0  1  0  0  0  0  0  0  0  0  0
  -26.7917  -17.3451   20.4073 C   0  0  2  0  0  0  0  0  0  0  0  0
  -20.4924  -20.7473   22.2228 C   0  0  0  0  0  0  0  0  0  0  0  0
  -22.1498  -26.2033   25.5926 C   0  0  0  0  0  0  0  0  0  0  0  0
  -21.8091  -23.7232   25.5592 C   0  0  0  0  0  0  0  0  0  0  0  0
  -19.8952  -25.2498   25.0805 C   0  0  0  0  0  0  0  0  0  0  0  0
  -29.8207  -23.6142   22.5767 C   0  0  0  0  0  0  0  0  0  0  0  0
  -21.5649  -22.5165   19.0297 C   0  0  0  0  0  0  0  0  0  0  0  0
  -30.9875  -20.0052   18.3239 C   0  0  0  0  0  0  0  0  0  0  0  0
  -31.9917  -23.8048   21.4284 C   0  0  0  0  0  0  0  0  0  0  0  0
  -28.6238  -25.6166   20.8940 C   0  0  0  0  0  0  0  0  0  1  0  0
  -21.7265  -24.9804   23.3584 C   0  0  1  0  0  0  0  0  0  0  0  0
  -20.7394  -21.9432   21.3163 C   0  0  2  0  0  0  0  0  0  0  0  0
  -21.4135  -25.0515   24.8797 C   0  0  0  0  0  0  0  0  0  0  0  0
  -25.7108  -15.1290   20.3511 N   0  0  0  0  0  0  0  0  0  0  0  0
  -26.7876  -15.8553   20.6962 N   0  0  0  0  0  0  0  0  0  0  0  0
  -22.4422  -26.9171   21.9942 N   0  0  0  0  0  0  0  0  0  0  0  0
  -27.4040  -19.1195   18.8057 N   0  0  0  0  0  0  0  0  0  0  0  0
  -28.9300  -15.6998   21.6945 N   0  0  0  0  0  0  0  0  0  0  0  0
  -27.4043  -11.4514   21.8346 N   0  0  0  0  0  0  0  0  0  0  0  0
  -21.9472  -30.4093   22.5326 N   0  0  0  0  0  0  0  0  0  0  0  0
  -21.0219  -23.9158   22.6524 N   0  0  0  0  0  0  0  0  0  0  0  0
  -29.7494  -19.2956   18.5569 N   0  0  0  0  0  0  0  0  0  0  0  0
  -30.6073  -24.2588   21.5324 N   0  0  0  0  0  0  0  0  0  0  0  0
  -21.2956  -21.4476   20.0255 N   0  3  0  0  0  0  0  0  0  0  0  0
  -29.1634  -12.8171   22.3817 O   0  0  0  0  0  0  0  0  0  0  0  0
  -23.6176  -28.9436   23.2284 O   0  0  0  0  0  0  0  0  0  0  0  0
  -20.2174  -26.6656   22.6448 O   0  0  0  0  0  0  0  0  0  0  0  0
  -30.7175  -25.8015   19.8004 O   0  0  0  0  0  0  0  0  0  0  0  0
  -22.9163  -22.8432   21.8537 O   0  0  0  0  0  0  0  0  0  0  0  0
  -28.4221  -21.1548   18.3598 O   0  0  0  0  0  0  0  0  0  0  0  0
  -22.4765   -9.6581   19.9544 O   0  0  0  0  0  0  0  0  0  0  0  0
  -28.2527  -26.6155   19.9449 O   0  0  0  0  0  0  0  0  0  1  0  0
  -21.7086   -6.1432   24.1329 F   0  0  0  0  0  0  0  0  0  0  0  0
  -19.9703   -9.3015   21.0655 F   0  0  0  0  0  0  0  0  0  0  0  0
  1  2  1  0  0  0  0
  1  6  2  0  0  0  0
  2  7  2  0  0  0  0
  3  9  1  0  0  0  0
  3 10  2  0  0  0  0
  4 11  2  0  0  0  0
  4 19  1  0  0  0  0
  5 12  1  0  0  0  0
  5 19  2  0  0  0  0
  6 21  1  0  0  0  0
  7 23  1  0  0  0  0
  8 13  2  0  0  0  0
  8 22  1  0  0  0  0
  9 25  2  0  0  0  0
 10 26  1  0  0  0  0
 11 27  1  0  0  0  0
 12 27  2  0  0  0  0
 13 28  1  0  0  0  0
 14 15  2  0  0  0  0
 14 29  1  0  0  0  0
 15 30  1  0  0  0  0
 16 24  1  0  0  0  0
 16 28  2  0  0  0  0
 17 25  1  0  0  0  0
 17 26  2  0  0  0  0
 18 30  2  0  0  0  0
 18 31  1  0  0  0  0
 19 32  1  0  0  0  0
 20 32  1  0  0  0  0
 20 33  2  0  0  0  0
 20 34  1  0  0  0  0
 21 23  2  0  0  0  0
 21 40  1  0  0  0  0
 22 24  2  0  0  0  0
 22 41  1  0  0  0  0
 23 49  1  0  0  0  0
 24 42  1  0  0  0  0
 25 58  1  0  0  0  0
 26 59  1  0  0  0  0
 27 81  1  0  0  0  0
 28 82  1  0  0  0  0
 29 31  2  0  0  0  0
 29 81  1  0  0  0  0
 30 83  1  0  0  0  0
 31 84  1  0  0  0  0
 32 64  2  0  0  0  0
 33 65  1  0  0  0  0
 33 68  1  0  0  0  0
 34 69  1  0  0  0  0
 34 75  2  0  0  0  0
 35 50  1  0  0  0  0
 35 70  1  0  0  0  0
 35 76  2  0  0  0  0
 36 61  1  0  0  0  0
 36 66  1  0  0  0  0
 36 77  2  0  0  0  0
 37 60  1  0  0  0  0
 37 73  1  0  0  0  0
 37 78  2  0  0  0  0
 38 62  1  0  0  0  0
 38 71  1  0  0  0  0
 38 79  2  0  0  0  0
 39 67  1  0  0  0  0
 39 72  1  0  0  0  0
 39 80  2  0  0  0  0
 40 43  1  0  0  0  0
 41 50  1  0  0  0  0
 42 66  1  0  0  0  0
 43 45  1  0  0  0  0
 44 46  1  0  0  0  0
 44 47  1  0  0  0  0
 45 49  1  0  0  0  0
 46 51  1  0  0  0  0
 47 67  1  0  0  0  0
 48 51  1  0  0  0  0
 48 67  1  0  0  0  0
 49 70  1  0  0  0  0
 50 66  1  0  0  0  0
 51 65  1  0  0  0  0
 52 62  1  0  0  0  0
 53 63  1  0  0  0  0
 54 63  1  0  0  0  0
 55 63  1  0  0  0  0
 56 73  1  0  0  0  0
 57 74  1  0  0  0  0
 58 72  1  0  0  0  0
 59 73  1  0  0  0  0
 60 82  1  0  0  0  0
 61 63  1  0  0  0  0
 61 71  1  0  0  0  0
 62 74  1  0  0  0  0
 64 65  1  0  0  0  0
M  CHG  1  74   1
M  ISO  4  39 100  60 101  72 100  82 101
M  END
> <Batch ID>
0054

> <Smiles>
CNC(C)C(=O)NC(C(=O)N1Cc2cc([101O:1][101CH2:1]C(=O)N(C)Cc3cccc(C[100NH:0][100C:0](=O)N4CCCC(n5nc(-c6ccc(Oc7ccc(F)cc7F)cc6)c(C(N)=O)c5N)C4)c3)ccc2CC1C(=O)NC1CCCc2ccccc21)C(C)(C)C

> <Shape>
0.214

> <Color>
0.088

> <Negative vol penalty>
0.000

$$$$

  -OEChem-04042322463D

 83 91  0     1  0  0  0  0  0999 V2000
  -18.7313  -27.0391   25.9742 C   0  0  0  0  0  0  0  0  0  0  0  0
  -19.9648  -26.5486   25.5579 C   0  0  0  0  0  0  0  0  0  0  0  0
  -24.5069   -9.2481   21.1146 C   0  0  0  0  0  0  0  0  0  0  0  0
  -22.5298  -10.5473   20.6243 C   0  0  0  0  0  0  0  0  0  0  0  0
  -17.9826  -27.8518   25.1240 C   0  0  0  0  0  0  0  0  0  0  0  0
  -20.4498  -26.8696   24.2905 C   0  0  0  0  0  0  0  0  0  0  0  0
  -26.2948  -27.7863   22.7090 C   0  0  0  0  0  0  0  0  0  0  0  0
  -28.2455  -20.8011   17.7018 C   0  0  0  0  0  0  0  0  0  0  0  0
  -27.1752  -20.0361   17.2383 C   0  0  0  0  0  0  0  0  0  0  0  0
  -23.7079   -8.1434   21.4092 C   0  0  0  0  0  0  0  0  0  0  0  0
  -21.7308   -9.4425   20.9189 C   0  0  0  0  0  0  0  0  0  0  0  0
  -27.2442  -26.9613   22.1074 C   0  0  0  0  0  0  0  0  0  0  0  0
  -21.8103   -7.0590   23.9875 C   0  0  0  0  0  0  0  0  0  0  0  0
  -22.1126   -6.3297   25.1374 C   0  0  0  0  0  0  0  0  0  0  0  0
  -26.7030  -27.9153   19.9589 C   0  0  0  0  0  0  0  0  0  0  0  0
  -27.9214  -19.9086   19.9234 C   0  0  0  0  0  0  0  0  0  0  0  0
  -22.4738   -4.3565   23.7910 C   0  0  0  0  0  0  0  0  0  0  0  0
  -23.9178  -10.4501   20.7222 C   0  0  0  0  0  0  0  0  0  0  0  0
  -25.2825  -11.9412   19.1660 C   0  0  0  0  0  0  0  0  0  0  0  0
  -18.4631  -28.1908   23.8493 C   0  0  0  0  0  0  0  0  0  0  0  0
  -25.5334  -28.6757   21.9372 C   0  0  0  0  0  0  0  0  0  0  0  0
  -19.7062  -27.6865   23.4219 C   0  0  0  0  0  0  0  0  0  0  0  0
  -25.7464  -28.7523   20.5534 C   0  0  0  0  0  0  0  0  0  0  0  0
  -28.6186  -20.7373   19.0443 C   0  0  0  0  0  0  0  0  0  0  0  0
  -26.4779  -19.2074   18.1173 C   0  0  0  0  0  0  0  0  0  0  0  0
  -26.8510  -19.1437   19.4599 C   0  0  0  0  0  0  0  0  0  0  0  0
  -22.3199   -8.2405   21.3114 C   0  0  0  0  0  0  0  0  0  0  0  0
  -27.4464  -27.0237   20.7318 C   0  0  0  0  0  0  0  0  0  0  0  0
  -21.8396   -6.4371   22.7393 C   0  0  0  0  0  0  0  0  0  0  0  0
  -22.4444   -4.9785   25.0392 C   0  0  0  0  0  0  0  0  0  0  0  0
  -22.1714   -5.0858   22.6410 C   0  0  0  0  0  0  0  0  0  0  0  0
  -24.7426  -11.5918   20.4182 C   0  0  0  0  0  0  0  0  0  0  0  0
  -25.9827  -13.0985   19.4048 C   0  0  0  0  0  0  0  0  0  0  0  0
  -25.1619  -11.2790   17.9000 C   0  0  0  0  0  0  0  0  0  0  0  0
  -22.4348  -29.0242   21.3200 C   0  0  0  0  0  0  0  0  0  0  0  0
  -23.4382  -31.7066   19.7968 C   0  0  0  0  0  0  0  0  0  0  0  0
  -29.0641  -23.9383   19.7261 C   0  0  0  0  0  0  0  0  0  0  0  0
  -25.9731  -33.3761   18.2367 C   0  0  0  0  0  0  0  0  0  0  0  0
  -26.4121  -18.1402   21.7285 C   0  0  0  0  0  0  0  0  0  0  0  0
  -17.5965  -29.0338   22.9474 C   0  0  0  0  0  0  0  0  0  0  0  0
  -24.5321  -29.5779   22.6049 C   0  0  0  0  0  0  0  0  0  0  0  0
  -24.9693  -29.7046   19.6830 C   0  0  0  0  0  0  0  0  0  0  0  0
  -18.3515  -29.6335   21.7639 C   0  0  0  0  0  0  0  0  0  0  0  0
  -27.2523  -15.3406   23.7617 C   0  0  0  0  0  0  0  0  0  0  0  0
  -19.2210  -28.5746   21.0935 C   0  0  0  0  0  0  0  0  0  0  0  0
  -26.7187  -14.1445   22.9701 C   0  0  0  0  0  0  0  0  0  0  0  0
  -26.3342  -16.5556   23.6412 C   0  0  0  0  0  0  0  0  0  0  0  0
  -25.4757  -15.7582   21.4741 C   0  0  0  0  0  0  0  0  0  0  0  0
  -20.2774  -28.0328   22.0640 C   0  0  1  0  0  0  0  0  0  0  0  0
  -23.4514  -30.0797   21.6521 C   0  0  1  0  0  0  0  0  0  0  0  0
  -26.4002  -14.5304   21.5123 C   0  0  2  0  0  0  0  0  0  0  0  0
  -25.3349  -18.3999   17.5932 C   0  0  0  0  0  0  0  0  0  0  0  0
  -26.4805  -35.5349   17.0622 C   0  0  0  0  0  0  0  0  0  0  0  0
  -21.9515  -30.7090   17.3261 C   0  0  0  0  0  0  0  0  0  0  0  0
  -23.2500  -32.3602   15.9638 C   0  0  0  0  0  0  0  0  0  0  0  0
  -21.7198  -33.1603   17.7640 C   0  0  0  0  0  0  0  0  0  0  0  0
  -28.0366  -34.1087   20.2278 C   0  0  0  0  0  0  0  0  0  0  0  0
  -29.7710  -21.5609   19.5423 C   0  0  0  0  0  0  0  0  0  0  0  0
  -28.6189  -24.9547   20.7558 C   0  0  0  0  0  0  0  0  0  1  0  0
  -23.8932  -32.0332   18.3949 C   0  0  1  0  0  0  0  0  0  0  0  0
  -26.4895  -34.7953   18.3910 C   0  0  2  0  0  0  0  0  0  0  0  0
  -22.7171  -32.0462   17.3781 C   0  0  0  0  0  0  0  0  0  0  0  0
  -25.0717  -12.4569   21.3812 N   0  0  0  0  0  0  0  0  0  0  0  0
  -25.8260  -13.3614   20.7339 N   0  0  0  0  0  0  0  0  0  0  0  0
  -23.9972  -30.5616   20.3817 N   0  0  0  0  0  0  0  0  0  0  0  0
  -26.0801  -16.8647   22.2323 N   0  0  0  0  0  0  0  0  0  0  0  0
  -26.7110  -13.9066   18.6055 N   0  0  0  0  0  0  0  0  0  0  0  0
  -24.4056  -10.1010   17.8316 N   0  0  0  0  0  0  0  0  0  0  0  0
  -26.1556  -18.3074   20.3681 N   0  0  0  0  0  0  0  0  0  0  0  0
  -21.3695  -28.9728   22.1986 N   0  0  0  0  0  0  0  0  0  0  0  0
  -29.3279  -22.7061   20.3033 N   0  0  0  0  0  0  0  0  0  0  0  0
  -24.6192  -33.2955   18.4850 N   0  0  0  0  0  0  0  0  0  0  0  0
  -27.8851  -34.7848   18.9136 N   0  3  0  0  0  0  0  0  0  0  0  0
  -25.7220  -11.7100   16.8637 O   0  0  0  0  0  0  0  0  0  0  0  0
  -22.6037  -28.3103   20.3384 O   0  0  0  0  0  0  0  0  0  0  0  0
  -22.6224  -32.4445   20.3551 O   0  0  0  0  0  0  0  0  0  0  0  0
  -29.1700  -24.2048   18.5321 O   0  0  0  0  0  0  0  0  0  0  0  0
  -26.6976  -32.4341   17.9234 O   0  0  0  0  0  0  0  0  0  0  0  0
  -26.9141  -19.0103   22.4447 O   0  0  0  0  0  0  0  0  0  0  0  0
  -21.5400   -7.1627   21.5985 O   0  0  0  0  0  0  0  0  0  0  0  0
  -28.3720  -26.2191   20.1421 O   0  0  0  0  0  0  0  0  0  1  0  0
  -22.7362   -4.2786   26.1433 F   0  0  0  0  0  0  0  0  0  0  0  0
  -22.2024   -4.4831   21.4445 F   0  0  0  0  0  0  0  0  0  0  0  0
  1  2  1  0  0  0  0
  1  5  2  0  0  0  0
  2  6  2  0  0  0  0
  3 10  2  0  0  0  0
  3 18  1  0  0  0  0
  4 11  1  0  0  0  0
  4 18  2  0  0  0  0
  5 20  1  0  0  0  0
  6 22  1  0  0  0  0
  7 12  2  0  0  0  0
  7 21  1  0  0  0  0
  8  9  2  0  0  0  0
  8 24  1  0  0  0  0
  9 25  1  0  0  0  0
 10 27  1  0  0  0  0
 11 27  2  0  0  0  0
 12 28  1  0  0  0  0
 13 14  2  0  0  0  0
 13 29  1  0  0  0  0
 14 30  1  0  0  0  0
 15 23  1  0  0  0  0
 15 28  2  0  0  0  0
 16 24  2  0  0  0  0
 16 26  1  0  0  0  0
 17 30  2  0  0  0  0
 17 31  1  0  0  0  0
 18 32  1  0  0  0  0
 19 32  1  0  0  0  0
 19 33  2  0  0  0  0
 19 34  1  0  0  0  0
 20 22  2  0  0  0  0
 20 40  1  0  0  0  0
 21 23  2  0  0  0  0
 21 41  1  0  0  0  0
 22 49  1  0  0  0  0
 23 42  1  0  0  0  0
 24 58  1  0  0  0  0
 25 26  2  0  0  0  0
 25 52  1  0  0  0  0
 26 69  1  0  0  0  0
 27 80  1  0  0  0  0
 28 81  1  0  0  0  0
 29 31  2  0  0  0  0
 29 80  1  0  0  0  0
 30 82  1  0  0  0  0
 31 83  1  0  0  0  0
 32 63  2  0  0  0  0
 33 64  1  0  0  0  0
 33 67  1  0  0  0  0
 34 68  1  0  0  0  0
 34 74  2  0  0  0  0
 35 50  1  0  0  0  0
 35 70  1  0  0  0  0
 35 75  2  0  0  0  0
 36 60  1  0  0  0  0
 36 65  1  0  0  0  0
 36 76  2  0  0  0  0
 37 59  1  0  0  0  0
 37 71  1  0  0  0  0
 37 77  2  0  0  0  0
 38 61  1  0  0  0  0
 38 72  1  0  0  0  0
 38 78  2  0  0  0  0
 39 66  1  0  0  0  0
 39 69  1  0  0  0  0
 39 79  2  0  0  0  0
 40 43  1  0  0  0  0
 41 50  1  0  0  0  0
 42 65  1  0  0  0  0
 43 45  1  0  0  0  0
 44 46  1  0  0  0  0
 44 47  1  0  0  0  0
 45 49  1  0  0  0  0
 46 51  1  0  0  0  0
 47 66  1  0  0  0  0
 48 51  1  0  0  0  0
 48 66  1  0  0  0  0
 49 70  1  0  0  0  0
 50 65  1  0  0  0  0
 51 64  1  0  0  0  0
 53 61  1  0  0  0  0
 54 62  1  0  0  0  0
 55 62  1  0  0  0  0
 56 62  1  0  0  0  0
 57 73  1  0  0  0  0
 58 71  1  0  0  0  0
 59 81  1  0  0  0  0
 60 62  1  0  0  0  0
 60 72  1  0  0  0  0
 61 73  1  0  0  0  0
 63 64  1  0  0  0  0
M  CHG  1  73   1
M  ISO  4  39 100  59 101  69 100  81 101
M  END
> <Batch ID>
0054

> <Smiles>
CNC(C)C(=O)NC(C(=O)N1Cc2cc([101O:1][101CH2:1]C(=O)NCc3ccc(C)c([100NH:0][100C:0](=O)N4CCCC(n5nc(-c6ccc(Oc7ccc(F)cc7F)cc6)c(C(N)=O)c5N)C4)c3)ccc2CC1C(=O)NC1CCCc2ccccc21)C(C)(C)C

> <Shape>
0.253

> <Color>
0.131

> <Negative vol penalty>
0.000

$$$$

  -OEChem-04042322463D

 87 96  0     1  0  0  0  0  0999 V2000
  -15.2448  -27.1017   24.9512 C   0  0  0  0  0  0  0  0  0  0  0  0
  -15.7294  -26.3382   23.8940 C   0  0  0  0  0  0  0  0  0  0  0  0
  -22.5056  -15.7287   21.4953 C   0  0  0  0  0  0  0  0  0  0  0  0
  -22.4503  -14.3145   19.5372 C   0  0  0  0  0  0  0  0  0  0  0  0
  -15.8231  -28.3370   25.2401 C   0  0  0  0  0  0  0  0  0  0  0  0
  -16.7920  -26.8103   23.1242 C   0  0  0  0  0  0  0  0  0  0  0  0
  -22.9079  -23.0488   22.5422 C   0  0  0  0  0  0  0  0  0  0  0  0
  -21.1943  -15.3617   21.7974 C   0  0  0  0  0  0  0  0  0  0  0  0
  -21.1390  -13.9474   19.8394 C   0  0  0  0  0  0  0  0  0  0  0  0
  -24.0296  -22.2884   22.2111 C   0  0  0  0  0  0  0  0  0  0  0  0
  -19.5716  -11.8340   21.9601 C   0  0  0  0  0  0  0  0  0  0  0  0
  -19.2412  -10.4820   21.8685 C   0  0  0  0  0  0  0  0  0  0  0  0
  -24.8930  -24.1189   20.8875 C   0  0  0  0  0  0  0  0  0  0  0  0
  -31.6694  -18.7079   21.2327 C   0  0  0  0  0  0  0  0  0  0  0  0
  -32.8168  -18.1737   23.2906 C   0  0  0  0  0  0  0  0  0  0  0  0
  -31.9641  -20.4048   22.9270 C   0  0  0  0  0  0  0  0  0  0  0  0
  -17.5714  -11.0029   20.2019 C   0  0  0  0  0  0  0  0  0  0  0  0
  -23.1336  -15.2052   20.3651 C   0  0  0  0  0  0  0  0  0  0  0  0
  -24.9693  -16.8817   19.7930 C   0  0  0  0  0  0  0  0  0  0  0  0
  -16.8996  -28.8201   24.4795 C   0  0  0  0  0  0  0  0  0  0  0  0
  -22.7817  -24.3542   22.0591 C   0  0  0  0  0  0  0  0  0  0  0  0
  -17.3844  -28.0539   23.4023 C   0  0  0  0  0  0  0  0  0  0  0  0
  -23.7776  -24.8897   21.2260 C   0  0  0  0  0  0  0  0  0  0  0  0
  -32.3361  -17.7862   22.0398 C   0  0  0  0  0  0  0  0  0  0  0  0
  -31.4835  -20.0173   21.6762 C   0  0  0  0  0  0  0  0  0  0  0  0
  -20.5110  -14.4710   20.9696 C   0  0  0  0  0  0  0  0  0  0  0  0
  -25.0196  -22.8221   21.3856 C   0  0  0  0  0  0  0  0  0  0  0  0
  -18.9018  -12.7706   21.1727 C   0  0  0  0  0  0  0  0  0  0  0  0
  -18.2412  -10.0664   20.9894 C   0  0  0  0  0  0  0  0  0  0  0  0
  -17.9018  -12.3550   20.2936 C   0  0  0  0  0  0  0  0  0  0  0  0
  -32.6308  -19.4830   23.7342 C   0  0  0  0  0  0  0  0  0  0  0  0
  -24.4880  -15.5844   20.0521 C   0  0  0  0  0  0  0  0  0  0  0  0
  -26.3105  -16.7088   19.5530 C   0  0  0  0  0  0  0  0  0  0  0  0
  -28.5858  -20.4140   21.6883 C   0  0  0  0  0  0  0  0  0  0  0  0
  -28.3335  -19.1583   22.0877 C   0  0  0  0  0  0  0  0  0  0  0  0
  -24.2667  -18.1314   19.7714 C   0  0  0  0  0  0  0  0  0  0  0  0
  -20.7361  -27.4973   21.9499 C   0  0  0  0  0  0  0  0  0  0  0  0
  -23.6731  -28.3531   22.1778 C   0  0  0  0  0  0  0  0  0  0  0  0
  -26.6065  -29.9672   22.8314 C   0  0  0  0  0  0  0  0  0  0  0  0
  -31.2275  -14.4039   20.8400 C   0  0  0  0  0  0  0  0  0  0  0  0
  -17.4613  -30.1826   24.8000 C   0  0  0  0  0  0  0  0  0  0  0  0
  -21.5610  -25.1878   22.3398 C   0  0  0  0  0  0  0  0  0  0  0  0
  -23.5830  -26.2861   20.7014 C   0  0  0  0  0  0  0  0  0  0  0  0
  -28.0704  -21.6269   22.4192 C   0  0  0  0  0  0  0  0  0  0  0  0
  -18.8278  -30.4415   24.1708 C   0  0  0  0  0  0  0  0  0  0  0  0
  -29.0067  -12.4927   18.8172 C   0  0  0  0  0  0  0  0  0  0  0  0
  -18.8284  -30.0220   22.7043 C   0  0  0  0  0  0  0  0  0  0  0  0
  -27.6722  -13.2299   18.9419 C   0  0  0  0  0  0  0  0  0  0  0  0
  -28.2256  -22.8276   20.1980 C   0  0  0  0  0  0  0  0  0  0  0  0
  -29.7894  -12.5167   20.1282 C   0  0  0  0  0  0  0  0  0  0  0  0
  -28.6665  -14.5975   20.8234 C   0  0  0  0  0  0  0  0  0  0  0  0
  -28.6364  -21.5168   19.5287 C   0  0  0  0  0  0  0  0  0  0  0  0
  -18.5516  -28.5206   22.5598 C   0  0  1  0  0  0  0  0  0  0  0  0
  -21.8759  -26.6866   22.4930 C   0  0  1  0  0  0  0  0  0  0  0  0
  -27.8662  -14.6484   19.5106 C   0  0  2  0  0  0  0  0  0  0  0  0
  -27.3865  -22.5959   21.4546 C   0  0  1  0  0  0  0  0  0  1  0  0
  -27.7535  -32.1759   22.5100 C   0  0  0  0  0  0  0  0  0  0  0  0
  -24.1621  -27.6684   19.2459 C   0  0  0  0  0  0  0  0  0  0  0  0
  -26.0317  -29.3335   19.2423 C   0  0  0  0  0  0  0  0  0  0  0  0
  -23.6954  -30.0850   19.6894 C   0  0  0  0  0  0  0  0  0  0  0  0
  -26.8666  -30.3881   25.7493 C   0  0  0  0  0  0  0  0  0  0  0  0
  -32.5332  -16.3859   21.5655 C   0  0  0  0  0  0  0  0  0  0  0  0
  -30.7647  -21.0074   20.8079 C   0  0  0  0  0  0  0  0  0  0  0  0
  -24.9311  -28.7623   21.4545 C   0  0  1  0  0  0  0  0  0  0  0  0
  -26.8937  -31.3297   23.4360 C   0  0  2  0  0  0  0  0  0  0  0  0
  -24.7049  -28.9407   19.9266 C   0  0  0  0  0  0  0  0  0  0  0  0
  -25.4456  -14.6558   19.9830 N   0  0  0  0  0  0  0  0  0  0  0  0
  -26.5420  -15.3705   19.6776 N   0  0  0  0  0  0  0  0  0  0  0  0
  -23.0696  -27.1572   21.7702 N   0  0  0  0  0  0  0  0  0  0  0  0
  -29.9397  -13.8909   20.6129 N   0  0  0  0  0  0  0  0  0  0  0  0
  -27.3026  -17.5725   19.2494 N   0  0  0  0  0  0  0  0  0  0  0  0
  -23.7048  -18.5612   18.5615 N   0  0  0  0  0  0  0  0  0  0  0  0
  -19.7397  -27.7554   22.8719 N   0  0  0  0  0  0  0  0  0  0  0  0
  -25.4193  -29.9597   22.1301 N   0  0  0  0  0  0  0  0  0  0  0  0
  -31.2808  -15.7165   21.2927 N   0  0  0  0  0  0  0  0  0  0  0  0
  -29.3563  -20.5926   20.4827 N   0  3  1  0  0  0  0  0  0  0  0  0
  -27.6090  -31.1797   24.7348 N   0  3  0  0  0  0  0  0  0  0  0  0
  -24.1551  -18.8537   20.7909 O   0  0  0  0  0  0  0  0  0  0  0  0
  -20.7584  -27.8638   20.7808 O   0  0  0  0  0  0  0  0  0  0  0  0
  -23.2320  -29.0752   23.0763 O   0  0  0  0  0  0  0  0  0  0  0  0
  -27.3616  -29.0067   22.9647 O   0  0  0  0  0  0  0  0  0  0  0  0
  -32.2538  -13.7431   20.6481 O   0  0  0  0  0  0  0  0  0  0  0  0
  -19.2315  -14.1124   21.2643 O   0  0  0  0  0  0  0  0  0  0  0  0
  -26.1143  -22.0759   21.0700 O   0  0  0  0  0  0  0  0  0  1  0  0
  -17.9251   -8.7678   20.9004 F   0  0  0  0  0  0  0  0  0  0  0  0
  -17.2557  -13.2500   19.5337 F   0  0  0  0  0  0  0  0  0  0  0  0
  -33.2251  -19.9615   25.2769 Cl  0  0  0  0  0  0  0  0  0  0  0  0
  1  2  1  0  0  0  0
  1  5  2  0  0  0  0
  2  6  2  0  0  0  0
  3  8  2  0  0  0  0
  3 18  1  0  0  0  0
  4  9  1  0  0  0  0
  4 18  2  0  0  0  0
  5 20  1  0  0  0  0
  6 22  1  0  0  0  0
  7 10  2  0  0  0  0
  7 21  1  0  0  0  0
  8 26  1  0  0  0  0
  9 26  2  0  0  0  0
 10 27  1  0  0  0  0
 11 12  2  0  0  0  0
 11 28  1  0  0  0  0
 12 29  1  0  0  0  0
 13 23  1  0  0  0  0
 13 27  2  0  0  0  0
 14 24  1  0  0  0  0
 14 25  2  0  0  0  0
 15 24  2  0  0  0  0
 15 31  1  0  0  0  0
 16 25  1  0  0  0  0
 16 31  2  0  0  0  0
 17 29  2  0  0  0  0
 17 30  1  0  0  0  0
 18 32  1  0  0  0  0
 19 32  1  0  0  0  0
 19 33  2  0  0  0  0
 19 36  1  0  0  0  0
 20 22  2  0  0  0  0
 20 41  1  0  0  0  0
 21 23  2  0  0  0  0
 21 42  1  0  0  0  0
 22 53  1  0  0  0  0
 23 43  1  0  0  0  0
 24 62  1  0  0  0  0
 25 63  1  0  0  0  0
 26 83  1  0  0  0  0
 27 84  1  0  0  0  0
 28 30  2  0  0  0  0
 28 83  1  0  0  0  0
 29 85  1  0  0  0  0
 30 86  1  0  0  0  0
 31 87  1  0  0  0  0
 32 67  2  0  0  0  0
 33 68  1  0  0  0  0
 33 71  1  0  0  0  0
 34 35  2  0  0  0  0
 34 44  1  0  0  0  0
 34 76  1  0  0  0  0
 36 72  1  0  0  0  0
 36 78  2  0  0  0  0
 37 54  1  0  0  0  0
 37 73  1  0  0  0  0
 37 79  2  0  0  0  0
 38 64  1  0  0  0  0
 38 69  1  0  0  0  0
 38 80  2  0  0  0  0
 39 65  1  0  0  0  0
 39 74  1  0  0  0  0
 39 81  2  0  0  0  0
 40 70  1  0  0  0  0
 40 75  1  0  0  0  0
 40 82  2  0  0  0  0
 41 45  1  0  0  0  0
 42 54  1  0  0  0  0
 43 69  1  0  0  0  0
 44 56  1  0  0  0  0
 45 47  1  0  0  0  0
 46 48  1  0  0  0  0
 46 50  1  0  0  0  0
 47 53  1  0  0  0  0
 48 55  1  0  0  0  0
 49 52  1  0  0  0  0
 49 56  1  0  0  0  0
 50 70  1  0  0  0  0
 51 55  1  0  0  0  0
 51 70  1  0  0  0  0
 52 76  1  0  0  0  0
 53 73  1  0  0  0  0
 54 69  1  0  0  0  0
 55 68  1  0  0  0  0
 56 84  1  0  0  0  0
 57 65  1  0  0  0  0
 58 66  1  0  0  0  0
 59 66  1  0  0  0  0
 60 66  1  0  0  0  0
 61 77  1  0  0  0  0
 62 75  1  0  0  0  0
 63 76  1  0  0  0  0
 64 66  1  0  0  0  0
 64 74  1  0  0  0  0
 65 77  1  0  0  0  0
 67 68  1  0  0  0  0
M  CHG  2  76   1  77   1
M  ISO  4  40 100  56 101  75 100  84 101
M  END
> <Batch ID>
0054

> <Smiles>
C=C1C[101CH:1]([101O:1]c2ccc3c(c2)CN(C(=O)C(NC(=O)C(C)NC)C(C)(C)C)C(C(=O)NC2CCCc4ccccc42)C3)CCN1Cc1cc(Cl)cc(C[100NH:0][100C:0](=O)N2CCCC(n3nc(-c4ccc(Oc5ccc(F)cc5F)cc4)c(C(N)=O)c3N)C2)c1

> <Shape>
0.236

> <Color>
0.058

> <Negative vol penalty>
0.000

$$$$

  -OEChem-04042322463D

 86 94  0     1  0  0  0  0  0999 V2000
  -28.3189  -23.4690   15.0086 C   0  0  0  0  0  0  0  0  0  0  0  0
  -27.1654  -23.7869   15.7183 C   0  0  0  0  0  0  0  0  0  0  0  0
  -20.4229  -23.2168   23.9105 C   0  0  0  0  0  0  0  0  0  0  0  0
  -27.9782  -14.7936   21.3340 C   0  0  0  0  0  0  0  0  0  0  0  0
  -26.0193  -15.3846   20.0493 C   0  0  0  0  0  0  0  0  0  0  0  0
  -29.5601  -23.5125   15.6422 C   0  0  0  0  0  0  0  0  0  0  0  0
  -27.2523  -24.1475   17.0625 C   0  0  0  0  0  0  0  0  0  0  0  0
  -24.4093  -28.1869   18.1782 C   0  0  0  0  0  0  0  0  0  0  0  0
  -19.7040  -22.9865   22.7376 C   0  0  0  0  0  0  0  0  0  0  0  0
  -21.7768  -22.8873   23.9747 C   0  0  0  0  0  0  0  0  0  0  0  0
  -27.6348  -13.4452   21.2373 C   0  0  0  0  0  0  0  0  0  0  0  0
  -25.6760  -14.0361   19.9524 C   0  0  0  0  0  0  0  0  0  0  0  0
  -23.0391  -27.9789   18.3301 C   0  0  0  0  0  0  0  0  0  0  0  0
  -24.2349  -11.6856   21.9092 C   0  0  0  0  0  0  0  0  0  0  0  0
  -22.9038  -11.3377   22.1386 C   0  0  0  0  0  0  0  0  0  0  0  0
  -23.3121  -27.9709   20.7269 C   0  0  0  0  0  0  0  0  0  0  0  0
  -22.7562  -10.4291   19.9048 C   0  0  0  0  0  0  0  0  0  0  0  0
  -27.1704  -15.7634   20.7401 C   0  0  0  0  0  0  0  0  0  0  0  0
  -28.3292  -17.8951   19.9523 C   0  0  0  0  0  0  0  0  0  0  0  0
  -29.6633  -23.8831   16.9923 C   0  0  0  0  0  0  0  0  0  0  0  0
  -25.2442  -28.2778   19.3012 C   0  0  0  0  0  0  0  0  0  0  0  0
  -28.4959  -24.1946   17.7152 C   0  0  0  0  0  0  0  0  0  0  0  0
  -24.6922  -28.1827   20.5866 C   0  0  0  0  0  0  0  0  0  0  0  0
  -20.3389  -22.4267   21.6289 C   0  0  0  0  0  0  0  0  0  0  0  0
  -21.6928  -22.0971   21.6932 C   0  0  0  0  0  0  0  0  0  0  0  0
  -22.4117  -22.3274   22.8661 C   0  0  0  0  0  0  0  0  0  0  0  0
  -26.4838  -13.0664   20.5465 C   0  0  0  0  0  0  0  0  0  0  0  0
  -22.4907  -27.8679   19.6045 C   0  0  0  0  0  0  0  0  0  0  0  0
  -24.8267  -11.4053   20.6775 C   0  0  0  0  0  0  0  0  0  0  0  0
  -22.1644  -10.7094   21.1365 C   0  0  0  0  0  0  0  0  0  0  0  0
  -24.0874  -10.7771   19.6754 C   0  0  0  0  0  0  0  0  0  0  0  0
  -27.5242  -17.1565   20.8402 C   0  0  0  0  0  0  0  0  0  0  0  0
  -28.3590  -19.1599   20.4871 C   0  0  0  0  0  0  0  0  0  0  0  0
  -19.2394  -24.8572   19.2843 C   0  0  0  0  0  0  0  0  0  0  0  0
  -19.3404  -26.1933   19.3190 C   0  0  0  0  0  0  0  0  0  0  0  0
  -28.9907  -17.4754   18.7515 C   0  0  0  0  0  0  0  0  0  0  0  0
  -18.0527  -24.1843   19.8875 C   0  0  0  0  0  0  0  0  0  0  0  0
  -27.7074  -26.6002   20.4067 C   0  0  0  0  0  0  0  0  0  0  0  0
  -27.8407  -28.9809   22.6060 C   0  0  0  0  0  0  0  0  0  0  0  0
  -26.2141  -31.4638   24.2901 C   0  0  0  0  0  0  0  0  0  0  0  0
  -24.6290  -22.1737   24.0520 C   0  0  0  0  0  0  0  0  0  0  0  0
  -31.0219  -23.8699   17.6469 C   0  0  0  0  0  0  0  0  0  0  0  0
  -26.7162  -28.5291   19.1211 C   0  0  0  0  0  0  0  0  0  0  0  0
  -25.5423  -28.2935   21.8250 C   0  0  0  0  0  0  0  0  0  0  0  0
  -31.0665  -24.6247   18.9730 C   0  0  0  0  0  0  0  0  0  0  0  0
  -28.0616  -21.4627   24.6755 C   0  0  0  0  0  0  0  0  0  0  0  0
  -29.8757  -24.2410   19.8458 C   0  0  0  0  0  0  0  0  0  0  0  0
  -28.3883  -20.3492   23.6777 C   0  0  0  0  0  0  0  0  0  0  0  0
  -26.6455  -21.3278   25.2324 C   0  0  0  0  0  0  0  0  0  0  0  0
  -25.9144  -20.1063   23.2218 C   0  0  0  0  0  0  0  0  0  0  0  0
  -28.5519  -24.6144   19.1680 C   0  0  1  0  0  0  0  0  0  0  0  0
  -27.5484  -28.0920   20.3226 C   0  0  1  0  0  0  0  0  0  0  0  0
  -27.3074  -20.2371   22.5846 C   0  0  2  0  0  0  0  0  0  0  0  0
  -22.3697  -21.4968   20.5010 C   0  0  0  0  0  0  0  0  0  0  0  0
  -26.5763  -33.2134   26.0522 C   0  0  0  0  0  0  0  0  0  0  0  0
  -27.7520  -26.8240   24.7623 C   0  0  0  0  0  0  0  0  0  0  0  0
  -27.1618  -28.6044   26.4207 C   0  0  0  0  0  0  0  0  0  0  0  0
  -29.3478  -28.6939   25.2222 C   0  0  0  0  0  0  0  0  0  0  0  0
  -17.1468  -22.1681   20.9788 C   0  0  0  0  0  0  0  0  0  0  0  0
  -25.5586  -33.6559   22.4129 C   0  0  0  0  0  0  0  0  0  0  0  0
  -19.5416  -22.1895   20.3790 C   0  0  0  0  0  0  0  0  0  0  0  0
  -20.4853  -26.9448   18.7201 C   0  0  0  0  0  0  0  0  0  1  0  0
  -27.2205  -29.2203   23.9613 C   0  0  1  0  0  0  0  0  0  0  0  0
  -26.5891  -32.9094   24.5622 C   0  0  2  0  0  0  0  0  0  0  0  0
  -27.8545  -28.3316   25.0685 C   0  0  0  0  0  0  0  0  0  0  0  0
  -27.0753  -17.8909   21.8616 N   0  0  0  0  0  0  0  0  0  0  0  0
  -27.6000  -19.1041   21.6188 N   0  0  0  0  0  0  0  0  0  0  0  0
  -26.9769  -28.5330   21.5966 N   0  0  0  0  0  0  0  0  0  0  0  0
  -25.6752  -21.2310   24.1397 N   0  0  0  0  0  0  0  0  0  0  0  0
  -28.9603  -20.3032   20.0949 N   0  0  0  0  0  0  0  0  0  0  0  0
  -28.8552  -16.1408   18.3455 N   0  0  0  0  0  0  0  0  0  0  0  0
  -23.7878  -22.0009   22.9533 N   0  0  0  0  0  0  0  0  0  0  0  0
  -28.3018  -26.0342   19.2951 N   0  0  0  0  0  0  0  0  0  0  0  0
  -27.3271  -30.6536   24.2117 N   0  0  0  0  0  0  0  0  0  0  0  0
  -18.2654  -22.9018   20.4009 N   0  0  0  0  0  0  0  0  0  0  0  0
  -25.6307  -33.8292   23.8866 N   0  3  0  0  0  0  0  0  0  0  0  0
  -29.6949  -18.2566   18.0679 O   0  0  0  0  0  0  0  0  0  0  0  0
  -16.9610  -24.7550   19.8875 O   0  0  0  0  0  0  0  0  0  0  0  0
  -27.3207  -26.0069   21.4067 O   0  0  0  0  0  0  0  0  0  0  0  0
  -29.0458  -29.1908   22.4468 O   0  0  0  0  0  0  0  0  0  0  0  0
  -25.0502  -31.0901   24.1637 O   0  0  0  0  0  0  0  0  0  0  0  0
  -24.5057  -23.0846   24.8748 O   0  0  0  0  0  0  0  0  0  0  0  0
  -26.1486  -11.7507   20.4516 O   0  0  0  0  0  0  0  0  0  0  0  0
  -21.1537  -27.6642   19.7555 O   0  0  0  0  0  0  0  0  0  1  0  0
  -20.8866  -10.3740   21.3575 F   0  0  0  0  0  0  0  0  0  0  0  0
  -24.6508  -10.5042   18.4905 F   0  0  0  0  0  0  0  0  0  0  0  0
  1  2  1  0  0  0  0
  1  6  2  0  0  0  0
  2  7  2  0  0  0  0
  3  9  2  0  0  0  0
  3 10  1  0  0  0  0
  4 11  2  0  0  0  0
  4 18  1  0  0  0  0
  5 12  1  0  0  0  0
  5 18  2  0  0  0  0
  6 20  1  0  0  0  0
  7 22  1  0  0  0  0
  8 13  2  0  0  0  0
  8 21  1  0  0  0  0
  9 24  1  0  0  0  0
 10 26  2  0  0  0  0
 11 27  1  0  0  0  0
 12 27  2  0  0  0  0
 13 28  1  0  0  0  0
 14 15  2  0  0  0  0
 14 29  1  0  0  0  0
 15 30  1  0  0  0  0
 16 23  1  0  0  0  0
 16 28  2  0  0  0  0
 17 30  2  0  0  0  0
 17 31  1  0  0  0  0
 18 32  1  0  0  0  0
 19 32  1  0  0  0  0
 19 33  2  0  0  0  0
 19 36  1  0  0  0  0
 20 22  2  0  0  0  0
 20 42  1  0  0  0  0
 21 23  2  0  0  0  0
 21 43  1  0  0  0  0
 22 51  1  0  0  0  0
 23 44  1  0  0  0  0
 24 25  2  0  0  0  0
 24 61  1  0  0  0  0
 25 26  1  0  0  0  0
 25 54  1  0  0  0  0
 26 72  1  0  0  0  0
 27 83  1  0  0  0  0
 28 84  1  0  0  0  0
 29 31  2  0  0  0  0
 29 83  1  0  0  0  0
 30 85  1  0  0  0  0
 31 86  1  0  0  0  0
 32 66  2  0  0  0  0
 33 67  1  0  0  0  0
 33 70  1  0  0  0  0
 34 35  2  0  0  0  0
 34 37  1  0  0  0  0
 35 62  1  0  0  0  0
 36 71  1  0  0  0  0
 36 77  2  0  0  0  0
 37 75  1  0  0  0  0
 37 78  2  0  0  0  0
 38 52  1  0  0  0  0
 38 73  1  0  0  0  0
 38 79  2  0  0  0  0
 39 63  1  0  0  0  0
 39 68  1  0  0  0  0
 39 80  2  0  0  0  0
 40 64  1  0  0  0  0
 40 74  1  0  0  0  0
 40 81  2  0  0  0  0
 41 69  1  0  0  0  0
 41 72  1  0  0  0  0
 41 82  2  0  0  0  0
 42 45  1  0  0  0  0
 43 52  1  0  0  0  0
 44 68  1  0  0  0  0
 45 47  1  0  0  0  0
 46 48  1  0  0  0  0
 46 49  1  0  0  0  0
 47 51  1  0  0  0  0
 48 53  1  0  0  0  0
 49 69  1  0  0  0  0
 50 53  1  0  0  0  0
 50 69  1  0  0  0  0
 51 73  1  0  0  0  0
 52 68  1  0  0  0  0
 53 67  1  0  0  0  0
 55 64  1  0  0  0  0
 56 65  1  0  0  0  0
 57 65  1  0  0  0  0
 58 65  1  0  0  0  0
 59 75  1  0  0  0  0
 60 76  1  0  0  0  0
 61 75  1  0  0  0  0
 62 84  1  0  0  0  0
 63 65  1  0  0  0  0
 63 74  1  0  0  0  0
 64 76  1  0  0  0  0
 66 67  1  0  0  0  0
M  CHG  1  76   1
M  ISO  4  41 100  62 101  72 100  84 101
M  END
> <Batch ID>
0054

> <Smiles>
CNC(C)C(=O)NC(C(=O)N1Cc2cc([101O:1][101CH2:1]C=CC(=O)N(C)Cc3cccc([100NH:0][100C:0](=O)N4CCCC(n5nc(-c6ccc(Oc7ccc(F)cc7F)cc6)c(C(N)=O)c5N)C4)c3C)ccc2CC1C(=O)NC1CCCc2ccccc21)C(C)(C)C

> <Shape>
0.223

> <Color>
0.071

> <Negative vol penalty>
0.000

$$$$

  -OEChem-04042322463D

 86 94  0     1  0  0  0  0  0999 V2000
  -31.3741  -28.2359   14.2423 C   0  0  0  0  0  0  0  0  0  0  0  0
  -31.2972  -27.0787   15.0108 C   0  0  0  0  0  0  0  0  0  0  0  0
  -23.4643   -9.9252   21.7839 C   0  0  0  0  0  0  0  0  0  0  0  0
  -24.1609  -11.0836   23.7863 C   0  0  0  0  0  0  0  0  0  0  0  0
  -30.8447  -29.4306   14.7284 C   0  0  0  0  0  0  0  0  0  0  0  0
  -30.6916  -27.1159   16.2663 C   0  0  0  0  0  0  0  0  0  0  0  0
  -27.4012  -22.6724   18.8996 C   0  0  0  0  0  0  0  0  0  0  0  0
  -32.9662  -16.6325   21.6646 C   0  0  0  0  0  0  0  0  0  0  0  0
  -32.9418  -18.0025   21.4033 C   0  0  0  0  0  0  0  0  0  0  0  0
  -22.8258   -8.9610   22.5638 C   0  0  0  0  0  0  0  0  0  0  0  0
  -23.5223  -10.1195   24.5662 C   0  0  0  0  0  0  0  0  0  0  0  0
  -27.7241  -21.7020   19.8471 C   0  0  0  0  0  0  0  0  0  0  0  0
  -24.1379   -6.9712   25.6340 C   0  0  0  0  0  0  0  0  0  0  0  0
  -24.8282   -6.4686   26.7369 C   0  0  0  0  0  0  0  0  0  0  0  0
  -26.8598  -23.1263   21.5917 C   0  0  0  0  0  0  0  0  0  0  0  0
  -31.0205  -16.8673   23.0774 C   0  0  0  0  0  0  0  0  0  0  0  0
  -23.0746   -7.2633   28.1966 C   0  0  0  0  0  0  0  0  0  0  0  0
  -24.1319  -10.9865   22.3951 C   0  0  0  0  0  0  0  0  0  0  0  0
  -24.2382  -13.1769   21.0919 C   0  0  0  0  0  0  0  0  0  0  0  0
  -30.2238  -29.4803   15.9864 C   0  0  0  0  0  0  0  0  0  0  0  0
  -26.8141  -23.8837   19.2929 C   0  0  0  0  0  0  0  0  0  0  0  0
  -30.1546  -28.3127   16.7702 C   0  0  0  0  0  0  0  0  0  0  0  0
  -26.5280  -24.1094   20.6469 C   0  0  0  0  0  0  0  0  0  0  0  0
  -32.0055  -16.0649   22.5016 C   0  0  0  0  0  0  0  0  0  0  0  0
  -31.9568  -18.8048   21.9791 C   0  0  0  0  0  0  0  0  0  0  0  0
  -30.9961  -18.2372   22.8162 C   0  0  0  0  0  0  0  0  0  0  0  0
  -22.8547   -9.0582   23.9549 C   0  0  0  0  0  0  0  0  0  0  0  0
  -27.4561  -21.9300   21.1937 C   0  0  0  0  0  0  0  0  0  0  0  0
  -22.9160   -7.6199   25.8123 C   0  0  0  0  0  0  0  0  0  0  0  0
  -24.2966   -6.6146   28.0182 C   0  0  0  0  0  0  0  0  0  0  0  0
  -22.3843   -7.7659   27.0936 C   0  0  0  0  0  0  0  0  0  0  0  0
  -24.7922  -11.9824   21.5901 C   0  0  0  0  0  0  0  0  0  0  0  0
  -25.2642  -13.7667   20.3948 C   0  0  0  0  0  0  0  0  0  0  0  0
  -25.7453  -16.7409   22.3965 C   0  0  0  0  0  0  0  0  0  0  0  0
  -26.4126  -17.8957   22.4906 C   0  0  0  0  0  0  0  0  0  0  0  0
  -22.9146  -13.7061   21.2457 C   0  0  0  0  0  0  0  0  0  0  0  0
  -27.7025  -17.9553   23.2368 C   0  0  0  0  0  0  0  0  0  0  0  0
  -27.6565  -26.9440   19.1237 C   0  0  0  0  0  0  0  0  0  0  0  0
  -24.6635  -27.4283   20.2769 C   0  0  0  0  0  0  0  0  0  0  0  0
  -21.9901  -26.1979   22.0048 C   0  0  0  0  0  0  0  0  0  0  0  0
  -31.2249  -13.3593   20.7893 C   0  0  0  0  0  0  0  0  0  0  0  0
  -29.7081  -30.8053   16.4896 C   0  0  0  0  0  0  0  0  0  0  0  0
  -26.4473  -24.9092   18.2556 C   0  0  0  0  0  0  0  0  0  0  0  0
  -25.8802  -25.3847   21.1187 C   0  0  0  0  0  0  0  0  0  0  0  0
  -28.7496  -30.6770   17.6707 C   0  0  0  0  0  0  0  0  0  0  0  0
  -29.2182  -12.6898   17.9255 C   0  0  0  0  0  0  0  0  0  0  0  0
  -29.3113  -29.7142   18.7120 C   0  0  0  0  0  0  0  0  0  0  0  0
  -27.8063  -12.5404   18.4950 C   0  0  0  0  0  0  0  0  0  0  0  0
  -30.2716  -12.1160   18.8705 C   0  0  0  0  0  0  0  0  0  0  0  0
  -28.8078  -12.4914   20.8174 C   0  0  0  0  0  0  0  0  0  0  0  0
  -29.4834  -28.3074   18.1266 C   0  0  1  0  0  0  0  0  0  0  0  0
  -26.3230  -26.3185   18.8264 C   0  0  1  0  0  0  0  0  0  0  0  0
  -27.7158  -13.1060   19.9251 C   0  0  2  0  0  0  0  0  0  0  0  0
  -31.9515  -20.2692   21.6856 C   0  0  0  0  0  0  0  0  0  0  0  0
  -19.7044  -26.8409   22.8170 C   0  0  0  0  0  0  0  0  0  0  0  0
  -25.9249  -29.0940   22.5005 C   0  0  0  0  0  0  0  0  0  0  0  0
  -23.7739  -28.9042   23.7676 C   0  0  0  0  0  0  0  0  0  0  0  0
  -23.8169  -30.0472   21.5508 C   0  0  0  0  0  0  0  0  0  0  0  0
  -20.6981  -24.0585   20.4197 C   0  0  0  0  0  0  0  0  0  0  0  0
  -32.0322  -14.6003   22.7812 C   0  0  0  0  0  0  0  0  0  0  0  0
  -29.9266  -19.0810   23.4474 C   0  0  0  0  0  0  0  0  0  0  0  0
  -28.3752  -19.7788   21.6466 C   0  0  0  0  0  0  0  0  0  1  0  0
  -24.0519  -27.5320   21.6532 C   0  0  1  0  0  0  0  0  0  0  0  0
  -20.5040  -26.1975   21.6948 C   0  0  2  0  0  0  0  0  0  0  0  0
  -24.4059  -28.8710   22.3597 C   0  0  0  0  0  0  0  0  0  0  0  0
  -26.0708  -11.8214   21.2391 N   0  0  0  0  0  0  0  0  0  0  0  0
  -26.3288  -12.9224   20.5129 N   0  0  0  0  0  0  0  0  0  0  0  0
  -25.5462  -26.3594   20.0670 N   0  0  0  0  0  0  0  0  0  0  0  0
  -30.1320  -12.6944   20.2092 N   0  0  0  0  0  0  0  0  0  0  0  0
  -25.3506  -14.9200   19.6985 N   0  0  0  0  0  0  0  0  0  0  0  0
  -21.9841  -12.9716   21.9934 N   0  0  0  0  0  0  0  0  0  0  0  0
  -28.2068  -27.6291   18.0574 N   0  0  0  0  0  0  0  0  0  0  0  0
  -22.6206  -27.3070   21.4818 N   0  0  0  0  0  0  0  0  0  0  0  0
  -31.0059  -13.8836   22.0574 N   0  0  0  0  0  0  0  0  0  0  0  0
  -28.6342  -18.9012   22.7961 N   0  0  0  0  0  0  0  0  0  0  0  0
  -20.0141  -24.8024   21.5087 N   0  3  0  0  0  0  0  0  0  0  0  0
  -22.5625  -14.7899   20.7215 O   0  0  0  0  0  0  0  0  0  0  0  0
  -27.8872  -17.2043   24.1961 O   0  0  0  0  0  0  0  0  0  0  0  0
  -28.1489  -26.8157   20.2385 O   0  0  0  0  0  0  0  0  0  0  0  0
  -24.3635  -28.2608   19.4175 O   0  0  0  0  0  0  0  0  0  0  0  0
  -22.5362  -25.3056   22.6498 O   0  0  0  0  0  0  0  0  0  0  0  0
  -32.3134  -13.4816   20.2173 O   0  0  0  0  0  0  0  0  0  0  0  0
  -22.2315   -8.1177   24.7163 O   0  0  0  0  0  0  0  0  0  0  0  0
  -27.7709  -20.9848   22.1206 O   0  0  0  0  0  0  0  0  0  1  0  0
  -24.9588   -6.1306   29.0771 F   0  0  0  0  0  0  0  0  0  0  0  0
  -21.2103   -8.3871   27.2711 F   0  0  0  0  0  0  0  0  0  0  0  0
  1  2  1  0  0  0  0
  1  5  2  0  0  0  0
  2  6  2  0  0  0  0
  3 10  2  0  0  0  0
  3 18  1  0  0  0  0
  4 11  1  0  0  0  0
  4 18  2  0  0  0  0
  5 20  1  0  0  0  0
  6 22  1  0  0  0  0
  7 12  2  0  0  0  0
  7 21  1  0  0  0  0
  8  9  2  0  0  0  0
  8 24  1  0  0  0  0
  9 25  1  0  0  0  0
 10 27  1  0  0  0  0
 11 27  2  0  0  0  0
 12 28  1  0  0  0  0
 13 14  2  0  0  0  0
 13 29  1  0  0  0  0
 14 30  1  0  0  0  0
 15 23  1  0  0  0  0
 15 28  2  0  0  0  0
 16 24  2  0  0  0  0
 16 26  1  0  0  0  0
 17 30  2  0  0  0  0
 17 31  1  0  0  0  0
 18 32  1  0  0  0  0
 19 32  1  0  0  0  0
 19 33  2  0  0  0  0
 19 36  1  0  0  0  0
 20 22  2  0  0  0  0
 20 42  1  0  0  0  0
 21 23  2  0  0  0  0
 21 43  1  0  0  0  0
 22 51  1  0  0  0  0
 23 44  1  0  0  0  0
 24 60  1  0  0  0  0
 25 26  2  0  0  0  0
 25 54  1  0  0  0  0
 26 61  1  0  0  0  0
 27 83  1  0  0  0  0
 28 84  1  0  0  0  0
 29 31  2  0  0  0  0
 29 83  1  0  0  0  0
 30 85  1  0  0  0  0
 31 86  1  0  0  0  0
 32 66  2  0  0  0  0
 33 67  1  0  0  0  0
 33 70  1  0  0  0  0
 34 35  2  0  0  0  0
 35 37  1  0  0  0  0
 36 71  1  0  0  0  0
 36 77  2  0  0  0  0
 37 75  1  0  0  0  0
 37 78  2  0  0  0  0
 38 52  1  0  0  0  0
 38 72  1  0  0  0  0
 38 79  2  0  0  0  0
 39 63  1  0  0  0  0
 39 68  1  0  0  0  0
 39 80  2  0  0  0  0
 40 64  1  0  0  0  0
 40 73  1  0  0  0  0
 40 81  2  0  0  0  0
 41 69  1  0  0  0  0
 41 74  1  0  0  0  0
 41 82  2  0  0  0  0
 42 45  1  0  0  0  0
 43 52  1  0  0  0  0
 44 68  1  0  0  0  0
 45 47  1  0  0  0  0
 46 48  1  0  0  0  0
 46 49  1  0  0  0  0
 47 51  1  0  0  0  0
 48 53  1  0  0  0  0
 49 69  1  0  0  0  0
 50 53  1  0  0  0  0
 50 69  1  0  0  0  0
 51 72  1  0  0  0  0
 52 68  1  0  0  0  0
 53 67  1  0  0  0  0
 55 64  1  0  0  0  0
 56 65  1  0  0  0  0
 57 65  1  0  0  0  0
 58 65  1  0  0  0  0
 59 76  1  0  0  0  0
 60 74  1  0  0  0  0
 61 75  1  0  0  0  0
 62 75  1  0  0  0  0
 62 84  1  0  0  0  0
 63 65  1  0  0  0  0
 63 73  1  0  0  0  0
 64 76  1  0  0  0  0
 66 67  1  0  0  0  0
M  CHG  1  76   1
M  ISO  4  41 100  62 101  74 100  84 101
M  END
> <Batch ID>
0054

> <Smiles>
C=CC(=O)N(Cc1cc(C[100NH:0][100C:0](=O)N2CCCC(n3nc(-c4ccc(Oc5ccc(F)cc5F)cc4)c(C(N)=O)c3N)C2)ccc1C)[101CH2:1][101O:1]c1ccc2c(c1)CN(C(=O)C(NC(=O)C(C)NC)C(C)(C)C)C(C(=O)NC1CCCc3ccccc31)C2

> <Shape>
0.216

> <Color>
0.132

> <Negative vol penalty>
0.000

$$$$

  -OEChem-04042322463D

 84 92  0     1  0  0  0  0  0999 V2000
  -27.7728  -36.6649   19.1384 C   0  0  0  0  0  0  0  0  0  0  0  0
  -28.1369  -35.4185   19.6378 C   0  0  0  0  0  0  0  0  0  0  0  0
  -26.1947  -26.3891   15.9090 C   0  0  0  0  0  0  0  0  0  0  0  0
  -25.1082  -26.4336   16.7825 C   0  0  0  0  0  0  0  0  0  0  0  0
  -27.0214  -14.8900   21.7993 C   0  0  0  0  0  0  0  0  0  0  0  0
  -26.2513  -15.1017   19.5192 C   0  0  0  0  0  0  0  0  0  0  0  0
  -26.5567  -37.2358   19.5113 C   0  0  0  0  0  0  0  0  0  0  0  0
  -27.2855  -34.7427   20.5112 C   0  0  0  0  0  0  0  0  0  0  0  0
  -26.8021  -29.8381   19.3469 C   0  0  0  0  0  0  0  0  0  0  0  0
  -27.1958  -25.4346   16.0892 C   0  0  0  0  0  0  0  0  0  0  0  0
  -25.0228  -25.5237   17.8363 C   0  0  0  0  0  0  0  0  0  0  0  0
  -26.7254  -13.5272   21.7728 C   0  0  0  0  0  0  0  0  0  0  0  0
  -25.9553  -13.7389   19.4926 C   0  0  0  0  0  0  0  0  0  0  0  0
  -27.8444  -28.9898   19.7181 C   0  0  0  0  0  0  0  0  0  0  0  0
  -23.9841  -11.5685   22.0435 C   0  0  0  0  0  0  0  0  0  0  0  0
  -23.3173  -11.0293   23.1436 C   0  0  0  0  0  0  0  0  0  0  0  0
  -26.5727  -28.2784   21.6406 C   0  0  0  0  0  0  0  0  0  0  0  0
  -25.1671   -9.5232   23.5268 C   0  0  0  0  0  0  0  0  0  0  0  0
  -26.7843  -15.6773   20.6725 C   0  0  0  0  0  0  0  0  0  0  0  0
  -28.3061  -17.6984   20.3453 C   0  0  0  0  0  0  0  0  0  0  0  0
  -25.6856  -36.5624   20.3822 C   0  0  0  0  0  0  0  0  0  0  0  0
  -25.6398  -29.9211   20.1271 C   0  0  0  0  0  0  0  0  0  0  0  0
  -26.0572  -35.3058   20.8972 C   0  0  0  0  0  0  0  0  0  0  0  0
  -25.5161  -29.1266   21.2758 C   0  0  0  0  0  0  0  0  0  0  0  0
  -27.1104  -24.5247   17.1429 C   0  0  0  0  0  0  0  0  0  0  0  0
  -26.0239  -24.5693   18.0165 C   0  0  0  0  0  0  0  0  0  0  0  0
  -26.1923  -12.9516   20.6194 C   0  0  0  0  0  0  0  0  0  0  0  0
  -27.7310  -28.2119   20.8667 C   0  0  0  0  0  0  0  0  0  0  0  0
  -25.2425  -11.0849   21.6850 C   0  0  0  0  0  0  0  0  0  0  0  0
  -23.9088  -10.0067   23.8853 C   0  0  0  0  0  0  0  0  0  0  0  0
  -25.8340  -10.0624   22.4267 C   0  0  0  0  0  0  0  0  0  0  0  0
  -27.0894  -17.0852   20.6995 C   0  0  0  0  0  0  0  0  0  0  0  0
  -28.0853  -19.0394   20.5436 C   0  0  0  0  0  0  0  0  0  0  0  0
  -29.5267  -17.1084   19.8787 C   0  0  0  0  0  0  0  0  0  0  0  0
  -24.1967  -32.2330   21.7630 C   0  0  0  0  0  0  0  0  0  0  0  0
  -21.8943  -29.9825   22.1582 C   0  0  0  0  0  0  0  0  0  0  0  0
  -30.1961  -24.6544   18.2405 C   0  0  0  0  0  0  0  0  0  0  0  0
  -21.0604  -26.6742   22.2407 C   0  0  0  0  0  0  0  0  0  0  0  0
  -24.8988  -23.5778   20.0408 C   0  0  0  0  0  0  0  0  0  0  0  0
  -24.4029  -37.2406   20.7938 C   0  0  0  0  0  0  0  0  0  0  0  0
  -24.5134  -30.8212   19.6985 C   0  0  0  0  0  0  0  0  0  0  0  0
  -24.2807  -29.1639   22.1365 C   0  0  0  0  0  0  0  0  0  0  0  0
  -23.3891  -36.2923   21.4288 C   0  0  0  0  0  0  0  0  0  0  0  0
  -24.2582  -21.4464   22.8200 C   0  0  0  0  0  0  0  0  0  0  0  0
  -24.0661  -35.4058   22.4692 C   0  0  0  0  0  0  0  0  0  0  0  0
  -25.0378  -20.1722   22.4869 C   0  0  0  0  0  0  0  0  0  0  0  0
  -23.6427  -22.0771   21.5722 C   0  0  0  0  0  0  0  0  0  0  0  0
  -25.3637  -21.0500   20.1395 C   0  0  0  0  0  0  0  0  0  0  0  0
  -25.1495  -34.5306   21.8274 C   0  0  1  0  0  0  0  0  0  0  0  0
  -23.5879  -31.2087   20.8477 C   0  0  1  0  0  0  0  0  0  0  0  0
  -26.0565  -20.4142   21.3559 C   0  0  2  0  0  0  0  0  0  0  0  0
  -19.1093  -25.1435   22.6247 C   0  0  0  0  0  0  0  0  0  0  0  0
  -22.0947  -30.4843   25.1611 C   0  0  0  0  0  0  0  0  0  0  0  0
  -20.8723  -28.3311   25.5321 C   0  0  0  0  0  0  0  0  0  0  0  0
  -19.7626  -30.1979   24.3047 C   0  0  0  0  0  0  0  0  0  0  0  0
  -21.2621  -25.5434   19.5132 C   0  0  0  0  0  0  0  0  0  0  0  0
  -28.2025  -23.5085   17.3126 C   0  0  0  0  0  0  0  0  0  0  0  0
  -30.9495  -24.8447   19.5448 C   0  0  0  0  0  0  0  0  0  0  0  0
  -30.0897  -25.4895   20.6260 C   0  0  0  0  0  0  0  0  0  0  0  0
  -29.5523  -26.8431   20.1847 C   0  0  0  0  0  0  0  0  0  1  0  0
  -21.6181  -28.9030   23.1767 C   0  0  1  0  0  0  0  0  0  0  0  0
  -19.9241  -25.9053   21.5911 C   0  0  2  0  0  0  0  0  0  0  0  0
  -21.1111  -29.4796   24.5287 C   0  0  0  0  0  0  0  0  0  0  0  0
  -26.1643  -17.9646   21.0932 N   0  0  0  0  0  0  0  0  0  0  0  0
  -26.7999  -19.1439   20.9875 N   0  0  0  0  0  0  0  0  0  0  0  0
  -23.2094  -30.0643   21.6791 N   0  0  0  0  0  0  0  0  0  0  0  0
  -24.6673  -22.2808   20.5457 N   0  0  0  0  0  0  0  0  0  0  0  0
  -28.8672  -20.1276   20.3798 N   0  0  0  0  0  0  0  0  0  0  0  0
  -29.5822  -15.7158   19.7314 N   0  0  0  0  0  0  0  0  0  0  0  0
  -25.9189  -23.6539   19.0931 N   0  0  0  0  0  0  0  0  0  0  0  0
  -24.5495  -33.4114   21.1333 N   0  0  0  0  0  0  0  0  0  0  0  0
  -29.0847  -23.8409   18.4060 N   0  0  0  0  0  0  0  0  0  0  0  0
  -20.6945  -27.9691   22.5415 N   0  0  0  0  0  0  0  0  0  0  0  0
  -20.4593  -24.9281   20.6012 N   0  3  0  0  0  0  0  0  0  0  0  0
  -30.5436  -17.7945   19.6163 O   0  0  0  0  0  0  0  0  0  0  0  0
  -24.3347  -31.9741   22.9528 O   0  0  0  0  0  0  0  0  0  0  0  0
  -20.9753  -30.7211   21.7955 O   0  0  0  0  0  0  0  0  0  0  0  0
  -30.5433  -25.1667   17.1797 O   0  0  0  0  0  0  0  0  0  0  0  0
  -22.1613  -26.1748   22.4628 O   0  0  0  0  0  0  0  0  0  0  0  0
  -24.2591  -24.5538   20.4410 O   0  0  0  0  0  0  0  0  0  0  0  0
  -25.9036  -11.6218   20.5930 O   0  0  0  0  0  0  0  0  0  0  0  0
  -28.7472  -27.3836   21.2316 O   0  0  0  0  0  0  0  0  0  1  0  0
  -23.2690   -9.4902   24.9426 F   0  0  0  0  0  0  0  0  0  0  0  0
  -27.0432   -9.5946   22.0878 F   0  0  0  0  0  0  0  0  0  0  0  0
  1  2  1  0  0  0  0
  1  7  2  0  0  0  0
  2  8  2  0  0  0  0
  3  4  1  0  0  0  0
  3 10  2  0  0  0  0
  4 11  2  0  0  0  0
  5 12  2  0  0  0  0
  5 19  1  0  0  0  0
  6 13  1  0  0  0  0
  6 19  2  0  0  0  0
  7 21  1  0  0  0  0
  8 23  1  0  0  0  0
  9 14  2  0  0  0  0
  9 22  1  0  0  0  0
 10 25  1  0  0  0  0
 11 26  1  0  0  0  0
 12 27  1  0  0  0  0
 13 27  2  0  0  0  0
 14 28  1  0  0  0  0
 15 16  2  0  0  0  0
 15 29  1  0  0  0  0
 16 30  1  0  0  0  0
 17 24  1  0  0  0  0
 17 28  2  0  0  0  0
 18 30  2  0  0  0  0
 18 31  1  0  0  0  0
 19 32  1  0  0  0  0
 20 32  1  0  0  0  0
 20 33  2  0  0  0  0
 20 34  1  0  0  0  0
 21 23  2  0  0  0  0
 21 40  1  0  0  0  0
 22 24  2  0  0  0  0
 22 41  1  0  0  0  0
 23 49  1  0  0  0  0
 24 42  1  0  0  0  0
 25 26  2  0  0  0  0
 25 57  1  0  0  0  0
 26 70  1  0  0  0  0
 27 81  1  0  0  0  0
 28 82  1  0  0  0  0
 29 31  2  0  0  0  0
 29 81  1  0  0  0  0
 30 83  1  0  0  0  0
 31 84  1  0  0  0  0
 32 64  2  0  0  0  0
 33 65  1  0  0  0  0
 33 68  1  0  0  0  0
 34 69  1  0  0  0  0
 34 75  2  0  0  0  0
 35 50  1  0  0  0  0
 35 71  1  0  0  0  0
 35 76  2  0  0  0  0
 36 61  1  0  0  0  0
 36 66  1  0  0  0  0
 36 77  2  0  0  0  0
 37 58  1  0  0  0  0
 37 72  1  0  0  0  0
 37 78  2  0  0  0  0
 38 62  1  0  0  0  0
 38 73  1  0  0  0  0
 38 79  2  0  0  0  0
 39 67  1  0  0  0  0
 39 70  1  0  0  0  0
 39 80  2  0  0  0  0
 40 43  1  0  0  0  0
 41 50  1  0  0  0  0
 42 66  1  0  0  0  0
 43 45  1  0  0  0  0
 44 46  1  0  0  0  0
 44 47  1  0  0  0  0
 45 49  1  0  0  0  0
 46 51  1  0  0  0  0
 47 67  1  0  0  0  0
 48 51  1  0  0  0  0
 48 67  1  0  0  0  0
 49 71  1  0  0  0  0
 50 66  1  0  0  0  0
 51 65  1  0  0  0  0
 52 62  1  0  0  0  0
 53 63  1  0  0  0  0
 54 63  1  0  0  0  0
 55 63  1  0  0  0  0
 56 74  1  0  0  0  0
 57 72  1  0  0  0  0
 58 59  1  0  0  0  0
 59 60  1  0  0  0  0
 60 82  1  0  0  0  0
 61 63  1  0  0  0  0
 61 73  1  0  0  0  0
 62 74  1  0  0  0  0
 64 65  1  0  0  0  0
M  CHG  1  74   1
M  ISO  4  39 100  60 101  70 100  82 101
M  END
> <Batch ID>
0054

> <Smiles>
CNC(C)C(=O)NC(C(=O)N1Cc2cc([101O:1][101CH2:1]CCC(=O)NCc3ccccc3[100NH:0][100C:0](=O)N3CCCC(n4nc(-c5ccc(Oc6ccc(F)cc6F)cc5)c(C(N)=O)c4N)C3)ccc2CC1C(=O)NC1CCCc2ccccc21)C(C)(C)C

> <Shape>
0.241

> <Color>
0.080

> <Negative vol penalty>
0.000

$$$$

  -OEChem-04042322463D

 85 93  0     1  0  0  0  0  0999 V2000
  -27.4992  -10.2252   20.9837 C   0  0  0  0  0  0  0  0  0  0  0  0
  -28.2264  -11.3756   20.6950 C   0  0  0  0  0  0  0  0  0  0  0  0
  -20.0563  -27.1987   21.3934 C   0  0  0  0  0  0  0  0  0  0  0  0
  -20.1744  -27.8693   23.7115 C   0  0  0  0  0  0  0  0  0  0  0  0
  -26.1056  -10.2593   20.9625 C   0  0  0  0  0  0  0  0  0  0  0  0
  -27.5603  -12.5604   20.3838 C   0  0  0  0  0  0  0  0  0  0  0  0
  -29.3184  -18.2534   21.7996 C   0  0  0  0  0  0  0  0  0  0  0  0
  -18.7002  -26.9101   21.5459 C   0  0  0  0  0  0  0  0  0  0  0  0
  -18.8183  -27.5807   23.8640 C   0  0  0  0  0  0  0  0  0  0  0  0
  -29.9777  -19.2406   21.0686 C   0  0  0  0  0  0  0  0  0  0  0  0
  -15.2891  -25.6561   21.4205 C   0  0  0  0  0  0  0  0  0  0  0  0
  -14.8140  -24.4612   20.8801 C   0  0  0  0  0  0  0  0  0  0  0  0
  -27.8528  -20.2324   20.5028 C   0  0  0  0  0  0  0  0  0  0  0  0
  -29.8443  -27.3313   21.2476 C   0  0  0  0  0  0  0  0  0  0  0  0
  -32.1157  -26.5506   20.9862 C   0  0  0  0  0  0  0  0  0  0  0  0
  -31.4877  -27.8028   22.9547 C   0  0  0  0  0  0  0  0  0  0  0  0
  -16.3359  -23.2197   22.2870 C   0  0  0  0  0  0  0  0  0  0  0  0
  -20.7935  -27.6782   22.4762 C   0  0  0  0  0  0  0  0  0  0  0  0
  -22.7647  -29.2044   21.9352 C   0  0  0  0  0  0  0  0  0  0  0  0
  -25.4219  -11.4475   20.6603 C   0  0  0  0  0  0  0  0  0  0  0  0
  -27.9184  -18.2420   21.8789 C   0  0  0  0  0  0  0  0  0  0  0  0
  -26.1562  -12.6100   20.3572 C   0  0  0  0  0  0  0  0  0  0  0  0
  -27.1782  -19.2455   21.2376 C   0  0  0  0  0  0  0  0  0  0  0  0
  -30.8107  -26.6537   20.5044 C   0  0  0  0  0  0  0  0  0  0  0  0
  -30.1828  -27.9059   22.4728 C   0  0  0  0  0  0  0  0  0  0  0  0
  -18.0812  -27.1011   22.7812 C   0  0  0  0  0  0  0  0  0  0  0  0
  -29.2448  -20.2287   20.4176 C   0  0  0  0  0  0  0  0  0  0  0  0
  -16.2877  -25.6328   22.3942 C   0  0  0  0  0  0  0  0  0  0  0  0
  -15.3374  -23.2430   21.3133 C   0  0  0  0  0  0  0  0  0  0  0  0
  -16.8111  -24.4146   22.8275 C   0  0  0  0  0  0  0  0  0  0  0  0
  -32.4542  -27.1252   22.2114 C   0  0  0  0  0  0  0  0  0  0  0  0
  -22.1945  -27.9760   22.3194 C   0  0  0  0  0  0  0  0  0  0  0  0
  -24.1180  -28.9697   21.9350 C   0  0  0  0  0  0  0  0  0  0  0  0
  -22.1280  -30.4467   21.6078 C   0  0  0  0  0  0  0  0  0  0  0  0
  -25.6380  -16.2130   20.9918 C   0  0  0  0  0  0  0  0  0  0  0  0
  -23.7109  -18.3057   22.5504 C   0  0  0  0  0  0  0  0  0  0  0  0
  -30.2821  -23.5670   19.4544 C   0  0  0  0  0  0  0  0  0  0  0  0
  -23.2076  -21.4817   23.6935 C   0  0  0  0  0  0  0  0  0  0  0  0
  -28.4840  -26.7360   24.8100 C   0  0  0  0  0  0  0  0  0  0  0  0
  -23.9150  -11.4237   20.6034 C   0  0  0  0  0  0  0  0  0  0  0  0
  -27.2235  -17.1856   22.6936 C   0  0  0  0  0  0  0  0  0  0  0  0
  -25.6744  -19.2895   21.3084 C   0  0  0  0  0  0  0  0  0  0  0  0
  -23.2824  -12.8126   20.6310 C   0  0  0  0  0  0  0  0  0  0  0  0
  -26.7307  -24.6639   22.2934 C   0  0  0  0  0  0  0  0  0  0  0  0
  -23.9955  -13.7435   19.6554 C   0  0  0  0  0  0  0  0  0  0  0  0
  -25.4125  -25.4129   22.1051 C   0  0  0  0  0  0  0  0  0  0  0  0
  -27.3099  -24.8771   23.6886 C   0  0  0  0  0  0  0  0  0  0  0  0
  -26.1586  -27.0578   23.8709 C   0  0  0  0  0  0  0  0  0  0  0  0
  -25.4695  -13.9206   20.0393 C   0  0  1  0  0  0  0  0  0  0  0  0
  -25.7702  -16.9729   22.2813 C   0  0  1  0  0  0  0  0  0  0  0  0
  -25.5719  -26.9015   22.4599 C   0  0  2  0  0  0  0  0  0  0  0  0
  -21.5211  -22.8983   24.8961 C   0  0  0  0  0  0  0  0  0  0  0  0
  -22.0290  -18.4566   20.0090 C   0  0  0  0  0  0  0  0  0  0  0  0
  -20.9696  -20.5354   20.9169 C   0  0  0  0  0  0  0  0  0  0  0  0
  -20.7079  -18.3720   22.1308 C   0  0  0  0  0  0  0  0  0  0  0  0
  -29.5477  -28.7758   25.6973 C   0  0  0  0  0  0  0  0  0  0  0  0
  -25.0832  -22.0333   25.9153 C   0  0  0  0  0  0  0  0  0  0  0  0
  -30.4453  -26.0342   19.1865 C   0  0  0  0  0  0  0  0  0  0  0  0
  -29.1481  -28.6287   23.2675 C   0  0  0  0  0  0  0  0  0  0  0  0
  -29.2530  -22.4694   19.6208 C   0  0  0  0  0  0  0  0  0  1  0  0
  -22.9459  -19.5478   22.1618 C   0  0  1  0  0  0  0  0  0  0  0  0
  -22.7438  -22.0057   25.0406 C   0  0  2  0  0  0  0  0  0  0  0  0
  -21.6914  -19.2263   21.3015 C   0  0  0  0  0  0  0  0  0  0  0  0
  -23.1106  -27.0309   22.5466 N   0  0  0  0  0  0  0  0  0  0  0  0
  -24.2701  -27.6656   22.3044 N   0  0  0  0  0  0  0  0  0  0  0  0
  -25.0406  -18.2312   22.1121 N   0  0  0  0  0  0  0  0  0  0  0  0
  -27.4102  -26.2996   24.0167 N   0  0  0  0  0  0  0  0  0  0  0  0
  -25.1807  -29.7536   21.6549 N   0  0  0  0  0  0  0  0  0  0  0  0
  -20.7290  -30.5142   21.6588 N   0  0  0  0  0  0  0  0  0  0  0  0
  -25.5957  -14.8408   21.1491 N   0  0  0  0  0  0  0  0  0  0  0  0
  -29.6882  -24.8152   19.3536 N   0  0  0  0  0  0  0  0  0  0  0  0
  -22.6531  -20.2526   23.4052 N   0  0  0  0  0  0  0  0  0  0  0  0
  -28.9526  -28.0403   24.5907 N   0  0  0  0  0  0  0  0  0  0  0  0
  -23.8279  -22.7953   25.6904 N   0  3  0  0  0  0  0  0  0  0  0  0
  -22.7795  -31.4619   21.2639 O   0  0  0  0  0  0  0  0  0  0  0  0
  -25.5772  -16.8263   19.9326 O   0  0  0  0  0  0  0  0  0  0  0  0
  -23.1515  -17.4370   23.2242 O   0  0  0  0  0  0  0  0  0  0  0  0
  -31.4894  -23.3454   19.4158 O   0  0  0  0  0  0  0  0  0  0  0  0
  -23.9812  -22.1025   22.9677 O   0  0  0  0  0  0  0  0  0  0  0  0
  -29.0009  -25.9985   25.6589 O   0  0  0  0  0  0  0  0  0  0  0  0
  -16.7578  -26.8199   22.9304 O   0  0  0  0  0  0  0  0  0  0  0  0
  -29.8858  -21.1930   19.7029 O   0  0  0  0  0  0  0  0  0  1  0  0
  -14.8799  -22.0956   20.7953 F   0  0  0  0  0  0  0  0  0  0  0  0
  -17.7697  -24.3858   23.7634 F   0  0  0  0  0  0  0  0  0  0  0  0
  -34.0646  -26.9991   22.8054 Cl  0  0  0  0  0  0  0  0  0  0  0  0
  1  2  1  0  0  0  0
  1  5  2  0  0  0  0
  2  6  2  0  0  0  0
  3  8  2  0  0  0  0
  3 18  1  0  0  0  0
  4  9  1  0  0  0  0
  4 18  2  0  0  0  0
  5 20  1  0  0  0  0
  6 22  1  0  0  0  0
  7 10  2  0  0  0  0
  7 21  1  0  0  0  0
  8 26  1  0  0  0  0
  9 26  2  0  0  0  0
 10 27  1  0  0  0  0
 11 12  2  0  0  0  0
 11 28  1  0  0  0  0
 12 29  1  0  0  0  0
 13 23  1  0  0  0  0
 13 27  2  0  0  0  0
 14 24  2  0  0  0  0
 14 25  1  0  0  0  0
 15 24  1  0  0  0  0
 15 31  2  0  0  0  0
 16 25  2  0  0  0  0
 16 31  1  0  0  0  0
 17 29  2  0  0  0  0
 17 30  1  0  0  0  0
 18 32  1  0  0  0  0
 19 32  1  0  0  0  0
 19 33  2  0  0  0  0
 19 34  1  0  0  0  0
 20 22  2  0  0  0  0
 20 40  1  0  0  0  0
 21 23  2  0  0  0  0
 21 41  1  0  0  0  0
 22 49  1  0  0  0  0
 23 42  1  0  0  0  0
 24 58  1  0  0  0  0
 25 59  1  0  0  0  0
 26 81  1  0  0  0  0
 27 82  1  0  0  0  0
 28 30  2  0  0  0  0
 28 81  1  0  0  0  0
 29 83  1  0  0  0  0
 30 84  1  0  0  0  0
 31 85  1  0  0  0  0
 32 64  2  0  0  0  0
 33 65  1  0  0  0  0
 33 68  1  0  0  0  0
 34 69  1  0  0  0  0
 34 75  2  0  0  0  0
 35 50  1  0  0  0  0
 35 70  1  0  0  0  0
 35 76  2  0  0  0  0
 36 61  1  0  0  0  0
 36 66  1  0  0  0  0
 36 77  2  0  0  0  0
 37 60  1  0  0  0  0
 37 71  1  0  0  0  0
 37 78  2  0  0  0  0
 38 62  1  0  0  0  0
 38 72  1  0  0  0  0
 38 79  2  0  0  0  0
 39 67  1  0  0  0  0
 39 73  1  0  0  0  0
 39 80  2  0  0  0  0
 40 43  1  0  0  0  0
 41 50  1  0  0  0  0
 42 66  1  0  0  0  0
 43 45  1  0  0  0  0
 44 46  1  0  0  0  0
 44 47  1  0  0  0  0
 45 49  1  0  0  0  0
 46 51  1  0  0  0  0
 47 67  1  0  0  0  0
 48 51  1  0  0  0  0
 48 67  1  0  0  0  0
 49 70  1  0  0  0  0
 50 66  1  0  0  0  0
 51 65  1  0  0  0  0
 52 62  1  0  0  0  0
 53 63  1  0  0  0  0
 54 63  1  0  0  0  0
 55 63  1  0  0  0  0
 56 73  1  0  0  0  0
 57 74  1  0  0  0  0
 58 71  1  0  0  0  0
 59 73  1  0  0  0  0
 60 82  1  0  0  0  0
 61 63  1  0  0  0  0
 61 72  1  0  0  0  0
 62 74  1  0  0  0  0
 64 65  1  0  0  0  0
M  CHG  1  74   1
M  ISO  4  39 100  60 101  73 100  82 101
M  END
> <Batch ID>
0054

> <Smiles>
CNC(C)C(=O)NC(C(=O)N1Cc2cc([101O:1][101CH2:1]C(=O)NCc3cc(Cl)cc(C[100N:0](C)[100C:0](=O)N4CCCC(n5nc(-c6ccc(Oc7ccc(F)cc7F)cc6)c(C(N)=O)c5N)C4)c3)ccc2CC1C(=O)NC1CCCc2ccccc21)C(C)(C)C

> <Shape>
0.204

> <Color>
0.052

> <Negative vol penalty>
0.000

$$$$

  -OEChem-04042322463D

 88 97  0     1  0  0  0  0  0999 V2000
  -29.8214  -31.2863   26.0663 C   0  0  0  0  0  0  0  0  0  0  0  0
  -29.4203  -30.2169   25.2720 C   0  0  0  0  0  0  0  0  0  0  0  0
  -24.5996   -8.6935   21.3262 C   0  0  0  0  0  0  0  0  0  0  0  0
  -23.2929  -10.6774   21.7665 C   0  0  0  0  0  0  0  0  0  0  0  0
  -28.8666  -32.1358   26.6237 C   0  0  0  0  0  0  0  0  0  0  0  0
  -28.0640  -29.9958   25.0355 C   0  0  0  0  0  0  0  0  0  0  0  0
  -28.3217  -19.7731   19.0819 C   0  0  0  0  0  0  0  0  0  0  0  0
  -27.0820  -28.9660   20.1754 C   0  0  0  0  0  0  0  0  0  0  0  0
  -28.6602  -18.4832   19.4909 C   0  0  0  0  0  0  0  0  0  0  0  0
  -23.8996   -8.0116   22.3214 C   0  0  0  0  0  0  0  0  0  0  0  0
  -22.5928   -9.9954   22.7617 C   0  0  0  0  0  0  0  0  0  0  0  0
  -27.3629  -27.6756   19.7286 C   0  0  0  0  0  0  0  0  0  0  0  0
  -20.8937   -6.5014   22.6634 C   0  0  0  0  0  0  0  0  0  0  0  0
  -20.4495   -5.2110   22.3752 C   0  0  0  0  0  0  0  0  0  0  0  0
  -25.0293  -27.1016   19.9378 C   0  0  0  0  0  0  0  0  0  0  0  0
  -21.7639   -4.3486   24.2098 C   0  0  0  0  0  0  0  0  0  0  0  0
  -24.2963  -10.0265   21.0487 C   0  0  0  0  0  0  0  0  0  0  0  0
  -24.6891  -10.8174   18.6554 C   0  0  0  0  0  0  0  0  0  0  0  0
  -27.4984  -31.9306   26.3860 C   0  0  0  0  0  0  0  0  0  0  0  0
  -25.7721  -29.3313   20.5177 C   0  0  0  0  0  0  0  0  0  0  0  0
  -27.0899  -30.8425   25.5913 C   0  0  0  0  0  0  0  0  0  0  0  0
  -27.0551  -20.2845   19.3644 C   0  0  0  0  0  0  0  0  0  0  0  0
  -24.7339  -28.3980   20.3863 C   0  0  0  0  0  0  0  0  0  0  0  0
  -26.1269  -19.5060   20.0558 C   0  0  0  0  0  0  0  0  0  0  0  0
  -26.4654  -18.2161   20.4647 C   0  0  0  0  0  0  0  0  0  0  0  0
  -27.7321  -17.7047   20.1823 C   0  0  0  0  0  0  0  0  0  0  0  0
  -22.8962   -8.6625   23.0391 C   0  0  0  0  0  0  0  0  0  0  0  0
  -26.3370  -26.7423   19.6125 C   0  0  0  0  0  0  0  0  0  0  0  0
  -21.7732   -6.7154   23.7248 C   0  0  0  0  0  0  0  0  0  0  0  0
  -20.8845   -4.1346   23.1484 C   0  0  0  0  0  0  0  0  0  0  0  0
  -22.2082   -5.6391   24.4980 C   0  0  0  0  0  0  0  0  0  0  0  0
  -25.0195  -10.7317   20.0212 C   0  0  0  0  0  0  0  0  0  0  0  0
  -25.6822  -11.5936   18.1100 C   0  0  0  0  0  0  0  0  0  0  0  0
  -27.6185  -22.7586   19.4791 C   0  0  0  0  0  0  0  0  0  0  0  0
  -23.5832  -10.2464   17.9435 C   0  0  0  0  0  0  0  0  0  0  0  0
  -24.3403  -30.3124   23.1806 C   0  0  0  0  0  0  0  0  0  0  0  0
  -21.7990  -30.7101   21.2043 C   0  0  0  0  0  0  0  0  0  0  0  0
  -20.2207  -29.8455   18.3045 C   0  0  0  0  0  0  0  0  0  0  0  0
  -29.3186  -15.7576   20.3778 C   0  0  0  0  0  0  0  0  0  0  0  0
  -26.5010  -32.8474   27.0488 C   0  0  0  0  0  0  0  0  0  0  0  0
  -25.4813  -30.7352   20.9726 C   0  0  0  0  0  0  0  0  0  0  0  0
  -23.3075  -28.7461   20.7217 C   0  0  0  0  0  0  0  0  0  0  0  0
  -25.1022  -32.7655   26.4431 C   0  0  0  0  0  0  0  0  0  0  0  0
  -30.2870  -12.7581   18.7219 C   0  0  0  0  0  0  0  0  0  0  0  0
  -26.8759  -21.9004   17.4017 C   0  0  0  0  0  0  0  0  0  0  0  0
  -24.6851  -31.3100   26.2576 C   0  0  0  0  0  0  0  0  0  0  0  0
  -27.1029  -23.4021   17.2683 C   0  0  0  0  0  0  0  0  0  0  0  0
  -29.0143  -11.9082   18.7375 C   0  0  0  0  0  0  0  0  0  0  0  0
  -30.4411  -13.5722   20.0054 C   0  0  0  0  0  0  0  0  0  0  0  0
  -28.0059  -13.5458   20.3772 C   0  0  0  0  0  0  0  0  0  0  0  0
  -26.7157  -21.6799   18.9115 C   0  0  1  0  0  0  0  0  0  0  0  0
  -25.6292  -30.5844   25.2914 C   0  0  1  0  0  0  0  0  0  0  0  0
  -28.0632  -23.7388   18.4107 C   0  0  1  0  0  0  0  0  0  0  0  0
  -24.1939  -30.8459   21.7836 C   0  0  1  0  0  0  0  0  0  0  0  0
  -27.7739  -12.7573   19.0779 C   0  0  2  0  0  0  0  0  0  0  0  0
  -24.7929  -21.0423   21.5210 C   0  0  0  0  0  0  0  0  0  0  0  0
  -24.8272  -16.3238   20.3162 C   0  0  0  0  0  0  0  0  0  0  0  0
  -18.1412  -30.3109   16.9792 C   0  0  0  0  0  0  0  0  0  0  0  0
  -20.1835  -28.9922   23.1405 C   0  0  0  0  0  0  0  0  0  0  0  0
  -18.4647  -28.7056   21.3427 C   0  0  0  0  0  0  0  0  0  0  0  0
  -18.9613  -30.9796   22.2400 C   0  0  0  0  0  0  0  0  0  0  0  0
  -21.7767  -30.8603   16.0006 C   0  0  0  0  0  0  0  0  0  0  0  0
  -24.7692  -20.0573   20.3573 C   0  0  0  0  0  0  0  0  0  0  0  0
  -25.4677  -17.3824   21.2066 C   0  0  0  0  0  0  0  0  0  0  0  0
  -27.9669  -25.1839   18.8569 C   0  0  0  0  0  0  0  0  0  1  0  0
  -20.6535  -29.8394   20.7473 C   0  0  1  0  0  0  0  0  0  0  0  0
  -19.5965  -30.6887   17.2074 C   0  0  2  0  0  0  0  0  0  0  0  0
  -19.5928  -29.6218   21.8631 C   0  0  0  0  0  0  0  0  0  0  0  0
  -26.1354  -11.4000   20.3247 N   0  0  0  0  0  0  0  0  0  0  0  0
  -26.5149  -11.9130   19.1419 N   0  0  0  0  0  0  0  0  0  0  0  0
  -23.0748  -30.1296   21.1682 N   0  0  0  0  0  0  0  0  0  0  0  0
  -29.2297  -14.3543   20.2614 N   0  0  0  0  0  0  0  0  0  0  0  0
  -25.9158  -12.0273   16.8531 N   0  0  0  0  0  0  0  0  0  0  0  0
  -22.6553   -9.4759   18.6573 N   0  0  0  0  0  0  0  0  0  0  0  0
  -28.0974  -16.3973   20.5882 N   0  0  0  0  0  0  0  0  0  0  0  0
  -25.3226  -30.9401   23.9225 N   0  0  0  0  0  0  0  0  0  0  0  0
  -20.1278  -30.4592   19.5358 N   0  0  0  0  0  0  0  0  0  0  0  0
  -20.3365  -30.5032   15.9271 N   0  3  0  0  0  0  0  0  0  0  0  0
  -27.9513  -22.8305   20.6561 O   0  0  0  0  0  0  0  0  0  0  0  0
  -23.4317  -10.4009   16.7079 O   0  0  0  0  0  0  0  0  0  0  0  0
  -23.6147  -29.3998   23.5580 O   0  0  0  0  0  0  0  0  0  0  0  0
  -21.5712  -31.8650   21.5727 O   0  0  0  0  0  0  0  0  0  0  0  0
  -20.7357  -28.7501   18.0913 O   0  0  0  0  0  0  0  0  0  0  0  0
  -30.3948  -16.3509   20.2695 O   0  0  0  0  0  0  0  0  0  0  0  0
  -22.2127   -7.9972   24.0102 O   0  0  0  0  0  0  0  0  0  0  0  0
  -26.6086  -25.4819   19.1773 O   0  0  0  0  0  0  0  0  0  1  0  0
  -20.4566   -2.8957   22.8725 F   0  0  0  0  0  0  0  0  0  0  0  0
  -23.0521   -5.8386   25.5197 F   0  0  0  0  0  0  0  0  0  0  0  0
  1  2  1  0  0  0  0
  1  5  2  0  0  0  0
  2  6  2  0  0  0  0
  3 10  2  0  0  0  0
  3 17  1  0  0  0  0
  4 11  1  0  0  0  0
  4 17  2  0  0  0  0
  5 19  1  0  0  0  0
  6 21  1  0  0  0  0
  7  9  1  0  0  0  0
  7 22  2  0  0  0  0
  8 12  2  0  0  0  0
  8 20  1  0  0  0  0
  9 26  2  0  0  0  0
 10 27  1  0  0  0  0
 11 27  2  0  0  0  0
 12 28  1  0  0  0  0
 13 14  2  0  0  0  0
 13 29  1  0  0  0  0
 14 30  1  0  0  0  0
 15 23  1  0  0  0  0
 15 28  2  0  0  0  0
 16 30  2  0  0  0  0
 16 31  1  0  0  0  0
 17 32  1  0  0  0  0
 18 32  1  0  0  0  0
 18 33  2  0  0  0  0
 18 35  1  0  0  0  0
 19 21  2  0  0  0  0
 19 40  1  0  0  0  0
 20 23  2  0  0  0  0
 20 41  1  0  0  0  0
 21 52  1  0  0  0  0
 22 24  1  0  0  0  0
 22 51  1  0  0  0  0
 23 42  1  0  0  0  0
 24 25  2  0  0  0  0
 24 63  1  0  0  0  0
 25 26  1  0  0  0  0
 25 64  1  0  0  0  0
 26 75  1  0  0  0  0
 27 85  1  0  0  0  0
 28 86  1  0  0  0  0
 29 31  2  0  0  0  0
 29 85  1  0  0  0  0
 30 87  1  0  0  0  0
 31 88  1  0  0  0  0
 32 69  2  0  0  0  0
 33 70  1  0  0  0  0
 33 73  1  0  0  0  0
 34 51  1  0  0  0  0
 34 53  1  0  0  0  0
 34 79  2  0  0  0  0
 35 74  1  0  0  0  0
 35 80  2  0  0  0  0
 36 54  1  0  0  0  0
 36 76  1  0  0  0  0
 36 81  2  0  0  0  0
 37 66  1  0  0  0  0
 37 71  1  0  0  0  0
 37 82  2  0  0  0  0
 38 67  1  0  0  0  0
 38 77  1  0  0  0  0
 38 83  2  0  0  0  0
 39 72  1  0  0  0  0
 39 75  1  0  0  0  0
 39 84  2  0  0  0  0
 40 43  1  0  0  0  0
 41 54  1  0  0  0  0
 42 71  1  0  0  0  0
 43 46  1  0  0  0  0
 44 48  1  0  0  0  0
 44 49  1  0  0  0  0
 45 47  1  0  0  0  0
 45 51  1  0  0  0  0
 46 52  1  0  0  0  0
 47 53  1  0  0  0  0
 48 55  1  0  0  0  0
 49 72  1  0  0  0  0
 50 55  1  0  0  0  0
 50 72  1  0  0  0  0
 52 76  1  0  0  0  0
 53 65  1  0  0  0  0
 54 71  1  0  0  0  0
 55 70  1  0  0  0  0
 56 63  1  0  0  0  0
 57 64  1  0  0  0  0
 58 67  1  0  0  0  0
 59 68  1  0  0  0  0
 60 68  1  0  0  0  0
 61 68  1  0  0  0  0
 62 78  1  0  0  0  0
 65 86  1  0  0  0  0
 66 68  1  0  0  0  0
 66 77  1  0  0  0  0
 67 78  1  0  0  0  0
 69 70  1  0  0  0  0
M  CHG  1  78   1
M  ISO  4  39 100  65 101  75 100  86 101
M  END
> <Batch ID>
0054

> <Smiles>
CCc1c([100NH:0][100C:0](=O)N2CCCC(n3nc(-c4ccc(Oc5ccc(F)cc5F)cc4)c(C(N)=O)c3N)C2)ccc(C2CCC([101CH2:1][101O:1]c3ccc4c(c3)CN(C(=O)C(NC(=O)C(C)NC)C(C)(C)C)C(C(=O)NC3CCCc5ccccc53)C4)C2=O)c1CC

> <Shape>
0.315

> <Color>
0.104

> <Negative vol penalty>
0.000

$$$$

  -OEChem-04042322463D

 88 97  0     1  0  0  0  0  0999 V2000
  -33.9552  -19.6650   22.2274 C   0  0  0  0  0  0  0  0  0  0  0  0
  -32.9743  -20.2398   23.0291 C   0  0  0  0  0  0  0  0  0  0  0  0
  -31.4542  -26.2345   18.9876 C   0  0  0  0  0  0  0  0  0  0  0  0
  -29.7064  -24.5695   19.0895 C   0  0  0  0  0  0  0  0  0  0  0  0
  -33.6253  -19.1841   20.9610 C   0  0  0  0  0  0  0  0  0  0  0  0
  -31.6630  -20.3349   22.5645 C   0  0  0  0  0  0  0  0  0  0  0  0
  -24.8900  -20.1728   24.8916 C   0  0  0  0  0  0  0  0  0  0  0  0
  -32.1915  -25.4086   18.1392 C   0  0  0  0  0  0  0  0  0  0  0  0
  -30.4438  -23.7436   18.2411 C   0  0  0  0  0  0  0  0  0  0  0  0
  -23.7119  -20.9159   24.8301 C   0  0  0  0  0  0  0  0  0  0  0  0
  -34.6953  -23.5853   16.2338 C   0  0  0  0  0  0  0  0  0  0  0  0
  -36.0580  -23.4382   16.4927 C   0  0  0  0  0  0  0  0  0  0  0  0
  -23.2418  -19.9795   22.6573 C   0  0  0  0  0  0  0  0  0  0  0  0
  -18.0044  -26.8713   22.6161 C   0  0  0  0  0  0  0  0  0  0  0  0
  -20.4031  -26.5840   22.5850 C   0  0  0  0  0  0  0  0  0  0  0  0
  -35.5462  -22.5424   18.6773 C   0  0  0  0  0  0  0  0  0  0  0  0
  -30.2116  -25.8149   19.4628 C   0  0  0  0  0  0  0  0  0  0  0  0
  -29.8376  -27.1509   21.6036 C   0  0  0  0  0  0  0  0  0  0  0  0
  -32.3074  -19.2646   20.4844 C   0  0  0  0  0  0  0  0  0  0  0  0
  -25.2589  -19.3344   23.8299 C   0  0  0  0  0  0  0  0  0  0  0  0
  -31.3155  -19.8558   21.2900 C   0  0  0  0  0  0  0  0  0  0  0  0
  -24.4238  -19.2249   22.7089 C   0  0  0  0  0  0  0  0  0  0  0  0
  -18.1624  -28.2233   22.3117 C   0  0  0  0  0  0  0  0  0  0  0  0
  -19.4407  -28.7557   22.1439 C   0  0  0  0  0  0  0  0  0  0  0  0
  -19.1248  -26.0517   22.7528 C   0  0  0  0  0  0  0  0  0  0  0  0
  -20.5611  -27.9361   22.2806 C   0  0  0  0  0  0  0  0  0  0  0  0
  -31.6863  -24.1631   17.7659 C   0  0  0  0  0  0  0  0  0  0  0  0
  -22.8891  -20.8215   23.7116 C   0  0  0  0  0  0  0  0  0  0  0  0
  -33.7580  -23.2111   17.1967 C   0  0  0  0  0  0  0  0  0  0  0  0
  -36.4834  -22.9167   17.7144 C   0  0  0  0  0  0  0  0  0  0  0  0
  -34.1835  -22.6896   18.4184 C   0  0  0  0  0  0  0  0  0  0  0  0
  -29.4497  -26.6674   20.3396 C   0  0  0  0  0  0  0  0  0  0  0  0
  -28.7724  -27.9100   22.0226 C   0  0  0  0  0  0  0  0  0  0  0  0
  -17.8647  -24.2073   23.8302 C   0  0  0  0  0  0  0  0  0  0  0  0
  -31.0523  -26.9333   22.3336 C   0  0  0  0  0  0  0  0  0  0  0  0
  -27.7146  -19.2147   21.8152 C   0  0  0  0  0  0  0  0  0  0  0  0
  -26.3088  -16.4453   20.8789 C   0  0  0  0  0  0  0  0  0  0  0  0
  -23.4666  -14.5691   20.6581 C   0  0  0  0  0  0  0  0  0  0  0  0
  -23.0817  -27.7703   22.2206 C   0  0  0  0  0  0  0  0  0  0  0  0
  -32.0084  -18.7739   19.0900 C   0  0  0  0  0  0  0  0  0  0  0  0
  -26.5195  -18.5191   23.9233 C   0  0  0  0  0  0  0  0  0  0  0  0
  -24.7646  -18.3237   21.5512 C   0  0  0  0  0  0  0  0  0  0  0  0
  -17.6115  -22.7116   23.8431 C   0  0  0  0  0  0  0  0  0  0  0  0
  -30.5192  -18.5732   18.8211 C   0  0  0  0  0  0  0  0  0  0  0  0
  -18.8653  -21.8657   23.8052 C   0  0  0  0  0  0  0  0  0  0  0  0
  -25.5119  -30.7140   21.8297 C   0  0  0  0  0  0  0  0  0  0  0  0
  -29.7206  -19.7747   19.3163 C   0  0  0  0  0  0  0  0  0  0  0  0
  -26.5950  -30.0390   20.9914 C   0  0  0  0  0  0  0  0  0  0  0  0
  -24.1624  -30.0194   21.6973 C   0  0  0  0  0  0  0  0  0  0  0  0
  -20.0841  -23.7485   22.7503 C   0  0  0  0  0  0  0  0  0  0  0  0
  -25.5568  -27.9816   22.0959 C   0  0  0  0  0  0  0  0  0  0  0  0
  -29.8768  -19.9546   20.8311 C   0  0  1  0  0  0  0  0  0  0  0  0
  -27.0553  -18.0892   22.5611 C   0  0  1  0  0  0  0  0  0  0  0  0
  -19.6991  -22.2772   22.6031 C   0  0  1  0  0  0  0  0  0  0  0  0
  -26.4827  -28.5016   20.9852 C   0  0  2  0  0  0  0  0  0  0  0  0
  -16.9460  -29.0792   22.1702 C   0  0  0  0  0  0  0  0  0  0  0  0
  -22.6231  -12.3638   19.8081 C   0  0  0  0  0  0  0  0  0  0  0  0
  -26.3752  -17.5225   18.0249 C   0  0  0  0  0  0  0  0  0  0  0  0
  -24.7112  -15.7610   17.3955 C   0  0  0  0  0  0  0  0  0  0  0  0
  -26.9639  -15.1015   18.2401 C   0  0  0  0  0  0  0  0  0  0  0  0
  -22.6477  -13.7064   23.3680 C   0  0  0  0  0  0  0  0  0  0  0  0
  -19.6045  -30.2073   21.8171 C   0  0  0  0  0  0  0  0  0  0  0  0
  -20.9434  -21.4011   22.4730 C   0  0  0  0  0  0  0  0  0  1  0  0
  -25.2708  -16.0679   19.8498 C   0  0  1  0  0  0  0  0  0  0  0  0
  -23.1891  -13.1169   21.0020 C   0  0  2  0  0  0  0  0  0  0  0  0
  -25.8245  -16.1318   18.3984 C   0  0  0  0  0  0  0  0  0  0  0  0
  -28.2330  -27.0843   19.9793 N   0  0  0  0  0  0  0  0  0  0  0  0
  -27.8471  -27.8376   21.0232 N   0  0  0  0  0  0  0  0  0  0  0  0
  -18.9612  -24.6489   23.0697 N   0  0  0  0  0  0  0  0  0  0  0  0
  -26.0108  -17.5517   21.6869 N   0  0  0  0  0  0  0  0  0  0  0  0
  -24.2212  -28.5816   21.9978 N   0  0  0  0  0  0  0  0  0  0  0  0
  -28.5464  -28.6256   23.1447 N   0  0  0  0  0  0  0  0  0  0  0  0
  -31.1203  -25.8389   23.2065 N   0  0  0  0  0  0  0  0  0  0  0  0
  -21.8690  -28.4567   22.1155 N   0  0  0  0  0  0  0  0  0  0  0  0
  -29.0520  -19.0006   21.5411 N   0  0  0  0  0  0  0  0  0  0  0  0
  -24.7674  -14.7554   20.2401 N   0  0  0  0  0  0  0  0  0  0  0  0
  -22.2093  -13.0278   22.1214 N   0  3  0  0  0  0  0  0  0  0  0  0
  -17.0691  -24.9351   24.4302 O   0  0  0  0  0  0  0  0  0  0  0  0
  -32.0421  -27.6965   22.2277 O   0  0  0  0  0  0  0  0  0  0  0  0
  -27.0582  -20.2033   21.5097 O   0  0  0  0  0  0  0  0  0  0  0  0
  -27.3428  -15.7785   20.9675 O   0  0  0  0  0  0  0  0  0  0  0  0
  -22.6138  -15.4496   20.7474 O   0  0  0  0  0  0  0  0  0  0  0  0
  -23.1818  -26.5671   22.4697 O   0  0  0  0  0  0  0  0  0  0  0  0
  -32.4055  -23.3571   16.9379 O   0  0  0  0  0  0  0  0  0  0  0  0
  -21.7390  -21.5462   23.6487 O   0  0  0  0  0  0  0  0  0  1  0  0
  -37.7920  -22.7740   17.9622 F   0  0  0  0  0  0  0  0  0  0  0  0
  -33.2877  -22.3272   19.3469 F   0  0  0  0  0  0  0  0  0  0  0  0
  -19.9426  -30.3608   20.5077 F   0  0  0  0  0  0  0  0  0  0  0  0
  1  2  1  0  0  0  0
  1  5  2  0  0  0  0
  2  6  2  0  0  0  0
  3  8  2  0  0  0  0
  3 17  1  0  0  0  0
  4  9  1  0  0  0  0
  4 17  2  0  0  0  0
  5 19  1  0  0  0  0
  6 21  1  0  0  0  0
  7 10  2  0  0  0  0
  7 20  1  0  0  0  0
  8 27  1  0  0  0  0
  9 27  2  0  0  0  0
 10 28  1  0  0  0  0
 11 12  2  0  0  0  0
 11 29  1  0  0  0  0
 12 30  1  0  0  0  0
 13 22  1  0  0  0  0
 13 28  2  0  0  0  0
 14 23  2  0  0  0  0
 14 25  1  0  0  0  0
 15 25  2  0  0  0  0
 15 26  1  0  0  0  0
 16 30  2  0  0  0  0
 16 31  1  0  0  0  0
 17 32  1  0  0  0  0
 18 32  1  0  0  0  0
 18 33  2  0  0  0  0
 18 35  1  0  0  0  0
 19 21  2  0  0  0  0
 19 40  1  0  0  0  0
 20 22  2  0  0  0  0
 20 41  1  0  0  0  0
 21 52  1  0  0  0  0
 22 42  1  0  0  0  0
 23 24  1  0  0  0  0
 23 56  1  0  0  0  0
 24 26  2  0  0  0  0
 24 62  1  0  0  0  0
 25 69  1  0  0  0  0
 26 74  1  0  0  0  0
 27 84  1  0  0  0  0
 28 85  1  0  0  0  0
 29 31  2  0  0  0  0
 29 84  1  0  0  0  0
 30 86  1  0  0  0  0
 31 87  1  0  0  0  0
 32 67  2  0  0  0  0
 33 68  1  0  0  0  0
 33 72  1  0  0  0  0
 34 43  1  0  0  0  0
 34 69  1  0  0  0  0
 34 78  2  0  0  0  0
 35 73  1  0  0  0  0
 35 79  2  0  0  0  0
 36 53  1  0  0  0  0
 36 75  1  0  0  0  0
 36 80  2  0  0  0  0
 37 64  1  0  0  0  0
 37 70  1  0  0  0  0
 37 81  2  0  0  0  0
 38 65  1  0  0  0  0
 38 76  1  0  0  0  0
 38 82  2  0  0  0  0
 39 71  1  0  0  0  0
 39 74  1  0  0  0  0
 39 83  2  0  0  0  0
 40 44  1  0  0  0  0
 41 53  1  0  0  0  0
 42 70  1  0  0  0  0
 43 45  1  0  0  0  0
 44 47  1  0  0  0  0
 45 54  1  0  0  0  0
 46 48  1  0  0  0  0
 46 49  1  0  0  0  0
 47 52  1  0  0  0  0
 48 55  1  0  0  0  0
 49 71  1  0  0  0  0
 50 54  1  0  0  0  0
 50 69  1  0  0  0  0
 51 55  1  0  0  0  0
 51 71  1  0  0  0  0
 52 75  1  0  0  0  0
 53 70  1  0  0  0  0
 54 63  1  0  0  0  0
 55 68  1  0  0  0  0
 57 65  1  0  0  0  0
 58 66  1  0  0  0  0
 59 66  1  0  0  0  0
 60 66  1  0  0  0  0
 61 77  1  0  0  0  0
 62 88  1  0  0  0  0
 63 85  1  0  0  0  0
 64 66  1  0  0  0  0
 64 76  1  0  0  0  0
 65 77  1  0  0  0  0
 67 68  1  0  0  0  0
M  CHG  1  77   1
M  ISO  4  39 100  63 101  74 100  85 101
M  END
> <Batch ID>
0054

> <Smiles>
CNC(C)C(=O)NC(C(=O)N1Cc2cc([101O:1][101CH2:1]C3CCC(=O)N(c4cc(C)c(CF)c([100NH:0][100C:0](=O)N5CCCC(n6nc(-c7ccc(Oc8ccc(F)cc8F)cc7)c(C(N)=O)c6N)C5)c4)C3)ccc2CC1C(=O)NC1CCCc2ccccc21)C(C)(C)C

> <Shape>
0.196

> <Color>
0.083

> <Negative vol penalty>
0.000

$$$$

  -OEChem-04042322463D

 87 96  0     1  0  0  0  0  0999 V2000
  -20.0547  -20.8890   11.4851 C   0  0  0  0  0  0  0  0  0  0  0  0
  -20.5580  -19.7711   12.1427 C   0  0  0  0  0  0  0  0  0  0  0  0
  -27.0519  -25.4464   20.3799 C   0  0  0  0  0  0  0  0  0  0  0  0
  -27.7176  -25.8660   18.0956 C   0  0  0  0  0  0  0  0  0  0  0  0
  -20.3012  -22.1642   11.9920 C   0  0  0  0  0  0  0  0  0  0  0  0
  -21.3090  -19.9278   13.3071 C   0  0  0  0  0  0  0  0  0  0  0  0
  -21.4073  -16.1882   18.1560 C   0  0  0  0  0  0  0  0  0  0  0  0
  -29.4882  -13.4391   18.4295 C   0  0  0  0  0  0  0  0  0  0  0  0
  -28.5782  -12.5455   18.9942 C   0  0  0  0  0  0  0  0  0  0  0  0
  -26.0941  -26.4560   20.2862 C   0  0  0  0  0  0  0  0  0  0  0  0
  -26.7598  -26.8757   18.0020 C   0  0  0  0  0  0  0  0  0  0  0  0
  -22.2887  -15.1808   18.5459 C   0  0  0  0  0  0  0  0  0  0  0  0
  -26.0148  -29.8328   20.4112 C   0  0  0  0  0  0  0  0  0  0  0  0
  -25.9180  -30.7336   21.4717 C   0  0  0  0  0  0  0  0  0  0  0  0
  -23.4480  -16.7518   19.9627 C   0  0  0  0  0  0  0  0  0  0  0  0
  -30.1638  -14.1472   20.6384 C   0  0  0  0  0  0  0  0  0  0  0  0
  -23.6224  -30.0692   21.8264 C   0  0  0  0  0  0  0  0  0  0  0  0
  -27.8637  -25.1513   19.2846 C   0  0  0  0  0  0  0  0  0  0  0  0
  -29.9369  -24.0454   20.2777 C   0  0  0  0  0  0  0  0  0  0  0  0
  -21.0474  -22.3361   13.1686 C   0  0  0  0  0  0  0  0  0  0  0  0
  -21.5465  -17.4898   18.6590 C   0  0  0  0  0  0  0  0  0  0  0  0
  -21.5668  -21.2067   13.8295 C   0  0  0  0  0  0  0  0  0  0  0  0
  -22.5654  -17.7733   19.5796 C   0  0  0  0  0  0  0  0  0  0  0  0
  -30.2810  -14.2399   19.2516 C   0  0  0  0  0  0  0  0  0  0  0  0
  -28.4609  -12.4528   20.3811 C   0  0  0  0  0  0  0  0  0  0  0  0
  -25.9480  -27.1707   19.0973 C   0  0  0  0  0  0  0  0  0  0  0  0
  -23.3110  -15.4632   19.4471 C   0  0  0  0  0  0  0  0  0  0  0  0
  -24.9154  -29.0502   20.0582 C   0  0  0  0  0  0  0  0  0  0  0  0
  -24.7218  -30.8518   22.1794 C   0  0  0  0  0  0  0  0  0  0  0  0
  -23.7192  -29.1684   20.7658 C   0  0  0  0  0  0  0  0  0  0  0  0
  -29.2537  -13.2536   21.2032 C   0  0  0  0  0  0  0  0  0  0  0  0
  -28.8536  -24.1088   19.3809 C   0  0  0  0  0  0  0  0  0  0  0  0
  -30.5721  -22.8681   19.9662 C   0  0  0  0  0  0  0  0  0  0  0  0
  -25.3472  -11.6168   19.7055 C   0  0  0  0  0  0  0  0  0  0  0  0
  -30.3334  -24.9681   21.3010 C   0  0  0  0  0  0  0  0  0  0  0  0
  -22.1283  -20.3397   17.3772 C   0  0  0  0  0  0  0  0  0  0  0  0
  -21.5863  -21.3779   20.4023 C   0  0  0  0  0  0  0  0  0  0  0  0
  -21.5389  -20.6754   23.7416 C   0  0  0  0  0  0  0  0  0  0  0  0
  -30.3882  -17.5107   18.8656 C   0  0  0  0  0  0  0  0  0  0  0  0
  -21.3277  -23.7369   13.6522 C   0  0  0  0  0  0  0  0  0  0  0  0
  -20.5712  -18.5589   18.2491 C   0  0  0  0  0  0  0  0  0  0  0  0
  -22.7453  -19.1495   20.1645 C   0  0  0  0  0  0  0  0  0  0  0  0
  -23.9036  -12.0892   19.6686 C   0  0  0  0  0  0  0  0  0  0  0  0
  -21.8157  -23.7961   15.0974 C   0  0  0  0  0  0  0  0  0  0  0  0
  -29.9631  -19.7342   16.0420 C   0  0  0  0  0  0  0  0  0  0  0  0
  -22.9021  -22.7525   15.3372 C   0  0  0  0  0  0  0  0  0  0  0  0
  -29.7248  -21.0732   16.7425 C   0  0  0  0  0  0  0  0  0  0  0  0
  -24.1935  -13.2057   21.8689 C   0  0  0  0  0  0  0  0  0  0  0  0
  -29.3036  -18.5875   16.8024 C   0  0  0  0  0  0  0  0  0  0  0  0
  -25.6927  -12.9722   21.7997 C   0  0  0  0  0  0  0  0  0  0  0  0
  -29.4779  -19.8149   18.9324 C   0  0  0  0  0  0  0  0  0  0  0  0
  -22.3649  -21.3345   15.1089 C   0  0  1  0  0  0  0  0  0  0  0  0
  -21.1212  -19.9704   18.4294 C   0  0  1  0  0  0  0  0  0  0  0  0
  -30.1389  -21.0117   18.2247 C   0  0  2  0  0  0  0  0  0  0  0  0
  -23.6134  -13.3423   20.4743 C   0  0  1  0  0  0  0  0  0  1  0  0
  -21.0925  -21.7361   25.9716 C   0  0  0  0  0  0  0  0  0  0  0  0
  -24.2851  -22.7950   20.2657 C   0  0  0  0  0  0  0  0  0  0  0  0
  -24.2170  -23.0153   22.7587 C   0  0  0  0  0  0  0  0  0  0  0  0
  -22.4672  -24.1164   21.3629 C   0  0  0  0  0  0  0  0  0  0  0  0
  -19.3212  -18.8025   24.3186 C   0  0  0  0  0  0  0  0  0  0  0  0
  -27.4690  -11.4793   20.9491 C   0  0  0  0  0  0  0  0  0  0  0  0
  -31.2540  -15.1955   18.6478 C   0  0  0  0  0  0  0  0  0  0  0  0
  -22.4426  -21.6019   21.6252 C   0  0  1  0  0  0  0  0  0  0  0  0
  -20.4995  -20.9484   24.8137 C   0  0  2  0  0  0  0  0  0  0  0  0
  -23.3510  -22.8566   21.4908 C   0  0  0  0  0  0  0  0  0  0  0  0
  -28.8007  -23.0558   18.5610 N   0  0  0  0  0  0  0  0  0  0  0  0
  -29.8587  -22.3195   18.9414 N   0  0  0  0  0  0  0  0  0  0  0  0
  -26.0997  -11.9615   20.8255 N   0  0  0  0  0  0  0  0  0  0  0  0
  -21.7703  -20.1625   19.7278 N   0  0  0  0  0  0  0  0  0  0  0  0
  -29.7541  -18.5738   18.2013 N   0  0  0  0  0  0  0  0  0  0  0  0
  -31.6657  -22.2591   20.4716 N   0  0  0  0  0  0  0  0  0  0  0  0
  -31.2261  -25.9951   20.9652 N   0  0  0  0  0  0  0  0  0  0  0  0
  -21.5760  -20.9042   16.2433 N   0  0  0  0  0  0  0  0  0  0  0  0
  -21.5285  -21.6450   22.7613 N   0  0  0  0  0  0  0  0  0  0  0  0
  -30.6069  -16.3690   18.1044 N   0  0  0  0  0  0  0  0  0  0  0  0
  -19.9558  -19.6672   25.3464 N   0  3  0  0  0  0  0  0  0  0  0  0
  -25.7598  -10.8952   18.7927 O   0  0  0  0  0  0  0  0  0  0  0  0
  -29.9216  -24.8745   22.4822 O   0  0  0  0  0  0  0  0  0  0  0  0
  -23.3184  -20.1296   17.5798 O   0  0  0  0  0  0  0  0  0  0  0  0
  -20.7788  -22.2461   20.0622 O   0  0  0  0  0  0  0  0  0  0  0  0
  -22.2879  -19.7014   23.7727 O   0  0  0  0  0  0  0  0  0  0  0  0
  -30.7387  -17.5760   20.0488 O   0  0  0  0  0  0  0  0  0  0  0  0
  -25.0133  -28.1558   19.0055 O   0  0  0  0  0  0  0  0  0  0  0  0
  -24.1731  -14.4819   19.8288 O   0  0  0  0  0  0  0  0  0  1  0  0
  -24.6295  -31.7157   23.1988 F   0  0  0  0  0  0  0  0  0  0  0  0
  -22.6600  -28.4185   20.4321 F   0  0  0  0  0  0  0  0  0  0  0  0
  -29.1351  -13.1666   22.9230 Cl  0  0  0  0  0  0  0  0  0  0  0  0
  1  2  1  0  0  0  0
  1  5  2  0  0  0  0
  2  6  2  0  0  0  0
  3 10  2  0  0  0  0
  3 18  1  0  0  0  0
  4 11  1  0  0  0  0
  4 18  2  0  0  0  0
  5 20  1  0  0  0  0
  6 22  1  0  0  0  0
  7 12  2  0  0  0  0
  7 21  1  0  0  0  0
  8  9  2  0  0  0  0
  8 24  1  0  0  0  0
  9 25  1  0  0  0  0
 10 26  1  0  0  0  0
 11 26  2  0  0  0  0
 12 27  1  0  0  0  0
 13 14  2  0  0  0  0
 13 28  1  0  0  0  0
 14 29  1  0  0  0  0
 15 23  1  0  0  0  0
 15 27  2  0  0  0  0
 16 24  2  0  0  0  0
 16 31  1  0  0  0  0
 17 29  2  0  0  0  0
 17 30  1  0  0  0  0
 18 32  1  0  0  0  0
 19 32  1  0  0  0  0
 19 33  2  0  0  0  0
 19 35  1  0  0  0  0
 20 22  2  0  0  0  0
 20 40  1  0  0  0  0
 21 23  2  0  0  0  0
 21 41  1  0  0  0  0
 22 52  1  0  0  0  0
 23 42  1  0  0  0  0
 24 62  1  0  0  0  0
 25 31  2  0  0  0  0
 25 61  1  0  0  0  0
 26 83  1  0  0  0  0
 27 84  1  0  0  0  0
 28 30  2  0  0  0  0
 28 83  1  0  0  0  0
 29 85  1  0  0  0  0
 30 86  1  0  0  0  0
 31 87  1  0  0  0  0
 32 66  2  0  0  0  0
 33 67  1  0  0  0  0
 33 71  1  0  0  0  0
 34 43  1  0  0  0  0
 34 68  1  0  0  0  0
 34 77  2  0  0  0  0
 35 72  1  0  0  0  0
 35 78  2  0  0  0  0
 36 53  1  0  0  0  0
 36 73  1  0  0  0  0
 36 79  2  0  0  0  0
 37 63  1  0  0  0  0
 37 69  1  0  0  0  0
 37 80  2  0  0  0  0
 38 64  1  0  0  0  0
 38 74  1  0  0  0  0
 38 81  2  0  0  0  0
 39 70  1  0  0  0  0
 39 75  1  0  0  0  0
 39 82  2  0  0  0  0
 40 44  1  0  0  0  0
 41 53  1  0  0  0  0
 42 69  1  0  0  0  0
 43 55  1  0  0  0  0
 44 46  1  0  0  0  0
 45 47  1  0  0  0  0
 45 49  1  0  0  0  0
 46 52  1  0  0  0  0
 47 54  1  0  0  0  0
 48 50  1  0  0  0  0
 48 55  1  0  0  0  0
 49 70  1  0  0  0  0
 50 68  1  0  0  0  0
 51 54  1  0  0  0  0
 51 70  1  0  0  0  0
 52 73  1  0  0  0  0
 53 69  1  0  0  0  0
 54 67  1  0  0  0  0
 55 84  1  0  0  0  0
 56 64  1  0  0  0  0
 57 65  1  0  0  0  0
 58 65  1  0  0  0  0
 59 65  1  0  0  0  0
 60 76  1  0  0  0  0
 61 68  1  0  0  0  0
 62 75  1  0  0  0  0
 63 65  1  0  0  0  0
 63 74  1  0  0  0  0
 64 76  1  0  0  0  0
 66 67  1  0  0  0  0
M  CHG  1  76   1
M  ISO  4  39 100  55 101  75 100  84 101
M  END
> <Batch ID>
0054

> <Smiles>
CNC(C)C(=O)NC(C(=O)N1Cc2cc([101O:1][101CH:1]3CCN(Cc4ccc(C[100NH:0][100C:0](=O)N5CCCC(n6nc(-c7ccc(Oc8ccc(F)cc8F)cc7)c(C(N)=O)c6N)C5)cc4Cl)C(=O)C3)ccc2CC1C(=O)NC1CCCc2ccccc21)C(C)(C)C

> <Shape>
0.191

> <Color>
0.082

> <Negative vol penalty>
0.000

$$$$

  -OEChem-04042322463D

 85 93  0     1  0  0  0  0  0999 V2000
  -24.3998  -28.4016   31.7460 C   0  0  0  0  0  0  0  0  0  0  0  0
  -25.5013  -27.7182   31.2410 C   0  0  0  0  0  0  0  0  0  0  0  0
  -23.0749   -9.8689   19.9403 C   0  0  0  0  0  0  0  0  0  0  0  0
  -23.8346   -9.8744   22.2338 C   0  0  0  0  0  0  0  0  0  0  0  0
  -32.3656  -18.5660   22.0130 C   0  0  0  0  0  0  0  0  0  0  0  0
  -23.4590  -27.7275   32.5233 C   0  0  0  0  0  0  0  0  0  0  0  0
  -25.6631  -26.3604   31.5139 C   0  0  0  0  0  0  0  0  0  0  0  0
  -26.9959  -23.7005   27.4158 C   0  0  0  0  0  0  0  0  0  0  0  0
  -31.8685  -17.3427   21.5635 C   0  0  0  0  0  0  0  0  0  0  0  0
  -22.3304   -8.7160   20.1897 C   0  0  0  0  0  0  0  0  0  0  0  0
  -23.0902   -8.7215   22.4832 C   0  0  0  0  0  0  0  0  0  0  0  0
  -28.3298  -23.7719   27.0165 C   0  0  0  0  0  0  0  0  0  0  0  0
  -19.8616   -7.9250   23.0852 C   0  0  0  0  0  0  0  0  0  0  0  0
  -19.1045   -7.8849   24.2560 C   0  0  0  0  0  0  0  0  0  0  0  0
  -28.7549  -21.6478   28.0781 C   0  0  0  0  0  0  0  0  0  0  0  0
  -29.8036  -17.7452   22.7515 C   0  0  0  0  0  0  0  0  0  0  0  0
  -20.3450   -5.9465   24.9916 C   0  0  0  0  0  0  0  0  0  0  0  0
  -23.8270  -10.4481   20.9624 C   0  0  0  0  0  0  0  0  0  0  0  0
  -31.5817  -19.3788   22.8319 C   0  0  0  0  0  0  0  0  0  0  0  0
  -24.1701  -12.9731   20.8435 C   0  0  0  0  0  0  0  0  0  0  0  0
  -23.6043  -26.3585   32.7979 C   0  0  0  0  0  0  0  0  0  0  0  0
  -26.5332  -22.6057   28.1599 C   0  0  0  0  0  0  0  0  0  0  0  0
  -24.7240  -25.6675   32.2967 C   0  0  0  0  0  0  0  0  0  0  0  0
  -27.4141  -21.5637   28.4834 C   0  0  0  0  0  0  0  0  0  0  0  0
  -30.3007  -18.9685   23.2011 C   0  0  0  0  0  0  0  0  0  0  0  0
  -30.5875  -16.9323   21.9327 C   0  0  0  0  0  0  0  0  0  0  0  0
  -22.3380   -8.1423   21.4611 C   0  0  0  0  0  0  0  0  0  0  0  0
  -29.2102  -22.7468   27.3501 C   0  0  0  0  0  0  0  0  0  0  0  0
  -20.8603   -6.9758   22.8675 C   0  0  0  0  0  0  0  0  0  0  0  0
  -19.3462   -6.8957   25.2092 C   0  0  0  0  0  0  0  0  0  0  0  0
  -21.1020   -5.9866   23.8207 C   0  0  0  0  0  0  0  0  0  0  0  0
  -24.5967  -11.6387   20.7052 C   0  0  0  0  0  0  0  0  0  0  0  0
  -25.2627  -13.7223   20.4806 C   0  0  0  0  0  0  0  0  0  0  0  0
  -32.1271  -20.6709   23.2962 C   0  0  0  0  0  0  0  0  0  0  0  0
  -22.8999  -13.4894   21.2626 C   0  0  0  0  0  0  0  0  0  0  0  0
  -25.2775  -22.2314   31.0559 C   0  0  0  0  0  0  0  0  0  0  0  0
  -24.8866  -19.1677   30.0644 C   0  0  0  0  0  0  0  0  0  0  0  0
  -32.7536  -22.0580   25.2610 C   0  0  0  0  0  0  0  0  0  0  0  0
  -25.8753  -16.6459   27.9883 C   0  0  0  0  0  0  0  0  0  0  0  0
  -30.7293  -14.7651   20.6562 C   0  0  0  0  0  0  0  0  0  0  0  0
  -22.5861  -25.6833   33.6823 C   0  0  0  0  0  0  0  0  0  0  0  0
  -25.0852  -22.5309   28.5600 C   0  0  0  0  0  0  0  0  0  0  0  0
  -26.9625  -20.3569   29.2633 C   0  0  0  0  0  0  0  0  0  0  0  0
  -22.6344  -24.1592   33.6132 C   0  0  0  0  0  0  0  0  0  0  0  0
  -29.6139  -12.3529   18.2867 C   0  0  0  0  0  0  0  0  0  0  0  0
  -24.0740  -23.6655   33.7162 C   0  0  0  0  0  0  0  0  0  0  0  0
  -28.1741  -12.0618   18.7161 C   0  0  0  0  0  0  0  0  0  0  0  0
  -30.5290  -12.5807   19.4885 C   0  0  0  0  0  0  0  0  0  0  0  0
  -28.6224  -13.3055   20.8700 C   0  0  0  0  0  0  0  0  0  0  0  0
  -24.9215  -24.1887   32.5502 C   0  0  1  0  0  0  0  0  0  0  0  0
  -24.8424  -21.6157   29.7562 C   0  0  1  0  0  0  0  0  0  0  0  0
  -27.6495  -13.1332   19.6920 C   0  0  2  0  0  0  0  0  0  0  0  0
  -29.4414  -19.8226   24.0746 C   0  0  0  0  0  0  0  0  0  0  0  0
  -25.3942  -14.2456   27.4367 C   0  0  0  0  0  0  0  0  0  0  0  0
  -26.3620  -18.2945   32.5884 C   0  0  0  0  0  0  0  0  0  0  0  0
  -26.6851  -16.0452   31.5375 C   0  0  0  0  0  0  0  0  0  0  0  0
  -24.3819  -16.8859   31.9974 C   0  0  0  0  0  0  0  0  0  0  0  0
  -25.1240  -17.3152   25.2050 C   0  0  0  0  0  0  0  0  0  0  0  0
  -32.7514  -21.9531   26.7691 C   0  0  0  0  0  0  0  0  0  0  0  0
  -31.3595  -21.7290   27.3383 C   0  0  0  0  0  0  0  0  0  1  0  0
  -25.7233  -17.9122   30.1161 C   0  0  1  0  0  0  0  0  0  0  0  0
  -25.0826  -15.6972   27.1074 C   0  0  2  0  0  0  0  0  0  0  0  0
  -25.7974  -17.3080   31.5468 C   0  0  0  0  0  0  0  0  0  0  0  0
  -25.8616  -11.5425   20.2870 N   0  0  0  0  0  0  0  0  0  0  0  0
  -26.2391  -12.8259   20.1592 N   0  0  0  0  0  0  0  0  0  0  0  0
  -25.5387  -20.3331   29.6371 N   0  0  0  0  0  0  0  0  0  0  0  0
  -29.9705  -13.6114   20.3663 N   0  0  0  0  0  0  0  0  0  0  0  0
  -25.4737  -15.0536   20.4083 N   0  0  0  0  0  0  0  0  0  0  0  0
  -21.8875  -12.5805   21.5994 N   0  0  0  0  0  0  0  0  0  0  0  0
  -30.0824  -15.6901   21.4750 N   0  0  0  0  0  0  0  0  0  0  0  0
  -32.2455  -20.8687   24.6164 N   0  0  0  0  0  0  0  0  0  0  0  0
  -24.6522  -23.4284   31.3486 N   0  0  0  0  0  0  0  0  0  0  0  0
  -25.1671  -17.0094   29.1142 N   0  0  0  0  0  0  0  0  0  0  0  0
  -32.4685  -21.5682   22.3718 N   0  3  0  0  0  0  0  0  0  0  0  0
  -25.4042  -15.9329   25.6714 N   0  3  0  0  0  0  0  0  0  0  0  0
  -22.6642  -14.7201   21.3205 O   0  0  0  0  0  0  0  0  0  0  0  0
  -26.1173  -21.6619   31.7430 O   0  0  0  0  0  0  0  0  0  0  0  0
  -23.6964  -19.1148   30.3841 O   0  0  0  0  0  0  0  0  0  0  0  0
  -33.1334  -23.0236   24.6149 O   0  0  0  0  0  0  0  0  0  0  0  0
  -27.0106  -17.0237   27.7076 O   0  0  0  0  0  0  0  0  0  0  0  0
  -31.8585  -14.9335   20.1887 O   0  0  0  0  0  0  0  0  0  0  0  0
  -21.6115   -7.0175   21.7049 O   0  0  0  0  0  0  0  0  0  0  0  0
  -30.5128  -22.8143   26.9622 O   0  0  0  0  0  0  0  0  0  1  0  0
  -18.6202   -6.8583   26.3343 F   0  0  0  0  0  0  0  0  0  0  0  0
  -22.0609   -5.0728   23.6177 F   0  0  0  0  0  0  0  0  0  0  0  0
  1  2  1  0  0  0  0
  1  6  2  0  0  0  0
  2  7  2  0  0  0  0
  3 10  2  0  0  0  0
  3 18  1  0  0  0  0
  4 11  1  0  0  0  0
  4 18  2  0  0  0  0
  5  9  2  0  0  0  0
  5 19  1  0  0  0  0
  6 21  1  0  0  0  0
  7 23  1  0  0  0  0
  8 12  2  0  0  0  0
  8 22  1  0  0  0  0
  9 26  1  0  0  0  0
 10 27  1  0  0  0  0
 11 27  2  0  0  0  0
 12 28  1  0  0  0  0
 13 14  2  0  0  0  0
 13 29  1  0  0  0  0
 14 30  1  0  0  0  0
 15 24  1  0  0  0  0
 15 28  2  0  0  0  0
 16 25  1  0  0  0  0
 16 26  2  0  0  0  0
 17 30  2  0  0  0  0
 17 31  1  0  0  0  0
 18 32  1  0  0  0  0
 19 25  2  0  0  0  0
 19 34  1  0  0  0  0
 20 32  1  0  0  0  0
 20 33  2  0  0  0  0
 20 35  1  0  0  0  0
 21 23  2  0  0  0  0
 21 41  1  0  0  0  0
 22 24  2  0  0  0  0
 22 42  1  0  0  0  0
 23 50  1  0  0  0  0
 24 43  1  0  0  0  0
 25 53  1  0  0  0  0
 26 70  1  0  0  0  0
 27 82  1  0  0  0  0
 28 83  1  0  0  0  0
 29 31  2  0  0  0  0
 29 82  1  0  0  0  0
 30 84  1  0  0  0  0
 31 85  1  0  0  0  0
 32 64  2  0  0  0  0
 33 65  1  0  0  0  0
 33 68  1  0  0  0  0
 34 71  1  0  0  0  0
 34 74  2  0  0  0  0
 35 69  1  0  0  0  0
 35 76  2  0  0  0  0
 36 51  1  0  0  0  0
 36 72  1  0  0  0  0
 36 77  2  0  0  0  0
 37 61  1  0  0  0  0
 37 66  1  0  0  0  0
 37 78  2  0  0  0  0
 38 59  1  0  0  0  0
 38 71  1  0  0  0  0
 38 79  2  0  0  0  0
 39 62  1  0  0  0  0
 39 73  1  0  0  0  0
 39 80  2  0  0  0  0
 40 67  1  0  0  0  0
 40 70  1  0  0  0  0
 40 81  2  0  0  0  0
 41 44  1  0  0  0  0
 42 51  1  0  0  0  0
 43 66  1  0  0  0  0
 44 46  1  0  0  0  0
 45 47  1  0  0  0  0
 45 48  1  0  0  0  0
 46 50  1  0  0  0  0
 47 52  1  0  0  0  0
 48 67  1  0  0  0  0
 49 52  1  0  0  0  0
 49 67  1  0  0  0  0
 50 72  1  0  0  0  0
 51 66  1  0  0  0  0
 52 65  1  0  0  0  0
 54 62  1  0  0  0  0
 55 63  1  0  0  0  0
 56 63  1  0  0  0  0
 57 63  1  0  0  0  0
 58 75  1  0  0  0  0
 59 60  1  0  0  0  0
 60 83  1  0  0  0  0
 61 63  1  0  0  0  0
 61 73  1  0  0  0  0
 62 75  1  0  0  0  0
 64 65  1  0  0  0  0
M  CHG  2  74   1  75   1
M  ISO  4  40 100  60 101  70 100  83 101
M  END
> <Batch ID>
0054

> <Smiles>
CNC(C)C(=O)NC(C(=O)N1Cc2cc([101O:1][101CH2:1]CC(=O)NC(=N)c3ccc([100NH:0][100C:0](=O)N4CCCC(n5nc(-c6ccc(Oc7ccc(F)cc7F)cc6)c(C(N)=O)c5N)C4)cc3C)ccc2CC1C(=O)NC1CCCc2ccccc21)C(C)(C)C

> <Shape>
0.168

> <Color>
0.187

> <Negative vol penalty>
0.000

$$$$

  -OEChem-04042322463D

 87 96  0     1  0  0  0  0  0999 V2000
  -18.7442  -24.8235   21.7044 C   0  0  0  0  0  0  0  0  0  0  0  0
  -20.0202  -25.0217   21.1867 C   0  0  0  0  0  0  0  0  0  0  0  0
  -26.5421  -13.7429   20.8312 C   0  0  0  0  0  0  0  0  0  0  0  0
  -24.2686  -13.1047   21.3420 C   0  0  0  0  0  0  0  0  0  0  0  0
  -17.9741  -25.9179   22.0955 C   0  0  0  0  0  0  0  0  0  0  0  0
  -20.5264  -26.3147   21.0589 C   0  0  0  0  0  0  0  0  0  0  0  0
  -25.3151  -26.6935   22.6620 C   0  0  0  0  0  0  0  0  0  0  0  0
  -26.7023  -12.5752   20.0852 C   0  0  0  0  0  0  0  0  0  0  0  0
  -24.4287  -11.9370   20.5960 C   0  0  0  0  0  0  0  0  0  0  0  0
  -26.3118  -26.2264   21.8063 C   0  0  0  0  0  0  0  0  0  0  0  0
  -25.8490   -8.8959   21.0027 C   0  0  0  0  0  0  0  0  0  0  0  0
  -25.3811   -7.7041   21.5560 C   0  0  0  0  0  0  0  0  0  0  0  0
  -26.7585  -28.4896   21.1011 C   0  0  0  0  0  0  0  0  0  0  0  0
  -24.5721  -23.3342   16.5630 C   0  0  0  0  0  0  0  0  0  0  0  0
  -22.9850  -22.6493   18.2509 C   0  0  0  0  0  0  0  0  0  0  0  0
  -25.2462  -21.8000   18.3034 C   0  0  0  0  0  0  0  0  0  0  0  0
  -23.8859   -7.4200   19.6796 C   0  0  0  0  0  0  0  0  0  0  0  0
  -25.3252  -14.0076   21.4597 C   0  0  0  0  0  0  0  0  0  0  0  0
  -25.8986  -15.6072   23.3623 C   0  0  0  0  0  0  0  0  0  0  0  0
  -18.4749  -27.2244   21.9814 C   0  0  0  0  0  0  0  0  0  0  0  0
  -25.0247  -28.0634   22.7357 C   0  0  0  0  0  0  0  0  0  0  0  0
  -19.7618  -27.4277   21.4476 C   0  0  0  0  0  0  0  0  0  0  0  0
  -25.7594  -28.9718   21.9603 C   0  0  0  0  0  0  0  0  0  0  0  0
  -23.2894  -23.3890   17.1081 C   0  0  0  0  0  0  0  0  0  0  0  0
  -25.5505  -22.5397   17.1607 C   0  0  0  0  0  0  0  0  0  0  0  0
  -23.9634  -21.8548   18.8486 C   0  0  0  0  0  0  0  0  0  0  0  0
  -25.6456  -11.6723   19.9676 C   0  0  0  0  0  0  0  0  0  0  0  0
  -27.0318  -27.1242   21.0236 C   0  0  0  0  0  0  0  0  0  0  0  0
  -25.3353   -9.3499   19.7879 C   0  0  0  0  0  0  0  0  0  0  0  0
  -24.3995   -6.9661   20.8945 C   0  0  0  0  0  0  0  0  0  0  0  0
  -24.3538   -8.6119   19.1263 C   0  0  0  0  0  0  0  0  0  0  0  0
  -25.1593  -15.2133   22.2309 C   0  0  0  0  0  0  0  0  0  0  0  0
  -25.3578  -16.8176   23.7215 C   0  0  0  0  0  0  0  0  0  0  0  0
  -28.6146  -22.6273   18.3660 C   0  0  0  0  0  0  0  0  0  0  0  0
  -26.9777  -14.9388   24.0290 C   0  0  0  0  0  0  0  0  0  0  0  0
  -22.4686  -29.8506   22.1227 C   0  0  0  0  0  0  0  0  0  0  0  0
  -24.3045  -32.2146   23.3730 C   0  0  0  0  0  0  0  0  0  0  0  0
  -27.4302  -33.3937   24.0706 C   0  0  0  0  0  0  0  0  0  0  0  0
  -22.4316  -21.0457   20.6775 C   0  0  0  0  0  0  0  0  0  0  0  0
  -17.5871  -28.3789   22.3733 C   0  0  0  0  0  0  0  0  0  0  0  0
  -23.9647  -28.5538   23.6834 C   0  0  0  0  0  0  0  0  0  0  0  0
  -25.5002  -30.4543   22.0176 C   0  0  0  0  0  0  0  0  0  0  0  0
  -29.6537  -23.4679   19.0851 C   0  0  0  0  0  0  0  0  0  0  0  0
  -18.3418  -29.6935   22.5543 C   0  0  0  0  0  0  0  0  0  0  0  0
  -21.2594  -19.2886   23.5439 C   0  0  0  0  0  0  0  0  0  0  0  0
  -19.3000  -29.9236   21.3900 C   0  0  0  0  0  0  0  0  0  0  0  0
  -22.1976  -18.0833   23.6390 C   0  0  0  0  0  0  0  0  0  0  0  0
  -29.0257  -25.4549   17.7519 C   0  0  0  0  0  0  0  0  0  0  0  0
  -20.9427  -19.6477   22.0932 C   0  0  0  0  0  0  0  0  0  0  0  0
  -27.8542  -24.7003   17.1486 C   0  0  0  0  0  0  0  0  0  0  0  0
  -23.0539  -18.6359   21.3263 C   0  0  0  0  0  0  0  0  0  0  0  0
  -20.3554  -28.8135   21.3165 C   0  0  1  0  0  0  0  0  0  0  0  0
  -23.4031  -29.9187   23.2973 C   0  0  1  0  0  0  0  0  0  0  0  0
  -29.3470  -24.9581   19.1558 C   0  0  1  0  0  0  0  0  0  0  0  0
  -23.4536  -18.2765   22.7668 C   0  0  2  0  0  0  0  0  0  0  0  0
  -22.2433  -24.2384   16.4689 C   0  0  0  0  0  0  0  0  0  0  0  0
  -28.6134  -35.3725   25.0613 C   0  0  0  0  0  0  0  0  0  0  0  0
  -23.7663  -33.8080   20.8271 C   0  0  0  0  0  0  0  0  0  0  0  0
  -25.6823  -35.2991   21.4385 C   0  0  0  0  0  0  0  0  0  0  0  0
  -23.6916  -35.1524   22.9346 C   0  0  0  0  0  0  0  0  0  0  0  0
  -28.6471  -31.7439   26.2052 C   0  0  0  0  0  0  0  0  0  0  0  0
  -26.9313  -22.4809   16.5739 C   0  0  0  0  0  0  0  0  0  0  0  0
  -28.2353  -25.2629   20.1616 C   0  0  0  0  0  0  0  0  0  1  0  0
  -25.2988  -33.2043   22.8154 C   0  0  1  0  0  0  0  0  0  0  0  0
  -28.0204  -33.9985   25.3317 C   0  0  2  0  0  0  0  0  0  0  0  0
  -24.6136  -34.3379   22.0011 C   0  0  0  0  0  0  0  0  0  0  0  0
  -24.2204  -16.1014   21.8937 N   0  0  0  0  0  0  0  0  0  0  0  0
  -24.3660  -17.0653   22.8187 N   0  0  0  0  0  0  0  0  0  0  0  0
  -27.8889  -23.2528   17.3549 N   0  0  0  0  0  0  0  0  0  0  0  0
  -24.4495  -30.8842   22.9550 N   0  0  0  0  0  0  0  0  0  0  0  0
  -22.1801  -19.8196   21.3289 N   0  0  0  0  0  0  0  0  0  0  0  0
  -25.6387  -17.6835   24.7183 N   0  0  0  0  0  0  0  0  0  0  0  0
  -27.4092  -13.7029   23.5283 N   0  0  0  0  0  0  0  0  0  0  0  0
  -23.6543  -21.1035   20.0095 N   0  0  0  0  0  0  0  0  0  0  0  0
  -21.3795  -29.0227   22.3175 N   0  0  0  0  0  0  0  0  0  0  0  0
  -26.0858  -33.6754   23.9498 N   0  0  0  0  0  0  0  0  0  0  0  0
  -29.0961  -33.1205   25.8728 N   0  3  0  0  0  0  0  0  0  0  0  0
  -28.5159  -21.4300   18.6489 O   0  0  0  0  0  0  0  0  0  0  0  0
  -27.5317  -15.4154   25.0486 O   0  0  0  0  0  0  0  0  0  0  0  0
  -22.7164  -30.5021   21.1149 O   0  0  0  0  0  0  0  0  0  0  0  0
  -23.4358  -32.6062   24.1563 O   0  0  0  0  0  0  0  0  0  0  0  0
  -28.0960  -32.7401   23.2706 O   0  0  0  0  0  0  0  0  0  0  0  0
  -21.6341  -21.9854   20.7327 O   0  0  0  0  0  0  0  0  0  0  0  0
  -25.8015  -10.5329   19.2395 O   0  0  0  0  0  0  0  0  0  0  0  0
  -28.0047  -26.6709   20.1870 O   0  0  0  0  0  0  0  0  0  1  0  0
  -23.9514   -5.8208   21.4252 F   0  0  0  0  0  0  0  0  0  0  0  0
  -23.8574   -9.0423   17.9584 F   0  0  0  0  0  0  0  0  0  0  0  0
  1  2  1  0  0  0  0
  1  5  2  0  0  0  0
  2  6  2  0  0  0  0
  3  8  2  0  0  0  0
  3 18  1  0  0  0  0
  4  9  1  0  0  0  0
  4 18  2  0  0  0  0
  5 20  1  0  0  0  0
  6 22  1  0  0  0  0
  7 10  2  0  0  0  0
  7 21  1  0  0  0  0
  8 27  1  0  0  0  0
  9 27  2  0  0  0  0
 10 28  1  0  0  0  0
 11 12  2  0  0  0  0
 11 29  1  0  0  0  0
 12 30  1  0  0  0  0
 13 23  1  0  0  0  0
 13 28  2  0  0  0  0
 14 24  2  0  0  0  0
 14 25  1  0  0  0  0
 15 24  1  0  0  0  0
 15 26  2  0  0  0  0
 16 25  2  0  0  0  0
 16 26  1  0  0  0  0
 17 30  2  0  0  0  0
 17 31  1  0  0  0  0
 18 32  1  0  0  0  0
 19 32  1  0  0  0  0
 19 33  2  0  0  0  0
 19 35  1  0  0  0  0
 20 22  2  0  0  0  0
 20 40  1  0  0  0  0
 21 23  2  0  0  0  0
 21 41  1  0  0  0  0
 22 52  1  0  0  0  0
 23 42  1  0  0  0  0
 24 56  1  0  0  0  0
 25 62  1  0  0  0  0
 26 74  1  0  0  0  0
 27 84  1  0  0  0  0
 28 85  1  0  0  0  0
 29 31  2  0  0  0  0
 29 84  1  0  0  0  0
 30 86  1  0  0  0  0
 31 87  1  0  0  0  0
 32 67  2  0  0  0  0
 33 68  1  0  0  0  0
 33 72  1  0  0  0  0
 34 43  1  0  0  0  0
 34 69  1  0  0  0  0
 34 78  2  0  0  0  0
 35 73  1  0  0  0  0
 35 79  2  0  0  0  0
 36 53  1  0  0  0  0
 36 75  1  0  0  0  0
 36 80  2  0  0  0  0
 37 64  1  0  0  0  0
 37 70  1  0  0  0  0
 37 81  2  0  0  0  0
 38 65  1  0  0  0  0
 38 76  1  0  0  0  0
 38 82  2  0  0  0  0
 39 71  1  0  0  0  0
 39 74  1  0  0  0  0
 39 83  2  0  0  0  0
 40 44  1  0  0  0  0
 41 53  1  0  0  0  0
 42 70  1  0  0  0  0
 43 54  1  0  0  0  0
 44 46  1  0  0  0  0
 45 47  1  0  0  0  0
 45 49  1  0  0  0  0
 46 52  1  0  0  0  0
 47 55  1  0  0  0  0
 48 50  1  0  0  0  0
 48 54  1  0  0  0  0
 49 71  1  0  0  0  0
 50 69  1  0  0  0  0
 51 55  1  0  0  0  0
 51 71  1  0  0  0  0
 52 75  1  0  0  0  0
 53 70  1  0  0  0  0
 54 63  1  0  0  0  0
 55 68  1  0  0  0  0
 57 65  1  0  0  0  0
 58 66  1  0  0  0  0
 59 66  1  0  0  0  0
 60 66  1  0  0  0  0
 61 77  1  0  0  0  0
 62 69  1  0  0  0  0
 63 85  1  0  0  0  0
 64 66  1  0  0  0  0
 64 76  1  0  0  0  0
 65 77  1  0  0  0  0
 67 68  1  0  0  0  0
M  CHG  1  77   1
M  ISO  4  39 100  63 101  74 100  85 101
M  END
> <Batch ID>
0054

> <Smiles>
CNC(C)C(=O)NC(C(=O)N1Cc2cc([101O:1][101CH2:1]C3CCN(Cc4cc(C)cc([100NH:0][100C:0](=O)N5CCCC(n6nc(-c7ccc(Oc8ccc(F)cc8F)cc7)c(C(N)=O)c6N)C5)c4)C(=O)C3)ccc2CC1C(=O)NC1CCCc2ccccc21)C(C)(C)C

> <Shape>
0.211

> <Color>
0.087

> <Negative vol penalty>
0.000

$$$$

  -OEChem-04042322463D

 84 92  0     1  0  0  0  0  0999 V2000
  -23.1715  -18.7593   23.8205 C   0  0  0  0  0  0  0  0  0  0  0  0
  -24.4848  -18.8571   24.2688 C   0  0  0  0  0  0  0  0  0  0  0  0
  -23.0734   -9.8699   19.9416 C   0  0  0  0  0  0  0  0  0  0  0  0
  -23.8314   -9.8779   22.2356 C   0  0  0  0  0  0  0  0  0  0  0  0
  -22.3349  -19.8736   23.8687 C   0  0  0  0  0  0  0  0  0  0  0  0
  -24.9627  -20.0697   24.7645 C   0  0  0  0  0  0  0  0  0  0  0  0
  -27.6245  -19.5086   29.0359 C   0  0  0  0  0  0  0  0  0  0  0  0
  -22.3284   -8.7175   20.1917 C   0  0  0  0  0  0  0  0  0  0  0  0
  -23.0863   -8.7256   22.4858 C   0  0  0  0  0  0  0  0  0  0  0  0
  -28.9355  -19.0502   28.9136 C   0  0  0  0  0  0  0  0  0  0  0  0
  -19.3782   -7.9245   21.6411 C   0  0  0  0  0  0  0  0  0  0  0  0
  -18.0717   -7.8790   21.1548 C   0  0  0  0  0  0  0  0  0  0  0  0
  -29.7415  -21.3120   29.1452 C   0  0  0  0  0  0  0  0  0  0  0  0
  -29.8804  -17.4567   23.1397 C   0  0  0  0  0  0  0  0  0  0  0  0
  -32.0640  -16.6054   22.5526 C   0  0  0  0  0  0  0  0  0  0  0  0
  -18.6309   -5.9345   19.8344 C   0  0  0  0  0  0  0  0  0  0  0  0
  -23.8250  -10.4501   20.9635 C   0  0  0  0  0  0  0  0  0  0  0  0
  -31.8540  -18.3572   24.2031 C   0  0  0  0  0  0  0  0  0  0  0  0
  -24.1690  -12.9748   20.8419 C   0  0  0  0  0  0  0  0  0  0  0  0
  -22.7998  -21.0979   24.3742 C   0  0  0  0  0  0  0  0  0  0  0  0
  -27.3612  -20.8758   29.2031 C   0  0  0  0  0  0  0  0  0  0  0  0
  -24.1319  -21.2018   24.8182 C   0  0  0  0  0  0  0  0  0  0  0  0
  -28.4264  -21.7849   29.2720 C   0  0  0  0  0  0  0  0  0  0  0  0
  -30.4683  -18.3407   24.0443 C   0  0  0  0  0  0  0  0  0  0  0  0
  -30.6783  -16.5889   22.3938 C   0  0  0  0  0  0  0  0  0  0  0  0
  -22.3348   -8.1454   21.4638 C   0  0  0  0  0  0  0  0  0  0  0  0
  -29.9941  -19.9523   28.9654 C   0  0  0  0  0  0  0  0  0  0  0  0
  -20.3112   -6.9750   21.2240 C   0  0  0  0  0  0  0  0  0  0  0  0
  -17.6981   -6.8840   20.2515 C   0  0  0  0  0  0  0  0  0  0  0  0
  -32.6519  -17.4896   23.4573 C   0  0  0  0  0  0  0  0  0  0  0  0
  -19.9375   -5.9800   20.3207 C   0  0  0  0  0  0  0  0  0  0  0  0
  -24.5953  -11.6401   20.7055 C   0  0  0  0  0  0  0  0  0  0  0  0
  -25.2621  -13.7231   20.4790 C   0  0  0  0  0  0  0  0  0  0  0  0
  -32.5022  -19.2895   25.1611 C   0  0  0  0  0  0  0  0  0  0  0  0
  -22.8986  -13.4920   21.2594 C   0  0  0  0  0  0  0  0  0  0  0  0
  -25.7957  -23.0796   27.5309 C   0  0  0  0  0  0  0  0  0  0  0  0
  -26.4216  -24.9295   30.1210 C   0  0  0  0  0  0  0  0  0  0  0  0
  -28.3867  -25.5297   32.8458 C   0  0  0  0  0  0  0  0  0  0  0  0
  -30.7290  -14.7643   20.6576 C   0  0  0  0  0  0  0  0  0  0  0  0
  -21.8725  -22.2873   24.3625 C   0  0  0  0  0  0  0  0  0  0  0  0
  -25.9428  -21.3510   29.3603 C   0  0  0  0  0  0  0  0  0  0  0  0
  -28.1982  -23.2604   29.4704 C   0  0  0  0  0  0  0  0  0  0  0  0
  -22.3443  -23.4362   25.2499 C   0  0  0  0  0  0  0  0  0  0  0  0
  -29.6146  -12.3497   18.2902 C   0  0  0  0  0  0  0  0  0  0  0  0
  -23.8266  -23.7141   25.0205 C   0  0  0  0  0  0  0  0  0  0  0  0
  -28.1743  -12.0596   18.7187 C   0  0  0  0  0  0  0  0  0  0  0  0
  -30.5289  -12.5786   19.4924 C   0  0  0  0  0  0  0  0  0  0  0  0
  -28.6213  -13.3057   20.8715 C   0  0  0  0  0  0  0  0  0  0  0  0
  -24.6797  -22.4933   25.3858 C   0  0  1  0  0  0  0  0  0  0  0  0
  -25.7645  -22.8255   29.0115 C   0  0  1  0  0  0  0  0  0  0  0  0
  -27.6494  -13.1324   19.6930 C   0  0  2  0  0  0  0  0  0  0  0  0
  -29.5901  -19.2593   24.8300 C   0  0  0  0  0  0  0  0  0  0  0  0
  -28.6744  -27.1369   34.7515 C   0  0  0  0  0  0  0  0  0  0  0  0
  -27.6424  -26.9719   28.2110 C   0  0  0  0  0  0  0  0  0  0  0  0
  -28.7336  -28.0609   30.1838 C   0  0  0  0  0  0  0  0  0  0  0  0
  -26.2456  -27.9561   30.0371 C   0  0  0  0  0  0  0  0  0  0  0  0
  -27.9505  -23.4032   34.8574 C   0  0  0  0  0  0  0  0  0  0  0  0
  -33.2652  -19.6050   27.5008 C   0  0  0  0  0  0  0  0  0  0  0  0
  -32.2208  -20.4021   28.2617 C   0  0  0  0  0  0  0  0  0  1  0  0
  -27.5479  -25.8465   30.5327 C   0  0  1  0  0  0  0  0  0  0  0  0
  -28.0382  -25.8344   34.2916 C   0  0  2  0  0  0  0  0  0  0  0  0
  -27.5469  -27.1813   29.7355 C   0  0  0  0  0  0  0  0  0  0  0  0
  -25.8604  -11.5429   20.2884 N   0  0  0  0  0  0  0  0  0  0  0  0
  -26.2385  -12.8261   20.1595 N   0  0  0  0  0  0  0  0  0  0  0  0
  -26.7932  -23.6768   29.6126 N   0  0  0  0  0  0  0  0  0  0  0  0
  -29.9700  -13.6105   20.3686 N   0  0  0  0  0  0  0  0  0  0  0  0
  -25.4737  -15.0544   20.4052 N   0  0  0  0  0  0  0  0  0  0  0  0
  -21.8856  -12.5839   21.5965 N   0  0  0  0  0  0  0  0  0  0  0  0
  -30.0817  -15.6905   21.4748 N   0  0  0  0  0  0  0  0  0  0  0  0
  -32.6757  -18.8127   26.4544 N   0  0  0  0  0  0  0  0  0  0  0  0
  -24.8290  -22.3924   26.8217 N   0  0  0  0  0  0  0  0  0  0  0  0
  -27.4311  -26.0133   31.9774 N   0  0  0  0  0  0  0  0  0  0  0  0
  -28.5155  -24.7384   35.1815 N   0  3  0  0  0  0  0  0  0  0  0  0
  -32.8255  -20.4117   24.7808 O   0  0  0  0  0  0  0  0  0  0  0  0
  -22.6633  -14.7229   21.3156 O   0  0  0  0  0  0  0  0  0  0  0  0
  -26.6336  -23.8436   27.0665 O   0  0  0  0  0  0  0  0  0  0  0  0
  -25.2549  -25.3079   30.2524 O   0  0  0  0  0  0  0  0  0  0  0  0
  -29.4066  -24.9266   32.5194 O   0  0  0  0  0  0  0  0  0  0  0  0
  -31.8586  -14.9318   20.1908 O   0  0  0  0  0  0  0  0  0  0  0  0
  -21.6077   -7.0211   21.7084 O   0  0  0  0  0  0  0  0  0  0  0  0
  -31.2746  -19.5076   28.8456 O   0  0  0  0  0  0  0  0  0  1  0  0
  -16.4430   -6.8395   19.7857 F   0  0  0  0  0  0  0  0  0  0  0  0
  -33.9848  -17.4955   23.6011 F   0  0  0  0  0  0  0  0  0  0  0  0
  -20.8290   -5.0644   19.9173 F   0  0  0  0  0  0  0  0  0  0  0  0
  1  2  1  0  0  0  0
  1  5  2  0  0  0  0
  2  6  2  0  0  0  0
  3  8  2  0  0  0  0
  3 17  1  0  0  0  0
  4  9  1  0  0  0  0
  4 17  2  0  0  0  0
  5 20  1  0  0  0  0
  6 22  1  0  0  0  0
  7 10  2  0  0  0  0
  7 21  1  0  0  0  0
  8 26  1  0  0  0  0
  9 26  2  0  0  0  0
 10 27  1  0  0  0  0
 11 12  2  0  0  0  0
 11 28  1  0  0  0  0
 12 29  1  0  0  0  0
 13 23  1  0  0  0  0
 13 27  2  0  0  0  0
 14 24  2  0  0  0  0
 14 25  1  0  0  0  0
 15 25  2  0  0  0  0
 15 30  1  0  0  0  0
 16 29  2  0  0  0  0
 16 31  1  0  0  0  0
 17 32  1  0  0  0  0
 18 24  1  0  0  0  0
 18 30  2  0  0  0  0
 18 34  1  0  0  0  0
 19 32  1  0  0  0  0
 19 33  2  0  0  0  0
 19 35  1  0  0  0  0
 20 22  2  0  0  0  0
 20 40  1  0  0  0  0
 21 23  2  0  0  0  0
 21 41  1  0  0  0  0
 22 49  1  0  0  0  0
 23 42  1  0  0  0  0
 24 52  1  0  0  0  0
 25 69  1  0  0  0  0
 26 80  1  0  0  0  0
 27 81  1  0  0  0  0
 28 31  2  0  0  0  0
 28 80  1  0  0  0  0
 29 82  1  0  0  0  0
 30 83  1  0  0  0  0
 31 84  1  0  0  0  0
 32 63  2  0  0  0  0
 33 64  1  0  0  0  0
 33 67  1  0  0  0  0
 34 70  1  0  0  0  0
 34 74  2  0  0  0  0
 35 68  1  0  0  0  0
 35 75  2  0  0  0  0
 36 50  1  0  0  0  0
 36 71  1  0  0  0  0
 36 76  2  0  0  0  0
 37 60  1  0  0  0  0
 37 65  1  0  0  0  0
 37 77  2  0  0  0  0
 38 61  1  0  0  0  0
 38 72  1  0  0  0  0
 38 78  2  0  0  0  0
 39 66  1  0  0  0  0
 39 69  1  0  0  0  0
 39 79  2  0  0  0  0
 40 43  1  0  0  0  0
 41 50  1  0  0  0  0
 42 65  1  0  0  0  0
 43 45  1  0  0  0  0
 44 46  1  0  0  0  0
 44 47  1  0  0  0  0
 45 49  1  0  0  0  0
 46 51  1  0  0  0  0
 47 66  1  0  0  0  0
 48 51  1  0  0  0  0
 48 66  1  0  0  0  0
 49 71  1  0  0  0  0
 50 65  1  0  0  0  0
 51 64  1  0  0  0  0
 53 61  1  0  0  0  0
 54 62  1  0  0  0  0
 55 62  1  0  0  0  0
 56 62  1  0  0  0  0
 57 73  1  0  0  0  0
 58 59  1  0  0  0  0
 58 70  1  0  0  0  0
 59 81  1  0  0  0  0
 60 62  1  0  0  0  0
 60 72  1  0  0  0  0
 61 73  1  0  0  0  0
 63 64  1  0  0  0  0
M  CHG  1  73   1
M  ISO  4  39 100  59 101  69 100  81 101
M  END
> <Batch ID>
0054

> <Smiles>
CNC(C)C(=O)NC(C(=O)N1Cc2cc([101O:1][101CH2:1]CNC(=O)c3c(C)cc([100NH:0][100C:0](=O)N4CCCC(n5nc(-c6ccc(Oc7ccc(F)cc7F)cc6)c(C(N)=O)c5N)C4)cc3F)ccc2CC1C(=O)NC1CCCc2ccccc21)C(C)(C)C

> <Shape>
0.146

> <Color>
0.191

> <Negative vol penalty>
0.000

$$$$

  -OEChem-04042322463D

 84 92  0     1  0  0  0  0  0999 V2000
  -18.3738  -23.7743   33.2431 C   0  0  0  0  0  0  0  0  0  0  0  0
  -18.9603  -23.3261   32.0639 C   0  0  0  0  0  0  0  0  0  0  0  0
  -23.1888   -9.7345   19.9525 C   0  0  0  0  0  0  0  0  0  0  0  0
  -23.7937   -9.9337   22.2830 C   0  0  0  0  0  0  0  0  0  0  0  0
  -17.6921  -24.9904   33.2628 C   0  0  0  0  0  0  0  0  0  0  0  0
  -18.8644  -24.0932   30.9033 C   0  0  0  0  0  0  0  0  0  0  0  0
  -23.2682  -24.4262   28.4253 C   0  0  0  0  0  0  0  0  0  0  0  0
  -22.4921   -8.5593   20.2337 C   0  0  0  0  0  0  0  0  0  0  0  0
  -23.0969   -8.7586   22.5643 C   0  0  0  0  0  0  0  0  0  0  0  0
  -23.6520  -23.3269   27.6584 C   0  0  0  0  0  0  0  0  0  0  0  0
  -23.5994   -5.4295   22.2550 C   0  0  0  0  0  0  0  0  0  0  0  0
  -24.2193   -4.4899   23.0786 C   0  0  0  0  0  0  0  0  0  0  0  0
  -22.8722  -24.4493   25.6706 C   0  0  0  0  0  0  0  0  0  0  0  0
  -28.6735  -18.6221   25.1585 C   0  0  0  0  0  0  0  0  0  0  0  0
  -27.5297  -19.2944   23.1394 C   0  0  0  0  0  0  0  0  0  0  0  0
  -22.4018   -4.6763   24.6594 C   0  0  0  0  0  0  0  0  0  0  0  0
  -23.8397  -10.4217   20.9771 C   0  0  0  0  0  0  0  0  0  0  0  0
  -24.0547  -12.9491   20.7061 C   0  0  0  0  0  0  0  0  0  0  0  0
  -17.5961  -25.7774   32.1043 C   0  0  0  0  0  0  0  0  0  0  0  0
  -22.6726  -25.5426   27.8210 C   0  0  0  0  0  0  0  0  0  0  0  0
  -18.1796  -25.3203   30.9073 C   0  0  0  0  0  0  0  0  0  0  0  0
  -22.4842  -25.5624   26.4317 C   0  0  0  0  0  0  0  0  0  0  0  0
  -29.4541  -17.8394   23.0102 C   0  0  0  0  0  0  0  0  0  0  0  0
  -27.6508  -19.3312   24.5285 C   0  0  0  0  0  0  0  0  0  0  0  0
  -22.4461   -8.0714   21.5397 C   0  0  0  0  0  0  0  0  0  0  0  0
  -23.4514  -23.3372   26.2812 C   0  0  0  0  0  0  0  0  0  0  0  0
  -22.3807   -5.9927   22.6337 C   0  0  0  0  0  0  0  0  0  0  0  0
  -23.6205   -4.1132   24.2808 C   0  0  0  0  0  0  0  0  0  0  0  0
  -21.7819   -5.6160   23.8358 C   0  0  0  0  0  0  0  0  0  0  0  0
  -29.5753  -17.8763   24.3993 C   0  0  0  0  0  0  0  0  0  0  0  0
  -28.4314  -18.5485   22.3802 C   0  0  0  0  0  0  0  0  0  0  0  0
  -24.5601  -11.6353   20.6870 C   0  0  0  0  0  0  0  0  0  0  0  0
  -25.1274  -13.7347   20.3614 C   0  0  0  0  0  0  0  0  0  0  0  0
  -22.7338  -13.4175   21.0084 C   0  0  0  0  0  0  0  0  0  0  0  0
  -19.8519  -26.9875   28.0653 C   0  0  0  0  0  0  0  0  0  0  0  0
  -21.2312  -29.1599   26.0904 C   0  0  0  0  0  0  0  0  0  0  0  0
  -25.6657  -20.8468   24.8386 C   0  0  0  0  0  0  0  0  0  0  0  0
  -23.6129  -29.8393   23.7425 C   0  0  0  0  0  0  0  0  0  0  0  0
  -30.5409  -14.9959   20.9813 C   0  0  0  0  0  0  0  0  0  0  0  0
  -16.8084  -27.0622   32.1628 C   0  0  0  0  0  0  0  0  0  0  0  0
  -22.2887  -26.7314   28.6588 C   0  0  0  0  0  0  0  0  0  0  0  0
  -21.8675  -26.7450   25.7319 C   0  0  0  0  0  0  0  0  0  0  0  0
  -17.0734  -27.9934   30.9825 C   0  0  0  0  0  0  0  0  0  0  0  0
  -29.6679  -12.5061   18.5240 C   0  0  0  0  0  0  0  0  0  0  0  0
  -17.0316  -27.2170   29.6702 C   0  0  0  0  0  0  0  0  0  0  0  0
  -28.2323  -12.1382   18.8972 C   0  0  0  0  0  0  0  0  0  0  0  0
  -30.4994  -12.8366   19.7593 C   0  0  0  0  0  0  0  0  0  0  0  0
  -28.4659  -13.5478   20.9907 C   0  0  0  0  0  0  0  0  0  0  0  0
  -18.1185  -26.1358   29.6340 C   0  0  1  0  0  0  0  0  0  0  0  0
  -21.2211  -27.6033   28.0052 C   0  0  1  0  0  0  0  0  0  0  0  0
  -27.5896  -13.2341   19.7658 C   0  0  2  0  0  0  0  0  0  0  0  0
  -24.4706  -31.6941   22.2859 C   0  0  0  0  0  0  0  0  0  0  0  0
  -18.8375  -28.8041   24.2320 C   0  0  0  0  0  0  0  0  0  0  0  0
  -20.1690  -29.9053   22.4201 C   0  0  0  0  0  0  0  0  0  0  0  0
  -19.6097  -31.1679   24.4975 C   0  0  0  0  0  0  0  0  0  0  0  0
  -26.2883  -29.7499   25.0047 C   0  0  0  0  0  0  0  0  0  0  0  0
  -30.4230  -17.0384   22.1949 C   0  0  0  0  0  0  0  0  0  0  0  0
  -24.9352  -21.5005   25.9969 C   0  0  0  0  0  0  0  0  0  1  0  0
  -21.3398  -29.3269   24.5939 C   0  0  1  0  0  0  0  0  0  0  0  0
  -24.6106  -30.9769   23.6196 C   0  0  2  0  0  0  0  0  0  0  0  0
  -19.9989  -29.7778   23.9490 C   0  0  0  0  0  0  0  0  0  0  0  0
  -25.8532  -11.5851   20.3563 N   0  0  0  0  0  0  0  0  0  0  0  0
  -26.1694  -12.8770   20.1642 N   0  0  0  0  0  0  0  0  0  0  0  0
  -21.5031  -27.8805   26.5952 N   0  0  0  0  0  0  0  0  0  0  0  0
  -29.8430  -13.8517   20.5824 N   0  0  0  0  0  0  0  0  0  0  0  0
  -25.2714  -15.0684   20.2107 N   0  0  0  0  0  0  0  0  0  0  0  0
  -21.7512  -12.4758   21.3431 N   0  0  0  0  0  0  0  0  0  0  0  0
  -26.7359  -20.0874   25.2990 N   0  0  0  0  0  0  0  0  0  0  0  0
  -19.4087  -26.7255   29.3477 N   0  0  0  0  0  0  0  0  0  0  0  0
  -22.4511  -30.2440   24.3652 N   0  0  0  0  0  0  0  0  0  0  0  0
  -26.0034  -30.4585   23.7304 N   0  3  0  0  0  0  0  0  0  0  0  0
  -22.4295  -14.6337   20.9664 O   0  0  0  0  0  0  0  0  0  0  0  0
  -19.2421  -26.7677   27.0254 O   0  0  0  0  0  0  0  0  0  0  0  0
  -20.9236  -30.1308   26.7864 O   0  0  0  0  0  0  0  0  0  0  0  0
  -25.3054  -21.0102   23.6775 O   0  0  0  0  0  0  0  0  0  0  0  0
  -23.8399  -28.7061   23.3243 O   0  0  0  0  0  0  0  0  0  0  0  0
  -31.7111  -15.2318   20.6860 O   0  0  0  0  0  0  0  0  0  0  0  0
  -21.7661   -6.9248   21.8146 O   0  0  0  0  0  0  0  0  0  0  0  0
  -23.8244  -22.2653   25.5303 O   0  0  0  0  0  0  0  0  0  1  0  0
  -29.7796  -15.8403   21.7452 O   0  0  0  0  0  0  0  0  0  0  0  0
  -24.2152   -3.2097   25.0708 F   0  0  0  0  0  0  0  0  0  0  0  0
  -20.6105   -6.1526   24.2043 F   0  0  0  0  0  0  0  0  0  0  0  0
  -30.8277  -17.0154   25.2197 Cl  0  0  0  0  0  0  0  0  0  0  0  0
  -28.2451  -18.5304   20.6633 Cl  0  0  0  0  0  0  0  0  0  0  0  0
  1  2  1  0  0  0  0
  1  5  2  0  0  0  0
  2  6  2  0  0  0  0
  3  8  2  0  0  0  0
  3 17  1  0  0  0  0
  4  9  1  0  0  0  0
  4 17  2  0  0  0  0
  5 19  1  0  0  0  0
  6 21  1  0  0  0  0
  7 10  2  0  0  0  0
  7 20  1  0  0  0  0
  8 25  1  0  0  0  0
  9 25  2  0  0  0  0
 10 26  1  0  0  0  0
 11 12  2  0  0  0  0
 11 27  1  0  0  0  0
 12 28  1  0  0  0  0
 13 22  1  0  0  0  0
 13 26  2  0  0  0  0
 14 24  1  0  0  0  0
 14 30  2  0  0  0  0
 15 24  2  0  0  0  0
 15 31  1  0  0  0  0
 16 28  2  0  0  0  0
 16 29  1  0  0  0  0
 17 32  1  0  0  0  0
 18 32  1  0  0  0  0
 18 33  2  0  0  0  0
 18 34  1  0  0  0  0
 19 21  2  0  0  0  0
 19 40  1  0  0  0  0
 20 22  2  0  0  0  0
 20 41  1  0  0  0  0
 21 49  1  0  0  0  0
 22 42  1  0  0  0  0
 23 30  1  0  0  0  0
 23 31  2  0  0  0  0
 23 57  1  0  0  0  0
 24 68  1  0  0  0  0
 25 78  1  0  0  0  0
 26 79  1  0  0  0  0
 27 29  2  0  0  0  0
 27 78  1  0  0  0  0
 28 81  1  0  0  0  0
 29 82  1  0  0  0  0
 30 83  1  0  0  0  0
 31 84  1  0  0  0  0
 32 62  2  0  0  0  0
 33 63  1  0  0  0  0
 33 66  1  0  0  0  0
 34 67  1  0  0  0  0
 34 72  2  0  0  0  0
 35 50  1  0  0  0  0
 35 69  1  0  0  0  0
 35 73  2  0  0  0  0
 36 59  1  0  0  0  0
 36 64  1  0  0  0  0
 36 74  2  0  0  0  0
 37 58  1  0  0  0  0
 37 68  1  0  0  0  0
 37 75  2  0  0  0  0
 38 60  1  0  0  0  0
 38 70  1  0  0  0  0
 38 76  2  0  0  0  0
 39 65  1  0  0  0  0
 39 77  2  0  0  0  0
 39 80  1  0  0  0  0
 40 43  1  0  0  0  0
 41 50  1  0  0  0  0
 42 64  1  0  0  0  0
 43 45  1  0  0  0  0
 44 46  1  0  0  0  0
 44 47  1  0  0  0  0
 45 49  1  0  0  0  0
 46 51  1  0  0  0  0
 47 65  1  0  0  0  0
 48 51  1  0  0  0  0
 48 65  1  0  0  0  0
 49 69  1  0  0  0  0
 50 64  1  0  0  0  0
 51 63  1  0  0  0  0
 52 60  1  0  0  0  0
 53 61  1  0  0  0  0
 54 61  1  0  0  0  0
 55 61  1  0  0  0  0
 56 71  1  0  0  0  0
 57 80  1  0  0  0  0
 58 79  1  0  0  0  0
 59 61  1  0  0  0  0
 59 70  1  0  0  0  0
 60 71  1  0  0  0  0
 62 63  1  0  0  0  0
M  CHG  1  71   1
M  ISO  4  39 100  58 101  79 101  80 100
M  END
> <Batch ID>
0054

> <Smiles>
CNC(C)C(=O)NC(C(=O)N1Cc2cc([101O:1][101CH2:1]C(=O)Nc3cc(Cl)c(C[100O:0][100C:0](=O)N4CCCC(n5nc(-c6ccc(Oc7ccc(F)cc7F)cc6)c(C(N)=O)c5N)C4)c(Cl)c3)ccc2CC1C(=O)NC1CCCc2ccccc21)C(C)(C)C

> <Shape>
0.228

> <Color>
0.206

> <Negative vol penalty>
0.000

$$$$

  -OEChem-04042322463D

 84 92  0     1  0  0  0  0  0999 V2000
  -24.1739  -31.3243   20.8227 C   0  0  0  0  0  0  0  0  0  0  0  0
  -23.3686  -30.2164   20.5788 C   0  0  0  0  0  0  0  0  0  0  0  0
  -22.8081  -11.8335   23.1680 C   0  0  0  0  0  0  0  0  0  0  0  0
  -28.2710  -19.8366   20.9441 C   0  0  0  0  0  0  0  0  0  0  0  0
  -30.0075  -19.3146   19.3476 C   0  0  0  0  0  0  0  0  0  0  0  0
  -25.5271  -31.1512   21.1106 C   0  0  0  0  0  0  0  0  0  0  0  0
  -23.9163  -28.9347   20.6216 C   0  0  0  0  0  0  0  0  0  0  0  0
  -22.2179  -22.1926   22.3468 C   0  0  0  0  0  0  0  0  0  0  0  0
  -23.5725  -11.3822   22.0921 C   0  0  0  0  0  0  0  0  0  0  0  0
  -28.1365  -21.1063   20.3827 C   0  0  0  0  0  0  0  0  0  0  0  0
  -29.8730  -20.5843   18.7861 C   0  0  0  0  0  0  0  0  0  0  0  0
  -22.2471  -20.9046   21.8140 C   0  0  0  0  0  0  0  0  0  0  0  0
  -30.8547  -23.7402   19.4987 C   0  0  0  0  0  0  0  0  0  0  0  0
  -32.0213  -24.4504   19.2155 C   0  0  0  0  0  0  0  0  0  0  0  0
  -22.1368  -13.0533   23.0836 C   0  0  0  0  0  0  0  0  0  0  0  0
  -24.5802  -20.7219   22.3995 C   0  0  0  0  0  0  0  0  0  0  0  0
  -22.9946  -13.3707   20.8474 C   0  0  0  0  0  0  0  0  0  0  0  0
  -31.4073  -24.5278   16.8801 C   0  0  0  0  0  0  0  0  0  0  0  0
  -29.2066  -18.9407   20.4266 C   0  0  0  0  0  0  0  0  0  0  0  0
  -29.6949  -17.3197   22.3349 C   0  0  0  0  0  0  0  0  0  0  0  0
  -26.0896  -29.8662   21.1664 C   0  0  0  0  0  0  0  0  0  0  0  0
  -23.3743  -22.7601   22.9010 C   0  0  0  0  0  0  0  0  0  0  0  0
  -25.2785  -28.7444   20.9092 C   0  0  0  0  0  0  0  0  0  0  0  0
  -24.5623  -22.0164   22.9409 C   0  0  0  0  0  0  0  0  0  0  0  0
  -23.6658  -12.1508   20.9318 C   0  0  0  0  0  0  0  0  0  0  0  0
  -28.9375  -21.4802   19.3037 C   0  0  0  0  0  0  0  0  0  0  0  0
  -23.4291  -20.1701   21.8377 C   0  0  0  0  0  0  0  0  0  0  0  0
  -29.9644  -23.4236   18.4725 C   0  0  0  0  0  0  0  0  0  0  0  0
  -32.2976  -24.8443   17.9062 C   0  0  0  0  0  0  0  0  0  0  0  0
  -30.2407  -23.8174   17.1633 C   0  0  0  0  0  0  0  0  0  0  0  0
  -22.2301  -13.8219   21.9234 C   0  0  0  0  0  0  0  0  0  0  0  0
  -29.3464  -17.6291   21.0065 C   0  0  0  0  0  0  0  0  0  0  0  0
  -29.6923  -15.9469   22.3797 C   0  0  0  0  0  0  0  0  0  0  0  0
  -29.9942  -18.1949   23.4304 C   0  0  0  0  0  0  0  0  0  0  0  0
  -25.1702  -25.2962   22.2326 C   0  0  0  0  0  0  0  0  0  0  0  0
  -26.6827  -24.4621   24.9783 C   0  0  0  0  0  0  0  0  0  0  0  0
  -27.4572  -22.0196   27.2325 C   0  0  0  0  0  0  0  0  0  0  0  0
  -26.8797  -11.7671   19.1440 C   0  0  0  0  0  0  0  0  0  0  0  0
  -27.5676  -29.7317   21.4349 C   0  0  0  0  0  0  0  0  0  0  0  0
  -23.3194  -24.1406   23.4956 C   0  0  0  0  0  0  0  0  0  0  0  0
  -25.8260  -22.5723   23.5429 C   0  0  0  0  0  0  0  0  0  0  0  0
  -27.9887  -28.3187   21.8303 C   0  0  0  0  0  0  0  0  0  0  0  0
  -30.3929  -12.1087   19.6106 C   0  0  0  0  0  0  0  0  0  0  0  0
  -27.3612  -27.2925   20.8923 C   0  0  0  0  0  0  0  0  0  0  0  0
  -30.5545  -13.5343   20.1411 C   0  0  0  0  0  0  0  0  0  0  0  0
  -29.2771  -12.0161   18.5721 C   0  0  0  0  0  0  0  0  0  0  0  0
  -28.1353  -13.9714   19.5451 C   0  0  0  0  0  0  0  0  0  0  0  0
  -25.8304  -27.3366   20.9710 C   0  0  1  0  0  0  0  0  0  0  0  0
  -24.6865  -24.8136   23.5708 C   0  0  1  0  0  0  0  0  0  0  0  0
  -29.2115  -14.1040   20.6362 C   0  0  2  0  0  0  0  0  0  0  0  0
  -28.7413  -21.6317   29.3533 C   0  0  0  0  0  0  0  0  0  0  0  0
  -29.2928  -24.4779   23.3980 C   0  0  0  0  0  0  0  0  0  0  0  0
  -30.3515  -23.1929   25.2678 C   0  0  0  0  0  0  0  0  0  0  0  0
  -29.4507  -25.4817   25.6832 C   0  0  0  0  0  0  0  0  0  0  0  0
  -25.0134  -21.2332   28.7051 C   0  0  0  0  0  0  0  0  0  0  0  0
  -24.4834  -11.6676   19.7818 C   0  0  0  0  0  0  0  0  0  0  0  0
  -23.8540  -16.5777   21.7356 C   0  0  0  0  0  0  0  0  0  0  0  0
  -24.3810  -17.9916   21.9014 C   0  0  0  0  0  0  0  0  0  1  0  0
  -27.8434  -23.5626   25.3287 C   0  0  1  0  0  0  0  0  0  0  0  0
  -27.3929  -21.9914   28.7489 C   0  0  2  0  0  0  0  0  0  0  0  0
  -29.2114  -24.1688   24.9063 C   0  0  0  0  0  0  0  0  0  0  0  0
  -29.1377  -16.5405   20.2613 N   0  0  0  0  0  0  0  0  0  0  0  0
  -29.3558  -15.5336   21.1243 N   0  0  0  0  0  0  0  0  0  0  0  0
  -25.7234  -23.9288   24.1059 N   0  0  0  0  0  0  0  0  0  0  0  0
  -28.0306  -12.5715   19.1048 N   0  0  0  0  0  0  0  0  0  0  0  0
  -29.9450  -15.0651   23.3702 N   0  0  0  0  0  0  0  0  0  0  0  0
  -28.9427  -18.6153   24.2563 N   0  0  0  0  0  0  0  0  0  0  0  0
  -25.3660  -26.6624   22.1644 N   0  0  0  0  0  0  0  0  0  0  0  0
  -27.7281  -23.2850   26.7563 N   0  0  0  0  0  0  0  0  0  0  0  0
  -25.7429  -12.3689   19.6697 N   0  0  0  0  0  0  0  0  0  0  0  0
  -22.5456  -16.4497   22.4175 N   0  0  0  0  0  0  0  0  0  0  0  0
  -26.3903  -20.9881   29.2062 N   0  3  0  0  0  0  0  0  0  0  0  0
  -31.1570  -18.6055   23.6600 O   0  0  0  0  0  0  0  0  0  0  0  0
  -25.3536  -24.4887   21.3293 O   0  0  0  0  0  0  0  0  0  0  0  0
  -26.6256  -25.5935   25.4664 O   0  0  0  0  0  0  0  0  0  0  0  0
  -27.2879  -21.0186   26.5398 O   0  0  0  0  0  0  0  0  0  0  0  0
  -26.8676  -10.5976   18.7453 O   0  0  0  0  0  0  0  0  0  0  0  0
  -21.1374  -15.6504   20.4158 O   0  0  0  0  0  0  0  0  0  0  0  0
  -20.2729  -15.3071   22.7523 O   0  0  0  0  0  0  0  0  0  0  0  0
  -28.8063  -22.7190   18.7554 O   0  0  0  0  0  0  0  0  0  0  0  0
  -23.4606  -18.9129   21.3179 O   0  0  0  0  0  0  0  0  0  1  0  0
  -33.4171  -25.5277   17.6347 F   0  0  0  0  0  0  0  0  0  0  0  0
  -29.3886  -23.5173   16.1735 F   0  0  0  0  0  0  0  0  0  0  0  0
  -21.3804  -15.3684   21.8177 S   0  0  0  0  0  0  0  0  0  0  0  0
  1  2  1  0  0  0  0
  1  6  2  0  0  0  0
  2  7  2  0  0  0  0
  3  9  1  0  0  0  0
  3 15  2  0  0  0  0
  4 10  2  0  0  0  0
  4 19  1  0  0  0  0
  5 11  1  0  0  0  0
  5 19  2  0  0  0  0
  6 21  1  0  0  0  0
  7 23  1  0  0  0  0
  8 12  2  0  0  0  0
  8 22  1  0  0  0  0
  9 25  2  0  0  0  0
 10 26  1  0  0  0  0
 11 26  2  0  0  0  0
 12 27  1  0  0  0  0
 13 14  2  0  0  0  0
 13 28  1  0  0  0  0
 14 29  1  0  0  0  0
 15 31  1  0  0  0  0
 16 24  1  0  0  0  0
 16 27  2  0  0  0  0
 17 25  1  0  0  0  0
 17 31  2  0  0  0  0
 18 29  2  0  0  0  0
 18 30  1  0  0  0  0
 19 32  1  0  0  0  0
 20 32  1  0  0  0  0
 20 33  2  0  0  0  0
 20 34  1  0  0  0  0
 21 23  2  0  0  0  0
 21 39  1  0  0  0  0
 22 24  2  0  0  0  0
 22 40  1  0  0  0  0
 23 48  1  0  0  0  0
 24 41  1  0  0  0  0
 25 56  1  0  0  0  0
 26 80  1  0  0  0  0
 27 81  1  0  0  0  0
 28 30  2  0  0  0  0
 28 80  1  0  0  0  0
 29 82  1  0  0  0  0
 30 83  1  0  0  0  0
 31 84  1  0  0  0  0
 32 62  2  0  0  0  0
 33 63  1  0  0  0  0
 33 66  1  0  0  0  0
 34 67  1  0  0  0  0
 34 73  2  0  0  0  0
 35 49  1  0  0  0  0
 35 68  1  0  0  0  0
 35 74  2  0  0  0  0
 36 59  1  0  0  0  0
 36 64  1  0  0  0  0
 36 75  2  0  0  0  0
 37 60  1  0  0  0  0
 37 69  1  0  0  0  0
 37 76  2  0  0  0  0
 38 65  1  0  0  0  0
 38 70  1  0  0  0  0
 38 77  2  0  0  0  0
 39 42  1  0  0  0  0
 40 49  1  0  0  0  0
 41 64  1  0  0  0  0
 42 44  1  0  0  0  0
 43 45  1  0  0  0  0
 43 46  1  0  0  0  0
 44 48  1  0  0  0  0
 45 50  1  0  0  0  0
 46 65  1  0  0  0  0
 47 50  1  0  0  0  0
 47 65  1  0  0  0  0
 48 68  1  0  0  0  0
 49 64  1  0  0  0  0
 50 63  1  0  0  0  0
 51 60  1  0  0  0  0
 52 61  1  0  0  0  0
 53 61  1  0  0  0  0
 54 61  1  0  0  0  0
 55 72  1  0  0  0  0
 56 70  1  0  0  0  0
 57 58  1  0  0  0  0
 57 71  1  0  0  0  0
 58 81  1  0  0  0  0
 59 61  1  0  0  0  0
 59 69  1  0  0  0  0
 60 72  1  0  0  0  0
 62 63  1  0  0  0  0
 71 84  1  0  0  0  0
 78 84  2  0  0  0  0
 79 84  2  0  0  0  0
M  CHG  1  72   1
M  ISO  4  38 100  58 101  70 100  81 101
M  END
> <Batch ID>
0054

> <Smiles>
CNC(C)C(=O)NC(C(=O)N1Cc2cc([101O:1][101CH2:1]CNS(=O)(=O)c3cccc(C[100NH:0][100C:0](=O)N4CCCC(n5nc(-c6ccc(Oc7ccc(F)cc7F)cc6)c(C(N)=O)c5N)C4)c3)ccc2CC1C(=O)NC1CCCc2ccccc21)C(C)(C)C

> <Shape>
0.220

> <Color>
0.057

> <Negative vol penalty>
0.000

$$$$

  -OEChem-04042322463D

 91100  0     1  0  0  0  0  0999 V2000
  -26.9715  -31.7760   23.9972 C   0  0  0  0  0  0  0  0  0  0  0  0
  -28.0937  -31.1685   23.4431 C   0  0  0  0  0  0  0  0  0  0  0  0
  -23.6591  -12.3284   20.5654 C   0  0  0  0  0  0  0  0  0  0  0  0
  -24.8442  -14.4219   20.3432 C   0  0  0  0  0  0  0  0  0  0  0  0
  -16.8806  -22.2669   24.2306 C   0  0  0  0  0  0  0  0  0  0  0  0
  -18.3511  -21.6116   22.4291 C   0  0  0  0  0  0  0  0  0  0  0  0
  -25.9779  -30.9960   24.5875 C   0  0  0  0  0  0  0  0  0  0  0  0
  -28.2235  -29.7806   23.4799 C   0  0  0  0  0  0  0  0  0  0  0  0
  -24.2108  -24.7147   21.5715 C   0  0  0  0  0  0  0  0  0  0  0  0
  -16.9946  -20.9929   24.7870 C   0  0  0  0  0  0  0  0  0  0  0  0
  -18.4651  -20.3376   22.9855 C   0  0  0  0  0  0  0  0  0  0  0  0
  -24.8625  -11.6753   20.8314 C   0  0  0  0  0  0  0  0  0  0  0  0
  -26.0477  -13.7689   20.6092 C   0  0  0  0  0  0  0  0  0  0  0  0
  -22.9757  -25.3020   21.8427 C   0  0  0  0  0  0  0  0  0  0  0  0
  -28.2517  -11.8274   18.9347 C   0  0  0  0  0  0  0  0  0  0  0  0
  -29.3456  -12.1285   18.1233 C   0  0  0  0  0  0  0  0  0  0  0  0
  -23.8126  -27.4177   21.0409 C   0  0  0  0  0  0  0  0  0  0  0  0
  -30.5718  -12.8923   20.0597 C   0  0  0  0  0  0  0  0  0  0  0  0
  -23.6499  -13.7017   20.3213 C   0  0  0  0  0  0  0  0  0  0  0  0
  -17.5588  -22.5762   23.0516 C   0  0  0  0  0  0  0  0  0  0  0  0
  -21.5176  -14.1209   18.9852 C   0  0  0  0  0  0  0  0  0  0  0  0
  -26.0910  -29.5972   24.6229 C   0  0  0  0  0  0  0  0  0  0  0  0
  -25.2612  -25.4783   21.0423 C   0  0  0  0  0  0  0  0  0  0  0  0
  -27.2311  -28.9812   24.0723 C   0  0  0  0  0  0  0  0  0  0  0  0
  -25.0591  -26.8371   20.7615 C   0  0  0  0  0  0  0  0  0  0  0  0
  -17.7868  -20.0283   24.1645 C   0  0  0  0  0  0  0  0  0  0  0  0
  -26.0569  -12.3955   20.8533 C   0  0  0  0  0  0  0  0  0  0  0  0
  -22.7774  -26.6543   21.5801 C   0  0  0  0  0  0  0  0  0  0  0  0
  -28.3179  -12.0588   20.3087 C   0  0  0  0  0  0  0  0  0  0  0  0
  -30.5056  -12.6609   18.6858 C   0  0  0  0  0  0  0  0  0  0  0  0
  -29.4780  -12.5912   20.8712 C   0  0  0  0  0  0  0  0  0  0  0  0
  -22.4071  -14.3768   20.0459 C   0  0  0  0  0  0  0  0  0  0  0  0
  -20.4981  -15.0232   19.1669 C   0  0  0  0  0  0  0  0  0  0  0  0
  -19.2953  -28.1526   23.6371 C   0  0  0  0  0  0  0  0  0  0  0  0
  -17.6195  -30.5381   23.3471 C   0  0  0  0  0  0  0  0  0  0  0  0
  -17.4399  -23.9209   22.4642 C   0  0  0  0  0  0  0  0  0  0  0  0
  -18.6845  -30.4433   24.1529 C   0  0  0  0  0  0  0  0  0  0  0  0
  -16.7101  -24.9255   22.9736 C   0  0  0  0  0  0  0  0  0  0  0  0
  -21.6050  -13.1541   17.9301 C   0  0  0  0  0  0  0  0  0  0  0  0
  -19.5414  -29.2779   24.3249 C   0  0  0  0  0  0  0  0  0  0  0  0
  -28.1734  -26.2785   22.0333 C   0  0  0  0  0  0  0  0  0  0  0  0
  -28.4087  -27.5593   19.0624 C   0  0  0  0  0  0  0  0  0  0  0  0
  -29.6828  -25.2531   16.8932 C   0  0  0  0  0  0  0  0  0  0  0  0
  -18.6475  -17.6541   24.2472 C   0  0  0  0  0  0  0  0  0  0  0  0
  -25.0138  -28.7991   25.3137 C   0  0  0  0  0  0  0  0  0  0  0  0
  -26.5790  -24.8237   20.7304 C   0  0  0  0  0  0  0  0  0  0  0  0
  -26.1482  -27.6960   20.1744 C   0  0  0  0  0  0  0  0  0  0  0  0
  -20.1395  -26.9109   23.7657 C   0  0  0  0  0  0  0  0  0  0  0  0
  -25.0490  -27.3102   24.9784 C   0  0  0  0  0  0  0  0  0  0  0  0
  -20.4097  -19.3659   21.2996 C   0  0  0  0  0  0  0  0  0  0  0  0
  -26.4741  -26.7749   25.0748 C   0  0  0  0  0  0  0  0  0  0  0  0
  -20.3662  -18.2277   20.2826 C   0  0  0  0  0  0  0  0  0  0  0  0
  -19.3764  -26.3484   21.4203 C   0  0  0  0  0  0  0  0  0  0  0  0
  -19.3272  -19.2317   22.3632 C   0  0  0  0  0  0  0  0  0  0  0  0
  -20.1804  -16.8820   22.4471 C   0  0  0  0  0  0  0  0  0  0  0  0
  -18.6412  -27.6860   21.3487 C   0  0  0  0  0  0  0  0  0  0  0  0
  -27.3962  -27.4769   24.0706 C   0  0  1  0  0  0  0  0  0  0  0  0
  -27.7387  -25.8133   20.6723 C   0  0  1  0  0  0  0  0  0  0  0  0
  -20.0322  -16.8634   20.9177 C   0  0  2  0  0  0  0  0  0  0  0  0
  -20.5570  -26.3898   22.3904 C   0  0  1  0  0  0  0  0  0  1  0  0
  -20.7014  -29.3523   25.2803 C   0  0  0  0  0  0  0  0  0  0  0  0
  -27.6095  -23.9151   16.4364 C   0  0  0  0  0  0  0  0  0  0  0  0
  -31.8159  -27.0869   20.2611 C   0  0  0  0  0  0  0  0  0  0  0  0
  -30.5149  -24.9584   20.4733 C   0  0  0  0  0  0  0  0  0  0  0  0
  -29.5810  -27.0849   21.3835 C   0  0  0  0  0  0  0  0  0  0  0  0
  -30.4441  -21.8111   16.4572 C   0  0  0  0  0  0  0  0  0  0  0  0
  -16.6106  -26.2823   22.3328 C   0  0  0  0  0  0  0  0  0  0  0  0
  -17.0169  -27.4092   23.2749 C   0  0  0  0  0  0  0  0  0  0  0  0
  -29.6623  -26.7380   18.8805 C   0  0  1  0  0  0  0  0  0  0  0  0
  -29.1293  -23.9336   16.3863 C   0  0  2  0  0  0  0  0  0  0  0  0
  -30.4003  -26.4774   20.2239 C   0  0  0  0  0  0  0  0  0  0  0  0
  -21.9895  -15.3644   20.8423 N   0  0  0  0  0  0  0  0  0  0  0  0
  -20.8264  -15.7371   20.2817 N   0  0  0  0  0  0  0  0  0  0  0  0
  -27.4208  -27.0114   19.8929 N   0  0  0  0  0  0  0  0  0  0  0  0
  -19.3491  -17.9312   23.0484 N   0  0  0  0  0  0  0  0  0  0  0  0
  -19.3619  -15.2678   18.4801 N   0  0  0  0  0  0  0  0  0  0  0  0
  -22.2450  -13.5214   16.7386 N   0  0  0  0  0  0  0  0  0  0  0  0
  -17.9044  -18.7343   24.7307 N   0  0  0  0  0  0  0  0  0  0  0  0
  -27.1915  -26.9464   22.7398 N   0  0  0  0  0  0  0  0  0  0  0  0
  -29.2577  -25.5261   18.1762 N   0  0  0  0  0  0  0  0  0  0  0  0
  -18.1907  -28.1607   22.7103 N   0  3  1  0  0  0  0  0  0  0  0  0
  -29.6407  -22.8050   17.2145 N   0  3  0  0  0  0  0  0  0  0  0  0
  -21.1151  -12.0040   18.0346 O   0  0  0  0  0  0  0  0  0  0  0  0
  -29.3148  -26.0472   22.4148 O   0  0  0  0  0  0  0  0  0  0  0  0
  -28.3127  -28.6500   18.4944 O   0  0  0  0  0  0  0  0  0  0  0  0
  -30.4215  -25.9683   16.2199 O   0  0  0  0  0  0  0  0  0  0  0  0
  -18.6968  -16.5460   24.7853 O   0  0  0  0  0  0  0  0  0  0  0  0
  -27.2314  -11.7586   21.1130 O   0  0  0  0  0  0  0  0  0  0  0  0
  -21.5731  -27.2302   21.8445 O   0  0  0  0  0  0  0  0  0  1  0  0
  -31.5565  -12.9486   17.9066 F   0  0  0  0  0  0  0  0  0  0  0  0
  -29.5479  -12.8146   22.1907 F   0  0  0  0  0  0  0  0  0  0  0  0
  1  2  1  0  0  0  0
  1  7  2  0  0  0  0
  2  8  2  0  0  0  0
  3 12  2  0  0  0  0
  3 19  1  0  0  0  0
  4 13  1  0  0  0  0
  4 19  2  0  0  0  0
  5 10  2  0  0  0  0
  5 20  1  0  0  0  0
  6 11  1  0  0  0  0
  6 20  2  0  0  0  0
  7 22  1  0  0  0  0
  8 24  1  0  0  0  0
  9 14  2  0  0  0  0
  9 23  1  0  0  0  0
 10 26  1  0  0  0  0
 11 26  2  0  0  0  0
 12 27  1  0  0  0  0
 13 27  2  0  0  0  0
 14 28  1  0  0  0  0
 15 16  2  0  0  0  0
 15 29  1  0  0  0  0
 16 30  1  0  0  0  0
 17 25  1  0  0  0  0
 17 28  2  0  0  0  0
 18 30  2  0  0  0  0
 18 31  1  0  0  0  0
 19 32  1  0  0  0  0
 20 36  1  0  0  0  0
 21 32  1  0  0  0  0
 21 33  2  0  0  0  0
 21 39  1  0  0  0  0
 22 24  2  0  0  0  0
 22 45  1  0  0  0  0
 23 25  2  0  0  0  0
 23 46  1  0  0  0  0
 24 57  1  0  0  0  0
 25 47  1  0  0  0  0
 26 78  1  0  0  0  0
 27 88  1  0  0  0  0
 28 89  1  0  0  0  0
 29 31  2  0  0  0  0
 29 88  1  0  0  0  0
 30 90  1  0  0  0  0
 31 91  1  0  0  0  0
 32 72  2  0  0  0  0
 33 73  1  0  0  0  0
 33 76  1  0  0  0  0
 34 40  2  0  0  0  0
 34 48  1  0  0  0  0
 34 81  1  0  0  0  0
 35 37  2  0  0  0  0
 36 38  2  0  0  0  0
 37 40  1  0  0  0  0
 38 67  1  0  0  0  0
 39 77  1  0  0  0  0
 39 83  2  0  0  0  0
 40 61  1  0  0  0  0
 41 58  1  0  0  0  0
 41 79  1  0  0  0  0
 41 84  2  0  0  0  0
 42 69  1  0  0  0  0
 42 74  1  0  0  0  0
 42 85  2  0  0  0  0
 43 70  1  0  0  0  0
 43 80  1  0  0  0  0
 43 86  2  0  0  0  0
 44 75  1  0  0  0  0
 44 78  1  0  0  0  0
 44 87  2  0  0  0  0
 45 49  1  0  0  0  0
 46 58  1  0  0  0  0
 47 74  1  0  0  0  0
 48 60  1  0  0  0  0
 49 51  1  0  0  0  0
 50 52  1  0  0  0  0
 50 54  1  0  0  0  0
 51 57  1  0  0  0  0
 52 59  1  0  0  0  0
 53 56  1  0  0  0  0
 53 60  1  0  0  0  0
 54 75  1  0  0  0  0
 55 59  1  0  0  0  0
 55 75  1  0  0  0  0
 56 81  1  0  0  0  0
 57 79  1  0  0  0  0
 58 74  1  0  0  0  0
 59 73  1  0  0  0  0
 60 89  1  0  0  0  0
 62 70  1  0  0  0  0
 63 71  1  0  0  0  0
 64 71  1  0  0  0  0
 65 71  1  0  0  0  0
 66 82  1  0  0  0  0
 67 68  1  0  0  0  0
 68 81  1  0  0  0  0
 69 71  1  0  0  0  0
 69 80  1  0  0  0  0
 70 82  1  0  0  0  0
 72 73  1  0  0  0  0
M  CHG  2  81   1  82   1
M  ISO  4  44 100  60 101  78 100  89 101
M  END
> <Batch ID>
0054

> <Smiles>
C=CC(C)=C1C[101CH:1]([101O:1]c2ccc3c(c2)CN(C(=O)C(NC(=O)C(C)NC)C(C)(C)C)C(C(=O)NC2CCCc4ccccc42)C3)CCN1CCC=Cc1ccc([100NH:0][100C:0](=O)N2CCCC(n3nc(-c4ccc(Oc5ccc(F)cc5F)cc4)c(C(N)=O)c3N)C2)cc1

> <Shape>
0.252

> <Color>
0.052

> <Negative vol penalty>
0.000

$$$$

  -OEChem-04042322463D

 85 93  0     1  0  0  0  0  0999 V2000
  -22.2223  -29.7085   29.7105 C   0  0  0  0  0  0  0  0  0  0  0  0
  -23.0834  -30.0986   28.6899 C   0  0  0  0  0  0  0  0  0  0  0  0
  -31.0248  -23.6175   17.4772 C   0  0  0  0  0  0  0  0  0  0  0  0
  -26.7916  -12.9149   21.1070 C   0  0  0  0  0  0  0  0  0  0  0  0
  -26.5183  -13.4460   18.7660 C   0  0  0  0  0  0  0  0  0  0  0  0
  -30.6993  -24.9439   17.7605 C   0  0  0  0  0  0  0  0  0  0  0  0
  -21.6348  -28.4444   29.6803 C   0  0  0  0  0  0  0  0  0  0  0  0
  -23.3584  -29.2244   27.6389 C   0  0  0  0  0  0  0  0  0  0  0  0
  -24.3595  -30.7080   21.7821 C   0  0  0  0  0  0  0  0  0  0  0  0
  -30.2114  -22.5848   17.9440 C   0  0  0  0  0  0  0  0  0  0  0  0
  -26.1997  -11.6701   20.8938 C   0  0  0  0  0  0  0  0  0  0  0  0
  -25.9264  -12.2011   18.5527 C   0  0  0  0  0  0  0  0  0  0  0  0
  -25.5302  -30.8697   21.0424 C   0  0  0  0  0  0  0  0  0  0  0  0
  -23.0789  -10.4284   20.5156 C   0  0  0  0  0  0  0  0  0  0  0  0
  -22.1174  -10.0031   21.4323 C   0  0  0  0  0  0  0  0  0  0  0  0
  -28.7473  -24.2051   18.9775 C   0  0  0  0  0  0  0  0  0  0  0  0
  -25.3322  -28.6018   20.2446 C   0  0  0  0  0  0  0  0  0  0  0  0
  -23.4697   -8.0702   21.9539 C   0  0  0  0  0  0  0  0  0  0  0  0
  -26.9508  -13.8030   20.0431 C   0  0  0  0  0  0  0  0  0  0  0  0
  -29.5606  -25.2377   18.5106 C   0  0  0  0  0  0  0  0  0  0  0  0
  -28.9304  -15.4066   20.1749 C   0  0  0  0  0  0  0  0  0  0  0  0
  -21.8952  -27.5579   28.6235 C   0  0  0  0  0  0  0  0  0  0  0  0
  -23.6712  -29.4863   21.7672 C   0  0  0  0  0  0  0  0  0  0  0  0
  -22.7749  -27.9467   27.5953 C   0  0  0  0  0  0  0  0  0  0  0  0
  -24.1517  -28.4279   20.9830 C   0  0  0  0  0  0  0  0  0  0  0  0
  -29.0728  -22.8786   18.6941 C   0  0  0  0  0  0  0  0  0  0  0  0
  -25.7671  -11.3131   19.6166 C   0  0  0  0  0  0  0  0  0  0  0  0
  -26.0183  -29.8156   20.2758 C   0  0  0  0  0  0  0  0  0  0  0  0
  -24.2357   -9.6744   20.3180 C   0  0  0  0  0  0  0  0  0  0  0  0
  -22.3128   -8.8241   22.1515 C   0  0  0  0  0  0  0  0  0  0  0  0
  -24.4311   -8.4954   21.0372 C   0  0  0  0  0  0  0  0  0  0  0  0
  -27.5617  -15.0893   20.2629 C   0  0  0  0  0  0  0  0  0  0  0  0
  -28.9920  -16.7464   20.4708 C   0  0  0  0  0  0  0  0  0  0  0  0
  -27.0921  -29.8100   18.1979 C   0  0  0  0  0  0  0  0  0  1  0  0
  -29.2152  -26.6510   18.8115 C   0  0  0  0  0  0  0  0  0  0  0  0
  -30.0463  -14.5655   19.8542 C   0  0  0  0  0  0  0  0  0  0  0  0
  -28.1017  -29.3652   17.4314 C   0  0  0  0  0  0  0  0  0  0  0  0
  -22.9147  -27.3111   23.9580 C   0  0  0  0  0  0  0  0  0  0  0  0
  -21.2544  -25.9865   21.5062 C   0  0  0  0  0  0  0  0  0  0  0  0
  -20.8545  -25.6317   18.1356 C   0  0  0  0  0  0  0  0  0  0  0  0
  -27.0816  -21.9480   19.9252 C   0  0  0  0  0  0  0  0  0  0  0  0
  -21.2738  -26.1841   28.6586 C   0  0  0  0  0  0  0  0  0  0  0  0
  -22.3953  -29.3366   22.5496 C   0  0  0  0  0  0  0  0  0  0  0  0
  -23.4390  -27.1027   20.9170 C   0  0  0  0  0  0  0  0  0  0  0  0
  -21.3237  -25.4585   27.3164 C   0  0  0  0  0  0  0  0  0  0  0  0
  -25.4737  -19.8739   22.3315 C   0  0  0  0  0  0  0  0  0  0  0  0
  -22.7143  -25.5718   26.6998 C   0  0  0  0  0  0  0  0  0  0  0  0
  -25.9862  -18.4704   22.0006 C   0  0  0  0  0  0  0  0  0  0  0  0
  -25.2571  -20.7103   21.0716 C   0  0  0  0  0  0  0  0  0  0  0  0
  -26.9262  -19.3820   19.8391 C   0  0  0  0  0  0  0  0  0  0  0  0
  -23.0785  -27.0359   26.4255 C   0  0  1  0  0  0  0  0  0  0  0  0
  -22.0556  -27.8834   22.8662 C   0  0  1  0  0  0  0  0  0  0  0  0
  -27.2212  -18.5238   21.0801 C   0  0  2  0  0  0  0  0  0  0  0  0
  -27.9651  -29.2089   15.9393 C   0  0  0  0  0  0  0  0  0  0  0  0
  -30.5992  -29.8233   17.5170 C   0  0  0  0  0  0  0  0  0  0  0  0
  -19.4352  -24.4547   16.4334 C   0  0  0  0  0  0  0  0  0  0  0  0
  -22.7392  -23.3819   22.0728 C   0  0  0  0  0  0  0  0  0  0  0  0
  -22.0183  -22.5620   19.8198 C   0  0  0  0  0  0  0  0  0  0  0  0
  -20.3086  -23.1053   21.5532 C   0  0  0  0  0  0  0  0  0  0  0  0
  -19.9085  -28.1893   16.9855 C   0  0  0  0  0  0  0  0  0  0  0  0
  -29.4320  -29.0071   18.0648 C   0  0  2  0  0  0  0  0  0  0  0  0
  -21.5670  -24.9838   20.4219 C   0  0  1  0  0  0  0  0  0  0  0  0
  -19.6233  -25.7223   17.2523 C   0  0  2  0  0  0  0  0  0  0  0  0
  -21.6730  -23.5325   20.9695 C   0  0  0  0  0  0  0  0  0  0  0  0
  -26.8081  -16.1427   20.5894 N   0  0  0  0  0  0  0  0  0  0  0  0
  -27.7065  -17.1350   20.7091 N   0  0  0  0  0  0  0  0  0  0  0  0
  -22.1990  -27.0035   21.7045 N   0  0  0  0  0  0  0  0  0  0  0  0
  -26.4699  -20.7189   20.2508 N   0  0  0  0  0  0  0  0  0  0  0  0
  -30.0198  -17.6183   20.5478 N   0  0  0  0  0  0  0  0  0  0  0  0
  -29.8055  -13.2130   19.5763 N   0  0  0  0  0  0  0  0  0  0  0  0
  -28.2466  -21.8295   19.1679 N   0  0  0  0  0  0  0  0  0  0  0  0
  -29.6662  -27.5928   17.8988 N   0  0  0  0  0  0  0  0  0  0  0  0
  -22.4123  -27.5072   25.2303 N   0  0  0  0  0  0  0  0  0  0  0  0
  -20.5463  -25.1618   19.3948 N   0  0  0  0  0  0  0  0  0  0  0  0
  -19.7422  -26.8743   16.3145 N   0  3  0  0  0  0  0  0  0  0  0  0
  -28.5846  -26.9101   19.8332 O   0  0  0  0  0  0  0  0  0  0  0  0
  -31.2241  -14.9966   19.8314 O   0  0  0  0  0  0  0  0  0  0  0  0
  -23.9555  -26.7331   23.6677 O   0  0  0  0  0  0  0  0  0  0  0  0
  -20.2072  -25.8758   22.1486 O   0  0  0  0  0  0  0  0  0  0  0  0
  -21.9780  -25.9429   17.7463 O   0  0  0  0  0  0  0  0  0  0  0  0
  -26.6220  -23.0247   20.3142 O   0  0  0  0  0  0  0  0  0  0  0  0
  -25.1897  -10.0983   19.4081 O   0  0  0  0  0  0  0  0  0  0  0  0
  -27.1610  -29.9706   19.5533 O   0  0  0  0  0  0  0  0  0  1  0  0
  -21.3901   -8.4167   23.0329 F   0  0  0  0  0  0  0  0  0  0  0  0
  -25.5410   -7.7675   20.8525 F   0  0  0  0  0  0  0  0  0  0  0  0
  1  2  1  0  0  0  0
  1  7  2  0  0  0  0
  2  8  2  0  0  0  0
  3  6  2  0  0  0  0
  3 10  1  0  0  0  0
  4 11  2  0  0  0  0
  4 19  1  0  0  0  0
  5 12  1  0  0  0  0
  5 19  2  0  0  0  0
  6 20  1  0  0  0  0
  7 22  1  0  0  0  0
  8 24  1  0  0  0  0
  9 13  2  0  0  0  0
  9 23  1  0  0  0  0
 10 26  2  0  0  0  0
 11 27  1  0  0  0  0
 12 27  2  0  0  0  0
 13 28  1  0  0  0  0
 14 15  2  0  0  0  0
 14 29  1  0  0  0  0
 15 30  1  0  0  0  0
 16 20  2  0  0  0  0
 16 26  1  0  0  0  0
 17 25  1  0  0  0  0
 17 28  2  0  0  0  0
 18 30  2  0  0  0  0
 18 31  1  0  0  0  0
 19 32  1  0  0  0  0
 20 35  1  0  0  0  0
 21 32  1  0  0  0  0
 21 33  2  0  0  0  0
 21 36  1  0  0  0  0
 22 24  2  0  0  0  0
 22 42  1  0  0  0  0
 23 25  2  0  0  0  0
 23 43  1  0  0  0  0
 24 51  1  0  0  0  0
 25 44  1  0  0  0  0
 26 71  1  0  0  0  0
 27 82  1  0  0  0  0
 28 83  1  0  0  0  0
 29 31  2  0  0  0  0
 29 82  1  0  0  0  0
 30 84  1  0  0  0  0
 31 85  1  0  0  0  0
 32 65  2  0  0  0  0
 33 66  1  0  0  0  0
 33 69  1  0  0  0  0
 34 37  2  0  0  0  0
 34 83  1  0  0  0  0
 35 72  1  0  0  0  0
 35 76  2  0  0  0  0
 36 70  1  0  0  0  0
 36 77  2  0  0  0  0
 37 54  1  0  0  0  0
 37 61  1  0  0  0  0
 38 52  1  0  0  0  0
 38 73  1  0  0  0  0
 38 78  2  0  0  0  0
 39 62  1  0  0  0  0
 39 67  1  0  0  0  0
 39 79  2  0  0  0  0
 40 63  1  0  0  0  0
 40 74  1  0  0  0  0
 40 80  2  0  0  0  0
 41 68  1  0  0  0  0
 41 71  1  0  0  0  0
 41 81  2  0  0  0  0
 42 45  1  0  0  0  0
 43 52  1  0  0  0  0
 44 67  1  0  0  0  0
 45 47  1  0  0  0  0
 46 48  1  0  0  0  0
 46 49  1  0  0  0  0
 47 51  1  0  0  0  0
 48 53  1  0  0  0  0
 49 68  1  0  0  0  0
 50 53  1  0  0  0  0
 50 68  1  0  0  0  0
 51 73  1  0  0  0  0
 52 67  1  0  0  0  0
 53 66  1  0  0  0  0
 55 61  1  0  0  0  0
 56 63  1  0  0  0  0
 57 64  1  0  0  0  0
 58 64  1  0  0  0  0
 59 64  1  0  0  0  0
 60 75  1  0  0  0  0
 61 72  1  0  0  0  0
 62 64  1  0  0  0  0
 62 74  1  0  0  0  0
 63 75  1  0  0  0  0
 65 66  1  0  0  0  0
M  CHG  1  75   1
M  ISO  4  34 101  41 100  71 100  83 101
M  END
> <Batch ID>
0054

> <Smiles>
CNC(C)C(=O)NC(C(=O)N1Cc2cc([101O:1][101CH:1]=C(C)C(C)NC(=O)c3cccc([100NH:0][100C:0](=O)N4CCCC(n5nc(-c6ccc(Oc7ccc(F)cc7F)cc6)c(C(N)=O)c5N)C4)c3)ccc2CC1C(=O)NC1CCCc2ccccc21)C(C)(C)C

> <Shape>
0.215

> <Color>
0.079

> <Negative vol penalty>
0.000

$$$$

  -OEChem-04042322463D

 86 95  0     1  0  0  0  0  0999 V2000
  -29.8912  -35.7853   23.9442 C   0  0  0  0  0  0  0  0  0  0  0  0
  -30.0287  -34.5638   23.2926 C   0  0  0  0  0  0  0  0  0  0  0  0
  -24.7309   -8.9609   21.7782 C   0  0  0  0  0  0  0  0  0  0  0  0
  -23.1742  -10.7720   22.1438 C   0  0  0  0  0  0  0  0  0  0  0  0
  -28.8448  -35.9797   24.8448 C   0  0  0  0  0  0  0  0  0  0  0  0
  -29.1203  -33.5357   23.5421 C   0  0  0  0  0  0  0  0  0  0  0  0
  -27.0881  -29.3674   19.5419 C   0  0  0  0  0  0  0  0  0  0  0  0
  -26.0080  -19.5258   16.2527 C   0  0  0  0  0  0  0  0  0  0  0  0
  -26.6005  -20.7129   16.6829 C   0  0  0  0  0  0  0  0  0  0  0  0
  -24.0067   -8.1602   22.6613 C   0  0  0  0  0  0  0  0  0  0  0  0
  -22.4500   -9.9713   23.0269 C   0  0  0  0  0  0  0  0  0  0  0  0
  -27.4598  -28.0469   19.2930 C   0  0  0  0  0  0  0  0  0  0  0  0
  -21.1658   -6.3275   22.6041 C   0  0  0  0  0  0  0  0  0  0  0  0
  -20.8998   -5.0137   22.2185 C   0  0  0  0  0  0  0  0  0  0  0  0
  -25.6730  -27.2811   20.7214 C   0  0  0  0  0  0  0  0  0  0  0  0
  -29.6253  -23.3165   18.9541 C   0  0  0  0  0  0  0  0  0  0  0  0
  -27.9063  -19.4765   18.2963 C   0  0  0  0  0  0  0  0  0  0  0  0
  -22.0951   -4.2032   24.1553 C   0  0  0  0  0  0  0  0  0  0  0  0
  -24.3147  -10.2669   21.5194 C   0  0  0  0  0  0  0  0  0  0  0  0
  -24.8743  -11.2138   19.2177 C   0  0  0  0  0  0  0  0  0  0  0  0
  -27.9175  -34.9567   25.0982 C   0  0  0  0  0  0  0  0  0  0  0  0
  -26.0111  -29.6554   20.3925 C   0  0  0  0  0  0  0  0  0  0  0  0
  -28.0613  -33.7161   24.4480 C   0  0  0  0  0  0  0  0  0  0  0  0
  -25.2881  -28.6060   20.9774 C   0  0  0  0  0  0  0  0  0  0  0  0
  -26.3646  -18.3139   16.8443 C   0  0  0  0  0  0  0  0  0  0  0  0
  -28.4478  -24.0267   18.6136 C   0  0  0  0  0  0  0  0  0  0  0  0
  -27.5497  -20.6883   17.7047 C   0  0  0  0  0  0  0  0  0  0  0  0
  -27.3138  -18.2893   17.8661 C   0  0  0  0  0  0  0  0  0  0  0  0
  -22.8662   -8.6653   23.2856 C   0  0  0  0  0  0  0  0  0  0  0  0
  -26.7540  -27.0036   19.8851 C   0  0  0  0  0  0  0  0  0  0  0  0
  -21.8966   -6.5792   23.7653 C   0  0  0  0  0  0  0  0  0  0  0  0
  -21.3644   -3.9515   22.9941 C   0  0  0  0  0  0  0  0  0  0  0  0
  -22.3612   -5.5170   24.5409 C   0  0  0  0  0  0  0  0  0  0  0  0
  -25.0627  -11.0948   20.6077 C   0  0  0  0  0  0  0  0  0  0  0  0
  -25.8292  -12.1164   18.8178 C   0  0  0  0  0  0  0  0  0  0  0  0
  -29.4091  -21.9909   18.6483 C   0  0  0  0  0  0  0  0  0  0  0  0
  -27.5477  -23.1136   18.1103 C   0  0  0  0  0  0  0  0  0  0  0  0
  -23.9213  -10.5663   18.3643 C   0  0  0  0  0  0  0  0  0  0  0  0
  -25.6807  -31.2078   23.1465 C   0  0  0  0  0  0  0  0  0  0  0  0
  -22.5242  -30.6796   22.6174 C   0  0  0  0  0  0  0  0  0  0  0  0
  -20.1164  -28.7980   21.0979 C   0  0  0  0  0  0  0  0  0  0  0  0
  -28.6133  -16.8888   19.5081 C   0  0  0  0  0  0  0  0  0  0  0  0
  -26.8306  -35.1977   26.1156 C   0  0  0  0  0  0  0  0  0  0  0  0
  -25.6060  -31.0845   20.6296 C   0  0  0  0  0  0  0  0  0  0  0  0
  -24.1114  -28.8615   21.8822 C   0  0  0  0  0  0  0  0  0  0  0  0
  -25.6918  -34.1838   26.0422 C   0  0  0  0  0  0  0  0  0  0  0  0
  -29.7826  -14.0531   21.3161 C   0  0  0  0  0  0  0  0  0  0  0  0
  -26.2452  -32.7656   25.9459 C   0  0  0  0  0  0  0  0  0  0  0  0
  -28.6434  -13.0405   21.1786 C   0  0  0  0  0  0  0  0  0  0  0  0
  -29.2584  -15.4816   21.4520 C   0  0  0  0  0  0  0  0  0  0  0  0
  -27.1830  -14.8892   20.2641 C   0  0  0  0  0  0  0  0  0  0  0  0
  -27.0817  -32.5850   24.6735 C   0  0  1  0  0  0  0  0  0  0  0  0
  -24.8152  -31.2751   21.9201 C   0  0  1  0  0  0  0  0  0  0  0  0
  -27.6634  -13.4432   20.0593 C   0  0  2  0  0  0  0  0  0  0  0  0
  -25.7142  -17.0575   16.3632 C   0  0  0  0  0  0  0  0  0  0  0  0
  -17.6251  -28.5859   20.8841 C   0  0  0  0  0  0  0  0  0  0  0  0
  -22.3934  -29.4381   25.4016 C   0  0  0  0  0  0  0  0  0  0  0  0
  -20.1973  -28.4170   24.7670 C   0  0  0  0  0  0  0  0  0  0  0  0
  -20.4487  -30.8983   24.8181 C   0  0  0  0  0  0  0  0  0  0  0  0
  -20.2117  -29.2568   18.1757 C   0  0  0  0  0  0  0  0  0  0  0  0
  -28.2268  -25.5020   18.7750 C   0  0  0  0  0  0  0  0  0  1  0  0
  -21.5515  -29.5786   22.9649 C   0  0  1  0  0  0  0  0  0  0  0  0
  -18.8898  -29.1900   20.2939 C   0  0  2  0  0  0  0  0  0  0  0  0
  -21.1711  -29.5779   24.4724 C   0  0  0  0  0  0  0  0  0  0  0  0
  -26.0591  -11.8605   21.0605 N   0  0  0  0  0  0  0  0  0  0  0  0
  -28.1427  -21.8793   18.1363 N   0  0  0  0  0  0  0  0  0  0  0  0
  -26.5054  -12.4692   19.9485 N   0  0  0  0  0  0  0  0  0  0  0  0
  -23.7582  -30.2758   22.0881 N   0  0  0  0  0  0  0  0  0  0  0  0
  -28.3398  -15.7939   20.3549 N   0  0  0  0  0  0  0  0  0  0  0  0
  -26.1481  -12.6347   17.6128 N   0  0  0  0  0  0  0  0  0  0  0  0
  -23.0121   -9.6677   18.9389 N   0  0  0  0  0  0  0  0  0  0  0  0
  -27.6874  -17.0686   18.4809 N   0  0  0  0  0  0  0  0  0  0  0  0
  -26.2208  -32.4232   23.5215 N   0  0  0  0  0  0  0  0  0  0  0  0
  -20.4164  -29.7369   22.0622 N   0  0  0  0  0  0  0  0  0  0  0  0
  -19.0219  -28.7207   18.8857 N   0  3  0  0  0  0  0  0  0  0  0  0
  -23.8881  -10.7659   17.1263 O   0  0  0  0  0  0  0  0  0  0  0  0
  -25.8451  -30.1329   23.7117 O   0  0  0  0  0  0  0  0  0  0  0  0
  -22.1984  -31.8549   22.8020 O   0  0  0  0  0  0  0  0  0  0  0  0
  -20.7433  -27.7608   20.8937 O   0  0  0  0  0  0  0  0  0  0  0  0
  -29.6111  -17.5971   19.6649 O   0  0  0  0  0  0  0  0  0  0  0  0
  -30.2040  -20.9360   18.7820 O   0  0  0  0  0  0  0  0  0  0  0  0
  -26.3099  -23.2787   17.6576 O   0  0  0  0  0  0  0  0  0  0  0  0
  -22.1592   -7.8841   24.1472 O   0  0  0  0  0  0  0  0  0  0  0  0
  -27.1151  -25.7138   19.6443 O   0  0  0  0  0  0  0  0  0  1  0  0
  -21.1075   -2.6900   22.6245 F   0  0  0  0  0  0  0  0  0  0  0  0
  -23.0627   -5.7526   25.6581 F   0  0  0  0  0  0  0  0  0  0  0  0
  1  2  1  0  0  0  0
  1  5  2  0  0  0  0
  2  6  2  0  0  0  0
  3 10  2  0  0  0  0
  3 19  1  0  0  0  0
  4 11  1  0  0  0  0
  4 19  2  0  0  0  0
  5 21  1  0  0  0  0
  6 23  1  0  0  0  0
  7 12  2  0  0  0  0
  7 22  1  0  0  0  0
  8  9  2  0  0  0  0
  8 25  1  0  0  0  0
  9 27  1  0  0  0  0
 10 29  1  0  0  0  0
 11 29  2  0  0  0  0
 12 30  1  0  0  0  0
 13 14  2  0  0  0  0
 13 31  1  0  0  0  0
 14 32  1  0  0  0  0
 15 24  1  0  0  0  0
 15 30  2  0  0  0  0
 16 26  1  0  0  0  0
 16 36  2  0  0  0  0
 17 27  2  0  0  0  0
 17 28  1  0  0  0  0
 18 32  2  0  0  0  0
 18 33  1  0  0  0  0
 19 34  1  0  0  0  0
 20 34  1  0  0  0  0
 20 35  2  0  0  0  0
 20 38  1  0  0  0  0
 21 23  2  0  0  0  0
 21 43  1  0  0  0  0
 22 24  2  0  0  0  0
 22 44  1  0  0  0  0
 23 52  1  0  0  0  0
 24 45  1  0  0  0  0
 25 28  2  0  0  0  0
 25 55  1  0  0  0  0
 26 37  2  0  0  0  0
 26 61  1  0  0  0  0
 27 66  1  0  0  0  0
 28 72  1  0  0  0  0
 29 83  1  0  0  0  0
 30 84  1  0  0  0  0
 31 33  2  0  0  0  0
 31 83  1  0  0  0  0
 32 85  1  0  0  0  0
 33 86  1  0  0  0  0
 34 65  2  0  0  0  0
 35 67  1  0  0  0  0
 35 70  1  0  0  0  0
 36 66  1  0  0  0  0
 36 81  1  0  0  0  0
 37 66  1  0  0  0  0
 37 82  1  0  0  0  0
 38 71  1  0  0  0  0
 38 76  2  0  0  0  0
 39 53  1  0  0  0  0
 39 73  1  0  0  0  0
 39 77  2  0  0  0  0
 40 62  1  0  0  0  0
 40 68  1  0  0  0  0
 40 78  2  0  0  0  0
 41 63  1  0  0  0  0
 41 74  1  0  0  0  0
 41 79  2  0  0  0  0
 42 69  1  0  0  0  0
 42 72  1  0  0  0  0
 42 80  2  0  0  0  0
 43 46  1  0  0  0  0
 44 53  1  0  0  0  0
 45 68  1  0  0  0  0
 46 48  1  0  0  0  0
 47 49  1  0  0  0  0
 47 50  1  0  0  0  0
 48 52  1  0  0  0  0
 49 54  1  0  0  0  0
 50 69  1  0  0  0  0
 51 54  1  0  0  0  0
 51 69  1  0  0  0  0
 52 73  1  0  0  0  0
 53 68  1  0  0  0  0
 54 67  1  0  0  0  0
 56 63  1  0  0  0  0
 57 64  1  0  0  0  0
 58 64  1  0  0  0  0
 59 64  1  0  0  0  0
 60 75  1  0  0  0  0
 61 84  1  0  0  0  0
 62 64  1  0  0  0  0
 62 74  1  0  0  0  0
 63 75  1  0  0  0  0
 65 67  1  0  0  0  0
M  CHG  1  75   1
M  ISO  4  42 100  61 101  72 100  84 101
M  END
> <Batch ID>
0054

> <Smiles>
CNC(C)C(=O)NC(C(=O)N1Cc2cc([101O:1][101CH2:1]C3CC(=O)N(c4ccc(C)c([100NH:0][100C:0](=O)N5CCCC(n6nc(-c7ccc(Oc8ccc(F)cc8F)cc7)c(C(N)=O)c6N)C5)c4)C3=O)ccc2CC1C(=O)NC1CCCc2ccccc21)C(C)(C)C

> <Shape>
0.298

> <Color>
0.091

> <Negative vol penalty>
0.000

$$$$

  -OEChem-04042322463D

 89 98  0     1  0  0  0  0  0999 V2000
  -32.6918  -31.9201   25.2254 C   0  0  0  0  0  0  0  0  0  0  0  0
  -32.0133  -30.7061   25.1900 C   0  0  0  0  0  0  0  0  0  0  0  0
  -31.2554  -19.3781   17.9437 C   0  0  0  0  0  0  0  0  0  0  0  0
  -23.7140  -11.5439   23.7413 C   0  0  0  0  0  0  0  0  0  0  0  0
  -24.2431   -9.6644   22.3184 C   0  0  0  0  0  0  0  0  0  0  0  0
  -32.0091  -33.0895   25.5575 C   0  0  0  0  0  0  0  0  0  0  0  0
  -30.6518  -30.6607   25.4879 C   0  0  0  0  0  0  0  0  0  0  0  0
  -28.0429  -27.8024   22.2215 C   0  0  0  0  0  0  0  0  0  0  0  0
  -30.3168  -20.3915   18.1376 C   0  0  0  0  0  0  0  0  0  0  0  0
  -30.9759  -18.0784   18.3661 C   0  0  0  0  0  0  0  0  0  0  0  0
  -23.1615  -10.6757   24.6828 C   0  0  0  0  0  0  0  0  0  0  0  0
  -23.6906   -8.7961   23.2600 C   0  0  0  0  0  0  0  0  0  0  0  0
  -28.1174  -26.4198   22.3848 C   0  0  0  0  0  0  0  0  0  0  0  0
  -20.6071   -7.7846   24.2086 C   0  0  0  0  0  0  0  0  0  0  0  0
  -19.7616   -6.7775   23.7437 C   0  0  0  0  0  0  0  0  0  0  0  0
  -25.9792  -26.4426   23.5014 C   0  0  0  0  0  0  0  0  0  0  0  0
  -21.2474   -5.1071   24.6599 C   0  0  0  0  0  0  0  0  0  0  0  0
  -24.2547  -11.0383   22.5590 C   0  0  0  0  0  0  0  0  0  0  0  0
  -24.1721  -12.9829   20.9100 C   0  0  0  0  0  0  0  0  0  0  0  0
  -30.6365  -33.0599   25.8501 C   0  0  0  0  0  0  0  0  0  0  0  0
  -26.9393  -28.5181   22.7075 C   0  0  0  0  0  0  0  0  0  0  0  0
  -29.9504  -31.8306   25.8255 C   0  0  0  0  0  0  0  0  0  0  0  0
  -25.8920  -27.8339   23.3408 C   0  0  0  0  0  0  0  0  0  0  0  0
  -28.8192  -18.8056   19.1764 C   0  0  0  0  0  0  0  0  0  0  0  0
  -29.0987  -20.1053   18.7540 C   0  0  0  0  0  0  0  0  0  0  0  0
  -29.7578  -17.7922   18.9825 C   0  0  0  0  0  0  0  0  0  0  0  0
  -23.1498   -9.3018   24.4422 C   0  0  0  0  0  0  0  0  0  0  0  0
  -27.0868  -25.7400   23.0273 C   0  0  0  0  0  0  0  0  0  0  0  0
  -21.7729   -7.4531   24.8991 C   0  0  0  0  0  0  0  0  0  0  0  0
  -20.0817   -5.4387   23.9694 C   0  0  0  0  0  0  0  0  0  0  0  0
  -22.0930   -6.1143   25.1248 C   0  0  0  0  0  0  0  0  0  0  0  0
  -24.8251  -11.9347   21.5858 C   0  0  0  0  0  0  0  0  0  0  0  0
  -25.1406  -13.5265   20.1020 C   0  0  0  0  0  0  0  0  0  0  0  0
  -26.8545  -21.1366   18.3848 C   0  0  0  0  0  0  0  0  0  0  0  0
  -28.0260  -22.2978   21.1489 C   0  0  0  0  0  0  0  0  0  0  0  0
  -22.8117  -13.4257   21.0043 C   0  0  0  0  0  0  0  0  0  0  0  0
  -26.5297  -30.8177   24.8634 C   0  0  0  0  0  0  0  0  0  0  0  0
  -23.4796  -30.7721   23.7601 C   0  0  0  0  0  0  0  0  0  0  0  0
  -21.0635  -28.2702   22.8009 C   0  0  0  0  0  0  0  0  0  0  0  0
  -30.3342  -15.3579   19.2799 C   0  0  0  0  0  0  0  0  0  0  0  0
  -29.9516  -34.3427   26.2499 C   0  0  0  0  0  0  0  0  0  0  0  0
  -26.8615  -30.0058   22.4998 C   0  0  0  0  0  0  0  0  0  0  0  0
  -24.6759  -28.5531   23.8627 C   0  0  0  0  0  0  0  0  0  0  0  0
  -25.9337  -22.2404   18.8623 C   0  0  0  0  0  0  0  0  0  0  0  0
  -28.5516  -22.3368   19.7315 C   0  0  0  0  0  0  0  0  0  0  0  0
  -28.4283  -34.2653   26.1867 C   0  0  0  0  0  0  0  0  0  0  0  0
  -29.7752  -11.8584   18.9360 C   0  0  0  0  0  0  0  0  0  0  0  0
  -27.9312  -32.9827   26.8460 C   0  0  0  0  0  0  0  0  0  0  0  0
  -28.3838  -11.6525   19.5391 C   0  0  0  0  0  0  0  0  0  0  0  0
  -25.5957  -22.0558   20.3327 C   0  0  0  0  0  0  0  0  0  0  0  0
  -30.5709  -12.9192   19.6945 C   0  0  0  0  0  0  0  0  0  0  0  0
  -28.4957  -14.0025   20.4624 C   0  0  0  0  0  0  0  0  0  0  0  0
  -28.4682  -31.7444   26.1182 C   0  0  1  0  0  0  0  0  0  0  0  0
  -25.9314  -30.6996   23.4901 C   0  0  1  0  0  0  0  0  0  0  0  0
  -27.6326  -12.9896   19.6924 C   0  0  2  0  0  0  0  0  0  0  0  0
  -27.5117  -18.4985   19.8389 C   0  0  0  0  0  0  0  0  0  0  0  0
  -19.1375  -28.3924   21.1968 C   0  0  0  0  0  0  0  0  0  0  0  0
  -21.8341  -31.4487   26.2390 C   0  0  0  0  0  0  0  0  0  0  0  0
  -19.9753  -30.0599   25.2987 C   0  0  0  0  0  0  0  0  0  0  0  0
  -20.7625  -32.0833   24.0703 C   0  0  0  0  0  0  0  0  0  0  0  0
  -22.0528  -25.9484   21.2551 C   0  0  0  0  0  0  0  0  0  0  0  0
  -26.1484  -22.2594   22.7190 C   0  0  0  0  0  0  0  0  0  0  0  0
  -25.9231  -23.6749   23.2196 C   0  0  0  0  0  0  0  0  0  1  0  0
  -22.2223  -30.0198   24.1239 C   0  0  1  0  0  0  0  0  0  0  0  0
  -20.5830  -27.9631   21.3940 C   0  0  2  0  0  0  0  0  0  0  0  0
  -21.2243  -30.8917   24.9371 C   0  0  0  0  0  0  0  0  0  0  0  0
  -26.1092  -11.8175   21.2373 N   0  0  0  0  0  0  0  0  0  0  0  0
  -26.2708  -12.7990   20.3337 N   0  0  0  0  0  0  0  0  0  0  0  0
  -28.1413  -21.1723   18.9458 N   0  0  0  0  0  0  0  0  0  0  0  0
  -26.6470  -22.2419   21.3453 N   0  0  0  0  0  0  0  0  0  0  0  0
  -24.6494  -30.0083   23.6410 N   0  0  0  0  0  0  0  0  0  0  0  0
  -29.7985  -14.1593   19.7969 N   0  0  0  0  0  0  0  0  0  0  0  0
  -25.1273  -14.5510   19.2231 N   0  0  0  0  0  0  0  0  0  0  0  0
  -21.9504  -12.7557   21.8839 N   0  0  0  0  0  0  0  0  0  0  0  0
  -29.4960  -16.4653   19.4050 N   0  0  0  0  0  0  0  0  0  0  0  0
  -27.7238  -31.5123   24.8990 N   0  0  0  0  0  0  0  0  0  0  0  0
  -21.6805  -29.5012   22.8725 N   0  0  0  0  0  0  0  0  0  0  0  0
  -20.6805  -26.5013   21.1209 N   0  3  0  0  0  0  0  0  0  0  0  0
  -26.3976  -20.2742   17.6341 O   0  0  0  0  0  0  0  0  0  0  0  0
  -28.8397  -22.4212   22.0719 O   0  0  0  0  0  0  0  0  0  0  0  0
  -22.3685  -14.3765   20.3165 O   0  0  0  0  0  0  0  0  0  0  0  0
  -25.9501  -30.3171   25.8200 O   0  0  0  0  0  0  0  0  0  0  0  0
  -23.4244  -31.9913   23.5811 O   0  0  0  0  0  0  0  0  0  0  0  0
  -20.9038  -27.4971   23.7429 O   0  0  0  0  0  0  0  0  0  0  0  0
  -31.4428  -15.3934   18.7397 O   0  0  0  0  0  0  0  0  0  0  0  0
  -22.6110   -8.4542   25.3608 O   0  0  0  0  0  0  0  0  0  0  0  0
  -27.1573  -24.3906   23.1886 O   0  0  0  0  0  0  0  0  0  1  0  0
  -19.2688   -4.4716   23.5242 F   0  0  0  0  0  0  0  0  0  0  0  0
  -23.2109   -5.7897   25.7886 F   0  0  0  0  0  0  0  0  0  0  0  0
  1  2  1  0  0  0  0
  1  6  2  0  0  0  0
  2  7  2  0  0  0  0
  3  9  2  0  0  0  0
  3 10  1  0  0  0  0
  4 11  2  0  0  0  0
  4 18  1  0  0  0  0
  5 12  1  0  0  0  0
  5 18  2  0  0  0  0
  6 20  1  0  0  0  0
  7 22  1  0  0  0  0
  8 13  2  0  0  0  0
  8 21  1  0  0  0  0
  9 25  1  0  0  0  0
 10 26  2  0  0  0  0
 11 27  1  0  0  0  0
 12 27  2  0  0  0  0
 13 28  1  0  0  0  0
 14 15  2  0  0  0  0
 14 29  1  0  0  0  0
 15 30  1  0  0  0  0
 16 23  1  0  0  0  0
 16 28  2  0  0  0  0
 17 30  2  0  0  0  0
 17 31  1  0  0  0  0
 18 32  1  0  0  0  0
 19 32  1  0  0  0  0
 19 33  2  0  0  0  0
 19 36  1  0  0  0  0
 20 22  2  0  0  0  0
 20 41  1  0  0  0  0
 21 23  2  0  0  0  0
 21 42  1  0  0  0  0
 22 53  1  0  0  0  0
 23 43  1  0  0  0  0
 24 25  2  0  0  0  0
 24 26  1  0  0  0  0
 24 56  1  0  0  0  0
 25 69  1  0  0  0  0
 26 75  1  0  0  0  0
 27 86  1  0  0  0  0
 28 87  1  0  0  0  0
 29 31  2  0  0  0  0
 29 86  1  0  0  0  0
 30 88  1  0  0  0  0
 31 89  1  0  0  0  0
 32 67  2  0  0  0  0
 33 68  1  0  0  0  0
 33 73  1  0  0  0  0
 34 44  1  0  0  0  0
 34 69  1  0  0  0  0
 34 79  2  0  0  0  0
 35 45  1  0  0  0  0
 35 70  1  0  0  0  0
 35 80  2  0  0  0  0
 36 74  1  0  0  0  0
 36 81  2  0  0  0  0
 37 54  1  0  0  0  0
 37 76  1  0  0  0  0
 37 82  2  0  0  0  0
 38 64  1  0  0  0  0
 38 71  1  0  0  0  0
 38 83  2  0  0  0  0
 39 65  1  0  0  0  0
 39 77  1  0  0  0  0
 39 84  2  0  0  0  0
 40 72  1  0  0  0  0
 40 75  1  0  0  0  0
 40 85  2  0  0  0  0
 41 46  1  0  0  0  0
 42 54  1  0  0  0  0
 43 71  1  0  0  0  0
 44 50  1  0  0  0  0
 45 69  1  0  0  0  0
 46 48  1  0  0  0  0
 47 49  1  0  0  0  0
 47 51  1  0  0  0  0
 48 53  1  0  0  0  0
 49 55  1  0  0  0  0
 50 70  1  0  0  0  0
 51 72  1  0  0  0  0
 52 55  1  0  0  0  0
 52 72  1  0  0  0  0
 53 76  1  0  0  0  0
 54 71  1  0  0  0  0
 55 68  1  0  0  0  0
 57 65  1  0  0  0  0
 58 66  1  0  0  0  0
 59 66  1  0  0  0  0
 60 66  1  0  0  0  0
 61 78  1  0  0  0  0
 62 63  1  0  0  0  0
 62 70  1  0  0  0  0
 63 87  1  0  0  0  0
 64 66  1  0  0  0  0
 64 77  1  0  0  0  0
 65 78  1  0  0  0  0
 67 68  1  0  0  0  0
M  CHG  1  78   1
M  ISO  4  40 100  63 101  75 100  87 101
M  END
> <Batch ID>
0054

> <Smiles>
CNC(C)C(=O)NC(C(=O)N1Cc2cc([101O:1][101CH2:1]CN3CCC(=O)N(c4cccc([100NH:0][100C:0](=O)N5CCCC(n6nc(-c7ccc(Oc8ccc(F)cc8F)cc7)c(C(N)=O)c6N)C5)c4C)CC3=O)ccc2CC1C(=O)NC1CCCc2ccccc21)C(C)(C)C

> <Shape>
0.273

> <Color>
0.128

> <Negative vol penalty>
0.000

$$$$

  -OEChem-04042322463D

 82 90  0     1  0  0  0  0  0999 V2000
  -26.5535  -34.3206   25.7101 C   0  0  0  0  0  0  0  0  0  0  0  0
  -27.0097  -33.1473   25.1179 C   0  0  0  0  0  0  0  0  0  0  0  0
  -29.8669  -24.0475   25.8645 C   0  0  0  0  0  0  0  0  0  0  0  0
  -26.8283  -17.2367   20.7418 C   0  0  0  0  0  0  0  0  0  0  0  0
  -25.3183  -18.0037   19.0188 C   0  0  0  0  0  0  0  0  0  0  0  0
  -28.5053  -23.8443   26.0885 C   0  0  0  0  0  0  0  0  0  0  0  0
  -25.2092  -34.4479   26.0572 C   0  0  0  0  0  0  0  0  0  0  0  0
  -26.1220  -32.1001   24.8736 C   0  0  0  0  0  0  0  0  0  0  0  0
  -26.7095  -30.0913   20.2622 C   0  0  0  0  0  0  0  0  0  0  0  0
  -30.2860  -24.9179   24.8584 C   0  0  0  0  0  0  0  0  0  0  0  0
  -26.6190  -15.9180   20.3383 C   0  0  0  0  0  0  0  0  0  0  0  0
  -25.1091  -16.6849   18.6152 C   0  0  0  0  0  0  0  0  0  0  0  0
  -27.7799  -29.2167   20.0803 C   0  0  0  0  0  0  0  0  0  0  0  0
  -24.2492  -13.5399   20.7302 C   0  0  0  0  0  0  0  0  0  0  0  0
  -24.0278  -12.5863   21.7237 C   0  0  0  0  0  0  0  0  0  0  0  0
  -27.9817  -25.3821   24.3004 C   0  0  0  0  0  0  0  0  0  0  0  0
  -26.2780  -27.3420   20.3011 C   0  0  0  0  0  0  0  0  0  0  0  0
  -25.9805  -11.3677   20.9892 C   0  0  0  0  0  0  0  0  0  0  0  0
  -26.1779  -18.2795   20.0821 C   0  0  0  0  0  0  0  0  0  0  0  0
  -27.5626  -24.5116   25.3064 C   0  0  0  0  0  0  0  0  0  0  0  0
  -27.3801  -20.5288   20.0286 C   0  0  0  0  0  0  0  0  0  0  0  0
  -24.3026  -33.4054   25.8082 C   0  0  0  0  0  0  0  0  0  0  0  0
  -25.4148  -29.5968   20.4761 C   0  0  0  0  0  0  0  0  0  0  0  0
  -24.7646  -32.2130   25.2189 C   0  0  0  0  0  0  0  0  0  0  0  0
  -25.1924  -28.2124   20.4828 C   0  0  0  0  0  0  0  0  0  0  0  0
  -29.3434  -25.5853   24.0764 C   0  0  0  0  0  0  0  0  0  0  0  0
  -25.7594  -15.6421   19.2749 C   0  0  0  0  0  0  0  0  0  0  0  0
  -27.5647  -27.8419   20.1026 C   0  0  0  0  0  0  0  0  0  0  0  0
  -25.3363  -13.4075   19.8661 C   0  0  0  0  0  0  0  0  0  0  0  0
  -24.8934  -11.5002   21.8533 C   0  0  0  0  0  0  0  0  0  0  0  0
  -26.2019  -12.3214   19.9957 C   0  0  0  0  0  0  0  0  0  0  0  0
  -26.3932  -19.6419   20.4989 C   0  0  0  0  0  0  0  0  0  0  0  0
  -27.1637  -21.6880   20.7330 C   0  0  0  0  0  0  0  0  0  0  0  0
  -26.1289  -24.2980   25.5420 C   0  0  0  0  0  0  0  0  0  0  0  0
  -28.4010  -20.3234   19.0432 C   0  0  0  0  0  0  0  0  0  0  0  0
  -23.3035  -29.7880   22.8446 C   0  0  0  0  0  0  0  0  0  0  0  0
  -21.3759  -28.2621   20.7284 C   0  0  0  0  0  0  0  0  0  0  0  0
  -30.7054  -26.2393   20.7195 C   0  0  0  0  0  0  0  0  0  0  0  0
  -21.1047  -26.2506   17.9848 C   0  0  0  0  0  0  0  0  0  0  0  0
  -22.8683  -33.5710   26.2442 C   0  0  0  0  0  0  0  0  0  0  0  0
  -24.2664  -30.5536   20.6440 C   0  0  0  0  0  0  0  0  0  0  0  0
  -23.8183  -27.6309   20.6885 C   0  0  0  0  0  0  0  0  0  0  0  0
  -21.9181  -32.5589   25.6095 C   0  0  0  0  0  0  0  0  0  0  0  0
  -23.3187  -23.0798   23.7088 C   0  0  0  0  0  0  0  0  0  0  0  0
  -22.5055  -31.1533   25.6873 C   0  0  0  0  0  0  0  0  0  0  0  0
  -23.9445  -22.1335   22.6828 C   0  0  0  0  0  0  0  0  0  0  0  0
  -24.0623  -23.0377   25.0414 C   0  0  0  0  0  0  0  0  0  0  0  0
  -26.1458  -22.3377   23.9129 C   0  0  0  0  0  0  0  0  0  0  0  0
  -23.8274  -31.0643   24.9152 C   0  0  1  0  0  0  0  0  0  0  0  0
  -23.0740  -29.9349   21.3670 C   0  0  1  0  0  0  0  0  0  0  0  0
  -25.4569  -22.3876   22.5392 C   0  0  1  0  0  0  0  0  0  0  0  0
  -19.3985  -25.1461   16.5129 C   0  0  0  0  0  0  0  0  0  0  0  0
  -20.8710  -26.1680   22.8893 C   0  0  0  0  0  0  0  0  0  0  0  0
  -19.9739  -24.6507   21.1113 C   0  0  0  0  0  0  0  0  0  0  0  0
  -18.8444  -26.8250   21.5795 C   0  0  0  0  0  0  0  0  0  0  0  0
  -32.3069  -24.4736   19.9786 C   0  0  0  0  0  0  0  0  0  0  0  0
  -22.0456  -27.7200   15.5943 C   0  0  0  0  0  0  0  0  0  0  0  0
  -29.7954  -26.5226   22.9941 C   0  0  0  0  0  0  0  0  0  0  0  0
  -29.8917  -27.4273   20.3658 C   0  0  0  0  0  0  0  0  0  1  0  0
  -21.0804  -26.8187   20.3996 C   0  0  1  0  0  0  0  0  0  0  0  0
  -20.2694  -26.3749   16.7233 C   0  0  2  0  0  0  0  0  0  0  0  0
  -20.2187  -26.1262   21.4930 C   0  0  0  0  0  0  0  0  0  0  0  0
  -25.6084  -20.1904   21.4301 N   0  0  0  0  0  0  0  0  0  0  0  0
  -26.1020  -21.4346   21.5507 N   0  0  0  0  0  0  0  0  0  0  0  0
  -25.4926  -23.2692   24.8434 N   0  0  0  0  0  0  0  0  0  0  0  0
  -22.7289  -28.6073   20.8544 N   0  0  0  0  0  0  0  0  0  0  0  0
  -27.7801  -22.8890   20.7265 N   0  0  0  0  0  0  0  0  0  0  0  0
  -28.4824  -19.0726   18.4162 N   0  0  0  0  0  0  0  0  0  0  0  0
  -23.5768  -30.9775   23.4925 N   0  0  0  0  0  0  0  0  0  0  0  0
  -30.6237  -25.8458   21.9936 N   0  0  0  0  0  0  0  0  0  0  0  0
  -20.4748  -26.8181   19.0723 N   0  0  0  0  0  0  0  0  0  0  0  0
  -31.4536  -25.6499   19.7823 N   0  3  0  0  0  0  0  0  0  0  0  0
  -21.1507  -26.5358   15.5323 N   0  3  0  0  0  0  0  0  0  0  0  0
  -25.5895  -25.0626   26.3406 O   0  0  0  0  0  0  0  0  0  0  0  0
  -29.2273  -21.2171   18.7398 O   0  0  0  0  0  0  0  0  0  0  0  0
  -23.2361  -28.6778   23.3591 O   0  0  0  0  0  0  0  0  0  0  0  0
  -20.4409  -29.0557   20.8613 O   0  0  0  0  0  0  0  0  0  0  0  0
  -22.2041  -25.7016   18.0044 O   0  0  0  0  0  0  0  0  0  0  0  0
  -25.5552  -14.3555   18.8807 O   0  0  0  0  0  0  0  0  0  0  0  0
  -28.6079  -26.9860   19.9260 O   0  0  0  0  0  0  0  0  0  1  0  0
  -24.6816  -10.5853   22.8084 F   0  0  0  0  0  0  0  0  0  0  0  0
  -27.2485  -12.1894   19.1693 F   0  0  0  0  0  0  0  0  0  0  0  0
  1  2  1  0  0  0  0
  1  7  2  0  0  0  0
  2  8  2  0  0  0  0
  3  6  1  0  0  0  0
  3 10  2  0  0  0  0
  4 11  2  0  0  0  0
  4 19  1  0  0  0  0
  5 12  1  0  0  0  0
  5 19  2  0  0  0  0
  6 20  2  0  0  0  0
  7 22  1  0  0  0  0
  8 24  1  0  0  0  0
  9 13  2  0  0  0  0
  9 23  1  0  0  0  0
 10 26  1  0  0  0  0
 11 27  1  0  0  0  0
 12 27  2  0  0  0  0
 13 28  1  0  0  0  0
 14 15  2  0  0  0  0
 14 29  1  0  0  0  0
 15 30  1  0  0  0  0
 16 20  1  0  0  0  0
 16 26  2  0  0  0  0
 17 25  1  0  0  0  0
 17 28  2  0  0  0  0
 18 30  2  0  0  0  0
 18 31  1  0  0  0  0
 19 32  1  0  0  0  0
 20 34  1  0  0  0  0
 21 32  1  0  0  0  0
 21 33  2  0  0  0  0
 21 35  1  0  0  0  0
 22 24  2  0  0  0  0
 22 40  1  0  0  0  0
 23 25  2  0  0  0  0
 23 41  1  0  0  0  0
 24 49  1  0  0  0  0
 25 42  1  0  0  0  0
 26 58  1  0  0  0  0
 27 79  1  0  0  0  0
 28 80  1  0  0  0  0
 29 31  2  0  0  0  0
 29 79  1  0  0  0  0
 30 81  1  0  0  0  0
 31 82  1  0  0  0  0
 32 63  2  0  0  0  0
 33 64  1  0  0  0  0
 33 67  1  0  0  0  0
 34 65  1  0  0  0  0
 34 74  2  0  0  0  0
 35 68  1  0  0  0  0
 35 75  2  0  0  0  0
 36 50  1  0  0  0  0
 36 69  1  0  0  0  0
 36 76  2  0  0  0  0
 37 60  1  0  0  0  0
 37 66  1  0  0  0  0
 37 77  2  0  0  0  0
 38 59  1  0  0  0  0
 38 70  1  0  0  0  0
 38 72  2  0  0  0  0
 39 61  1  0  0  0  0
 39 71  1  0  0  0  0
 39 78  2  0  0  0  0
 40 43  1  0  0  0  0
 41 50  1  0  0  0  0
 42 66  1  0  0  0  0
 43 45  1  0  0  0  0
 44 46  1  0  0  0  0
 44 47  1  0  0  0  0
 45 49  1  0  0  0  0
 46 51  1  0  0  0  0
 47 65  1  0  0  0  0
 48 51  1  0  0  0  0
 48 65  1  0  0  0  0
 49 69  1  0  0  0  0
 50 66  1  0  0  0  0
 51 64  1  0  0  0  0
 52 61  1  0  0  0  0
 53 62  1  0  0  0  0
 54 62  1  0  0  0  0
 55 62  1  0  0  0  0
 56 72  1  0  0  0  0
 57 73  1  0  0  0  0
 58 70  1  0  0  0  0
 59 80  1  0  0  0  0
 60 62  1  0  0  0  0
 60 71  1  0  0  0  0
 61 73  1  0  0  0  0
 63 64  1  0  0  0  0
M  CHG  2  72   1  73   1
M  ISO  4  20 100  34 100  59 101  80 101
M  END
> <Batch ID>
0054

> <Smiles>
CNC(=NCc1ccc[100c:0]([100C:0](=O)N2CCCC(n3nc(-c4ccc(Oc5ccc(F)cc5F)cc4)c(C(N)=O)c3N)C2)c1)[101CH2:1][101O:1]c1ccc2c(c1)CN(C(=O)C(NC(=O)C(C)NC)C(C)(C)C)C(C(=O)NC1CCCc3ccccc31)C2

> <Shape>
0.230

> <Color>
0.073

> <Negative vol penalty>
0.000

$$$$

  -OEChem-04042322463D

 84 92  0     1  0  0  0  0  0999 V2000
  -30.1465  -24.2140   17.2163 C   0  0  0  0  0  0  0  0  0  0  0  0
  -29.2263  -23.4321   17.9071 C   0  0  0  0  0  0  0  0  0  0  0  0
  -18.4543  -16.2114   26.0441 C   0  0  0  0  0  0  0  0  0  0  0  0
  -28.0061  -16.9353   21.3353 C   0  0  0  0  0  0  0  0  0  0  0  0
  -27.0606  -17.2616   19.1361 C   0  0  0  0  0  0  0  0  0  0  0  0
  -30.3884  -25.5258   17.6219 C   0  0  0  0  0  0  0  0  0  0  0  0
  -28.5482  -23.9612   19.0046 C   0  0  0  0  0  0  0  0  0  0  0  0
  -22.7907  -22.7534   20.7071 C   0  0  0  0  0  0  0  0  0  0  0  0
  -18.6837  -15.0275   25.3431 C   0  0  0  0  0  0  0  0  0  0  0  0
  -19.5311  -16.9711   26.5013 C   0  0  0  0  0  0  0  0  0  0  0  0
  -28.5807  -18.2049   21.2767 C   0  0  0  0  0  0  0  0  0  0  0  0
  -27.6351  -18.5313   19.0774 C   0  0  0  0  0  0  0  0  0  0  0  0
  -22.2569  -21.8926   21.6652 C   0  0  0  0  0  0  0  0  0  0  0  0
  -29.9965  -21.5025   21.8562 C   0  0  0  0  0  0  0  0  0  0  0  0
  -29.8882  -22.3161   22.9840 C   0  0  0  0  0  0  0  0  0  0  0  0
  -22.1454  -23.7199   23.2361 C   0  0  0  0  0  0  0  0  0  0  0  0
  -21.0668  -15.3630   25.5566 C   0  0  0  0  0  0  0  0  0  0  0  0
  -27.4796  -22.2250   22.8184 C   0  0  0  0  0  0  0  0  0  0  0  0
  -27.2460  -16.4636   20.2649 C   0  0  0  0  0  0  0  0  0  0  0  0
  -27.3219  -13.9220   20.4702 C   0  0  0  0  0  0  0  0  0  0  0  0
  -29.7058  -26.0745   18.7190 C   0  0  0  0  0  0  0  0  0  0  0  0
  -23.0165  -24.1038   21.0105 C   0  0  0  0  0  0  0  0  0  0  0  0
  -28.7822  -25.2812   19.4261 C   0  0  0  0  0  0  0  0  0  0  0  0
  -22.6799  -24.5963   22.2794 C   0  0  0  0  0  0  0  0  0  0  0  0
  -19.9899  -14.6033   25.0994 C   0  0  0  0  0  0  0  0  0  0  0  0
  -20.8373  -16.5469   26.2576 C   0  0  0  0  0  0  0  0  0  0  0  0
  -28.3952  -19.0029   20.1478 C   0  0  0  0  0  0  0  0  0  0  0  0
  -21.9368  -22.3752   22.9308 C   0  0  0  0  0  0  0  0  0  0  0  0
  -28.8464  -21.0502   21.2094 C   0  0  0  0  0  0  0  0  0  0  0  0
  -28.6297  -22.6773   23.4652 C   0  0  0  0  0  0  0  0  0  0  0  0
  -27.5879  -21.4114   21.6905 C   0  0  0  0  0  0  0  0  0  0  0  0
  -26.6527  -15.1519   20.3247 C   0  0  0  0  0  0  0  0  0  0  0  0
  -26.3191  -12.9834   20.4708 C   0  0  0  0  0  0  0  0  0  0  0  0
  -22.1604  -20.4558   24.2487 C   0  0  0  0  0  0  0  0  0  1  0  0
  -21.7410  -19.5762   25.1580 C   0  0  0  0  0  0  0  0  0  0  0  0
  -28.7246  -13.6520   20.5938 C   0  0  0  0  0  0  0  0  0  0  0  0
  -25.5825  -25.9754   21.1388 C   0  0  0  0  0  0  0  0  0  0  0  0
  -23.3792  -28.3022   21.6425 C   0  0  0  0  0  0  0  0  0  0  0  0
  -20.2505  -29.1470   22.7122 C   0  0  0  0  0  0  0  0  0  0  0  0
  -20.5063  -13.2282   21.8859 C   0  0  0  0  0  0  0  0  0  0  0  0
  -30.0355  -27.4820   19.1491 C   0  0  0  0  0  0  0  0  0  0  0  0
  -23.5681  -25.0253   19.9574 C   0  0  0  0  0  0  0  0  0  0  0  0
  -22.8840  -26.0422   22.6486 C   0  0  0  0  0  0  0  0  0  0  0  0
  -29.0000  -28.0890   20.0923 C   0  0  0  0  0  0  0  0  0  0  0  0
  -21.9118  -12.2116   18.7765 C   0  0  0  0  0  0  0  0  0  0  0  0
  -28.6351  -27.0982   21.1932 C   0  0  0  0  0  0  0  0  0  0  0  0
  -23.3466  -12.7389   18.8339 C   0  0  0  0  0  0  0  0  0  0  0  0
  -20.9306  -13.1714   19.4459 C   0  0  0  0  0  0  0  0  0  0  0  0
  -22.7144  -14.0768   20.8855 C   0  0  0  0  0  0  0  0  0  0  0  0
  -28.0085  -25.8275   20.6064 C   0  0  1  0  0  0  0  0  0  0  0  0
  -24.2355  -26.2672   20.5403 C   0  0  1  0  0  0  0  0  0  0  0  0
  -23.7481  -13.1167   20.2724 C   0  0  2  0  0  0  0  0  0  0  0  0
  -18.7497  -31.1313   23.0402 C   0  0  0  0  0  0  0  0  0  0  0  0
  -24.9471  -29.0714   24.1445 C   0  0  0  0  0  0  0  0  0  0  0  0
  -22.9478  -30.3667   24.9146 C   0  0  0  0  0  0  0  0  0  0  0  0
  -24.1092  -31.0079   22.8021 C   0  0  0  0  0  0  0  0  0  0  0  0
  -18.2448  -28.0908   20.8093 C   0  0  0  0  0  0  0  0  0  0  0  0
  -20.2348  -13.3371   24.3503 C   0  0  0  0  0  0  0  0  0  0  0  0
  -22.7146  -28.8999   22.8591 C   0  0  1  0  0  0  0  0  0  0  0  0
  -19.1758  -30.0215   22.0918 C   0  0  2  0  0  0  0  0  0  0  0  0
  -23.6775  -29.8087   23.6741 C   0  0  0  0  0  0  0  0  0  0  0  0
  -25.3273  -15.0108   20.2389 N   0  0  0  0  0  0  0  0  0  0  0  0
  -25.1555  -13.6810   20.3308 N   0  0  0  0  0  0  0  0  0  0  0  0
  -23.4319  -26.9022   21.5868 N   0  0  0  0  0  0  0  0  0  0  0  0
  -21.3682  -13.4881   20.8076 N   0  0  0  0  0  0  0  0  0  0  0  0
  -26.3279  -11.6377   20.5774 N   0  0  0  0  0  0  0  0  0  0  0  0
  -29.4677  -13.4299   19.4263 N   0  0  0  0  0  0  0  0  0  0  0  0
  -21.9497  -17.3327   26.7294 N   0  0  0  0  0  0  0  0  0  0  0  0
  -26.6288  -26.0668   20.2408 N   0  0  0  0  0  0  0  0  0  0  0  0
  -21.5165  -29.5789   22.3775 N   0  0  0  0  0  0  0  0  0  0  0  0
  -21.0013  -13.5520   23.1432 N   0  0  0  0  0  0  0  0  0  0  0  0
  -17.9754  -29.2056   21.7537 N   0  3  0  0  0  0  0  0  0  0  0  0
  -29.2987  -13.5927   21.7075 O   0  0  0  0  0  0  0  0  0  0  0  0
  -25.6665  -25.6899   22.3275 O   0  0  0  0  0  0  0  0  0  0  0  0
  -23.8286  -29.0498   20.7703 O   0  0  0  0  0  0  0  0  0  0  0  0
  -19.9928  -28.1800   23.4255 O   0  0  0  0  0  0  0  0  0  0  0  0
  -19.3812  -12.7385   21.7394 O   0  0  0  0  0  0  0  0  0  0  0  0
  -22.9681  -17.4512   24.3377 O   0  0  0  0  0  0  0  0  0  0  0  0
  -23.9740  -18.8108   26.1879 O   0  0  0  0  0  0  0  0  0  0  0  0
  -28.9556  -20.2420   20.0903 O   0  0  0  0  0  0  0  0  0  0  0  0
  -21.4162  -21.5370   23.8680 O   0  0  0  0  0  0  0  0  0  1  0  0
  -28.5258  -23.4573   24.5491 F   0  0  0  0  0  0  0  0  0  0  0  0
  -26.4794  -20.9790   21.0741 F   0  0  0  0  0  0  0  0  0  0  0  0
  -22.7906  -18.2681   25.5315 S   0  0  0  0  0  0  0  0  0  0  0  0
  1  2  1  0  0  0  0
  1  6  2  0  0  0  0
  2  7  2  0  0  0  0
  3  9  1  0  0  0  0
  3 10  2  0  0  0  0
  4 11  2  0  0  0  0
  4 19  1  0  0  0  0
  5 12  1  0  0  0  0
  5 19  2  0  0  0  0
  6 21  1  0  0  0  0
  7 23  1  0  0  0  0
  8 13  2  0  0  0  0
  8 22  1  0  0  0  0
  9 25  2  0  0  0  0
 10 26  1  0  0  0  0
 11 27  1  0  0  0  0
 12 27  2  0  0  0  0
 13 28  1  0  0  0  0
 14 15  2  0  0  0  0
 14 29  1  0  0  0  0
 15 30  1  0  0  0  0
 16 24  1  0  0  0  0
 16 28  2  0  0  0  0
 17 25  1  0  0  0  0
 17 26  2  0  0  0  0
 18 30  2  0  0  0  0
 18 31  1  0  0  0  0
 19 32  1  0  0  0  0
 20 32  1  0  0  0  0
 20 33  2  0  0  0  0
 20 36  1  0  0  0  0
 21 23  2  0  0  0  0
 21 41  1  0  0  0  0
 22 24  2  0  0  0  0
 22 42  1  0  0  0  0
 23 50  1  0  0  0  0
 24 43  1  0  0  0  0
 25 58  1  0  0  0  0
 26 68  1  0  0  0  0
 27 80  1  0  0  0  0
 28 81  1  0  0  0  0
 29 31  2  0  0  0  0
 29 80  1  0  0  0  0
 30 82  1  0  0  0  0
 31 83  1  0  0  0  0
 32 62  2  0  0  0  0
 33 63  1  0  0  0  0
 33 66  1  0  0  0  0
 34 35  2  0  0  0  0
 34 81  1  0  0  0  0
 35 84  1  0  0  0  0
 36 67  1  0  0  0  0
 36 73  2  0  0  0  0
 37 51  1  0  0  0  0
 37 69  1  0  0  0  0
 37 74  2  0  0  0  0
 38 59  1  0  0  0  0
 38 64  1  0  0  0  0
 38 75  2  0  0  0  0
 39 60  1  0  0  0  0
 39 70  1  0  0  0  0
 39 76  2  0  0  0  0
 40 65  1  0  0  0  0
 40 71  1  0  0  0  0
 40 77  2  0  0  0  0
 41 44  1  0  0  0  0
 42 51  1  0  0  0  0
 43 64  1  0  0  0  0
 44 46  1  0  0  0  0
 45 47  1  0  0  0  0
 45 48  1  0  0  0  0
 46 50  1  0  0  0  0
 47 52  1  0  0  0  0
 48 65  1  0  0  0  0
 49 52  1  0  0  0  0
 49 65  1  0  0  0  0
 50 69  1  0  0  0  0
 51 64  1  0  0  0  0
 52 63  1  0  0  0  0
 53 60  1  0  0  0  0
 54 61  1  0  0  0  0
 55 61  1  0  0  0  0
 56 61  1  0  0  0  0
 57 72  1  0  0  0  0
 58 71  1  0  0  0  0
 59 61  1  0  0  0  0
 59 70  1  0  0  0  0
 60 72  1  0  0  0  0
 62 63  1  0  0  0  0
 68 84  1  0  0  0  0
 78 84  2  0  0  0  0
 79 84  2  0  0  0  0
M  CHG  1  72   1
M  ISO  4  34 101  40 100  71 100  81 101
M  END
> <Batch ID>
0054

> <Smiles>
CNC(C)C(=O)NC(C(=O)N1Cc2cc([101O:1][101CH:1]=CS(=O)(=O)Nc3cccc(C[100NH:0][100C:0](=O)N4CCCC(n5nc(-c6ccc(Oc7ccc(F)cc7F)cc6)c(C(N)=O)c5N)C4)c3)ccc2CC1C(=O)NC1CCCc2ccccc21)C(C)(C)C

> <Shape>
0.227

> <Color>
0.068

> <Negative vol penalty>
0.000

$$$$

  -OEChem-04042322463D

 89 97  0     1  0  0  0  0  0999 V2000
  -32.9693  -26.4461   12.5728 C   0  0  0  0  0  0  0  0  0  0  0  0
  -32.7803  -25.6421   13.6923 C   0  0  0  0  0  0  0  0  0  0  0  0
  -23.0769   -9.8624   19.9486 C   0  0  0  0  0  0  0  0  0  0  0  0
  -23.8309   -9.8834   22.2439 C   0  0  0  0  0  0  0  0  0  0  0  0
  -33.8317  -27.5396   12.6389 C   0  0  0  0  0  0  0  0  0  0  0  0
  -33.4546  -25.9304   14.8783 C   0  0  0  0  0  0  0  0  0  0  0  0
  -30.4486  -25.6356   18.9431 C   0  0  0  0  0  0  0  0  0  0  0  0
  -32.6387  -17.5143   23.4403 C   0  0  0  0  0  0  0  0  0  0  0  0
  -32.0534  -16.6241   22.5400 C   0  0  0  0  0  0  0  0  0  0  0  0
  -22.3331   -8.7103   20.2034 C   0  0  0  0  0  0  0  0  0  0  0  0
  -23.0870   -8.7313   22.4987 C   0  0  0  0  0  0  0  0  0  0  0  0
  -30.1562  -24.3615   19.4276 C   0  0  0  0  0  0  0  0  0  0  0  0
  -22.9066   -5.3939   20.5155 C   0  0  0  0  0  0  0  0  0  0  0  0
  -22.9765   -4.3588   19.5832 C   0  0  0  0  0  0  0  0  0  0  0  0
  -31.8291  -24.6366   21.1437 C   0  0  0  0  0  0  0  0  0  0  0  0
  -29.8678  -17.4759   23.1186 C   0  0  0  0  0  0  0  0  0  0  0  0
  -20.5928   -4.5211   19.2243 C   0  0  0  0  0  0  0  0  0  0  0  0
  -23.8259  -10.4489   20.9688 C   0  0  0  0  0  0  0  0  0  0  0  0
  -24.1665  -12.9735   20.8347 C   0  0  0  0  0  0  0  0  0  0  0  0
  -34.5095  -27.8472   13.8291 C   0  0  0  0  0  0  0  0  0  0  0  0
  -31.4428  -26.4168   19.5495 C   0  0  0  0  0  0  0  0  0  0  0  0
  -34.3280  -27.0282   14.9600 C   0  0  0  0  0  0  0  0  0  0  0  0
  -32.1305  -25.9214   20.6665 C   0  0  0  0  0  0  0  0  0  0  0  0
  -31.8385  -18.3853   24.1799 C   0  0  0  0  0  0  0  0  0  0  0  0
  -30.6679  -16.6049   22.3791 C   0  0  0  0  0  0  0  0  0  0  0  0
  -22.3381   -8.1447   21.4785 C   0  0  0  0  0  0  0  0  0  0  0  0
  -30.8484  -23.8606   20.5263 C   0  0  0  0  0  0  0  0  0  0  0  0
  -21.6798   -5.9926   20.8023 C   0  0  0  0  0  0  0  0  0  0  0  0
  -21.8196   -3.9224   18.9376 C   0  0  0  0  0  0  0  0  0  0  0  0
  -20.5229   -5.5562   20.1567 C   0  0  0  0  0  0  0  0  0  0  0  0
  -30.4531  -18.3661   24.0190 C   0  0  0  0  0  0  0  0  0  0  0  0
  -24.5949  -11.6387   20.7060 C   0  0  0  0  0  0  0  0  0  0  0  0
  -25.2592  -13.7215   20.4698 C   0  0  0  0  0  0  0  0  0  0  0  0
  -22.8947  -13.4910   21.2472 C   0  0  0  0  0  0  0  0  0  0  0  0
  -34.2076  -27.6634   18.5980 C   0  0  0  0  0  0  0  0  0  0  0  0
  -34.1375  -29.0622   21.5238 C   0  0  0  0  0  0  0  0  0  0  0  0
  -29.7923  -21.3432   22.9035 C   0  0  0  0  0  0  0  0  0  0  0  0
  -32.9874  -29.0035   24.7364 C   0  0  0  0  0  0  0  0  0  0  0  0
  -30.7243  -14.7714   20.6525 C   0  0  0  0  0  0  0  0  0  0  0  0
  -35.4679  -29.0116   13.8386 C   0  0  0  0  0  0  0  0  0  0  0  0
  -31.7278  -27.7998   19.0313 C   0  0  0  0  0  0  0  0  0  0  0  0
  -33.1927  -26.7282   21.3659 C   0  0  0  0  0  0  0  0  0  0  0  0
  -35.8566  -29.4692   15.2421 C   0  0  0  0  0  0  0  0  0  0  0  0
  -29.6175  -12.3429   18.2957 C   0  0  0  0  0  0  0  0  0  0  0  0
  -36.2179  -28.2705   16.1135 C   0  0  0  0  0  0  0  0  0  0  0  0
  -28.1769  -12.0530   18.7232 C   0  0  0  0  0  0  0  0  0  0  0  0
  -30.5293  -12.5794   19.4983 C   0  0  0  0  0  0  0  0  0  0  0  0
  -28.6184  -13.3109   20.8703 C   0  0  0  0  0  0  0  0  0  0  0  0
  -35.0224  -27.3232   16.2718 C   0  0  1  0  0  0  0  0  0  0  0  0
  -33.1171  -28.3047   19.4086 C   0  0  1  0  0  0  0  0  0  0  0  0
  -27.6487  -13.1300   19.6910 C   0  0  2  0  0  0  0  0  0  0  0  0
  -32.4970  -19.3263   25.1350 C   0  0  0  0  0  0  0  0  0  0  0  0
  -33.1326  -30.2596   26.9040 C   0  0  0  0  0  0  0  0  0  0  0  0
  -29.6601  -23.7933   26.9882 C   0  0  0  0  0  0  0  0  0  0  0  0
  -28.3584  -23.4674   24.8612 C   0  0  0  0  0  0  0  0  0  0  0  0
  -36.9183  -27.9028   22.0066 C   0  0  0  0  0  0  0  0  0  0  0  0
  -36.6092  -28.3608   24.4485 C   0  0  0  0  0  0  0  0  0  0  0  0
  -36.6108  -30.2485   22.8177 C   0  0  0  0  0  0  0  0  0  0  0  0
  -30.0791  -29.5520   24.7472 C   0  0  0  0  0  0  0  0  0  0  0  0
  -30.7575  -22.3955   22.3974 C   0  0  0  0  0  0  0  0  0  1  0  0
  -30.3715  -21.9935   25.3369 C   0  0  0  0  0  0  0  0  0  0  0  0
  -34.6261  -28.6845   22.9014 C   0  0  1  0  0  0  0  0  0  0  0  0
  -32.3647  -30.0830   25.6033 C   0  0  2  0  0  0  0  0  0  0  0  0
  -29.2009  -22.7813   25.9375 C   0  0  0  0  0  0  0  0  0  0  0  0
  -36.1725  -28.7829   23.0294 C   0  0  0  0  0  0  0  0  0  0  0  0
  -25.8609  -11.5412   20.2916 N   0  0  0  0  0  0  0  0  0  0  0  0
  -26.2374  -12.8242   20.1566 N   0  0  0  0  0  0  0  0  0  0  0  0
  -33.4396  -28.0722   20.8179 N   0  0  0  0  0  0  0  0  0  0  0  0
  -29.9675  -13.6151   20.3681 N   0  0  0  0  0  0  0  0  0  0  0  0
  -25.4690  -15.0526   20.3894 N   0  0  0  0  0  0  0  0  0  0  0  0
  -21.8824  -12.5833   21.5873 N   0  0  0  0  0  0  0  0  0  0  0  0
  -30.0743  -15.7009   21.4637 N   0  0  0  0  0  0  0  0  0  0  0  0
  -34.0815  -27.8534   17.2351 N   0  0  0  0  0  0  0  0  0  0  0  0
  -33.8940  -29.5283   23.8397 N   0  0  0  0  0  0  0  0  0  0  0  0
  -29.9097  -21.0086   24.3122 N   0  0  0  0  0  0  0  0  0  0  0  0
  -30.9545  -29.7325   25.9339 N   0  3  0  0  0  0  0  0  0  0  0  0
  -22.6576  -14.7218   21.2967 O   0  0  0  0  0  0  0  0  0  0  0  0
  -35.0984  -27.0434   19.1670 O   0  0  0  0  0  0  0  0  0  0  0  0
  -34.3606  -30.1964   21.0930 O   0  0  0  0  0  0  0  0  0  0  0  0
  -28.9707  -20.8187   22.1562 O   0  0  0  0  0  0  0  0  0  0  0  0
  -32.7011  -27.8134   24.8464 O   0  0  0  0  0  0  0  0  0  0  0  0
  -31.8545  -14.9380   20.1868 O   0  0  0  0  0  0  0  0  0  0  0  0
  -29.7936  -19.3111   26.3307 O   0  0  0  0  0  0  0  0  0  0  0  0
  -28.0351  -19.2109   24.5415 O   0  0  0  0  0  0  0  0  0  0  0  0
  -21.6122   -7.0207   21.7276 O   0  0  0  0  0  0  0  0  0  0  0  0
  -30.5653  -22.6171   21.0008 O   0  0  0  0  0  0  0  0  0  1  0  0
  -21.8871   -2.9294   18.0411 F   0  0  0  0  0  0  0  0  0  0  0  0
  -19.3417   -6.1283   20.4272 F   0  0  0  0  0  0  0  0  0  0  0  0
  -29.4083  -19.4582   24.9401 S   0  0  0  0  0  0  0  0  0  0  0  0
  1  2  1  0  0  0  0
  1  5  2  0  0  0  0
  2  6  2  0  0  0  0
  3 10  2  0  0  0  0
  3 18  1  0  0  0  0
  4 11  1  0  0  0  0
  4 18  2  0  0  0  0
  5 20  1  0  0  0  0
  6 22  1  0  0  0  0
  7 12  2  0  0  0  0
  7 21  1  0  0  0  0
  8  9  2  0  0  0  0
  8 24  1  0  0  0  0
  9 25  1  0  0  0  0
 10 26  1  0  0  0  0
 11 26  2  0  0  0  0
 12 27  1  0  0  0  0
 13 14  2  0  0  0  0
 13 28  1  0  0  0  0
 14 29  1  0  0  0  0
 15 23  1  0  0  0  0
 15 27  2  0  0  0  0
 16 25  2  0  0  0  0
 16 31  1  0  0  0  0
 17 29  2  0  0  0  0
 17 30  1  0  0  0  0
 18 32  1  0  0  0  0
 19 32  1  0  0  0  0
 19 33  2  0  0  0  0
 19 34  1  0  0  0  0
 20 22  2  0  0  0  0
 20 40  1  0  0  0  0
 21 23  2  0  0  0  0
 21 41  1  0  0  0  0
 22 49  1  0  0  0  0
 23 42  1  0  0  0  0
 24 31  2  0  0  0  0
 24 52  1  0  0  0  0
 25 72  1  0  0  0  0
 26 85  1  0  0  0  0
 27 86  1  0  0  0  0
 28 30  2  0  0  0  0
 28 85  1  0  0  0  0
 29 87  1  0  0  0  0
 30 88  1  0  0  0  0
 31 89  1  0  0  0  0
 32 66  2  0  0  0  0
 33 67  1  0  0  0  0
 33 70  1  0  0  0  0
 34 71  1  0  0  0  0
 34 77  2  0  0  0  0
 35 50  1  0  0  0  0
 35 73  1  0  0  0  0
 35 78  2  0  0  0  0
 36 62  1  0  0  0  0
 36 68  1  0  0  0  0
 36 79  2  0  0  0  0
 37 60  1  0  0  0  0
 37 75  1  0  0  0  0
 37 80  2  0  0  0  0
 38 63  1  0  0  0  0
 38 74  1  0  0  0  0
 38 81  2  0  0  0  0
 39 69  1  0  0  0  0
 39 72  1  0  0  0  0
 39 82  2  0  0  0  0
 40 43  1  0  0  0  0
 41 50  1  0  0  0  0
 42 68  1  0  0  0  0
 43 45  1  0  0  0  0
 44 46  1  0  0  0  0
 44 47  1  0  0  0  0
 45 49  1  0  0  0  0
 46 51  1  0  0  0  0
 47 69  1  0  0  0  0
 48 51  1  0  0  0  0
 48 69  1  0  0  0  0
 49 73  1  0  0  0  0
 50 68  1  0  0  0  0
 51 67  1  0  0  0  0
 53 63  1  0  0  0  0
 54 64  1  0  0  0  0
 55 64  1  0  0  0  0
 56 65  1  0  0  0  0
 57 65  1  0  0  0  0
 58 65  1  0  0  0  0
 59 76  1  0  0  0  0
 60 86  1  0  0  0  0
 61 64  1  0  0  0  0
 61 75  1  0  0  0  0
 62 65  1  0  0  0  0
 62 74  1  0  0  0  0
 63 76  1  0  0  0  0
 66 67  1  0  0  0  0
 75 89  1  0  0  0  0
 83 89  2  0  0  0  0
 84 89  2  0  0  0  0
M  CHG  1  76   1
M  ISO  4  39 100  60 101  72 100  86 101
M  END
> <Batch ID>
0054

> <Smiles>
CNC(C)C(=O)NC(C(=O)N1Cc2cc([101O:1][101CH2:1]C(=O)N(CC(C)C)S(=O)(=O)c3cc([100NH:0][100C:0](=O)N4CCCC(n5nc(-c6ccc(Oc7ccc(F)cc7F)cc6)c(C(N)=O)c5N)C4)ccc3C)ccc2CC1C(=O)NC1CCCc2ccccc21)C(C)(C)C

> <Shape>
0.188

> <Color>
0.184

> <Negative vol penalty>
0.000

$$$$

  -OEChem-04042322463D

 86 94  0     1  0  0  0  0  0999 V2000
  -21.9126  -11.3538   19.8437 C   0  0  0  0  0  0  0  0  0  0  0  0
  -21.5896  -12.7034   19.9421 C   0  0  0  0  0  0  0  0  0  0  0  0
  -30.9713  -26.2388   18.6412 C   0  0  0  0  0  0  0  0  0  0  0  0
  -31.4569  -27.1017   20.8449 C   0  0  0  0  0  0  0  0  0  0  0  0
  -23.1862  -10.9150   20.2034 C   0  0  0  0  0  0  0  0  0  0  0  0
  -22.5398  -13.6149   20.4013 C   0  0  0  0  0  0  0  0  0  0  0  0
  -23.2586  -19.4167   18.5773 C   0  0  0  0  0  0  0  0  0  0  0  0
  -32.3081  -26.4077   18.2804 C   0  0  0  0  0  0  0  0  0  0  0  0
  -32.7937  -27.2706   20.4842 C   0  0  0  0  0  0  0  0  0  0  0  0
  -22.8398  -20.6299   19.1218 C   0  0  0  0  0  0  0  0  0  0  0  0
  -36.2596  -28.2661   20.0299 C   0  0  0  0  0  0  0  0  0  0  0  0
  -36.8799  -29.4645   20.3828 C   0  0  0  0  0  0  0  0  0  0  0  0
  -18.3708  -27.5593   21.2526 C   0  0  0  0  0  0  0  0  0  0  0  0
  -19.0449  -28.6481   21.8054 C   0  0  0  0  0  0  0  0  0  0  0  0
  -24.9902  -20.8886   20.1839 C   0  0  0  0  0  0  0  0  0  0  0  0
  -20.2458  -27.1566   23.2786 C   0  0  0  0  0  0  0  0  0  0  0  0
  -35.2589  -30.6887   19.0748 C   0  0  0  0  0  0  0  0  0  0  0  0
  -30.5457  -26.5858   19.9234 C   0  0  0  0  0  0  0  0  0  0  0  0
  -28.5773  -25.2702   20.8732 C   0  0  0  0  0  0  0  0  0  0  0  0
  -24.1555  -11.8229   20.6582 C   0  0  0  0  0  0  0  0  0  0  0  0
  -24.5448  -18.9243   18.8413 C   0  0  0  0  0  0  0  0  0  0  0  0
  -23.8271  -13.1876   20.7688 C   0  0  0  0  0  0  0  0  0  0  0  0
  -25.4238  -19.6702   19.6394 C   0  0  0  0  0  0  0  0  0  0  0  0
  -19.5716  -26.0678   22.7258 C   0  0  0  0  0  0  0  0  0  0  0  0
  -33.2193  -26.9236   19.2020 C   0  0  0  0  0  0  0  0  0  0  0  0
  -23.7046  -21.3647   19.9277 C   0  0  0  0  0  0  0  0  0  0  0  0
  -35.1390  -28.2789   19.1993 C   0  0  0  0  0  0  0  0  0  0  0  0
  -36.3796  -30.6758   19.9053 C   0  0  0  0  0  0  0  0  0  0  0  0
  -18.6340  -26.2691   21.7128 C   0  0  0  0  0  0  0  0  0  0  0  0
  -34.6386  -29.4903   18.7218 C   0  0  0  0  0  0  0  0  0  0  0  0
  -19.9824  -28.4468   22.8183 C   0  0  0  0  0  0  0  0  0  0  0  0
  -29.1648  -26.4121   20.2964 C   0  0  0  0  0  0  0  0  0  0  0  0
  -27.2556  -25.6078   21.0332 C   0  0  0  0  0  0  0  0  0  0  0  0
  -29.1730  -24.0165   21.2324 C   0  0  0  0  0  0  0  0  0  0  0  0
  -25.7047  -16.3298   20.2650 C   0  0  0  0  0  0  0  0  0  0  0  0
  -28.5427  -17.4976   19.2141 C   0  0  0  0  0  0  0  0  0  0  0  0
  -21.6880  -23.6489   21.8933 C   0  0  0  0  0  0  0  0  0  0  0  0
  -30.3725  -20.1996   18.2152 C   0  0  0  0  0  0  0  0  0  0  0  0
  -23.3996  -29.1303   22.6425 C   0  0  0  0  0  0  0  0  0  0  0  0
  -25.5036  -11.2947   21.0803 C   0  0  0  0  0  0  0  0  0  0  0  0
  -24.9906  -17.6269   18.2245 C   0  0  0  0  0  0  0  0  0  0  0  0
  -26.8219  -19.1952   19.9367 C   0  0  0  0  0  0  0  0  0  0  0  0
  -26.5716  -12.3786   21.2021 C   0  0  0  0  0  0  0  0  0  0  0  0
  -24.6235  -29.5508   19.2754 C   0  0  0  0  0  0  0  0  0  0  0  0
  -26.0287  -13.5790   21.9709 C   0  0  0  0  0  0  0  0  0  0  0  0
  -25.8764  -28.6738   19.2933 C   0  0  0  0  0  0  0  0  0  0  0  0
  -24.4342  -30.2797   20.6033 C   0  0  0  0  0  0  0  0  0  0  0  0
  -25.6553  -28.5119   21.8127 C   0  0  0  0  0  0  0  0  0  0  0  0
  -24.8384  -14.2105   21.2390 C   0  0  1  0  0  0  0  0  0  0  0  0
  -26.1432  -16.9715   18.9791 C   0  0  1  0  0  0  0  0  0  0  0  0
  -25.8775  -27.7271   20.5077 C   0  0  2  0  0  0  0  0  0  0  0  0
  -32.6742  -20.8475   17.4537 C   0  0  0  0  0  0  0  0  0  0  0  0
  -29.5479  -17.2947   22.0878 C   0  0  0  0  0  0  0  0  0  0  0  0
  -31.4451  -18.8016   21.4569 C   0  0  0  0  0  0  0  0  0  0  0  0
  -31.1997  -16.5787   20.3519 C   0  0  0  0  0  0  0  0  0  0  0  0
  -29.3650  -21.1545   15.6014 C   0  0  0  0  0  0  0  0  0  0  0  0
  -19.8577  -24.6807   23.2240 C   0  0  0  0  0  0  0  0  0  0  0  0
  -21.9063  -22.6911   20.7415 C   0  0  0  0  0  0  0  0  0  1  0  0
  -29.5852  -18.4360   19.7722 C   0  0  1  0  0  0  0  0  0  0  0  0
  -31.2829  -20.4133   17.0194 C   0  0  2  0  0  0  0  0  0  0  0  0
  -30.4175  -17.7861   20.9134 C   0  0  0  0  0  0  0  0  0  0  0  0
  -28.2882  -27.4011   20.1029 N   0  0  0  0  0  0  0  0  0  0  0  0
  -27.1364  -26.8816   20.5606 N   0  0  0  0  0  0  0  0  0  0  0  0
  -27.2089  -17.9177   19.3157 N   0  0  0  0  0  0  0  0  0  0  0  0
  -24.4387  -29.3257   21.7183 N   0  0  0  0  0  0  0  0  0  0  0  0
  -26.1953  -24.9363   21.5305 N   0  0  0  0  0  0  0  0  0  0  0  0
  -30.5434  -23.8370   20.9999 N   0  0  0  0  0  0  0  0  0  0  0  0
  -25.2978  -15.0164   20.1282 N   0  0  0  0  0  0  0  0  0  0  0  0
  -20.3406  -23.8170   22.1714 N   0  0  0  0  0  0  0  0  0  0  0  0
  -30.3801  -18.8862   18.6347 N   0  0  0  0  0  0  0  0  0  0  0  0
  -22.2081  -29.9211   22.4935 N   0  0  0  0  0  0  0  0  0  0  0  0
  -30.7218  -21.4625   16.1221 N   0  3  0  0  0  0  0  0  0  0  0  0
  -28.5063  -23.0772   21.7292 O   0  0  0  0  0  0  0  0  0  0  0  0
  -25.7348  -16.9778   21.3046 O   0  0  0  0  0  0  0  0  0  0  0  0
  -28.8992  -16.4344   18.7002 O   0  0  0  0  0  0  0  0  0  0  0  0
  -22.6134  -24.1953   22.4874 O   0  0  0  0  0  0  0  0  0  0  0  0
  -29.7226  -21.1079   18.7283 O   0  0  0  0  0  0  0  0  0  0  0  0
  -23.4801  -28.3063   23.5544 O   0  0  0  0  0  0  0  0  0  0  0  0
  -19.9966  -30.9899   23.3007 O   0  0  0  0  0  0  0  0  0  0  0  0
  -21.2605  -29.4660   24.8575 O   0  0  0  0  0  0  0  0  0  0  0  0
  -34.5238  -27.0884   18.8504 O   0  0  0  0  0  0  0  0  0  0  0  0
  -23.2982  -22.5488   20.4610 O   0  0  0  0  0  0  0  0  0  1  0  0
  -36.9744  -31.8267   20.2456 F   0  0  0  0  0  0  0  0  0  0  0  0
  -17.9816  -25.2292   21.1750 F   0  0  0  0  0  0  0  0  0  0  0  0
  -33.5617  -29.5091   17.9246 F   0  0  0  0  0  0  0  0  0  0  0  0
  -20.8353  -29.8271   23.5189 S   0  0  0  0  0  0  0  0  0  0  0  0
  1  2  1  0  0  0  0
  1  5  2  0  0  0  0
  2  6  2  0  0  0  0
  3  8  2  0  0  0  0
  3 18  1  0  0  0  0
  4  9  1  0  0  0  0
  4 18  2  0  0  0  0
  5 20  1  0  0  0  0
  6 22  1  0  0  0  0
  7 10  2  0  0  0  0
  7 21  1  0  0  0  0
  8 25  1  0  0  0  0
  9 25  2  0  0  0  0
 10 26  1  0  0  0  0
 11 12  2  0  0  0  0
 11 27  1  0  0  0  0
 12 28  1  0  0  0  0
 13 14  2  0  0  0  0
 13 29  1  0  0  0  0
 14 31  1  0  0  0  0
 15 23  1  0  0  0  0
 15 26  2  0  0  0  0
 16 24  1  0  0  0  0
 16 31  2  0  0  0  0
 17 28  2  0  0  0  0
 17 30  1  0  0  0  0
 18 32  1  0  0  0  0
 19 32  1  0  0  0  0
 19 33  2  0  0  0  0
 19 34  1  0  0  0  0
 20 22  2  0  0  0  0
 20 40  1  0  0  0  0
 21 23  2  0  0  0  0
 21 41  1  0  0  0  0
 22 49  1  0  0  0  0
 23 42  1  0  0  0  0
 24 29  2  0  0  0  0
 24 57  1  0  0  0  0
 25 81  1  0  0  0  0
 26 82  1  0  0  0  0
 27 30  2  0  0  0  0
 27 81  1  0  0  0  0
 28 83  1  0  0  0  0
 29 84  1  0  0  0  0
 30 85  1  0  0  0  0
 31 86  1  0  0  0  0
 32 62  2  0  0  0  0
 33 63  1  0  0  0  0
 33 66  1  0  0  0  0
 34 67  1  0  0  0  0
 34 73  2  0  0  0  0
 35 50  1  0  0  0  0
 35 68  1  0  0  0  0
 35 74  2  0  0  0  0
 36 59  1  0  0  0  0
 36 64  1  0  0  0  0
 36 75  2  0  0  0  0
 37 58  1  0  0  0  0
 37 69  1  0  0  0  0
 37 76  2  0  0  0  0
 38 60  1  0  0  0  0
 38 70  1  0  0  0  0
 38 77  2  0  0  0  0
 39 65  1  0  0  0  0
 39 71  1  0  0  0  0
 39 78  2  0  0  0  0
 40 43  1  0  0  0  0
 41 50  1  0  0  0  0
 42 64  1  0  0  0  0
 43 45  1  0  0  0  0
 44 46  1  0  0  0  0
 44 47  1  0  0  0  0
 45 49  1  0  0  0  0
 46 51  1  0  0  0  0
 47 65  1  0  0  0  0
 48 51  1  0  0  0  0
 48 65  1  0  0  0  0
 49 68  1  0  0  0  0
 50 64  1  0  0  0  0
 51 63  1  0  0  0  0
 52 60  1  0  0  0  0
 53 61  1  0  0  0  0
 54 61  1  0  0  0  0
 55 61  1  0  0  0  0
 56 72  1  0  0  0  0
 57 69  1  0  0  0  0
 58 82  1  0  0  0  0
 59 61  1  0  0  0  0
 59 70  1  0  0  0  0
 60 72  1  0  0  0  0
 62 63  1  0  0  0  0
 71 86  1  0  0  0  0
 79 86  2  0  0  0  0
 80 86  2  0  0  0  0
M  CHG  1  72   1
M  ISO  4  39 100  58 101  71 100  82 101
M  END
> <Batch ID>
0054

> <Smiles>
CNC(C)C(=O)NC(C(=O)N1Cc2cc([101O:1][101CH2:1]C(=O)NCc3cc(S(=O)(=O)[100NH:0][100C:0](=O)N4CCCC(n5nc(-c6ccc(Oc7ccc(F)cc7F)cc6)c(C(N)=O)c5N)C4)ccc3F)ccc2CC1C(=O)NC1CCCc2ccccc21)C(C)(C)C

> <Shape>
0.241

> <Color>
0.090

> <Negative vol penalty>
0.000

$$$$

  -OEChem-04042322463D

 84 92  0     1  0  0  0  0  0999 V2000
  -17.3147  -13.1310   20.9774 C   0  0  0  0  0  0  0  0  0  0  0  0
  -18.1307  -14.2500   20.8452 C   0  0  0  0  0  0  0  0  0  0  0  0
  -21.8553  -30.0050   20.9154 C   0  0  0  0  0  0  0  0  0  0  0  0
  -22.9840  -27.9704   21.5662 C   0  0  0  0  0  0  0  0  0  0  0  0
  -17.7758  -12.0111   21.6681 C   0  0  0  0  0  0  0  0  0  0  0  0
  -19.4080  -14.2500   21.4046 C   0  0  0  0  0  0  0  0  0  0  0  0
  -24.4145  -16.9624   19.1498 C   0  0  0  0  0  0  0  0  0  0  0  0
  -20.6368  -29.4574   21.3167 C   0  0  0  0  0  0  0  0  0  0  0  0
  -21.7656  -27.4228   21.9677 C   0  0  0  0  0  0  0  0  0  0  0  0
  -25.0364  -18.1754   19.4423 C   0  0  0  0  0  0  0  0  0  0  0  0
  -18.9764  -28.9313   24.2149 C   0  0  0  0  0  0  0  0  0  0  0  0
  -18.1223  -29.7345   24.9705 C   0  0  0  0  0  0  0  0  0  0  0  0
  -26.5488  -17.0334   20.9347 C   0  0  0  0  0  0  0  0  0  0  0  0
  -30.7918  -25.2862   18.1563 C   0  0  0  0  0  0  0  0  0  0  0  0
  -29.9802  -23.3726   19.3878 C   0  0  0  0  0  0  0  0  0  0  0  0
  -16.4240  -29.5343   23.2638 C   0  0  0  0  0  0  0  0  0  0  0  0
  -23.0289  -29.2615   21.0401 C   0  0  0  0  0  0  0  0  0  0  0  0
  -25.1841  -30.5749   21.4113 C   0  0  0  0  0  0  0  0  0  0  0  0
  -19.0630  -11.9938   22.2279 C   0  0  0  0  0  0  0  0  0  0  0  0
  -24.8488  -15.7753   19.7570 C   0  0  0  0  0  0  0  0  0  0  0  0
  -19.8863  -13.1293   22.1046 C   0  0  0  0  0  0  0  0  0  0  0  0
  -25.9324  -15.8062   20.6463 C   0  0  0  0  0  0  0  0  0  0  0  0
  -29.6933  -25.2016   17.3009 C   0  0  0  0  0  0  0  0  0  0  0  0
  -28.7382  -24.2026   17.4890 C   0  0  0  0  0  0  0  0  0  0  0  0
  -28.8816  -23.2881   18.5325 C   0  0  0  0  0  0  0  0  0  0  0  0
  -20.5920  -28.1664   21.8429 C   0  0  0  0  0  0  0  0  0  0  0  0
  -26.1018  -18.2115   20.3370 C   0  0  0  0  0  0  0  0  0  0  0  0
  -18.5544  -28.4297   22.9836 C   0  0  0  0  0  0  0  0  0  0  0  0
  -16.8461  -30.0360   24.4950 C   0  0  0  0  0  0  0  0  0  0  0  0
  -17.2782  -28.7312   22.5081 C   0  0  0  0  0  0  0  0  0  0  0  0
  -30.9353  -24.3716   19.1997 C   0  0  0  0  0  0  0  0  0  0  0  0
  -24.2878  -29.8263   20.6251 C   0  0  0  0  0  0  0  0  0  0  0  0
  -26.2190  -30.8757   20.5599 C   0  0  0  0  0  0  0  0  0  0  0  0
  -25.0896  -30.9635   22.7882 C   0  0  0  0  0  0  0  0  0  0  0  0
  -23.5239  -13.6315   21.6941 C   0  0  0  0  0  0  0  0  0  0  0  0
  -26.3070  -12.0403   21.1996 C   0  0  0  0  0  0  0  0  0  0  0  0
  -27.9309  -21.2893   19.7304 C   0  0  0  0  0  0  0  0  0  0  0  0
  -29.6094  -12.1744   20.3494 C   0  0  0  0  0  0  0  0  0  0  0  0
  -28.3127  -28.2537   15.6008 C   0  0  0  0  0  0  0  0  0  0  0  0
  -19.4998  -10.7780   23.0063 C   0  0  0  0  0  0  0  0  0  0  0  0
  -24.1846  -14.4710   19.4105 C   0  0  0  0  0  0  0  0  0  0  0  0
  -26.4500  -14.5568   21.3094 C   0  0  0  0  0  0  0  0  0  0  0  0
  -21.0060  -10.7177   23.2471 C   0  0  0  0  0  0  0  0  0  0  0  0
  -27.1644  -31.6081   15.9274 C   0  0  0  0  0  0  0  0  0  0  0  0
  -21.5241  -12.0690   23.7291 C   0  0  0  0  0  0  0  0  0  0  0  0
  -26.3779  -31.5993   17.2393 C   0  0  0  0  0  0  0  0  0  0  0  0
  -26.9909  -30.3012   15.1566 C   0  0  0  0  0  0  0  0  0  0  0  0
  -26.5126  -29.0733   17.2393 C   0  0  0  0  0  0  0  0  0  0  0  0
  -21.2872  -13.1582   22.6761 C   0  0  1  0  0  0  0  0  0  0  0  0
  -24.3775  -13.3998   20.4795 C   0  0  1  0  0  0  0  0  0  0  0  0
  -26.7011  -30.3486   18.0786 C   0  0  2  0  0  0  0  0  0  0  0  0
  -27.5611  -24.1158   16.5689 C   0  0  0  0  0  0  0  0  0  0  0  0
  -31.6324  -10.7161   20.0701 C   0  0  0  0  0  0  0  0  0  0  0  0
  -26.6153  -11.8915   24.2315 C   0  0  0  0  0  0  0  0  0  0  0  0
  -29.0256  -11.3075   23.8879 C   0  0  0  0  0  0  0  0  0  0  0  0
  -27.2417   -9.7980   23.0152 C   0  0  0  0  0  0  0  0  0  0  0  0
  -29.8569  -12.8680   17.4829 C   0  0  0  0  0  0  0  0  0  0  0  0
  -29.5633  -26.1931   16.1915 C   0  0  0  0  0  0  0  0  0  0  0  0
  -26.7180  -20.3869   19.5995 C   0  0  0  0  0  0  0  0  0  1  0  0
  -27.6580  -12.0146   21.8728 C   0  0  1  0  0  0  0  0  0  0  0  0
  -30.4341  -11.3481   19.3791 C   0  0  2  0  0  0  0  0  0  0  0  0
  -27.6244  -11.2769   23.2410 C   0  0  0  0  0  0  0  0  0  0  0  0
  -24.7158  -29.6618   19.3706 N   0  0  0  0  0  0  0  0  0  0  0  0
  -25.8923  -30.3113   19.3621 N   0  0  0  0  0  0  0  0  0  0  0  0
  -25.7634  -13.3070   20.9431 N   0  0  0  0  0  0  0  0  0  0  0  0
  -27.3147  -29.1543   16.0085 N   0  0  0  0  0  0  0  0  0  0  0  0
  -27.3675  -31.5653   20.7266 N   0  0  0  0  0  0  0  0  0  0  0  0
  -23.9590  -30.5704   23.5173 N   0  0  0  0  0  0  0  0  0  0  0  0
  -27.9248  -22.2666   18.7410 N   0  0  0  0  0  0  0  0  0  0  0  0
  -22.2685  -13.0592   21.6170 N   0  0  0  0  0  0  0  0  0  0  0  0
  -28.5851  -11.4376   20.9054 N   0  0  0  0  0  0  0  0  0  0  0  0
  -28.5616  -27.1981   16.4694 N   0  0  0  0  0  0  0  0  0  0  0  0
  -30.9313  -12.2023   18.2637 N   0  3  0  0  0  0  0  0  0  0  0  0
  -25.9736  -31.6532   23.3507 O   0  0  0  0  0  0  0  0  0  0  0  0
  -23.9715  -14.2802   22.6324 O   0  0  0  0  0  0  0  0  0  0  0  0
  -25.7575  -10.9758   20.9055 O   0  0  0  0  0  0  0  0  0  0  0  0
  -28.7646  -21.1209   20.6143 O   0  0  0  0  0  0  0  0  0  0  0  0
  -29.8520  -13.3545   20.5927 O   0  0  0  0  0  0  0  0  0  0  0  0
  -28.9393  -28.3839   14.5438 O   0  0  0  0  0  0  0  0  0  0  0  0
  -19.4032  -27.6318   22.2349 O   0  0  0  0  0  0  0  0  0  0  0  0
  -26.7102  -19.3943   20.6247 O   0  0  0  0  0  0  0  0  0  1  0  0
  -16.0255  -30.8060   25.2215 F   0  0  0  0  0  0  0  0  0  0  0  0
  -16.8667  -28.2512   21.3265 F   0  0  0  0  0  0  0  0  0  0  0  0
  -32.2914  -24.4755   20.2542 Cl  0  0  0  0  0  0  0  0  0  0  0  0
  1  2  1  0  0  0  0
  1  5  2  0  0  0  0
  2  6  2  0  0  0  0
  3  8  2  0  0  0  0
  3 17  1  0  0  0  0
  4  9  1  0  0  0  0
  4 17  2  0  0  0  0
  5 19  1  0  0  0  0
  6 21  1  0  0  0  0
  7 10  2  0  0  0  0
  7 20  1  0  0  0  0
  8 26  1  0  0  0  0
  9 26  2  0  0  0  0
 10 27  1  0  0  0  0
 11 12  2  0  0  0  0
 11 28  1  0  0  0  0
 12 29  1  0  0  0  0
 13 22  1  0  0  0  0
 13 27  2  0  0  0  0
 14 23  2  0  0  0  0
 14 31  1  0  0  0  0
 15 25  1  0  0  0  0
 15 31  2  0  0  0  0
 16 29  2  0  0  0  0
 16 30  1  0  0  0  0
 17 32  1  0  0  0  0
 18 32  1  0  0  0  0
 18 33  2  0  0  0  0
 18 34  1  0  0  0  0
 19 21  2  0  0  0  0
 19 40  1  0  0  0  0
 20 22  2  0  0  0  0
 20 41  1  0  0  0  0
 21 49  1  0  0  0  0
 22 42  1  0  0  0  0
 23 24  1  0  0  0  0
 23 58  1  0  0  0  0
 24 25  2  0  0  0  0
 24 52  1  0  0  0  0
 25 69  1  0  0  0  0
 26 80  1  0  0  0  0
 27 81  1  0  0  0  0
 28 30  2  0  0  0  0
 28 80  1  0  0  0  0
 29 82  1  0  0  0  0
 30 83  1  0  0  0  0
 31 84  1  0  0  0  0
 32 63  2  0  0  0  0
 33 64  1  0  0  0  0
 33 67  1  0  0  0  0
 34 68  1  0  0  0  0
 34 74  2  0  0  0  0
 35 50  1  0  0  0  0
 35 70  1  0  0  0  0
 35 75  2  0  0  0  0
 36 60  1  0  0  0  0
 36 65  1  0  0  0  0
 36 76  2  0  0  0  0
 37 59  1  0  0  0  0
 37 69  1  0  0  0  0
 37 77  2  0  0  0  0
 38 61  1  0  0  0  0
 38 71  1  0  0  0  0
 38 78  2  0  0  0  0
 39 66  1  0  0  0  0
 39 72  1  0  0  0  0
 39 79  2  0  0  0  0
 40 43  1  0  0  0  0
 41 50  1  0  0  0  0
 42 65  1  0  0  0  0
 43 45  1  0  0  0  0
 44 46  1  0  0  0  0
 44 47  1  0  0  0  0
 45 49  1  0  0  0  0
 46 51  1  0  0  0  0
 47 66  1  0  0  0  0
 48 51  1  0  0  0  0
 48 66  1  0  0  0  0
 49 70  1  0  0  0  0
 50 65  1  0  0  0  0
 51 64  1  0  0  0  0
 53 61  1  0  0  0  0
 54 62  1  0  0  0  0
 55 62  1  0  0  0  0
 56 62  1  0  0  0  0
 57 73  1  0  0  0  0
 58 72  1  0  0  0  0
 59 81  1  0  0  0  0
 60 62  1  0  0  0  0
 60 71  1  0  0  0  0
 61 73  1  0  0  0  0
 63 64  1  0  0  0  0
M  CHG  1  73   1
M  ISO  4  39 100  59 101  72 100  81 101
M  END
> <Batch ID>
0054

> <Smiles>
CNC(C)C(=O)NC(C(=O)N1Cc2cc([101O:1][101CH2:1]C(=O)Nc3cc(Cl)cc(C[100NH:0][100C:0](=O)N4CCCC(n5nc(-c6ccc(Oc7ccc(F)cc7F)cc6)c(C(N)=O)c5N)C4)c3C)ccc2CC1C(=O)NC1CCCc2ccccc21)C(C)(C)C

> <Shape>
0.269

> <Color>
0.056

> <Negative vol penalty>
0.000

$$$$

  -OEChem-04042322463D

 85 93  0     1  0  0  0  0  0999 V2000
  -27.3828  -32.5066   27.7005 C   0  0  0  0  0  0  0  0  0  0  0  0
  -27.6047  -31.4306   26.8472 C   0  0  0  0  0  0  0  0  0  0  0  0
  -26.2198  -11.8284   21.3327 C   0  0  0  0  0  0  0  0  0  0  0  0
  -25.6514  -13.2135   19.4365 C   0  0  0  0  0  0  0  0  0  0  0  0
  -26.0945  -33.0159   27.8580 C   0  0  0  0  0  0  0  0  0  0  0  0
  -26.5381  -30.8623   26.1516 C   0  0  0  0  0  0  0  0  0  0  0  0
  -27.6445  -29.9677   21.2915 C   0  0  0  0  0  0  0  0  0  0  0  0
  -31.0660  -22.0111   18.5913 C   0  0  0  0  0  0  0  0  0  0  0  0
  -29.8469  -20.9164   16.8158 C   0  0  0  0  0  0  0  0  0  0  0  0
  -31.3623  -20.7694   19.1535 C   0  0  0  0  0  0  0  0  0  0  0  0
  -30.1433  -19.6746   17.3780 C   0  0  0  0  0  0  0  0  0  0  0  0
  -24.8647  -11.6679   21.6216 C   0  0  0  0  0  0  0  0  0  0  0  0
  -24.2963  -13.0530   19.7254 C   0  0  0  0  0  0  0  0  0  0  0  0
  -28.4176  -28.8418   21.0113 C   0  0  0  0  0  0  0  0  0  0  0  0
  -22.0448  -14.3283   21.9015 C   0  0  0  0  0  0  0  0  0  0  0  0
  -21.2349  -15.4632   21.8620 C   0  0  0  0  0  0  0  0  0  0  0  0
  -26.4229  -27.6328   20.3959 C   0  0  0  0  0  0  0  0  0  0  0  0
  -19.8871  -14.4414   20.1368 C   0  0  0  0  0  0  0  0  0  0  0  0
  -26.6132  -12.6013   20.2401 C   0  0  0  0  0  0  0  0  0  0  0  0
  -28.8072  -11.9559   19.1100 C   0  0  0  0  0  0  0  0  0  0  0  0
  -25.0131  -32.4598   27.1566 C   0  0  0  0  0  0  0  0  0  0  0  0
  -26.2513  -29.9311   21.1361 C   0  0  0  0  0  0  0  0  0  0  0  0
  -25.2339  -31.3637   26.3008 C   0  0  0  0  0  0  0  0  0  0  0  0
  -25.6347  -28.7603   20.6723 C   0  0  0  0  0  0  0  0  0  0  0  0
  -30.3082  -22.0846   17.4225 C   0  0  0  0  0  0  0  0  0  0  0  0
  -30.9010  -19.6012   18.5468 C   0  0  0  0  0  0  0  0  0  0  0  0
  -23.9029  -12.2802   20.8180 C   0  0  0  0  0  0  0  0  0  0  0  0
  -27.8066  -27.6732   20.5662 C   0  0  0  0  0  0  0  0  0  0  0  0
  -21.7759  -13.2499   21.0585 C   0  0  0  0  0  0  0  0  0  0  0  0
  -20.1560  -15.5198   20.9797 C   0  0  0  0  0  0  0  0  0  0  0  0
  -20.6971  -13.3065   20.1762 C   0  0  0  0  0  0  0  0  0  0  0  0
  -28.0128  -12.7679   19.9415 C   0  0  0  0  0  0  0  0  0  0  0  0
  -30.0532  -12.5321   19.1563 C   0  0  0  0  0  0  0  0  0  0  0  0
  -26.1346  -25.6138   16.1765 C   0  0  0  0  0  0  0  0  0  0  0  0
  -27.1798  -24.7844   16.0794 C   0  0  0  0  0  0  0  0  0  0  0  0
  -28.4507  -10.7855   18.3625 C   0  0  0  0  0  0  0  0  0  0  0  0
  -23.7667  -30.2777   23.0882 C   0  0  0  0  0  0  0  0  0  0  0  0
  -22.0710  -30.1058   20.3282 C   0  0  0  0  0  0  0  0  0  0  0  0
  -29.2414  -25.0161   18.5920 C   0  0  0  0  0  0  0  0  0  0  0  0
  -21.9156  -29.0587   17.0838 C   0  0  0  0  0  0  0  0  0  0  0  0
  -31.9415  -18.0901   20.2731 C   0  0  0  0  0  0  0  0  0  0  0  0
  -23.6309  -33.0140   27.3954 C   0  0  0  0  0  0  0  0  0  0  0  0
  -25.4343  -31.1623   21.4170 C   0  0  0  0  0  0  0  0  0  0  0  0
  -24.1447  -28.6756   20.4696 C   0  0  0  0  0  0  0  0  0  0  0  0
  -22.6152  -32.5951   26.3355 C   0  0  0  0  0  0  0  0  0  0  0  0
  -32.8719  -15.1329   22.0242 C   0  0  0  0  0  0  0  0  0  0  0  0
  -22.7207  -31.0991   26.0569 C   0  0  0  0  0  0  0  0  0  0  0  0
  -31.8072  -14.1152   21.6084 C   0  0  0  0  0  0  0  0  0  0  0  0
  -32.2859  -16.5350   22.1805 C   0  0  0  0  0  0  0  0  0  0  0  0
  -30.4678  -16.0082   20.6037 C   0  0  0  0  0  0  0  0  0  0  0  0
  -24.1065  -30.7361   25.5100 C   0  0  1  0  0  0  0  0  0  0  0  0
  -23.9705  -30.8529   21.7151 C   0  0  1  0  0  0  0  0  0  0  0  0
  -31.0232  -14.5937   20.3707 C   0  0  2  0  0  0  0  0  0  0  0  0
  -20.3867  -29.0304   15.0941 C   0  0  0  0  0  0  0  0  0  0  0  0
  -20.4420  -27.8695   21.6148 C   0  0  0  0  0  0  0  0  0  0  0  0
  -19.6134  -27.2553   19.3335 C   0  0  0  0  0  0  0  0  0  0  0  0
  -19.0988  -29.5045   20.2818 C   0  0  0  0  0  0  0  0  0  0  0  0
  -23.8191  -30.6322   15.4529 C   0  0  0  0  0  0  0  0  0  0  0  0
  -29.9893  -23.4212   16.8175 C   0  0  0  0  0  0  0  0  0  0  0  0
  -27.5814  -23.8219   17.1486 C   0  0  0  0  0  0  0  0  0  0  0  0
  -28.0738  -25.6893   19.2822 C   0  0  0  0  0  0  0  0  0  1  0  0
  -21.4540  -28.9898   19.5203 C   0  0  1  0  0  0  0  0  0  0  0  0
  -21.5002  -29.7767   15.8124 C   0  0  2  0  0  0  0  0  0  0  0  0
  -20.1799  -28.4054   20.1932 C   0  0  0  0  0  0  0  0  0  0  0  0
  -28.6968  -13.7826   20.4770 N   0  0  0  0  0  0  0  0  0  0  0  0
  -29.9341  -13.6119   19.9809 N   0  0  0  0  0  0  0  0  0  0  0  0
  -23.3883  -29.9039   20.7639 N   0  0  0  0  0  0  0  0  0  0  0  0
  -31.5613  -16.9226   20.9682 N   0  0  0  0  0  0  0  0  0  0  0  0
  -31.2281  -12.2152   18.5718 N   0  0  0  0  0  0  0  0  0  0  0  0
  -27.1271  -10.3291   18.4268 N   0  0  0  0  0  0  0  0  0  0  0  0
  -31.2021  -18.3397   19.1175 N   0  0  0  0  0  0  0  0  0  0  0  0
  -24.2079  -31.0947   24.1116 N   0  0  0  0  0  0  0  0  0  0  0  0
  -21.2298  -29.5293   18.1835 N   0  0  0  0  0  0  0  0  0  0  0  0
  -28.9500  -24.1224   17.5610 N   0  0  0  0  0  0  0  0  0  0  0  0
  -22.6594  -29.8985   14.8839 N   0  3  0  0  0  0  0  0  0  0  0  0
  -29.2852  -10.1534   17.6714 O   0  0  0  0  0  0  0  0  0  0  0  0
  -23.2464  -29.1749   23.2102 O   0  0  0  0  0  0  0  0  0  0  0  0
  -21.4111  -31.1223   20.5580 O   0  0  0  0  0  0  0  0  0  0  0  0
  -30.3872  -25.2897   18.9623 O   0  0  0  0  0  0  0  0  0  0  0  0
  -22.7611  -28.1668   17.0992 O   0  0  0  0  0  0  0  0  0  0  0  0
  -32.8736  -18.8004   20.6587 O   0  0  0  0  0  0  0  0  0  0  0  0
  -22.5805  -12.1236   21.0995 O   0  0  0  0  0  0  0  0  0  0  0  0
  -28.5588  -26.5727   20.2926 O   0  0  0  0  0  0  0  0  0  1  0  0
  -19.3774  -16.6091   20.9430 F   0  0  0  0  0  0  0  0  0  0  0  0
  -20.4331  -12.2731   19.3649 F   0  0  0  0  0  0  0  0  0  0  0  0
  1  2  1  0  0  0  0
  1  5  2  0  0  0  0
  2  6  2  0  0  0  0
  3 12  2  0  0  0  0
  3 19  1  0  0  0  0
  4 13  1  0  0  0  0
  4 19  2  0  0  0  0
  5 21  1  0  0  0  0
  6 23  1  0  0  0  0
  7 14  2  0  0  0  0
  7 22  1  0  0  0  0
  8 10  2  0  0  0  0
  8 25  1  0  0  0  0
  9 11  1  0  0  0  0
  9 25  2  0  0  0  0
 10 26  1  0  0  0  0
 11 26  2  0  0  0  0
 12 27  1  0  0  0  0
 13 27  2  0  0  0  0
 14 28  1  0  0  0  0
 15 16  2  0  0  0  0
 15 29  1  0  0  0  0
 16 30  1  0  0  0  0
 17 24  1  0  0  0  0
 17 28  2  0  0  0  0
 18 30  2  0  0  0  0
 18 31  1  0  0  0  0
 19 32  1  0  0  0  0
 20 32  1  0  0  0  0
 20 33  2  0  0  0  0
 20 36  1  0  0  0  0
 21 23  2  0  0  0  0
 21 42  1  0  0  0  0
 22 24  2  0  0  0  0
 22 43  1  0  0  0  0
 23 51  1  0  0  0  0
 24 44  1  0  0  0  0
 25 59  1  0  0  0  0
 26 71  1  0  0  0  0
 27 82  1  0  0  0  0
 28 83  1  0  0  0  0
 29 31  2  0  0  0  0
 29 82  1  0  0  0  0
 30 84  1  0  0  0  0
 31 85  1  0  0  0  0
 32 65  2  0  0  0  0
 33 66  1  0  0  0  0
 33 69  1  0  0  0  0
 34 35  2  0  0  0  0
 35 60  1  0  0  0  0
 36 70  1  0  0  0  0
 36 76  2  0  0  0  0
 37 52  1  0  0  0  0
 37 72  1  0  0  0  0
 37 77  2  0  0  0  0
 38 62  1  0  0  0  0
 38 67  1  0  0  0  0
 38 78  2  0  0  0  0
 39 61  1  0  0  0  0
 39 74  1  0  0  0  0
 39 79  2  0  0  0  0
 40 63  1  0  0  0  0
 40 73  1  0  0  0  0
 40 80  2  0  0  0  0
 41 68  1  0  0  0  0
 41 71  1  0  0  0  0
 41 81  2  0  0  0  0
 42 45  1  0  0  0  0
 43 52  1  0  0  0  0
 44 67  1  0  0  0  0
 45 47  1  0  0  0  0
 46 48  1  0  0  0  0
 46 49  1  0  0  0  0
 47 51  1  0  0  0  0
 48 53  1  0  0  0  0
 49 68  1  0  0  0  0
 50 53  1  0  0  0  0
 50 68  1  0  0  0  0
 51 72  1  0  0  0  0
 52 67  1  0  0  0  0
 53 66  1  0  0  0  0
 54 63  1  0  0  0  0
 55 64  1  0  0  0  0
 56 64  1  0  0  0  0
 57 64  1  0  0  0  0
 58 75  1  0  0  0  0
 59 74  1  0  0  0  0
 60 74  1  0  0  0  0
 61 83  1  0  0  0  0
 62 64  1  0  0  0  0
 62 73  1  0  0  0  0
 63 75  1  0  0  0  0
 65 66  1  0  0  0  0
M  CHG  1  75   1
M  ISO  4  41 100  61 101  71 100  83 101
M  END
> <Batch ID>
0054

> <Smiles>
C=CCN(Cc1ccc([100NH:0][100C:0](=O)N2CCCC(n3nc(-c4ccc(Oc5ccc(F)cc5F)cc4)c(C(N)=O)c3N)C2)cc1)C(=O)[101CH2:1][101O:1]c1ccc2c(c1)CN(C(=O)C(NC(=O)C(C)NC)C(C)(C)C)C(C(=O)NC1CCCc3ccccc31)C2

> <Shape>
0.281

> <Color>
0.107

> <Negative vol penalty>
0.000

$$$$

  -OEChem-04042322463D

 86 94  0     1  0  0  0  0  0999 V2000
  -23.4978  -30.8625   20.9163 C   0  0  0  0  0  0  0  0  0  0  0  0
  -23.5217  -29.4716   20.8994 C   0  0  0  0  0  0  0  0  0  0  0  0
  -26.9466  -24.5728   19.1978 C   0  0  0  0  0  0  0  0  0  0  0  0
  -26.4515  -12.6771   21.5940 C   0  0  0  0  0  0  0  0  0  0  0  0
  -25.9409  -13.6252   19.4313 C   0  0  0  0  0  0  0  0  0  0  0  0
  -24.6912  -31.5799   20.8460 C   0  0  0  0  0  0  0  0  0  0  0  0
  -24.7391  -28.7973   20.8111 C   0  0  0  0  0  0  0  0  0  0  0  0
  -25.0475  -24.9129   24.0455 C   0  0  0  0  0  0  0  0  0  0  0  0
  -25.7019  -24.0080   18.9196 C   0  0  0  0  0  0  0  0  0  0  0  0
  -28.1004  -23.7933   19.1149 C   0  0  0  0  0  0  0  0  0  0  0  0
  -25.2110  -12.0396   21.6075 C   0  0  0  0  0  0  0  0  0  0  0  0
  -24.7003  -12.9877   19.4447 C   0  0  0  0  0  0  0  0  0  0  0  0
  -24.3805  -23.7394   23.6966 C   0  0  0  0  0  0  0  0  0  0  0  0
  -22.3264   -9.8717   22.0489 C   0  0  0  0  0  0  0  0  0  0  0  0
  -22.2879   -8.5361   22.4492 C   0  0  0  0  0  0  0  0  0  0  0  0
  -26.4627  -22.7896   22.9342 C   0  0  0  0  0  0  0  0  0  0  0  0
  -26.7648  -21.8842   18.4759 C   0  0  0  0  0  0  0  0  0  0  0  0
  -23.7708   -7.9494   20.6342 C   0  0  0  0  0  0  0  0  0  0  0  0
  -26.8165  -13.4699   20.5060 C   0  0  0  0  0  0  0  0  0  0  0  0
  -29.3088  -13.6226   19.9835 C   0  0  0  0  0  0  0  0  0  0  0  0
  -25.9245  -30.9140   20.7665 C   0  0  0  0  0  0  0  0  0  0  0  0
  -26.4276  -25.0378   23.8309 C   0  0  0  0  0  0  0  0  0  0  0  0
  -25.9500  -29.5066   20.7383 C   0  0  0  0  0  0  0  0  0  0  0  0
  -27.1454  -23.9648   23.2836 C   0  0  0  0  0  0  0  0  0  0  0  0
  -25.6110  -22.6637   18.5587 C   0  0  0  0  0  0  0  0  0  0  0  0
  -28.0095  -22.4490   18.7540 C   0  0  0  0  0  0  0  0  0  0  0  0
  -24.3354  -12.1949   20.5328 C   0  0  0  0  0  0  0  0  0  0  0  0
  -25.0876  -22.6786   23.1382 C   0  0  0  0  0  0  0  0  0  0  0  0
  -23.0870  -10.2462   20.9412 C   0  0  0  0  0  0  0  0  0  0  0  0
  -23.0101   -7.5750   21.7419 C   0  0  0  0  0  0  0  0  0  0  0  0
  -23.8093   -9.2851   20.2339 C   0  0  0  0  0  0  0  0  0  0  0  0
  -28.0976  -14.1292   20.4917 C   0  0  0  0  0  0  0  0  0  0  0  0
  -30.2208  -14.6250   20.2067 C   0  0  0  0  0  0  0  0  0  0  0  0
  -29.5847  -12.3589   19.3649 C   0  0  0  0  0  0  0  0  0  0  0  0
  -28.2607  -26.9528   22.0768 C   0  0  0  0  0  0  0  0  0  0  0  0
  -30.6665  -25.4195   23.6208 C   0  0  0  0  0  0  0  0  0  0  0  0
  -31.7281  -22.6415   25.2949 C   0  0  0  0  0  0  0  0  0  0  0  0
  -23.5889  -20.6073   20.1477 C   0  0  0  0  0  0  0  0  0  0  0  0
  -29.6856  -20.5522   20.8646 C   0  0  0  0  0  0  0  0  0  0  0  0
  -27.1851  -31.7329   20.6448 C   0  0  0  0  0  0  0  0  0  0  0  0
  -27.1370  -26.3004   24.2373 C   0  0  0  0  0  0  0  0  0  0  0  0
  -28.6316  -24.0409   23.0516 C   0  0  0  0  0  0  0  0  0  0  0  0
  -28.4572  -30.9390   20.9310 C   0  0  0  0  0  0  0  0  0  0  0  0
  -31.1338  -18.2638   23.1760 C   0  0  0  0  0  0  0  0  0  0  0  0
  -28.4286  -29.6022   20.1969 C   0  0  0  0  0  0  0  0  0  0  0  0
  -30.6292  -16.8989   22.7043 C   0  0  0  0  0  0  0  0  0  0  0  0
  -30.0758  -19.3500   22.9950 C   0  0  0  0  0  0  0  0  0  0  0  0
  -29.0179  -18.0899   21.1602 C   0  0  0  0  0  0  0  0  0  0  0  0
  -27.2523  -28.7389   20.6684 C   0  0  1  0  0  0  0  0  0  0  0  0
  -28.4557  -26.5090   23.4991 C   0  0  1  0  0  0  0  0  0  0  0  0
  -30.0696  -16.9728   21.2709 C   0  0  2  0  0  0  0  0  0  0  0  0
  -33.7568  -21.6642   26.4023 C   0  0  0  0  0  0  0  0  0  0  0  0
  -22.8690  -19.1642   22.0833 C   0  0  0  0  0  0  0  0  0  0  0  0
  -21.2201  -20.6871   20.9905 C   0  0  0  0  0  0  0  0  0  0  0  0
  -31.8563  -24.7923   20.8820 C   0  0  0  0  0  0  0  0  0  0  0  0
  -33.2933  -23.0610   21.9801 C   0  0  0  0  0  0  0  0  0  0  0  0
  -33.5283  -25.4613   22.6174 C   0  0  0  0  0  0  0  0  0  0  0  0
  -30.3695  -22.4995   27.9204 C   0  0  0  0  0  0  0  0  0  0  0  0
  -24.2710  -22.0570   18.2581 C   0  0  0  0  0  0  0  0  0  0  0  0
  -29.2432  -21.6154   18.6661 C   0  0  0  0  0  0  0  0  0  0  0  0
  -23.0725  -21.6520   22.4023 C   0  0  0  0  0  0  0  0  0  1  0  0
  -31.4821  -24.1760   23.3611 C   0  0  1  0  0  0  0  0  0  0  0  0
  -32.4889  -22.4805   26.5987 C   0  0  2  0  0  0  0  0  0  0  0  0
  -22.6964  -20.5354   21.4075 C   0  0  0  0  0  0  0  0  0  0  0  0
  -32.5117  -24.3716   22.2126 C   0  0  0  0  0  0  0  0  0  0  0  0
  -28.2254  -15.3579   20.9997 N   0  0  0  0  0  0  0  0  0  0  0  0
  -29.5276  -15.6317   20.8118 N   0  0  0  0  0  0  0  0  0  0  0  0
  -29.2790  -25.2987   23.4596 N   0  0  0  0  0  0  0  0  0  0  0  0
  -29.5876  -19.3683   21.6140 N   0  0  0  0  0  0  0  0  0  0  0  0
  -31.5401  -14.7347   19.9425 N   0  0  0  0  0  0  0  0  0  0  0  0
  -28.5327  -11.4452   19.2136 N   0  0  0  0  0  0  0  0  0  0  0  0
  -27.5517  -28.1318   21.9475 N   0  0  0  0  0  0  0  0  0  0  0  0
  -23.5086  -21.8086   19.4589 N   0  0  0  0  0  0  0  0  0  0  0  0
  -32.0772  -23.8037   24.6401 N   0  0  0  0  0  0  0  0  0  0  0  0
  -29.2054  -20.4815   19.5626 N   0  0  0  0  0  0  0  0  0  0  0  0
  -31.6397  -21.7933   27.6124 N   0  3  0  0  0  0  0  0  0  0  0  0
  -30.7336  -12.0426   18.9732 O   0  0  0  0  0  0  0  0  0  0  0  0
  -28.7208  -26.2764   21.1644 O   0  0  0  0  0  0  0  0  0  0  0  0
  -31.2388  -26.4579   23.9612 O   0  0  0  0  0  0  0  0  0  0  0  0
  -30.9091  -21.8169   24.8954 O   0  0  0  0  0  0  0  0  0  0  0  0
  -24.3058  -19.6697   19.7965 O   0  0  0  0  0  0  0  0  0  0  0  0
  -30.1704  -21.5936   21.3202 O   0  0  0  0  0  0  0  0  0  0  0  0
  -23.1249  -11.5727   20.5455 O   0  0  0  0  0  0  0  0  0  0  0  0
  -24.4388  -21.5323   22.7962 O   0  0  0  0  0  0  0  0  0  1  0  0
  -22.9743   -6.2927   22.1274 F   0  0  0  0  0  0  0  0  0  0  0  0
  -24.5427   -9.6390   19.1697 F   0  0  0  0  0  0  0  0  0  0  0  0
  1  2  1  0  0  0  0
  1  6  2  0  0  0  0
  2  7  2  0  0  0  0
  3  9  2  0  0  0  0
  3 10  1  0  0  0  0
  4 11  2  0  0  0  0
  4 19  1  0  0  0  0
  5 12  1  0  0  0  0
  5 19  2  0  0  0  0
  6 21  1  0  0  0  0
  7 23  1  0  0  0  0
  8 13  2  0  0  0  0
  8 22  1  0  0  0  0
  9 25  1  0  0  0  0
 10 26  2  0  0  0  0
 11 27  1  0  0  0  0
 12 27  2  0  0  0  0
 13 28  1  0  0  0  0
 14 15  2  0  0  0  0
 14 29  1  0  0  0  0
 15 30  1  0  0  0  0
 16 24  1  0  0  0  0
 16 28  2  0  0  0  0
 17 25  2  0  0  0  0
 17 26  1  0  0  0  0
 18 30  2  0  0  0  0
 18 31  1  0  0  0  0
 19 32  1  0  0  0  0
 20 32  1  0  0  0  0
 20 33  2  0  0  0  0
 20 34  1  0  0  0  0
 21 23  2  0  0  0  0
 21 40  1  0  0  0  0
 22 24  2  0  0  0  0
 22 41  1  0  0  0  0
 23 49  1  0  0  0  0
 24 42  1  0  0  0  0
 25 59  1  0  0  0  0
 26 60  1  0  0  0  0
 27 83  1  0  0  0  0
 28 84  1  0  0  0  0
 29 31  2  0  0  0  0
 29 83  1  0  0  0  0
 30 85  1  0  0  0  0
 31 86  1  0  0  0  0
 32 66  2  0  0  0  0
 33 67  1  0  0  0  0
 33 70  1  0  0  0  0
 34 71  1  0  0  0  0
 34 77  2  0  0  0  0
 35 50  1  0  0  0  0
 35 72  1  0  0  0  0
 35 78  2  0  0  0  0
 36 62  1  0  0  0  0
 36 68  1  0  0  0  0
 36 79  2  0  0  0  0
 37 63  1  0  0  0  0
 37 74  1  0  0  0  0
 37 80  2  0  0  0  0
 38 64  1  0  0  0  0
 38 73  1  0  0  0  0
 38 81  2  0  0  0  0
 39 69  1  0  0  0  0
 39 75  1  0  0  0  0
 39 82  2  0  0  0  0
 40 43  1  0  0  0  0
 41 50  1  0  0  0  0
 42 68  1  0  0  0  0
 43 45  1  0  0  0  0
 44 46  1  0  0  0  0
 44 47  1  0  0  0  0
 45 49  1  0  0  0  0
 46 51  1  0  0  0  0
 47 69  1  0  0  0  0
 48 51  1  0  0  0  0
 48 69  1  0  0  0  0
 49 72  1  0  0  0  0
 50 68  1  0  0  0  0
 51 67  1  0  0  0  0
 52 63  1  0  0  0  0
 53 64  1  0  0  0  0
 54 64  1  0  0  0  0
 55 65  1  0  0  0  0
 56 65  1  0  0  0  0
 57 65  1  0  0  0  0
 58 76  1  0  0  0  0
 59 73  1  0  0  0  0
 60 75  1  0  0  0  0
 61 64  1  0  0  0  0
 61 84  1  0  0  0  0
 62 65  1  0  0  0  0
 62 74  1  0  0  0  0
 63 76  1  0  0  0  0
 66 67  1  0  0  0  0
M  CHG  1  76   1
M  ISO  4  39 100  61 101  75 100  84 101
M  END
> <Batch ID>
0054

> <Smiles>
CNC(C)C(=O)NC(C(=O)N1Cc2cc([101O:1][101CH2:1]C(C)(C)C(=O)NCc3cccc(C[100NH:0][100C:0](=O)N4CCCC(n5nc(-c6ccc(Oc7ccc(F)cc7F)cc6)c(C(N)=O)c5N)C4)c3)ccc2CC1C(=O)NC1CCCc2ccccc21)C(C)(C)C

> <Shape>
0.212

> <Color>
0.072

> <Negative vol penalty>
0.000

$$$$

  -OEChem-04042322463D

 83 91  0     1  0  0  0  0  0999 V2000
  -20.8639  -30.0469   27.2780 C   0  0  0  0  0  0  0  0  0  0  0  0
  -21.9672  -29.4056   26.7241 C   0  0  0  0  0  0  0  0  0  0  0  0
  -24.6218   -9.1013   22.1338 C   0  0  0  0  0  0  0  0  0  0  0  0
  -22.9744  -10.4457   20.9868 C   0  0  0  0  0  0  0  0  0  0  0  0
  -19.7012  -30.2064   26.5252 C   0  0  0  0  0  0  0  0  0  0  0  0
  -21.9081  -28.9224   25.4174 C   0  0  0  0  0  0  0  0  0  0  0  0
  -26.4826  -28.7378   21.3499 C   0  0  0  0  0  0  0  0  0  0  0  0
  -28.8769  -20.7113   22.7821 C   0  0  0  0  0  0  0  0  0  0  0  0
  -27.9154  -19.8178   23.2540 C   0  0  0  0  0  0  0  0  0  0  0  0
  -23.8054   -7.9793   21.9914 C   0  0  0  0  0  0  0  0  0  0  0  0
  -22.1579   -9.3237   20.8444 C   0  0  0  0  0  0  0  0  0  0  0  0
  -27.3462  -27.7169   20.9552 C   0  0  0  0  0  0  0  0  0  0  0  0
  -21.0600   -6.6914   23.4843 C   0  0  0  0  0  0  0  0  0  0  0  0
  -20.8928   -5.8671   24.5970 C   0  0  0  0  0  0  0  0  0  0  0  0
  -25.9048  -27.2293   19.0834 C   0  0  0  0  0  0  0  0  0  0  0  0
  -27.3217  -19.2560   20.9804 C   0  0  0  0  0  0  0  0  0  0  0  0
  -21.8268   -4.0119   23.3629 C   0  0  0  0  0  0  0  0  0  0  0  0
  -24.2062  -10.3345   21.6316 C   0  0  0  0  0  0  0  0  0  0  0  0
  -26.0387  -11.9446   20.8851 C   0  0  0  0  0  0  0  0  0  0  0  0
  -19.6310  -29.7334   25.2054 C   0  0  0  0  0  0  0  0  0  0  0  0
  -25.3160  -29.0054   20.6192 C   0  0  0  0  0  0  0  0  0  0  0  0
  -20.7428  -29.0744   24.6468 C   0  0  0  0  0  0  0  0  0  0  0  0
  -25.0293  -28.2558   19.4694 C   0  0  0  0  0  0  0  0  0  0  0  0
  -29.0608  -20.8772   21.4093 C   0  0  0  0  0  0  0  0  0  0  0  0
  -27.1378  -19.0901   22.3532 C   0  0  0  0  0  0  0  0  0  0  0  0
  -22.5735   -8.0905   21.3467 C   0  0  0  0  0  0  0  0  0  0  0  0
  -27.0559  -26.9606   19.8235 C   0  0  0  0  0  0  0  0  0  0  0  0
  -21.6106   -6.1760   22.3108 C   0  0  0  0  0  0  0  0  0  0  0  0
  -21.2762   -4.5273   24.5363 C   0  0  0  0  0  0  0  0  0  0  0  0
  -28.2832  -20.1496   20.5085 C   0  0  0  0  0  0  0  0  0  0  0  0
  -21.9940   -4.8362   22.2502 C   0  0  0  0  0  0  0  0  0  0  0  0
  -25.0489  -11.4939   21.7789 C   0  0  0  0  0  0  0  0  0  0  0  0
  -26.5474  -13.0746   21.4773 C   0  0  0  0  0  0  0  0  0  0  0  0
  -26.4606  -11.3912   19.6315 C   0  0  0  0  0  0  0  0  0  0  0  0
  -22.2028  -28.9253   21.2557 C   0  0  0  0  0  0  0  0  0  0  0  0
  -21.9589  -30.2046   18.2848 C   0  0  0  0  0  0  0  0  0  0  0  0
  -28.9403  -23.8719   20.0626 C   0  0  0  0  0  0  0  0  0  0  0  0
  -23.3431  -30.6420   15.1962 C   0  0  0  0  0  0  0  0  0  0  0  0
  -25.8486  -17.9022   24.1623 C   0  0  0  0  0  0  0  0  0  0  0  0
  -18.3365  -29.8871   24.4470 C   0  0  0  0  0  0  0  0  0  0  0  0
  -24.4085  -30.1276   21.0429 C   0  0  0  0  0  0  0  0  0  0  0  0
  -23.8002  -28.5165   18.6389 C   0  0  0  0  0  0  0  0  0  0  0  0
  -18.4838  -29.6787   22.9419 C   0  0  0  0  0  0  0  0  0  0  0  0
  -25.8774  -14.9386   26.1355 C   0  0  0  0  0  0  0  0  0  0  0  0
  -19.3082  -28.4279   22.6544 C   0  0  0  0  0  0  0  0  0  0  0  0
  -25.7458  -13.8153   25.1044 C   0  0  0  0  0  0  0  0  0  0  0  0
  -25.0507  -16.1635   25.7483 C   0  0  0  0  0  0  0  0  0  0  0  0
  -25.1670  -15.5540   23.3641 C   0  0  0  0  0  0  0  0  0  0  0  0
  -20.7259  -28.5585   23.2242 C   0  0  1  0  0  0  0  0  0  0  0  0
  -22.9844  -29.9751   20.5176 C   0  0  1  0  0  0  0  0  0  0  0  0
  -26.0332  -14.3232   23.6779 C   0  0  2  0  0  0  0  0  0  0  0  0
  -22.8907  -31.7016   12.9669 C   0  0  0  0  0  0  0  0  0  0  0  0
  -20.0208  -27.9473   17.6080 C   0  0  0  0  0  0  0  0  0  0  0  0
  -20.3491  -28.4858   15.1850 C   0  0  0  0  0  0  0  0  0  0  0  0
  -19.3628  -30.1895   16.7170 C   0  0  0  0  0  0  0  0  0  0  0  0
  -25.7106  -32.4034   15.4228 C   0  0  0  0  0  0  0  0  0  0  0  0
  -30.0982  -21.8386   20.9056 C   0  0  0  0  0  0  0  0  0  0  0  0
  -28.6326  -25.2990   20.4630 C   0  0  0  0  0  0  0  0  0  1  0  0
  -21.8262  -29.6469   16.8883 C   0  0  1  0  0  0  0  0  0  0  0  0
  -23.5216  -31.8820   14.3388 C   0  0  2  0  0  0  0  0  0  0  0  0
  -20.4120  -29.0610   16.6161 C   0  0  0  0  0  0  0  0  0  0  0  0
  -24.9340  -12.2740   22.8571 N   0  0  0  0  0  0  0  0  0  0  0  0
  -25.8584  -13.2261   22.6446 N   0  0  0  0  0  0  0  0  0  0  0  0
  -22.9407  -29.6203   19.0976 N   0  0  0  0  0  0  0  0  0  0  0  0
  -25.3794  -16.5905   24.3865 N   0  0  0  0  0  0  0  0  0  0  0  0
  -27.5124  -13.9435   21.1083 N   0  0  0  0  0  0  0  0  0  0  0  0
  -25.8324  -10.2264   19.1701 N   0  0  0  0  0  0  0  0  0  0  0  0
  -26.1597  -18.1838   22.8325 N   0  0  0  0  0  0  0  0  0  0  0  0
  -21.5382  -29.3989   22.3708 N   0  0  0  0  0  0  0  0  0  0  0  0
  -29.6716  -23.2125   21.0381 N   0  0  0  0  0  0  0  0  0  0  0  0
  -22.2122  -30.7222   15.9809 N   0  0  0  0  0  0  0  0  0  0  0  0
  -24.9701  -32.1801   14.1544 N   0  3  0  0  0  0  0  0  0  0  0  0
  -27.3791  -11.9049   18.9488 O   0  0  0  0  0  0  0  0  0  0  0  0
  -22.2015  -27.7714   20.8432 O   0  0  0  0  0  0  0  0  0  0  0  0
  -21.2237  -31.1296   18.6391 O   0  0  0  0  0  0  0  0  0  0  0  0
  -28.5735  -23.3875   18.9955 O   0  0  0  0  0  0  0  0  0  0  0  0
  -24.1264  -29.6953   15.1695 O   0  0  0  0  0  0  0  0  0  0  0  0
  -25.9916  -18.7070   25.0863 O   0  0  0  0  0  0  0  0  0  0  0  0
  -21.7767   -6.9959   21.2073 O   0  0  0  0  0  0  0  0  0  0  0  0
  -27.8968  -25.9631   19.4364 O   0  0  0  0  0  0  0  0  0  1  0  0
  -21.1169   -3.7362   25.6054 F   0  0  0  0  0  0  0  0  0  0  0  0
  -28.4526  -20.3021   19.1878 F   0  0  0  0  0  0  0  0  0  0  0  0
  -22.5246   -4.3357   21.1260 F   0  0  0  0  0  0  0  0  0  0  0  0
  1  2  1  0  0  0  0
  1  5  2  0  0  0  0
  2  6  2  0  0  0  0
  3 10  2  0  0  0  0
  3 18  1  0  0  0  0
  4 11  1  0  0  0  0
  4 18  2  0  0  0  0
  5 20  1  0  0  0  0
  6 22  1  0  0  0  0
  7 12  2  0  0  0  0
  7 21  1  0  0  0  0
  8  9  2  0  0  0  0
  8 24  1  0  0  0  0
  9 25  1  0  0  0  0
 10 26  1  0  0  0  0
 11 26  2  0  0  0  0
 12 27  1  0  0  0  0
 13 14  2  0  0  0  0
 13 28  1  0  0  0  0
 14 29  1  0  0  0  0
 15 23  1  0  0  0  0
 15 27  2  0  0  0  0
 16 25  2  0  0  0  0
 16 30  1  0  0  0  0
 17 29  2  0  0  0  0
 17 31  1  0  0  0  0
 18 32  1  0  0  0  0
 19 32  1  0  0  0  0
 19 33  2  0  0  0  0
 19 34  1  0  0  0  0
 20 22  2  0  0  0  0
 20 40  1  0  0  0  0
 21 23  2  0  0  0  0
 21 41  1  0  0  0  0
 22 49  1  0  0  0  0
 23 42  1  0  0  0  0
 24 30  2  0  0  0  0
 24 57  1  0  0  0  0
 25 68  1  0  0  0  0
 26 79  1  0  0  0  0
 27 80  1  0  0  0  0
 28 31  2  0  0  0  0
 28 79  1  0  0  0  0
 29 81  1  0  0  0  0
 30 82  1  0  0  0  0
 31 83  1  0  0  0  0
 32 62  2  0  0  0  0
 33 63  1  0  0  0  0
 33 66  1  0  0  0  0
 34 67  1  0  0  0  0
 34 73  2  0  0  0  0
 35 50  1  0  0  0  0
 35 69  1  0  0  0  0
 35 74  2  0  0  0  0
 36 59  1  0  0  0  0
 36 64  1  0  0  0  0
 36 75  2  0  0  0  0
 37 58  1  0  0  0  0
 37 70  1  0  0  0  0
 37 76  2  0  0  0  0
 38 60  1  0  0  0  0
 38 71  1  0  0  0  0
 38 77  2  0  0  0  0
 39 65  1  0  0  0  0
 39 68  1  0  0  0  0
 39 78  2  0  0  0  0
 40 43  1  0  0  0  0
 41 50  1  0  0  0  0
 42 64  1  0  0  0  0
 43 45  1  0  0  0  0
 44 46  1  0  0  0  0
 44 47  1  0  0  0  0
 45 49  1  0  0  0  0
 46 51  1  0  0  0  0
 47 65  1  0  0  0  0
 48 51  1  0  0  0  0
 48 65  1  0  0  0  0
 49 69  1  0  0  0  0
 50 64  1  0  0  0  0
 51 63  1  0  0  0  0
 52 60  1  0  0  0  0
 53 61  1  0  0  0  0
 54 61  1  0  0  0  0
 55 61  1  0  0  0  0
 56 72  1  0  0  0  0
 57 70  1  0  0  0  0
 58 80  1  0  0  0  0
 59 61  1  0  0  0  0
 59 71  1  0  0  0  0
 60 72  1  0  0  0  0
 62 63  1  0  0  0  0
M  CHG  1  72   1
M  ISO  4  39 100  58 101  68 100  80 101
M  END
> <Batch ID>
0054

> <Smiles>
CNC(C)C(=O)NC(C(=O)N1Cc2cc([101O:1][101CH2:1]C(=O)NCc3ccc([100NH:0][100C:0](=O)N4CCCC(n5nc(-c6ccc(Oc7ccc(F)cc7F)cc6)c(C(N)=O)c5N)C4)cc3F)ccc2CC1C(=O)NC1CCCc2ccccc21)C(C)(C)C

> <Shape>
0.256

> <Color>
0.119

> <Negative vol penalty>
0.000

$$$$

  -OEChem-04042322463D

 85 93  0     1  0  0  0  0  0999 V2000
  -27.4319  -23.6864   17.3134 C   0  0  0  0  0  0  0  0  0  0  0  0
  -26.2790  -24.0300   18.0121 C   0  0  0  0  0  0  0  0  0  0  0  0
  -26.6946  -13.8091   21.0068 C   0  0  0  0  0  0  0  0  0  0  0  0
  -24.4001  -14.0361   20.2851 C   0  0  0  0  0  0  0  0  0  0  0  0
  -28.6731  -24.1497   17.7480 C   0  0  0  0  0  0  0  0  0  0  0  0
  -26.3667  -24.8363   19.1464 C   0  0  0  0  0  0  0  0  0  0  0  0
  -22.8502  -28.4796   19.2170 C   0  0  0  0  0  0  0  0  0  0  0  0
  -26.3647  -12.6371   21.6872 C   0  0  0  0  0  0  0  0  0  0  0  0
  -24.0702  -12.8640   20.9655 C   0  0  0  0  0  0  0  0  0  0  0  0
  -21.5581  -28.1103   19.5883 C   0  0  0  0  0  0  0  0  0  0  0  0
  -22.6981   -9.7371   22.2137 C   0  0  0  0  0  0  0  0  0  0  0  0
  -21.8936   -8.8080   21.5541 C   0  0  0  0  0  0  0  0  0  0  0  0
  -19.2572  -22.8544   20.7587 C   0  0  0  0  0  0  0  0  0  0  0  0
  -21.6258  -23.0510   21.1922 C   0  0  0  0  0  0  0  0  0  0  0  0
  -21.9580  -28.9655   21.8082 C   0  0  0  0  0  0  0  0  0  0  0  0
  -20.8057  -21.3114   19.7299 C   0  0  0  0  0  0  0  0  0  0  0  0
  -23.5577   -8.6019   19.8148 C   0  0  0  0  0  0  0  0  0  0  0  0
  -25.7123  -14.5087   20.3058 C   0  0  0  0  0  0  0  0  0  0  0  0
  -20.3201  -23.4998   21.3907 C   0  0  0  0  0  0  0  0  0  0  0  0
  -26.4836  -15.8355   18.2680 C   0  0  0  0  0  0  0  0  0  0  0  0
  -28.7751  -24.9699   18.8826 C   0  0  0  0  0  0  0  0  0  0  0  0
  -23.7111  -29.0858   20.1432 C   0  0  0  0  0  0  0  0  0  0  0  0
  -27.6106  -25.3099   19.5973 C   0  0  0  0  0  0  0  0  0  0  0  0
  -23.2597  -29.3438   21.4454 C   0  0  0  0  0  0  0  0  0  0  0  0
  -19.5000  -21.7602   19.9284 C   0  0  0  0  0  0  0  0  0  0  0  0
  -21.8686  -21.9568   20.3618 C   0  0  0  0  0  0  0  0  0  0  0  0
  -25.0525  -12.1645   21.6666 C   0  0  0  0  0  0  0  0  0  0  0  0
  -21.1128  -28.3506   20.8848 C   0  0  0  0  0  0  0  0  0  0  0  0
  -23.9324  -10.0987   21.6738 C   0  0  0  0  0  0  0  0  0  0  0  0
  -22.3234   -8.2403   20.3546 C   0  0  0  0  0  0  0  0  0  0  0  0
  -24.3622   -9.5311   20.4744 C   0  0  0  0  0  0  0  0  0  0  0  0
  -26.0524  -15.7198   19.6031 C   0  0  0  0  0  0  0  0  0  0  0  0
  -26.6738  -17.1833   18.0843 C   0  0  0  0  0  0  0  0  0  0  0  0
  -20.0614  -24.6651   22.2751 C   0  0  0  0  0  0  0  0  0  0  0  0
  -26.6933  -14.8159   17.2821 C   0  0  0  0  0  0  0  0  0  0  0  0
  -26.5128  -28.3214   21.4353 C   0  0  0  0  0  0  0  0  0  0  0  0
  -26.2955  -31.2959   22.7110 C   0  0  0  0  0  0  0  0  0  0  0  0
  -24.3070  -33.8958   23.6771 C   0  0  0  0  0  0  0  0  0  0  0  0
  -24.3626  -22.0276   20.7103 C   0  0  0  0  0  0  0  0  0  0  0  0
  -30.1435  -25.4075   19.3414 C   0  0  0  0  0  0  0  0  0  0  0  0
  -25.0928  -29.5024   19.7193 C   0  0  0  0  0  0  0  0  0  0  0  0
  -24.1379  -30.0103   22.4716 C   0  0  0  0  0  0  0  0  0  0  0  0
  -30.1113  -26.5653   20.3357 C   0  0  0  0  0  0  0  0  0  0  0  0
  -27.8103  -21.1667   20.4874 C   0  0  0  0  0  0  0  0  0  0  0  0
  -29.0688  -26.3093   21.4195 C   0  0  0  0  0  0  0  0  0  0  0  0
  -27.7900  -19.6843   20.1079 C   0  0  0  0  0  0  0  0  0  0  0  0
  -26.6796  -21.5208   21.4517 C   0  0  0  0  0  0  0  0  0  0  0  0
  -25.3172  -19.6407   20.6282 C   0  0  0  0  0  0  0  0  0  0  0  0
  -27.6623  -26.2028   20.8180 C   0  0  1  0  0  0  0  0  0  0  0  0
  -26.0592  -29.6464   20.8909 C   0  0  1  0  0  0  0  0  0  0  0  0
  -26.3984  -19.2497   19.6075 C   0  0  2  0  0  0  0  0  0  0  0  0
  -18.3635  -21.0698   19.2527 C   0  0  0  0  0  0  0  0  0  0  0  0
  -24.4138  -36.1756   24.7205 C   0  0  0  0  0  0  0  0  0  0  0  0
  -26.7509  -30.0206   25.4453 C   0  0  0  0  0  0  0  0  0  0  0  0
  -25.9137  -32.1346   26.4933 C   0  0  0  0  0  0  0  0  0  0  0  0
  -27.9704  -32.1736   25.0822 C   0  0  0  0  0  0  0  0  0  0  0  0
  -17.2371  -27.1337   22.1723 C   0  0  0  0  0  0  0  0  0  0  0  0
  -18.3326  -26.1714   24.2116 C   0  0  0  0  0  0  0  0  0  0  0  0
  -23.1314  -35.1747   21.2810 C   0  0  0  0  0  0  0  0  0  0  0  0
  -19.6485  -27.6362   22.6173 C   0  0  0  0  0  0  0  0  0  1  0  0
  -25.7154  -31.8759   23.9784 C   0  0  1  0  0  0  0  0  0  0  0  0
  -24.4047  -35.3886   23.4192 C   0  0  2  0  0  0  0  0  0  0  0  0
  -26.5715  -31.5369   25.2312 C   0  0  0  0  0  0  0  0  0  0  0  0
  -18.5447  -26.5714   22.7459 C   0  0  0  0  0  0  0  0  0  0  0  0
  -25.9735  -16.8999   20.2236 N   0  0  0  0  0  0  0  0  0  0  0  0
  -26.3577  -17.7700   19.2742 N   0  0  0  0  0  0  0  0  0  0  0  0
  -25.4827  -30.3933   22.0107 N   0  0  0  0  0  0  0  0  0  0  0  0
  -25.3915  -21.0829   20.9097 N   0  0  0  0  0  0  0  0  0  0  0  0
  -27.0791  -17.9119   17.0225 N   0  0  0  0  0  0  0  0  0  0  0  0
  -26.4502  -13.4823   17.6380 N   0  0  0  0  0  0  0  0  0  0  0  0
  -23.1949  -21.5007   20.1596 N   0  0  0  0  0  0  0  0  0  0  0  0
  -18.9213  -25.3899   21.9874 N   0  0  0  0  0  0  0  0  0  0  0  0
  -27.1453  -27.5180   20.5058 N   0  0  0  0  0  0  0  0  0  0  0  0
  -25.5516  -33.3051   23.7355 N   0  0  0  0  0  0  0  0  0  0  0  0
  -23.2486  -35.8493   22.5994 N   0  3  0  0  0  0  0  0  0  0  0  0
  -20.8587  -24.9263   23.1721 O   0  0  0  0  0  0  0  0  0  0  0  0
  -27.1004  -15.0781   16.1249 O   0  0  0  0  0  0  0  0  0  0  0  0
  -26.3058  -28.0488   22.6120 O   0  0  0  0  0  0  0  0  0  0  0  0
  -27.4252  -31.6368   22.3517 O   0  0  0  0  0  0  0  0  0  0  0  0
  -23.2341  -33.3127   23.8168 O   0  0  0  0  0  0  0  0  0  0  0  0
  -24.5163  -23.2214   20.9810 O   0  0  0  0  0  0  0  0  0  0  0  0
  -24.7303  -11.0207   22.3303 O   0  0  0  0  0  0  0  0  0  0  0  0
  -19.8523  -27.9905   21.2500 O   0  0  0  0  0  0  0  0  0  1  0  0
  -21.5514   -7.3469   19.7221 F   0  0  0  0  0  0  0  0  0  0  0  0
  -25.5475   -9.8736   19.9514 F   0  0  0  0  0  0  0  0  0  0  0  0
  1  2  1  0  0  0  0
  1  5  2  0  0  0  0
  2  6  2  0  0  0  0
  3  8  2  0  0  0  0
  3 18  1  0  0  0  0
  4  9  1  0  0  0  0
  4 18  2  0  0  0  0
  5 21  1  0  0  0  0
  6 23  1  0  0  0  0
  7 10  2  0  0  0  0
  7 22  1  0  0  0  0
  8 27  1  0  0  0  0
  9 27  2  0  0  0  0
 10 28  1  0  0  0  0
 11 12  2  0  0  0  0
 11 29  1  0  0  0  0
 12 30  1  0  0  0  0
 13 19  1  0  0  0  0
 13 25  2  0  0  0  0
 14 19  2  0  0  0  0
 14 26  1  0  0  0  0
 15 24  1  0  0  0  0
 15 28  2  0  0  0  0
 16 25  1  0  0  0  0
 16 26  2  0  0  0  0
 17 30  2  0  0  0  0
 17 31  1  0  0  0  0
 18 32  1  0  0  0  0
 19 34  1  0  0  0  0
 20 32  1  0  0  0  0
 20 33  2  0  0  0  0
 20 35  1  0  0  0  0
 21 23  2  0  0  0  0
 21 40  1  0  0  0  0
 22 24  2  0  0  0  0
 22 41  1  0  0  0  0
 23 49  1  0  0  0  0
 24 42  1  0  0  0  0
 25 52  1  0  0  0  0
 26 71  1  0  0  0  0
 27 82  1  0  0  0  0
 28 83  1  0  0  0  0
 29 31  2  0  0  0  0
 29 82  1  0  0  0  0
 30 84  1  0  0  0  0
 31 85  1  0  0  0  0
 32 65  2  0  0  0  0
 33 66  1  0  0  0  0
 33 69  1  0  0  0  0
 34 72  1  0  0  0  0
 34 76  2  0  0  0  0
 35 70  1  0  0  0  0
 35 77  2  0  0  0  0
 36 50  1  0  0  0  0
 36 73  1  0  0  0  0
 36 78  2  0  0  0  0
 37 61  1  0  0  0  0
 37 67  1  0  0  0  0
 37 79  2  0  0  0  0
 38 62  1  0  0  0  0
 38 74  1  0  0  0  0
 38 80  2  0  0  0  0
 39 68  1  0  0  0  0
 39 71  1  0  0  0  0
 39 81  2  0  0  0  0
 40 43  1  0  0  0  0
 41 50  1  0  0  0  0
 42 67  1  0  0  0  0
 43 45  1  0  0  0  0
 44 46  1  0  0  0  0
 44 47  1  0  0  0  0
 45 49  1  0  0  0  0
 46 51  1  0  0  0  0
 47 68  1  0  0  0  0
 48 51  1  0  0  0  0
 48 68  1  0  0  0  0
 49 73  1  0  0  0  0
 50 67  1  0  0  0  0
 51 66  1  0  0  0  0
 53 62  1  0  0  0  0
 54 63  1  0  0  0  0
 55 63  1  0  0  0  0
 56 63  1  0  0  0  0
 57 64  1  0  0  0  0
 58 64  1  0  0  0  0
 59 75  1  0  0  0  0
 60 64  1  0  0  0  0
 60 83  1  0  0  0  0
 61 63  1  0  0  0  0
 61 74  1  0  0  0  0
 62 75  1  0  0  0  0
 64 72  1  0  0  0  0
 65 66  1  0  0  0  0
M  CHG  1  75   1
M  ISO  4  39 100  60 101  71 100  83 101
M  END
> <Batch ID>
0054

> <Smiles>
CNC(C)C(=O)NC(C(=O)N1Cc2cc([101O:1][101CH2:1]C(C)(C)NC(=O)c3cc(C)cc([100NH:0][100C:0](=O)N4CCCC(n5nc(-c6ccc(Oc7ccc(F)cc7F)cc6)c(C(N)=O)c5N)C4)c3)ccc2CC1C(=O)NC1CCCc2ccccc21)C(C)(C)C

> <Shape>
0.291

> <Color>
0.077

> <Negative vol penalty>
0.000

$$$$

  -OEChem-04042322463D

 83 91  0     1  0  0  0  0  0999 V2000
  -29.2531  -35.6689   26.0293 C   0  0  0  0  0  0  0  0  0  0  0  0
  -29.7170  -34.9225   24.9509 C   0  0  0  0  0  0  0  0  0  0  0  0
  -22.4691  -10.1414   20.3752 C   0  0  0  0  0  0  0  0  0  0  0  0
  -24.3130   -9.4002   21.7492 C   0  0  0  0  0  0  0  0  0  0  0  0
  -28.2847  -35.1362   26.8792 C   0  0  0  0  0  0  0  0  0  0  0  0
  -29.2136  -33.6424   24.7223 C   0  0  0  0  0  0  0  0  0  0  0  0
  -27.6720  -29.1204   19.3845 C   0  0  0  0  0  0  0  0  0  0  0  0
  -30.1103  -19.4082   20.0221 C   0  0  0  0  0  0  0  0  0  0  0  0
  -29.4810  -20.6499   19.9338 C   0  0  0  0  0  0  0  0  0  0  0  0
  -21.9128   -8.8636   20.4324 C   0  0  0  0  0  0  0  0  0  0  0  0
  -23.7567   -8.1224   21.8065 C   0  0  0  0  0  0  0  0  0  0  0  0
  -27.9215  -27.8109   18.9764 C   0  0  0  0  0  0  0  0  0  0  0  0
  -21.2840   -6.5576   23.4970 C   0  0  0  0  0  0  0  0  0  0  0  0
  -21.2480   -5.9232   24.7387 C   0  0  0  0  0  0  0  0  0  0  0  0
  -26.1933  -27.0243   20.4643 C   0  0  0  0  0  0  0  0  0  0  0  0
  -28.7262  -18.8417   21.9196 C   0  0  0  0  0  0  0  0  0  0  0  0
  -22.6008   -4.1250   23.8592 C   0  0  0  0  0  0  0  0  0  0  0  0
  -23.6693  -10.4097   21.0335 C   0  0  0  0  0  0  0  0  0  0  0  0
  -24.0138  -12.7981   21.8610 C   0  0  0  0  0  0  0  0  0  0  0  0
  -27.7621  -33.8526   26.6553 C   0  0  0  0  0  0  0  0  0  0  0  0
  -26.6870  -29.3911   20.3452 C   0  0  0  0  0  0  0  0  0  0  0  0
  -28.2382  -33.0914   25.5708 C   0  0  0  0  0  0  0  0  0  0  0  0
  -25.9315  -28.3384   20.8810 C   0  0  0  0  0  0  0  0  0  0  0  0
  -29.7328  -18.5041   21.0149 C   0  0  0  0  0  0  0  0  0  0  0  0
  -28.4744  -20.9876   20.8385 C   0  0  0  0  0  0  0  0  0  0  0  0
  -22.5566   -7.8541   21.1481 C   0  0  0  0  0  0  0  0  0  0  0  0
  -27.1841  -26.7623   19.5184 C   0  0  0  0  0  0  0  0  0  0  0  0
  -21.9784   -5.9757   22.4364 C   0  0  0  0  0  0  0  0  0  0  0  0
  -21.9064   -4.7069   24.9198 C   0  0  0  0  0  0  0  0  0  0  0  0
  -28.0970  -20.0834   21.8314 C   0  0  0  0  0  0  0  0  0  0  0  0
  -22.6368   -4.7594   22.6175 C   0  0  0  0  0  0  0  0  0  0  0  0
  -24.2448  -11.7293   20.9742 C   0  0  0  0  0  0  0  0  0  0  0  0
  -24.7892  -13.8219   21.3741 C   0  0  0  0  0  0  0  0  0  0  0  0
  -23.1736  -12.8598   23.0211 C   0  0  0  0  0  0  0  0  0  0  0  0
  -26.6841  -30.6655   23.2572 C   0  0  0  0  0  0  0  0  0  0  0  0
  -23.4656  -30.4138   22.9403 C   0  0  0  0  0  0  0  0  0  0  0  0
  -28.0898  -23.2592   19.8258 C   0  0  0  0  0  0  0  0  0  0  0  0
  -20.8134  -28.8717   21.4456 C   0  0  0  0  0  0  0  0  0  0  0  0
  -29.6063  -15.7059   19.2784 C   0  0  0  0  0  0  0  0  0  0  0  0
  -26.7509  -33.3006   27.6287 C   0  0  0  0  0  0  0  0  0  0  0  0
  -26.4118  -30.8119   20.7551 C   0  0  0  0  0  0  0  0  0  0  0  0
  -24.8490  -28.5780   21.9004 C   0  0  0  0  0  0  0  0  0  0  0  0
  -25.9968  -32.0837   27.0989 C   0  0  0  0  0  0  0  0  0  0  0  0
  -27.2828  -14.2679   16.9957 C   0  0  0  0  0  0  0  0  0  0  0  0
  -26.9658  -31.0872   26.4705 C   0  0  0  0  0  0  0  0  0  0  0  0
  -26.2704  -13.5626   17.9000 C   0  0  0  0  0  0  0  0  0  0  0  0
  -28.7006  -14.1740   17.5551 C   0  0  0  0  0  0  0  0  0  0  0  0
  -27.8371  -13.9342   19.8509 C   0  0  0  0  0  0  0  0  0  0  0  0
  -27.6986  -31.7088   25.2754 C   0  0  1  0  0  0  0  0  0  0  0  0
  -25.7369  -30.9202   22.1190 C   0  0  1  0  0  0  0  0  0  0  0  0
  -26.3849  -14.0500   19.3569 C   0  0  2  0  0  0  0  0  0  0  0  0
  -18.3041  -28.8548   21.4177 C   0  0  0  0  0  0  0  0  0  0  0  0
  -23.4488  -28.8995   25.5892 C   0  0  0  0  0  0  0  0  0  0  0  0
  -21.1395  -28.1038   25.0397 C   0  0  0  0  0  0  0  0  0  0  0  0
  -21.5837  -30.5430   25.3152 C   0  0  0  0  0  0  0  0  0  0  0  0
  -20.7244  -29.6262   18.5852 C   0  0  0  0  0  0  0  0  0  0  0  0
  -30.4062  -17.1769   21.1102 C   0  0  0  0  0  0  0  0  0  0  0  0
  -27.1845  -24.4507   20.0774 C   0  0  0  0  0  0  0  0  0  1  0  0
  -22.4401  -29.3520   23.2560 C   0  0  1  0  0  0  0  0  0  0  0  0
  -19.5638  -29.4290   20.7881 C   0  0  2  0  0  0  0  0  0  0  0  0
  -22.1747  -29.2195   24.7822 C   0  0  0  0  0  0  0  0  0  0  0  0
  -25.0998  -12.0450   19.9979 N   0  0  0  0  0  0  0  0  0  0  0  0
  -25.4129  -13.3237   20.2682 N   0  0  0  0  0  0  0  0  0  0  0  0
  -24.6218  -29.9838   22.2738 N   0  0  0  0  0  0  0  0  0  0  0  0
  -28.7408  -14.6528   18.9390 N   0  0  0  0  0  0  0  0  0  0  0  0
  -24.9915  -15.0907   21.7883 N   0  0  0  0  0  0  0  0  0  0  0  0
  -22.4456  -11.7173   23.3804 N   0  0  0  0  0  0  0  0  0  0  0  0
  -27.8381  -22.2482   20.7469 N   0  0  0  0  0  0  0  0  0  0  0  0
  -26.8360  -31.7392   24.1138 N   0  0  0  0  0  0  0  0  0  0  0  0
  -21.2560  -29.6815   22.4700 N   0  0  0  0  0  0  0  0  0  0  0  0
  -29.5776  -16.1027   20.6097 N   0  0  0  0  0  0  0  0  0  0  0  0
  -19.5536  -29.1018   19.3342 N   0  3  0  0  0  0  0  0  0  0  0  0
  -23.0587  -13.9025   23.7089 O   0  0  0  0  0  0  0  0  0  0  0  0
  -27.2351  -29.5751   23.3522 O   0  0  0  0  0  0  0  0  0  0  0  0
  -23.2457  -31.5830   23.2665 O   0  0  0  0  0  0  0  0  0  0  0  0
  -28.9106  -23.2572   18.9142 O   0  0  0  0  0  0  0  0  0  0  0  0
  -21.3417  -27.8209   21.0887 O   0  0  0  0  0  0  0  0  0  0  0  0
  -30.3455  -16.2555   18.4547 O   0  0  0  0  0  0  0  0  0  0  0  0
  -22.0139   -6.6071   21.2044 O   0  0  0  0  0  0  0  0  0  0  0  0
  -27.4261  -25.4831   19.1223 O   0  0  0  0  0  0  0  0  0  1  0  0
  -21.8730   -4.0986   26.1127 F   0  0  0  0  0  0  0  0  0  0  0  0
  -27.1318  -20.3980   22.7071 F   0  0  0  0  0  0  0  0  0  0  0  0
  -23.3065   -4.1961   21.6026 F   0  0  0  0  0  0  0  0  0  0  0  0
  1  2  1  0  0  0  0
  1  5  2  0  0  0  0
  2  6  2  0  0  0  0
  3 10  2  0  0  0  0
  3 18  1  0  0  0  0
  4 11  1  0  0  0  0
  4 18  2  0  0  0  0
  5 20  1  0  0  0  0
  6 22  1  0  0  0  0
  7 12  2  0  0  0  0
  7 21  1  0  0  0  0
  8  9  2  0  0  0  0
  8 24  1  0  0  0  0
  9 25  1  0  0  0  0
 10 26  1  0  0  0  0
 11 26  2  0  0  0  0
 12 27  1  0  0  0  0
 13 14  2  0  0  0  0
 13 28  1  0  0  0  0
 14 29  1  0  0  0  0
 15 23  1  0  0  0  0
 15 27  2  0  0  0  0
 16 24  2  0  0  0  0
 16 30  1  0  0  0  0
 17 29  2  0  0  0  0
 17 31  1  0  0  0  0
 18 32  1  0  0  0  0
 19 32  1  0  0  0  0
 19 33  2  0  0  0  0
 19 34  1  0  0  0  0
 20 22  2  0  0  0  0
 20 40  1  0  0  0  0
 21 23  2  0  0  0  0
 21 41  1  0  0  0  0
 22 49  1  0  0  0  0
 23 42  1  0  0  0  0
 24 57  1  0  0  0  0
 25 30  2  0  0  0  0
 25 68  1  0  0  0  0
 26 79  1  0  0  0  0
 27 80  1  0  0  0  0
 28 31  2  0  0  0  0
 28 79  1  0  0  0  0
 29 81  1  0  0  0  0
 30 82  1  0  0  0  0
 31 83  1  0  0  0  0
 32 62  2  0  0  0  0
 33 63  1  0  0  0  0
 33 66  1  0  0  0  0
 34 67  1  0  0  0  0
 34 73  2  0  0  0  0
 35 50  1  0  0  0  0
 35 69  1  0  0  0  0
 35 74  2  0  0  0  0
 36 59  1  0  0  0  0
 36 64  1  0  0  0  0
 36 75  2  0  0  0  0
 37 58  1  0  0  0  0
 37 68  1  0  0  0  0
 37 76  2  0  0  0  0
 38 60  1  0  0  0  0
 38 70  1  0  0  0  0
 38 77  2  0  0  0  0
 39 65  1  0  0  0  0
 39 71  1  0  0  0  0
 39 78  2  0  0  0  0
 40 43  1  0  0  0  0
 41 50  1  0  0  0  0
 42 64  1  0  0  0  0
 43 45  1  0  0  0  0
 44 46  1  0  0  0  0
 44 47  1  0  0  0  0
 45 49  1  0  0  0  0
 46 51  1  0  0  0  0
 47 65  1  0  0  0  0
 48 51  1  0  0  0  0
 48 65  1  0  0  0  0
 49 69  1  0  0  0  0
 50 64  1  0  0  0  0
 51 63  1  0  0  0  0
 52 60  1  0  0  0  0
 53 61  1  0  0  0  0
 54 61  1  0  0  0  0
 55 61  1  0  0  0  0
 56 72  1  0  0  0  0
 57 71  1  0  0  0  0
 58 80  1  0  0  0  0
 59 61  1  0  0  0  0
 59 70  1  0  0  0  0
 60 72  1  0  0  0  0
 62 63  1  0  0  0  0
M  CHG  1  72   1
M  ISO  4  39 100  58 101  71 100  80 101
M  END
> <Batch ID>
0054

> <Smiles>
CNC(C)C(=O)NC(C(=O)N1Cc2cc([101O:1][101CH2:1]C(=O)Nc3ccc(C[100NH:0][100C:0](=O)N4CCCC(n5nc(-c6ccc(Oc7ccc(F)cc7F)cc6)c(C(N)=O)c5N)C4)cc3F)ccc2CC1C(=O)NC1CCCc2ccccc21)C(C)(C)C

> <Shape>
0.345

> <Color>
0.143

> <Negative vol penalty>
0.000

$$$$

  -OEChem-04042322463D

 86 95  0     1  0  0  0  0  0999 V2000
  -26.3856  -24.2003   30.5148 C   0  0  0  0  0  0  0  0  0  0  0  0
  -26.9499  -22.9677   30.2023 C   0  0  0  0  0  0  0  0  0  0  0  0
  -23.2796  -10.3100   22.2529 C   0  0  0  0  0  0  0  0  0  0  0  0
  -23.8066   -9.5075   20.0359 C   0  0  0  0  0  0  0  0  0  0  0  0
  -25.6134  -24.8723   29.5682 C   0  0  0  0  0  0  0  0  0  0  0  0
  -26.7415  -22.4060   28.9431 C   0  0  0  0  0  0  0  0  0  0  0  0
  -30.9873  -20.5148   26.9327 C   0  0  0  0  0  0  0  0  0  0  0  0
  -22.5495   -9.1476   22.5002 C   0  0  0  0  0  0  0  0  0  0  0  0
  -23.0765   -8.3450   20.2831 C   0  0  0  0  0  0  0  0  0  0  0  0
  -31.4192  -19.2765   27.4058 C   0  0  0  0  0  0  0  0  0  0  0  0
  -19.4973   -7.9136   21.7347 C   0  0  0  0  0  0  0  0  0  0  0  0
  -18.2479   -8.0502   22.3395 C   0  0  0  0  0  0  0  0  0  0  0  0
  -30.4640  -18.2087   25.4650 C   0  0  0  0  0  0  0  0  0  0  0  0
  -33.2374  -11.9650   25.7451 C   0  0  0  0  0  0  0  0  0  0  0  0
  -32.9568  -12.2483   23.3622 C   0  0  0  0  0  0  0  0  0  0  0  0
  -31.0874  -12.6079   24.8499 C   0  0  0  0  0  0  0  0  0  0  0  0
  -18.9950   -6.6889   24.1904 C   0  0  0  0  0  0  0  0  0  0  0  0
  -23.9082  -10.4900   21.0207 C   0  0  0  0  0  0  0  0  0  0  0  0
  -24.1839  -13.0149   20.7824 C   0  0  0  0  0  0  0  0  0  0  0  0
  -25.4035  -24.3230   28.2935 C   0  0  0  0  0  0  0  0  0  0  0  0
  -30.2799  -20.6083   25.7256 C   0  0  0  0  0  0  0  0  0  0  0  0
  -25.9648  -23.0707   27.9790 C   0  0  0  0  0  0  0  0  0  0  0  0
  -30.0266  -19.4497   24.9775 C   0  0  0  0  0  0  0  0  0  0  0  0
  -33.7670  -11.9395   24.4549 C   0  0  0  0  0  0  0  0  0  0  0  0
  -31.8976  -12.2991   25.9426 C   0  0  0  0  0  0  0  0  0  0  0  0
  -31.6170  -12.5825   23.5597 C   0  0  0  0  0  0  0  0  0  0  0  0
  -22.4480   -8.1650   21.5153 C   0  0  0  0  0  0  0  0  0  0  0  0
  -31.1550  -18.1228   26.6733 C   0  0  0  0  0  0  0  0  0  0  0  0
  -20.4956   -7.1645   22.3577 C   0  0  0  0  0  0  0  0  0  0  0  0
  -17.9967   -7.4379   23.5673 C   0  0  0  0  0  0  0  0  0  0  0  0
  -20.2444   -6.5522   23.5856 C   0  0  0  0  0  0  0  0  0  0  0  0
  -24.6620  -11.6909   20.7645 C   0  0  0  0  0  0  0  0  0  0  0  0
  -25.2825  -13.7808   20.4774 C   0  0  0  0  0  0  0  0  0  0  0  0
  -29.9306  -14.3334   27.6288 C   0  0  0  0  0  0  0  0  0  0  0  0
  -22.8647  -13.5082   21.0508 C   0  0  0  0  0  0  0  0  0  0  0  0
  -27.3701  -21.5865   24.9009 C   0  0  0  0  0  0  0  0  0  0  0  0
  -28.4846  -21.1039   21.8930 C   0  0  0  0  0  0  0  0  0  0  0  0
  -30.4829  -18.6289   20.1906 C   0  0  0  0  0  0  0  0  0  0  0  0
  -31.1619  -12.9182   21.1048 C   0  0  0  0  0  0  0  0  0  0  0  0
  -24.5223  -25.0645   27.3197 C   0  0  0  0  0  0  0  0  0  0  0  0
  -29.8443  -21.9547   25.2157 C   0  0  0  0  0  0  0  0  0  0  0  0
  -29.2886  -19.4985   23.6654 C   0  0  0  0  0  0  0  0  0  0  0  0
  -29.7817  -15.7229   28.2250 C   0  0  0  0  0  0  0  0  0  0  0  0
  -24.6597  -24.5759   25.8800 C   0  0  0  0  0  0  0  0  0  0  0  0
  -29.4215  -13.6029   18.0751 C   0  0  0  0  0  0  0  0  0  0  0  0
  -24.6176  -23.0520   25.8271 C   0  0  0  0  0  0  0  0  0  0  0  0
  -27.9592  -13.3167   18.4243 C   0  0  0  0  0  0  0  0  0  0  0  0
  -32.1077  -15.6202   29.0917 C   0  0  0  0  0  0  0  0  0  0  0  0
  -30.3714  -12.6269   18.7670 C   0  0  0  0  0  0  0  0  0  0  0  0
  -32.3617  -14.3583   28.2856 C   0  0  0  0  0  0  0  0  0  0  0  0
  -28.7401  -12.2359   20.5712 C   0  0  0  0  0  0  0  0  0  0  0  0
  -25.7820  -22.4403   26.6154 C   0  0  1  0  0  0  0  0  0  0  0  0
  -28.6834  -21.8730   24.2293 C   0  0  1  0  0  0  0  0  0  0  0  0
  -27.7498  -13.2338   19.9490 C   0  0  2  0  0  0  0  0  0  0  0  0
  -31.0780  -16.4928   28.4001 C   0  0  1  0  0  0  0  0  0  1  0  0
  -35.1995  -11.5821   24.2439 C   0  0  0  0  0  0  0  0  0  0  0  0
  -31.9456  -18.8274   18.1612 C   0  0  0  0  0  0  0  0  0  0  0  0
  -26.0040  -20.1855   20.3721 C   0  0  0  0  0  0  0  0  0  0  0  0
  -27.4991  -18.8270   18.8931 C   0  0  0  0  0  0  0  0  0  0  0  0
  -27.7361  -21.3094   18.9611 C   0  0  0  0  0  0  0  0  0  0  0  0
  -32.8309  -17.5512   21.6345 C   0  0  0  0  0  0  0  0  0  0  0  0
  -31.3277  -12.3266   27.3313 C   0  0  0  0  0  0  0  0  0  0  0  0
  -28.5108  -19.9357   20.9372 C   0  0  1  0  0  0  0  0  0  0  0  0
  -31.9026  -18.8008   19.6811 C   0  0  2  0  0  0  0  0  0  0  0  0
  -27.4377  -20.0606   19.8191 C   0  0  0  0  0  0  0  0  0  0  0  0
  -25.9630  -11.6164   20.4712 N   0  0  0  0  0  0  0  0  0  0  0  0
  -26.3116  -12.9032   20.3019 N   0  0  0  0  0  0  0  0  0  0  0  0
  -31.1493  -13.6873   27.8206 N   0  0  0  0  0  0  0  0  0  0  0  0
  -28.8777  -20.8376   23.2122 N   0  0  0  0  0  0  0  0  0  0  0  0
  -30.1177  -12.6047   20.2092 N   0  0  0  0  0  0  0  0  0  0  0  0
  -25.4588  -15.1126   20.3448 N   0  0  0  0  0  0  0  0  0  0  0  0
  -21.8533  -12.5843   21.3468 N   0  0  0  0  0  0  0  0  0  0  0  0
  -30.7940  -12.8963   22.4498 N   0  0  0  0  0  0  0  0  0  0  0  0
  -27.0082  -22.5222   25.8511 N   0  0  0  0  0  0  0  0  0  0  0  0
  -29.8804  -19.8431   20.4432 N   0  0  0  0  0  0  0  0  0  0  0  0
  -32.7626  -17.6802   20.1561 N   0  3  0  0  0  0  0  0  0  0  0  0
  -28.9551  -13.8161   27.0765 O   0  0  0  0  0  0  0  0  0  0  0  0
  -22.5873  -14.7310   21.0126 O   0  0  0  0  0  0  0  0  0  0  0  0
  -26.7318  -20.5910   24.5797 O   0  0  0  0  0  0  0  0  0  0  0  0
  -28.1352  -22.2134   21.4824 O   0  0  0  0  0  0  0  0  0  0  0  0
  -29.9595  -17.5277   20.3453 O   0  0  0  0  0  0  0  0  0  0  0  0
  -32.2917  -13.2131   20.7067 O   0  0  0  0  0  0  0  0  0  0  0  0
  -21.7358   -7.0304   21.7563 O   0  0  0  0  0  0  0  0  0  0  0  0
  -31.5749  -16.9128   27.1331 O   0  0  0  0  0  0  0  0  0  1  0  0
  -16.7973   -7.5706   24.1488 F   0  0  0  0  0  0  0  0  0  0  0  0
  -21.1999   -5.8324   24.1895 F   0  0  0  0  0  0  0  0  0  0  0  0
  1  2  1  0  0  0  0
  1  5  2  0  0  0  0
  2  6  2  0  0  0  0
  3  8  2  0  0  0  0
  3 18  1  0  0  0  0
  4  9  1  0  0  0  0
  4 18  2  0  0  0  0
  5 20  1  0  0  0  0
  6 22  1  0  0  0  0
  7 10  2  0  0  0  0
  7 21  1  0  0  0  0
  8 27  1  0  0  0  0
  9 27  2  0  0  0  0
 10 28  1  0  0  0  0
 11 12  2  0  0  0  0
 11 29  1  0  0  0  0
 12 30  1  0  0  0  0
 13 23  1  0  0  0  0
 13 28  2  0  0  0  0
 14 24  2  0  0  0  0
 14 25  1  0  0  0  0
 15 24  1  0  0  0  0
 15 26  2  0  0  0  0
 16 25  2  0  0  0  0
 16 26  1  0  0  0  0
 17 30  2  0  0  0  0
 17 31  1  0  0  0  0
 18 32  1  0  0  0  0
 19 32  1  0  0  0  0
 19 33  2  0  0  0  0
 19 35  1  0  0  0  0
 20 22  2  0  0  0  0
 20 40  1  0  0  0  0
 21 23  2  0  0  0  0
 21 41  1  0  0  0  0
 22 52  1  0  0  0  0
 23 42  1  0  0  0  0
 24 56  1  0  0  0  0
 25 62  1  0  0  0  0
 26 73  1  0  0  0  0
 27 83  1  0  0  0  0
 28 84  1  0  0  0  0
 29 31  2  0  0  0  0
 29 83  1  0  0  0  0
 30 85  1  0  0  0  0
 31 86  1  0  0  0  0
 32 66  2  0  0  0  0
 33 67  1  0  0  0  0
 33 71  1  0  0  0  0
 34 43  1  0  0  0  0
 34 68  1  0  0  0  0
 34 77  2  0  0  0  0
 35 72  1  0  0  0  0
 35 78  2  0  0  0  0
 36 53  1  0  0  0  0
 36 74  1  0  0  0  0
 36 79  2  0  0  0  0
 37 63  1  0  0  0  0
 37 69  1  0  0  0  0
 37 80  2  0  0  0  0
 38 64  1  0  0  0  0
 38 75  1  0  0  0  0
 38 81  2  0  0  0  0
 39 70  1  0  0  0  0
 39 73  1  0  0  0  0
 39 82  2  0  0  0  0
 40 44  1  0  0  0  0
 41 53  1  0  0  0  0
 42 69  1  0  0  0  0
 43 55  1  0  0  0  0
 44 46  1  0  0  0  0
 45 47  1  0  0  0  0
 45 49  1  0  0  0  0
 46 52  1  0  0  0  0
 47 54  1  0  0  0  0
 48 50  1  0  0  0  0
 48 55  1  0  0  0  0
 49 70  1  0  0  0  0
 50 68  1  0  0  0  0
 51 54  1  0  0  0  0
 51 70  1  0  0  0  0
 52 74  1  0  0  0  0
 53 69  1  0  0  0  0
 54 67  1  0  0  0  0
 55 84  1  0  0  0  0
 57 64  1  0  0  0  0
 58 65  1  0  0  0  0
 59 65  1  0  0  0  0
 60 65  1  0  0  0  0
 61 76  1  0  0  0  0
 62 68  1  0  0  0  0
 63 65  1  0  0  0  0
 63 75  1  0  0  0  0
 64 76  1  0  0  0  0
 66 67  1  0  0  0  0
M  CHG  1  76   1
M  ISO  4  39 100  55 101  73 100  84 101
M  END
> <Batch ID>
0054

> <Smiles>
CNC(C)C(=O)NC(C(=O)N1Cc2cc([101O:1][101CH:1]3CCN(Cc4cc(C)cc([100NH:0][100C:0](=O)N5CCCC(n6nc(-c7ccc(Oc8ccc(F)cc8F)cc7)c(C(N)=O)c6N)C5)c4)C(=O)C3)ccc2CC1C(=O)NC1CCCc2ccccc21)C(C)(C)C

> <Shape>
0.171

> <Color>
0.190

> <Negative vol penalty>
0.000

$$$$

  -OEChem-04042322463D

 90 99  0     1  0  0  0  0  0999 V2000
  -29.6964  -21.3480   17.5527 C   0  0  0  0  0  0  0  0  0  0  0  0
  -26.9553  -32.8879   28.2933 C   0  0  0  0  0  0  0  0  0  0  0  0
  -27.2816  -31.8494   27.4271 C   0  0  0  0  0  0  0  0  0  0  0  0
  -22.9991   -9.5824   21.5462 C   0  0  0  0  0  0  0  0  0  0  0  0
  -24.3576  -10.2548   23.4275 C   0  0  0  0  0  0  0  0  0  0  0  0
  -25.6582  -33.3991   28.3096 C   0  0  0  0  0  0  0  0  0  0  0  0
  -26.3106  -31.3207   26.5773 C   0  0  0  0  0  0  0  0  0  0  0  0
  -27.1571  -29.1756   20.9039 C   0  0  0  0  0  0  0  0  0  0  0  0
  -31.7791  -18.8252   20.6907 C   0  0  0  0  0  0  0  0  0  0  0  0
  -31.3947  -17.5094   20.4327 C   0  0  0  0  0  0  0  0  0  0  0  0
  -22.3152   -8.6813   22.3621 C   0  0  0  0  0  0  0  0  0  0  0  0
  -23.6737   -9.3536   24.2434 C   0  0  0  0  0  0  0  0  0  0  0  0
  -27.3123  -27.8838   20.4029 C   0  0  0  0  0  0  0  0  0  0  0  0
  -22.8376   -5.6037   23.6582 C   0  0  0  0  0  0  0  0  0  0  0  0
  -22.6115   -4.3211   23.1587 C   0  0  0  0  0  0  0  0  0  0  0  0
  -24.9575  -27.8084   19.8846 C   0  0  0  0  0  0  0  0  0  0  0  0
  -20.2285   -4.6598   23.3673 C   0  0  0  0  0  0  0  0  0  0  0  0
  -24.0204  -10.3692   22.0789 C   0  0  0  0  0  0  0  0  0  0  0  0
  -24.1826  -12.3838   20.5224 C   0  0  0  0  0  0  0  0  0  0  0  0
  -24.6734  -32.8829   27.4527 C   0  0  0  0  0  0  0  0  0  0  0  0
  -25.8968  -29.7904   20.9089 C   0  0  0  0  0  0  0  0  0  0  0  0
  -24.9988  -31.8246   26.5830 C   0  0  0  0  0  0  0  0  0  0  0  0
  -24.7895  -29.1090   20.3838 C   0  0  0  0  0  0  0  0  0  0  0  0
  -30.8219  -19.8396   20.7144 C   0  0  0  0  0  0  0  0  0  0  0  0
  -29.4803  -19.5381   20.4800 C   0  0  0  0  0  0  0  0  0  0  0  0
  -29.0959  -18.2223   20.2220 C   0  0  0  0  0  0  0  0  0  0  0  0
  -30.0531  -17.2080   20.1984 C   0  0  0  0  0  0  0  0  0  0  0  0
  -22.6524   -8.5669   23.7107 C   0  0  0  0  0  0  0  0  0  0  0  0
  -26.2119  -27.1988   19.8958 C   0  0  0  0  0  0  0  0  0  0  0  0
  -21.7591   -6.4143   24.0123 C   0  0  0  0  0  0  0  0  0  0  0  0
  -21.3070   -3.8492   23.0132 C   0  0  0  0  0  0  0  0  0  0  0  0
  -20.4545   -5.9424   23.8668 C   0  0  0  0  0  0  0  0  0  0  0  0
  -24.7276  -11.2999   21.2364 C   0  0  0  0  0  0  0  0  0  0  0  0
  -25.2587  -12.9502   19.8839 C   0  0  0  0  0  0  0  0  0  0  0  0
  -28.9436  -21.8715   18.4805 C   0  0  0  0  0  0  0  0  0  0  0  0
  -30.4472  -20.8251   16.6271 C   0  0  0  0  0  0  0  0  0  0  0  0
  -22.8250  -12.8381   20.4435 C   0  0  0  0  0  0  0  0  0  0  0  0
  -23.9484  -30.8939   23.1649 C   0  0  0  0  0  0  0  0  0  0  0  0
  -22.2289  -31.9401   20.6211 C   0  0  0  0  0  0  0  0  0  0  0  0
  -21.4501  -31.6051   17.3153 C   0  0  0  0  0  0  0  0  0  0  0  0
  -30.5265  -14.7537   19.8840 C   0  0  0  0  0  0  0  0  0  0  0  0
  -23.2730  -33.4362   27.5397 C   0  0  0  0  0  0  0  0  0  0  0  0
  -25.7510  -31.1944   21.4283 C   0  0  0  0  0  0  0  0  0  0  0  0
  -23.4188  -29.7323   20.3477 C   0  0  0  0  0  0  0  0  0  0  0  0
  -29.0184  -23.3228   18.8795 C   0  0  0  0  0  0  0  0  0  0  0  0
  -22.3990  -33.0725   26.3422 C   0  0  0  0  0  0  0  0  0  0  0  0
  -30.0021  -11.2791   19.3101 C   0  0  0  0  0  0  0  0  0  0  0  0
  -22.5363  -31.5897   26.0117 C   0  0  0  0  0  0  0  0  0  0  0  0
  -28.5383  -11.0639   19.7014 C   0  0  0  0  0  0  0  0  0  0  0  0
  -26.6249  -23.0907   19.6399 C   0  0  0  0  0  0  0  0  0  0  0  0
  -30.6885  -12.2968   20.2195 C   0  0  0  0  0  0  0  0  0  0  0  0
  -28.5318  -13.3705   20.7343 C   0  0  0  0  0  0  0  0  0  0  0  0
  -26.6064  -21.6600   19.1087 C   0  0  0  0  0  0  0  0  0  0  0  0
  -23.9796  -31.2413   25.6285 C   0  0  1  0  0  0  0  0  0  0  0  0
  -24.3252  -31.5283   21.8561 C   0  0  1  0  0  0  0  0  0  0  0  0
  -27.6251  -23.9628   18.8698 C   0  0  1  0  0  0  0  0  0  0  0  0
  -27.7805  -12.4019   19.8063 C   0  0  2  0  0  0  0  0  0  0  0  0
  -31.2603  -21.2400   20.9931 C   0  0  0  0  0  0  0  0  0  0  0  0
  -27.6556  -17.9011   19.9708 C   0  0  0  0  0  0  0  0  0  0  0  0
  -31.4737  -21.5678   15.8394 C   0  0  0  0  0  0  0  0  0  0  0  0
  -19.9825  -32.5804   15.5286 C   0  0  0  0  0  0  0  0  0  0  0  0
  -19.8210  -30.4937   21.8128 C   0  0  0  0  0  0  0  0  0  0  0  0
  -18.6913  -30.6870   19.5869 C   0  0  0  0  0  0  0  0  0  0  0  0
  -19.3140  -32.7457   20.8504 C   0  0  0  0  0  0  0  0  0  0  0  0
  -23.7802  -32.4003   15.6731 C   0  0  0  0  0  0  0  0  0  0  0  0
  -28.4530  -20.6313   20.5062 C   0  0  0  0  0  0  0  0  0  0  0  0
  -27.6722  -25.3769   19.4443 C   0  0  0  0  0  0  0  0  0  1  0  0
  -21.1293  -31.3620   19.7633 C   0  0  1  0  0  0  0  0  0  0  0  0
  -21.3482  -32.6255   16.1960 C   0  0  2  0  0  0  0  0  0  0  0  0
  -19.7642  -31.3094   20.5056 C   0  0  0  0  0  0  0  0  0  0  0  0
  -26.0474  -11.1825   21.0676 N   0  0  0  0  0  0  0  0  0  0  0  0
  -26.3406  -12.2001   20.2401 N   0  0  0  0  0  0  0  0  0  0  0  0
  -23.3263  -31.1046   20.8729 N   0  0  0  0  0  0  0  0  0  0  0  0
  -29.9164  -13.5404   20.2667 N   0  0  0  0  0  0  0  0  0  0  0  0
  -25.3755  -14.0116   19.0580 N   0  0  0  0  0  0  0  0  0  0  0  0
  -22.3818  -13.7845   21.3774 N   0  0  0  0  0  0  0  0  0  0  0  0
  -29.6852  -15.8645   19.9386 N   0  0  0  0  0  0  0  0  0  0  0  0
  -24.2578  -31.6612   24.2718 N   0  0  0  0  0  0  0  0  0  0  0  0
  -21.1120  -32.1504   18.5359 N   0  0  0  0  0  0  0  0  0  0  0  0
  -27.9759  -21.0245   19.1353 N   0  3  2  0  0  0  0  0  0  0  0  0
  -22.3866  -32.3631   15.1598 N   0  3  0  0  0  0  0  0  0  0  0  0
  -22.0239  -12.4051   19.5808 O   0  0  0  0  0  0  0  0  0  0  0  0
  -23.4149  -29.7907   23.1702 O   0  0  0  0  0  0  0  0  0  0  0  0
  -22.1214  -33.0932   21.0460 O   0  0  0  0  0  0  0  0  0  0  0  0
  -21.7915  -30.4398   17.1254 O   0  0  0  0  0  0  0  0  0  0  0  0
  -31.7005  -14.7993   19.5076 O   0  0  0  0  0  0  0  0  0  0  0  0
  -21.9851   -7.6878   24.5072 O   0  0  0  0  0  0  0  0  0  0  0  0
  -26.3605  -25.9376   19.4069 O   0  0  0  0  0  0  0  0  0  1  0  0
  -21.0901   -2.6180   22.5322 F   0  0  0  0  0  0  0  0  0  0  0  0
  -19.4144   -6.7171   24.2041 F   0  0  0  0  0  0  0  0  0  0  0  0
  1 35  2  0  0  0  0
  1 36  2  0  0  0  0
  2  3  1  0  0  0  0
  2  6  2  0  0  0  0
  3  7  2  0  0  0  0
  4 11  2  0  0  0  0
  4 18  1  0  0  0  0
  5 12  1  0  0  0  0
  5 18  2  0  0  0  0
  6 20  1  0  0  0  0
  7 22  1  0  0  0  0
  8 13  2  0  0  0  0
  8 21  1  0  0  0  0
  9 10  1  0  0  0  0
  9 24  2  0  0  0  0
 10 27  2  0  0  0  0
 11 28  1  0  0  0  0
 12 28  2  0  0  0  0
 13 29  1  0  0  0  0
 14 15  2  0  0  0  0
 14 30  1  0  0  0  0
 15 31  1  0  0  0  0
 16 23  1  0  0  0  0
 16 29  2  0  0  0  0
 17 31  2  0  0  0  0
 17 32  1  0  0  0  0
 18 33  1  0  0  0  0
 19 33  1  0  0  0  0
 19 34  2  0  0  0  0
 19 37  1  0  0  0  0
 20 22  2  0  0  0  0
 20 42  1  0  0  0  0
 21 23  2  0  0  0  0
 21 43  1  0  0  0  0
 22 54  1  0  0  0  0
 23 44  1  0  0  0  0
 24 25  1  0  0  0  0
 24 58  1  0  0  0  0
 25 26  2  0  0  0  0
 25 66  1  0  0  0  0
 26 27  1  0  0  0  0
 26 59  1  0  0  0  0
 27 77  1  0  0  0  0
 28 87  1  0  0  0  0
 29 88  1  0  0  0  0
 30 32  2  0  0  0  0
 30 87  1  0  0  0  0
 31 89  1  0  0  0  0
 32 90  1  0  0  0  0
 33 71  2  0  0  0  0
 34 72  1  0  0  0  0
 34 75  1  0  0  0  0
 35 45  1  0  0  0  0
 35 80  1  0  0  0  0
 36 60  1  0  0  0  0
 37 76  1  0  0  0  0
 37 82  2  0  0  0  0
 38 55  1  0  0  0  0
 38 78  1  0  0  0  0
 38 83  2  0  0  0  0
 39 68  1  0  0  0  0
 39 73  1  0  0  0  0
 39 84  2  0  0  0  0
 40 69  1  0  0  0  0
 40 79  1  0  0  0  0
 40 85  2  0  0  0  0
 41 74  1  0  0  0  0
 41 77  1  0  0  0  0
 41 86  2  0  0  0  0
 42 46  1  0  0  0  0
 43 55  1  0  0  0  0
 44 73  1  0  0  0  0
 45 56  1  0  0  0  0
 46 48  1  0  0  0  0
 47 49  1  0  0  0  0
 47 51  1  0  0  0  0
 48 54  1  0  0  0  0
 49 57  1  0  0  0  0
 50 53  1  0  0  0  0
 50 56  1  0  0  0  0
 51 74  1  0  0  0  0
 52 57  1  0  0  0  0
 52 74  1  0  0  0  0
 53 80  1  0  0  0  0
 54 78  1  0  0  0  0
 55 73  1  0  0  0  0
 56 67  1  0  0  0  0
 57 72  1  0  0  0  0
 61 69  1  0  0  0  0
 62 70  1  0  0  0  0
 63 70  1  0  0  0  0
 64 70  1  0  0  0  0
 65 81  1  0  0  0  0
 66 80  1  0  0  0  0
 67 88  1  0  0  0  0
 68 70  1  0  0  0  0
 68 79  1  0  0  0  0
 69 81  1  0  0  0  0
 71 72  1  0  0  0  0
M  CHG  2  80   1  81   1
M  ISO  4  41 100  67 101  77 100  88 101
M  END
> <Batch ID>
0054

> <Smiles>
CC=C=C1CC([101CH2:1][101O:1]c2ccc3c(c2)CN(C(=O)C(NC(=O)C(C)NC)C(C)(C)C)C(C(=O)NC2CCCc4ccccc42)C3)CCN1Cc1c(C)ccc([100NH:0][100C:0](=O)N2CCCC(n3nc(-c4ccc(Oc5ccc(F)cc5F)cc4)c(C(N)=O)c3N)C2)c1C

> <Shape>
0.308

> <Color>
0.119

> <Negative vol penalty>
0.000

$$$$

  -OEChem-04042322463D

 88 97  0     1  0  0  0  0  0999 V2000
  -25.7800  -11.0782   20.8956 C   0  0  0  0  0  0  0  0  0  0  0  0
  -26.7970  -11.9532   20.5275 C   0  0  0  0  0  0  0  0  0  0  0  0
  -20.1859  -28.7948   22.0364 C   0  0  0  0  0  0  0  0  0  0  0  0
  -21.5729  -26.8258   22.2261 C   0  0  0  0  0  0  0  0  0  0  0  0
  -27.9025  -26.0257   25.2884 C   0  0  0  0  0  0  0  0  0  0  0  0
  -24.4567  -11.5171   20.9133 C   0  0  0  0  0  0  0  0  0  0  0  0
  -26.4912  -13.2674   20.1758 C   0  0  0  0  0  0  0  0  0  0  0  0
  -29.1754  -19.9013   20.4963 C   0  0  0  0  0  0  0  0  0  0  0  0
  -19.0539  -27.9871   21.9279 C   0  0  0  0  0  0  0  0  0  0  0  0
  -20.4409  -26.0180   22.1177 C   0  0  0  0  0  0  0  0  0  0  0  0
  -29.4447  -20.9951   19.6748 C   0  0  0  0  0  0  0  0  0  0  0  0
  -17.9211  -24.9824   24.1173 C   0  0  0  0  0  0  0  0  0  0  0  0
  -17.8025  -23.9130   25.0048 C   0  0  0  0  0  0  0  0  0  0  0  0
  -28.1544  -25.0186   24.3568 C   0  0  0  0  0  0  0  0  0  0  0  0
  -27.1316  -21.6647   19.8182 C   0  0  0  0  0  0  0  0  0  0  0  0
  -17.7592  -22.3732   23.1436 C   0  0  0  0  0  0  0  0  0  0  0  0
  -21.4454  -28.2142   22.1855 C   0  0  0  0  0  0  0  0  0  0  0  0
  -28.3045  -27.3353   25.0256 C   0  0  0  0  0  0  0  0  0  0  0  0
  -23.0889  -29.9786   21.3528 C   0  0  0  0  0  0  0  0  0  0  0  0
  -24.1356  -12.8401   20.5709 C   0  0  0  0  0  0  0  0  0  0  0  0
  -27.8777  -19.6745   20.9769 C   0  0  0  0  0  0  0  0  0  0  0  0
  -25.1622  -13.7241   20.1876 C   0  0  0  0  0  0  0  0  0  0  0  0
  -26.8490  -20.5687   20.6478 C   0  0  0  0  0  0  0  0  0  0  0  0
  -28.9584  -27.6377   23.8312 C   0  0  0  0  0  0  0  0  0  0  0  0
  -29.2104  -26.6305   22.8996 C   0  0  0  0  0  0  0  0  0  0  0  0
  -19.1814  -26.5986   21.9686 C   0  0  0  0  0  0  0  0  0  0  0  0
  -28.4222  -21.8754   19.3333 C   0  0  0  0  0  0  0  0  0  0  0  0
  -17.9586  -24.7473   22.7429 C   0  0  0  0  0  0  0  0  0  0  0  0
  -17.7216  -22.6083   24.5180 C   0  0  0  0  0  0  0  0  0  0  0  0
  -17.8777  -23.4427   22.2560 C   0  0  0  0  0  0  0  0  0  0  0  0
  -28.8083  -25.3210   23.1624 C   0  0  0  0  0  0  0  0  0  0  0  0
  -22.6151  -29.0481   22.2970 C   0  0  0  0  0  0  0  0  0  0  0  0
  -24.2198  -30.5053   21.9275 C   0  0  0  0  0  0  0  0  0  0  0  0
  -27.8876  -27.3517   20.3402 C   0  0  0  0  0  0  0  0  0  0  0  0
  -29.6135  -25.6962   19.5431 C   0  0  0  0  0  0  0  0  0  0  0  0
  -28.0227  -28.3733   26.0255 C   0  0  0  0  0  0  0  0  0  0  0  0
  -22.5546  -30.3350   20.0710 C   0  0  0  0  0  0  0  0  0  0  0  0
  -25.7409  -17.3438   20.6522 C   0  0  0  0  0  0  0  0  0  0  0  0
  -24.0927  -19.0794   22.8416 C   0  0  0  0  0  0  0  0  0  0  0  0
  -22.9149  -22.1800   24.2615 C   0  0  0  0  0  0  0  0  0  0  0  0
  -22.6857  -13.2554   20.5592 C   0  0  0  0  0  0  0  0  0  0  0  0
  -27.6092  -18.5050   21.8838 C   0  0  0  0  0  0  0  0  0  0  0  0
  -25.4430  -20.3812   21.1542 C   0  0  0  0  0  0  0  0  0  0  0  0
  -27.0423  -27.0426   19.1279 C   0  0  0  0  0  0  0  0  0  0  0  0
  -22.4857  -14.7686   20.5343 C   0  0  0  0  0  0  0  0  0  0  0  0
  -27.8716  -26.5434   17.9653 C   0  0  0  0  0  0  0  0  0  0  0  0
  -26.1820  -31.4270   26.1944 C   0  0  0  0  0  0  0  0  0  0  0  0
  -23.3962  -15.4102   19.4921 C   0  0  0  0  0  0  0  0  0  0  0  0
  -25.0897  -31.2445   25.1391 C   0  0  0  0  0  0  0  0  0  0  0  0
  -26.5044  -30.1146   26.9045 C   0  0  0  0  0  0  0  0  0  0  0  0
  -25.7576  -28.8123   24.9421 C   0  0  0  0  0  0  0  0  0  0  0  0
  -24.8731  -15.1642   19.8233 C   0  0  1  0  0  0  0  0  0  0  0  0
  -28.7119  -25.3436   18.3744 C   0  0  2  0  0  0  0  0  0  0  0  0
  -26.1432  -18.0832   21.8968 C   0  0  1  0  0  0  0  0  0  0  0  0
  -25.4384  -30.1014   24.1673 C   0  0  1  0  0  0  0  0  0  0  0  0
  -29.3908  -29.0428   23.5507 C   0  0  0  0  0  0  0  0  0  0  0  0
  -21.5386  -22.6157   26.3141 C   0  0  0  0  0  0  0  0  0  0  0  0
  -21.7286  -19.0339   20.9132 C   0  0  0  0  0  0  0  0  0  0  0  0
  -20.7089  -20.9041   22.2289 C   0  0  0  0  0  0  0  0  0  0  0  0
  -21.1216  -18.6970   23.3158 C   0  0  0  0  0  0  0  0  0  0  0  0
  -24.9461  -24.0230   25.3737 C   0  0  0  0  0  0  0  0  0  0  0  0
  -29.9172  -26.9697   21.6192 C   0  0  0  0  0  0  0  0  0  0  0  0
  -27.8830  -24.1099   18.7233 C   0  0  0  0  0  0  0  0  0  1  0  0
  -23.0825  -20.1994   22.7772 C   0  0  1  0  0  0  0  0  0  0  0  0
  -22.9408  -22.5763   25.7267 C   0  0  2  0  0  0  0  0  0  0  0  0
  -21.6864  -19.7113   22.2975 C   0  0  0  0  0  0  0  0  0  0  0  0
  -23.3823  -28.9849   23.3885 N   0  0  0  0  0  0  0  0  0  0  0  0
  -24.3497  -29.8823   23.1338 N   0  0  0  0  0  0  0  0  0  0  0  0
  -29.1073  -26.6520   20.4475 N   0  0  0  0  0  0  0  0  0  0  0  0
  -26.8117  -29.0637   25.9350 N   0  0  0  0  0  0  0  0  0  0  0  0
  -25.2294  -19.2193   22.0327 N   0  0  0  0  0  0  0  0  0  0  0  0
  -25.1058  -31.4359   21.5135 N   0  0  0  0  0  0  0  0  0  0  0  0
  -21.6265  -31.3830   20.0019 N   0  0  0  0  0  0  0  0  0  0  0  0
  -25.3086  -16.0513   20.8806 N   0  0  0  0  0  0  0  0  0  0  0  0
  -23.0772  -20.8207   24.0972 N   0  0  0  0  0  0  0  0  0  0  0  0
  -23.5559  -23.9241   25.8880 N   0  3  0  0  0  0  0  0  0  0  0  0
  -27.4701  -28.1468   21.1862 O   0  0  0  0  0  0  0  0  0  0  0  0
  -30.6921  -25.1124   19.6745 O   0  0  0  0  0  0  0  0  0  0  0  0
  -28.8954  -28.5645   26.8711 O   0  0  0  0  0  0  0  0  0  0  0  0
  -22.8778  -29.7310   19.0202 O   0  0  0  0  0  0  0  0  0  0  0  0
  -25.8158  -17.9048   19.5653 O   0  0  0  0  0  0  0  0  0  0  0  0
  -23.8844  -18.1193   23.5876 O   0  0  0  0  0  0  0  0  0  0  0  0
  -22.7621  -22.9944   23.3538 O   0  0  0  0  0  0  0  0  0  0  0  0
  -18.0771  -25.8101   21.8630 O   0  0  0  0  0  0  0  0  0  0  0  0
  -28.6822  -22.9434   18.5310 O   0  0  0  0  0  0  0  0  0  1  0  0
  -17.6093  -21.5813   25.3705 F   0  0  0  0  0  0  0  0  0  0  0  0
  -17.9144  -23.2104   20.9367 F   0  0  0  0  0  0  0  0  0  0  0  0
  -29.0990  -24.0460   22.0350 Cl  0  0  0  0  0  0  0  0  0  0  0  0
  1  2  1  0  0  0  0
  1  6  2  0  0  0  0
  2  7  2  0  0  0  0
  3  9  2  0  0  0  0
  3 17  1  0  0  0  0
  4 10  1  0  0  0  0
  4 17  2  0  0  0  0
  5 14  1  0  0  0  0
  5 18  2  0  0  0  0
  6 20  1  0  0  0  0
  7 22  1  0  0  0  0
  8 11  2  0  0  0  0
  8 21  1  0  0  0  0
  9 26  1  0  0  0  0
 10 26  2  0  0  0  0
 11 27  1  0  0  0  0
 12 13  2  0  0  0  0
 12 28  1  0  0  0  0
 13 29  1  0  0  0  0
 14 31  2  0  0  0  0
 15 23  1  0  0  0  0
 15 27  2  0  0  0  0
 16 29  2  0  0  0  0
 16 30  1  0  0  0  0
 17 32  1  0  0  0  0
 18 24  1  0  0  0  0
 18 36  1  0  0  0  0
 19 32  1  0  0  0  0
 19 33  2  0  0  0  0
 19 37  1  0  0  0  0
 20 22  2  0  0  0  0
 20 41  1  0  0  0  0
 21 23  2  0  0  0  0
 21 42  1  0  0  0  0
 22 52  1  0  0  0  0
 23 43  1  0  0  0  0
 24 25  2  0  0  0  0
 24 56  1  0  0  0  0
 25 31  1  0  0  0  0
 25 62  1  0  0  0  0
 26 84  1  0  0  0  0
 27 85  1  0  0  0  0
 28 30  2  0  0  0  0
 28 84  1  0  0  0  0
 29 86  1  0  0  0  0
 30 87  1  0  0  0  0
 31 88  1  0  0  0  0
 32 67  2  0  0  0  0
 33 68  1  0  0  0  0
 33 72  1  0  0  0  0
 34 44  1  0  0  0  0
 34 69  1  0  0  0  0
 34 77  2  0  0  0  0
 35 53  1  0  0  0  0
 35 69  1  0  0  0  0
 35 78  2  0  0  0  0
 36 70  1  0  0  0  0
 36 79  2  0  0  0  0
 37 73  1  0  0  0  0
 37 80  2  0  0  0  0
 38 54  1  0  0  0  0
 38 74  1  0  0  0  0
 38 81  2  0  0  0  0
 39 64  1  0  0  0  0
 39 71  1  0  0  0  0
 39 82  2  0  0  0  0
 40 65  1  0  0  0  0
 40 75  1  0  0  0  0
 40 83  2  0  0  0  0
 41 45  1  0  0  0  0
 42 54  1  0  0  0  0
 43 71  1  0  0  0  0
 44 46  1  0  0  0  0
 45 48  1  0  0  0  0
 46 53  1  0  0  0  0
 47 49  1  0  0  0  0
 47 50  1  0  0  0  0
 48 52  1  0  0  0  0
 49 55  1  0  0  0  0
 50 70  1  0  0  0  0
 51 55  1  0  0  0  0
 51 70  1  0  0  0  0
 52 74  1  0  0  0  0
 53 63  1  0  0  0  0
 54 71  1  0  0  0  0
 55 68  1  0  0  0  0
 57 65  1  0  0  0  0
 58 66  1  0  0  0  0
 59 66  1  0  0  0  0
 60 66  1  0  0  0  0
 61 76  1  0  0  0  0
 62 69  1  0  0  0  0
 63 85  1  0  0  0  0
 64 66  1  0  0  0  0
 64 75  1  0  0  0  0
 65 76  1  0  0  0  0
 67 68  1  0  0  0  0
M  CHG  1  76   1
M  ISO  4  18 100  36 100  63 101  85 101
M  END
> <Batch ID>
0054

> <Smiles>
CNC(C)C(=O)NC(C(=O)N1Cc2cc([101O:1][101CH2:1]C3CCC(=O)N(Cc4c(Cl)cc[100c:0]([100C:0](=O)N5CCCC(n6nc(-c7ccc(Oc8ccc(F)cc8F)cc7)c(C(N)=O)c6N)C5)c4C)C3=O)ccc2CC1C(=O)NC1CCCc2ccccc21)C(C)(C)C

> <Shape>
0.243

> <Color>
0.083

> <Negative vol penalty>
0.000

$$$$

  -OEChem-04042322463D

 85 93  0     1  0  0  0  0  0999 V2000
  -17.4562  -25.9604   25.6559 C   0  0  0  0  0  0  0  0  0  0  0  0
  -18.4385  -25.0903   25.1939 C   0  0  0  0  0  0  0  0  0  0  0  0
  -31.0384  -22.0894   21.6501 C   0  0  0  0  0  0  0  0  0  0  0  0
  -29.0345  -21.8206   20.3275 C   0  0  0  0  0  0  0  0  0  0  0  0
  -17.2307  -27.1683   24.9972 C   0  0  0  0  0  0  0  0  0  0  0  0
  -19.1952  -25.4273   24.0721 C   0  0  0  0  0  0  0  0  0  0  0  0
  -24.1338  -24.5077   24.7122 C   0  0  0  0  0  0  0  0  0  0  0  0
  -23.3349  -13.1255   21.5880 C   0  0  0  0  0  0  0  0  0  0  0  0
  -31.3977  -23.1960   20.8808 C   0  0  0  0  0  0  0  0  0  0  0  0
  -29.3938  -22.9272   19.5582 C   0  0  0  0  0  0  0  0  0  0  0  0
  -24.5560  -23.1846   24.5906 C   0  0  0  0  0  0  0  0  0  0  0  0
  -29.9620  -25.4628   17.0170 C   0  0  0  0  0  0  0  0  0  0  0  0
  -22.6550  -12.7111   22.7332 C   0  0  0  0  0  0  0  0  0  0  0  0
  -29.8357  -25.3580   15.6318 C   0  0  0  0  0  0  0  0  0  0  0  0
  -22.2863  -15.0180   23.3490 C   0  0  0  0  0  0  0  0  0  0  0  0
  -25.3093  -23.6377   22.3442 C   0  0  0  0  0  0  0  0  0  0  0  0
  -31.3891  -23.5076   15.6302 C   0  0  0  0  0  0  0  0  0  0  0  0
  -29.8568  -21.4016   21.3735 C   0  0  0  0  0  0  0  0  0  0  0  0
  -22.9663  -15.4324   22.2038 C   0  0  0  0  0  0  0  0  0  0  0  0
  -29.2499  -20.2269   23.5551 C   0  0  0  0  0  0  0  0  0  0  0  0
  -17.9915  -27.5246   23.8726 C   0  0  0  0  0  0  0  0  0  0  0  0
  -24.2864  -25.4045   23.6450 C   0  0  0  0  0  0  0  0  0  0  0  0
  -18.9787  -26.6405   23.3970 C   0  0  0  0  0  0  0  0  0  0  0  0
  -24.8905  -24.9723   22.4557 C   0  0  0  0  0  0  0  0  0  0  0  0
  -23.4907  -14.4861   21.3233 C   0  0  0  0  0  0  0  0  0  0  0  0
  -30.5754  -23.6149   19.8348 C   0  0  0  0  0  0  0  0  0  0  0  0
  -25.1413  -22.7486   23.4055 C   0  0  0  0  0  0  0  0  0  0  0  0
  -30.8019  -24.5901   17.7088 C   0  0  0  0  0  0  0  0  0  0  0  0
  -22.1307  -13.6574   23.6137 C   0  0  0  0  0  0  0  0  0  0  0  0
  -30.5492  -24.3804   14.9384 C   0  0  0  0  0  0  0  0  0  0  0  0
  -31.5154  -23.6125   17.0154 C   0  0  0  0  0  0  0  0  0  0  0  0
  -29.4854  -20.2581   22.1675 C   0  0  0  0  0  0  0  0  0  0  0  0
  -28.9307  -18.9175   23.8198 C   0  0  0  0  0  0  0  0  0  0  0  0
  -23.1189  -16.8877   21.9472 C   0  0  0  0  0  0  0  0  0  0  0  0
  -29.3139  -21.2868   24.5185 C   0  0  0  0  0  0  0  0  0  0  0  0
  -22.2956  -27.0956   21.8337 C   0  0  0  0  0  0  0  0  0  0  0  0
  -25.0480  -28.3424   20.6539 C   0  0  0  0  0  0  0  0  0  0  0  0
  -28.3973  -27.9739   20.1123 C   0  0  0  0  0  0  0  0  0  0  0  0
  -26.6467  -14.5181   20.4613 C   0  0  0  0  0  0  0  0  0  0  0  0
  -17.6792  -28.8197   23.1655 C   0  0  0  0  0  0  0  0  0  0  0  0
  -23.8500  -26.8354   23.8015 C   0  0  0  0  0  0  0  0  0  0  0  0
  -25.0957  -25.9008   21.2876 C   0  0  0  0  0  0  0  0  0  0  0  0
  -18.7787  -29.2712   22.2076 C   0  0  0  0  0  0  0  0  0  0  0  0
  -29.7325  -14.4743   22.2369 C   0  0  0  0  0  0  0  0  0  0  0  0
  -19.2430  -28.1054   21.3403 C   0  0  0  0  0  0  0  0  0  0  0  0
  -29.9978  -15.9488   22.5456 C   0  0  0  0  0  0  0  0  0  0  0  0
  -29.0798  -14.2929   20.8683 C   0  0  0  0  0  0  0  0  0  0  0  0
  -28.1200  -16.5607   20.9651 C   0  0  0  0  0  0  0  0  0  0  0  0
  -19.8370  -26.9818   22.1982 C   0  0  1  0  0  0  0  0  0  0  0  0
  -23.5867  -27.5290   22.4684 C   0  0  1  0  0  0  0  0  0  0  0  0
  -28.7265  -16.7985   22.3587 C   0  0  2  0  0  0  0  0  0  0  0  0
  -30.3683  -29.1446   19.0915 C   0  0  0  0  0  0  0  0  0  0  0  0
  -24.0445  -27.5993   17.8699 C   0  0  0  0  0  0  0  0  0  0  0  0
  -26.3811  -27.9013   17.0231 C   0  0  0  0  0  0  0  0  0  0  0  0
  -25.1565  -29.8346   18.0158 C   0  0  0  0  0  0  0  0  0  0  0  0
  -29.8265  -28.0734   22.7020 C   0  0  0  0  0  0  0  0  0  0  0  0
  -24.2232  -14.9026   20.0897 C   0  0  0  0  0  0  0  0  0  0  0  0
  -25.3010  -19.3825   22.1055 C   0  0  0  0  0  0  0  0  0  0  0  0
  -24.0061  -19.0318   22.8259 C   0  0  0  0  0  0  0  0  0  0  0  0
  -25.5199  -20.8851   21.9773 C   0  0  0  0  0  0  0  0  0  1  0  0
  -25.9866  -27.9853   19.5268 C   0  0  1  0  0  0  0  0  0  0  0  0
  -29.5670  -28.9086   20.3624 C   0  0  2  0  0  0  0  0  0  0  0  0
  -25.3867  -28.3119   18.1300 C   0  0  0  0  0  0  0  0  0  0  0  0
  -29.3293  -19.0634   21.5910 N   0  0  0  0  0  0  0  0  0  0  0  0
  -28.9924  -18.2692   22.6215 N   0  0  0  0  0  0  0  0  0  0  0  0
  -24.6467  -27.2886   21.4872 N   0  0  0  0  0  0  0  0  0  0  0  0
  -27.8790  -15.1244   20.7563 N   0  0  0  0  0  0  0  0  0  0  0  0
  -28.6063  -18.2690   24.9585 N   0  0  0  0  0  0  0  0  0  0  0  0
  -28.1534  -22.0311   24.7711 N   0  0  0  0  0  0  0  0  0  0  0  0
  -23.7992  -17.6130   22.9190 N   0  0  0  0  0  0  0  0  0  0  0  0
  -21.1799  -27.3217   22.6170 N   0  0  0  0  0  0  0  0  0  0  0  0
  -27.2444  -28.6676   19.8112 N   0  0  0  0  0  0  0  0  0  0  0  0
  -25.5579  -15.3775   20.3794 N   0  0  0  0  0  0  0  0  0  0  0  0
  -30.4780  -28.3344   21.3926 N   0  3  0  0  0  0  0  0  0  0  0  0
  -22.6330  -17.3715   20.9282 O   0  0  0  0  0  0  0  0  0  0  0  0
  -30.3730  -21.5763   25.1251 O   0  0  0  0  0  0  0  0  0  0  0  0
  -22.3104  -26.5945   20.7155 O   0  0  0  0  0  0  0  0  0  0  0  0
  -24.6900  -29.5145   20.7944 O   0  0  0  0  0  0  0  0  0  0  0  0
  -28.4973  -26.7505   20.1740 O   0  0  0  0  0  0  0  0  0  0  0  0
  -26.5249  -13.3005   20.2894 O   0  0  0  0  0  0  0  0  0  0  0  0
  -30.9256  -24.6949   19.0840 O   0  0  0  0  0  0  0  0  0  0  0  0
  -25.5538  -21.4575   23.2840 O   0  0  0  0  0  0  0  0  0  1  0  0
  -21.4781  -13.2594   24.7137 F   0  0  0  0  0  0  0  0  0  0  0  0
  -30.4266  -24.2789   13.6085 F   0  0  0  0  0  0  0  0  0  0  0  0
  -32.3230  -22.7704   17.6746 F   0  0  0  0  0  0  0  0  0  0  0  0
  1  2  1  0  0  0  0
  1  5  2  0  0  0  0
  2  6  2  0  0  0  0
  3  9  2  0  0  0  0
  3 18  1  0  0  0  0
  4 10  1  0  0  0  0
  4 18  2  0  0  0  0
  5 21  1  0  0  0  0
  6 23  1  0  0  0  0
  7 11  2  0  0  0  0
  7 22  1  0  0  0  0
  8 13  2  0  0  0  0
  8 25  1  0  0  0  0
  9 26  1  0  0  0  0
 10 26  2  0  0  0  0
 11 27  1  0  0  0  0
 12 14  2  0  0  0  0
 12 28  1  0  0  0  0
 13 29  1  0  0  0  0
 14 30  1  0  0  0  0
 15 19  1  0  0  0  0
 15 29  2  0  0  0  0
 16 24  1  0  0  0  0
 16 27  2  0  0  0  0
 17 30  2  0  0  0  0
 17 31  1  0  0  0  0
 18 32  1  0  0  0  0
 19 25  2  0  0  0  0
 19 34  1  0  0  0  0
 20 32  1  0  0  0  0
 20 33  2  0  0  0  0
 20 35  1  0  0  0  0
 21 23  2  0  0  0  0
 21 40  1  0  0  0  0
 22 24  2  0  0  0  0
 22 41  1  0  0  0  0
 23 49  1  0  0  0  0
 24 42  1  0  0  0  0
 25 57  1  0  0  0  0
 26 81  1  0  0  0  0
 27 82  1  0  0  0  0
 28 31  2  0  0  0  0
 28 81  1  0  0  0  0
 29 83  1  0  0  0  0
 30 84  1  0  0  0  0
 31 85  1  0  0  0  0
 32 64  2  0  0  0  0
 33 65  1  0  0  0  0
 33 68  1  0  0  0  0
 34 70  1  0  0  0  0
 34 75  2  0  0  0  0
 35 69  1  0  0  0  0
 35 76  2  0  0  0  0
 36 50  1  0  0  0  0
 36 71  1  0  0  0  0
 36 77  2  0  0  0  0
 37 61  1  0  0  0  0
 37 66  1  0  0  0  0
 37 78  2  0  0  0  0
 38 62  1  0  0  0  0
 38 72  1  0  0  0  0
 38 79  2  0  0  0  0
 39 67  1  0  0  0  0
 39 73  1  0  0  0  0
 39 80  2  0  0  0  0
 40 43  1  0  0  0  0
 41 50  1  0  0  0  0
 42 66  1  0  0  0  0
 43 45  1  0  0  0  0
 44 46  1  0  0  0  0
 44 47  1  0  0  0  0
 45 49  1  0  0  0  0
 46 51  1  0  0  0  0
 47 67  1  0  0  0  0
 48 51  1  0  0  0  0
 48 67  1  0  0  0  0
 49 71  1  0  0  0  0
 50 66  1  0  0  0  0
 51 65  1  0  0  0  0
 52 62  1  0  0  0  0
 53 63  1  0  0  0  0
 54 63  1  0  0  0  0
 55 63  1  0  0  0  0
 56 74  1  0  0  0  0
 57 73  1  0  0  0  0
 58 59  1  0  0  0  0
 58 60  1  0  0  0  0
 59 70  1  0  0  0  0
 60 82  1  0  0  0  0
 61 63  1  0  0  0  0
 61 72  1  0  0  0  0
 62 74  1  0  0  0  0
 64 65  1  0  0  0  0
M  CHG  1  74   1
M  ISO  4  39 100  60 101  73 100  82 101
M  END
> <Batch ID>
0054

> <Smiles>
CNC(C)C(=O)NC(C(=O)N1Cc2cc([101O:1][101CH2:1]CCNC(=O)c3cc(F)ccc3C[100NH:0][100C:0](=O)N3CCCC(n4nc(-c5ccc(Oc6ccc(F)cc6F)cc5)c(C(N)=O)c4N)C3)ccc2CC1C(=O)NC1CCCc2ccccc21)C(C)(C)C

> <Shape>
0.204

> <Color>
0.061

> <Negative vol penalty>
0.000

$$$$

  -OEChem-04042322463D

 85 93  0     1  0  0  0  0  0999 V2000
  -16.3960  -28.5186   23.7310 C   0  0  0  0  0  0  0  0  0  0  0  0
  -17.2721  -27.9477   22.8134 C   0  0  0  0  0  0  0  0  0  0  0  0
  -31.0902  -20.8367   20.1838 C   0  0  0  0  0  0  0  0  0  0  0  0
  -23.7778  -12.9366   20.6865 C   0  0  0  0  0  0  0  0  0  0  0  0
  -26.1459  -13.1871   21.0943 C   0  0  0  0  0  0  0  0  0  0  0  0
  -16.8133  -29.5920   24.5168 C   0  0  0  0  0  0  0  0  0  0  0  0
  -18.5659  -28.4506   22.6805 C   0  0  0  0  0  0  0  0  0  0  0  0
  -23.6433  -25.2644   21.4260 C   0  0  0  0  0  0  0  0  0  0  0  0
  -31.2318  -21.8539   19.2400 C   0  0  0  0  0  0  0  0  0  0  0  0
  -29.8177  -20.4267   20.5817 C   0  0  0  0  0  0  0  0  0  0  0  0
  -24.0137  -11.7072   20.0712 C   0  0  0  0  0  0  0  0  0  0  0  0
  -26.3819  -11.9576   20.4790 C   0  0  0  0  0  0  0  0  0  0  0  0
  -24.3462  -25.0479   20.2416 C   0  0  0  0  0  0  0  0  0  0  0  0
  -23.9549   -8.3351   18.7145 C   0  0  0  0  0  0  0  0  0  0  0  0
  -23.1178   -7.2710   19.0496 C   0  0  0  0  0  0  0  0  0  0  0  0
  -25.8391  -26.8574   20.8038 C   0  0  0  0  0  0  0  0  0  0  0  0
  -28.8284  -22.0513   19.0921 C   0  0  0  0  0  0  0  0  0  0  0  0
  -23.8032   -7.4589   21.3587 C   0  0  0  0  0  0  0  0  0  0  0  0
  -24.8439  -13.6766   21.1980 C   0  0  0  0  0  0  0  0  0  0  0  0
  -24.3416  -15.1794   23.1972 C   0  0  0  0  0  0  0  0  0  0  0  0
  -18.1160  -30.1021   24.4003 C   0  0  0  0  0  0  0  0  0  0  0  0
  -24.0271  -26.2879   22.3045 C   0  0  0  0  0  0  0  0  0  0  0  0
  -19.0006  -29.5327   23.4646 C   0  0  0  0  0  0  0  0  0  0  0  0
  -25.1410  -27.0832   22.0000 C   0  0  0  0  0  0  0  0  0  0  0  0
  -30.1010  -22.4612   18.6941 C   0  0  0  0  0  0  0  0  0  0  0  0
  -28.6868  -21.0340   20.0359 C   0  0  0  0  0  0  0  0  0  0  0  0
  -25.3158  -11.2177   19.9675 C   0  0  0  0  0  0  0  0  0  0  0  0
  -25.4425  -25.8463   19.9289 C   0  0  0  0  0  0  0  0  0  0  0  0
  -24.7163   -8.9612   19.7015 C   0  0  0  0  0  0  0  0  0  0  0  0
  -23.0419   -6.8328   20.3717 C   0  0  0  0  0  0  0  0  0  0  0  0
  -24.6404   -8.5230   21.0236 C   0  0  0  0  0  0  0  0  0  0  0  0
  -24.6009  -14.9468   21.8332 C   0  0  0  0  0  0  0  0  0  0  0  0
  -24.1826  -16.5406   23.2892 C   0  0  0  0  0  0  0  0  0  0  0  0
  -24.2525  -14.2484   24.2839 C   0  0  0  0  0  0  0  0  0  0  0  0
  -22.6452  -28.9261   23.4152 C   0  0  0  0  0  0  0  0  0  0  0  0
  -25.3096  -29.0776   25.2592 C   0  0  0  0  0  0  0  0  0  0  0  0
  -30.4961  -25.7009   18.8159 C   0  0  0  0  0  0  0  0  0  0  0  0
  -28.2761  -25.0618   17.8031 C   0  0  0  0  0  0  0  0  0  0  0  0
  -28.5825  -28.2156   25.6975 C   0  0  0  0  0  0  0  0  0  0  0  0
  -26.1692  -21.1143   19.9969 C   0  0  0  0  0  0  0  0  0  0  0  0
  -18.5065  -31.2940   25.2378 C   0  0  0  0  0  0  0  0  0  0  0  0
  -23.2747  -26.4912   23.5910 C   0  0  0  0  0  0  0  0  0  0  0  0
  -25.6060  -28.1819   22.9192 C   0  0  0  0  0  0  0  0  0  0  0  0
  -20.0139  -31.5262   25.3013 C   0  0  0  0  0  0  0  0  0  0  0  0
  -22.7727  -20.3283   20.7203 C   0  0  0  0  0  0  0  0  0  0  0  0
  -20.6280  -31.4301   23.9084 C   0  0  0  0  0  0  0  0  0  0  0  0
  -22.8333  -18.8823   21.2177 C   0  0  0  0  0  0  0  0  0  0  0  0
  -23.7749  -20.5838   19.5959 C   0  0  0  0  0  0  0  0  0  0  0  0
  -25.2207  -18.7574   20.3981 C   0  0  0  0  0  0  0  0  0  0  0  0
  -20.4199  -30.0342   23.3088 C   0  0  1  0  0  0  0  0  0  0  0  0
  -23.4406  -27.8950   24.1647 C   0  0  1  0  0  0  0  0  0  0  0  0
  -24.2745  -18.4691   21.5751 C   0  0  2  0  0  0  0  0  0  0  0  0
  -30.2420  -27.1767   18.6335 C   0  0  0  0  0  0  0  0  0  0  0  0
  -30.5040  -28.5187   27.2828 C   0  0  0  0  0  0  0  0  0  0  0  0
  -25.7141  -31.9185   24.2219 C   0  0  0  0  0  0  0  0  0  0  0  0
  -28.0718  -31.8134   25.0576 C   0  0  0  0  0  0  0  0  0  0  0  0
  -26.1718  -31.6241   26.6629 C   0  0  0  0  0  0  0  0  0  0  0  0
  -28.7707  -25.3066   26.2084 C   0  0  0  0  0  0  0  0  0  0  0  0
  -30.2540  -23.5561   17.6782 C   0  0  0  0  0  0  0  0  0  0  0  0
  -27.5207  -25.9571   18.7779 C   0  0  0  0  0  0  0  0  0  1  0  0
  -26.6793  -29.6946   25.1100 C   0  0  1  0  0  0  0  0  0  0  0  0
  -29.3221  -27.6444   26.8937 C   0  0  2  0  0  0  0  0  0  0  0  0
  -26.6496  -31.2433   25.2447 C   0  0  0  0  0  0  0  0  0  0  0  0
  -24.6070  -16.0701   21.1106 N   0  0  0  0  0  0  0  0  0  0  0  0
  -24.3495  -17.0217   22.0240 N   0  0  0  0  0  0  0  0  0  0  0  0
  -24.8339  -28.3457   24.1620 N   0  0  0  0  0  0  0  0  0  0  0  0
  -25.1188  -20.1724   20.0078 N   0  0  0  0  0  0  0  0  0  0  0  0
  -23.9177  -17.3608   24.3282 N   0  0  0  0  0  0  0  0  0  0  0  0
  -24.4423  -12.8862   24.0139 N   0  0  0  0  0  0  0  0  0  0  0  0
  -27.3943  -20.6169   20.4398 N   0  0  0  0  0  0  0  0  0  0  0  0
  -21.3560  -29.0923   23.8842 N   0  0  0  0  0  0  0  0  0  0  0  0
  -27.5362  -29.0265   26.0836 N   0  0  0  0  0  0  0  0  0  0  0  0
  -29.6368  -24.8093   18.1248 N   0  0  0  0  0  0  0  0  0  0  0  0
  -29.8301  -26.2779   26.5844 N   0  3  0  0  0  0  0  0  0  0  0  0
  -23.9955  -14.6118   25.4566 O   0  0  0  0  0  0  0  0  0  0  0  0
  -23.1631  -29.5275   22.4816 O   0  0  0  0  0  0  0  0  0  0  0  0
  -24.6878  -29.2332   26.3131 O   0  0  0  0  0  0  0  0  0  0  0  0
  -31.4320  -25.3460   19.5386 O   0  0  0  0  0  0  0  0  0  0  0  0
  -27.6849  -24.6073   16.8217 O   0  0  0  0  0  0  0  0  0  0  0  0
  -28.9033  -27.9704   24.5367 O   0  0  0  0  0  0  0  0  0  0  0  0
  -25.9886  -22.2838   19.6481 O   0  0  0  0  0  0  0  0  0  0  0  0
  -25.5463  -10.0181   19.3674 O   0  0  0  0  0  0  0  0  0  0  0  0
  -26.1299  -25.6376   18.7732 O   0  0  0  0  0  0  0  0  0  1  0  0
  -22.2367   -5.8119   20.6936 F   0  0  0  0  0  0  0  0  0  0  0  0
  -25.3685   -9.1213   21.9764 F   0  0  0  0  0  0  0  0  0  0  0  0
  1  2  1  0  0  0  0
  1  6  2  0  0  0  0
  2  7  2  0  0  0  0
  3  9  2  0  0  0  0
  3 10  1  0  0  0  0
  4 11  2  0  0  0  0
  4 19  1  0  0  0  0
  5 12  1  0  0  0  0
  5 19  2  0  0  0  0
  6 21  1  0  0  0  0
  7 23  1  0  0  0  0
  8 13  2  0  0  0  0
  8 22  1  0  0  0  0
  9 25  1  0  0  0  0
 10 26  2  0  0  0  0
 11 27  1  0  0  0  0
 12 27  2  0  0  0  0
 13 28  1  0  0  0  0
 14 15  2  0  0  0  0
 14 29  1  0  0  0  0
 15 30  1  0  0  0  0
 16 24  1  0  0  0  0
 16 28  2  0  0  0  0
 17 25  2  0  0  0  0
 17 26  1  0  0  0  0
 18 30  2  0  0  0  0
 18 31  1  0  0  0  0
 19 32  1  0  0  0  0
 20 32  1  0  0  0  0
 20 33  2  0  0  0  0
 20 34  1  0  0  0  0
 21 23  2  0  0  0  0
 21 41  1  0  0  0  0
 22 24  2  0  0  0  0
 22 42  1  0  0  0  0
 23 50  1  0  0  0  0
 24 43  1  0  0  0  0
 25 59  1  0  0  0  0
 26 70  1  0  0  0  0
 27 82  1  0  0  0  0
 28 83  1  0  0  0  0
 29 31  2  0  0  0  0
 29 82  1  0  0  0  0
 30 84  1  0  0  0  0
 31 85  1  0  0  0  0
 32 64  2  0  0  0  0
 33 65  1  0  0  0  0
 33 68  1  0  0  0  0
 34 69  1  0  0  0  0
 34 75  2  0  0  0  0
 35 51  1  0  0  0  0
 35 71  1  0  0  0  0
 35 76  2  0  0  0  0
 36 61  1  0  0  0  0
 36 66  1  0  0  0  0
 36 77  2  0  0  0  0
 37 53  1  0  0  0  0
 37 73  1  0  0  0  0
 37 78  2  0  0  0  0
 38 60  1  0  0  0  0
 38 73  1  0  0  0  0
 38 79  2  0  0  0  0
 39 62  1  0  0  0  0
 39 72  1  0  0  0  0
 39 80  2  0  0  0  0
 40 67  1  0  0  0  0
 40 70  1  0  0  0  0
 40 81  2  0  0  0  0
 41 44  1  0  0  0  0
 42 51  1  0  0  0  0
 43 66  1  0  0  0  0
 44 46  1  0  0  0  0
 45 47  1  0  0  0  0
 45 48  1  0  0  0  0
 46 50  1  0  0  0  0
 47 52  1  0  0  0  0
 48 67  1  0  0  0  0
 49 52  1  0  0  0  0
 49 67  1  0  0  0  0
 50 71  1  0  0  0  0
 51 66  1  0  0  0  0
 52 65  1  0  0  0  0
 54 62  1  0  0  0  0
 55 63  1  0  0  0  0
 56 63  1  0  0  0  0
 57 63  1  0  0  0  0
 58 74  1  0  0  0  0
 59 73  1  0  0  0  0
 60 83  1  0  0  0  0
 61 63  1  0  0  0  0
 61 72  1  0  0  0  0
 62 74  1  0  0  0  0
 64 65  1  0  0  0  0
M  CHG  1  74   1
M  ISO  4  40 100  60 101  70 100  83 101
M  END
> <Batch ID>
0054

> <Smiles>
CNC(C)C(=O)NC(C(=O)N1Cc2cc([101O:1][101CH2:1]C(=O)N(Cc3cccc([100NH:0][100C:0](=O)N4CCCC(n5nc(-c6ccc(Oc7ccc(F)cc7F)cc6)c(C(N)=O)c5N)C4)c3)C(C)=O)ccc2CC1C(=O)NC1CCCc2ccccc21)C(C)(C)C

> <Shape>
0.228

> <Color>
0.076

> <Negative vol penalty>
0.000

$$$$

  -OEChem-04042322463D

 82 90  0     1  0  0  0  0  0999 V2000
  -18.7543  -27.0561   26.0032 C   0  0  0  0  0  0  0  0  0  0  0  0
  -19.9874  -26.5667   25.5846 C   0  0  0  0  0  0  0  0  0  0  0  0
  -27.1802  -20.0208   17.2766 C   0  0  0  0  0  0  0  0  0  0  0  0
  -24.5067   -9.2460   21.1266 C   0  0  0  0  0  0  0  0  0  0  0  0
  -22.5339  -10.5476   20.6255 C   0  0  0  0  0  0  0  0  0  0  0  0
  -17.9992  -27.8606   25.1509 C   0  0  0  0  0  0  0  0  0  0  0  0
  -20.4657  -26.8807   24.3129 C   0  0  0  0  0  0  0  0  0  0  0  0
  -26.3005  -27.8051   22.6986 C   0  0  0  0  0  0  0  0  0  0  0  0
  -28.2504  -20.7922   17.7296 C   0  0  0  0  0  0  0  0  0  0  0  0
  -26.4897  -19.1961   18.1647 C   0  0  0  0  0  0  0  0  0  0  0  0
  -23.7049   -8.1413   21.4139 C   0  0  0  0  0  0  0  0  0  0  0  0
  -21.7321   -9.4429   20.9127 C   0  0  0  0  0  0  0  0  0  0  0  0
  -27.2498  -26.9791   22.0983 C   0  0  0  0  0  0  0  0  0  0  0  0
  -21.7893   -7.0538   23.9774 C   0  0  0  0  0  0  0  0  0  0  0  0
  -22.0833   -6.3221   25.1280 C   0  0  0  0  0  0  0  0  0  0  0  0
  -26.6958  -27.9169   19.9459 C   0  0  0  0  0  0  0  0  0  0  0  0
  -27.9396  -19.9141   19.9589 C   0  0  0  0  0  0  0  0  0  0  0  0
  -22.4520   -4.3510   23.7803 C   0  0  0  0  0  0  0  0  0  0  0  0
  -23.9212  -10.4491   20.7325 C   0  0  0  0  0  0  0  0  0  0  0  0
  -25.2974  -11.9421   19.1882 C   0  0  0  0  0  0  0  0  0  0  0  0
  -18.4727  -28.1926   23.8718 C   0  0  0  0  0  0  0  0  0  0  0  0
  -25.5328  -28.6869   21.9243 C   0  0  0  0  0  0  0  0  0  0  0  0
  -19.7155  -27.6894   23.4422 C   0  0  0  0  0  0  0  0  0  0  0  0
  -25.7392  -28.7548   20.5391 C   0  0  0  0  0  0  0  0  0  0  0  0
  -28.6301  -20.7389   19.0708 C   0  0  0  0  0  0  0  0  0  0  0  0
  -26.8694  -19.1427   19.5058 C   0  0  0  0  0  0  0  0  0  0  0  0
  -22.3177   -8.2398   21.3069 C   0  0  0  0  0  0  0  0  0  0  0  0
  -27.4455  -27.0328   20.7214 C   0  0  0  0  0  0  0  0  0  0  0  0
  -21.8265   -6.4340   22.7283 C   0  0  0  0  0  0  0  0  0  0  0  0
  -22.4147   -4.9708   25.0294 C   0  0  0  0  0  0  0  0  0  0  0  0
  -22.1578   -5.0827   22.6298 C   0  0  0  0  0  0  0  0  0  0  0  0
  -24.7488  -11.5908   20.4362 C   0  0  0  0  0  0  0  0  0  0  0  0
  -25.9969  -13.0983   19.4338 C   0  0  0  0  0  0  0  0  0  0  0  0
  -25.1847  -11.2823   17.9203 C   0  0  0  0  0  0  0  0  0  0  0  0
  -22.4303  -29.0214   21.3189 C   0  0  0  0  0  0  0  0  0  0  0  0
  -23.4182  -31.6967   19.7732 C   0  0  0  0  0  0  0  0  0  0  0  0
  -29.0684  -23.9458   19.7290 C   0  0  0  0  0  0  0  0  0  0  0  0
  -25.9407  -33.3636   18.1904 C   0  0  0  0  0  0  0  0  0  0  0  0
  -26.4146  -18.1354   21.7696 C   0  0  0  0  0  0  0  0  0  0  0  0
  -17.5995  -29.0267   22.9683 C   0  0  0  0  0  0  0  0  0  0  0  0
  -24.5316  -29.5904   22.5905 C   0  0  0  0  0  0  0  0  0  0  0  0
  -24.9551  -29.6988   19.6658 C   0  0  0  0  0  0  0  0  0  0  0  0
  -18.3471  -29.6208   21.7774 C   0  0  0  0  0  0  0  0  0  0  0  0
  -27.2390  -15.3315   23.8032 C   0  0  0  0  0  0  0  0  0  0  0  0
  -19.2170  -28.5602   21.1101 C   0  0  0  0  0  0  0  0  0  0  0  0
  -26.7098  -14.1372   23.0059 C   0  0  0  0  0  0  0  0  0  0  0  0
  -26.3226  -16.5475   23.6788 C   0  0  0  0  0  0  0  0  0  0  0  0
  -25.4781  -15.7546   21.5045 C   0  0  0  0  0  0  0  0  0  0  0  0
  -20.2795  -28.0283   22.0794 C   0  0  1  0  0  0  0  0  0  0  0  0
  -23.4450  -30.0823   21.6393 C   0  0  1  0  0  0  0  0  0  0  0  0
  -26.4013  -14.5260   21.5467 C   0  0  2  0  0  0  0  0  0  0  0  0
  -26.4359  -35.5160   16.9991 C   0  0  0  0  0  0  0  0  0  0  0  0
  -21.9235  -30.6778   17.3160 C   0  0  0  0  0  0  0  0  0  0  0  0
  -23.2105  -32.3238   15.9368 C   0  0  0  0  0  0  0  0  0  0  0  0
  -21.6860  -33.1312   17.7385 C   0  0  0  0  0  0  0  0  0  0  0  0
  -28.0109  -34.1161   20.1670 C   0  0  0  0  0  0  0  0  0  0  0  0
  -29.7820  -21.5695   19.5579 C   0  0  0  0  0  0  0  0  0  0  0  0
  -28.6246  -24.9677   20.7538 C   0  0  0  0  0  0  0  0  0  1  0  0
  -23.8658  -32.0153   18.3671 C   0  0  1  0  0  0  0  0  0  0  0  0
  -26.4532  -34.7854   18.3327 C   0  0  2  0  0  0  0  0  0  0  0  0
  -22.6850  -32.0177   17.3555 C   0  0  0  0  0  0  0  0  0  0  0  0
  -25.0721  -12.4539   21.4029 N   0  0  0  0  0  0  0  0  0  0  0  0
  -25.8315  -13.3589   20.7623 N   0  0  0  0  0  0  0  0  0  0  0  0
  -23.9835  -30.5574   20.3632 N   0  0  0  0  0  0  0  0  0  0  0  0
  -26.0783  -16.8593   22.2689 N   0  0  0  0  0  0  0  0  0  0  0  0
  -26.7312  -13.9073   18.6409 N   0  0  0  0  0  0  0  0  0  0  0  0
  -24.4281  -10.1050   17.8446 N   0  0  0  0  0  0  0  0  0  0  0  0
  -26.1673  -18.3053   20.4078 N   0  0  0  0  0  0  0  0  0  0  0  0
  -21.3692  -28.9726   22.2027 N   0  0  0  0  0  0  0  0  0  0  0  0
  -29.3388  -22.7184   20.3133 N   0  0  0  0  0  0  0  0  0  0  0  0
  -24.5882  -33.2804   18.4454 N   0  0  0  0  0  0  0  0  0  0  0  0
  -27.8512  -34.7828   18.8490 N   0  3  0  0  0  0  0  0  0  0  0  0
  -25.7521  -11.7147   16.8885 O   0  0  0  0  0  0  0  0  0  0  0  0
  -22.5970  -28.3015   20.3414 O   0  0  0  0  0  0  0  0  0  0  0  0
  -22.6026  -32.4357   20.3302 O   0  0  0  0  0  0  0  0  0  0  0  0
  -29.1681  -24.2046   18.5327 O   0  0  0  0  0  0  0  0  0  0  0  0
  -26.6667  -32.4217   17.8801 O   0  0  0  0  0  0  0  0  0  0  0  0
  -26.9125  -19.0038   22.4907 O   0  0  0  0  0  0  0  0  0  0  0  0
  -21.5350   -7.1620   21.5869 O   0  0  0  0  0  0  0  0  0  0  0  0
  -28.3710  -26.2272   20.1328 O   0  0  0  0  0  0  0  0  0  1  0  0
  -22.6986   -4.2687   26.1343 F   0  0  0  0  0  0  0  0  0  0  0  0
  -22.1964   -4.4822   21.4324 F   0  0  0  0  0  0  0  0  0  0  0  0
  1  2  1  0  0  0  0
  1  6  2  0  0  0  0
  2  7  2  0  0  0  0
  3  9  2  0  0  0  0
  3 10  1  0  0  0  0
  4 11  2  0  0  0  0
  4 19  1  0  0  0  0
  5 12  1  0  0  0  0
  5 19  2  0  0  0  0
  6 21  1  0  0  0  0
  7 23  1  0  0  0  0
  8 13  2  0  0  0  0
  8 22  1  0  0  0  0
  9 25  1  0  0  0  0
 10 26  2  0  0  0  0
 11 27  1  0  0  0  0
 12 27  2  0  0  0  0
 13 28  1  0  0  0  0
 14 15  2  0  0  0  0
 14 29  1  0  0  0  0
 15 30  1  0  0  0  0
 16 24  1  0  0  0  0
 16 28  2  0  0  0  0
 17 25  2  0  0  0  0
 17 26  1  0  0  0  0
 18 30  2  0  0  0  0
 18 31  1  0  0  0  0
 19 32  1  0  0  0  0
 20 32  1  0  0  0  0
 20 33  2  0  0  0  0
 20 34  1  0  0  0  0
 21 23  2  0  0  0  0
 21 40  1  0  0  0  0
 22 24  2  0  0  0  0
 22 41  1  0  0  0  0
 23 49  1  0  0  0  0
 24 42  1  0  0  0  0
 25 57  1  0  0  0  0
 26 68  1  0  0  0  0
 27 79  1  0  0  0  0
 28 80  1  0  0  0  0
 29 31  2  0  0  0  0
 29 79  1  0  0  0  0
 30 81  1  0  0  0  0
 31 82  1  0  0  0  0
 32 62  2  0  0  0  0
 33 63  1  0  0  0  0
 33 66  1  0  0  0  0
 34 67  1  0  0  0  0
 34 73  2  0  0  0  0
 35 50  1  0  0  0  0
 35 69  1  0  0  0  0
 35 74  2  0  0  0  0
 36 59  1  0  0  0  0
 36 64  1  0  0  0  0
 36 75  2  0  0  0  0
 37 58  1  0  0  0  0
 37 70  1  0  0  0  0
 37 76  2  0  0  0  0
 38 60  1  0  0  0  0
 38 71  1  0  0  0  0
 38 77  2  0  0  0  0
 39 65  1  0  0  0  0
 39 68  1  0  0  0  0
 39 78  2  0  0  0  0
 40 43  1  0  0  0  0
 41 50  1  0  0  0  0
 42 64  1  0  0  0  0
 43 45  1  0  0  0  0
 44 46  1  0  0  0  0
 44 47  1  0  0  0  0
 45 49  1  0  0  0  0
 46 51  1  0  0  0  0
 47 65  1  0  0  0  0
 48 51  1  0  0  0  0
 48 65  1  0  0  0  0
 49 69  1  0  0  0  0
 50 64  1  0  0  0  0
 51 63  1  0  0  0  0
 52 60  1  0  0  0  0
 53 61  1  0  0  0  0
 54 61  1  0  0  0  0
 55 61  1  0  0  0  0
 56 72  1  0  0  0  0
 57 70  1  0  0  0  0
 58 80  1  0  0  0  0
 59 61  1  0  0  0  0
 59 71  1  0  0  0  0
 60 72  1  0  0  0  0
 62 63  1  0  0  0  0
M  CHG  1  72   1
M  ISO  4  39 100  58 101  68 100  80 101
M  END
> <Batch ID>
0054

> <Smiles>
CNC(C)C(=O)NC(C(=O)N1Cc2cc([101O:1][101CH2:1]C(=O)NCc3cccc([100NH:0][100C:0](=O)N4CCCC(n5nc(-c6ccc(Oc7ccc(F)cc7F)cc6)c(C(N)=O)c5N)C4)c3)ccc2CC1C(=O)NC1CCCc2ccccc21)C(C)(C)C

> <Shape>
0.255

> <Color>
0.132

> <Negative vol penalty>
0.000

$$$$

  -OEChem-04042322463D

 86 95  0     1  0  0  0  0  0999 V2000
  -22.2701  -17.6613   22.0307 C   0  0  0  0  0  0  0  0  0  0  0  0
  -22.8775  -18.6356   21.2450 C   0  0  0  0  0  0  0  0  0  0  0  0
  -25.9451  -14.1802   21.4649 C   0  0  0  0  0  0  0  0  0  0  0  0
  -25.6647  -15.6909   19.6005 C   0  0  0  0  0  0  0  0  0  0  0  0
  -21.0354  -17.9171   22.6257 C   0  0  0  0  0  0  0  0  0  0  0  0
  -22.2500  -19.8659   21.0531 C   0  0  0  0  0  0  0  0  0  0  0  0
  -25.4381  -23.7700   21.5425 C   0  0  0  0  0  0  0  0  0  0  0  0
  -30.3033  -23.2426   14.9930 C   0  0  0  0  0  0  0  0  0  0  0  0
  -24.5787  -13.9009   21.4441 C   0  0  0  0  0  0  0  0  0  0  0  0
  -24.2983  -15.4115   19.5796 C   0  0  0  0  0  0  0  0  0  0  0  0
  -26.2827  -24.0410   20.4669 C   0  0  0  0  0  0  0  0  0  0  0  0
  -22.4539  -11.9910   19.6355 C   0  0  0  0  0  0  0  0  0  0  0  0
  -22.0635  -10.6562   19.7424 C   0  0  0  0  0  0  0  0  0  0  0  0
  -30.1125  -21.8718   14.8194 C   0  0  0  0  0  0  0  0  0  0  0  0
  -24.8059  -25.8133   19.7618 C   0  0  0  0  0  0  0  0  0  0  0  0
  -30.8501  -22.8722   17.3170 C   0  0  0  0  0  0  0  0  0  0  0  0
  -20.8330  -11.1773   21.7552 C   0  0  0  0  0  0  0  0  0  0  0  0
  -26.4881  -15.0753   20.5431 C   0  0  0  0  0  0  0  0  0  0  0  0
  -28.9572  -14.4517   20.3925 C   0  0  0  0  0  0  0  0  0  0  0  0
  -20.3970  -19.1548   22.4488 C   0  0  0  0  0  0  0  0  0  0  0  0
  -24.2635  -24.5126   21.7300 C   0  0  0  0  0  0  0  0  0  0  0  0
  -21.0050  -20.1381   21.6452 C   0  0  0  0  0  0  0  0  0  0  0  0
  -23.9494  -25.5514   20.8420 C   0  0  0  0  0  0  0  0  0  0  0  0
  -30.6722  -23.7428   16.2418 C   0  0  0  0  0  0  0  0  0  0  0  0
  -30.6593  -21.5014   17.1434 C   0  0  0  0  0  0  0  0  0  0  0  0
  -23.7553  -14.5165   20.5014 C   0  0  0  0  0  0  0  0  0  0  0  0
  -25.9652  -25.0609   19.5747 C   0  0  0  0  0  0  0  0  0  0  0  0
  -22.0340  -12.9190   20.5885 C   0  0  0  0  0  0  0  0  0  0  0  0
  -21.2530  -10.2494   20.8022 C   0  0  0  0  0  0  0  0  0  0  0  0
  -21.2235  -12.5122   21.6484 C   0  0  0  0  0  0  0  0  0  0  0  0
  -30.2904  -21.0012   15.8946 C   0  0  0  0  0  0  0  0  0  0  0  0
  -27.8995  -15.3647   20.5645 C   0  0  0  0  0  0  0  0  0  0  0  0
  -30.0924  -15.2175   20.4983 C   0  0  0  0  0  0  0  0  0  0  0  0
  -29.8215  -25.9573   18.5272 C   0  0  0  0  0  0  0  0  0  0  0  0
  -28.9171  -13.0378   20.1579 C   0  0  0  0  0  0  0  0  0  0  0  0
  -21.1600  -23.8275   21.7775 C   0  0  0  0  0  0  0  0  0  0  0  0
  -20.8850  -26.9354   22.6648 C   0  0  0  0  0  0  0  0  0  0  0  0
  -22.3769  -30.0836   21.7265 C   0  0  0  0  0  0  0  0  0  0  0  0
  -31.2117  -21.0103   19.5517 C   0  0  0  0  0  0  0  0  0  0  0  0
  -19.0409  -19.3679   23.0735 C   0  0  0  0  0  0  0  0  0  0  0  0
  -23.3767  -24.2254   22.9104 C   0  0  0  0  0  0  0  0  0  0  0  0
  -22.7106  -26.3913   21.0105 C   0  0  0  0  0  0  0  0  0  0  0  0
  -28.6681  -26.6769   19.2054 C   0  0  0  0  0  0  0  0  0  0  0  0
  -18.6183  -20.8338   23.1266 C   0  0  0  0  0  0  0  0  0  0  0  0
  -31.7388  -19.2061   22.5756 C   0  0  0  0  0  0  0  0  0  0  0  0
  -18.8748  -21.5123   21.7847 C   0  0  0  0  0  0  0  0  0  0  0  0
  -30.9152  -17.9304   22.3849 C   0  0  0  0  0  0  0  0  0  0  0  0
  -27.5670  -27.0239   17.0056 C   0  0  0  0  0  0  0  0  0  0  0  0
  -31.0499  -20.4231   21.9609 C   0  0  0  0  0  0  0  0  0  0  0  0
  -28.5657  -26.0874   16.3481 C   0  0  0  0  0  0  0  0  0  0  0  0
  -29.8353  -18.9946   20.3629 C   0  0  0  0  0  0  0  0  0  0  0  0
  -20.3674  -21.4941   21.4336 C   0  0  1  0  0  0  0  0  0  0  0  0
  -21.9427  -24.7064   22.7116 C   0  0  1  0  0  0  0  0  0  0  0  0
  -30.5194  -17.7305   20.9087 C   0  0  2  0  0  0  0  0  0  0  0  0
  -27.3494  -26.6341   18.4550 C   0  0  1  0  0  0  0  0  0  1  0  0
  -22.7009  -32.1932   23.0464 C   0  0  0  0  0  0  0  0  0  0  0  0
  -18.2378  -27.7851   21.4077 C   0  0  0  0  0  0  0  0  0  0  0  0
  -19.1596  -30.1038   21.2022 C   0  0  0  0  0  0  0  0  0  0  0  0
  -18.8804  -29.0697   23.4550 C   0  0  0  0  0  0  0  0  0  0  0  0
  -25.2892  -30.1034   21.1998 C   0  0  0  0  0  0  0  0  0  0  0  0
  -30.8778  -25.2183   16.4282 C   0  0  0  0  0  0  0  0  0  0  0  0
  -20.7233  -28.2459   21.9329 C   0  0  1  0  0  0  0  0  0  0  0  0
  -23.3485  -30.9100   22.5497 C   0  0  2  0  0  0  0  0  0  0  0  0
  -19.2638  -28.7790   21.9877 C   0  0  0  0  0  0  0  0  0  0  0  0
  -28.3249  -16.6149   20.7646 N   0  0  0  0  0  0  0  0  0  0  0  0
  -29.6625  -16.4929   20.7190 N   0  0  0  0  0  0  0  0  0  0  0  0
  -29.7681  -25.8378   17.1407 N   0  0  0  0  0  0  0  0  0  0  0  0
  -21.8722  -26.0676   22.1766 N   0  0  0  0  0  0  0  0  0  0  0  0
  -30.7083  -20.1623   20.5608 N   0  0  0  0  0  0  0  0  0  0  0  0
  -31.4065  -14.9177   20.4232 N   0  0  0  0  0  0  0  0  0  0  0  0
  -27.6670  -12.4092   20.0770 N   0  0  0  0  0  0  0  0  0  0  0  0
  -30.8469  -20.6447   18.2564 N   0  0  0  0  0  0  0  0  0  0  0  0
  -21.0754  -22.5094   22.1836 N   0  0  0  0  0  0  0  0  0  0  0  0
  -21.7133  -29.1550   22.5002 N   0  0  0  0  0  0  0  0  0  0  0  0
  -24.5420  -31.2713   21.7335 N   0  3  0  0  0  0  0  0  0  0  0  0
  -30.7763  -25.5845   19.2154 O   0  0  0  0  0  0  0  0  0  0  0  0
  -29.9591  -12.3495   20.0404 O   0  0  0  0  0  0  0  0  0  0  0  0
  -20.6679  -24.3098   20.7641 O   0  0  0  0  0  0  0  0  0  0  0  0
  -20.1670  -26.6938   23.6382 O   0  0  0  0  0  0  0  0  0  0  0  0
  -22.2195  -30.2481   20.5188 O   0  0  0  0  0  0  0  0  0  0  0  0
  -31.9370  -21.9729   19.8150 O   0  0  0  0  0  0  0  0  0  0  0  0
  -22.4219  -14.2440   20.4806 O   0  0  0  0  0  0  0  0  0  0  0  0
  -26.7875  -25.3272   18.5236 O   0  0  0  0  0  0  0  0  0  1  0  0
  -20.8768   -8.9678   20.9038 F   0  0  0  0  0  0  0  0  0  0  0  0
  -20.8160  -13.3993   22.5664 F   0  0  0  0  0  0  0  0  0  0  0  0
  -30.0433  -19.3111   15.6352 Cl  0  0  0  0  0  0  0  0  0  0  0  0
  1  2  1  0  0  0  0
  1  5  2  0  0  0  0
  2  6  2  0  0  0  0
  3  9  2  0  0  0  0
  3 18  1  0  0  0  0
  4 10  1  0  0  0  0
  4 18  2  0  0  0  0
  5 20  1  0  0  0  0
  6 22  1  0  0  0  0
  7 11  2  0  0  0  0
  7 21  1  0  0  0  0
  8 14  2  0  0  0  0
  8 24  1  0  0  0  0
  9 26  1  0  0  0  0
 10 26  2  0  0  0  0
 11 27  1  0  0  0  0
 12 13  2  0  0  0  0
 12 28  1  0  0  0  0
 13 29  1  0  0  0  0
 14 31  1  0  0  0  0
 15 23  1  0  0  0  0
 15 27  2  0  0  0  0
 16 24  2  0  0  0  0
 16 25  1  0  0  0  0
 17 29  2  0  0  0  0
 17 30  1  0  0  0  0
 18 32  1  0  0  0  0
 19 32  1  0  0  0  0
 19 33  2  0  0  0  0
 19 35  1  0  0  0  0
 20 22  2  0  0  0  0
 20 40  1  0  0  0  0
 21 23  2  0  0  0  0
 21 41  1  0  0  0  0
 22 52  1  0  0  0  0
 23 42  1  0  0  0  0
 24 61  1  0  0  0  0
 25 31  2  0  0  0  0
 25 72  1  0  0  0  0
 26 82  1  0  0  0  0
 27 83  1  0  0  0  0
 28 30  2  0  0  0  0
 28 82  1  0  0  0  0
 29 84  1  0  0  0  0
 30 85  1  0  0  0  0
 31 86  1  0  0  0  0
 32 65  2  0  0  0  0
 33 66  1  0  0  0  0
 33 70  1  0  0  0  0
 34 43  1  0  0  0  0
 34 67  1  0  0  0  0
 34 76  2  0  0  0  0
 35 71  1  0  0  0  0
 35 77  2  0  0  0  0
 36 53  1  0  0  0  0
 36 73  1  0  0  0  0
 36 78  2  0  0  0  0
 37 62  1  0  0  0  0
 37 68  1  0  0  0  0
 37 79  2  0  0  0  0
 38 63  1  0  0  0  0
 38 74  1  0  0  0  0
 38 80  2  0  0  0  0
 39 69  1  0  0  0  0
 39 72  1  0  0  0  0
 39 81  2  0  0  0  0
 40 44  1  0  0  0  0
 41 53  1  0  0  0  0
 42 68  1  0  0  0  0
 43 55  1  0  0  0  0
 44 46  1  0  0  0  0
 45 47  1  0  0  0  0
 45 49  1  0  0  0  0
 46 52  1  0  0  0  0
 47 54  1  0  0  0  0
 48 50  1  0  0  0  0
 48 55  1  0  0  0  0
 49 69  1  0  0  0  0
 50 67  1  0  0  0  0
 51 54  1  0  0  0  0
 51 69  1  0  0  0  0
 52 73  1  0  0  0  0
 53 68  1  0  0  0  0
 54 66  1  0  0  0  0
 55 83  1  0  0  0  0
 56 63  1  0  0  0  0
 57 64  1  0  0  0  0
 58 64  1  0  0  0  0
 59 64  1  0  0  0  0
 60 75  1  0  0  0  0
 61 67  1  0  0  0  0
 62 64  1  0  0  0  0
 62 74  1  0  0  0  0
 63 75  1  0  0  0  0
 65 66  1  0  0  0  0
M  CHG  1  75   1
M  ISO  4  39 100  55 101  72 100  83 101
M  END
> <Batch ID>
0054

> <Smiles>
CNC(C)C(=O)NC(C(=O)N1Cc2cc([101O:1][101CH:1]3CCN(Cc4ccc(Cl)c([100NH:0][100C:0](=O)N5CCCC(n6nc(-c7ccc(Oc8ccc(F)cc8F)cc7)c(C(N)=O)c6N)C5)c4)C(=O)C3)ccc2CC1C(=O)NC1CCCc2ccccc21)C(C)(C)C

> <Shape>
0.240

> <Color>
0.064

> <Negative vol penalty>
0.000

$$$$

  -OEChem-04042322463D

 86 94  0     1  0  0  0  0  0999 V2000
  -22.4142  -11.4595   22.4533 C   0  0  0  0  0  0  0  0  0  0  0  0
  -22.5102  -12.7427   22.9823 C   0  0  0  0  0  0  0  0  0  0  0  0
  -30.8862  -24.6929   19.4476 C   0  0  0  0  0  0  0  0  0  0  0  0
  -31.2188  -25.8078   21.5650 C   0  0  0  0  0  0  0  0  0  0  0  0
  -23.3533  -11.0187   21.5219 C   0  0  0  0  0  0  0  0  0  0  0  0
  -23.5462  -13.5853   22.5809 C   0  0  0  0  0  0  0  0  0  0  0  0
  -21.9512  -18.2879   21.5878 C   0  0  0  0  0  0  0  0  0  0  0  0
  -18.8298  -26.6643   21.9733 C   0  0  0  0  0  0  0  0  0  0  0  0
  -19.8566  -26.0594   22.6982 C   0  0  0  0  0  0  0  0  0  0  0  0
  -32.2667  -24.5562   19.3027 C   0  0  0  0  0  0  0  0  0  0  0  0
  -32.5994  -25.6711   21.4201 C   0  0  0  0  0  0  0  0  0  0  0  0
  -21.7061  -19.1208   22.6786 C   0  0  0  0  0  0  0  0  0  0  0  0
  -35.6893  -23.5923   18.5465 C   0  0  0  0  0  0  0  0  0  0  0  0
  -36.1777  -22.3564   18.1230 C   0  0  0  0  0  0  0  0  0  0  0  0
  -23.8505  -20.1750   22.3479 C   0  0  0  0  0  0  0  0  0  0  0  0
  -19.9134  -28.8086   22.2277 C   0  0  0  0  0  0  0  0  0  0  0  0
  -35.1981  -21.3039   20.0646 C   0  0  0  0  0  0  0  0  0  0  0  0
  -30.3622  -25.3187   20.5788 C   0  0  0  0  0  0  0  0  0  0  0  0
  -28.0519  -24.5551   21.3449 C   0  0  0  0  0  0  0  0  0  0  0  0
  -24.3957  -11.8597   21.1016 C   0  0  0  0  0  0  0  0  0  0  0  0
  -23.1545  -18.3851   20.8743 C   0  0  0  0  0  0  0  0  0  0  0  0
  -24.5009  -13.1548   21.6439 C   0  0  0  0  0  0  0  0  0  0  0  0
  -24.1073  -19.3440   21.2468 C   0  0  0  0  0  0  0  0  0  0  0  0
  -18.8583  -28.0389   21.7380 C   0  0  0  0  0  0  0  0  0  0  0  0
  -20.9118  -26.8291   23.1879 C   0  0  0  0  0  0  0  0  0  0  0  0
  -20.9402  -28.2037   22.9526 C   0  0  0  0  0  0  0  0  0  0  0  0
  -33.1233  -25.0453   20.2889 C   0  0  0  0  0  0  0  0  0  0  0  0
  -22.6570  -20.0626   23.0606 C   0  0  0  0  0  0  0  0  0  0  0  0
  -34.9554  -23.6842   19.7291 C   0  0  0  0  0  0  0  0  0  0  0  0
  -35.9321  -21.2122   18.8820 C   0  0  0  0  0  0  0  0  0  0  0  0
  -34.7097  -22.5400   20.4881 C   0  0  0  0  0  0  0  0  0  0  0  0
  -28.9362  -25.4608   20.7288 C   0  0  0  0  0  0  0  0  0  0  0  0
  -26.8180  -25.1469   21.2281 C   0  0  0  0  0  0  0  0  0  0  0  0
  -28.3218  -23.2919   21.9672 C   0  0  0  0  0  0  0  0  0  0  0  0
  -25.5869  -16.4210   20.3004 C   0  0  0  0  0  0  0  0  0  0  0  0
  -26.5695  -18.8318   18.3651 C   0  0  0  0  0  0  0  0  0  0  0  0
  -21.5437  -23.6992   24.1595 C   0  0  0  0  0  0  0  0  0  0  0  0
  -26.4835  -22.1587   17.6096 C   0  0  0  0  0  0  0  0  0  0  0  0
  -23.5252  -29.6410   21.5544 C   0  0  0  0  0  0  0  0  0  0  0  0
  -25.4144  -11.3222   20.1280 C   0  0  0  0  0  0  0  0  0  0  0  0
  -23.3923  -17.4975   19.6835 C   0  0  0  0  0  0  0  0  0  0  0  0
  -25.4065  -19.5022   20.5013 C   0  0  0  0  0  0  0  0  0  0  0  0
  -26.2646  -12.4086   19.4743 C   0  0  0  0  0  0  0  0  0  0  0  0
  -25.3317  -29.1556   18.5249 C   0  0  0  0  0  0  0  0  0  0  0  0
  -26.7656  -13.3972   20.5223 C   0  0  0  0  0  0  0  0  0  0  0  0
  -26.3610  -28.0814   18.8808 C   0  0  0  0  0  0  0  0  0  0  0  0
  -25.0875  -30.1116   19.6904 C   0  0  0  0  0  0  0  0  0  0  0  0
  -25.7524  -28.3840   21.3174 C   0  0  0  0  0  0  0  0  0  0  0  0
  -25.5960  -14.1071   21.2148 C   0  0  1  0  0  0  0  0  0  0  0  0
  -24.8710  -17.3342   19.3458 C   0  0  1  0  0  0  0  0  0  0  0  0
  -25.9906  -27.3626   20.1921 C   0  0  2  0  0  0  0  0  0  0  0  0
  -17.7601  -28.6854   20.9634 C   0  0  0  0  0  0  0  0  0  0  0  0
  -27.4185  -23.8369   15.9951 C   0  0  0  0  0  0  0  0  0  0  0  0
  -29.2388  -18.7614   19.8417 C   0  0  0  0  0  0  0  0  0  0  0  0
  -29.7549  -21.0113   18.8724 C   0  0  0  0  0  0  0  0  0  0  0  0
  -29.4241  -19.0518   17.3646 C   0  0  0  0  0  0  0  0  0  0  0  0
  -20.9977  -25.2689   26.0326 C   0  0  0  0  0  0  0  0  0  0  0  0
  -23.7906  -22.8676   16.6072 C   0  0  0  0  0  0  0  0  0  0  0  0
  -22.0049  -26.1559   23.9663 C   0  0  0  0  0  0  0  0  0  0  0  0
  -22.0595  -29.0481   23.4673 C   0  0  0  0  0  0  0  0  0  0  0  0
  -20.9981  -22.5875   25.0498 C   0  0  0  0  0  0  0  0  0  0  0  0
  -21.0605  -21.2125   24.3966 C   0  0  0  0  0  0  0  0  0  1  0  0
  -27.4270  -20.0618   18.5407 C   0  0  1  0  0  0  0  0  0  0  0  0
  -26.2688  -22.8880   16.2956 C   0  0  2  0  0  0  0  0  0  0  0  0
  -28.9377  -19.7175   18.6703 C   0  0  0  0  0  0  0  0  0  0  0  0
  -28.3167  -26.5453   20.2556 N   0  0  0  0  0  0  0  0  0  0  0  0
  -27.0299  -26.3249   20.5744 N   0  0  0  0  0  0  0  0  0  0  0  0
  -25.5952  -18.6069   19.3479 N   0  0  0  0  0  0  0  0  0  0  0  0
  -24.7390  -29.3668   20.9028 N   0  0  0  0  0  0  0  0  0  0  0  0
  -25.5831  -24.7692   21.6219 N   0  0  0  0  0  0  0  0  0  0  0  0
  -29.6455  -22.8326   22.0002 N   0  0  0  0  0  0  0  0  0  0  0  0
  -25.0588  -15.1456   20.3621 N   0  0  0  0  0  0  0  0  0  0  0  0
  -27.1089  -20.9441   17.4232 N   0  0  0  0  0  0  0  0  0  0  0  0
  -23.2694  -28.8857   22.6923 N   0  0  0  0  0  0  0  0  0  0  0  0
  -21.5162  -24.9900   24.6990 N   0  0  0  0  0  0  0  0  0  0  0  0
  -25.0066  -23.6790   16.3425 N   0  3  0  0  0  0  0  0  0  0  0  0
  -27.4136  -22.5836   22.4642 O   0  0  0  0  0  0  0  0  0  0  0  0
  -26.5483  -16.8420   20.9330 O   0  0  0  0  0  0  0  0  0  0  0  0
  -26.7526  -18.1014   17.3880 O   0  0  0  0  0  0  0  0  0  0  0  0
  -21.9786  -23.4443   23.0334 O   0  0  0  0  0  0  0  0  0  0  0  0
  -26.1349  -22.6220   18.6933 O   0  0  0  0  0  0  0  0  0  0  0  0
  -22.7261  -30.4918   21.1489 O   0  0  0  0  0  0  0  0  0  0  0  0
  -34.4705  -24.9119   20.1479 O   0  0  0  0  0  0  0  0  0  0  0  0
  -22.4206  -20.8764   24.1254 O   0  0  0  0  0  0  0  0  0  1  0  0
  -36.3998  -20.0251   18.4743 F   0  0  0  0  0  0  0  0  0  0  0  0
  -34.0043  -22.6218   21.6246 F   0  0  0  0  0  0  0  0  0  0  0  0
  1  2  1  0  0  0  0
  1  5  2  0  0  0  0
  2  6  2  0  0  0  0
  3 10  2  0  0  0  0
  3 18  1  0  0  0  0
  4 11  1  0  0  0  0
  4 18  2  0  0  0  0
  5 20  1  0  0  0  0
  6 22  1  0  0  0  0
  7 12  2  0  0  0  0
  7 21  1  0  0  0  0
  8  9  2  0  0  0  0
  8 24  1  0  0  0  0
  9 25  1  0  0  0  0
 10 27  1  0  0  0  0
 11 27  2  0  0  0  0
 12 28  1  0  0  0  0
 13 14  2  0  0  0  0
 13 29  1  0  0  0  0
 14 30  1  0  0  0  0
 15 23  1  0  0  0  0
 15 28  2  0  0  0  0
 16 24  2  0  0  0  0
 16 26  1  0  0  0  0
 17 30  2  0  0  0  0
 17 31  1  0  0  0  0
 18 32  1  0  0  0  0
 19 32  1  0  0  0  0
 19 33  2  0  0  0  0
 19 34  1  0  0  0  0
 20 22  2  0  0  0  0
 20 40  1  0  0  0  0
 21 23  2  0  0  0  0
 21 41  1  0  0  0  0
 22 49  1  0  0  0  0
 23 42  1  0  0  0  0
 24 52  1  0  0  0  0
 25 26  2  0  0  0  0
 25 59  1  0  0  0  0
 26 60  1  0  0  0  0
 27 83  1  0  0  0  0
 28 84  1  0  0  0  0
 29 31  2  0  0  0  0
 29 83  1  0  0  0  0
 30 85  1  0  0  0  0
 31 86  1  0  0  0  0
 32 66  2  0  0  0  0
 33 67  1  0  0  0  0
 33 70  1  0  0  0  0
 34 71  1  0  0  0  0
 34 77  2  0  0  0  0
 35 50  1  0  0  0  0
 35 72  1  0  0  0  0
 35 78  2  0  0  0  0
 36 63  1  0  0  0  0
 36 68  1  0  0  0  0
 36 79  2  0  0  0  0
 37 61  1  0  0  0  0
 37 75  1  0  0  0  0
 37 80  2  0  0  0  0
 38 64  1  0  0  0  0
 38 73  1  0  0  0  0
 38 81  2  0  0  0  0
 39 69  1  0  0  0  0
 39 74  1  0  0  0  0
 39 82  2  0  0  0  0
 40 43  1  0  0  0  0
 41 50  1  0  0  0  0
 42 68  1  0  0  0  0
 43 45  1  0  0  0  0
 44 46  1  0  0  0  0
 44 47  1  0  0  0  0
 45 49  1  0  0  0  0
 46 51  1  0  0  0  0
 47 69  1  0  0  0  0
 48 51  1  0  0  0  0
 48 69  1  0  0  0  0
 49 72  1  0  0  0  0
 50 68  1  0  0  0  0
 51 67  1  0  0  0  0
 53 64  1  0  0  0  0
 54 65  1  0  0  0  0
 55 65  1  0  0  0  0
 56 65  1  0  0  0  0
 57 75  1  0  0  0  0
 58 76  1  0  0  0  0
 59 75  1  0  0  0  0
 60 74  1  0  0  0  0
 61 62  1  0  0  0  0
 62 84  1  0  0  0  0
 63 65  1  0  0  0  0
 63 73  1  0  0  0  0
 64 76  1  0  0  0  0
 66 67  1  0  0  0  0
M  CHG  1  76   1
M  ISO  4  39 100  62 101  74 100  84 101
M  END
> <Batch ID>
0054

> <Smiles>
CNC(C)C(=O)NC(C(=O)N1Cc2cc([101O:1][101CH2:1]CC(=O)N(C)Cc3ccc(C)cc3C[100NH:0][100C:0](=O)N3CCCC(n4nc(-c5ccc(Oc6ccc(F)cc6F)cc5)c(C(N)=O)c4N)C3)ccc2CC1C(=O)NC1CCCc2ccccc21)C(C)(C)C

> <Shape>
0.194

> <Color>
0.080

> <Negative vol penalty>
0.000

$$$$

  -OEChem-04042322463D

 90 99  0     1  0  0  0  0  0999 V2000
  -30.4627  -25.0065   18.2862 C   0  0  0  0  0  0  0  0  0  0  0  0
  -29.0758  -25.1128   18.2594 C   0  0  0  0  0  0  0  0  0  0  0  0
  -28.8661  -16.9447   19.7055 C   0  0  0  0  0  0  0  0  0  0  0  0
  -29.8124  -17.1478   21.9192 C   0  0  0  0  0  0  0  0  0  0  0  0
  -31.1773  -25.4980   19.3778 C   0  0  0  0  0  0  0  0  0  0  0  0
  -28.4027  -25.7097   19.3247 C   0  0  0  0  0  0  0  0  0  0  0  0
  -23.3201  -29.1131   19.0252 C   0  0  0  0  0  0  0  0  0  0  0  0
  -29.8324  -15.9930   19.3798 C   0  0  0  0  0  0  0  0  0  0  0  0
  -30.7787  -16.1961   21.5935 C   0  0  0  0  0  0  0  0  0  0  0  0
  -21.9761  -28.8131   19.2433 C   0  0  0  0  0  0  0  0  0  0  0  0
  -31.8292  -13.2455   18.0839 C   0  0  0  0  0  0  0  0  0  0  0  0
  -31.4080  -12.0962   17.4152 C   0  0  0  0  0  0  0  0  0  0  0  0
  -22.1684  -29.6253   21.5066 C   0  0  0  0  0  0  0  0  0  0  0  0
  -19.9567  -23.5909   21.8646 C   0  0  0  0  0  0  0  0  0  0  0  0
  -18.7865  -21.0792   22.1883 C   0  0  0  0  0  0  0  0  0  0  0  0
  -29.9542  -11.5520   19.2665 C   0  0  0  0  0  0  0  0  0  0  0  0
  -28.8561  -17.5221   20.9753 C   0  0  0  0  0  0  0  0  0  0  0  0
  -27.6388  -19.7445   20.6807 C   0  0  0  0  0  0  0  0  0  0  0  0
  -30.5134  -26.1099   20.4527 C   0  0  0  0  0  0  0  0  0  0  0  0
  -24.1024  -29.6623   20.0513 C   0  0  0  0  0  0  0  0  0  0  0  0
  -29.1090  -26.2086   20.4324 C   0  0  0  0  0  0  0  0  0  0  0  0
  -23.5213  -29.9338   21.2982 C   0  0  0  0  0  0  0  0  0  0  0  0
  -18.5731  -23.4476   21.7613 C   0  0  0  0  0  0  0  0  0  0  0  0
  -20.7552  -22.4783   22.1298 C   0  0  0  0  0  0  0  0  0  0  0  0
  -17.9880  -22.1918   21.9231 C   0  0  0  0  0  0  0  0  0  0  0  0
  -20.1701  -21.2225   22.2916 C   0  0  0  0  0  0  0  0  0  0  0  0
  -30.7887  -15.6187   20.3237 C   0  0  0  0  0  0  0  0  0  0  0  0
  -21.4008  -29.0665   20.4850 C   0  0  0  0  0  0  0  0  0  0  0  0
  -31.3130  -13.5481   19.3440 C   0  0  0  0  0  0  0  0  0  0  0  0
  -30.4705  -11.2494   18.0065 C   0  0  0  0  0  0  0  0  0  0  0  0
  -30.3755  -12.7013   19.9352 C   0  0  0  0  0  0  0  0  0  0  0  0
  -27.8585  -18.5057   21.3122 C   0  0  0  0  0  0  0  0  0  0  0  0
  -26.5872  -20.2989   21.3687 C   0  0  0  0  0  0  0  0  0  0  0  0
  -18.0093  -26.2221   23.3477 C   0  0  0  0  0  0  0  0  0  0  0  0
  -19.1321  -26.6206   21.1272 C   0  0  0  0  0  0  0  0  0  0  0  0
  -20.8055  -19.0524   20.4049 C   0  0  0  0  0  0  0  0  0  0  0  0
  -21.0024  -18.9581   21.7218 C   0  0  0  0  0  0  0  0  0  0  0  0
  -28.3240  -20.3409   19.5714 C   0  0  0  0  0  0  0  0  0  0  0  0
  -26.6943  -28.7318   21.6387 C   0  0  0  0  0  0  0  0  0  0  0  0
  -26.4961  -31.7026   22.9261 C   0  0  0  0  0  0  0  0  0  0  0  0
  -24.5554  -34.4007   23.7012 C   0  0  0  0  0  0  0  0  0  0  0  0
  -21.6519  -19.9678   23.8156 C   0  0  0  0  0  0  0  0  0  0  0  0
  -31.3249  -26.5836   21.6323 C   0  0  0  0  0  0  0  0  0  0  0  0
  -25.5438  -30.0050   19.7917 C   0  0  0  0  0  0  0  0  0  0  0  0
  -24.3128  -30.5413   22.4264 C   0  0  0  0  0  0  0  0  0  0  0  0
  -18.6512  -27.4860   23.8739 C   0  0  0  0  0  0  0  0  0  0  0  0
  -30.5657  -27.5387   22.5498 C   0  0  0  0  0  0  0  0  0  0  0  0
  -18.9106  -28.4891   22.7732 C   0  0  0  0  0  0  0  0  0  0  0  0
  -24.3972  -18.9375   25.7105 C   0  0  0  0  0  0  0  0  0  0  0  0
  -29.1696  -26.9993   22.8442 C   0  0  0  0  0  0  0  0  0  0  0  0
  -25.5292  -18.8261   24.6897 C   0  0  0  0  0  0  0  0  0  0  0  0
  -23.0844  -18.4249   25.1296 C   0  0  0  0  0  0  0  0  0  0  0  0
  -23.8004  -19.0055   22.8331 C   0  0  0  0  0  0  0  0  0  0  0  0
  -28.3448  -26.8717   21.5577 C   0  0  1  0  0  0  0  0  0  0  0  0
  -19.7967  -27.8441   21.7289 C   0  0  2  0  0  0  0  0  0  1  0  0
  -26.3779  -30.0847   21.0666 C   0  0  1  0  0  0  0  0  0  0  0  0
  -25.1520  -19.5194   23.3687 C   0  0  2  0  0  0  0  0  0  0  0  0
  -22.2345  -22.6611   22.2353 C   0  0  0  0  0  0  0  0  0  0  0  0
  -16.5089  -22.0141   21.8166 C   0  0  0  0  0  0  0  0  0  0  0  0
  -24.6674  -36.6619   24.7839 C   0  0  0  0  0  0  0  0  0  0  0  0
  -26.5693  -30.3802   25.6749 C   0  0  0  0  0  0  0  0  0  0  0  0
  -25.7352  -32.5284   26.6536 C   0  0  0  0  0  0  0  0  0  0  0  0
  -27.9373  -32.4650   25.4835 C   0  0  0  0  0  0  0  0  0  0  0  0
  -23.7296  -35.7639   21.2075 C   0  0  0  0  0  0  0  0  0  0  0  0
  -17.7341  -24.6593   21.4749 C   0  0  0  0  0  0  0  0  0  0  0  0
  -25.8088  -32.3030   24.1287 C   0  0  1  0  0  0  0  0  0  0  0  0
  -24.7627  -35.8879   23.4782 C   0  0  2  0  0  0  0  0  0  0  0  0
  -26.4980  -31.9059   25.4647 C   0  0  0  0  0  0  0  0  0  0  0  0
  -27.0144  -18.2856   22.3237 N   0  0  0  0  0  0  0  0  0  0  0  0
  -26.2541  -19.3938   22.3331 N   0  0  0  0  0  0  0  0  0  0  0  0
  -18.3282  -25.8759   22.0191 N   0  0  0  0  0  0  0  0  0  0  0  0
  -25.7198  -30.8528   22.1255 N   0  0  0  0  0  0  0  0  0  0  0  0
  -22.7638  -19.1041   23.8737 N   0  0  0  0  0  0  0  0  0  0  0  0
  -25.9242  -21.4674   21.2368 N   0  0  0  0  0  0  0  0  0  0  0  0
  -29.4346  -21.1552   19.8316 N   0  0  0  0  0  0  0  0  0  0  0  0
  -27.8538  -28.1679   21.1416 N   0  0  0  0  0  0  0  0  0  0  0  0
  -25.7514  -33.7411   23.8904 N   0  0  0  0  0  0  0  0  0  0  0  0
  -20.9819  -20.0551   22.5676 N   0  0  0  0  0  0  0  0  0  0  0  0
  -23.7334  -36.4195   22.5406 N   0  3  0  0  0  0  0  0  0  0  0  0
  -17.2928  -25.5509   24.0941 O   0  0  0  0  0  0  0  0  0  0  0  0
  -19.3189  -26.3168   19.9472 O   0  0  0  0  0  0  0  0  0  0  0  0
  -27.9522  -20.1703   18.3856 O   0  0  0  0  0  0  0  0  0  0  0  0
  -25.9429  -28.2369   22.4707 O   0  0  0  0  0  0  0  0  0  0  0  0
  -27.6761  -31.9832   22.7013 O   0  0  0  0  0  0  0  0  0  0  0  0
  -23.4435  -33.8772   23.7107 O   0  0  0  0  0  0  0  0  0  0  0  0
  -21.2669  -20.6012   24.8070 O   0  0  0  0  0  0  0  0  0  0  0  0
  -31.7317  -14.6899   20.0063 O   0  0  0  0  0  0  0  0  0  0  0  0
  -20.0894  -28.7741   20.7007 O   0  0  0  0  0  0  0  0  0  1  0  0
  -30.0649  -10.1466   17.3635 F   0  0  0  0  0  0  0  0  0  0  0  0
  -29.8751  -12.9873   21.1450 F   0  0  0  0  0  0  0  0  0  0  0  0
  1  2  1  0  0  0  0
  1  5  2  0  0  0  0
  2  6  2  0  0  0  0
  3  8  2  0  0  0  0
  3 17  1  0  0  0  0
  4  9  1  0  0  0  0
  4 17  2  0  0  0  0
  5 19  1  0  0  0  0
  6 21  1  0  0  0  0
  7 10  2  0  0  0  0
  7 20  1  0  0  0  0
  8 27  1  0  0  0  0
  9 27  2  0  0  0  0
 10 28  1  0  0  0  0
 11 12  2  0  0  0  0
 11 29  1  0  0  0  0
 12 30  1  0  0  0  0
 13 22  1  0  0  0  0
 13 28  2  0  0  0  0
 14 23  2  0  0  0  0
 14 24  1  0  0  0  0
 15 25  2  0  0  0  0
 15 26  1  0  0  0  0
 16 30  2  0  0  0  0
 16 31  1  0  0  0  0
 17 32  1  0  0  0  0
 18 32  1  0  0  0  0
 18 33  2  0  0  0  0
 18 38  1  0  0  0  0
 19 21  2  0  0  0  0
 19 43  1  0  0  0  0
 20 22  2  0  0  0  0
 20 44  1  0  0  0  0
 21 54  1  0  0  0  0
 22 45  1  0  0  0  0
 23 25  1  0  0  0  0
 23 65  1  0  0  0  0
 24 26  2  0  0  0  0
 24 58  1  0  0  0  0
 25 59  1  0  0  0  0
 26 78  1  0  0  0  0
 27 87  1  0  0  0  0
 28 88  1  0  0  0  0
 29 31  2  0  0  0  0
 29 87  1  0  0  0  0
 30 89  1  0  0  0  0
 31 90  1  0  0  0  0
 32 69  2  0  0  0  0
 33 70  1  0  0  0  0
 33 74  1  0  0  0  0
 34 46  1  0  0  0  0
 34 71  1  0  0  0  0
 34 80  2  0  0  0  0
 35 55  1  0  0  0  0
 35 71  1  0  0  0  0
 35 81  2  0  0  0  0
 36 37  2  0  0  0  0
 37 78  1  0  0  0  0
 38 75  1  0  0  0  0
 38 82  2  0  0  0  0
 39 56  1  0  0  0  0
 39 76  1  0  0  0  0
 39 83  2  0  0  0  0
 40 66  1  0  0  0  0
 40 72  1  0  0  0  0
 40 84  2  0  0  0  0
 41 67  1  0  0  0  0
 41 77  1  0  0  0  0
 41 85  2  0  0  0  0
 42 73  1  0  0  0  0
 42 78  1  0  0  0  0
 42 86  2  0  0  0  0
 43 47  1  0  0  0  0
 44 56  1  0  0  0  0
 45 72  1  0  0  0  0
 46 48  1  0  0  0  0
 47 50  1  0  0  0  0
 48 55  1  0  0  0  0
 49 51  1  0  0  0  0
 49 52  1  0  0  0  0
 50 54  1  0  0  0  0
 51 57  1  0  0  0  0
 52 73  1  0  0  0  0
 53 57  1  0  0  0  0
 53 73  1  0  0  0  0
 54 76  1  0  0  0  0
 55 88  1  0  0  0  0
 56 72  1  0  0  0  0
 57 70  1  0  0  0  0
 60 67  1  0  0  0  0
 61 68  1  0  0  0  0
 62 68  1  0  0  0  0
 63 68  1  0  0  0  0
 64 79  1  0  0  0  0
 65 71  1  0  0  0  0
 66 68  1  0  0  0  0
 66 77  1  0  0  0  0
 67 79  1  0  0  0  0
 69 70  1  0  0  0  0
M  CHG  1  79   1
M  ISO  4  42 100  55 101  78 100  88 101
M  END
> <Batch ID>
0054

> <Smiles>
C=C[100N:0](c1cc(C)c(CN2C(=O)CC[101CH:1]([101O:1]c3ccc4c(c3)CN(C(=O)C(NC(=O)C(C)NC)C(C)(C)C)C(C(=O)NC3CCCc5ccccc53)C4)C2=O)cc1C)[100C:0](=O)N1CCCC(n2nc(-c3ccc(Oc4ccc(F)cc4F)cc3)c(C(N)=O)c2N)C1

> <Shape>
0.316

> <Color>
0.079

> <Negative vol penalty>
0.000

$$$$

  -OEChem-04042322463D

 85 93  0     1  0  0  0  0  0999 V2000
  -18.0980  -26.9944   23.1862 C   0  0  0  0  0  0  0  0  0  0  0  0
  -18.9865  -26.0638   22.6570 C   0  0  0  0  0  0  0  0  0  0  0  0
  -22.3733  -10.3152   20.1636 C   0  0  0  0  0  0  0  0  0  0  0  0
  -24.3063   -9.4813   21.3490 C   0  0  0  0  0  0  0  0  0  0  0  0
  -18.3604  -28.3578   23.0591 C   0  0  0  0  0  0  0  0  0  0  0  0
  -20.1376  -26.4963   21.9994 C   0  0  0  0  0  0  0  0  0  0  0  0
  -24.2561  -23.8908   23.3759 C   0  0  0  0  0  0  0  0  0  0  0  0
  -32.1744  -16.6659   21.3067 C   0  0  0  0  0  0  0  0  0  0  0  0
  -21.6984   -9.1229   20.4253 C   0  0  0  0  0  0  0  0  0  0  0  0
  -23.6314   -8.2889   21.6107 C   0  0  0  0  0  0  0  0  0  0  0  0
  -24.4231  -22.6234   22.8196 C   0  0  0  0  0  0  0  0  0  0  0  0
  -22.2886   -5.1664   22.9011 C   0  0  0  0  0  0  0  0  0  0  0  0
  -32.1846  -17.0700   22.6416 C   0  0  0  0  0  0  0  0  0  0  0  0
  -22.3643   -4.6477   24.1936 C   0  0  0  0  0  0  0  0  0  0  0  0
  -25.9864  -23.5359   21.2250 C   0  0  0  0  0  0  0  0  0  0  0  0
  -29.8902  -17.7990   22.4385 C   0  0  0  0  0  0  0  0  0  0  0  0
  -21.3510   -6.6621   25.0613 C   0  0  0  0  0  0  0  0  0  0  0  0
  -23.6772  -10.4944   20.6255 C   0  0  0  0  0  0  0  0  0  0  0  0
  -24.3889  -12.8873   21.1501 C   0  0  0  0  0  0  0  0  0  0  0  0
  -19.5202  -28.8070   22.4081 C   0  0  0  0  0  0  0  0  0  0  0  0
  -24.9458  -24.9941   22.8531 C   0  0  0  0  0  0  0  0  0  0  0  0
  -20.4152  -27.8670   21.8623 C   0  0  0  0  0  0  0  0  0  0  0  0
  -25.8283  -24.8158   21.7781 C   0  0  0  0  0  0  0  0  0  0  0  0
  -31.0220  -16.8283   20.5376 C   0  0  0  0  0  0  0  0  0  0  0  0
  -29.8799  -17.3948   21.1035 C   0  0  0  0  0  0  0  0  0  0  0  0
  -22.3274   -8.1097   21.1488 C   0  0  0  0  0  0  0  0  0  0  0  0
  -25.2862  -22.4463   21.7421 C   0  0  0  0  0  0  0  0  0  0  0  0
  -21.7442   -6.4330   22.6885 C   0  0  0  0  0  0  0  0  0  0  0  0
  -31.0425  -17.6365   23.2076 C   0  0  0  0  0  0  0  0  0  0  0  0
  -21.8955   -5.3956   25.2738 C   0  0  0  0  0  0  0  0  0  0  0  0
  -21.2754   -7.1808   23.7686 C   0  0  0  0  0  0  0  0  0  0  0  0
  -24.3751  -11.7256   20.3550 C   0  0  0  0  0  0  0  0  0  0  0  0
  -25.1906  -13.7649   20.4619 C   0  0  0  0  0  0  0  0  0  0  0  0
  -23.7356  -13.1496   22.3991 C   0  0  0  0  0  0  0  0  0  0  0  0
  -24.0890  -27.7347   21.4897 C   0  0  0  0  0  0  0  0  0  0  0  0
  -27.2688  -28.3565   21.6463 C   0  0  0  0  0  0  0  0  0  0  0  0
  -27.0148  -19.4435   20.7365 C   0  0  0  0  0  0  0  0  0  0  0  0
  -30.4526  -27.1419   21.8320 C   0  0  0  0  0  0  0  0  0  0  0  0
  -29.8288  -14.8705   17.5619 C   0  0  0  0  0  0  0  0  0  0  0  0
  -19.7374  -30.2915   22.2539 C   0  0  0  0  0  0  0  0  0  0  0  0
  -24.7750  -26.3499   23.4816 C   0  0  0  0  0  0  0  0  0  0  0  0
  -26.6077  -25.9642   21.1930 C   0  0  0  0  0  0  0  0  0  0  0  0
  -21.1681  -30.6612   21.8710 C   0  0  0  0  0  0  0  0  0  0  0  0
  -27.0618  -13.5276   15.7684 C   0  0  0  0  0  0  0  0  0  0  0  0
  -21.6648  -29.7694   20.7376 C   0  0  0  0  0  0  0  0  0  0  0  0
  -26.1208  -13.0296   16.8668 C   0  0  0  0  0  0  0  0  0  0  0  0
  -28.5272  -13.3139   16.1409 C   0  0  0  0  0  0  0  0  0  0  0  0
  -27.9823  -13.3795   18.5435 C   0  0  0  0  0  0  0  0  0  0  0  0
  -21.6871  -28.2965   21.1638 C   0  0  1  0  0  0  0  0  0  0  0  0
  -25.1362  -27.4947   22.5401 C   0  0  1  0  0  0  0  0  0  0  0  0
  -26.4948  -13.6246   18.2378 C   0  0  2  0  0  0  0  0  0  0  0  0
  -32.8461  -27.8924   21.9061 C   0  0  0  0  0  0  0  0  0  0  0  0
  -27.1731  -28.9487   18.6546 C   0  0  0  0  0  0  0  0  0  0  0  0
  -29.6687  -28.7540   18.6071 C   0  0  0  0  0  0  0  0  0  0  0  0
  -28.5839  -30.5272   19.9860 C   0  0  0  0  0  0  0  0  0  0  0  0
  -29.1888  -19.8705   19.5774 C   0  0  0  0  0  0  0  0  0  0  0  0
  -30.8785  -25.9082   24.4883 C   0  0  0  0  0  0  0  0  0  0  0  0
  -31.0355  -16.3889   19.1103 C   0  0  0  0  0  0  0  0  0  0  0  0
  -28.6285  -17.5816   20.2953 C   0  0  0  0  0  0  0  0  0  0  0  0
  -26.7190  -20.9230   20.6095 C   0  0  0  0  0  0  0  0  0  1  0  0
  -28.4509  -28.1172   20.7383 C   0  0  1  0  0  0  0  0  0  0  0  0
  -31.6221  -27.5139   22.7255 C   0  0  2  0  0  0  0  0  0  0  0  0
  -28.4531  -29.0653   19.5060 C   0  0  0  0  0  0  0  0  0  0  0  0
  -25.1095  -11.8508   19.2464 N   0  0  0  0  0  0  0  0  0  0  0  0
  -25.5923  -13.1015   19.3399 N   0  0  0  0  0  0  0  0  0  0  0  0
  -26.4017  -27.2714   21.8382 N   0  0  0  0  0  0  0  0  0  0  0  0
  -28.8167  -13.9029   17.4506 N   0  0  0  0  0  0  0  0  0  0  0  0
  -25.5840  -15.0316   20.7130 N   0  0  0  0  0  0  0  0  0  0  0  0
  -22.9496  -12.1378   22.9674 N   0  0  0  0  0  0  0  0  0  0  0  0
  -22.8386  -28.0293   21.9988 N   0  0  0  0  0  0  0  0  0  0  0  0
  -29.6390  -28.2257   21.5780 N   0  0  0  0  0  0  0  0  0  0  0  0
  -30.0342  -15.3821   18.8374 N   0  0  0  0  0  0  0  0  0  0  0  0
  -28.2285  -18.9846   20.2236 N   0  0  0  0  0  0  0  0  0  0  0  0
  -31.9835  -26.3695   23.6091 N   0  3  0  0  0  0  0  0  0  0  0  0
  -23.8322  -14.2543   22.9854 O   0  0  0  0  0  0  0  0  0  0  0  0
  -24.3932  -27.6595   20.3050 O   0  0  0  0  0  0  0  0  0  0  0  0
  -27.1240  -29.4631   22.1717 O   0  0  0  0  0  0  0  0  0  0  0  0
  -26.1824  -18.7174   21.2886 O   0  0  0  0  0  0  0  0  0  0  0  0
  -30.2803  -26.0045   21.3995 O   0  0  0  0  0  0  0  0  0  0  0  0
  -30.4961  -15.2542   16.5952 O   0  0  0  0  0  0  0  0  0  0  0  0
  -21.6691   -6.9462   21.4045 O   0  0  0  0  0  0  0  0  0  0  0  0
  -25.4505  -21.2104   21.1968 O   0  0  0  0  0  0  0  0  0  1  0  0
  -31.0519  -18.0241   24.4897 F   0  0  0  0  0  0  0  0  0  0  0  0
  -21.9668   -4.8967   26.5148 F   0  0  0  0  0  0  0  0  0  0  0  0
  -20.7503   -8.3977   23.5706 F   0  0  0  0  0  0  0  0  0  0  0  0
  1  2  1  0  0  0  0
  1  5  2  0  0  0  0
  2  6  2  0  0  0  0
  3  9  2  0  0  0  0
  3 18  1  0  0  0  0
  4 10  1  0  0  0  0
  4 18  2  0  0  0  0
  5 20  1  0  0  0  0
  6 22  1  0  0  0  0
  7 11  2  0  0  0  0
  7 21  1  0  0  0  0
  8 13  2  0  0  0  0
  8 24  1  0  0  0  0
  9 26  1  0  0  0  0
 10 26  2  0  0  0  0
 11 27  1  0  0  0  0
 12 14  2  0  0  0  0
 12 28  1  0  0  0  0
 13 29  1  0  0  0  0
 14 30  1  0  0  0  0
 15 23  1  0  0  0  0
 15 27  2  0  0  0  0
 16 25  1  0  0  0  0
 16 29  2  0  0  0  0
 17 30  2  0  0  0  0
 17 31  1  0  0  0  0
 18 32  1  0  0  0  0
 19 32  1  0  0  0  0
 19 33  2  0  0  0  0
 19 34  1  0  0  0  0
 20 22  2  0  0  0  0
 20 40  1  0  0  0  0
 21 23  2  0  0  0  0
 21 41  1  0  0  0  0
 22 49  1  0  0  0  0
 23 42  1  0  0  0  0
 24 25  2  0  0  0  0
 24 58  1  0  0  0  0
 25 59  1  0  0  0  0
 26 81  1  0  0  0  0
 27 82  1  0  0  0  0
 28 31  2  0  0  0  0
 28 81  1  0  0  0  0
 29 83  1  0  0  0  0
 30 84  1  0  0  0  0
 31 85  1  0  0  0  0
 32 64  2  0  0  0  0
 33 65  1  0  0  0  0
 33 68  1  0  0  0  0
 34 69  1  0  0  0  0
 34 75  2  0  0  0  0
 35 50  1  0  0  0  0
 35 70  1  0  0  0  0
 35 76  2  0  0  0  0
 36 61  1  0  0  0  0
 36 66  1  0  0  0  0
 36 77  2  0  0  0  0
 37 60  1  0  0  0  0
 37 73  1  0  0  0  0
 37 78  2  0  0  0  0
 38 62  1  0  0  0  0
 38 71  1  0  0  0  0
 38 79  2  0  0  0  0
 39 67  1  0  0  0  0
 39 72  1  0  0  0  0
 39 80  2  0  0  0  0
 40 43  1  0  0  0  0
 41 50  1  0  0  0  0
 42 66  1  0  0  0  0
 43 45  1  0  0  0  0
 44 46  1  0  0  0  0
 44 47  1  0  0  0  0
 45 49  1  0  0  0  0
 46 51  1  0  0  0  0
 47 67  1  0  0  0  0
 48 51  1  0  0  0  0
 48 67  1  0  0  0  0
 49 70  1  0  0  0  0
 50 66  1  0  0  0  0
 51 65  1  0  0  0  0
 52 62  1  0  0  0  0
 53 63  1  0  0  0  0
 54 63  1  0  0  0  0
 55 63  1  0  0  0  0
 56 73  1  0  0  0  0
 57 74  1  0  0  0  0
 58 72  1  0  0  0  0
 59 73  1  0  0  0  0
 60 82  1  0  0  0  0
 61 63  1  0  0  0  0
 61 71  1  0  0  0  0
 62 74  1  0  0  0  0
 64 65  1  0  0  0  0
M  CHG  1  74   1
M  ISO  4  39 100  60 101  72 100  82 101
M  END
> <Batch ID>
0054

> <Smiles>
CNC(C)C(=O)NC(C(=O)N1Cc2cc([101O:1][101CH2:1]C(=O)N(C)Cc3cc(F)ccc3C[100NH:0][100C:0](=O)N3CCCC(n4nc(-c5ccc(Oc6ccc(F)cc6F)cc5)c(C(N)=O)c4N)C3)ccc2CC1C(=O)NC1CCCc2ccccc21)C(C)(C)C

> <Shape>
0.279

> <Color>
0.122

> <Negative vol penalty>
0.000

$$$$

  -OEChem-04042322463D

 83 91  0     1  0  0  0  0  0999 V2000
  -32.2470  -25.9867   17.7482 C   0  0  0  0  0  0  0  0  0  0  0  0
  -31.0365  -25.7243   18.3816 C   0  0  0  0  0  0  0  0  0  0  0  0
  -24.8885   -8.7085   21.4056 C   0  0  0  0  0  0  0  0  0  0  0  0
  -23.4009   -9.7424   19.8071 C   0  0  0  0  0  0  0  0  0  0  0  0
  -33.0842  -26.9897   18.2351 C   0  0  0  0  0  0  0  0  0  0  0  0
  -30.6629  -26.4640   19.5031 C   0  0  0  0  0  0  0  0  0  0  0  0
  -25.8248  -27.9493   19.3273 C   0  0  0  0  0  0  0  0  0  0  0  0
  -22.0494  -18.7122   18.5760 C   0  0  0  0  0  0  0  0  0  0  0  0
  -23.0725  -17.8186   18.8928 C   0  0  0  0  0  0  0  0  0  0  0  0
  -23.9192   -7.7449   21.6843 C   0  0  0  0  0  0  0  0  0  0  0  0
  -22.4317   -8.7788   20.0857 C   0  0  0  0  0  0  0  0  0  0  0  0
  -24.8549  -26.9980   19.6407 C   0  0  0  0  0  0  0  0  0  0  0  0
  -21.0810   -7.5216   23.5061 C   0  0  0  0  0  0  0  0  0  0  0  0
  -20.8438   -7.2104   24.8449 C   0  0  0  0  0  0  0  0  0  0  0  0
  -24.6728  -27.9238   21.8608 C   0  0  0  0  0  0  0  0  0  0  0  0
  -23.6472  -19.1596   20.8186 C   0  0  0  0  0  0  0  0  0  0  0  0
  -21.4629   -4.9139   24.4207 C   0  0  0  0  0  0  0  0  0  0  0  0
  -24.6293   -9.7073   20.4670 C   0  0  0  0  0  0  0  0  0  0  0  0
  -26.6376  -10.6373   19.1984 C   0  0  0  0  0  0  0  0  0  0  0  0
  -32.7163  -27.7486   19.3573 C   0  0  0  0  0  0  0  0  0  0  0  0
  -26.2345  -28.8897   20.2834 C   0  0  0  0  0  0  0  0  0  0  0  0
  -31.4966  -27.4772   20.0063 C   0  0  0  0  0  0  0  0  0  0  0  0
  -25.6462  -28.8876   21.5562 C   0  0  0  0  0  0  0  0  0  0  0  0
  -21.8252  -19.8295   19.3804 C   0  0  0  0  0  0  0  0  0  0  0  0
  -22.6241  -20.0532   20.5017 C   0  0  0  0  0  0  0  0  0  0  0  0
  -23.8714  -18.0423   20.0141 C   0  0  0  0  0  0  0  0  0  0  0  0
  -22.6909   -7.7800   21.0243 C   0  0  0  0  0  0  0  0  0  0  0  0
  -24.2808  -26.9834   20.9085 C   0  0  0  0  0  0  0  0  0  0  0  0
  -21.5091   -6.5290   22.6245 C   0  0  0  0  0  0  0  0  0  0  0  0
  -21.0347   -5.9066   25.3022 C   0  0  0  0  0  0  0  0  0  0  0  0
  -21.7001   -5.2251   23.0819 C   0  0  0  0  0  0  0  0  0  0  0  0
  -25.6299  -10.7033   20.1792 C   0  0  0  0  0  0  0  0  0  0  0  0
  -27.3207  -11.8218   19.3276 C   0  0  0  0  0  0  0  0  0  0  0  0
  -26.9300   -9.5981   18.2548 C   0  0  0  0  0  0  0  0  0  0  0  0
  -28.9833  -29.5677   21.7285 C   0  0  0  0  0  0  0  0  0  0  0  0
  -27.2869  -32.0560   22.9339 C   0  0  0  0  0  0  0  0  0  0  0  0
  -22.8370  -23.6959   21.4141 C   0  0  0  0  0  0  0  0  0  0  0  0
  -24.2408  -33.3614   23.7489 C   0  0  0  0  0  0  0  0  0  0  0  0
  -25.7927  -17.2086   21.4140 C   0  0  0  0  0  0  0  0  0  0  0  0
  -33.6758  -28.7906   19.8753 C   0  0  0  0  0  0  0  0  0  0  0  0
  -27.2625  -29.9262   19.9211 C   0  0  0  0  0  0  0  0  0  0  0  0
  -26.0366  -29.8884   22.6119 C   0  0  0  0  0  0  0  0  0  0  0  0
  -33.0347  -29.7808   20.8443 C   0  0  0  0  0  0  0  0  0  0  0  0
  -28.4587  -15.1534   22.5742 C   0  0  0  0  0  0  0  0  0  0  0  0
  -32.1904  -29.0443   21.8794 C   0  0  0  0  0  0  0  0  0  0  0  0
  -28.1307  -13.7743   21.9973 C   0  0  0  0  0  0  0  0  0  0  0  0
  -27.1980  -15.9060   22.9962 C   0  0  0  0  0  0  0  0  0  0  0  0
  -25.8363  -14.6371   21.3823 C   0  0  0  0  0  0  0  0  0  0  0  0
  -31.0450  -28.2748   21.2105 C   0  0  1  0  0  0  0  0  0  0  0  0
  -27.9750  -30.5114   21.1366 C   0  0  1  0  0  0  0  0  0  0  0  0
  -27.0699  -13.8673   20.8831 C   0  0  2  0  0  0  0  0  0  0  0  0
  -20.7244  -20.7725   19.0206 C   0  0  0  0  0  0  0  0  0  0  0  0
  -23.1760  -35.4004   24.7519 C   0  0  0  0  0  0  0  0  0  0  0  0
  -28.1564  -31.1407   25.7117 C   0  0  0  0  0  0  0  0  0  0  0  0
  -26.3469  -32.5777   26.6754 C   0  0  0  0  0  0  0  0  0  0  0  0
  -28.1997  -33.6175   25.3683 C   0  0  0  0  0  0  0  0  0  0  0  0
  -22.7224  -33.9288   21.2728 C   0  0  0  0  0  0  0  0  0  0  0  0
  -22.4001  -21.2477   21.3833 C   0  0  0  0  0  0  0  0  0  0  0  0
  -23.4185  -24.7958   20.5519 C   0  0  0  0  0  0  0  0  0  1  0  0
  -26.4323  -32.2735   24.1592 C   0  0  1  0  0  0  0  0  0  0  0  0
  -23.6178  -34.7168   23.4673 C   0  0  2  0  0  0  0  0  0  0  0  0
  -27.2777  -32.3821   25.4596 C   0  0  0  0  0  0  0  0  0  0  0  0
  -25.6660  -11.8398   20.8799 N   0  0  0  0  0  0  0  0  0  0  0  0
  -26.7048  -12.4988   20.3388 N   0  0  0  0  0  0  0  0  0  0  0  0
  -27.0506  -30.8778   22.2115 N   0  0  0  0  0  0  0  0  0  0  0  0
  -26.2407  -15.9578   21.8891 N   0  0  0  0  0  0  0  0  0  0  0  0
  -28.3822  -12.3399   18.6739 N   0  0  0  0  0  0  0  0  0  0  0  0
  -26.1288   -8.4482   18.2577 N   0  0  0  0  0  0  0  0  0  0  0  0
  -24.9095  -17.1338   20.3375 N   0  0  0  0  0  0  0  0  0  0  0  0
  -29.9737  -29.1775   20.8475 N   0  0  0  0  0  0  0  0  0  0  0  0
  -22.8910  -22.4648   20.7795 N   0  0  0  0  0  0  0  0  0  0  0  0
  -25.6107  -33.4465   23.8809 N   0  0  0  0  0  0  0  0  0  0  0  0
  -22.4284  -34.5662   22.5820 N   0  3  0  0  0  0  0  0  0  0  0  0
  -27.8840   -9.6796   17.4444 O   0  0  0  0  0  0  0  0  0  0  0  0
  -28.8718  -29.2204   22.8984 O   0  0  0  0  0  0  0  0  0  0  0  0
  -28.1280  -32.9037   22.6250 O   0  0  0  0  0  0  0  0  0  0  0  0
  -22.3794  -23.9020   22.5349 O   0  0  0  0  0  0  0  0  0  0  0  0
  -23.5782  -32.3309   23.8461 O   0  0  0  0  0  0  0  0  0  0  0  0
  -26.1862  -18.2688   21.9070 O   0  0  0  0  0  0  0  0  0  0  0  0
  -21.7450   -6.8397   21.2958 O   0  0  0  0  0  0  0  0  0  0  0  0
  -23.3344  -26.0555   21.2172 O   0  0  0  0  0  0  0  0  0  1  0  0
  -20.8083   -5.6082   26.5883 F   0  0  0  0  0  0  0  0  0  0  0  0
  -22.1124   -4.2675   22.2400 F   0  0  0  0  0  0  0  0  0  0  0  0
  1  2  1  0  0  0  0
  1  5  2  0  0  0  0
  2  6  2  0  0  0  0
  3 10  2  0  0  0  0
  3 18  1  0  0  0  0
  4 11  1  0  0  0  0
  4 18  2  0  0  0  0
  5 20  1  0  0  0  0
  6 22  1  0  0  0  0
  7 12  2  0  0  0  0
  7 21  1  0  0  0  0
  8  9  2  0  0  0  0
  8 24  1  0  0  0  0
  9 26  1  0  0  0  0
 10 27  1  0  0  0  0
 11 27  2  0  0  0  0
 12 28  1  0  0  0  0
 13 14  2  0  0  0  0
 13 29  1  0  0  0  0
 14 30  1  0  0  0  0
 15 23  1  0  0  0  0
 15 28  2  0  0  0  0
 16 25  1  0  0  0  0
 16 26  2  0  0  0  0
 17 30  2  0  0  0  0
 17 31  1  0  0  0  0
 18 32  1  0  0  0  0
 19 32  1  0  0  0  0
 19 33  2  0  0  0  0
 19 34  1  0  0  0  0
 20 22  2  0  0  0  0
 20 40  1  0  0  0  0
 21 23  2  0  0  0  0
 21 41  1  0  0  0  0
 22 49  1  0  0  0  0
 23 42  1  0  0  0  0
 24 25  2  0  0  0  0
 24 52  1  0  0  0  0
 25 58  1  0  0  0  0
 26 69  1  0  0  0  0
 27 80  1  0  0  0  0
 28 81  1  0  0  0  0
 29 31  2  0  0  0  0
 29 80  1  0  0  0  0
 30 82  1  0  0  0  0
 31 83  1  0  0  0  0
 32 63  2  0  0  0  0
 33 64  1  0  0  0  0
 33 67  1  0  0  0  0
 34 68  1  0  0  0  0
 34 74  2  0  0  0  0
 35 50  1  0  0  0  0
 35 70  1  0  0  0  0
 35 75  2  0  0  0  0
 36 60  1  0  0  0  0
 36 65  1  0  0  0  0
 36 76  2  0  0  0  0
 37 59  1  0  0  0  0
 37 71  1  0  0  0  0
 37 77  2  0  0  0  0
 38 61  1  0  0  0  0
 38 72  1  0  0  0  0
 38 78  2  0  0  0  0
 39 66  1  0  0  0  0
 39 69  1  0  0  0  0
 39 79  2  0  0  0  0
 40 43  1  0  0  0  0
 41 50  1  0  0  0  0
 42 65  1  0  0  0  0
 43 45  1  0  0  0  0
 44 46  1  0  0  0  0
 44 47  1  0  0  0  0
 45 49  1  0  0  0  0
 46 51  1  0  0  0  0
 47 66  1  0  0  0  0
 48 51  1  0  0  0  0
 48 66  1  0  0  0  0
 49 70  1  0  0  0  0
 50 65  1  0  0  0  0
 51 64  1  0  0  0  0
 53 61  1  0  0  0  0
 54 62  1  0  0  0  0
 55 62  1  0  0  0  0
 56 62  1  0  0  0  0
 57 73  1  0  0  0  0
 58 71  1  0  0  0  0
 59 81  1  0  0  0  0
 60 62  1  0  0  0  0
 60 72  1  0  0  0  0
 61 73  1  0  0  0  0
 63 64  1  0  0  0  0
M  CHG  1  73   1
M  ISO  4  39 100  59 101  69 100  81 101
M  END
> <Batch ID>
0054

> <Smiles>
CNC(C)C(=O)NC(C(=O)N1Cc2cc([101O:1][101CH2:1]C(=O)NCc3cc([100NH:0][100C:0](=O)N4CCCC(n5nc(-c6ccc(Oc7ccc(F)cc7F)cc6)c(C(N)=O)c5N)C4)ccc3C)ccc2CC1C(=O)NC1CCCc2ccccc21)C(C)(C)C

> <Shape>
0.244

> <Color>
0.096

> <Negative vol penalty>
0.000

$$$$

  -OEChem-04042322463D

 87 96  0     1  0  0  0  0  0999 V2000
  -21.6533  -33.8202   23.9715 C   0  0  0  0  0  0  0  0  0  0  0  0
  -22.7853  -33.0619   23.6907 C   0  0  0  0  0  0  0  0  0  0  0  0
  -25.6191  -13.6599   21.5519 C   0  0  0  0  0  0  0  0  0  0  0  0
  -25.8967  -13.9274   19.1669 C   0  0  0  0  0  0  0  0  0  0  0  0
  -20.4340  -33.1880   24.2113 C   0  0  0  0  0  0  0  0  0  0  0  0
  -22.6988  -31.6707   23.6505 C   0  0  0  0  0  0  0  0  0  0  0  0
  -25.1131  -29.6886   19.6645 C   0  0  0  0  0  0  0  0  0  0  0  0
  -29.3902  -21.5669   14.9556 C   0  0  0  0  0  0  0  0  0  0  0  0
  -28.6260  -21.0531   16.0031 C   0  0  0  0  0  0  0  0  0  0  0  0
  -24.5910  -12.7438   21.3295 C   0  0  0  0  0  0  0  0  0  0  0  0
  -24.8687  -13.0112   18.9444 C   0  0  0  0  0  0  0  0  0  0  0  0
  -26.5017  -29.5928   19.7443 C   0  0  0  0  0  0  0  0  0  0  0  0
  -24.3000   -9.4849   20.4763 C   0  0  0  0  0  0  0  0  0  0  0  0
  -24.3047   -8.3101   21.2282 C   0  0  0  0  0  0  0  0  0  0  0  0
  -26.3017  -27.2578   20.3162 C   0  0  0  0  0  0  0  0  0  0  0  0
  -29.3345  -22.8801   17.4163 C   0  0  0  0  0  0  0  0  0  0  0  0
  -22.1423   -8.8848   22.1397 C   0  0  0  0  0  0  0  0  0  0  0  0
  -26.2719  -14.2517   20.4706 C   0  0  0  0  0  0  0  0  0  0  0  0
  -28.7075  -14.9205   20.8282 C   0  0  0  0  0  0  0  0  0  0  0  0
  -20.3304  -31.7888   24.1644 C   0  0  0  0  0  0  0  0  0  0  0  0
  -24.3066  -28.5705   19.9211 C   0  0  0  0  0  0  0  0  0  0  0  0
  -21.4773  -31.0191   23.8911 C   0  0  0  0  0  0  0  0  0  0  0  0
  -24.9032  -27.3414   20.2365 C   0  0  0  0  0  0  0  0  0  0  0  0
  -30.1267  -22.7373   15.1384 C   0  0  0  0  0  0  0  0  0  0  0  0
  -30.0988  -23.3939   16.3687 C   0  0  0  0  0  0  0  0  0  0  0  0
  -28.5981  -21.7097   17.2335 C   0  0  0  0  0  0  0  0  0  0  0  0
  -24.2159  -12.4194   20.0258 C   0  0  0  0  0  0  0  0  0  0  0  0
  -27.0961  -28.3780   20.0730 C   0  0  0  0  0  0  0  0  0  0  0  0
  -23.2165  -10.3597   20.5561 C   0  0  0  0  0  0  0  0  0  0  0  0
  -23.2259   -8.0100   22.0599 C   0  0  0  0  0  0  0  0  0  0  0  0
  -22.1376  -10.0596   21.3878 C   0  0  0  0  0  0  0  0  0  0  0  0
  -27.3335  -15.1986   20.6997 C   0  0  0  0  0  0  0  0  0  0  0  0
  -29.2886  -16.1481   21.0327 C   0  0  0  0  0  0  0  0  0  0  0  0
  -29.8239  -26.3852   19.8125 C   0  0  0  0  0  0  0  0  0  0  0  0
  -29.0900  -27.3900   19.3129 C   0  0  0  0  0  0  0  0  0  1  0  0
  -30.5633  -25.4592   18.9033 C   0  0  0  0  0  0  0  0  0  0  0  0
  -29.3970  -13.6648   20.7681 C   0  0  0  0  0  0  0  0  0  0  0  0
  -22.0758  -27.8597   22.0710 C   0  0  0  0  0  0  0  0  0  0  0  0
  -21.7467  -25.1819   20.2701 C   0  0  0  0  0  0  0  0  0  0  0  0
  -23.0446  -22.4469   18.3073 C   0  0  0  0  0  0  0  0  0  0  0  0
  -27.6828  -21.7174   19.5805 C   0  0  0  0  0  0  0  0  0  0  0  0
  -19.0012  -31.1484   24.4771 C   0  0  0  0  0  0  0  0  0  0  0  0
  -22.8112  -28.6838   19.8047 C   0  0  0  0  0  0  0  0  0  0  0  0
  -24.0827  -26.1064   20.5012 C   0  0  0  0  0  0  0  0  0  0  0  0
  -28.9058  -27.6056   17.8446 C   0  0  0  0  0  0  0  0  0  0  0  0
  -18.9131  -29.6866   24.0463 C   0  0  0  0  0  0  0  0  0  0  0  0
  -28.3520  -20.4785   22.8507 C   0  0  0  0  0  0  0  0  0  0  0  0
  -20.1638  -28.9269   24.4768 C   0  0  0  0  0  0  0  0  0  0  0  0
  -28.2978  -18.9585   22.6806 C   0  0  0  0  0  0  0  0  0  0  0  0
  -29.0927  -26.3065   17.0772 C   0  0  0  0  0  0  0  0  0  0  0  0
  -27.3143  -21.1840   21.9794 C   0  0  0  0  0  0  0  0  0  0  0  0
  -27.2975  -19.3053   20.3858 C   0  0  0  0  0  0  0  0  0  0  0  0
  -21.4183  -29.5089   23.8142 C   0  0  1  0  0  0  0  0  0  0  0  0
  -22.0676  -27.6076   20.5898 C   0  0  1  0  0  0  0  0  0  0  0  0
  -28.3680  -18.5548   21.1948 C   0  0  2  0  0  0  0  0  0  0  0  0
  -30.9382  -23.2679   14.0023 C   0  0  0  0  0  0  0  0  0  0  0  0
  -21.8529  -20.6278   17.0550 C   0  0  0  0  0  0  0  0  0  0  0  0
  -22.1347  -23.5648   22.8283 C   0  0  0  0  0  0  0  0  0  0  0  0
  -22.5744  -21.5516   21.4063 C   0  0  0  0  0  0  0  0  0  0  0  0
  -20.3576  -22.6907   21.3011 C   0  0  0  0  0  0  0  0  0  0  0  0
  -24.4242  -23.1247   15.7783 C   0  0  0  0  0  0  0  0  0  0  0  0
  -30.8817  -24.6562   16.5879 C   0  0  0  0  0  0  0  0  0  0  0  0
  -22.3764  -23.8099   20.2695 C   0  0  1  0  0  0  0  0  0  0  0  0
  -22.5405  -21.9805   16.9535 C   0  0  2  0  0  0  0  0  0  0  0  0
  -21.8764  -22.9278   21.4483 C   0  0  0  0  0  0  0  0  0  0  0  0
  -27.0581  -16.5006   20.8131 N   0  0  0  0  0  0  0  0  0  0  0  0
  -28.2671  -17.0516   21.0152 N   0  0  0  0  0  0  0  0  0  0  0  0
  -30.2375  -25.5362   17.5513 N   0  0  0  0  0  0  0  0  0  0  0  0
  -22.6245  -26.2695   20.3813 N   0  0  0  0  0  0  0  0  0  0  0  0
  -27.4437  -20.7557   20.5849 N   0  0  0  0  0  0  0  0  0  0  0  0
  -30.5686  -16.5321   21.2241 N   0  0  0  0  0  0  0  0  0  0  0  0
  -28.6473  -12.5007   20.5511 N   0  0  0  0  0  0  0  0  0  0  0  0
  -27.8202  -21.1891   18.2973 N   0  0  0  0  0  0  0  0  0  0  0  0
  -21.5146  -29.0676   22.4393 N   0  0  0  0  0  0  0  0  0  0  0  0
  -22.1206  -23.2439   18.9494 N   0  0  0  0  0  0  0  0  0  0  0  0
  -23.6730  -21.8610   15.9922 N   0  3  0  0  0  0  0  0  0  0  0  0
  -31.4049  -24.6983   19.3809 O   0  0  0  0  0  0  0  0  0  0  0  0
  -30.6390  -13.5759   20.9193 O   0  0  0  0  0  0  0  0  0  0  0  0
  -22.5544  -27.0199   22.8242 O   0  0  0  0  0  0  0  0  0  0  0  0
  -20.5217  -25.2851   20.1683 O   0  0  0  0  0  0  0  0  0  0  0  0
  -24.1462  -22.1324   18.7524 O   0  0  0  0  0  0  0  0  0  0  0  0
  -27.7870  -22.9183   19.8435 O   0  0  0  0  0  0  0  0  0  0  0  0
  -29.9972  -26.1897   21.1671 O   0  0  0  0  0  0  0  0  0  0  0  0
  -23.2129  -11.5253   19.8084 O   0  0  0  0  0  0  0  0  0  0  0  0
  -28.4512  -28.2819   20.1522 O   0  0  0  0  0  0  0  0  0  1  0  0
  -23.2299   -6.8810   22.7807 F   0  0  0  0  0  0  0  0  0  0  0  0
  -21.0933  -10.8956   21.4678 F   0  0  0  0  0  0  0  0  0  0  0  0
  1  2  1  0  0  0  0
  1  5  2  0  0  0  0
  2  6  2  0  0  0  0
  3 10  2  0  0  0  0
  3 18  1  0  0  0  0
  4 11  1  0  0  0  0
  4 18  2  0  0  0  0
  5 20  1  0  0  0  0
  6 22  1  0  0  0  0
  7 12  2  0  0  0  0
  7 21  1  0  0  0  0
  8  9  2  0  0  0  0
  8 24  1  0  0  0  0
  9 26  1  0  0  0  0
 10 27  1  0  0  0  0
 11 27  2  0  0  0  0
 12 28  1  0  0  0  0
 13 14  2  0  0  0  0
 13 29  1  0  0  0  0
 14 30  1  0  0  0  0
 15 23  1  0  0  0  0
 15 28  2  0  0  0  0
 16 25  1  0  0  0  0
 16 26  2  0  0  0  0
 17 30  2  0  0  0  0
 17 31  1  0  0  0  0
 18 32  1  0  0  0  0
 19 32  1  0  0  0  0
 19 33  2  0  0  0  0
 19 37  1  0  0  0  0
 20 22  2  0  0  0  0
 20 42  1  0  0  0  0
 21 23  2  0  0  0  0
 21 43  1  0  0  0  0
 22 53  1  0  0  0  0
 23 44  1  0  0  0  0
 24 25  2  0  0  0  0
 24 56  1  0  0  0  0
 25 62  1  0  0  0  0
 26 73  1  0  0  0  0
 27 84  1  0  0  0  0
 28 85  1  0  0  0  0
 29 31  2  0  0  0  0
 29 84  1  0  0  0  0
 30 86  1  0  0  0  0
 31 87  1  0  0  0  0
 32 66  2  0  0  0  0
 33 67  1  0  0  0  0
 33 71  1  0  0  0  0
 34 35  2  0  0  0  0
 34 36  1  0  0  0  0
 34 83  1  0  0  0  0
 35 45  1  0  0  0  0
 35 85  1  0  0  0  0
 36 68  1  0  0  0  0
 36 77  2  0  0  0  0
 37 72  1  0  0  0  0
 37 78  2  0  0  0  0
 38 54  1  0  0  0  0
 38 74  1  0  0  0  0
 38 79  2  0  0  0  0
 39 63  1  0  0  0  0
 39 69  1  0  0  0  0
 39 80  2  0  0  0  0
 40 64  1  0  0  0  0
 40 75  1  0  0  0  0
 40 81  2  0  0  0  0
 41 70  1  0  0  0  0
 41 73  1  0  0  0  0
 41 82  2  0  0  0  0
 42 46  1  0  0  0  0
 43 54  1  0  0  0  0
 44 69  1  0  0  0  0
 45 50  1  0  0  0  0
 46 48  1  0  0  0  0
 47 49  1  0  0  0  0
 47 51  1  0  0  0  0
 48 53  1  0  0  0  0
 49 55  1  0  0  0  0
 50 68  1  0  0  0  0
 51 70  1  0  0  0  0
 52 55  1  0  0  0  0
 52 70  1  0  0  0  0
 53 74  1  0  0  0  0
 54 69  1  0  0  0  0
 55 67  1  0  0  0  0
 57 64  1  0  0  0  0
 58 65  1  0  0  0  0
 59 65  1  0  0  0  0
 60 65  1  0  0  0  0
 61 76  1  0  0  0  0
 62 68  1  0  0  0  0
 63 65  1  0  0  0  0
 63 75  1  0  0  0  0
 64 76  1  0  0  0  0
 66 67  1  0  0  0  0
M  CHG  1  76   1
M  ISO  4  35 101  41 100  73 100  85 101
M  END
> <Batch ID>
0054

> <Smiles>
CNC(C)C(=O)NC(C(=O)N1Cc2cc([101O:1][101CH:1]3CCN(Cc4cc([100NH:0][100C:0](=O)N5CCCC(n6nc(-c7ccc(Oc8ccc(F)cc8F)cc7)c(C(N)=O)c6N)C5)ccc4C)C(=O)C3=O)ccc2CC1C(=O)NC1CCCc2ccccc21)C(C)(C)C

> <Shape>
0.264

> <Color>
0.076

> <Negative vol penalty>
0.000

$$$$

  -OEChem-04042322463D

 87 96  0     1  0  0  0  0  0999 V2000
  -16.8386  -30.2910   20.7601 C   0  0  0  0  0  0  0  0  0  0  0  0
  -18.0976  -30.8268   20.5085 C   0  0  0  0  0  0  0  0  0  0  0  0
  -22.6038  -10.4630   20.3323 C   0  0  0  0  0  0  0  0  0  0  0  0
  -24.3512   -9.3767   21.5986 C   0  0  0  0  0  0  0  0  0  0  0  0
  -16.6894  -29.2801   21.7087 C   0  0  0  0  0  0  0  0  0  0  0  0
  -19.2080  -30.3528   21.2062 C   0  0  0  0  0  0  0  0  0  0  0  0
  -25.9086  -27.3730   18.5137 C   0  0  0  0  0  0  0  0  0  0  0  0
  -21.8157   -9.3169   20.4366 C   0  0  0  0  0  0  0  0  0  0  0  0
  -23.5631   -8.2305   21.7029 C   0  0  0  0  0  0  0  0  0  0  0  0
  -27.0696  -26.6846   18.1611 C   0  0  0  0  0  0  0  0  0  0  0  0
  -20.9442   -7.1707   23.5572 C   0  0  0  0  0  0  0  0  0  0  0  0
  -20.8632   -6.5530   24.8052 C   0  0  0  0  0  0  0  0  0  0  0  0
  -27.0629  -25.5562   20.2999 C   0  0  0  0  0  0  0  0  0  0  0  0
  -29.8791  -18.2623   21.9018 C   0  0  0  0  0  0  0  0  0  0  0  0
  -31.9375  -18.1320   20.6439 C   0  0  0  0  0  0  0  0  0  0  0  0
  -21.7860   -4.5286   23.8632 C   0  0  0  0  0  0  0  0  0  0  0  0
  -23.8716  -10.4929   20.9133 C   0  0  0  0  0  0  0  0  0  0  0  0
  -24.3757  -12.9677   21.2720 C   0  0  0  0  0  0  0  0  0  0  0  0
  -17.8000  -28.7868   22.4114 C   0  0  0  0  0  0  0  0  0  0  0  0
  -25.3110  -27.1438   19.7562 C   0  0  0  0  0  0  0  0  0  0  0  0
  -19.0733  -29.3354   22.1660 C   0  0  0  0  0  0  0  0  0  0  0  0
  -25.8929  -26.2335   20.6537 C   0  0  0  0  0  0  0  0  0  0  0  0
  -31.0525  -17.5840   21.5723 C   0  0  0  0  0  0  0  0  0  0  0  0
  -29.5906  -19.4886   21.3029 C   0  0  0  0  0  0  0  0  0  0  0  0
  -31.6491  -19.3583   20.0449 C   0  0  0  0  0  0  0  0  0  0  0  0
  -30.4757  -20.0366   20.3745 C   0  0  0  0  0  0  0  0  0  0  0  0
  -22.2953   -8.2007   21.1218 C   0  0  0  0  0  0  0  0  0  0  0  0
  -27.6455  -25.7787   19.0521 C   0  0  0  0  0  0  0  0  0  0  0  0
  -21.4460   -6.4673   22.4622 C   0  0  0  0  0  0  0  0  0  0  0  0
  -21.2841   -5.2320   24.9582 C   0  0  0  0  0  0  0  0  0  0  0  0
  -21.8669   -5.1463   22.6152 C   0  0  0  0  0  0  0  0  0  0  0  0
  -24.6864  -11.6764   20.8055 C   0  0  0  0  0  0  0  0  0  0  0  0
  -25.4658  -13.7288   20.9272 C   0  0  0  0  0  0  0  0  0  0  0  0
  -29.4565  -21.4081   18.5647 C   0  0  0  0  0  0  0  0  0  0  0  0
  -29.1404  -20.4011   17.7256 C   0  0  0  0  0  0  0  0  0  0  0  0
  -23.2064  -13.4373   21.9560 C   0  0  0  0  0  0  0  0  0  0  0  0
  -22.4981  -27.9497   22.1044 C   0  0  0  0  0  0  0  0  0  0  0  0
  -22.9721  -24.9244   22.2868 C   0  0  0  0  0  0  0  0  0  0  0  0
  -23.5303  -21.5835   21.8819 C   0  0  0  0  0  0  0  0  0  0  0  0
  -30.9900  -14.4419   20.5798 C   0  0  0  0  0  0  0  0  0  0  0  0
  -17.5822  -27.7261   23.4613 C   0  0  0  0  0  0  0  0  0  0  0  0
  -24.0944  -27.9083   20.2026 C   0  0  0  0  0  0  0  0  0  0  0  0
  -25.2347  -26.0446   21.9930 C   0  0  0  0  0  0  0  0  0  0  0  0
  -29.0373  -22.7976   18.1242 C   0  0  0  0  0  0  0  0  0  0  0  0
  -18.8659  -27.0191   23.8884 C   0  0  0  0  0  0  0  0  0  0  0  0
  -29.4007  -12.6756   17.9282 C   0  0  0  0  0  0  0  0  0  0  0  0
  -19.9724  -28.0352   24.1527 C   0  0  0  0  0  0  0  0  0  0  0  0
  -28.0099  -12.3596   18.4812 C   0  0  0  0  0  0  0  0  0  0  0  0
  -30.2541  -23.7727   20.0531 C   0  0  0  0  0  0  0  0  0  0  0  0
  -30.4716  -12.5939   19.0138 C   0  0  0  0  0  0  0  0  0  0  0  0
  -30.4519  -22.4045   20.6881 C   0  0  0  0  0  0  0  0  0  0  0  0
  -28.8115  -13.0942   20.7652 C   0  0  0  0  0  0  0  0  0  0  0  0
  -20.3057  -28.8303   22.8846 C   0  0  1  0  0  0  0  0  0  0  0  0
  -23.1405  -27.0700   21.0725 C   0  0  1  0  0  0  0  0  0  0  0  0
  -27.6902  -13.2186   19.7194 C   0  0  2  0  0  0  0  0  0  0  0  0
  -28.9594  -23.8109   19.2587 C   0  0  1  0  0  0  0  0  0  1  0  0
  -28.3252  -20.1908   21.6751 C   0  0  0  0  0  0  0  0  0  0  0  0
  -32.6157  -19.9206   19.0536 C   0  0  0  0  0  0  0  0  0  0  0  0
  -22.7584  -19.3431   22.7079 C   0  0  0  0  0  0  0  0  0  0  0  0
  -24.5298  -25.3461   24.8751 C   0  0  0  0  0  0  0  0  0  0  0  0
  -24.5340  -22.8629   25.1939 C   0  0  0  0  0  0  0  0  0  0  0  0
  -22.3733  -24.1086   25.1447 C   0  0  0  0  0  0  0  0  0  0  0  0
  -22.6489  -20.7612   19.1790 C   0  0  0  0  0  0  0  0  0  0  0  0
  -31.3606  -16.2730   22.2135 C   0  0  0  0  0  0  0  0  0  0  0  0
  -23.6720  -23.7943   22.9984 C   0  0  1  0  0  0  0  0  0  0  0  0
  -22.5783  -20.4234   21.6528 C   0  0  2  0  0  0  0  0  0  0  0  0
  -23.7880  -24.0396   24.5294 C   0  0  0  0  0  0  0  0  0  0  0  0
  -25.8803  -11.6167   20.2096 N   0  0  0  0  0  0  0  0  0  0  0  0
  -26.3294  -12.8802   20.2993 N   0  0  0  0  0  0  0  0  0  0  0  0
  -30.1805  -21.2901   19.7619 N   0  0  0  0  0  0  0  0  0  0  0  0
  -23.7740  -25.9773   21.8299 N   0  0  0  0  0  0  0  0  0  0  0  0
  -30.1088  -13.4322   20.1590 N   0  0  0  0  0  0  0  0  0  0  0  0
  -25.7603  -15.0345   21.1029 N   0  0  0  0  0  0  0  0  0  0  0  0
  -23.1882  -13.3920   23.3567 N   0  0  0  0  0  0  0  0  0  0  0  0
  -21.1237  -28.0379   21.9916 N   0  0  0  0  0  0  0  0  0  0  0  0
  -22.9504  -22.5778   22.6411 N   0  0  0  0  0  0  0  0  0  0  0  0
  -30.5666  -15.1945   21.6685 N   0  0  0  0  0  0  0  0  0  0  0  0
  -22.8153  -19.8158   20.3128 N   0  3  0  0  0  0  0  0  0  0  0  0
  -22.2007  -13.8686   21.3426 O   0  0  0  0  0  0  0  0  0  0  0  0
  -23.1968  -28.5069   22.9429 O   0  0  0  0  0  0  0  0  0  0  0  0
  -21.7470  -24.8801   22.1434 O   0  0  0  0  0  0  0  0  0  0  0  0
  -24.6752  -21.6038   21.4355 O   0  0  0  0  0  0  0  0  0  0  0  0
  -32.0713  -14.6603   20.0231 O   0  0  0  0  0  0  0  0  0  0  0  0
  -21.5264   -7.0822   21.2240 O   0  0  0  0  0  0  0  0  0  0  0  0
  -28.7764  -25.1067   18.6998 O   0  0  0  0  0  0  0  0  0  1  0  0
  -21.2078   -4.6395   26.1571 F   0  0  0  0  0  0  0  0  0  0  0  0
  -22.3510   -4.4659   21.5671 F   0  0  0  0  0  0  0  0  0  0  0  0
  1  2  1  0  0  0  0
  1  5  2  0  0  0  0
  2  6  2  0  0  0  0
  3  8  2  0  0  0  0
  3 17  1  0  0  0  0
  4  9  1  0  0  0  0
  4 17  2  0  0  0  0
  5 19  1  0  0  0  0
  6 21  1  0  0  0  0
  7 10  2  0  0  0  0
  7 20  1  0  0  0  0
  8 27  1  0  0  0  0
  9 27  2  0  0  0  0
 10 28  1  0  0  0  0
 11 12  2  0  0  0  0
 11 29  1  0  0  0  0
 12 30  1  0  0  0  0
 13 22  1  0  0  0  0
 13 28  2  0  0  0  0
 14 23  1  0  0  0  0
 14 24  2  0  0  0  0
 15 23  2  0  0  0  0
 15 25  1  0  0  0  0
 16 30  2  0  0  0  0
 16 31  1  0  0  0  0
 17 32  1  0  0  0  0
 18 32  1  0  0  0  0
 18 33  2  0  0  0  0
 18 36  1  0  0  0  0
 19 21  2  0  0  0  0
 19 41  1  0  0  0  0
 20 22  2  0  0  0  0
 20 42  1  0  0  0  0
 21 53  1  0  0  0  0
 22 43  1  0  0  0  0
 23 64  1  0  0  0  0
 24 26  1  0  0  0  0
 24 57  1  0  0  0  0
 25 26  2  0  0  0  0
 25 58  1  0  0  0  0
 26 70  1  0  0  0  0
 27 84  1  0  0  0  0
 28 85  1  0  0  0  0
 29 31  2  0  0  0  0
 29 84  1  0  0  0  0
 30 86  1  0  0  0  0
 31 87  1  0  0  0  0
 32 68  2  0  0  0  0
 33 69  1  0  0  0  0
 33 73  1  0  0  0  0
 34 35  2  0  0  0  0
 34 44  1  0  0  0  0
 34 70  1  0  0  0  0
 36 74  1  0  0  0  0
 36 79  2  0  0  0  0
 37 54  1  0  0  0  0
 37 75  1  0  0  0  0
 37 80  2  0  0  0  0
 38 65  1  0  0  0  0
 38 71  1  0  0  0  0
 38 81  2  0  0  0  0
 39 66  1  0  0  0  0
 39 76  1  0  0  0  0
 39 82  2  0  0  0  0
 40 72  1  0  0  0  0
 40 77  1  0  0  0  0
 40 83  2  0  0  0  0
 41 45  1  0  0  0  0
 42 54  1  0  0  0  0
 43 71  1  0  0  0  0
 44 56  1  0  0  0  0
 45 47  1  0  0  0  0
 46 48  1  0  0  0  0
 46 50  1  0  0  0  0
 47 53  1  0  0  0  0
 48 55  1  0  0  0  0
 49 51  1  0  0  0  0
 49 56  1  0  0  0  0
 50 72  1  0  0  0  0
 51 70  1  0  0  0  0
 52 55  1  0  0  0  0
 52 72  1  0  0  0  0
 53 75  1  0  0  0  0
 54 71  1  0  0  0  0
 55 69  1  0  0  0  0
 56 85  1  0  0  0  0
 59 66  1  0  0  0  0
 60 67  1  0  0  0  0
 61 67  1  0  0  0  0
 62 67  1  0  0  0  0
 63 78  1  0  0  0  0
 64 77  1  0  0  0  0
 65 67  1  0  0  0  0
 65 76  1  0  0  0  0
 66 78  1  0  0  0  0
 68 69  1  0  0  0  0
M  CHG  1  78   1
M  ISO  4  40 100  56 101  77 100  85 101
M  END
> <Batch ID>
0054

> <Smiles>
C=C1C[101CH:1]([101O:1]c2ccc3c(c2)CN(C(=O)C(NC(=O)C(C)NC)C(C)(C)C)C(C(=O)NC2CCCc4ccccc42)C3)CCN1c1c(C)cc(C[100NH:0][100C:0](=O)N2CCCC(n3nc(-c4ccc(Oc5ccc(F)cc5F)cc4)c(C(N)=O)c3N)C2)cc1C

> <Shape>
0.327

> <Color>
0.197

> <Negative vol penalty>
0.000

$$$$

  -OEChem-04042322463D

 85 93  0     1  0  0  0  0  0999 V2000
  -30.9934  -23.6820   17.3686 C   0  0  0  0  0  0  0  0  0  0  0  0
  -29.8064  -23.1224   17.8278 C   0  0  0  0  0  0  0  0  0  0  0  0
  -27.2053  -17.3377   19.0779 C   0  0  0  0  0  0  0  0  0  0  0  0
  -27.6260  -17.2966   21.4566 C   0  0  0  0  0  0  0  0  0  0  0  0
  -31.4581  -24.8730   17.9226 C   0  0  0  0  0  0  0  0  0  0  0  0
  -29.0777  -23.7596   18.8327 C   0  0  0  0  0  0  0  0  0  0  0  0
  -24.0177  -22.0354   21.7569 C   0  0  0  0  0  0  0  0  0  0  0  0
  -18.8361  -15.8962   26.6741 C   0  0  0  0  0  0  0  0  0  0  0  0
  -19.3948  -15.2972   25.5451 C   0  0  0  0  0  0  0  0  0  0  0  0
  -27.7771  -18.6075   18.9987 C   0  0  0  0  0  0  0  0  0  0  0  0
  -28.1978  -18.5664   21.3775 C   0  0  0  0  0  0  0  0  0  0  0  0
  -23.6872  -21.3363   22.9170 C   0  0  0  0  0  0  0  0  0  0  0  0
  -31.1479  -19.9129   20.4264 C   0  0  0  0  0  0  0  0  0  0  0  0
  -32.3480  -20.1249   21.1048 C   0  0  0  0  0  0  0  0  0  0  0  0
  -23.4414  -23.4252   24.0984 C   0  0  0  0  0  0  0  0  0  0  0  0
  -21.3554  -16.6898   25.7765 C   0  0  0  0  0  0  0  0  0  0  0  0
  -31.2978  -21.8572   22.4214 C   0  0  0  0  0  0  0  0  0  0  0  0
  -27.1297  -16.6823   20.3069 C   0  0  0  0  0  0  0  0  0  0  0  0
  -27.1943  -14.1327   20.2522 C   0  0  0  0  0  0  0  0  0  0  0  0
  -30.7405  -25.5180   18.9433 C   0  0  0  0  0  0  0  0  0  0  0  0
  -24.0734  -23.4365   21.7617 C   0  0  0  0  0  0  0  0  0  0  0  0
  -29.5178  -24.9748   19.3878 C   0  0  0  0  0  0  0  0  0  0  0  0
  -23.7705  -24.1397   22.9364 C   0  0  0  0  0  0  0  0  0  0  0  0
  -19.5370  -16.8921   27.3543 C   0  0  0  0  0  0  0  0  0  0  0  0
  -20.6544  -15.6939   25.0963 C   0  0  0  0  0  0  0  0  0  0  0  0
  -28.2734  -19.2218   20.1485 C   0  0  0  0  0  0  0  0  0  0  0  0
  -23.4018  -22.0311   24.0888 C   0  0  0  0  0  0  0  0  0  0  0  0
  -30.0227  -20.6730   20.7454 C   0  0  0  0  0  0  0  0  0  0  0  0
  -32.4230  -21.0970   22.1023 C   0  0  0  0  0  0  0  0  0  0  0  0
  -30.0976  -21.6451   21.7429 C   0  0  0  0  0  0  0  0  0  0  0  0
  -20.7967  -17.2888   26.9055 C   0  0  0  0  0  0  0  0  0  0  0  0
  -26.5386  -15.3708   20.3894 C   0  0  0  0  0  0  0  0  0  0  0  0
  -26.2006  -13.1982   20.4126 C   0  0  0  0  0  0  0  0  0  0  0  0
  -28.5780  -13.8523   20.0022 C   0  0  0  0  0  0  0  0  0  0  0  0
  -26.3513  -25.5927   21.2463 C   0  0  0  0  0  0  0  0  0  0  0  0
  -23.8874  -27.6862   21.5090 C   0  0  0  0  0  0  0  0  0  0  0  0
  -20.7637  -28.3477   22.7138 C   0  0  0  0  0  0  0  0  0  0  0  0
  -20.6657  -14.0796   23.1537 C   0  0  0  0  0  0  0  0  0  0  0  0
  -31.2853  -26.8089   19.5019 C   0  0  0  0  0  0  0  0  0  0  0  0
  -24.4054  -24.1767   20.4950 C   0  0  0  0  0  0  0  0  0  0  0  0
  -23.7964  -25.6447   22.9887 C   0  0  0  0  0  0  0  0  0  0  0  0
  -30.6833  -27.1720   20.8554 C   0  0  0  0  0  0  0  0  0  0  0  0
  -21.4110  -12.9418   19.7174 C   0  0  0  0  0  0  0  0  0  0  0  0
  -29.1664  -27.0737   20.7928 C   0  0  0  0  0  0  0  0  0  0  0  0
  -22.9236  -13.0858   19.5419 C   0  0  0  0  0  0  0  0  0  0  0  0
  -21.0071  -12.6460   21.1552 C   0  0  0  0  0  0  0  0  0  0  0  0
  -22.8325  -14.2293   21.8127 C   0  0  0  0  0  0  0  0  0  0  0  0
  -28.7240  -25.6342   20.5011 C   0  0  1  0  0  0  0  0  0  0  0  0
  -24.9341  -25.5853   20.7472 C   0  0  1  0  0  0  0  0  0  0  0  0
  -23.6622  -13.3492   20.8648 C   0  0  2  0  0  0  0  0  0  0  0  0
  -18.9106  -17.5127   28.5600 C   0  0  0  0  0  0  0  0  0  0  0  0
  -19.0278  -30.1579   22.7991 C   0  0  0  0  0  0  0  0  0  0  0  0
  -21.0802  -21.7762   28.3851 C   0  0  0  0  0  0  0  0  0  0  0  0
  -25.5211  -29.1496   23.6302 C   0  0  0  0  0  0  0  0  0  0  0  0
  -23.4250  -30.3234   24.3350 C   0  0  0  0  0  0  0  0  0  0  0  0
  -24.3159  -30.6436   22.0271 C   0  0  0  0  0  0  0  0  0  0  0  0
  -18.7852  -26.6782   21.2795 C   0  0  0  0  0  0  0  0  0  0  0  0
  -23.4189  -18.1289   27.4736 C   0  0  0  0  0  0  0  0  0  0  0  0
  -22.2018  -22.0003   26.1418 C   0  0  0  0  0  0  0  0  0  1  0  0
  -23.2418  -28.4402   22.6464 C   0  0  1  0  0  0  0  0  0  0  0  0
  -19.5311  -28.9342   22.0495 C   0  0  2  0  0  0  0  0  0  0  0  0
  -22.0056  -21.1156   27.3710 C   0  0  2  0  0  0  0  0  0  0  0  0
  -24.1273  -29.6108   23.1595 C   0  0  0  0  0  0  0  0  0  0  0  0
  -25.2295  -15.2383   20.6191 N   0  0  0  0  0  0  0  0  0  0  0  0
  -21.4091  -19.8388   26.9604 N   0  0  0  0  0  0  0  0  0  0  0  0
  -25.0546  -13.9059   20.6274 N   0  0  0  0  0  0  0  0  0  0  0  0
  -24.1328  -26.3229   21.7260 N   0  0  0  0  0  0  0  0  0  0  0  0
  -21.4899  -13.6821   22.0728 N   0  0  0  0  0  0  0  0  0  0  0  0
  -26.2039  -11.8485   20.3894 N   0  0  0  0  0  0  0  0  0  0  0  0
  -29.4636  -14.9297   19.8635 N   0  0  0  0  0  0  0  0  0  0  0  0
  -21.2216  -15.0843   23.9497 N   0  0  0  0  0  0  0  0  0  0  0  0
  -27.3010  -25.6207   20.2429 N   0  0  0  0  0  0  0  0  0  0  0  0
  -21.9260  -28.8511   22.1689 N   0  0  0  0  0  0  0  0  0  0  0  0
  -18.4354  -27.9249   22.0077 N   0  3  0  0  0  0  0  0  0  0  0  0
  -29.0132  -12.6813   19.8884 O   0  0  0  0  0  0  0  0  0  0  0  0
  -26.5672  -25.5758   22.4525 O   0  0  0  0  0  0  0  0  0  0  0  0
  -24.1572  -28.2831   20.4638 O   0  0  0  0  0  0  0  0  0  0  0  0
  -20.7016  -27.5280   23.6275 O   0  0  0  0  0  0  0  0  0  0  0  0
  -19.5556  -13.5766   23.3407 O   0  0  0  0  0  0  0  0  0  0  0  0
  -21.4884  -18.3424   29.1671 O   0  0  0  0  0  0  0  0  0  0  0  0
  -28.8317  -20.4608   20.0716 O   0  0  0  0  0  0  0  0  0  0  0  0
  -23.0795  -21.3513   25.2227 O   0  0  0  0  0  0  0  0  0  1  0  0
  -33.5752  -21.2995   22.7548 F   0  0  0  0  0  0  0  0  0  0  0  0
  -29.0197  -22.3777   22.0547 F   0  0  0  0  0  0  0  0  0  0  0  0
  -21.7159  -18.5509   27.7470 S   0  0  1  0  0  0  0  0  0  0  0  0
  1  2  1  0  0  0  0
  1  5  2  0  0  0  0
  2  6  2  0  0  0  0
  3 10  2  0  0  0  0
  3 18  1  0  0  0  0
  4 11  1  0  0  0  0
  4 18  2  0  0  0  0
  5 20  1  0  0  0  0
  6 22  1  0  0  0  0
  7 12  2  0  0  0  0
  7 21  1  0  0  0  0
  8  9  2  0  0  0  0
  8 24  1  0  0  0  0
  9 25  1  0  0  0  0
 10 26  1  0  0  0  0
 11 26  2  0  0  0  0
 12 27  1  0  0  0  0
 13 14  2  0  0  0  0
 13 28  1  0  0  0  0
 14 29  1  0  0  0  0
 15 23  1  0  0  0  0
 15 27  2  0  0  0  0
 16 25  2  0  0  0  0
 16 31  1  0  0  0  0
 17 29  2  0  0  0  0
 17 30  1  0  0  0  0
 18 32  1  0  0  0  0
 19 32  1  0  0  0  0
 19 33  2  0  0  0  0
 19 34  1  0  0  0  0
 20 22  2  0  0  0  0
 20 39  1  0  0  0  0
 21 23  2  0  0  0  0
 21 40  1  0  0  0  0
 22 48  1  0  0  0  0
 23 41  1  0  0  0  0
 24 31  2  0  0  0  0
 24 51  1  0  0  0  0
 25 71  1  0  0  0  0
 26 81  1  0  0  0  0
 27 82  1  0  0  0  0
 28 30  2  0  0  0  0
 28 81  1  0  0  0  0
 29 83  1  0  0  0  0
 30 84  1  0  0  0  0
 31 85  1  0  0  0  0
 32 64  2  0  0  0  0
 33 66  1  0  0  0  0
 33 69  1  0  0  0  0
 34 70  1  0  0  0  0
 34 75  2  0  0  0  0
 35 49  1  0  0  0  0
 35 72  1  0  0  0  0
 35 76  2  0  0  0  0
 36 60  1  0  0  0  0
 36 67  1  0  0  0  0
 36 77  2  0  0  0  0
 37 61  1  0  0  0  0
 37 73  1  0  0  0  0
 37 78  2  0  0  0  0
 38 68  1  0  0  0  0
 38 71  1  0  0  0  0
 38 79  2  0  0  0  0
 39 42  1  0  0  0  0
 40 49  1  0  0  0  0
 41 67  1  0  0  0  0
 42 44  1  0  0  0  0
 43 45  1  0  0  0  0
 43 46  1  0  0  0  0
 44 48  1  0  0  0  0
 45 50  1  0  0  0  0
 46 68  1  0  0  0  0
 47 50  1  0  0  0  0
 47 68  1  0  0  0  0
 48 72  1  0  0  0  0
 49 67  1  0  0  0  0
 50 66  1  0  0  0  0
 52 61  1  0  0  0  0
 53 62  1  0  0  0  0
 54 63  1  0  0  0  0
 55 63  1  0  0  0  0
 56 63  1  0  0  0  0
 57 74  1  0  0  0  0
 58 85  1  0  0  0  0
 59 62  1  0  0  0  0
 59 82  1  0  0  0  0
 60 63  1  0  0  0  0
 60 73  1  0  0  0  0
 61 74  1  0  0  0  0
 62 65  1  0  0  0  0
 64 66  1  0  0  0  0
 65 85  2  0  0  0  0
 80 85  2  0  0  0  0
M  CHG  1  74   1
M  ISO  4  38 100  59 101  71 100  82 101
M  END
> <Batch ID>
0054

> <Smiles>
CNC(C)C(=O)NC(C(=O)N1Cc2cc([101O:1][101CH2:1]C(C)N=S(C)(=O)c3cc([100NH:0][100C:0](=O)N4CCCC(n5nc(-c6ccc(Oc7ccc(F)cc7F)cc6)c(C(N)=O)c5N)C4)ccc3C)ccc2CC1C(=O)NC1CCCc2ccccc21)C(C)(C)C

> <Shape>
0.232

> <Color>
0.060

> <Negative vol penalty>
0.000

$$$$

  -OEChem-04042322463D

 86 94  0     1  0  0  0  0  0999 V2000
  -21.6862  -12.4932   19.0902 C   0  0  0  0  0  0  0  0  0  0  0  0
  -21.5751  -13.6124   19.9090 C   0  0  0  0  0  0  0  0  0  0  0  0
  -18.0402  -26.7026   22.2480 C   0  0  0  0  0  0  0  0  0  0  0  0
  -26.6082  -25.6895   16.3565 C   0  0  0  0  0  0  0  0  0  0  0  0
  -28.6701  -25.7035   17.6158 C   0  0  0  0  0  0  0  0  0  0  0  0
  -18.7368  -27.9110   22.2391 C   0  0  0  0  0  0  0  0  0  0  0  0
  -22.9151  -11.8486   18.9555 C   0  0  0  0  0  0  0  0  0  0  0  0
  -22.6928  -14.0870   20.5945 C   0  0  0  0  0  0  0  0  0  0  0  0
  -23.1499  -19.1226   20.3143 C   0  0  0  0  0  0  0  0  0  0  0  0
  -27.3144  -25.3454   15.2040 C   0  0  0  0  0  0  0  0  0  0  0  0
  -29.3763  -25.3594   16.4632 C   0  0  0  0  0  0  0  0  0  0  0  0
  -22.3271  -19.8838   21.1434 C   0  0  0  0  0  0  0  0  0  0  0  0
  -29.2339  -26.9055   12.9005 C   0  0  0  0  0  0  0  0  0  0  0  0
  -28.9249  -27.5881   11.7240 C   0  0  0  0  0  0  0  0  0  0  0  0
  -18.4005  -25.6965   23.1445 C   0  0  0  0  0  0  0  0  0  0  0  0
  -24.1594  -20.1738   22.6854 C   0  0  0  0  0  0  0  0  0  0  0  0
  -28.3108  -25.5006   10.6741 C   0  0  0  0  0  0  0  0  0  0  0  0
  -27.2860  -25.8686   17.5624 C   0  0  0  0  0  0  0  0  0  0  0  0
  -19.7937  -28.1133   23.1266 C   0  0  0  0  0  0  0  0  0  0  0  0
  -25.9878  -25.3473   19.6956 C   0  0  0  0  0  0  0  0  0  0  0  0
  -24.0506  -12.3213   19.6321 C   0  0  0  0  0  0  0  0  0  0  0  0
  -24.4828  -18.8718   20.6705 C   0  0  0  0  0  0  0  0  0  0  0  0
  -23.9378  -13.4474   20.4698 C   0  0  0  0  0  0  0  0  0  0  0  0
  -24.9978  -19.4113   21.8578 C   0  0  0  0  0  0  0  0  0  0  0  0
  -20.1540  -27.1072   24.0231 C   0  0  0  0  0  0  0  0  0  0  0  0
  -28.6985  -25.1803   15.2573 C   0  0  0  0  0  0  0  0  0  0  0  0
  -22.8310  -20.4071   22.3306 C   0  0  0  0  0  0  0  0  0  0  0  0
  -29.0814  -25.5204   12.9638 C   0  0  0  0  0  0  0  0  0  0  0  0
  -28.4633  -26.8857   10.6108 C   0  0  0  0  0  0  0  0  0  0  0  0
  -28.6199  -24.8180   11.8506 C   0  0  0  0  0  0  0  0  0  0  0  0
  -19.4574  -25.8988   24.0320 C   0  0  0  0  0  0  0  0  0  0  0  0
  -26.5571  -26.2246   18.7533 C   0  0  0  0  0  0  0  0  0  0  0  0
  -25.4125  -26.1734   20.6300 C   0  0  0  0  0  0  0  0  0  0  0  0
  -20.5151  -29.4115   23.0926 C   0  0  0  0  0  0  0  0  0  0  0  0
  -25.9798  -23.9138   19.7239 C   0  0  0  0  0  0  0  0  0  0  0  0
  -26.1817  -16.2614   21.3057 C   0  0  0  0  0  0  0  0  0  0  0  0
  -28.6490  -18.3648   21.4081 C   0  0  0  0  0  0  0  0  0  0  0  0
  -29.4503  -21.4086   21.3472 C   0  0  0  0  0  0  0  0  0  0  0  0
  -22.3946  -30.6083   22.0161 C   0  0  0  0  0  0  0  0  0  0  0  0
  -25.3469  -11.5632   19.4924 C   0  0  0  0  0  0  0  0  0  0  0  0
  -25.3650  -18.0712   19.7521 C   0  0  0  0  0  0  0  0  0  0  0  0
  -26.4275  -19.1880   22.2757 C   0  0  0  0  0  0  0  0  0  0  0  0
  -26.5674  -12.3525   19.9590 C   0  0  0  0  0  0  0  0  0  0  0  0
  -25.8079  -31.1790   21.2945 C   0  0  0  0  0  0  0  0  0  0  0  0
  -26.2941  -13.0103   21.3078 C   0  0  0  0  0  0  0  0  0  0  0  0
  -26.2657  -29.8663   20.6530 C   0  0  0  0  0  0  0  0  0  0  0  0
  -24.3853  -31.5488   20.8767 C   0  0  0  0  0  0  0  0  0  0  0  0
  -23.8411  -29.1889   20.4380 C   0  0  0  0  0  0  0  0  0  0  0  0
  -25.1329  -14.0071   21.2103 C   0  0  1  0  0  0  0  0  0  0  0  0
  -26.5608  -17.4480   20.4655 C   0  0  1  0  0  0  0  0  0  0  0  0
  -25.2414  -28.7370   20.8829 C   0  0  1  0  0  0  0  0  0  0  0  0
  -21.2908  -27.3291   24.9712 C   0  0  0  0  0  0  0  0  0  0  0  0
  -30.4862  -23.6942   21.3294 C   0  0  0  0  0  0  0  0  0  0  0  0
  -29.3160  -17.2557   24.1712 C   0  0  0  0  0  0  0  0  0  0  0  0
  -30.7408  -19.2769   24.5620 C   0  0  0  0  0  0  0  0  0  0  0  0
  -31.3020  -17.6954   22.7163 C   0  0  0  0  0  0  0  0  0  0  0  0
  -30.0321  -21.2493   18.4497 C   0  0  0  0  0  0  0  0  0  0  0  0
  -21.5663  -22.4681   25.0915 C   0  0  0  0  0  0  0  0  0  0  0  0
  -22.6116  -21.6551   24.3431 C   0  0  0  0  0  0  0  0  0  1  0  0
  -21.0791  -23.6476   24.2683 C   0  0  0  0  0  0  0  0  0  0  0  0
  -29.2904  -19.2089   22.4829 C   0  0  1  0  0  0  0  0  0  0  0  0
  -30.4476  -22.3271   20.6643 C   0  0  2  0  0  0  0  0  0  0  0  0
  -30.1348  -18.3620   23.4765 C   0  0  0  0  0  0  0  0  0  0  0  0
  -26.3612  -27.5095   19.0608 N   0  0  0  0  0  0  0  0  0  0  0  0
  -25.6622  -27.4457   20.2068 N   0  0  0  0  0  0  0  0  0  0  0  0
  -27.2485  -18.3934   21.3473 N   0  0  0  0  0  0  0  0  0  0  0  0
  -23.4760  -30.4311   21.1355 N   0  0  0  0  0  0  0  0  0  0  0  0
  -24.7224  -25.9283   21.7641 N   0  0  0  0  0  0  0  0  0  0  0  0
  -26.6177  -23.2215   18.6856 N   0  0  0  0  0  0  0  0  0  0  0  0
  -21.6100  -29.4695   22.2299 N   0  0  0  0  0  0  0  0  0  0  0  0
  -25.5761  -15.2410   20.5975 N   0  0  0  0  0  0  0  0  0  0  0  0
  -30.0462  -20.2468   21.7902 N   0  0  0  0  0  0  0  0  0  0  0  0
  -30.0844  -22.5119   19.2308 N   0  3  0  0  0  0  0  0  0  0  0  0
  -20.0987  -30.3451   23.7729 O   0  0  0  0  0  0  0  0  0  0  0  0
  -25.4092  -23.2660   20.6340 O   0  0  0  0  0  0  0  0  0  0  0  0
  -26.4222  -16.2703   22.5073 O   0  0  0  0  0  0  0  0  0  0  0  0
  -29.3645  -17.7101   20.6459 O   0  0  0  0  0  0  0  0  0  0  0  0
  -28.2622  -21.6950   21.4780 O   0  0  0  0  0  0  0  0  0  0  0  0
  -22.1691  -31.6773   22.5921 O   0  0  0  0  0  0  0  0  0  0  0  0
  -20.5327  -25.2199   26.2941 O   0  0  0  0  0  0  0  0  0  0  0  0
  -18.7071  -23.7683   25.3421 O   0  0  0  0  0  0  0  0  0  0  0  0
  -29.3879  -24.8443   14.1328 O   0  0  0  0  0  0  0  0  0  0  0  0
  -22.0299  -21.1498   23.1420 O   0  0  0  0  0  0  0  0  0  1  0  0
  -28.1652  -27.5415    9.4816 F   0  0  0  0  0  0  0  0  0  0  0  0
  -28.4702  -23.4874   11.9058 F   0  0  0  0  0  0  0  0  0  0  0  0
  -19.8842  -24.5987   25.1520 S   0  0  0  0  0  0  0  0  0  0  0  0
  1  2  1  0  0  0  0
  1  7  2  0  0  0  0
  2  8  2  0  0  0  0
  3  6  1  0  0  0  0
  3 15  2  0  0  0  0
  4 10  2  0  0  0  0
  4 18  1  0  0  0  0
  5 11  1  0  0  0  0
  5 18  2  0  0  0  0
  6 19  2  0  0  0  0
  7 21  1  0  0  0  0
  8 23  1  0  0  0  0
  9 12  2  0  0  0  0
  9 22  1  0  0  0  0
 10 26  1  0  0  0  0
 11 26  2  0  0  0  0
 12 27  1  0  0  0  0
 13 14  2  0  0  0  0
 13 28  1  0  0  0  0
 14 29  1  0  0  0  0
 15 31  1  0  0  0  0
 16 24  1  0  0  0  0
 16 27  2  0  0  0  0
 17 29  2  0  0  0  0
 17 30  1  0  0  0  0
 18 32  1  0  0  0  0
 19 25  1  0  0  0  0
 19 34  1  0  0  0  0
 20 32  1  0  0  0  0
 20 33  2  0  0  0  0
 20 35  1  0  0  0  0
 21 23  2  0  0  0  0
 21 40  1  0  0  0  0
 22 24  2  0  0  0  0
 22 41  1  0  0  0  0
 23 49  1  0  0  0  0
 24 42  1  0  0  0  0
 25 31  2  0  0  0  0
 25 52  1  0  0  0  0
 26 82  1  0  0  0  0
 27 83  1  0  0  0  0
 28 30  2  0  0  0  0
 28 82  1  0  0  0  0
 29 84  1  0  0  0  0
 30 85  1  0  0  0  0
 31 86  1  0  0  0  0
 32 64  2  0  0  0  0
 33 65  1  0  0  0  0
 33 68  1  0  0  0  0
 34 70  1  0  0  0  0
 34 74  2  0  0  0  0
 35 69  1  0  0  0  0
 35 75  2  0  0  0  0
 36 50  1  0  0  0  0
 36 71  1  0  0  0  0
 36 76  2  0  0  0  0
 37 61  1  0  0  0  0
 37 66  1  0  0  0  0
 37 77  2  0  0  0  0
 38 62  1  0  0  0  0
 38 72  1  0  0  0  0
 38 78  2  0  0  0  0
 39 67  1  0  0  0  0
 39 70  1  0  0  0  0
 39 79  2  0  0  0  0
 40 43  1  0  0  0  0
 41 50  1  0  0  0  0
 42 66  1  0  0  0  0
 43 45  1  0  0  0  0
 44 46  1  0  0  0  0
 44 47  1  0  0  0  0
 45 49  1  0  0  0  0
 46 51  1  0  0  0  0
 47 67  1  0  0  0  0
 48 51  1  0  0  0  0
 48 67  1  0  0  0  0
 49 71  1  0  0  0  0
 50 66  1  0  0  0  0
 51 65  1  0  0  0  0
 53 62  1  0  0  0  0
 54 63  1  0  0  0  0
 55 63  1  0  0  0  0
 56 63  1  0  0  0  0
 57 73  1  0  0  0  0
 58 59  1  0  0  0  0
 58 60  1  0  0  0  0
 59 83  1  0  0  0  0
 60 86  1  0  0  0  0
 61 63  1  0  0  0  0
 61 72  1  0  0  0  0
 62 73  1  0  0  0  0
 64 65  1  0  0  0  0
 80 86  2  0  0  0  0
 81 86  2  0  0  0  0
M  CHG  1  73   1
M  ISO  4  39 100  59 101  70 100  83 101
M  END
> <Batch ID>
0054

> <Smiles>
CNC(C)C(=O)NC(C(=O)N1Cc2cc([101O:1][101CH2:1]CCS(=O)(=O)c3cccc(C(=O)[100NH:0][100C:0](=O)N4CCCC(n5nc(-c6ccc(Oc7ccc(F)cc7F)cc6)c(C(N)=O)c5N)C4)c3C)ccc2CC1C(=O)NC1CCCc2ccccc21)C(C)(C)C

> <Shape>
0.206

> <Color>
0.085

> <Negative vol penalty>
0.000

$$$$

  -OEChem-04042322463D

 85 94  0     1  0  0  0  0  0999 V2000
  -27.8412  -18.8204   17.0844 C   0  0  0  0  0  0  0  0  0  0  0  0
  -26.8748  -19.8189   17.1523 C   0  0  0  0  0  0  0  0  0  0  0  0
  -17.7495  -27.9576   21.9238 C   0  0  0  0  0  0  0  0  0  0  0  0
  -24.7488  -15.8136   19.7182 C   0  0  0  0  0  0  0  0  0  0  0  0
  -25.6083  -17.4584   21.2652 C   0  0  0  0  0  0  0  0  0  0  0  0
  -28.8971  -18.8108   17.9948 C   0  0  0  0  0  0  0  0  0  0  0  0
  -26.9633  -20.8078   18.1313 C   0  0  0  0  0  0  0  0  0  0  0  0
  -25.4843  -27.7316   19.2225 C   0  0  0  0  0  0  0  0  0  0  0  0
  -18.0299  -26.6891   22.4315 C   0  0  0  0  0  0  0  0  0  0  0  0
  -18.7481  -28.9308   21.8879 C   0  0  0  0  0  0  0  0  0  0  0  0
  -26.0519  -15.4771   19.3519 C   0  0  0  0  0  0  0  0  0  0  0  0
  -26.9115  -17.1219   20.8990 C   0  0  0  0  0  0  0  0  0  0  0  0
  -24.8187  -28.5618   20.1233 C   0  0  0  0  0  0  0  0  0  0  0  0
  -29.1609  -13.9330   18.2727 C   0  0  0  0  0  0  0  0  0  0  0  0
  -29.4770  -12.5782   18.1721 C   0  0  0  0  0  0  0  0  0  0  0  0
  -26.7304  -28.4900   21.5928 C   0  0  0  0  0  0  0  0  0  0  0  0
  -20.3075  -27.3671   22.8677 C   0  0  0  0  0  0  0  0  0  0  0  0
  -28.9092  -12.2728   20.5005 C   0  0  0  0  0  0  0  0  0  0  0  0
  -24.5270  -16.8043   20.6749 C   0  0  0  0  0  0  0  0  0  0  0  0
  -22.2103  -16.3044   21.6187 C   0  0  0  0  0  0  0  0  0  0  0  0
  -29.0039  -19.8057   18.9794 C   0  0  0  0  0  0  0  0  0  0  0  0
  -26.7760  -27.2647   19.5056 C   0  0  0  0  0  0  0  0  0  0  0  0
  -28.0210  -20.8108   19.0566 C   0  0  0  0  0  0  0  0  0  0  0  0
  -27.4112  -27.6560   20.6928 C   0  0  0  0  0  0  0  0  0  0  0  0
  -19.3089  -26.3938   22.9035 C   0  0  0  0  0  0  0  0  0  0  0  0
  -20.0271  -28.6356   22.3599 C   0  0  0  0  0  0  0  0  0  0  0  0
  -27.1333  -16.1312   19.9423 C   0  0  0  0  0  0  0  0  0  0  0  0
  -25.4405  -28.9388   21.3100 C   0  0  0  0  0  0  0  0  0  0  0  0
  -28.7191  -14.4578   19.4872 C   0  0  0  0  0  0  0  0  0  0  0  0
  -29.3511  -11.7481   19.2859 C   0  0  0  0  0  0  0  0  0  0  0  0
  -28.5932  -13.6277   20.6011 C   0  0  0  0  0  0  0  0  0  0  0  0
  -23.1811  -17.1528   21.0532 C   0  0  0  0  0  0  0  0  0  0  0  0
  -21.1099  -17.1082   21.7902 C   0  0  0  0  0  0  0  0  0  0  0  0
  -20.7428  -31.0106   22.4301 C   0  0  0  0  0  0  0  0  0  0  0  0
  -22.2957  -14.9141   21.9586 C   0  0  0  0  0  0  0  0  0  0  0  0
  -28.0804  -24.3985   19.9384 C   0  0  0  0  0  0  0  0  0  0  0  0
  -30.8411  -26.0993   20.0290 C   0  0  0  0  0  0  0  0  0  0  0  0
  -32.3846  -29.0893   20.5984 C   0  0  0  0  0  0  0  0  0  0  0  0
  -20.5771  -22.9396   22.5424 C   0  0  0  0  0  0  0  0  0  0  0  0
  -30.1374  -19.7268   19.9712 C   0  0  0  0  0  0  0  0  0  0  0  0
  -27.4908  -26.3915   18.5112 C   0  0  0  0  0  0  0  0  0  0  0  0
  -28.8050  -27.1985   21.0344 C   0  0  0  0  0  0  0  0  0  0  0  0
  -21.8416  -31.9930   22.0668 C   0  0  0  0  0  0  0  0  0  0  0  0
  -30.3634  -21.0246   20.7424 C   0  0  0  0  0  0  0  0  0  0  0  0
  -23.2308  -31.5360   22.4459 C   0  0  0  0  0  0  0  0  0  0  0  0
  -18.9777  -20.9799   19.9542 C   0  0  0  0  0  0  0  0  0  0  0  0
  -29.0375  -21.5807   21.2520 C   0  0  0  0  0  0  0  0  0  0  0  0
  -19.7940  -19.6871   20.0033 C   0  0  0  0  0  0  0  0  0  0  0  0
  -19.8616  -22.2011   20.1896 C   0  0  0  0  0  0  0  0  0  0  0  0
  -21.4616  -20.8684   21.5078 C   0  0  0  0  0  0  0  0  0  0  0  0
  -22.4599  -29.1821   22.3742 C   0  0  0  0  0  0  0  0  0  0  0  0
  -28.0960  -21.9150   20.0887 C   0  0  1  0  0  0  0  0  0  0  0  0
  -28.6039  -25.5583   19.1393 C   0  0  1  0  0  0  0  0  0  0  0  0
  -20.6211  -19.5956   21.2993 C   0  0  2  0  0  0  0  0  0  0  0  0
  -23.4817  -30.1735   21.8373 C   0  0  2  0  0  0  0  0  0  1  0  0
  -34.6539  -30.1601   20.6304 C   0  0  0  0  0  0  0  0  0  0  0  0
  -31.4349  -24.7553   22.7031 C   0  0  0  0  0  0  0  0  0  0  0  0
  -33.1644  -26.5157   23.1247 C   0  0  0  0  0  0  0  0  0  0  0  0
  -33.4086  -24.9697   21.1824 C   0  0  0  0  0  0  0  0  0  0  0  0
  -31.6414  -30.9992   18.4632 C   0  0  0  0  0  0  0  0  0  0  0  0
  -19.6081  -25.0375   23.4463 C   0  0  0  0  0  0  0  0  0  0  0  0
  -31.6434  -26.7783   21.1126 C   0  0  1  0  0  0  0  0  0  0  0  0
  -33.4190  -29.8578   19.7960 C   0  0  2  0  0  0  0  0  0  0  0  0
  -32.3858  -25.7620   22.0254 C   0  0  0  0  0  0  0  0  0  0  0  0
  -22.7364  -18.3999   20.8771 N   0  0  0  0  0  0  0  0  0  0  0  0
  -21.4740  -18.3410   21.3345 N   0  0  0  0  0  0  0  0  0  0  0  0
  -21.0632  -29.6456   22.3218 N   0  0  0  0  0  0  0  0  0  0  0  0
  -29.4600  -26.3409   20.0330 N   0  0  0  0  0  0  0  0  0  0  0  0
  -20.6074  -22.0593   21.4481 N   0  0  0  0  0  0  0  0  0  0  0  0
  -19.8759  -16.8736   22.2848 N   0  0  0  0  0  0  0  0  0  0  0  0
  -22.7303  -14.5663   23.2448 N   0  0  0  0  0  0  0  0  0  0  0  0
  -28.4834  -23.1634   19.4676 N   0  0  0  0  0  0  0  0  0  0  0  0
  -32.5218  -27.7269   20.4365 N   0  0  0  0  0  0  0  0  0  0  0  0
  -19.7485  -24.0463   22.4028 N   0  0  0  0  0  0  0  0  0  0  0  0
  -32.8484  -31.1483   19.3164 N   0  3  0  0  0  0  0  0  0  0  0  0
  -19.6371  -31.4652   22.7364 O   0  0  0  0  0  0  0  0  0  0  0  0
  -22.0113  -14.0069   21.1404 O   0  0  0  0  0  0  0  0  0  0  0  0
  -27.3651  -24.6087   20.9109 O   0  0  0  0  0  0  0  0  0  0  0  0
  -31.4196  -25.3866   19.2048 O   0  0  0  0  0  0  0  0  0  0  0  0
  -31.5418  -29.6422   21.3015 O   0  0  0  0  0  0  0  0  0  0  0  0
  -21.2359  -22.7506   23.5706 O   0  0  0  0  0  0  0  0  0  0  0  0
  -28.4050  -15.8029   19.5853 O   0  0  0  0  0  0  0  0  0  0  0  0
  -24.7928  -29.7485   22.1913 O   0  0  0  0  0  0  0  0  0  1  0  0
  -29.6531  -10.4467   19.1888 F   0  0  0  0  0  0  0  0  0  0  0  0
  -28.1681  -14.1259   21.7703 F   0  0  0  0  0  0  0  0  0  0  0  0
  1  2  1  0  0  0  0
  1  6  2  0  0  0  0
  2  7  2  0  0  0  0
  3  9  1  0  0  0  0
  3 10  2  0  0  0  0
  4 11  2  0  0  0  0
  4 19  1  0  0  0  0
  5 12  1  0  0  0  0
  5 19  2  0  0  0  0
  6 21  1  0  0  0  0
  7 23  1  0  0  0  0
  8 13  2  0  0  0  0
  8 22  1  0  0  0  0
  9 25  2  0  0  0  0
 10 26  1  0  0  0  0
 11 27  1  0  0  0  0
 12 27  2  0  0  0  0
 13 28  1  0  0  0  0
 14 15  2  0  0  0  0
 14 29  1  0  0  0  0
 15 30  1  0  0  0  0
 16 24  1  0  0  0  0
 16 28  2  0  0  0  0
 17 25  1  0  0  0  0
 17 26  2  0  0  0  0
 18 30  2  0  0  0  0
 18 31  1  0  0  0  0
 19 32  1  0  0  0  0
 20 32  1  0  0  0  0
 20 33  2  0  0  0  0
 20 35  1  0  0  0  0
 21 23  2  0  0  0  0
 21 40  1  0  0  0  0
 22 24  2  0  0  0  0
 22 41  1  0  0  0  0
 23 52  1  0  0  0  0
 24 42  1  0  0  0  0
 25 61  1  0  0  0  0
 26 67  1  0  0  0  0
 27 82  1  0  0  0  0
 28 83  1  0  0  0  0
 29 31  2  0  0  0  0
 29 82  1  0  0  0  0
 30 84  1  0  0  0  0
 31 85  1  0  0  0  0
 32 65  2  0  0  0  0
 33 66  1  0  0  0  0
 33 70  1  0  0  0  0
 34 43  1  0  0  0  0
 34 67  1  0  0  0  0
 34 76  2  0  0  0  0
 35 71  1  0  0  0  0
 35 77  2  0  0  0  0
 36 53  1  0  0  0  0
 36 72  1  0  0  0  0
 36 78  2  0  0  0  0
 37 62  1  0  0  0  0
 37 68  1  0  0  0  0
 37 79  2  0  0  0  0
 38 63  1  0  0  0  0
 38 73  1  0  0  0  0
 38 80  2  0  0  0  0
 39 69  1  0  0  0  0
 39 74  1  0  0  0  0
 39 81  2  0  0  0  0
 40 44  1  0  0  0  0
 41 53  1  0  0  0  0
 42 68  1  0  0  0  0
 43 45  1  0  0  0  0
 44 47  1  0  0  0  0
 45 55  1  0  0  0  0
 46 48  1  0  0  0  0
 46 49  1  0  0  0  0
 47 52  1  0  0  0  0
 48 54  1  0  0  0  0
 49 69  1  0  0  0  0
 50 54  1  0  0  0  0
 50 69  1  0  0  0  0
 51 55  1  0  0  0  0
 51 67  1  0  0  0  0
 52 72  1  0  0  0  0
 53 68  1  0  0  0  0
 54 66  1  0  0  0  0
 55 83  1  0  0  0  0
 56 63  1  0  0  0  0
 57 64  1  0  0  0  0
 58 64  1  0  0  0  0
 59 64  1  0  0  0  0
 60 75  1  0  0  0  0
 61 74  1  0  0  0  0
 62 64  1  0  0  0  0
 62 73  1  0  0  0  0
 63 75  1  0  0  0  0
 65 66  1  0  0  0  0
M  CHG  1  75   1
M  ISO  4  39 100  55 101  74 100  83 101
M  END
> <Batch ID>
0054

> <Smiles>
CNC(C)C(=O)NC(C(=O)N1Cc2cc([101O:1][101CH:1]3CCC(=O)N(c4cccc(C[100NH:0][100C:0](=O)N5CCCC(n6nc(-c7ccc(Oc8ccc(F)cc8F)cc7)c(C(N)=O)c6N)C5)c4)C3)ccc2CC1C(=O)NC1CCCc2ccccc21)C(C)(C)C

> <Shape>
0.246

> <Color>
0.072

> <Negative vol penalty>
0.000

$$$$

  -OEChem-04042322463D

 85 93  0     1  0  0  0  0  0999 V2000
  -21.1888  -35.2666   21.6469 C   0  0  0  0  0  0  0  0  0  0  0  0
  -22.3190  -34.5691   21.2327 C   0  0  0  0  0  0  0  0  0  0  0  0
  -24.1876  -12.4844   21.5228 C   0  0  0  0  0  0  0  0  0  0  0  0
  -25.1679  -12.0636   19.3550 C   0  0  0  0  0  0  0  0  0  0  0  0
  -20.3831  -34.7477   22.6596 C   0  0  0  0  0  0  0  0  0  0  0  0
  -22.6448  -33.3529   21.8318 C   0  0  0  0  0  0  0  0  0  0  0  0
  -25.2236  -28.4956   19.1369 C   0  0  0  0  0  0  0  0  0  0  0  0
  -23.2986  -11.4278   21.3259 C   0  0  0  0  0  0  0  0  0  0  0  0
  -24.2789  -11.0070   19.1581 C   0  0  0  0  0  0  0  0  0  0  0  0
  -26.5396  -28.0375   19.0902 C   0  0  0  0  0  0  0  0  0  0  0  0
  -23.3615   -8.0522   21.5103 C   0  0  0  0  0  0  0  0  0  0  0  0
  -23.1677   -7.1626   22.5670 C   0  0  0  0  0  0  0  0  0  0  0  0
  -26.0788  -26.5447   20.9283 C   0  0  0  0  0  0  0  0  0  0  0  0
  -32.2465  -19.6350   20.4544 C   0  0  0  0  0  0  0  0  0  0  0  0
  -32.7318  -21.4671   21.9527 C   0  0  0  0  0  0  0  0  0  0  0  0
  -31.5128  -21.8706   19.9061 C   0  0  0  0  0  0  0  0  0  0  0  0
  -20.8171   -7.7196   22.6048 C   0  0  0  0  0  0  0  0  0  0  0  0
  -25.1223  -12.8024   20.5373 C   0  0  0  0  0  0  0  0  0  0  0  0
  -27.3176  -13.8326   21.3291 C   0  0  0  0  0  0  0  0  0  0  0  0
  -20.6939  -33.5198   23.2647 C   0  0  0  0  0  0  0  0  0  0  0  0
  -24.3268  -27.9886   20.0883 C   0  0  0  0  0  0  0  0  0  0  0  0
  -21.8433  -32.8177   22.8545 C   0  0  0  0  0  0  0  0  0  0  0  0
  -24.7513  -26.9961   20.9833 C   0  0  0  0  0  0  0  0  0  0  0  0
  -32.8146  -20.1112   21.6360 C   0  0  0  0  0  0  0  0  0  0  0  0
  -31.5957  -20.5147   19.5894 C   0  0  0  0  0  0  0  0  0  0  0  0
  -32.0809  -22.3468   21.0877 C   0  0  0  0  0  0  0  0  0  0  0  0
  -23.3442  -10.6891   20.1436 C   0  0  0  0  0  0  0  0  0  0  0  0
  -26.9681  -27.0640   19.9878 C   0  0  0  0  0  0  0  0  0  0  0  0
  -22.2831   -8.7756   21.0008 C   0  0  0  0  0  0  0  0  0  0  0  0
  -21.8955   -6.9963   23.1142 C   0  0  0  0  0  0  0  0  0  0  0  0
  -21.0109   -8.6093   21.5481 C   0  0  0  0  0  0  0  0  0  0  0  0
  -26.0405  -13.8941   20.7399 C   0  0  0  0  0  0  0  0  0  0  0  0
  -27.7784  -15.1257   21.2856 C   0  0  0  0  0  0  0  0  0  0  0  0
  -28.0241  -12.7072   21.8676 C   0  0  0  0  0  0  0  0  0  0  0  0
  -22.6744  -29.2348   22.5008 C   0  0  0  0  0  0  0  0  0  0  0  0
  -21.3831  -26.2624   22.6403 C   0  0  0  0  0  0  0  0  0  0  0  0
  -30.0761  -25.2392   20.6932 C   0  0  0  0  0  0  0  0  0  0  0  0
  -21.6954  -22.9331   21.9584 C   0  0  0  0  0  0  0  0  0  0  0  0
  -28.5180  -19.9396   18.5606 C   0  0  0  0  0  0  0  0  0  0  0  0
  -19.8192  -33.0221   24.3881 C   0  0  0  0  0  0  0  0  0  0  0  0
  -22.9033  -28.4739   20.1082 C   0  0  0  0  0  0  0  0  0  0  0  0
  -23.8221  -26.4049   22.0107 C   0  0  0  0  0  0  0  0  0  0  0  0
  -20.0262  -31.5450   24.7127 C   0  0  0  0  0  0  0  0  0  0  0  0
  -25.3824  -19.4390   20.1714 C   0  0  0  0  0  0  0  0  0  0  0  0
  -21.5142  -31.2212   24.8009 C   0  0  0  0  0  0  0  0  0  0  0  0
  -25.3771  -17.9463   20.5056 C   0  0  0  0  0  0  0  0  0  0  0  0
  -26.0661  -19.7155   18.8342 C   0  0  0  0  0  0  0  0  0  0  0  0
  -27.4213  -17.6675   19.0420 C   0  0  0  0  0  0  0  0  0  0  0  0
  -22.2161  -31.4832   23.4629 C   0  0  1  0  0  0  0  0  0  0  0  0
  -22.2174  -28.2588   21.4538 C   0  0  1  0  0  0  0  0  0  0  0  0
  -26.7920  -17.3447   20.4080 C   0  0  2  0  0  0  0  0  0  0  0  0
  -33.5101  -19.1700   22.5606 C   0  0  0  0  0  0  0  0  0  0  0  0
  -20.4934  -20.7464   22.2251 C   0  0  0  0  0  0  0  0  0  0  0  0
  -22.1498  -26.2039   25.5930 C   0  0  0  0  0  0  0  0  0  0  0  0
  -21.8097  -23.7237   25.5605 C   0  0  0  0  0  0  0  0  0  0  0  0
  -19.8954  -25.2497   25.0815 C   0  0  0  0  0  0  0  0  0  0  0  0
  -29.8211  -23.6155   22.5775 C   0  0  0  0  0  0  0  0  0  0  0  0
  -21.5653  -22.5148   19.0314 C   0  0  0  0  0  0  0  0  0  0  0  0
  -30.9877  -20.0060   18.3260 C   0  0  0  0  0  0  0  0  0  0  0  0
  -31.9919  -23.8062   21.4290 C   0  0  0  0  0  0  0  0  0  0  0  0
  -28.6236  -25.6171   20.8943 C   0  0  0  0  0  0  0  0  0  1  0  0
  -21.7267  -24.9802   23.3593 C   0  0  1  0  0  0  0  0  0  0  0  0
  -20.7401  -21.9420   21.3183 C   0  0  2  0  0  0  0  0  0  0  0  0
  -21.4137  -25.0517   24.8806 C   0  0  0  0  0  0  0  0  0  0  0  0
  -25.7111  -15.1286   20.3507 N   0  0  0  0  0  0  0  0  0  0  0  0
  -26.7879  -15.8548   20.6962 N   0  0  0  0  0  0  0  0  0  0  0  0
  -22.4418  -26.9166   21.9944 N   0  0  0  0  0  0  0  0  0  0  0  0
  -27.4042  -19.1199   18.8073 N   0  0  0  0  0  0  0  0  0  0  0  0
  -28.9303  -15.6989   21.6944 N   0  0  0  0  0  0  0  0  0  0  0  0
  -27.4048  -11.4504   21.8324 N   0  0  0  0  0  0  0  0  0  0  0  0
  -21.9461  -30.4088   22.5317 N   0  0  0  0  0  0  0  0  0  0  0  0
  -21.0222  -23.9152   22.6538 N   0  0  0  0  0  0  0  0  0  0  0  0
  -29.7496  -19.2963   18.5587 N   0  0  0  0  0  0  0  0  0  0  0  0
  -30.6074  -24.2599   21.5329 N   0  0  0  0  0  0  0  0  0  0  0  0
  -21.2963  -21.4461   20.0276 N   0  3  0  0  0  0  0  0  0  0  0  0
  -29.1638  -12.8158   22.3802 O   0  0  0  0  0  0  0  0  0  0  0  0
  -23.6169  -28.9438   23.2279 O   0  0  0  0  0  0  0  0  0  0  0  0
  -20.2171  -26.6648   22.6453 O   0  0  0  0  0  0  0  0  0  0  0  0
  -30.7173  -25.8021   19.8005 O   0  0  0  0  0  0  0  0  0  0  0  0
  -22.9168  -22.8427   21.8552 O   0  0  0  0  0  0  0  0  0  0  0  0
  -28.4223  -21.1555   18.3625 O   0  0  0  0  0  0  0  0  0  0  0  0
  -22.4770   -9.6578   19.9512 O   0  0  0  0  0  0  0  0  0  0  0  0
  -28.2523  -26.6156   19.9449 O   0  0  0  0  0  0  0  0  0  1  0  0
  -21.7092   -6.1408   24.1280 F   0  0  0  0  0  0  0  0  0  0  0  0
  -19.9708   -9.3006   21.0621 F   0  0  0  0  0  0  0  0  0  0  0  0
  1  2  1  0  0  0  0
  1  5  2  0  0  0  0
  2  6  2  0  0  0  0
  3  8  2  0  0  0  0
  3 18  1  0  0  0  0
  4  9  1  0  0  0  0
  4 18  2  0  0  0  0
  5 20  1  0  0  0  0
  6 22  1  0  0  0  0
  7 10  2  0  0  0  0
  7 21  1  0  0  0  0
  8 27  1  0  0  0  0
  9 27  2  0  0  0  0
 10 28  1  0  0  0  0
 11 12  2  0  0  0  0
 11 29  1  0  0  0  0
 12 30  1  0  0  0  0
 13 23  1  0  0  0  0
 13 28  2  0  0  0  0
 14 24  1  0  0  0  0
 14 25  2  0  0  0  0
 15 24  2  0  0  0  0
 15 26  1  0  0  0  0
 16 25  1  0  0  0  0
 16 26  2  0  0  0  0
 17 30  2  0  0  0  0
 17 31  1  0  0  0  0
 18 32  1  0  0  0  0
 19 32  1  0  0  0  0
 19 33  2  0  0  0  0
 19 34  1  0  0  0  0
 20 22  2  0  0  0  0
 20 40  1  0  0  0  0
 21 23  2  0  0  0  0
 21 41  1  0  0  0  0
 22 49  1  0  0  0  0
 23 42  1  0  0  0  0
 24 52  1  0  0  0  0
 25 59  1  0  0  0  0
 26 60  1  0  0  0  0
 27 82  1  0  0  0  0
 28 83  1  0  0  0  0
 29 31  2  0  0  0  0
 29 82  1  0  0  0  0
 30 84  1  0  0  0  0
 31 85  1  0  0  0  0
 32 65  2  0  0  0  0
 33 66  1  0  0  0  0
 33 69  1  0  0  0  0
 34 70  1  0  0  0  0
 34 76  2  0  0  0  0
 35 50  1  0  0  0  0
 35 71  1  0  0  0  0
 35 77  2  0  0  0  0
 36 62  1  0  0  0  0
 36 67  1  0  0  0  0
 36 78  2  0  0  0  0
 37 61  1  0  0  0  0
 37 74  1  0  0  0  0
 37 79  2  0  0  0  0
 38 63  1  0  0  0  0
 38 72  1  0  0  0  0
 38 80  2  0  0  0  0
 39 68  1  0  0  0  0
 39 73  1  0  0  0  0
 39 81  2  0  0  0  0
 40 43  1  0  0  0  0
 41 50  1  0  0  0  0
 42 67  1  0  0  0  0
 43 45  1  0  0  0  0
 44 46  1  0  0  0  0
 44 47  1  0  0  0  0
 45 49  1  0  0  0  0
 46 51  1  0  0  0  0
 47 68  1  0  0  0  0
 48 51  1  0  0  0  0
 48 68  1  0  0  0  0
 49 71  1  0  0  0  0
 50 67  1  0  0  0  0
 51 66  1  0  0  0  0
 53 63  1  0  0  0  0
 54 64  1  0  0  0  0
 55 64  1  0  0  0  0
 56 64  1  0  0  0  0
 57 74  1  0  0  0  0
 58 75  1  0  0  0  0
 59 73  1  0  0  0  0
 60 74  1  0  0  0  0
 61 83  1  0  0  0  0
 62 64  1  0  0  0  0
 62 72  1  0  0  0  0
 63 75  1  0  0  0  0
 65 66  1  0  0  0  0
M  CHG  1  75   1
M  ISO  4  39 100  61 101  73 100  83 101
M  END
> <Batch ID>
0054

> <Smiles>
CNC(C)C(=O)NC(C(=O)N1Cc2cc([101O:1][101CH2:1]C(=O)N(C)Cc3cc(C)cc(C[100NH:0][100C:0](=O)N4CCCC(n5nc(-c6ccc(Oc7ccc(F)cc7F)cc6)c(C(N)=O)c5N)C4)c3)ccc2CC1C(=O)NC1CCCc2ccccc21)C(C)(C)C

> <Shape>
0.213

> <Color>
0.088

> <Negative vol penalty>
0.000

$$$$

  -OEChem-04042322463D

 85 93  0     1  0  0  0  0  0999 V2000
  -19.5392  -15.1475   17.2426 C   0  0  0  0  0  0  0  0  0  0  0  0
  -20.4119  -16.2134   17.4363 C   0  0  0  0  0  0  0  0  0  0  0  0
  -19.1690  -28.6797   22.2383 C   0  0  0  0  0  0  0  0  0  0  0  0
  -20.8667  -27.0154   22.6686 C   0  0  0  0  0  0  0  0  0  0  0  0
  -19.7541  -13.9420   17.9093 C   0  0  0  0  0  0  0  0  0  0  0  0
  -21.4996  -16.0747   18.2978 C   0  0  0  0  0  0  0  0  0  0  0  0
  -27.0376  -18.6137   17.6731 C   0  0  0  0  0  0  0  0  0  0  0  0
  -29.5027  -28.0276   17.0005 C   0  0  0  0  0  0  0  0  0  0  0  0
  -28.5525  -28.9263   17.4852 C   0  0  0  0  0  0  0  0  0  0  0  0
  -18.2011  -27.6771   22.1791 C   0  0  0  0  0  0  0  0  0  0  0  0
  -19.8988  -26.0128   22.6094 C   0  0  0  0  0  0  0  0  0  0  0  0
  -27.6175  -19.7498   18.2359 C   0  0  0  0  0  0  0  0  0  0  0  0
  -18.2083  -24.3198   20.2204 C   0  0  0  0  0  0  0  0  0  0  0  0
  -18.5090  -23.1712   19.4884 C   0  0  0  0  0  0  0  0  0  0  0  0
  -28.6384  -18.3785   19.9377 C   0  0  0  0  0  0  0  0  0  0  0  0
  -18.2346  -21.8305   21.4795 C   0  0  0  0  0  0  0  0  0  0  0  0
  -20.5019  -28.3488   22.4830 C   0  0  0  0  0  0  0  0  0  0  0  0
  -21.9162  -30.1005   23.6827 C   0  0  0  0  0  0  0  0  0  0  0  0
  -20.8505  -13.7853   18.7719 C   0  0  0  0  0  0  0  0  0  0  0  0
  -27.2453  -17.3506   18.2458 C   0  0  0  0  0  0  0  0  0  0  0  0
  -21.7287  -14.8664   18.9777 C   0  0  0  0  0  0  0  0  0  0  0  0
  -28.0622  -17.2275   19.3788 C   0  0  0  0  0  0  0  0  0  0  0  0
  -29.8968  -26.9407   17.7809 C   0  0  0  0  0  0  0  0  0  0  0  0
  -29.3407  -26.7526   19.0462 C   0  0  0  0  0  0  0  0  0  0  0  0
  -27.9964  -28.7382   18.7505 C   0  0  0  0  0  0  0  0  0  0  0  0
  -18.5660  -26.3436   22.3647 C   0  0  0  0  0  0  0  0  0  0  0  0
  -28.4157  -19.6327   19.3700 C   0  0  0  0  0  0  0  0  0  0  0  0
  -17.9208  -24.2238   21.5820 C   0  0  0  0  0  0  0  0  0  0  0  0
  -18.5221  -21.9265   20.1179 C   0  0  0  0  0  0  0  0  0  0  0  0
  -17.9339  -22.9792   22.2115 C   0  0  0  0  0  0  0  0  0  0  0  0
  -28.3904  -27.6514   19.5310 C   0  0  0  0  0  0  0  0  0  0  0  0
  -21.5022  -29.3840   22.5437 C   0  0  0  0  0  0  0  0  0  0  0  0
  -22.8794  -30.9611   23.2157 C   0  0  0  0  0  0  0  0  0  0  0  0
  -21.4699  -29.9972   25.0413 C   0  0  0  0  0  0  0  0  0  0  0  0
  -25.3677  -15.1450   19.5549 C   0  0  0  0  0  0  0  0  0  0  0  0
  -28.1082  -13.4107   19.6209 C   0  0  0  0  0  0  0  0  0  0  0  0
  -29.4411  -23.1146   19.9960 C   0  0  0  0  0  0  0  0  0  0  0  0
  -31.5207  -13.3854   19.6526 C   0  0  0  0  0  0  0  0  0  0  0  0
  -26.5667  -30.7992   18.5165 C   0  0  0  0  0  0  0  0  0  0  0  0
  -21.0150  -12.4787   19.5069 C   0  0  0  0  0  0  0  0  0  0  0  0
  -26.6344  -16.1314   17.6111 C   0  0  0  0  0  0  0  0  0  0  0  0
  -28.3328  -15.8918   20.0200 C   0  0  0  0  0  0  0  0  0  0  0  0
  -22.4032  -12.2917   20.1137 C   0  0  0  0  0  0  0  0  0  0  0  0
  -24.1830  -33.3355   19.2664 C   0  0  0  0  0  0  0  0  0  0  0  0
  -22.8401  -13.5560   20.8467 C   0  0  0  0  0  0  0  0  0  0  0  0
  -23.2663  -32.6773   20.3001 C   0  0  0  0  0  0  0  0  0  0  0  0
  -24.6436  -32.3411   18.2020 C   0  0  0  0  0  0  0  0  0  0  0  0
  -24.3402  -30.4548   19.7573 C   0  0  0  0  0  0  0  0  0  0  0  0
  -22.9339  -14.7468   19.8850 C   0  0  1  0  0  0  0  0  0  0  0  0
  -26.4950  -14.9603   18.5788 C   0  0  1  0  0  0  0  0  0  0  0  0
  -23.9027  -31.4019   20.8867 C   0  0  2  0  0  0  0  0  0  0  0  0
  -30.9169  -25.9954   17.2350 C   0  0  0  0  0  0  0  0  0  0  0  0
  -33.4782  -11.8180   19.7469 C   0  0  0  0  0  0  0  0  0  0  0  0
  -27.6144  -12.9772   22.6005 C   0  0  0  0  0  0  0  0  0  0  0  0
  -30.0022  -12.2570   22.8203 C   0  0  0  0  0  0  0  0  0  0  0  0
  -28.4377  -10.9586   21.3750 C   0  0  0  0  0  0  0  0  0  0  0  0
  -32.5329  -14.3067   17.0285 C   0  0  0  0  0  0  0  0  0  0  0  0
  -26.2634  -26.3830   20.7058 C   0  0  0  0  0  0  0  0  0  0  0  0
  -29.7881  -25.5737   19.8611 C   0  0  0  0  0  0  0  0  0  0  0  0
  -28.7170  -21.9903   19.2868 C   0  0  0  0  0  0  0  0  0  1  0  0
  -29.2363  -13.2314   20.6079 C   0  0  1  0  0  0  0  0  0  0  0  0
  -32.5296  -12.5906   18.8435 C   0  0  2  0  0  0  0  0  0  0  0  0
  -28.8162  -12.3816   21.8402 C   0  0  0  0  0  0  0  0  0  0  0  0
  -22.1494  -29.7572   21.4365 N   0  0  0  0  0  0  0  0  0  0  0  0
  -22.9797  -30.7175   21.8775 N   0  0  0  0  0  0  0  0  0  0  0  0
  -27.7080  -14.7301   19.3661 N   0  0  0  0  0  0  0  0  0  0  0  0
  -25.2396  -31.1606   18.8312 N   0  0  0  0  0  0  0  0  0  0  0  0
  -23.6418  -31.8948   23.8233 N   0  0  0  0  0  0  0  0  0  0  0  0
  -20.4732  -29.0608   25.3479 N   0  0  0  0  0  0  0  0  0  0  0  0
  -27.0367  -29.6786   19.2006 N   0  0  0  0  0  0  0  0  0  0  0  0
  -24.1502  -14.6714   19.1044 N   0  0  0  0  0  0  0  0  0  0  0  0
  -29.2126  -24.3373   19.3845 N   0  0  0  0  0  0  0  0  0  0  0  0
  -30.3548  -12.6769   19.8530 N   0  0  0  0  0  0  0  0  0  0  0  0
  -33.3370  -13.5015   17.9836 N   0  3  0  0  0  0  0  0  0  0  0  0
  -21.9295  -30.7255   25.9534 O   0  0  0  0  0  0  0  0  0  0  0  0
  -25.5865  -15.6764   20.6372 O   0  0  0  0  0  0  0  0  0  0  0  0
  -27.6054  -12.4172   19.0901 O   0  0  0  0  0  0  0  0  0  0  0  0
  -30.1397  -22.9326   20.9894 O   0  0  0  0  0  0  0  0  0  0  0  0
  -31.7457  -14.5197   20.0687 O   0  0  0  0  0  0  0  0  0  0  0  0
  -27.2460  -31.4528   17.7207 O   0  0  0  0  0  0  0  0  0  0  0  0
  -17.6217  -25.3650   22.3072 O   0  0  0  0  0  0  0  0  0  0  0  0
  -28.9823  -20.7401   19.9217 O   0  0  0  0  0  0  0  0  0  1  0  0
  -18.8094  -20.8234   19.4145 F   0  0  0  0  0  0  0  0  0  0  0  0
  -17.6574  -22.8805   23.5190 F   0  0  0  0  0  0  0  0  0  0  0  0
  -27.6751  -27.4079   21.1632 S   0  0  0  0  0  0  0  0  0  0  0  0
  1  2  1  0  0  0  0
  1  5  2  0  0  0  0
  2  6  2  0  0  0  0
  3 10  2  0  0  0  0
  3 17  1  0  0  0  0
  4 11  1  0  0  0  0
  4 17  2  0  0  0  0
  5 19  1  0  0  0  0
  6 21  1  0  0  0  0
  7 12  2  0  0  0  0
  7 20  1  0  0  0  0
  8  9  1  0  0  0  0
  8 23  2  0  0  0  0
  9 25  2  0  0  0  0
 10 26  1  0  0  0  0
 11 26  2  0  0  0  0
 12 27  1  0  0  0  0
 13 14  2  0  0  0  0
 13 28  1  0  0  0  0
 14 29  1  0  0  0  0
 15 22  1  0  0  0  0
 15 27  2  0  0  0  0
 16 29  2  0  0  0  0
 16 30  1  0  0  0  0
 17 32  1  0  0  0  0
 18 32  1  0  0  0  0
 18 33  2  0  0  0  0
 18 34  1  0  0  0  0
 19 21  2  0  0  0  0
 19 40  1  0  0  0  0
 20 22  2  0  0  0  0
 20 41  1  0  0  0  0
 21 49  1  0  0  0  0
 22 42  1  0  0  0  0
 23 24  1  0  0  0  0
 23 52  1  0  0  0  0
 24 31  2  0  0  0  0
 24 59  1  0  0  0  0
 25 31  1  0  0  0  0
 25 70  1  0  0  0  0
 26 81  1  0  0  0  0
 27 82  1  0  0  0  0
 28 30  2  0  0  0  0
 28 81  1  0  0  0  0
 29 83  1  0  0  0  0
 30 84  1  0  0  0  0
 31 85  1  0  0  0  0
 32 64  2  0  0  0  0
 33 65  1  0  0  0  0
 33 68  1  0  0  0  0
 34 69  1  0  0  0  0
 34 75  2  0  0  0  0
 35 50  1  0  0  0  0
 35 71  1  0  0  0  0
 35 76  2  0  0  0  0
 36 61  1  0  0  0  0
 36 66  1  0  0  0  0
 36 77  2  0  0  0  0
 37 60  1  0  0  0  0
 37 72  1  0  0  0  0
 37 78  2  0  0  0  0
 38 62  1  0  0  0  0
 38 73  1  0  0  0  0
 38 79  2  0  0  0  0
 39 67  1  0  0  0  0
 39 70  1  0  0  0  0
 39 80  2  0  0  0  0
 40 43  1  0  0  0  0
 41 50  1  0  0  0  0
 42 66  1  0  0  0  0
 43 45  1  0  0  0  0
 44 46  1  0  0  0  0
 44 47  1  0  0  0  0
 45 49  1  0  0  0  0
 46 51  1  0  0  0  0
 47 67  1  0  0  0  0
 48 51  1  0  0  0  0
 48 67  1  0  0  0  0
 49 71  1  0  0  0  0
 50 66  1  0  0  0  0
 51 65  1  0  0  0  0
 53 62  1  0  0  0  0
 54 63  1  0  0  0  0
 55 63  1  0  0  0  0
 56 63  1  0  0  0  0
 57 74  1  0  0  0  0
 58 85  1  0  0  0  0
 59 72  1  0  0  0  0
 60 82  1  0  0  0  0
 61 63  1  0  0  0  0
 61 73  1  0  0  0  0
 62 74  1  0  0  0  0
 64 65  1  0  0  0  0
M  CHG  1  74   1
M  ISO  4  39 100  60 101  70 100  82 101
M  END
> <Batch ID>
0054

> <Smiles>
CNC(C)C(=O)NC(C(=O)N1Cc2cc([101O:1][101CH2:1]C(=O)NCc3c(C)ccc([100NH:0][100C:0](=O)N4CCCC(n5nc(-c6ccc(Oc7ccc(F)cc7F)cc6)c(C(N)=O)c5N)C4)c3SC)ccc2CC1C(=O)NC1CCCc2ccccc21)C(C)(C)C

> <Shape>
0.253

> <Color>
0.082

> <Negative vol penalty>
0.000

$$$$

  -OEChem-04042322463D

 85 93  0     1  0  0  0  0  0999 V2000
  -29.4225  -32.2635   22.0559 C   0  0  0  0  0  0  0  0  0  0  0  0
  -28.8911  -31.0705   21.5765 C   0  0  0  0  0  0  0  0  0  0  0  0
  -23.8175   -9.6927   22.3184 C   0  0  0  0  0  0  0  0  0  0  0  0
  -23.1666   -9.8423   19.9965 C   0  0  0  0  0  0  0  0  0  0  0  0
  -28.7634  -32.9628   23.0660 C   0  0  0  0  0  0  0  0  0  0  0  0
  -27.7007  -30.5756   22.1079 C   0  0  0  0  0  0  0  0  0  0  0  0
  -23.3266  -27.5089   19.1130 C   0  0  0  0  0  0  0  0  0  0  0  0
  -22.9625   -8.6038   22.4879 C   0  0  0  0  0  0  0  0  0  0  0  0
  -22.3116   -8.7533   20.1660 C   0  0  0  0  0  0  0  0  0  0  0  0
  -23.0399  -26.1487   19.0065 C   0  0  0  0  0  0  0  0  0  0  0  0
  -22.9800   -5.2926   21.8035 C   0  0  0  0  0  0  0  0  0  0  0  0
  -23.4673   -4.1885   22.5029 C   0  0  0  0  0  0  0  0  0  0  0  0
  -21.4231  -26.3565   20.7847 C   0  0  0  0  0  0  0  0  0  0  0  0
  -21.7214  -18.9069   17.6449 C   0  0  0  0  0  0  0  0  0  0  0  0
  -22.3151  -17.0173   16.2616 C   0  0  0  0  0  0  0  0  0  0  0  0
  -21.7108   -4.4510   24.1409 C   0  0  0  0  0  0  0  0  0  0  0  0
  -23.9196  -10.3120   21.0726 C   0  0  0  0  0  0  0  0  0  0  0  0
  -26.1567  -11.4036   20.5149 C   0  0  0  0  0  0  0  0  0  0  0  0
  -27.5592  -32.4812   23.6033 C   0  0  0  0  0  0  0  0  0  0  0  0
  -22.6705  -28.3022   20.0652 C   0  0  0  0  0  0  0  0  0  0  0  0
  -27.0255  -31.2684   23.1271 C   0  0  0  0  0  0  0  0  0  0  0  0
  -21.7014  -27.7270   20.8996 C   0  0  0  0  0  0  0  0  0  0  0  0
  -20.8760  -19.3771   16.6400 C   0  0  0  0  0  0  0  0  0  0  0  0
  -20.7501  -18.6673   15.4458 C   0  0  0  0  0  0  0  0  0  0  0  0
  -22.4409  -17.7270   17.4557 C   0  0  0  0  0  0  0  0  0  0  0  0
  -22.2095   -8.1341   21.4118 C   0  0  0  0  0  0  0  0  0  0  0  0
  -22.0901  -25.5717   19.8444 C   0  0  0  0  0  0  0  0  0  0  0  0
  -21.8582   -5.9760   22.2728 C   0  0  0  0  0  0  0  0  0  0  0  0
  -22.8327   -3.7677   23.6716 C   0  0  0  0  0  0  0  0  0  0  0  0
  -21.4697  -17.4874   15.2566 C   0  0  0  0  0  0  0  0  0  0  0  0
  -21.2236   -5.5552   23.4415 C   0  0  0  0  0  0  0  0  0  0  0  0
  -24.8022  -11.4372   20.8970 C   0  0  0  0  0  0  0  0  0  0  0  0
  -26.5397  -12.7224   20.4916 C   0  0  0  0  0  0  0  0  0  0  0  0
  -26.9939  -10.2807   20.2084 C   0  0  0  0  0  0  0  0  0  0  0  0
  -23.5940  -30.0118   22.5808 C   0  0  0  0  0  0  0  0  0  0  0  0
  -20.4796  -30.9184   22.6174 C   0  0  0  0  0  0  0  0  0  0  0  0
  -20.9819  -22.4952   18.3152 C   0  0  0  0  0  0  0  0  0  0  0  0
  -17.2485  -30.2191   21.7704 C   0  0  0  0  0  0  0  0  0  0  0  0
  -23.5389  -17.8317   19.7207 C   0  0  0  0  0  0  0  0  0  0  0  0
  -26.9076  -33.2477   24.7269 C   0  0  0  0  0  0  0  0  0  0  0  0
  -22.9718  -29.7735   20.1493 C   0  0  0  0  0  0  0  0  0  0  0  0
  -20.9544  -28.5393   21.9245 C   0  0  0  0  0  0  0  0  0  0  0  0
  -25.4555  -32.8478   24.9753 C   0  0  0  0  0  0  0  0  0  0  0  0
  -25.5506  -16.9456   22.5215 C   0  0  0  0  0  0  0  0  0  0  0  0
  -25.3178  -31.3289   25.0048 C   0  0  0  0  0  0  0  0  0  0  0  0
  -25.7153  -15.4302   22.3846 C   0  0  0  0  0  0  0  0  0  0  0  0
  -24.1598  -17.4062   22.0889 C   0  0  0  0  0  0  0  0  0  0  0  0
  -23.9125  -15.4488   20.6136 C   0  0  0  0  0  0  0  0  0  0  0  0
  -25.7233  -30.7119   23.6608 C   0  0  1  0  0  0  0  0  0  0  0  0
  -22.6144  -30.3802   21.5026 C   0  0  1  0  0  0  0  0  0  0  0  0
  -25.3191  -14.9452   20.9763 C   0  0  2  0  0  0  0  0  0  0  0  0
  -19.8494  -19.1531   14.3579 C   0  0  0  0  0  0  0  0  0  0  0  0
  -14.9187  -31.1304   21.9686 C   0  0  0  0  0  0  0  0  0  0  0  0
  -20.3905  -30.0482   25.5405 C   0  0  0  0  0  0  0  0  0  0  0  0
  -17.8909  -30.0787   25.4010 C   0  0  0  0  0  0  0  0  0  0  0  0
  -19.1837  -32.1831   25.0503 C   0  0  0  0  0  0  0  0  0  0  0  0
  -21.9000  -22.1163   16.0205 C   0  0  0  0  0  0  0  0  0  0  0  0
  -16.9439  -30.3979   18.8320 C   0  0  0  0  0  0  0  0  0  0  0  0
  -20.1112  -20.6490   16.8665 C   0  0  0  0  0  0  0  0  0  0  0  0
  -21.9567  -23.6453   18.4562 C   0  0  0  0  0  0  0  0  0  1  0  0
  -19.2209  -30.3935   23.2648 C   0  0  1  0  0  0  0  0  0  0  0  0
  -16.1739  -31.0656   21.1123 C   0  0  2  0  0  0  0  0  0  0  0  0
  -19.1868  -30.6599   24.7963 C   0  0  0  0  0  0  0  0  0  0  0  0
  -24.3549  -12.6790   21.1018 N   0  0  0  0  0  0  0  0  0  0  0  0
  -25.4345  -13.4379   20.8476 N   0  0  0  0  0  0  0  0  0  0  0  0
  -21.2889  -29.9722   21.9725 N   0  0  0  0  0  0  0  0  0  0  0  0
  -23.8550  -16.9132   20.7439 N   0  0  0  0  0  0  0  0  0  0  0  0
  -27.7108  -13.3282   20.2016 N   0  0  0  0  0  0  0  0  0  0  0  0
  -26.4405   -8.9951   20.2814 N   0  0  0  0  0  0  0  0  0  0  0  0
  -23.2996  -17.2491   18.4765 N   0  0  0  0  0  0  0  0  0  0  0  0
  -24.6647  -30.8786   22.6882 N   0  0  0  0  0  0  0  0  0  0  0  0
  -18.1073  -30.9844   22.5306 N   0  0  0  0  0  0  0  0  0  0  0  0
  -20.9977  -21.7828   17.1157 N   0  0  0  0  0  0  0  0  0  0  0  0
  -15.8079  -30.4974   19.7841 N   0  3  0  0  0  0  0  0  0  0  0  0
  -28.2014  -10.4124   19.8953 O   0  0  0  0  0  0  0  0  0  0  0  0
  -23.3924  -29.0157   23.2656 O   0  0  0  0  0  0  0  0  0  0  0  0
  -20.7318  -32.1245   22.6753 O   0  0  0  0  0  0  0  0  0  0  0  0
  -20.2296  -22.2362   19.2596 O   0  0  0  0  0  0  0  0  0  0  0  0
  -17.3168  -29.0003   21.6276 O   0  0  0  0  0  0  0  0  0  0  0  0
  -23.5111  -19.0479   19.9261 O   0  0  0  0  0  0  0  0  0  0  0  0
  -21.3752   -7.0714   21.5768 O   0  0  0  0  0  0  0  0  0  0  0  0
  -21.8088  -24.2441   19.7430 O   0  0  0  0  0  0  0  0  0  1  0  0
  -23.2998   -2.7065   24.3424 F   0  0  0  0  0  0  0  0  0  0  0  0
  -21.3538  -16.7964   14.1138 F   0  0  0  0  0  0  0  0  0  0  0  0
  -20.1448   -6.2069   23.8966 F   0  0  0  0  0  0  0  0  0  0  0  0
  1  2  1  0  0  0  0
  1  5  2  0  0  0  0
  2  6  2  0  0  0  0
  3  8  2  0  0  0  0
  3 17  1  0  0  0  0
  4  9  1  0  0  0  0
  4 17  2  0  0  0  0
  5 19  1  0  0  0  0
  6 21  1  0  0  0  0
  7 10  2  0  0  0  0
  7 20  1  0  0  0  0
  8 26  1  0  0  0  0
  9 26  2  0  0  0  0
 10 27  1  0  0  0  0
 11 12  2  0  0  0  0
 11 28  1  0  0  0  0
 12 29  1  0  0  0  0
 13 22  1  0  0  0  0
 13 27  2  0  0  0  0
 14 23  1  0  0  0  0
 14 25  2  0  0  0  0
 15 25  1  0  0  0  0
 15 30  2  0  0  0  0
 16 29  2  0  0  0  0
 16 31  1  0  0  0  0
 17 32  1  0  0  0  0
 18 32  1  0  0  0  0
 18 33  2  0  0  0  0
 18 34  1  0  0  0  0
 19 21  2  0  0  0  0
 19 40  1  0  0  0  0
 20 22  2  0  0  0  0
 20 41  1  0  0  0  0
 21 49  1  0  0  0  0
 22 42  1  0  0  0  0
 23 24  2  0  0  0  0
 23 59  1  0  0  0  0
 24 30  1  0  0  0  0
 24 52  1  0  0  0  0
 25 70  1  0  0  0  0
 26 81  1  0  0  0  0
 27 82  1  0  0  0  0
 28 31  2  0  0  0  0
 28 81  1  0  0  0  0
 29 83  1  0  0  0  0
 30 84  1  0  0  0  0
 31 85  1  0  0  0  0
 32 64  2  0  0  0  0
 33 65  1  0  0  0  0
 33 68  1  0  0  0  0
 34 69  1  0  0  0  0
 34 75  2  0  0  0  0
 35 50  1  0  0  0  0
 35 71  1  0  0  0  0
 35 76  2  0  0  0  0
 36 61  1  0  0  0  0
 36 66  1  0  0  0  0
 36 77  2  0  0  0  0
 37 60  1  0  0  0  0
 37 73  1  0  0  0  0
 37 78  2  0  0  0  0
 38 62  1  0  0  0  0
 38 72  1  0  0  0  0
 38 79  2  0  0  0  0
 39 67  1  0  0  0  0
 39 70  1  0  0  0  0
 39 80  2  0  0  0  0
 40 43  1  0  0  0  0
 41 50  1  0  0  0  0
 42 66  1  0  0  0  0
 43 45  1  0  0  0  0
 44 46  1  0  0  0  0
 44 47  1  0  0  0  0
 45 49  1  0  0  0  0
 46 51  1  0  0  0  0
 47 67  1  0  0  0  0
 48 51  1  0  0  0  0
 48 67  1  0  0  0  0
 49 71  1  0  0  0  0
 50 66  1  0  0  0  0
 51 65  1  0  0  0  0
 53 62  1  0  0  0  0
 54 63  1  0  0  0  0
 55 63  1  0  0  0  0
 56 63  1  0  0  0  0
 57 73  1  0  0  0  0
 58 74  1  0  0  0  0
 59 73  1  0  0  0  0
 60 82  1  0  0  0  0
 61 63  1  0  0  0  0
 61 72  1  0  0  0  0
 62 74  1  0  0  0  0
 64 65  1  0  0  0  0
M  CHG  1  74   1
M  ISO  4  39 100  60 101  70 100  82 101
M  END
> <Batch ID>
0054

> <Smiles>
CNC(C)C(=O)NC(C(=O)N1Cc2cc([101O:1][101CH2:1]C(=O)N(C)Cc3cc([100NH:0][100C:0](=O)N4CCCC(n5nc(-c6ccc(Oc7ccc(F)cc7F)cc6)c(C(N)=O)c5N)C4)cc(F)c3C)ccc2CC1C(=O)NC1CCCc2ccccc21)C(C)(C)C

> <Shape>
0.230

> <Color>
0.080

> <Negative vol penalty>
0.000

$$$$

  -OEChem-04042322463D

 83 91  0     1  0  0  0  0  0999 V2000
  -23.8210  -37.7073   18.4559 C   0  0  0  0  0  0  0  0  0  0  0  0
  -24.0127  -36.5049   17.7830 C   0  0  0  0  0  0  0  0  0  0  0  0
  -22.9016  -10.2636   22.0127 C   0  0  0  0  0  0  0  0  0  0  0  0
  -23.8106   -9.5229   19.9002 C   0  0  0  0  0  0  0  0  0  0  0  0
  -24.3672  -37.8890   19.7257 C   0  0  0  0  0  0  0  0  0  0  0  0
  -24.7518  -35.4838   18.3792 C   0  0  0  0  0  0  0  0  0  0  0  0
  -25.1196  -28.3390   18.7437 C   0  0  0  0  0  0  0  0  0  0  0  0
  -29.4162  -19.4559   19.3541 C   0  0  0  0  0  0  0  0  0  0  0  0
  -29.0100  -20.7883   19.2812 C   0  0  0  0  0  0  0  0  0  0  0  0
  -22.2670   -9.0317   22.1715 C   0  0  0  0  0  0  0  0  0  0  0  0
  -23.1759   -8.2910   20.0591 C   0  0  0  0  0  0  0  0  0  0  0  0
  -26.0335  -27.2981   18.5855 C   0  0  0  0  0  0  0  0  0  0  0  0
  -23.1118   -5.8984   23.1212 C   0  0  0  0  0  0  0  0  0  0  0  0
  -23.1950   -5.2826   24.3700 C   0  0  0  0  0  0  0  0  0  0  0  0
  -26.8629  -27.6954   20.8156 C   0  0  0  0  0  0  0  0  0  0  0  0
  -27.6828  -20.2769   17.3283 C   0  0  0  0  0  0  0  0  0  0  0  0
  -20.7867   -5.3348   24.5560 C   0  0  0  0  0  0  0  0  0  0  0  0
  -23.6734  -10.5092   20.8770 C   0  0  0  0  0  0  0  0  0  0  0  0
  -25.6212  -12.1347   21.1442 C   0  0  0  0  0  0  0  0  0  0  0  0
  -25.1052  -36.8661   20.3418 C   0  0  0  0  0  0  0  0  0  0  0  0
  -25.0778  -29.0743   19.9370 C   0  0  0  0  0  0  0  0  0  0  0  0
  -25.3096  -35.6525   19.6579 C   0  0  0  0  0  0  0  0  0  0  0  0
  -25.9458  -28.7435   20.9874 C   0  0  0  0  0  0  0  0  0  0  0  0
  -28.9557  -18.5340   18.4140 C   0  0  0  0  0  0  0  0  0  0  0  0
  -28.0890  -18.9445   17.4011 C   0  0  0  0  0  0  0  0  0  0  0  0
  -28.1433  -21.1988   18.2683 C   0  0  0  0  0  0  0  0  0  0  0  0
  -22.4041   -8.0454   21.1948 C   0  0  0  0  0  0  0  0  0  0  0  0
  -26.9073  -26.9780   19.6204 C   0  0  0  0  0  0  0  0  0  0  0  0
  -21.8661   -6.2325   22.5898 C   0  0  0  0  0  0  0  0  0  0  0  0
  -22.0324   -5.0008   25.0874 C   0  0  0  0  0  0  0  0  0  0  0  0
  -20.7035   -5.9506   23.3072 C   0  0  0  0  0  0  0  0  0  0  0  0
  -24.3288  -11.7818   20.7120 C   0  0  0  0  0  0  0  0  0  0  0  0
  -25.7704  -13.4416   20.7492 C   0  0  0  0  0  0  0  0  0  0  0  0
  -26.5995  -11.3511   21.8404 C   0  0  0  0  0  0  0  0  0  0  0  0
  -25.5536  -32.1198   20.7131 C   0  0  0  0  0  0  0  0  0  0  0  0
  -24.5517  -31.1267   23.6341 C   0  0  0  0  0  0  0  0  0  0  0  0
  -28.0873  -23.5927   19.0431 C   0  0  0  0  0  0  0  0  0  0  0  0
  -24.1567  -28.5541   25.8414 C   0  0  0  0  0  0  0  0  0  0  0  0
  -25.2127  -17.4621   16.9190 C   0  0  0  0  0  0  0  0  0  0  0  0
  -25.7163  -37.1263   21.6959 C   0  0  0  0  0  0  0  0  0  0  0  0
  -24.0679  -30.1768   20.1018 C   0  0  0  0  0  0  0  0  0  0  0  0
  -25.9274  -29.4890   22.2960 C   0  0  0  0  0  0  0  0  0  0  0  0
  -26.1699  -35.8575   22.4134 C   0  0  0  0  0  0  0  0  0  0  0  0
  -22.3851  -16.7475   18.9612 C   0  0  0  0  0  0  0  0  0  0  0  0
  -26.9543  -34.9583   21.4632 C   0  0  0  0  0  0  0  0  0  0  0  0
  -22.7427  -15.4186   19.6291 C   0  0  0  0  0  0  0  0  0  0  0  0
  -22.8999  -16.8139   17.5251 C   0  0  0  0  0  0  0  0  0  0  0  0
  -24.6979  -15.2084   18.0380 C   0  0  0  0  0  0  0  0  0  0  0  0
  -26.0844  -34.5120   20.2818 C   0  0  1  0  0  0  0  0  0  0  0  0
  -24.4620  -31.1933   21.1689 C   0  0  1  0  0  0  0  0  0  0  0  0
  -24.2483  -15.1166   19.5062 C   0  0  2  0  0  0  0  0  0  0  0  0
  -29.4050  -17.1131   18.5119 C   0  0  0  0  0  0  0  0  0  0  0  0
  -23.3451  -28.0579   28.1636 C   0  0  0  0  0  0  0  0  0  0  0  0
  -27.1077  -32.3338   24.7828 C   0  0  0  0  0  0  0  0  0  0  0  0
  -26.7135  -31.0076   26.8694 C   0  0  0  0  0  0  0  0  0  0  0  0
  -25.0568  -32.7314   26.1576 C   0  0  0  0  0  0  0  0  0  0  0  0
  -22.0629  -26.7167   24.8419 C   0  0  0  0  0  0  0  0  0  0  0  0
  -27.5815  -17.9748   16.3849 C   0  0  0  0  0  0  0  0  0  0  0  0
  -27.4210  -24.8861   18.6124 C   0  0  0  0  0  0  0  0  0  1  0  0
  -25.2271  -30.5667   24.8626 C   0  0  1  0  0  0  0  0  0  0  0  0
  -22.9728  -28.1284   26.6908 C   0  0  2  0  0  0  0  0  0  0  0  0
  -26.0282  -31.6469   25.6428 C   0  0  0  0  0  0  0  0  0  0  0  0
  -23.7015  -12.7837   20.0903 N   0  0  0  0  0  0  0  0  0  0  0  0
  -24.6036  -13.7791   20.1289 N   0  0  0  0  0  0  0  0  0  0  0  0
  -24.9262  -30.5627   22.4063 N   0  0  0  0  0  0  0  0  0  0  0  0
  -24.3341  -16.5195   17.4782 N   0  0  0  0  0  0  0  0  0  0  0  0
  -26.7846  -14.3237   20.8755 N   0  0  0  0  0  0  0  0  0  0  0  0
  -26.2831  -10.0260   22.1697 N   0  0  0  0  0  0  0  0  0  0  0  0
  -27.7294  -22.5501   18.1952 N   0  0  0  0  0  0  0  0  0  0  0  0
  -25.1867  -33.4518   20.6873 N   0  0  0  0  0  0  0  0  0  0  0  0
  -24.1797  -29.9186   25.6445 N   0  0  0  0  0  0  0  0  0  0  0  0
  -26.5560  -17.1069   16.9199 N   0  0  0  0  0  0  0  0  0  0  0  0
  -22.4854  -26.7861   26.2645 N   0  3  0  0  0  0  0  0  0  0  0  0
  -27.7148  -11.8174   22.1755 O   0  0  0  0  0  0  0  0  0  0  0  0
  -26.6481  -31.6603   20.4088 O   0  0  0  0  0  0  0  0  0  0  0  0
  -23.7171  -32.0264   23.7599 O   0  0  0  0  0  0  0  0  0  0  0  0
  -28.8298  -23.5462   20.0184 O   0  0  0  0  0  0  0  0  0  0  0  0
  -24.9810  -27.7563   25.4000 O   0  0  0  0  0  0  0  0  0  0  0  0
  -24.8290  -18.5426   16.4584 O   0  0  0  0  0  0  0  0  0  0  0  0
  -21.7852   -6.8431   21.3496 O   0  0  0  0  0  0  0  0  0  0  0  0
  -27.8007  -25.9629   19.4684 O   0  0  0  0  0  0  0  0  0  1  0  0
  -22.1123   -4.4080   26.2859 F   0  0  0  0  0  0  0  0  0  0  0  0
  -19.5039   -6.2681   22.8014 F   0  0  0  0  0  0  0  0  0  0  0  0
  1  2  1  0  0  0  0
  1  5  2  0  0  0  0
  2  6  2  0  0  0  0
  3 10  2  0  0  0  0
  3 18  1  0  0  0  0
  4 11  1  0  0  0  0
  4 18  2  0  0  0  0
  5 20  1  0  0  0  0
  6 22  1  0  0  0  0
  7 12  2  0  0  0  0
  7 21  1  0  0  0  0
  8  9  2  0  0  0  0
  8 24  1  0  0  0  0
  9 26  1  0  0  0  0
 10 27  1  0  0  0  0
 11 27  2  0  0  0  0
 12 28  1  0  0  0  0
 13 14  2  0  0  0  0
 13 29  1  0  0  0  0
 14 30  1  0  0  0  0
 15 23  1  0  0  0  0
 15 28  2  0  0  0  0
 16 25  1  0  0  0  0
 16 26  2  0  0  0  0
 17 30  2  0  0  0  0
 17 31  1  0  0  0  0
 18 32  1  0  0  0  0
 19 32  1  0  0  0  0
 19 33  2  0  0  0  0
 19 34  1  0  0  0  0
 20 22  2  0  0  0  0
 20 40  1  0  0  0  0
 21 23  2  0  0  0  0
 21 41  1  0  0  0  0
 22 49  1  0  0  0  0
 23 42  1  0  0  0  0
 24 25  2  0  0  0  0
 24 52  1  0  0  0  0
 25 58  1  0  0  0  0
 26 69  1  0  0  0  0
 27 80  1  0  0  0  0
 28 81  1  0  0  0  0
 29 31  2  0  0  0  0
 29 80  1  0  0  0  0
 30 82  1  0  0  0  0
 31 83  1  0  0  0  0
 32 63  2  0  0  0  0
 33 64  1  0  0  0  0
 33 67  1  0  0  0  0
 34 68  1  0  0  0  0
 34 74  2  0  0  0  0
 35 50  1  0  0  0  0
 35 70  1  0  0  0  0
 35 75  2  0  0  0  0
 36 60  1  0  0  0  0
 36 65  1  0  0  0  0
 36 76  2  0  0  0  0
 37 59  1  0  0  0  0
 37 69  1  0  0  0  0
 37 77  2  0  0  0  0
 38 61  1  0  0  0  0
 38 71  1  0  0  0  0
 38 78  2  0  0  0  0
 39 66  1  0  0  0  0
 39 72  1  0  0  0  0
 39 79  2  0  0  0  0
 40 43  1  0  0  0  0
 41 50  1  0  0  0  0
 42 65  1  0  0  0  0
 43 45  1  0  0  0  0
 44 46  1  0  0  0  0
 44 47  1  0  0  0  0
 45 49  1  0  0  0  0
 46 51  1  0  0  0  0
 47 66  1  0  0  0  0
 48 51  1  0  0  0  0
 48 66  1  0  0  0  0
 49 70  1  0  0  0  0
 50 65  1  0  0  0  0
 51 64  1  0  0  0  0
 53 61  1  0  0  0  0
 54 62  1  0  0  0  0
 55 62  1  0  0  0  0
 56 62  1  0  0  0  0
 57 73  1  0  0  0  0
 58 72  1  0  0  0  0
 59 81  1  0  0  0  0
 60 62  1  0  0  0  0
 60 71  1  0  0  0  0
 61 73  1  0  0  0  0
 63 64  1  0  0  0  0
M  CHG  1  73   1
M  ISO  4  39 100  59 101  72 100  81 101
M  END
> <Batch ID>
0054

> <Smiles>
CNC(C)C(=O)NC(C(=O)N1Cc2cc([101O:1][101CH2:1]C(=O)Nc3ccc(C)c(C[100NH:0][100C:0](=O)N4CCCC(n5nc(-c6ccc(Oc7ccc(F)cc7F)cc6)c(C(N)=O)c5N)C4)c3)ccc2CC1C(=O)NC1CCCc2ccccc21)C(C)(C)C

> <Shape>
0.258

> <Color>
0.148

> <Negative vol penalty>
0.000

$$$$

  -OEChem-04042322463D

 82 90  0     1  0  0  0  0  0999 V2000
  -28.0834  -11.7951   22.9519 C   0  0  0  0  0  0  0  0  0  0  0  0
  -28.5174  -12.9930   22.3931 C   0  0  0  0  0  0  0  0  0  0  0  0
  -29.4276  -28.4195   17.6595 C   0  0  0  0  0  0  0  0  0  0  0  0
  -20.0575  -27.9297   23.7686 C   0  0  0  0  0  0  0  0  0  0  0  0
  -21.0112  -27.1290   21.6983 C   0  0  0  0  0  0  0  0  0  0  0  0
  -26.8794  -11.2286   22.5352 C   0  0  0  0  0  0  0  0  0  0  0  0
  -27.7481  -13.6245   21.4164 C   0  0  0  0  0  0  0  0  0  0  0  0
  -27.3302  -18.6107   22.1961 C   0  0  0  0  0  0  0  0  0  0  0  0
  -29.4289  -29.2887   18.7503 C   0  0  0  0  0  0  0  0  0  0  0  0
  -29.8803  -27.1089   17.8115 C   0  0  0  0  0  0  0  0  0  0  0  0
  -18.7773  -27.7903   23.2328 C   0  0  0  0  0  0  0  0  0  0  0  0
  -19.7310  -26.9895   21.1624 C   0  0  0  0  0  0  0  0  0  0  0  0
  -28.4200  -19.4043   21.8407 C   0  0  0  0  0  0  0  0  0  0  0  0
  -16.6987  -26.0809   19.3742 C   0  0  0  0  0  0  0  0  0  0  0  0
  -16.4114  -24.9082   18.6757 C   0  0  0  0  0  0  0  0  0  0  0  0
  -27.3047  -20.0059   19.7880 C   0  0  0  0  0  0  0  0  0  0  0  0
  -30.3359  -27.5369   20.1452 C   0  0  0  0  0  0  0  0  0  0  0  0
  -16.8878  -23.6110   20.6575 C   0  0  0  0  0  0  0  0  0  0  0  0
  -21.1745  -27.5991   23.0014 C   0  0  0  0  0  0  0  0  0  0  0  0
  -23.2313  -26.7759   24.2662 C   0  0  0  0  0  0  0  0  0  0  0  0
  -26.0903  -11.8585   21.5599 C   0  0  0  0  0  0  0  0  0  0  0  0
  -26.2222  -18.5000   21.3437 C   0  0  0  0  0  0  0  0  0  0  0  0
  -26.5332  -13.0652   20.9854 C   0  0  0  0  0  0  0  0  0  0  0  0
  -26.2010  -19.2123   20.1362 C   0  0  0  0  0  0  0  0  0  0  0  0
  -29.8831  -28.8475   19.9932 C   0  0  0  0  0  0  0  0  0  0  0  0
  -30.3345  -26.6676   19.0544 C   0  0  0  0  0  0  0  0  0  0  0  0
  -18.6140  -27.3202   21.9297 C   0  0  0  0  0  0  0  0  0  0  0  0
  -28.4086  -20.0998   20.6352 C   0  0  0  0  0  0  0  0  0  0  0  0
  -17.0807  -26.0186   20.7143 C   0  0  0  0  0  0  0  0  0  0  0  0
  -16.5059  -23.6733   19.3173 C   0  0  0  0  0  0  0  0  0  0  0  0
  -17.1752  -24.7837   21.3560 C   0  0  0  0  0  0  0  0  0  0  0  0
  -22.4973  -27.7434   23.5541 C   0  0  0  0  0  0  0  0  0  0  0  0
  -24.4167  -27.3994   24.5702 C   0  0  0  0  0  0  0  0  0  0  0  0
  -30.2295  -23.0520   19.7380 C   0  0  0  0  0  0  0  0  0  0  0  0
  -29.2557  -22.2088   20.0829 C   0  0  0  0  0  0  0  0  0  1  0  0
  -29.8953  -24.4753   19.5420 C   0  0  0  0  0  0  0  0  0  0  0  0
  -22.8735  -25.4336   24.6211 C   0  0  0  0  0  0  0  0  0  0  0  0
  -24.8275  -16.1119   19.7766 C   0  0  0  0  0  0  0  0  0  0  0  0
  -22.6247  -18.3836   19.0629 C   0  0  0  0  0  0  0  0  0  0  0  0
  -21.8960  -21.6967   18.6894 C   0  0  0  0  0  0  0  0  0  0  0  0
  -28.1892  -31.1698   22.3192 C   0  0  0  0  0  0  0  0  0  0  0  0
  -24.8196  -11.1838   21.1075 C   0  0  0  0  0  0  0  0  0  0  0  0
  -25.0432  -17.6610   21.7540 C   0  0  0  0  0  0  0  0  0  0  0  0
  -25.0270  -19.1432   19.1952 C   0  0  0  0  0  0  0  0  0  0  0  0
  -23.8800  -12.1083   20.3375 C   0  0  0  0  0  0  0  0  0  0  0  0
  -25.8989  -32.1058   24.8795 C   0  0  0  0  0  0  0  0  0  0  0  0
  -24.6526  -12.9006   19.2877 C   0  0  0  0  0  0  0  0  0  0  0  0
  -24.8565  -30.9863   24.8649 C   0  0  0  0  0  0  0  0  0  0  0  0
  -26.3968  -32.4317   23.4731 C   0  0  0  0  0  0  0  0  0  0  0  0
  -25.8603  -30.1549   22.6970 C   0  0  0  0  0  0  0  0  0  0  0  0
  -25.7146  -13.7931   19.9413 C   0  0  1  0  0  0  0  0  0  0  0  0
  -24.1877  -17.2142   20.5725 C   0  0  1  0  0  0  0  0  0  0  0  0
  -25.3694  -29.7525   24.0982 C   0  0  2  0  0  0  0  0  0  0  0  0
  -20.0217  -23.2429   18.0621 C   0  0  0  0  0  0  0  0  0  0  0  0
  -23.0159  -17.6616   16.1242 C   0  0  0  0  0  0  0  0  0  0  0  0
  -21.8856  -19.8117   15.5176 C   0  0  0  0  0  0  0  0  0  0  0  0
  -20.6399  -18.0660   16.7918 C   0  0  0  0  0  0  0  0  0  0  0  0
  -21.9432  -23.0161   21.3381 C   0  0  0  0  0  0  0  0  0  0  0  0
  -29.8845  -29.7767   21.1598 C   0  0  0  0  0  0  0  0  0  0  0  0
  -22.4509  -19.3932   17.9541 C   0  0  1  0  0  0  0  0  0  0  0  0
  -20.7409  -22.5380   19.2016 C   0  0  2  0  0  0  0  0  0  0  0  0
  -22.0211  -18.7331   16.6135 C   0  0  0  0  0  0  0  0  0  0  0  0
  -23.1608  -28.8941   23.4142 N   0  0  0  0  0  0  0  0  0  0  0  0
  -30.7910  -25.3473   19.2074 N   0  0  0  0  0  0  0  0  0  0  0  0
  -24.3242  -28.6537   24.0426 N   0  0  0  0  0  0  0  0  0  0  0  0
  -23.9010  -18.3045   19.6380 N   0  0  0  0  0  0  0  0  0  0  0  0
  -26.8707  -31.2194   22.8010 N   0  0  0  0  0  0  0  0  0  0  0  0
  -25.5188  -26.9917   25.2347 N   0  0  0  0  0  0  0  0  0  0  0  0
  -21.6171  -24.9513   24.2297 N   0  0  0  0  0  0  0  0  0  0  0  0
  -25.1015  -14.9739   20.5109 N   0  0  0  0  0  0  0  0  0  0  0  0
  -21.5137  -20.3927   18.4553 N   0  0  0  0  0  0  0  0  0  0  0  0
  -28.5594  -29.9818   21.7008 N   0  0  0  0  0  0  0  0  0  0  0  0
  -21.2353  -23.5707   20.1556 N   0  3  0  0  0  0  0  0  0  0  0  0
  -23.6386  -24.6896   25.2803 O   0  0  0  0  0  0  0  0  0  0  0  0
  -25.0544  -16.2809   18.5843 O   0  0  0  0  0  0  0  0  0  0  0  0
  -21.6617  -17.6958   19.4109 O   0  0  0  0  0  0  0  0  0  0  0  0
  -23.0237  -22.1517   18.5109 O   0  0  0  0  0  0  0  0  0  0  0  0
  -28.9796  -32.1124   22.4364 O   0  0  0  0  0  0  0  0  0  0  0  0
  -17.3648  -27.1838   21.4066 O   0  0  0  0  0  0  0  0  0  0  0  0
  -29.4713  -20.8746   20.2855 O   0  0  0  0  0  0  0  0  0  1  0  0
  -16.2285  -22.5474   18.6469 F   0  0  0  0  0  0  0  0  0  0  0  0
  -17.5405  -24.7177   22.6436 F   0  0  0  0  0  0  0  0  0  0  0  0
  1  2  1  0  0  0  0
  1  6  2  0  0  0  0
  2  7  2  0  0  0  0
  3  9  1  0  0  0  0
  3 10  2  0  0  0  0
  4 11  2  0  0  0  0
  4 19  1  0  0  0  0
  5 12  1  0  0  0  0
  5 19  2  0  0  0  0
  6 21  1  0  0  0  0
  7 23  1  0  0  0  0
  8 13  2  0  0  0  0
  8 22  1  0  0  0  0
  9 25  2  0  0  0  0
 10 26  1  0  0  0  0
 11 27  1  0  0  0  0
 12 27  2  0  0  0  0
 13 28  1  0  0  0  0
 14 15  2  0  0  0  0
 14 29  1  0  0  0  0
 15 30  1  0  0  0  0
 16 24  1  0  0  0  0
 16 28  2  0  0  0  0
 17 25  1  0  0  0  0
 17 26  2  0  0  0  0
 18 30  2  0  0  0  0
 18 31  1  0  0  0  0
 19 32  1  0  0  0  0
 20 32  1  0  0  0  0
 20 33  2  0  0  0  0
 20 37  1  0  0  0  0
 21 23  2  0  0  0  0
 21 42  1  0  0  0  0
 22 24  2  0  0  0  0
 22 43  1  0  0  0  0
 23 51  1  0  0  0  0
 24 44  1  0  0  0  0
 25 59  1  0  0  0  0
 26 64  1  0  0  0  0
 27 79  1  0  0  0  0
 28 80  1  0  0  0  0
 29 31  2  0  0  0  0
 29 79  1  0  0  0  0
 30 81  1  0  0  0  0
 31 82  1  0  0  0  0
 32 63  2  0  0  0  0
 33 65  1  0  0  0  0
 33 68  1  0  0  0  0
 34 35  2  0  0  0  0
 34 36  1  0  0  0  0
 35 80  1  0  0  0  0
 36 64  2  0  0  0  0
 37 69  1  0  0  0  0
 37 74  2  0  0  0  0
 38 52  1  0  0  0  0
 38 70  1  0  0  0  0
 38 75  2  0  0  0  0
 39 60  1  0  0  0  0
 39 66  1  0  0  0  0
 39 76  2  0  0  0  0
 40 61  1  0  0  0  0
 40 71  1  0  0  0  0
 40 77  2  0  0  0  0
 41 67  1  0  0  0  0
 41 72  1  0  0  0  0
 41 78  2  0  0  0  0
 42 45  1  0  0  0  0
 43 52  1  0  0  0  0
 44 66  1  0  0  0  0
 45 47  1  0  0  0  0
 46 48  1  0  0  0  0
 46 49  1  0  0  0  0
 47 51  1  0  0  0  0
 48 53  1  0  0  0  0
 49 67  1  0  0  0  0
 50 53  1  0  0  0  0
 50 67  1  0  0  0  0
 51 70  1  0  0  0  0
 52 66  1  0  0  0  0
 53 65  1  0  0  0  0
 54 61  1  0  0  0  0
 55 62  1  0  0  0  0
 56 62  1  0  0  0  0
 57 62  1  0  0  0  0
 58 73  1  0  0  0  0
 59 72  1  0  0  0  0
 60 62  1  0  0  0  0
 60 71  1  0  0  0  0
 61 73  1  0  0  0  0
 63 65  1  0  0  0  0
M  CHG  1  73   1
M  ISO  4  35 101  41 100  72 100  80 101
M  END
> <Batch ID>
0054

> <Smiles>
CNC(C)C(=O)NC(C(=O)N1Cc2cc([101O:1][101CH:1]=CC=Nc3cccc(C[100NH:0][100C:0](=O)N4CCCC(n5nc(-c6ccc(Oc7ccc(F)cc7F)cc6)c(C(N)=O)c5N)C4)c3)ccc2CC1C(=O)NC1CCCc2ccccc21)C(C)(C)C

> <Shape>
0.207

> <Color>
0.103

> <Negative vol penalty>
0.000

$$$$

  -OEChem-04042322463D

 86 94  0     1  0  0  0  0  0999 V2000
  -22.4154  -11.4587   22.4555 C   0  0  0  0  0  0  0  0  0  0  0  0
  -22.5115  -12.7419   22.9842 C   0  0  0  0  0  0  0  0  0  0  0  0
  -30.8871  -24.6962   19.4467 C   0  0  0  0  0  0  0  0  0  0  0  0
  -31.2193  -25.8102   21.5647 C   0  0  0  0  0  0  0  0  0  0  0  0
  -23.3542  -11.0177   21.5237 C   0  0  0  0  0  0  0  0  0  0  0  0
  -23.5472  -13.5846   22.5822 C   0  0  0  0  0  0  0  0  0  0  0  0
  -21.9512  -18.2868   21.5889 C   0  0  0  0  0  0  0  0  0  0  0  0
  -19.8558  -26.0586   22.6987 C   0  0  0  0  0  0  0  0  0  0  0  0
  -32.2677  -24.5599   19.3018 C   0  0  0  0  0  0  0  0  0  0  0  0
  -32.5999  -25.6739   21.4198 C   0  0  0  0  0  0  0  0  0  0  0  0
  -21.7064  -19.1199   22.6798 C   0  0  0  0  0  0  0  0  0  0  0  0
  -36.1982  -25.2982   21.7792 C   0  0  0  0  0  0  0  0  0  0  0  0
  -36.9281  -24.8685   22.8874 C   0  0  0  0  0  0  0  0  0  0  0  0
  -18.8289  -26.6635   21.9740 C   0  0  0  0  0  0  0  0  0  0  0  0
  -23.8505  -20.1743   22.3478 C   0  0  0  0  0  0  0  0  0  0  0  0
  -19.9131  -28.8077   22.2276 C   0  0  0  0  0  0  0  0  0  0  0  0
  -35.6506  -22.8183   22.9337 C   0  0  0  0  0  0  0  0  0  0  0  0
  -30.3629  -25.3214   20.5781 C   0  0  0  0  0  0  0  0  0  0  0  0
  -28.0527  -24.5567   21.3436 C   0  0  0  0  0  0  0  0  0  0  0  0
  -24.3963  -11.8589   21.1028 C   0  0  0  0  0  0  0  0  0  0  0  0
  -23.1541  -18.3841   20.8749 C   0  0  0  0  0  0  0  0  0  0  0  0
  -24.5016  -13.1541   21.6449 C   0  0  0  0  0  0  0  0  0  0  0  0
  -24.1070  -19.3431   21.2468 C   0  0  0  0  0  0  0  0  0  0  0  0
  -20.9113  -26.8282   23.1879 C   0  0  0  0  0  0  0  0  0  0  0  0
  -20.9400  -28.2027   22.9524 C   0  0  0  0  0  0  0  0  0  0  0  0
  -33.1241  -25.0487   20.2883 C   0  0  0  0  0  0  0  0  0  0  0  0
  -22.6574  -20.0619   23.0612 C   0  0  0  0  0  0  0  0  0  0  0  0
  -35.1945  -24.4880   21.2482 C   0  0  0  0  0  0  0  0  0  0  0  0
  -36.6543  -23.6285   23.4647 C   0  0  0  0  0  0  0  0  0  0  0  0
  -34.9207  -23.2481   21.8255 C   0  0  0  0  0  0  0  0  0  0  0  0
  -18.8576  -28.0381   21.7384 C   0  0  0  0  0  0  0  0  0  0  0  0
  -28.9369  -25.4629   20.7281 C   0  0  0  0  0  0  0  0  0  0  0  0
  -26.8186  -25.1483   21.2270 C   0  0  0  0  0  0  0  0  0  0  0  0
  -28.3228  -23.2933   21.9652 C   0  0  0  0  0  0  0  0  0  0  0  0
  -25.5866  -16.4202   20.3003 C   0  0  0  0  0  0  0  0  0  0  0  0
  -26.5680  -18.8307   18.3642 C   0  0  0  0  0  0  0  0  0  0  0  0
  -21.5441  -23.6985   24.1599 C   0  0  0  0  0  0  0  0  0  0  0  0
  -26.4812  -22.1575   17.6081 C   0  0  0  0  0  0  0  0  0  0  0  0
  -23.5248  -29.6414   21.5552 C   0  0  0  0  0  0  0  0  0  0  0  0
  -25.4147  -11.3213   20.1289 C   0  0  0  0  0  0  0  0  0  0  0  0
  -23.3915  -17.4963   19.6841 C   0  0  0  0  0  0  0  0  0  0  0  0
  -25.4058  -19.5014   20.5007 C   0  0  0  0  0  0  0  0  0  0  0  0
  -26.2645  -12.4077   19.4746 C   0  0  0  0  0  0  0  0  0  0  0  0
  -25.3316  -29.1580   18.5256 C   0  0  0  0  0  0  0  0  0  0  0  0
  -26.7658  -13.3966   20.5222 C   0  0  0  0  0  0  0  0  0  0  0  0
  -26.3611  -28.0839   18.8811 C   0  0  0  0  0  0  0  0  0  0  0  0
  -25.0871  -30.1133   19.6916 C   0  0  0  0  0  0  0  0  0  0  0  0
  -25.7523  -28.3851   21.3178 C   0  0  0  0  0  0  0  0  0  0  0  0
  -25.5964  -14.1064   21.2151 C   0  0  1  0  0  0  0  0  0  0  0  0
  -24.8701  -17.3331   19.3458 C   0  0  1  0  0  0  0  0  0  0  0  0
  -25.9909  -27.3643   20.1920 C   0  0  2  0  0  0  0  0  0  0  0  0
  -27.4153  -23.8356   15.9928 C   0  0  0  0  0  0  0  0  0  0  0  0
  -29.2379  -18.7610   19.8395 C   0  0  0  0  0  0  0  0  0  0  0  0
  -29.7533  -21.0108   18.8696 C   0  0  0  0  0  0  0  0  0  0  0  0
  -29.4222  -19.0509   17.3624 C   0  0  0  0  0  0  0  0  0  0  0  0
  -20.9987  -25.2685   26.0329 C   0  0  0  0  0  0  0  0  0  0  0  0
  -23.7878  -22.8659   16.6067 C   0  0  0  0  0  0  0  0  0  0  0  0
  -22.0048  -26.1553   23.9661 C   0  0  0  0  0  0  0  0  0  0  0  0
  -22.0590  -29.0471   23.4677 C   0  0  0  0  0  0  0  0  0  0  0  0
  -20.9990  -22.5869   25.0506 C   0  0  0  0  0  0  0  0  0  0  0  0
  -21.0613  -21.2118   24.3976 C   0  0  0  0  0  0  0  0  0  1  0  0
  -27.4254  -20.0609   18.5392 C   0  0  1  0  0  0  0  0  0  0  0  0
  -26.2658  -22.8866   16.2941 C   0  0  2  0  0  0  0  0  0  0  0  0
  -28.9362  -19.7169   18.6681 C   0  0  0  0  0  0  0  0  0  0  0  0
  -28.3171  -26.5476   20.2554 N   0  0  0  0  0  0  0  0  0  0  0  0
  -27.0303  -26.3267   20.5738 N   0  0  0  0  0  0  0  0  0  0  0  0
  -25.5941  -18.6059   19.3474 N   0  0  0  0  0  0  0  0  0  0  0  0
  -24.7387  -29.3678   20.9036 N   0  0  0  0  0  0  0  0  0  0  0  0
  -25.5839  -24.7701   21.6204 N   0  0  0  0  0  0  0  0  0  0  0  0
  -29.6467  -22.8343   21.9981 N   0  0  0  0  0  0  0  0  0  0  0  0
  -25.0586  -15.1447   20.3624 N   0  0  0  0  0  0  0  0  0  0  0  0
  -27.1067  -20.9429   17.4217 N   0  0  0  0  0  0  0  0  0  0  0  0
  -23.2690  -28.8855   22.6927 N   0  0  0  0  0  0  0  0  0  0  0  0
  -21.5166  -24.9894   24.6991 N   0  0  0  0  0  0  0  0  0  0  0  0
  -25.0035  -23.6774   16.3413 N   0  3  0  0  0  0  0  0  0  0  0  0
  -27.4148  -22.5845   22.4618 O   0  0  0  0  0  0  0  0  0  0  0  0
  -26.5482  -16.8414   20.9324 O   0  0  0  0  0  0  0  0  0  0  0  0
  -26.7507  -18.1002   17.3871 O   0  0  0  0  0  0  0  0  0  0  0  0
  -21.9785  -23.4435   23.0336 O   0  0  0  0  0  0  0  0  0  0  0  0
  -26.1330  -22.6210   18.6918 O   0  0  0  0  0  0  0  0  0  0  0  0
  -22.7255  -30.4922   21.1500 O   0  0  0  0  0  0  0  0  0  0  0  0
  -34.4713  -24.9157   20.1474 O   0  0  0  0  0  0  0  0  0  0  0  0
  -22.4213  -20.8758   24.1259 O   0  0  0  0  0  0  0  0  0  1  0  0
  -37.3563  -23.2153   24.5280 F   0  0  0  0  0  0  0  0  0  0  0  0
  -33.9585  -22.4649   21.3191 F   0  0  0  0  0  0  0  0  0  0  0  0
  -17.5898  -28.7842   20.8459 Cl  0  0  0  0  0  0  0  0  0  0  0  0
  1  2  1  0  0  0  0
  1  5  2  0  0  0  0
  2  6  2  0  0  0  0
  3  9  2  0  0  0  0
  3 18  1  0  0  0  0
  4 10  1  0  0  0  0
  4 18  2  0  0  0  0
  5 20  1  0  0  0  0
  6 22  1  0  0  0  0
  7 11  2  0  0  0  0
  7 21  1  0  0  0  0
  8 14  2  0  0  0  0
  8 24  1  0  0  0  0
  9 26  1  0  0  0  0
 10 26  2  0  0  0  0
 11 27  1  0  0  0  0
 12 13  2  0  0  0  0
 12 28  1  0  0  0  0
 13 29  1  0  0  0  0
 14 31  1  0  0  0  0
 15 23  1  0  0  0  0
 15 27  2  0  0  0  0
 16 25  1  0  0  0  0
 16 31  2  0  0  0  0
 17 29  2  0  0  0  0
 17 30  1  0  0  0  0
 18 32  1  0  0  0  0
 19 32  1  0  0  0  0
 19 33  2  0  0  0  0
 19 34  1  0  0  0  0
 20 22  2  0  0  0  0
 20 40  1  0  0  0  0
 21 23  2  0  0  0  0
 21 41  1  0  0  0  0
 22 49  1  0  0  0  0
 23 42  1  0  0  0  0
 24 25  2  0  0  0  0
 24 58  1  0  0  0  0
 25 59  1  0  0  0  0
 26 82  1  0  0  0  0
 27 83  1  0  0  0  0
 28 30  2  0  0  0  0
 28 82  1  0  0  0  0
 29 84  1  0  0  0  0
 30 85  1  0  0  0  0
 31 86  1  0  0  0  0
 32 65  2  0  0  0  0
 33 66  1  0  0  0  0
 33 69  1  0  0  0  0
 34 70  1  0  0  0  0
 34 76  2  0  0  0  0
 35 50  1  0  0  0  0
 35 71  1  0  0  0  0
 35 77  2  0  0  0  0
 36 62  1  0  0  0  0
 36 67  1  0  0  0  0
 36 78  2  0  0  0  0
 37 60  1  0  0  0  0
 37 74  1  0  0  0  0
 37 79  2  0  0  0  0
 38 63  1  0  0  0  0
 38 72  1  0  0  0  0
 38 80  2  0  0  0  0
 39 68  1  0  0  0  0
 39 73  1  0  0  0  0
 39 81  2  0  0  0  0
 40 43  1  0  0  0  0
 41 50  1  0  0  0  0
 42 67  1  0  0  0  0
 43 45  1  0  0  0  0
 44 46  1  0  0  0  0
 44 47  1  0  0  0  0
 45 49  1  0  0  0  0
 46 51  1  0  0  0  0
 47 68  1  0  0  0  0
 48 51  1  0  0  0  0
 48 68  1  0  0  0  0
 49 71  1  0  0  0  0
 50 67  1  0  0  0  0
 51 66  1  0  0  0  0
 52 63  1  0  0  0  0
 53 64  1  0  0  0  0
 54 64  1  0  0  0  0
 55 64  1  0  0  0  0
 56 74  1  0  0  0  0
 57 75  1  0  0  0  0
 58 74  1  0  0  0  0
 59 73  1  0  0  0  0
 60 61  1  0  0  0  0
 61 83  1  0  0  0  0
 62 64  1  0  0  0  0
 62 72  1  0  0  0  0
 63 75  1  0  0  0  0
 65 66  1  0  0  0  0
M  CHG  1  75   1
M  ISO  4  39 100  61 101  73 100  83 101
M  END
> <Batch ID>
0054

> <Smiles>
CNC(C)C(=O)NC(C(=O)N1Cc2cc([101O:1][101CH2:1]CC(=O)N(C)Cc3ccc(Cl)cc3C[100NH:0][100C:0](=O)N3CCCC(n4nc(-c5ccc(Oc6ccc(F)cc6F)cc5)c(C(N)=O)c4N)C3)ccc2CC1C(=O)NC1CCCc2ccccc21)C(C)(C)C

> <Shape>
0.194

> <Color>
0.080

> <Negative vol penalty>
0.000

$$$$

  -OEChem-04042322463D

 89 98  0     1  0  0  0  0  0999 V2000
  -20.1004  -24.7174   24.0236 C   0  0  0  0  0  0  0  0  0  0  0  0
  -21.2933  -24.0266   24.2108 C   0  0  0  0  0  0  0  0  0  0  0  0
  -22.6686  -10.2009   20.1635 C   0  0  0  0  0  0  0  0  0  0  0  0
  -24.3247   -9.4087   21.7342 C   0  0  0  0  0  0  0  0  0  0  0  0
  -19.7111  -25.0990   22.7403 C   0  0  0  0  0  0  0  0  0  0  0  0
  -22.0972  -23.7160   23.1145 C   0  0  0  0  0  0  0  0  0  0  0  0
  -26.9985  -24.6594   23.9702 C   0  0  0  0  0  0  0  0  0  0  0  0
  -21.9333   -9.0301   20.3484 C   0  0  0  0  0  0  0  0  0  0  0  0
  -23.5893   -8.2379   21.9191 C   0  0  0  0  0  0  0  0  0  0  0  0
  -27.7007  -23.7320   24.7388 C   0  0  0  0  0  0  0  0  0  0  0  0
  -20.8455   -7.2669   23.6366 C   0  0  0  0  0  0  0  0  0  0  0  0
  -20.6640   -6.8172   24.9444 C   0  0  0  0  0  0  0  0  0  0  0  0
  -28.6181  -22.7682   22.7266 C   0  0  0  0  0  0  0  0  0  0  0  0
  -30.6223  -18.0516   24.3214 C   0  0  0  0  0  0  0  0  0  0  0  0
  -32.1409  -16.4255   22.6384 C   0  0  0  0  0  0  0  0  0  0  0  0
  -21.7834   -4.7495   24.3886 C   0  0  0  0  0  0  0  0  0  0  0  0
  -23.8644  -10.3901   20.8564 C   0  0  0  0  0  0  0  0  0  0  0  0
  -24.2011  -12.9181   20.9149 C   0  0  0  0  0  0  0  0  0  0  0  0
  -20.5153  -24.8014   21.6289 C   0  0  0  0  0  0  0  0  0  0  0  0
  -27.0925  -24.6412   22.5712 C   0  0  0  0  0  0  0  0  0  0  0  0
  -21.7176  -24.0928   21.8150 C   0  0  0  0  0  0  0  0  0  0  0  0
  -27.9182  -23.6980   21.9428 C   0  0  0  0  0  0  0  0  0  0  0  0
  -32.0134  -18.0479   24.4241 C   0  0  0  0  0  0  0  0  0  0  0  0
  -29.9905  -17.2422   23.3772 C   0  0  0  0  0  0  0  0  0  0  0  0
  -32.7727  -17.2349   23.5826 C   0  0  0  0  0  0  0  0  0  0  0  0
  -30.7499  -16.4292   22.5357 C   0  0  0  0  0  0  0  0  0  0  0  0
  -22.3935   -8.0487   21.2262 C   0  0  0  0  0  0  0  0  0  0  0  0
  -28.5084  -22.7844   24.1169 C   0  0  0  0  0  0  0  0  0  0  0  0
  -21.4959   -6.4580   22.7047 C   0  0  0  0  0  0  0  0  0  0  0  0
  -21.1329   -5.5584   25.3204 C   0  0  0  0  0  0  0  0  0  0  0  0
  -21.9649   -5.1993   23.0808 C   0  0  0  0  0  0  0  0  0  0  0  0
  -24.6248  -11.5990   20.6655 C   0  0  0  0  0  0  0  0  0  0  0  0
  -25.2815  -13.6956   20.5763 C   0  0  0  0  0  0  0  0  0  0  0  0
  -30.9605  -20.1480   26.7332 C   0  0  0  0  0  0  0  0  0  0  0  0
  -27.2371  -19.1493   22.2029 C   0  0  0  0  0  0  0  0  0  0  0  0
  -27.9933  -18.0499   22.1073 C   0  0  0  0  0  0  0  0  0  0  0  0
  -22.9433  -13.3978   21.4086 C   0  0  0  0  0  0  0  0  0  0  0  0
  -25.0348  -24.1920   20.1904 C   0  0  0  0  0  0  0  0  0  0  0  0
  -27.5904  -24.9748   18.3524 C   0  0  0  0  0  0  0  0  0  0  0  0
  -31.1234  -24.2445   18.3062 C   0  0  0  0  0  0  0  0  0  0  0  0
  -30.7499  -14.7405   20.6663 C   0  0  0  0  0  0  0  0  0  0  0  0
  -20.0297  -25.1929   20.2558 C   0  0  0  0  0  0  0  0  0  0  0  0
  -26.3496  -25.6653   21.7578 C   0  0  0  0  0  0  0  0  0  0  0  0
  -28.0691  -23.6492   20.4450 C   0  0  0  0  0  0  0  0  0  0  0  0
  -30.2404  -21.4592   26.9986 C   0  0  0  0  0  0  0  0  0  0  0  0
  -21.1214  -25.1539   19.1895 C   0  0  0  0  0  0  0  0  0  0  0  0
  -29.5668  -12.5067   18.1588 C   0  0  0  0  0  0  0  0  0  0  0  0
  -21.9249  -23.8616   19.2952 C   0  0  0  0  0  0  0  0  0  0  0  0
  -28.1408  -12.1799   18.6079 C   0  0  0  0  0  0  0  0  0  0  0  0
  -31.4901  -22.5421   25.1446 C   0  0  0  0  0  0  0  0  0  0  0  0
  -30.5172  -12.6479   19.3465 C   0  0  0  0  0  0  0  0  0  0  0  0
  -32.0178  -21.1896   24.6985 C   0  0  0  0  0  0  0  0  0  0  0  0
  -28.6518  -13.2622   20.8338 C   0  0  0  0  0  0  0  0  0  0  0  0
  -22.6288  -23.7592   20.6537 C   0  0  1  0  0  0  0  0  0  0  0  0
  -26.1162  -25.2277   20.3151 C   0  0  1  0  0  0  0  0  0  0  0  0
  -27.6444  -13.1744   19.6757 C   0  0  2  0  0  0  0  0  0  0  0  0
  -30.1333  -22.3904   25.8048 C   0  0  1  0  0  0  0  0  0  1  0  0
  -34.2632  -17.2142   23.6745 C   0  0  0  0  0  0  0  0  0  0  0  0
  -33.0510  -25.5670   17.3938 C   0  0  0  0  0  0  0  0  0  0  0  0
  -27.1824  -23.2896   15.8416 C   0  0  0  0  0  0  0  0  0  0  0  0
  -29.6709  -23.2018   15.5805 C   0  0  0  0  0  0  0  0  0  0  0  0
  -28.4852  -25.3944   15.4850 C   0  0  0  0  0  0  0  0  0  0  0  0
  -32.5354  -24.1999   20.9068 C   0  0  0  0  0  0  0  0  0  0  0  0
  -28.4990  -17.2663   23.2892 C   0  0  0  0  0  0  0  0  0  0  0  0
  -32.6710  -18.9271   25.4481 C   0  0  0  0  0  0  0  0  0  0  0  0
  -28.7169  -24.2064   17.7047 C   0  0  1  0  0  0  0  0  0  0  0  0
  -32.2538  -25.2024   18.6365 C   0  0  2  0  0  0  0  0  0  0  0  0
  -28.5015  -24.0140   16.1769 C   0  0  0  0  0  0  0  0  0  0  0  0
  -25.8767  -11.5381   20.2039 N   0  0  0  0  0  0  0  0  0  0  0  0
  -26.2489  -12.8287   20.1605 N   0  0  0  0  0  0  0  0  0  0  0  0
  -31.8997  -20.1362   25.7049 N   0  0  0  0  0  0  0  0  0  0  0  0
  -27.3176  -24.6676   19.6929 N   0  0  0  0  0  0  0  0  0  0  0  0
  -29.9840  -13.6090   20.3144 N   0  0  0  0  0  0  0  0  0  0  0  0
  -25.4889  -15.0294   20.5965 N   0  0  0  0  0  0  0  0  0  0  0  0
  -22.7789  -13.5385   22.7933 N   0  0  0  0  0  0  0  0  0  0  0  0
  -30.1267  -15.6002   21.5702 N   0  0  0  0  0  0  0  0  0  0  0  0
  -23.8072  -24.5990   20.6770 N   0  0  0  0  0  0  0  0  0  0  0  0
  -29.9452  -24.9136   18.0505 N   0  0  0  0  0  0  0  0  0  0  0  0
  -33.1820  -24.5866   19.6264 N   0  3  0  0  0  0  0  0  0  0  0  0
  -30.7412  -19.1882   27.4780 O   0  0  0  0  0  0  0  0  0  0  0  0
  -21.9879  -13.6773   20.6453 O   0  0  0  0  0  0  0  0  0  0  0  0
  -25.2946  -23.1047   19.6886 O   0  0  0  0  0  0  0  0  0  0  0  0
  -26.9798  -25.8216   17.6953 O   0  0  0  0  0  0  0  0  0  0  0  0
  -31.2717  -23.0248   18.2744 O   0  0  0  0  0  0  0  0  0  0  0  0
  -31.8645  -14.9467   20.1793 O   0  0  0  0  0  0  0  0  0  0  0  0
  -21.6761   -6.9063   21.4070 O   0  0  0  0  0  0  0  0  0  0  0  0
  -29.1943  -21.8776   24.8646 O   0  0  0  0  0  0  0  0  0  1  0  0
  -20.9599   -5.1273   26.5767 F   0  0  0  0  0  0  0  0  0  0  0  0
  -22.5915   -4.4181   22.1903 F   0  0  0  0  0  0  0  0  0  0  0  0
  1  2  1  0  0  0  0
  1  5  2  0  0  0  0
  2  6  2  0  0  0  0
  3  8  2  0  0  0  0
  3 17  1  0  0  0  0
  4  9  1  0  0  0  0
  4 17  2  0  0  0  0
  5 19  1  0  0  0  0
  6 21  1  0  0  0  0
  7 10  2  0  0  0  0
  7 20  1  0  0  0  0
  8 27  1  0  0  0  0
  9 27  2  0  0  0  0
 10 28  1  0  0  0  0
 11 12  2  0  0  0  0
 11 29  1  0  0  0  0
 12 30  1  0  0  0  0
 13 22  1  0  0  0  0
 13 28  2  0  0  0  0
 14 23  2  0  0  0  0
 14 24  1  0  0  0  0
 15 25  2  0  0  0  0
 15 26  1  0  0  0  0
 16 30  2  0  0  0  0
 16 31  1  0  0  0  0
 17 32  1  0  0  0  0
 18 32  1  0  0  0  0
 18 33  2  0  0  0  0
 18 37  1  0  0  0  0
 19 21  2  0  0  0  0
 19 42  1  0  0  0  0
 20 22  2  0  0  0  0
 20 43  1  0  0  0  0
 21 54  1  0  0  0  0
 22 44  1  0  0  0  0
 23 25  1  0  0  0  0
 23 65  1  0  0  0  0
 24 26  2  0  0  0  0
 24 64  1  0  0  0  0
 25 58  1  0  0  0  0
 26 76  1  0  0  0  0
 27 86  1  0  0  0  0
 28 87  1  0  0  0  0
 29 31  2  0  0  0  0
 29 86  1  0  0  0  0
 30 88  1  0  0  0  0
 31 89  1  0  0  0  0
 32 69  2  0  0  0  0
 33 70  1  0  0  0  0
 33 74  1  0  0  0  0
 34 45  1  0  0  0  0
 34 71  1  0  0  0  0
 34 80  2  0  0  0  0
 35 36  2  0  0  0  0
 36 64  1  0  0  0  0
 37 75  1  0  0  0  0
 37 81  2  0  0  0  0
 38 55  1  0  0  0  0
 38 77  1  0  0  0  0
 38 82  2  0  0  0  0
 39 66  1  0  0  0  0
 39 72  1  0  0  0  0
 39 83  2  0  0  0  0
 40 67  1  0  0  0  0
 40 78  1  0  0  0  0
 40 84  2  0  0  0  0
 41 73  1  0  0  0  0
 41 76  1  0  0  0  0
 41 85  2  0  0  0  0
 42 46  1  0  0  0  0
 43 55  1  0  0  0  0
 44 72  1  0  0  0  0
 45 57  1  0  0  0  0
 46 48  1  0  0  0  0
 47 49  1  0  0  0  0
 47 51  1  0  0  0  0
 48 54  1  0  0  0  0
 49 56  1  0  0  0  0
 50 52  1  0  0  0  0
 50 57  1  0  0  0  0
 51 73  1  0  0  0  0
 52 71  1  0  0  0  0
 53 56  1  0  0  0  0
 53 73  1  0  0  0  0
 54 77  1  0  0  0  0
 55 72  1  0  0  0  0
 56 70  1  0  0  0  0
 57 87  1  0  0  0  0
 59 67  1  0  0  0  0
 60 68  1  0  0  0  0
 61 68  1  0  0  0  0
 62 68  1  0  0  0  0
 63 79  1  0  0  0  0
 65 71  1  0  0  0  0
 66 68  1  0  0  0  0
 66 78  1  0  0  0  0
 67 79  1  0  0  0  0
 69 70  1  0  0  0  0
M  CHG  1  79   1
M  ISO  4  41 100  57 101  76 100  87 101
M  END
> <Batch ID>
0054

> <Smiles>
C=CCc1cc(CN2CC[101CH:1]([101O:1]c3ccc4c(c3)CN(C(=O)C(NC(=O)C(C)NC)C(C)(C)C)C(C(=O)NC3CCCc5ccccc53)C4)CC2=O)c(C)cc1[100NH:0][100C:0](=O)N1CCCC(n2nc(-c3ccc(Oc4ccc(F)cc4F)cc3)c(C(N)=O)c2N)C1

> <Shape>
0.238

> <Color>
0.176

> <Negative vol penalty>
0.000

$$$$

  -OEChem-04042322463D

 84 92  0     1  0  0  0  0  0999 V2000
  -20.9102  -30.1221   25.0979 C   0  0  0  0  0  0  0  0  0  0  0  0
  -22.0560  -29.4709   24.6523 C   0  0  0  0  0  0  0  0  0  0  0  0
  -25.9903  -13.0678   19.8241 C   0  0  0  0  0  0  0  0  0  0  0  0
  -24.2569  -14.6938   20.2587 C   0  0  0  0  0  0  0  0  0  0  0  0
  -19.6628  -29.7614   24.5901 C   0  0  0  0  0  0  0  0  0  0  0  0
  -21.9549  -28.4579   23.6994 C   0  0  0  0  0  0  0  0  0  0  0  0
  -25.4430  -28.8674   20.0511 C   0  0  0  0  0  0  0  0  0  0  0  0
  -25.3837  -23.6679   21.6760 C   0  0  0  0  0  0  0  0  0  0  0  0
  -25.9230  -22.6275   20.9195 C   0  0  0  0  0  0  0  0  0  0  0  0
  -25.3493  -12.1594   20.6664 C   0  0  0  0  0  0  0  0  0  0  0  0
  -23.6160  -13.7853   21.1010 C   0  0  0  0  0  0  0  0  0  0  0  0
  -26.7355  -28.4423   20.3553 C   0  0  0  0  0  0  0  0  0  0  0  0
  -22.7093  -10.0525   20.5102 C   0  0  0  0  0  0  0  0  0  0  0  0
  -22.5789   -8.7369   20.0655 C   0  0  0  0  0  0  0  0  0  0  0  0
  -28.1375  -23.2216   21.6811 C   0  0  0  0  0  0  0  0  0  0  0  0
  -26.3150  -26.3622   19.2083 C   0  0  0  0  0  0  0  0  0  0  0  0
  -23.8464   -7.9666   21.9726 C   0  0  0  0  0  0  0  0  0  0  0  0
  -25.4441  -14.3350   19.6202 C   0  0  0  0  0  0  0  0  0  0  0  0
  -27.5982  -24.2621   22.4375 C   0  0  0  0  0  0  0  0  0  0  0  0
  -25.9094  -15.4349   17.3660 C   0  0  0  0  0  0  0  0  0  0  0  0
  -19.5474  -28.7501   23.6234 C   0  0  0  0  0  0  0  0  0  0  0  0
  -24.5717  -28.0372   19.3314 C   0  0  0  0  0  0  0  0  0  0  0  0
  -20.7047  -28.0824   23.1792 C   0  0  0  0  0  0  0  0  0  0  0  0
  -25.0128  -26.7801   18.8941 C   0  0  0  0  0  0  0  0  0  0  0  0
  -26.2213  -24.4853   22.4350 C   0  0  0  0  0  0  0  0  0  0  0  0
  -27.2998  -22.4043   20.9221 C   0  0  0  0  0  0  0  0  0  0  0  0
  -24.1622  -12.5181   21.3048 C   0  0  0  0  0  0  0  0  0  0  0  0
  -27.1707  -27.1884   19.9364 C   0  0  0  0  0  0  0  0  0  0  0  0
  -23.4084  -10.3252   21.6861 C   0  0  0  0  0  0  0  0  0  0  0  0
  -23.1474   -7.6939   20.7967 C   0  0  0  0  0  0  0  0  0  0  0  0
  -23.9769   -9.2822   22.4173 C   0  0  0  0  0  0  0  0  0  0  0  0
  -26.1060  -15.2741   18.7507 C   0  0  0  0  0  0  0  0  0  0  0  0
  -26.7685  -16.4465   17.0124 C   0  0  0  0  0  0  0  0  0  0  0  0
  -28.5158  -25.1195   23.2398 C   0  0  0  0  0  0  0  0  0  0  0  0
  -25.0288  -14.7327   16.4788 C   0  0  0  0  0  0  0  0  0  0  0  0
  -21.7677  -26.6674   19.9357 C   0  0  0  0  0  0  0  0  0  0  0  0
  -30.0325  -26.2590   21.9258 C   0  0  0  0  0  0  0  0  0  0  0  0
  -21.9542  -25.8090   16.8131 C   0  0  0  0  0  0  0  0  0  0  0  0
  -23.9166  -25.1968   14.0889 C   0  0  0  0  0  0  0  0  0  0  0  0
  -29.1909  -20.9910   20.0430 C   0  0  0  0  0  0  0  0  0  0  0  0
  -18.1727  -28.3626   23.1388 C   0  0  0  0  0  0  0  0  0  0  0  0
  -23.1895  -28.5212   18.9882 C   0  0  0  0  0  0  0  0  0  0  0  0
  -24.1230  -25.8592   18.1011 C   0  0  0  0  0  0  0  0  0  0  0  0
  -18.1898  -27.5356   21.8559 C   0  0  0  0  0  0  0  0  0  0  0  0
  -30.9359  -18.4355   18.2819 C   0  0  0  0  0  0  0  0  0  0  0  0
  -19.2273  -26.4215   21.9527 C   0  0  0  0  0  0  0  0  0  0  0  0
  -29.8758  -17.3520   18.0709 C   0  0  0  0  0  0  0  0  0  0  0  0
  -30.7805  -19.1248   19.6363 C   0  0  0  0  0  0  0  0  0  0  0  0
  -28.3801  -18.5742   19.7006 C   0  0  0  0  0  0  0  0  0  0  0  0
  -20.6384  -26.9955   22.1284 C   0  0  1  0  0  0  0  0  0  0  0  0
  -22.2146  -27.3854   18.6937 C   0  0  1  0  0  0  0  0  0  0  0  0
  -28.4559  -17.8960   18.3229 C   0  0  2  0  0  0  0  0  0  0  0  0
  -25.6174  -25.5924   23.2360 C   0  0  0  0  0  0  0  0  0  0  0  0
  -31.4391  -26.3979   21.3975 C   0  0  0  0  0  0  0  0  0  0  0  0
  -23.7857  -24.4753   11.6890 C   0  0  0  0  0  0  0  0  0  0  0  0
  -21.4912  -22.9286   17.7068 C   0  0  0  0  0  0  0  0  0  0  0  0
  -22.3056  -22.1749   15.4624 C   0  0  0  0  0  0  0  0  0  0  0  0
  -20.2576  -23.5888   15.6339 C   0  0  0  0  0  0  0  0  0  0  0  0
  -25.0975  -27.7390   13.1394 C   0  0  0  0  0  0  0  0  0  0  0  0
  -29.0139  -27.2669   21.4373 C   0  0  0  0  0  0  0  0  0  1  0  0
  -22.5217  -24.6298   16.0606 C   0  0  1  0  0  0  0  0  0  0  0  0
  -23.8091  -25.6568   12.6463 C   0  0  2  0  0  0  0  0  0  0  0  0
  -21.6604  -23.3468   16.2325 C   0  0  0  0  0  0  0  0  0  0  0  0
  -27.0186  -16.1160   19.2431 N   0  0  0  0  0  0  0  0  0  0  0  0
  -29.7858  -25.2770   22.7387 N   0  0  0  0  0  0  0  0  0  0  0  0
  -27.4030  -16.8155   18.1619 N   0  0  0  0  0  0  0  0  0  0  0  0
  -22.7783  -26.3751   17.7960 N   0  0  0  0  0  0  0  0  0  0  0  0
  -29.4117  -19.6183   19.8030 N   0  0  0  0  0  0  0  0  0  0  0  0
  -27.0356  -17.0474   15.8334 N   0  0  0  0  0  0  0  0  0  0  0  0
  -24.2143  -13.7220   17.0074 N   0  0  0  0  0  0  0  0  0  0  0  0
  -27.8474  -21.3485   20.1519 N   0  0  0  0  0  0  0  0  0  0  0  0
  -21.1473  -27.4817   20.8639 N   0  0  0  0  0  0  0  0  0  0  0  0
  -22.6762  -25.0647   14.6766 N   0  0  0  0  0  0  0  0  0  0  0  0
  -24.9669  -26.5258   12.2921 N   0  3  0  0  0  0  0  0  0  0  0  0
  -28.1000  -25.6613   24.2592 O   0  0  0  0  0  0  0  0  0  0  0  0
  -24.9780  -14.9825   15.2506 O   0  0  0  0  0  0  0  0  0  0  0  0
  -21.9694  -25.4635   20.0433 O   0  0  0  0  0  0  0  0  0  0  0  0
  -20.8242  -26.2174   16.5340 O   0  0  0  0  0  0  0  0  0  0  0  0
  -24.9930  -24.9731   14.6384 O   0  0  0  0  0  0  0  0  0  0  0  0
  -30.1236  -21.7951   20.1172 O   0  0  0  0  0  0  0  0  0  0  0  0
  -23.5364  -11.6318   22.1266 O   0  0  0  0  0  0  0  0  0  0  0  0
  -28.4316  -26.7708   20.2326 O   0  0  0  0  0  0  0  0  0  1  0  0
  -23.0207   -6.4305   20.3704 F   0  0  0  0  0  0  0  0  0  0  0  0
  -24.6486   -9.5379   23.5483 F   0  0  0  0  0  0  0  0  0  0  0  0
  1  2  1  0  0  0  0
  1  5  2  0  0  0  0
  2  6  2  0  0  0  0
  3 10  2  0  0  0  0
  3 18  1  0  0  0  0
  4 11  1  0  0  0  0
  4 18  2  0  0  0  0
  5 21  1  0  0  0  0
  6 23  1  0  0  0  0
  7 12  2  0  0  0  0
  7 22  1  0  0  0  0
  8  9  2  0  0  0  0
  8 25  1  0  0  0  0
  9 26  1  0  0  0  0
 10 27  1  0  0  0  0
 11 27  2  0  0  0  0
 12 28  1  0  0  0  0
 13 14  2  0  0  0  0
 13 29  1  0  0  0  0
 14 30  1  0  0  0  0
 15 19  1  0  0  0  0
 15 26  2  0  0  0  0
 16 24  1  0  0  0  0
 16 28  2  0  0  0  0
 17 30  2  0  0  0  0
 17 31  1  0  0  0  0
 18 32  1  0  0  0  0
 19 25  2  0  0  0  0
 19 34  1  0  0  0  0
 20 32  1  0  0  0  0
 20 33  2  0  0  0  0
 20 35  1  0  0  0  0
 21 23  2  0  0  0  0
 21 41  1  0  0  0  0
 22 24  2  0  0  0  0
 22 42  1  0  0  0  0
 23 50  1  0  0  0  0
 24 43  1  0  0  0  0
 25 53  1  0  0  0  0
 26 71  1  0  0  0  0
 27 81  1  0  0  0  0
 28 82  1  0  0  0  0
 29 31  2  0  0  0  0
 29 81  1  0  0  0  0
 30 83  1  0  0  0  0
 31 84  1  0  0  0  0
 32 64  2  0  0  0  0
 33 66  1  0  0  0  0
 33 69  1  0  0  0  0
 34 65  1  0  0  0  0
 34 75  2  0  0  0  0
 35 70  1  0  0  0  0
 35 76  2  0  0  0  0
 36 51  1  0  0  0  0
 36 72  1  0  0  0  0
 36 77  2  0  0  0  0
 37 54  1  0  0  0  0
 37 60  1  0  0  0  0
 37 65  2  0  0  0  0
 38 61  1  0  0  0  0
 38 67  1  0  0  0  0
 38 78  2  0  0  0  0
 39 62  1  0  0  0  0
 39 73  1  0  0  0  0
 39 79  2  0  0  0  0
 40 68  1  0  0  0  0
 40 71  1  0  0  0  0
 40 80  2  0  0  0  0
 41 44  1  0  0  0  0
 42 51  1  0  0  0  0
 43 67  1  0  0  0  0
 44 46  1  0  0  0  0
 45 47  1  0  0  0  0
 45 48  1  0  0  0  0
 46 50  1  0  0  0  0
 47 52  1  0  0  0  0
 48 68  1  0  0  0  0
 49 52  1  0  0  0  0
 49 68  1  0  0  0  0
 50 72  1  0  0  0  0
 51 67  1  0  0  0  0
 52 66  1  0  0  0  0
 55 62  1  0  0  0  0
 56 63  1  0  0  0  0
 57 63  1  0  0  0  0
 58 63  1  0  0  0  0
 59 74  1  0  0  0  0
 60 82  1  0  0  0  0
 61 63  1  0  0  0  0
 61 73  1  0  0  0  0
 62 74  1  0  0  0  0
 64 66  1  0  0  0  0
M  CHG  1  74   1
M  ISO  4  40 100  60 101  71 100  82 101
M  END
> <Batch ID>
0054

> <Smiles>
CNC(C)C(=O)NC(C(=O)N1Cc2cc([101O:1][101CH2:1]C(C)=NC(=O)c3cc([100NH:0][100C:0](=O)N4CCCC(n5nc(-c6ccc(Oc7ccc(F)cc7F)cc6)c(C(N)=O)c5N)C4)ccc3C)ccc2CC1C(=O)NC1CCCc2ccccc21)C(C)(C)C

> <Shape>
0.231

> <Color>
0.074

> <Negative vol penalty>
0.000

$$$$

  -OEChem-04042322463D

 83 91  0     1  0  0  0  0  0999 V2000
  -21.5398  -12.2603   20.7681 C   0  0  0  0  0  0  0  0  0  0  0  0
  -21.5868  -13.5743   21.2226 C   0  0  0  0  0  0  0  0  0  0  0  0
  -29.7416  -29.6704   21.0495 C   0  0  0  0  0  0  0  0  0  0  0  0
  -28.8757  -27.9712   22.5327 C   0  0  0  0  0  0  0  0  0  0  0  0
  -22.7224  -11.5830   20.4737 C   0  0  0  0  0  0  0  0  0  0  0  0
  -22.8166  -14.2114   21.3841 C   0  0  0  0  0  0  0  0  0  0  0  0
  -22.8191  -18.9264   19.5362 C   0  0  0  0  0  0  0  0  0  0  0  0
  -30.8987  -29.7566   21.8237 C   0  0  0  0  0  0  0  0  0  0  0  0
  -30.0328  -28.0574   23.3069 C   0  0  0  0  0  0  0  0  0  0  0  0
  -22.2136  -19.9144   20.3114 C   0  0  0  0  0  0  0  0  0  0  0  0
  -31.2996  -30.1131   25.6733 C   0  0  0  0  0  0  0  0  0  0  0  0
  -31.1500  -30.1592   27.0593 C   0  0  0  0  0  0  0  0  0  0  0  0
  -24.3826  -20.6175   21.0988 C   0  0  0  0  0  0  0  0  0  0  0  0
  -20.0086  -26.4389   22.3810 C   0  0  0  0  0  0  0  0  0  0  0  0
  -18.2648  -28.0814   22.0679 C   0  0  0  0  0  0  0  0  0  0  0  0
  -18.0513  -25.8889   21.0759 C   0  0  0  0  0  0  0  0  0  0  0  0
  -32.4514  -28.1342   27.2670 C   0  0  0  0  0  0  0  0  0  0  0  0
  -28.7301  -28.7777   21.4040 C   0  0  0  0  0  0  0  0  0  0  0  0
  -27.3092  -27.8416   19.5034 C   0  0  0  0  0  0  0  0  0  0  0  0
  -23.9669  -12.2154   20.6224 C   0  0  0  0  0  0  0  0  0  0  0  0
  -24.2125  -18.7692   19.5449 C   0  0  0  0  0  0  0  0  0  0  0  0
  -24.0170  -13.5416   21.0927 C   0  0  0  0  0  0  0  0  0  0  0  0
  -25.0036  -19.6284   20.3209 C   0  0  0  0  0  0  0  0  0  0  0  0
  -19.4985  -27.7173   22.6073 C   0  0  0  0  0  0  0  0  0  0  0  0
  -19.2850  -25.5247   21.6153 C   0  0  0  0  0  0  0  0  0  0  0  0
  -31.0443  -28.9501   22.9524 C   0  0  0  0  0  0  0  0  0  0  0  0
  -22.9951  -20.7583   21.0951 C   0  0  0  0  0  0  0  0  0  0  0  0
  -32.0250  -29.0776   25.0841 C   0  0  0  0  0  0  0  0  0  0  0  0
  -31.7259  -29.1697   27.8562 C   0  0  0  0  0  0  0  0  0  0  0  0
  -32.6009  -28.0881   25.8810 C   0  0  0  0  0  0  0  0  0  0  0  0
  -17.5411  -27.1672   21.3022 C   0  0  0  0  0  0  0  0  0  0  0  0
  -27.5344  -28.6887   20.6050 C   0  0  0  0  0  0  0  0  0  0  0  0
  -26.0308  -28.1380   19.0980 C   0  0  0  0  0  0  0  0  0  0  0  0
  -28.1779  -26.8733   18.9006 C   0  0  0  0  0  0  0  0  0  0  0  0
  -26.2015  -16.4364   20.3850 C   0  0  0  0  0  0  0  0  0  0  0  0
  -28.4418  -18.4306   19.1494 C   0  0  0  0  0  0  0  0  0  0  0  0
  -21.0065  -23.7030   21.8432 C   0  0  0  0  0  0  0  0  0  0  0  0
  -29.3510  -21.6178   18.3360 C   0  0  0  0  0  0  0  0  0  0  0  0
  -21.2759  -30.4111   21.9396 C   0  0  0  0  0  0  0  0  0  0  0  0
  -25.2205  -11.4271   20.3367 C   0  0  0  0  0  0  0  0  0  0  0  0
  -24.8523  -17.7159   18.6825 C   0  0  0  0  0  0  0  0  0  0  0  0
  -26.5051  -19.5142   20.3496 C   0  0  0  0  0  0  0  0  0  0  0  0
  -26.4644  -12.2976   20.1774 C   0  0  0  0  0  0  0  0  0  0  0  0
  -22.8594  -31.7196   19.0315 C   0  0  0  0  0  0  0  0  0  0  0  0
  -26.5390  -13.3318   21.2961 C   0  0  0  0  0  0  0  0  0  0  0  0
  -24.2167  -31.0148   19.0056 C   0  0  0  0  0  0  0  0  0  0  0  0
  -22.4152  -32.0367   20.4578 C   0  0  0  0  0  0  0  0  0  0  0  0
  -23.7645  -30.1770   21.3492 C   0  0  0  0  0  0  0  0  0  0  0  0
  -25.3305  -14.2750   21.2570 C   0  0  1  0  0  0  0  0  0  0  0  0
  -26.2422  -17.3121   19.1647 C   0  0  1  0  0  0  0  0  0  0  0  0
  -24.2286  -29.7866   19.9355 C   0  0  2  0  0  0  0  0  0  0  0  0
  -31.2572  -22.9386   17.3771 C   0  0  0  0  0  0  0  0  0  0  0  0
  -29.9413  -18.1825   21.7952 C   0  0  0  0  0  0  0  0  0  0  0  0
  -31.2722  -20.2026   21.1502 C   0  0  0  0  0  0  0  0  0  0  0  0
  -31.3972  -18.1336   19.7623 C   0  0  0  0  0  0  0  0  0  0  0  0
  -27.7084  -22.5558   16.0598 C   0  0  0  0  0  0  0  0  0  0  0  0
  -20.2726  -28.6950   23.4254 C   0  0  0  0  0  0  0  0  0  0  0  0
  -21.1817  -22.2723   21.3692 C   0  0  0  0  0  0  0  0  0  1  0  0
  -29.3004  -19.5447   19.6976 C   0  0  1  0  0  0  0  0  0  0  0  0
  -29.9628  -22.1999   17.0745 C   0  0  2  0  0  0  0  0  0  0  0  0
  -30.4494  -19.0170   20.6025 C   0  0  0  0  0  0  0  0  0  0  0  0
  -26.4834  -29.4651   20.8817 N   0  0  0  0  0  0  0  0  0  0  0  0
  -25.5855  -29.1071   19.9480 N   0  0  0  0  0  0  0  0  0  0  0  0
  -27.0832  -18.4647   19.4941 N   0  0  0  0  0  0  0  0  0  0  0  0
  -22.4474  -30.8297   21.2873 N   0  0  0  0  0  0  0  0  0  0  0  0
  -25.2555  -27.6616   18.1008 N   0  0  0  0  0  0  0  0  0  0  0  0
  -29.4581  -26.6950   19.4426 N   0  0  0  0  0  0  0  0  0  0  0  0
  -19.8030  -24.2281   21.3850 N   0  0  0  0  0  0  0  0  0  0  0  0
  -25.4936  -15.2624   20.2116 N   0  0  0  0  0  0  0  0  0  0  0  0
  -29.7536  -20.3157   18.5450 N   0  0  0  0  0  0  0  0  0  0  0  0
  -21.3918  -29.2541   22.7004 N   0  0  0  0  0  0  0  0  0  0  0  0
  -29.0158  -23.1548   16.4325 N   0  3  0  0  0  0  0  0  0  0  0  0
  -27.8352  -26.1981   17.9004 O   0  0  0  0  0  0  0  0  0  0  0  0
  -26.7716  -16.7983   21.4076 O   0  0  0  0  0  0  0  0  0  0  0  0
  -28.9562  -17.5660   18.4356 O   0  0  0  0  0  0  0  0  0  0  0  0
  -21.8533  -24.2590   22.5349 O   0  0  0  0  0  0  0  0  0  0  0  0
  -28.5948  -22.2557   19.0651 O   0  0  0  0  0  0  0  0  0  0  0  0
  -20.2048  -31.0201   21.8464 O   0  0  0  0  0  0  0  0  0  0  0  0
  -32.1733  -29.0337   23.7079 O   0  0  0  0  0  0  0  0  0  0  0  0
  -22.4066  -21.7230   21.8532 O   0  0  0  0  0  0  0  0  0  1  0  0
  -31.5835  -29.2149   29.1873 F   0  0  0  0  0  0  0  0  0  0  0  0
  -33.2999  -27.0915   25.3207 F   0  0  0  0  0  0  0  0  0  0  0  0
  -16.0198  -27.6170   20.6349 Cl  0  0  0  0  0  0  0  0  0  0  0  0
  1  2  1  0  0  0  0
  1  5  2  0  0  0  0
  2  6  2  0  0  0  0
  3  8  2  0  0  0  0
  3 18  1  0  0  0  0
  4  9  1  0  0  0  0
  4 18  2  0  0  0  0
  5 20  1  0  0  0  0
  6 22  1  0  0  0  0
  7 10  2  0  0  0  0
  7 21  1  0  0  0  0
  8 26  1  0  0  0  0
  9 26  2  0  0  0  0
 10 27  1  0  0  0  0
 11 12  2  0  0  0  0
 11 28  1  0  0  0  0
 12 29  1  0  0  0  0
 13 23  1  0  0  0  0
 13 27  2  0  0  0  0
 14 24  1  0  0  0  0
 14 25  2  0  0  0  0
 15 24  2  0  0  0  0
 15 31  1  0  0  0  0
 16 25  1  0  0  0  0
 16 31  2  0  0  0  0
 17 29  2  0  0  0  0
 17 30  1  0  0  0  0
 18 32  1  0  0  0  0
 19 32  1  0  0  0  0
 19 33  2  0  0  0  0
 19 34  1  0  0  0  0
 20 22  2  0  0  0  0
 20 40  1  0  0  0  0
 21 23  2  0  0  0  0
 21 41  1  0  0  0  0
 22 49  1  0  0  0  0
 23 42  1  0  0  0  0
 24 57  1  0  0  0  0
 25 68  1  0  0  0  0
 26 79  1  0  0  0  0
 27 80  1  0  0  0  0
 28 30  2  0  0  0  0
 28 79  1  0  0  0  0
 29 81  1  0  0  0  0
 30 82  1  0  0  0  0
 31 83  1  0  0  0  0
 32 62  2  0  0  0  0
 33 63  1  0  0  0  0
 33 66  1  0  0  0  0
 34 67  1  0  0  0  0
 34 73  2  0  0  0  0
 35 50  1  0  0  0  0
 35 69  1  0  0  0  0
 35 74  2  0  0  0  0
 36 59  1  0  0  0  0
 36 64  1  0  0  0  0
 36 75  2  0  0  0  0
 37 58  1  0  0  0  0
 37 68  1  0  0  0  0
 37 76  2  0  0  0  0
 38 60  1  0  0  0  0
 38 70  1  0  0  0  0
 38 77  2  0  0  0  0
 39 65  1  0  0  0  0
 39 71  1  0  0  0  0
 39 78  2  0  0  0  0
 40 43  1  0  0  0  0
 41 50  1  0  0  0  0
 42 64  1  0  0  0  0
 43 45  1  0  0  0  0
 44 46  1  0  0  0  0
 44 47  1  0  0  0  0
 45 49  1  0  0  0  0
 46 51  1  0  0  0  0
 47 65  1  0  0  0  0
 48 51  1  0  0  0  0
 48 65  1  0  0  0  0
 49 69  1  0  0  0  0
 50 64  1  0  0  0  0
 51 63  1  0  0  0  0
 52 60  1  0  0  0  0
 53 61  1  0  0  0  0
 54 61  1  0  0  0  0
 55 61  1  0  0  0  0
 56 72  1  0  0  0  0
 57 71  1  0  0  0  0
 58 80  1  0  0  0  0
 59 61  1  0  0  0  0
 59 70  1  0  0  0  0
 60 72  1  0  0  0  0
 62 63  1  0  0  0  0
M  CHG  1  72   1
M  ISO  4  39 100  58 101  71 100  80 101
M  END
> <Batch ID>
0054

> <Smiles>
CNC(C)C(=O)NC(C(=O)N1Cc2cc([101O:1][101CH2:1]C(=O)Nc3cc(Cl)cc(C[100NH:0][100C:0](=O)N4CCCC(n5nc(-c6ccc(Oc7ccc(F)cc7F)cc6)c(C(N)=O)c5N)C4)c3)ccc2CC1C(=O)NC1CCCc2ccccc21)C(C)(C)C

> <Shape>
0.241

> <Color>
0.080

> <Negative vol penalty>
0.000

$$$$

  -OEChem-04042322463D

 87 95  0     1  0  0  0  0  0999 V2000
  -17.5393  -26.1276   22.7668 C   0  0  0  0  0  0  0  0  0  0  0  0
  -18.7973  -25.7923   22.2765 C   0  0  0  0  0  0  0  0  0  0  0  0
  -25.2001  -16.3191   18.3153 C   0  0  0  0  0  0  0  0  0  0  0  0
  -26.3989  -16.2680   16.2183 C   0  0  0  0  0  0  0  0  0  0  0  0
  -17.1458  -27.4642   22.8177 C   0  0  0  0  0  0  0  0  0  0  0  0
  -19.6621  -26.7934   21.8358 C   0  0  0  0  0  0  0  0  0  0  0  0
  -25.7667  -26.8616   22.3215 C   0  0  0  0  0  0  0  0  0  0  0  0
  -32.1270  -22.6510   13.0175 C   0  0  0  0  0  0  0  0  0  0  0  0
  -31.7495  -22.0614   14.2239 C   0  0  0  0  0  0  0  0  0  0  0  0
  -24.0656  -15.8155   17.6790 C   0  0  0  0  0  0  0  0  0  0  0  0
  -25.2644  -15.7644   15.5820 C   0  0  0  0  0  0  0  0  0  0  0  0
  -26.7828  -26.5443   21.4212 C   0  0  0  0  0  0  0  0  0  0  0  0
  -22.9429  -12.8163   16.5941 C   0  0  0  0  0  0  0  0  0  0  0  0
  -22.2488  -11.7851   17.2268 C   0  0  0  0  0  0  0  0  0  0  0  0
  -26.9850  -28.8760   20.8369 C   0  0  0  0  0  0  0  0  0  0  0  0
  -31.3966  -24.2504   15.1834 C   0  0  0  0  0  0  0  0  0  0  0  0
  -20.2702  -13.1690   17.3117 C   0  0  0  0  0  0  0  0  0  0  0  0
  -26.3668  -16.5454   17.5849 C   0  0  0  0  0  0  0  0  0  0  0  0
  -28.5715  -16.3274   18.8496 C   0  0  0  0  0  0  0  0  0  0  0  0
  -18.0099  -28.4830   22.3863 C   0  0  0  0  0  0  0  0  0  0  0  0
  -25.3438  -28.1894   22.4785 C   0  0  0  0  0  0  0  0  0  0  0  0
  -19.2793  -28.1448   21.8797 C   0  0  0  0  0  0  0  0  0  0  0  0
  -25.9650  -29.2078   21.7416 C   0  0  0  0  0  0  0  0  0  0  0  0
  -32.1395  -24.0404   12.8940 C   0  0  0  0  0  0  0  0  0  0  0  0
  -31.7742  -24.8401   13.9770 C   0  0  0  0  0  0  0  0  0  0  0  0
  -31.3842  -22.8611   15.3068 C   0  0  0  0  0  0  0  0  0  0  0  0
  -24.0977  -15.5381   16.3124 C   0  0  0  0  0  0  0  0  0  0  0  0
  -27.3902  -27.5511   20.6766 C   0  0  0  0  0  0  0  0  0  0  0  0
  -22.3007  -14.0239   16.3202 C   0  0  0  0  0  0  0  0  0  0  0  0
  -20.9124  -11.9614   17.5856 C   0  0  0  0  0  0  0  0  0  0  0  0
  -20.9643  -14.2002   16.6790 C   0  0  0  0  0  0  0  0  0  0  0  0
  -27.5389  -17.0662   18.2415 C   0  0  0  0  0  0  0  0  0  0  0  0
  -29.4416  -17.2789   19.3229 C   0  0  0  0  0  0  0  0  0  0  0  0
  -30.0180  -27.9304   16.8410 C   0  0  0  0  0  0  0  0  0  0  0  0
  -30.0295  -27.7843   18.1734 C   0  0  0  0  0  0  0  0  0  0  0  0
  -28.7300  -14.9080   18.9754 C   0  0  0  0  0  0  0  0  0  0  0  0
  -31.1136  -27.3413   16.0179 C   0  0  0  0  0  0  0  0  0  0  0  0
  -22.6085  -29.7417   22.0184 C   0  0  0  0  0  0  0  0  0  0  0  0
  -24.2320  -32.2064   23.3644 C   0  0  0  0  0  0  0  0  0  0  0  0
  -27.2420  -33.6535   24.0661 C   0  0  0  0  0  0  0  0  0  0  0  0
  -30.6076  -22.9110   17.7028 C   0  0  0  0  0  0  0  0  0  0  0  0
  -17.5221  -29.9098   22.4165 C   0  0  0  0  0  0  0  0  0  0  0  0
  -24.2647  -28.5185   23.4733 C   0  0  0  0  0  0  0  0  0  0  0  0
  -25.5617  -30.6516   21.8880 C   0  0  0  0  0  0  0  0  0  0  0  0
  -18.6411  -30.9390   22.2793 C   0  0  0  0  0  0  0  0  0  0  0  0
  -29.5492  -21.7947   20.9138 C   0  0  0  0  0  0  0  0  0  0  0  0
  -19.5831  -30.5552   21.1425 C   0  0  0  0  0  0  0  0  0  0  0  0
  -29.0132  -20.3858   20.6493 C   0  0  0  0  0  0  0  0  0  0  0  0
  -29.2294  -22.7483   19.7641 C   0  0  0  0  0  0  0  0  0  0  0  0
  -29.1106  -20.8727   18.1713 C   0  0  0  0  0  0  0  0  0  0  0  0
  -20.2551  -29.2041   21.4153 C   0  0  1  0  0  0  0  0  0  0  0  0
  -23.5610  -29.8391   23.1763 C   0  0  1  0  0  0  0  0  0  0  0  0
  -29.4650  -19.8602   19.2727 C   0  0  2  0  0  0  0  0  0  0  0  0
  -32.5482  -24.6488   11.5927 C   0  0  0  0  0  0  0  0  0  0  0  0
  -29.2635  -28.3820   13.4505 C   0  0  0  0  0  0  0  0  0  0  0  0
  -28.2479  -35.6842   25.1441 C   0  0  0  0  0  0  0  0  0  0  0  0
  -23.4744  -33.8741   20.9242 C   0  0  0  0  0  0  0  0  0  0  0  0
  -25.2479  -35.5144   21.5813 C   0  0  0  0  0  0  0  0  0  0  0  0
  -23.3200  -35.0873   23.1056 C   0  0  0  0  0  0  0  0  0  0  0  0
  -28.6700  -32.0204   26.0792 C   0  0  0  0  0  0  0  0  0  0  0  0
  -31.7780  -26.3374   13.8668 C   0  0  0  0  0  0  0  0  0  0  0  0
  -28.9602  -28.3252   19.0667 C   0  0  0  0  0  0  0  0  0  1  0  0
  -29.4351  -27.0686   14.1348 C   0  0  0  0  0  0  0  0  0  0  0  0
  -25.1088  -33.3198   22.8444 C   0  0  1  0  0  0  0  0  0  0  0  0
  -27.8010  -34.2449   25.3476 C   0  0  2  0  0  0  0  0  0  0  0  0
  -24.2943  -34.4216   22.1095 C   0  0  0  0  0  0  0  0  0  0  0  0
  -27.7334  -18.3853   18.3200 N   0  0  0  0  0  0  0  0  0  0  0  0
  -28.8983  -18.4829   18.9831 N   0  0  0  0  0  0  0  0  0  0  0  0
  -24.4976  -30.9220   22.8689 N   0  0  0  0  0  0  0  0  0  0  0  0
  -29.6901  -22.1864   18.4925 N   0  0  0  0  0  0  0  0  0  0  0  0
  -30.6107  -17.1948   19.9926 N   0  0  0  0  0  0  0  0  0  0  0  0
  -27.7426  -14.0747   18.4321 N   0  0  0  0  0  0  0  0  0  0  0  0
  -30.9986  -22.2625   16.5318 N   0  0  0  0  0  0  0  0  0  0  0  0
  -21.3292  -29.3582   22.3730 N   0  0  0  0  0  0  0  0  0  0  0  0
  -25.8737  -33.8050   23.9881 N   0  0  0  0  0  0  0  0  0  0  0  0
  -30.7687  -26.9497   14.7212 N   0  0  0  0  0  0  0  0  0  0  0  0
  -28.9718  -33.4511   25.8168 N   0  3  0  0  0  0  0  0  0  0  0  0
  -29.7097  -14.3942   19.5668 O   0  0  0  0  0  0  0  0  0  0  0  0
  -32.2370  -27.2036   16.5043 O   0  0  0  0  0  0  0  0  0  0  0  0
  -23.0044  -29.9971   20.8872 O   0  0  0  0  0  0  0  0  0  0  0  0
  -23.3488  -32.4656   24.1856 O   0  0  0  0  0  0  0  0  0  0  0  0
  -27.9490  -33.1146   23.2174 O   0  0  0  0  0  0  0  0  0  0  0  0
  -31.0373  -24.0129   18.0537 O   0  0  0  0  0  0  0  0  0  0  0  0
  -22.9909  -15.0465   15.6912 O   0  0  0  0  0  0  0  0  0  0  0  0
  -28.3819  -27.2441   19.7968 O   0  0  0  0  0  0  0  0  0  1  0  0
  -20.2455  -10.9705   18.1919 F   0  0  0  0  0  0  0  0  0  0  0  0
  -20.3417  -15.3577   16.4174 F   0  0  0  0  0  0  0  0  0  0  0  0
  1  2  1  0  0  0  0
  1  5  2  0  0  0  0
  2  6  2  0  0  0  0
  3 10  2  0  0  0  0
  3 18  1  0  0  0  0
  4 11  1  0  0  0  0
  4 18  2  0  0  0  0
  5 20  1  0  0  0  0
  6 22  1  0  0  0  0
  7 12  2  0  0  0  0
  7 21  1  0  0  0  0
  8  9  2  0  0  0  0
  8 24  1  0  0  0  0
  9 26  1  0  0  0  0
 10 27  1  0  0  0  0
 11 27  2  0  0  0  0
 12 28  1  0  0  0  0
 13 14  2  0  0  0  0
 13 29  1  0  0  0  0
 14 30  1  0  0  0  0
 15 23  1  0  0  0  0
 15 28  2  0  0  0  0
 16 25  1  0  0  0  0
 16 26  2  0  0  0  0
 17 30  2  0  0  0  0
 17 31  1  0  0  0  0
 18 32  1  0  0  0  0
 19 32  1  0  0  0  0
 19 33  2  0  0  0  0
 19 36  1  0  0  0  0
 20 22  2  0  0  0  0
 20 42  1  0  0  0  0
 21 23  2  0  0  0  0
 21 43  1  0  0  0  0
 22 51  1  0  0  0  0
 23 44  1  0  0  0  0
 24 25  2  0  0  0  0
 24 54  1  0  0  0  0
 25 61  1  0  0  0  0
 26 73  1  0  0  0  0
 27 84  1  0  0  0  0
 28 85  1  0  0  0  0
 29 31  2  0  0  0  0
 29 84  1  0  0  0  0
 30 86  1  0  0  0  0
 31 87  1  0  0  0  0
 32 67  2  0  0  0  0
 33 68  1  0  0  0  0
 33 71  1  0  0  0  0
 34 35  2  0  0  0  0
 34 37  1  0  0  0  0
 35 62  1  0  0  0  0
 36 72  1  0  0  0  0
 36 78  2  0  0  0  0
 37 76  1  0  0  0  0
 37 79  2  0  0  0  0
 38 52  1  0  0  0  0
 38 74  1  0  0  0  0
 38 80  2  0  0  0  0
 39 64  1  0  0  0  0
 39 69  1  0  0  0  0
 39 81  2  0  0  0  0
 40 65  1  0  0  0  0
 40 75  1  0  0  0  0
 40 82  2  0  0  0  0
 41 70  1  0  0  0  0
 41 73  1  0  0  0  0
 41 83  2  0  0  0  0
 42 45  1  0  0  0  0
 43 52  1  0  0  0  0
 44 69  1  0  0  0  0
 45 47  1  0  0  0  0
 46 48  1  0  0  0  0
 46 49  1  0  0  0  0
 47 51  1  0  0  0  0
 48 53  1  0  0  0  0
 49 70  1  0  0  0  0
 50 53  1  0  0  0  0
 50 70  1  0  0  0  0
 51 74  1  0  0  0  0
 52 69  1  0  0  0  0
 53 68  1  0  0  0  0
 55 63  1  0  0  0  0
 56 65  1  0  0  0  0
 57 66  1  0  0  0  0
 58 66  1  0  0  0  0
 59 66  1  0  0  0  0
 60 77  1  0  0  0  0
 61 76  1  0  0  0  0
 62 85  1  0  0  0  0
 63 76  1  0  0  0  0
 64 66  1  0  0  0  0
 64 75  1  0  0  0  0
 65 77  1  0  0  0  0
 67 68  1  0  0  0  0
M  CHG  1  77   1
M  ISO  4  41 100  62 101  73 100  85 101
M  END
> <Batch ID>
0054

> <Smiles>
CCN(Cc1cc([100NH:0][100C:0](=O)N2CCCC(n3nc(-c4ccc(Oc5ccc(F)cc5F)cc4)c(C(N)=O)c3N)C2)ccc1C)C(=O)C=C[101CH2:1][101O:1]c1ccc2c(c1)CN(C(=O)C(NC(=O)C(C)NC)C(C)(C)C)C(C(=O)NC1CCCc3ccccc31)C2

> <Shape>
0.231

> <Color>
0.091

> <Negative vol penalty>
0.000

$$$$

  -OEChem-04042322463D

 84 92  0     1  0  0  0  0  0999 V2000
  -21.3106  -12.7321   20.5384 C   0  0  0  0  0  0  0  0  0  0  0  0
  -21.4660  -14.1047   20.7036 C   0  0  0  0  0  0  0  0  0  0  0  0
  -30.4301  -26.6017   19.9402 C   0  0  0  0  0  0  0  0  0  0  0  0
  -29.6215  -25.6801   22.0221 C   0  0  0  0  0  0  0  0  0  0  0  0
  -22.4236  -11.8942   20.5925 C   0  0  0  0  0  0  0  0  0  0  0  0
  -22.7346  -14.6400   20.9241 C   0  0  0  0  0  0  0  0  0  0  0  0
  -23.6079  -18.7783   18.1390 C   0  0  0  0  0  0  0  0  0  0  0  0
  -19.5957  -29.0777   22.9935 C   0  0  0  0  0  0  0  0  0  0  0  0
  -31.7389  -26.2961   20.3133 C   0  0  0  0  0  0  0  0  0  0  0  0
  -30.9303  -25.3745   22.3952 C   0  0  0  0  0  0  0  0  0  0  0  0
  -23.0359  -19.9723   18.5760 C   0  0  0  0  0  0  0  0  0  0  0  0
  -34.1206  -27.5930   22.3307 C   0  0  0  0  0  0  0  0  0  0  0  0
  -18.3921  -28.6436   23.5488 C   0  0  0  0  0  0  0  0  0  0  0  0
  -35.0960  -28.5694   22.1287 C   0  0  0  0  0  0  0  0  0  0  0  0
  -25.1492  -20.6252   19.5388 C   0  0  0  0  0  0  0  0  0  0  0  0
  -18.7412  -26.4524   22.5928 C   0  0  0  0  0  0  0  0  0  0  0  0
  -36.3014  -27.0641   20.6733 C   0  0  0  0  0  0  0  0  0  0  0  0
  -29.3713  -26.2937   20.7946 C   0  0  0  0  0  0  0  0  0  0  0  0
  -27.1237  -25.7884   19.6990 C   0  0  0  0  0  0  0  0  0  0  0  0
  -23.7077  -12.4205   20.8041 C   0  0  0  0  0  0  0  0  0  0  0  0
  -24.9542  -18.4935   18.4085 C   0  0  0  0  0  0  0  0  0  0  0  0
  -23.8657  -13.8082   20.9825 C   0  0  0  0  0  0  0  0  0  0  0  0
  -25.7365  -19.4280   19.1019 C   0  0  0  0  0  0  0  0  0  0  0  0
  -20.3721  -28.1992   22.2377 C   0  0  0  0  0  0  0  0  0  0  0  0
  -31.9890  -25.6826   21.5408 C   0  0  0  0  0  0  0  0  0  0  0  0
  -23.8058  -20.8947   19.2785 C   0  0  0  0  0  0  0  0  0  0  0  0
  -34.2356  -26.3521   21.7041 C   0  0  0  0  0  0  0  0  0  0  0  0
  -19.9449  -26.8866   22.0374 C   0  0  0  0  0  0  0  0  0  0  0  0
  -17.9648  -27.3310   23.3485 C   0  0  0  0  0  0  0  0  0  0  0  0
  -36.1864  -28.3050   21.3000 C   0  0  0  0  0  0  0  0  0  0  0  0
  -35.3260  -26.0877   20.8754 C   0  0  0  0  0  0  0  0  0  0  0  0
  -28.0191  -26.6096   20.4101 C   0  0  0  0  0  0  0  0  0  0  0  0
  -25.9803  -26.5416   19.5893 C   0  0  0  0  0  0  0  0  0  0  0  0
  -19.1631  -26.1520   19.4816 C   0  0  0  0  0  0  0  0  0  0  0  0
  -20.5226  -24.1443   19.8028 C   0  0  0  0  0  0  0  0  0  0  0  0
  -21.4419  -23.4103   20.4499 C   0  0  0  0  0  0  0  0  0  0  0  0
  -27.3088  -24.4633   19.1838 C   0  0  0  0  0  0  0  0  0  0  0  0
  -20.0888  -25.4762   20.1769 C   0  0  0  0  0  0  0  0  0  0  0  0
  -26.4864  -16.2365   20.0402 C   0  0  0  0  0  0  0  0  0  0  0  0
  -29.1167  -17.6657   18.7906 C   0  0  0  0  0  0  0  0  0  0  0  0
  -30.5381  -20.4759   17.4758 C   0  0  0  0  0  0  0  0  0  0  0  0
  -22.1487  -29.9286   21.7915 C   0  0  0  0  0  0  0  0  0  0  0  0
  -24.8748  -11.4702   20.9019 C   0  0  0  0  0  0  0  0  0  0  0  0
  -25.5632  -17.2128   17.9070 C   0  0  0  0  0  0  0  0  0  0  0  0
  -27.1919  -19.1790   19.3992 C   0  0  0  0  0  0  0  0  0  0  0  0
  -26.2317  -12.1561   20.7660 C   0  0  0  0  0  0  0  0  0  0  0  0
  -25.1476  -31.4315   20.5978 C   0  0  0  0  0  0  0  0  0  0  0  0
  -26.2864  -13.4084   21.6351 C   0  0  0  0  0  0  0  0  0  0  0  0
  -26.0884  -30.2434   20.3840 C   0  0  0  0  0  0  0  0  0  0  0  0
  -24.2602  -31.2384   21.8261 C   0  0  0  0  0  0  0  0  0  0  0  0
  -24.4498  -28.7889   21.6435 C   0  0  0  0  0  0  0  0  0  0  0  0
  -25.2286  -14.4293   21.1989 C   0  0  1  0  0  0  0  0  0  0  0  0
  -26.8087  -16.7988   18.6846 C   0  0  1  0  0  0  0  0  0  0  0  0
  -25.3183  -28.9083   20.3805 C   0  0  2  0  0  0  0  0  0  0  0  0
  -32.7143  -21.3492   16.5819 C   0  0  0  0  0  0  0  0  0  0  0  0
  -30.1926  -17.8912   21.6370 C   0  0  0  0  0  0  0  0  0  0  0  0
  -31.8522  -19.5697   20.8023 C   0  0  0  0  0  0  0  0  0  0  0  0
  -31.8953  -17.2341   19.9271 C   0  0  0  0  0  0  0  0  0  0  0  0
  -29.3611  -21.0176   14.8149 C   0  0  0  0  0  0  0  0  0  0  0  0
  -21.8570  -22.0408   20.0164 C   0  0  0  0  0  0  0  0  0  1  0  0
  -30.0300  -18.7879   19.2213 C   0  0  1  0  0  0  0  0  0  0  0  0
  -31.3885  -20.6892   16.2365 C   0  0  2  0  0  0  0  0  0  0  0  0
  -30.9646  -18.3748   20.3932 C   0  0  0  0  0  0  0  0  0  0  0  0
  -27.4902  -27.7938   20.7294 N   0  0  0  0  0  0  0  0  0  0  0  0
  -26.2501  -27.7222   20.2165 N   0  0  0  0  0  0  0  0  0  0  0  0
  -27.7398  -17.9095   18.8934 N   0  0  0  0  0  0  0  0  0  0  0  0
  -23.5589  -29.9548   21.7515 N   0  0  0  0  0  0  0  0  0  0  0  0
  -24.7807  -26.3025   19.0183 N   0  0  0  0  0  0  0  0  0  0  0  0
  -28.5453  -23.8349   19.3850 N   0  0  0  0  0  0  0  0  0  0  0  0
  -21.5924  -28.6548   21.6799 N   0  0  0  0  0  0  0  0  0  0  0  0
  -25.6616  -15.1283   20.0080 N   0  0  0  0  0  0  0  0  0  0  0  0
  -30.7344  -19.2246   18.0207 N   0  0  0  0  0  0  0  0  0  0  0  0
  -30.6718  -21.5572   15.2597 N   0  3  0  0  0  0  0  0  0  0  0  0
  -26.4101  -23.8608   18.5491 O   0  0  0  0  0  0  0  0  0  0  0  0
  -26.9527  -16.7678   21.0411 O   0  0  0  0  0  0  0  0  0  0  0  0
  -29.6069  -16.6142   18.3715 O   0  0  0  0  0  0  0  0  0  0  0  0
  -29.7788  -21.3350   17.9185 O   0  0  0  0  0  0  0  0  0  0  0  0
  -21.4829  -30.9627   21.8882 O   0  0  0  0  0  0  0  0  0  0  0  0
  -33.2660  -25.3840   21.9050 O   0  0  0  0  0  0  0  0  0  0  0  0
  -20.6885  -26.0108   21.3003 O   0  0  0  0  0  0  0  0  0  0  0  0
  -23.2499  -22.0606   19.7068 O   0  0  0  0  0  0  0  0  0  1  0  0
  -16.8091  -26.9144   23.8825 F   0  0  0  0  0  0  0  0  0  0  0  0
  -37.1222  -29.2433   21.1049 F   0  0  0  0  0  0  0  0  0  0  0  0
  -35.4414  -24.8979   20.2697 F   0  0  0  0  0  0  0  0  0  0  0  0
  1  2  1  0  0  0  0
  1  5  2  0  0  0  0
  2  6  2  0  0  0  0
  3  9  2  0  0  0  0
  3 18  1  0  0  0  0
  4 10  1  0  0  0  0
  4 18  2  0  0  0  0
  5 20  1  0  0  0  0
  6 22  1  0  0  0  0
  7 11  2  0  0  0  0
  7 21  1  0  0  0  0
  8 13  2  0  0  0  0
  8 24  1  0  0  0  0
  9 25  1  0  0  0  0
 10 25  2  0  0  0  0
 11 26  1  0  0  0  0
 12 14  2  0  0  0  0
 12 27  1  0  0  0  0
 13 29  1  0  0  0  0
 14 30  1  0  0  0  0
 15 23  1  0  0  0  0
 15 26  2  0  0  0  0
 16 28  1  0  0  0  0
 16 29  2  0  0  0  0
 17 30  2  0  0  0  0
 17 31  1  0  0  0  0
 18 32  1  0  0  0  0
 19 32  1  0  0  0  0
 19 33  2  0  0  0  0
 19 37  1  0  0  0  0
 20 22  2  0  0  0  0
 20 43  1  0  0  0  0
 21 23  2  0  0  0  0
 21 44  1  0  0  0  0
 22 52  1  0  0  0  0
 23 45  1  0  0  0  0
 24 28  2  0  0  0  0
 24 70  1  0  0  0  0
 25 79  1  0  0  0  0
 26 81  1  0  0  0  0
 27 31  2  0  0  0  0
 27 79  1  0  0  0  0
 28 80  1  0  0  0  0
 29 82  1  0  0  0  0
 30 83  1  0  0  0  0
 31 84  1  0  0  0  0
 32 64  2  0  0  0  0
 33 65  1  0  0  0  0
 33 68  1  0  0  0  0
 34 38  2  0  0  0  0
 35 36  2  0  0  0  0
 35 38  1  0  0  0  0
 36 60  1  0  0  0  0
 37 69  1  0  0  0  0
 37 74  2  0  0  0  0
 38 80  1  0  0  0  0
 39 53  1  0  0  0  0
 39 71  1  0  0  0  0
 39 75  2  0  0  0  0
 40 61  1  0  0  0  0
 40 66  1  0  0  0  0
 40 76  2  0  0  0  0
 41 62  1  0  0  0  0
 41 72  1  0  0  0  0
 41 77  2  0  0  0  0
 42 67  1  0  0  0  0
 42 70  1  0  0  0  0
 42 78  2  0  0  0  0
 43 46  1  0  0  0  0
 44 53  1  0  0  0  0
 45 66  1  0  0  0  0
 46 48  1  0  0  0  0
 47 49  1  0  0  0  0
 47 50  1  0  0  0  0
 48 52  1  0  0  0  0
 49 54  1  0  0  0  0
 50 67  1  0  0  0  0
 51 54  1  0  0  0  0
 51 67  1  0  0  0  0
 52 71  1  0  0  0  0
 53 66  1  0  0  0  0
 54 65  1  0  0  0  0
 55 62  1  0  0  0  0
 56 63  1  0  0  0  0
 57 63  1  0  0  0  0
 58 63  1  0  0  0  0
 59 73  1  0  0  0  0
 60 81  1  0  0  0  0
 61 63  1  0  0  0  0
 61 72  1  0  0  0  0
 62 73  1  0  0  0  0
 64 65  1  0  0  0  0
M  CHG  1  73   1
M  ISO  4  42 100  60 101  70 100  81 101
M  END
> <Batch ID>
0054

> <Smiles>
C=C(C=C[101CH2:1][101O:1]c1ccc2c(c1)CN(C(=O)C(NC(=O)C(C)NC)C(C)(C)C)C(C(=O)NC1CCCc3ccccc31)C2)Oc1cc(F)ccc1[100NH:0][100C:0](=O)N1CCCC(n2nc(-c3ccc(Oc4ccc(F)cc4F)cc3)c(C(N)=O)c2N)C1

> <Shape>
0.245

> <Color>
0.079

> <Negative vol penalty>
0.000

$$$$

  -OEChem-04042322463D

 87 95  0     1  0  0  0  0  0999 V2000
  -29.0679  -33.6018   25.8494 C   0  0  0  0  0  0  0  0  0  0  0  0
  -28.9719  -32.3483   25.2536 C   0  0  0  0  0  0  0  0  0  0  0  0
  -24.1723   -8.6083   20.8350 C   0  0  0  0  0  0  0  0  0  0  0  0
  -23.1636  -10.7936   21.0442 C   0  0  0  0  0  0  0  0  0  0  0  0
  -27.9108  -34.2987   26.1946 C   0  0  0  0  0  0  0  0  0  0  0  0
  -27.7186  -31.7906   25.0036 C   0  0  0  0  0  0  0  0  0  0  0  0
  -27.3916  -29.7381   20.3856 C   0  0  0  0  0  0  0  0  0  0  0  0
  -29.8196  -18.6605   22.1640 C   0  0  0  0  0  0  0  0  0  0  0  0
  -29.9231  -17.4153   21.5440 C   0  0  0  0  0  0  0  0  0  0  0  0
  -23.2648   -8.1003   21.7645 C   0  0  0  0  0  0  0  0  0  0  0  0
  -22.2560  -10.2857   21.9737 C   0  0  0  0  0  0  0  0  0  0  0  0
  -27.9772  -28.4863   20.2023 C   0  0  0  0  0  0  0  0  0  0  0  0
  -20.0348   -7.1011   21.8027 C   0  0  0  0  0  0  0  0  0  0  0  0
  -19.4221   -5.8824   21.5113 C   0  0  0  0  0  0  0  0  0  0  0  0
  -25.8099  -27.4482   20.4131 C   0  0  0  0  0  0  0  0  0  0  0  0
  -27.6278  -17.5899   20.8103 C   0  0  0  0  0  0  0  0  0  0  0  0
  -20.3671   -4.9272   23.5192 C   0  0  0  0  0  0  0  0  0  0  0  0
  -24.1218   -9.9549   20.4749 C   0  0  0  0  0  0  0  0  0  0  0  0
  -24.9012  -10.5413   18.1177 C   0  0  0  0  0  0  0  0  0  0  0  0
  -26.6425  -33.7534   25.9399 C   0  0  0  0  0  0  0  0  0  0  0  0
  -26.0099  -29.8537   20.5953 C   0  0  0  0  0  0  0  0  0  0  0  0
  -26.5434  -32.4803   25.3469 C   0  0  0  0  0  0  0  0  0  0  0  0
  -25.2088  -28.7029   20.5963 C   0  0  0  0  0  0  0  0  0  0  0  0
  -28.6202  -19.3704   22.1072 C   0  0  0  0  0  0  0  0  0  0  0  0
  -27.5243  -18.8351   21.4304 C   0  0  0  0  0  0  0  0  0  0  0  0
  -28.8272  -16.8800   20.8671 C   0  0  0  0  0  0  0  0  0  0  0  0
  -22.3066   -8.9390   22.3338 C   0  0  0  0  0  0  0  0  0  0  0  0
  -27.1868  -27.3408   20.2189 C   0  0  0  0  0  0  0  0  0  0  0  0
  -20.8137   -7.2329   22.9523 C   0  0  0  0  0  0  0  0  0  0  0  0
  -19.5882   -4.7954   22.3695 C   0  0  0  0  0  0  0  0  0  0  0  0
  -20.9799   -6.1459   23.8106 C   0  0  0  0  0  0  0  0  0  0  0  0
  -25.0594  -10.4803   19.5152 C   0  0  0  0  0  0  0  0  0  0  0  0
  -26.0614  -11.1211   17.6658 C   0  0  0  0  0  0  0  0  0  0  0  0
  -28.1479  -23.9695   20.9636 C   0  0  0  0  0  0  0  0  0  0  0  0
  -27.6266  -25.1959   21.0416 C   0  0  0  0  0  0  0  0  0  1  0  0
  -23.8036  -10.1124   17.3011 C   0  0  0  0  0  0  0  0  0  0  0  0
  -27.9692  -23.0149   22.0895 C   0  0  0  0  0  0  0  0  0  0  0  0
  -24.1828  -30.9356   22.9607 C   0  0  0  0  0  0  0  0  0  0  0  0
  -21.7910  -30.4028   20.8351 C   0  0  0  0  0  0  0  0  0  0  0  0
  -20.6830  -28.7155   18.0834 C   0  0  0  0  0  0  0  0  0  0  0  0
  -30.0495  -14.7823   20.1948 C   0  0  0  0  0  0  0  0  0  0  0  0
  -25.4206  -34.5237   26.3740 C   0  0  0  0  0  0  0  0  0  0  0  0
  -25.3897  -31.2135   20.7648 C   0  0  0  0  0  0  0  0  0  0  0  0
  -23.7179  -28.7746   20.7973 C   0  0  0  0  0  0  0  0  0  0  0  0
  -24.1275  -34.0258   25.7336 C   0  0  0  0  0  0  0  0  0  0  0  0
  -30.6970  -11.5814   18.7765 C   0  0  0  0  0  0  0  0  0  0  0  0
  -24.0467  -32.5043   25.8072 C   0  0  0  0  0  0  0  0  0  0  0  0
  -29.3097  -10.9437   18.6721 C   0  0  0  0  0  0  0  0  0  0  0  0
  -30.8373  -12.4308   20.0384 C   0  0  0  0  0  0  0  0  0  0  0  0
  -28.4040  -12.8069   20.1196 C   0  0  0  0  0  0  0  0  0  0  0  0
  -25.2016  -31.8527   25.0371 C   0  0  1  0  0  0  0  0  0  0  0  0
  -24.0446  -31.1715   21.4832 C   0  0  1  0  0  0  0  0  0  0  0  0
  -28.1932  -11.9941   18.8317 C   0  0  2  0  0  0  0  0  0  0  0  0
  -18.6715  -28.4644   16.6042 C   0  0  0  0  0  0  0  0  0  0  0  0
  -20.4204  -28.7292   22.9871 C   0  0  0  0  0  0  0  0  0  0  0  0
  -18.9598  -27.7561   21.2016 C   0  0  0  0  0  0  0  0  0  0  0  0
  -18.8839  -30.2039   21.6761 C   0  0  0  0  0  0  0  0  0  0  0  0
  -22.1762  -29.6375   15.7002 C   0  0  0  0  0  0  0  0  0  0  0  0
  -28.5328  -20.7083   22.7829 C   0  0  0  0  0  0  0  0  0  0  0  0
  -20.8996  -29.2313   20.5002 C   0  0  1  0  0  0  0  0  0  0  0  0
  -19.9886  -29.1931   16.8208 C   0  0  2  0  0  0  0  0  0  0  0  0
  -26.2309  -19.5780   21.3547 C   0  0  0  0  0  0  0  0  0  0  0  0
  -19.8193  -28.9783   21.5894 C   0  0  0  0  0  0  0  0  0  0  0  0
  -26.2281  -10.9812   19.9242 N   0  0  0  0  0  0  0  0  0  0  0  0
  -26.8148  -11.3624   18.7768 N   0  0  0  0  0  0  0  0  0  0  0  0
  -23.1594  -30.1264   20.9649 N   0  0  0  0  0  0  0  0  0  0  0  0
  -29.7478  -13.4060   20.1202 N   0  0  0  0  0  0  0  0  0  0  0  0
  -26.5005  -11.4428   16.4305 N   0  0  0  0  0  0  0  0  0  0  0  0
  -22.6895   -9.5373   17.9275 N   0  0  0  0  0  0  0  0  0  0  0  0
  -28.9324  -15.6160   20.2354 N   0  0  0  0  0  0  0  0  0  0  0  0
  -28.5746  -21.7964   21.8345 N   0  0  0  0  0  0  0  0  0  0  0  0
  -24.9429  -31.8870   23.6136 N   0  0  0  0  0  0  0  0  0  0  0  0
  -20.3582  -29.4970   19.1719 N   0  0  0  0  0  0  0  0  0  0  0  0
  -20.8563  -28.9590   15.6321 N   0  3  0  0  0  0  0  0  0  0  0  0
  -23.8174  -10.2204   16.0514 O   0  0  0  0  0  0  0  0  0  0  0  0
  -27.3510  -23.3033   23.1092 O   0  0  0  0  0  0  0  0  0  0  0  0
  -23.6387  -29.9632   23.4707 O   0  0  0  0  0  0  0  0  0  0  0  0
  -21.2924  -31.5231   20.9694 O   0  0  0  0  0  0  0  0  0  0  0  0
  -21.4353  -27.7438   18.1028 O   0  0  0  0  0  0  0  0  0  0  0  0
  -31.2129  -15.1927   20.1933 O   0  0  0  0  0  0  0  0  0  0  0  0
  -21.4207   -8.4437   23.2407 O   0  0  0  0  0  0  0  0  0  0  0  0
  -27.7560  -26.1176   20.0409 O   0  0  0  0  0  0  0  0  0  1  0  0
  -18.9986   -3.6256   22.0904 F   0  0  0  0  0  0  0  0  0  0  0  0
  -21.7260   -6.2668   24.9171 F   0  0  0  0  0  0  0  0  0  0  0  0
  -25.2624  -18.9172   20.6554 F   0  0  0  0  0  0  0  0  0  0  0  0
  -25.6781  -19.8348   22.5761 F   0  0  0  0  0  0  0  0  0  0  0  0
  -26.3600  -20.7922   20.7466 F   0  0  0  0  0  0  0  0  0  0  0  0
  1  2  1  0  0  0  0
  1  5  2  0  0  0  0
  2  6  2  0  0  0  0
  3 10  2  0  0  0  0
  3 18  1  0  0  0  0
  4 11  1  0  0  0  0
  4 18  2  0  0  0  0
  5 20  1  0  0  0  0
  6 22  1  0  0  0  0
  7 12  2  0  0  0  0
  7 21  1  0  0  0  0
  8  9  2  0  0  0  0
  8 24  1  0  0  0  0
  9 26  1  0  0  0  0
 10 27  1  0  0  0  0
 11 27  2  0  0  0  0
 12 28  1  0  0  0  0
 13 14  2  0  0  0  0
 13 29  1  0  0  0  0
 14 30  1  0  0  0  0
 15 23  1  0  0  0  0
 15 28  2  0  0  0  0
 16 25  1  0  0  0  0
 16 26  2  0  0  0  0
 17 30  2  0  0  0  0
 17 31  1  0  0  0  0
 18 32  1  0  0  0  0
 19 32  1  0  0  0  0
 19 33  2  0  0  0  0
 19 36  1  0  0  0  0
 20 22  2  0  0  0  0
 20 42  1  0  0  0  0
 21 23  2  0  0  0  0
 21 43  1  0  0  0  0
 22 51  1  0  0  0  0
 23 44  1  0  0  0  0
 24 25  2  0  0  0  0
 24 59  1  0  0  0  0
 25 62  1  0  0  0  0
 26 70  1  0  0  0  0
 27 81  1  0  0  0  0
 28 82  1  0  0  0  0
 29 31  2  0  0  0  0
 29 81  1  0  0  0  0
 30 83  1  0  0  0  0
 31 84  1  0  0  0  0
 32 64  2  0  0  0  0
 33 65  1  0  0  0  0
 33 68  1  0  0  0  0
 34 35  2  0  0  0  0
 34 37  1  0  0  0  0
 35 82  1  0  0  0  0
 36 69  1  0  0  0  0
 36 75  2  0  0  0  0
 37 71  1  0  0  0  0
 37 76  2  0  0  0  0
 38 52  1  0  0  0  0
 38 72  1  0  0  0  0
 38 77  2  0  0  0  0
 39 60  1  0  0  0  0
 39 66  1  0  0  0  0
 39 78  2  0  0  0  0
 40 61  1  0  0  0  0
 40 73  1  0  0  0  0
 40 79  2  0  0  0  0
 41 67  1  0  0  0  0
 41 70  1  0  0  0  0
 41 80  2  0  0  0  0
 42 45  1  0  0  0  0
 43 52  1  0  0  0  0
 44 66  1  0  0  0  0
 45 47  1  0  0  0  0
 46 48  1  0  0  0  0
 46 49  1  0  0  0  0
 47 51  1  0  0  0  0
 48 53  1  0  0  0  0
 49 67  1  0  0  0  0
 50 53  1  0  0  0  0
 50 67  1  0  0  0  0
 51 72  1  0  0  0  0
 52 66  1  0  0  0  0
 53 65  1  0  0  0  0
 54 61  1  0  0  0  0
 55 63  1  0  0  0  0
 56 63  1  0  0  0  0
 57 63  1  0  0  0  0
 58 74  1  0  0  0  0
 59 71  1  0  0  0  0
 60 63  1  0  0  0  0
 60 73  1  0  0  0  0
 61 74  1  0  0  0  0
 62 85  1  0  0  0  0
 62 86  1  0  0  0  0
 62 87  1  0  0  0  0
 64 65  1  0  0  0  0
M  CHG  1  74   1
M  ISO  4  35 101  41 100  70 100  82 101
M  END
> <Batch ID>
0054

> <Smiles>
CNC(C)C(=O)NC(C(=O)N1Cc2cc([101O:1][101CH:1]=CC(=O)NCc3ccc([100NH:0][100C:0](=O)N4CCCC(n5nc(-c6ccc(Oc7ccc(F)cc7F)cc6)c(C(N)=O)c5N)C4)cc3C(F)(F)F)ccc2CC1C(=O)NC1CCCc2ccccc21)C(C)(C)C

> <Shape>
0.293

> <Color>
0.091

> <Negative vol penalty>
0.000

$$$$

  -OEChem-04042322463D

 85 94  0     1  0  0  0  0  0999 V2000
  -33.3204  -16.5088   23.6197 C   0  0  0  0  0  0  0  0  0  0  0  0
  -32.7097  -17.7587   23.6106 C   0  0  0  0  0  0  0  0  0  0  0  0
  -18.2126  -26.1885   20.3014 C   0  0  0  0  0  0  0  0  0  0  0  0
  -27.0574  -25.7244   18.3032 C   0  0  0  0  0  0  0  0  0  0  0  0
  -28.4467  -26.1698   20.2290 C   0  0  0  0  0  0  0  0  0  0  0  0
  -32.9623  -15.5523   22.6706 C   0  0  0  0  0  0  0  0  0  0  0  0
  -31.7412  -18.0533   22.6515 C   0  0  0  0  0  0  0  0  0  0  0  0
  -24.3696  -20.4718   23.5661 C   0  0  0  0  0  0  0  0  0  0  0  0
  -18.6528  -27.3982   20.8384 C   0  0  0  0  0  0  0  0  0  0  0  0
  -18.3411  -25.0107   21.0376 C   0  0  0  0  0  0  0  0  0  0  0  0
  -27.7016  -24.5007   18.1215 C   0  0  0  0  0  0  0  0  0  0  0  0
  -29.0909  -24.9460   20.0473 C   0  0  0  0  0  0  0  0  0  0  0  0
  -23.0030  -20.7497   23.6035 C   0  0  0  0  0  0  0  0  0  0  0  0
  -31.4980  -23.6709   18.0447 C   0  0  0  0  0  0  0  0  0  0  0  0
  -32.8895  -23.6506   18.1397 C   0  0  0  0  0  0  0  0  0  0  0  0
  -22.7144  -19.6719   21.4580 C   0  0  0  0  0  0  0  0  0  0  0  0
  -19.3504  -26.2523   22.8478 C   0  0  0  0  0  0  0  0  0  0  0  0
  -32.7414  -22.0815   19.9709 C   0  0  0  0  0  0  0  0  0  0  0  0
  -27.4300  -26.5590   19.3570 C   0  0  0  0  0  0  0  0  0  0  0  0
  -26.7070  -28.8967   18.6356 C   0  0  0  0  0  0  0  0  0  0  0  0
  -31.9820  -15.8319   21.7055 C   0  0  0  0  0  0  0  0  0  0  0  0
  -24.9118  -19.7785   22.4804 C   0  0  0  0  0  0  0  0  0  0  0  0
  -31.3707  -17.1001   21.6878 C   0  0  0  0  0  0  0  0  0  0  0  0
  -24.0804  -19.3798   21.4209 C   0  0  0  0  0  0  0  0  0  0  0  0
  -19.2218  -27.4301   22.1116 C   0  0  0  0  0  0  0  0  0  0  0  0
  -18.9101  -25.0426   22.3108 C   0  0  0  0  0  0  0  0  0  0  0  0
  -28.7183  -24.1114   18.9935 C   0  0  0  0  0  0  0  0  0  0  0  0
  -22.1775  -20.3510   22.5519 C   0  0  0  0  0  0  0  0  0  0  0  0
  -30.7282  -22.8966   18.9128 C   0  0  0  0  0  0  0  0  0  0  0  0
  -33.5112  -22.8559   19.1028 C   0  0  0  0  0  0  0  0  0  0  0  0
  -31.3500  -22.1019   19.8759 C   0  0  0  0  0  0  0  0  0  0  0  0
  -26.7653  -27.8236   19.5449 C   0  0  0  0  0  0  0  0  0  0  0  0
  -25.9648  -29.8546   19.2821 C   0  0  0  0  0  0  0  0  0  0  0  0
  -18.4380  -23.6442   24.3170 C   0  0  0  0  0  0  0  0  0  0  0  0
  -17.3358  -24.2719   24.7715 C   0  0  0  0  0  0  0  0  0  0  0  0
  -27.2731  -29.0169   17.3238 C   0  0  0  0  0  0  0  0  0  0  0  0
  -27.9693  -18.3003   20.8858 C   0  0  0  0  0  0  0  0  0  0  0  0
  -25.6742  -16.3193   20.4183 C   0  0  0  0  0  0  0  0  0  0  0  0
  -22.9872  -14.2185   20.4833 C   0  0  0  0  0  0  0  0  0  0  0  0
  -21.8322  -29.5803   23.6063 C   0  0  0  0  0  0  0  0  0  0  0  0
  -31.6621  -14.7826   20.6705 C   0  0  0  0  0  0  0  0  0  0  0  0
  -26.3884  -19.5116   22.3691 C   0  0  0  0  0  0  0  0  0  0  0  0
  -24.7133  -18.6669   20.2573 C   0  0  0  0  0  0  0  0  0  0  0  0
  -19.0770  -22.6066   25.2198 C   0  0  0  0  0  0  0  0  0  0  0  0
  -30.3582  -15.0439   19.9210 C   0  0  0  0  0  0  0  0  0  0  0  0
  -19.5399  -21.3762   24.4538 C   0  0  0  0  0  0  0  0  0  0  0  0
  -24.8795  -31.4206   23.6708 C   0  0  0  0  0  0  0  0  0  0  0  0
  -30.2821  -16.5003   19.4740 C   0  0  0  0  0  0  0  0  0  0  0  0
  -25.7031  -30.8042   22.5387 C   0  0  0  0  0  0  0  0  0  0  0  0
  -24.0431  -30.3695   24.3972 C   0  0  0  0  0  0  0  0  0  0  0  0
  -24.0021  -28.9378   22.3916 C   0  0  0  0  0  0  0  0  0  0  0  0
  -19.7155  -22.7387   22.3514 C   0  0  0  0  0  0  0  0  0  0  0  0
  -30.2980  -17.4488   20.6789 C   0  0  1  0  0  0  0  0  0  0  0  0
  -26.7092  -18.1682   21.6898 C   0  0  1  0  0  0  0  0  0  0  0  0
  -24.8195  -29.9679   21.5936 C   0  0  2  0  0  0  0  0  0  0  0  0
  -20.4440  -21.7916   23.3031 C   0  0  2  0  0  0  0  0  0  1  0  0
  -22.2447  -11.9460   19.7206 C   0  0  0  0  0  0  0  0  0  0  0  0
  -25.3685  -17.3778   17.5740 C   0  0  0  0  0  0  0  0  0  0  0  0
  -23.7985  -15.4828   17.1133 C   0  0  0  0  0  0  0  0  0  0  0  0
  -26.1704  -15.0139   17.7272 C   0  0  0  0  0  0  0  0  0  0  0  0
  -22.5161  -13.3125   23.2611 C   0  0  0  0  0  0  0  0  0  0  0  0
  -19.6930  -28.7235   22.6851 C   0  0  0  0  0  0  0  0  0  0  0  0
  -24.5738  -15.8522   19.4994 C   0  0  1  0  0  0  0  0  0  0  0  0
  -22.8643  -12.7511   20.8523 C   0  0  2  0  0  0  0  0  0  0  0  0
  -24.9727  -15.9498   17.9997 C   0  0  0  0  0  0  0  0  0  0  0  0
  -26.1123  -28.0755   20.6825 N   0  0  0  0  0  0  0  0  0  0  0  0
  -25.6367  -29.3180   20.4923 N   0  0  0  0  0  0  0  0  0  0  0  0
  -19.0410  -23.8399   23.0626 N   0  0  0  0  0  0  0  0  0  0  0  0
  -25.6911  -17.6810   20.7436 N   0  0  0  0  0  0  0  0  0  0  0  0
  -23.2272  -29.6126   23.4447 N   0  0  0  0  0  0  0  0  0  0  0  0
  -25.5673  -31.0951   18.9278 N   0  0  0  0  0  0  0  0  0  0  0  0
  -28.5667  -29.5418   17.1999 N   0  0  0  0  0  0  0  0  0  0  0  0
  -28.9976  -17.4820   21.3131 N   0  0  0  0  0  0  0  0  0  0  0  0
  -24.2202  -14.5062   19.9372 N   0  0  0  0  0  0  0  0  0  0  0  0
  -21.1335  -28.8454   22.6563 N   0  0  0  0  0  0  0  0  0  0  0  0
  -22.0117  -12.5914   22.0642 N   0  3  0  0  0  0  0  0  0  0  0  0
  -26.6440  -28.6844   16.2908 O   0  0  0  0  0  0  0  0  0  0  0  0
  -28.0066  -19.0854   19.9457 O   0  0  0  0  0  0  0  0  0  0  0  0
  -26.5009  -15.5022   20.8333 O   0  0  0  0  0  0  0  0  0  0  0  0
  -22.0789  -15.0277   20.6583 O   0  0  0  0  0  0  0  0  0  0  0  0
  -21.2520  -30.1676   24.5257 O   0  0  0  0  0  0  0  0  0  0  0  0
  -29.3469  -22.9173   18.8167 O   0  0  0  0  0  0  0  0  0  0  0  0
  -20.8436  -20.6215   22.5969 O   0  0  0  0  0  0  0  0  0  1  0  0
  -34.8475  -22.8353   19.1930 F   0  0  0  0  0  0  0  0  0  0  0  0
  -30.6158  -21.3550   20.7119 F   0  0  0  0  0  0  0  0  0  0  0  0
  1  2  1  0  0  0  0
  1  6  2  0  0  0  0
  2  7  2  0  0  0  0
  3  9  1  0  0  0  0
  3 10  2  0  0  0  0
  4 11  2  0  0  0  0
  4 19  1  0  0  0  0
  5 12  1  0  0  0  0
  5 19  2  0  0  0  0
  6 21  1  0  0  0  0
  7 23  1  0  0  0  0
  8 13  2  0  0  0  0
  8 22  1  0  0  0  0
  9 25  2  0  0  0  0
 10 26  1  0  0  0  0
 11 27  1  0  0  0  0
 12 27  2  0  0  0  0
 13 28  1  0  0  0  0
 14 15  2  0  0  0  0
 14 29  1  0  0  0  0
 15 30  1  0  0  0  0
 16 24  1  0  0  0  0
 16 28  2  0  0  0  0
 17 25  1  0  0  0  0
 17 26  2  0  0  0  0
 18 30  2  0  0  0  0
 18 31  1  0  0  0  0
 19 32  1  0  0  0  0
 20 32  1  0  0  0  0
 20 33  2  0  0  0  0
 20 36  1  0  0  0  0
 21 23  2  0  0  0  0
 21 41  1  0  0  0  0
 22 24  2  0  0  0  0
 22 42  1  0  0  0  0
 23 53  1  0  0  0  0
 24 43  1  0  0  0  0
 25 62  1  0  0  0  0
 26 68  1  0  0  0  0
 27 82  1  0  0  0  0
 28 83  1  0  0  0  0
 29 31  2  0  0  0  0
 29 82  1  0  0  0  0
 30 84  1  0  0  0  0
 31 85  1  0  0  0  0
 32 66  2  0  0  0  0
 33 67  1  0  0  0  0
 33 71  1  0  0  0  0
 34 35  2  0  0  0  0
 34 44  1  0  0  0  0
 34 68  1  0  0  0  0
 36 72  1  0  0  0  0
 36 77  2  0  0  0  0
 37 54  1  0  0  0  0
 37 73  1  0  0  0  0
 37 78  2  0  0  0  0
 38 63  1  0  0  0  0
 38 69  1  0  0  0  0
 38 79  2  0  0  0  0
 39 64  1  0  0  0  0
 39 74  1  0  0  0  0
 39 80  2  0  0  0  0
 40 70  1  0  0  0  0
 40 75  1  0  0  0  0
 40 81  2  0  0  0  0
 41 45  1  0  0  0  0
 42 54  1  0  0  0  0
 43 69  1  0  0  0  0
 44 46  1  0  0  0  0
 45 48  1  0  0  0  0
 46 56  1  0  0  0  0
 47 49  1  0  0  0  0
 47 50  1  0  0  0  0
 48 53  1  0  0  0  0
 49 55  1  0  0  0  0
 50 70  1  0  0  0  0
 51 55  1  0  0  0  0
 51 70  1  0  0  0  0
 52 56  1  0  0  0  0
 52 68  1  0  0  0  0
 53 73  1  0  0  0  0
 54 69  1  0  0  0  0
 55 67  1  0  0  0  0
 56 83  1  0  0  0  0
 57 64  1  0  0  0  0
 58 65  1  0  0  0  0
 59 65  1  0  0  0  0
 60 65  1  0  0  0  0
 61 76  1  0  0  0  0
 62 75  1  0  0  0  0
 63 65  1  0  0  0  0
 63 74  1  0  0  0  0
 64 76  1  0  0  0  0
 66 67  1  0  0  0  0
M  CHG  1  76   1
M  ISO  4  40 100  56 101  75 100  83 101
M  END
> <Batch ID>
0054

> <Smiles>
C=C1CC[101CH:1]([101O:1]c2ccc3c(c2)CN(C(=O)C(NC(=O)C(C)NC)C(C)(C)C)C(C(=O)NC2CCCc4ccccc42)C3)CN1c1cccc(C[100NH:0][100C:0](=O)N2CCCC(n3nc(-c4ccc(Oc5ccc(F)cc5F)cc4)c(C(N)=O)c3N)C2)c1

> <Shape>
0.220

> <Color>
0.084

> <Negative vol penalty>
0.000

$$$$

  -OEChem-04042322463D

 88 97  0     1  0  0  0  0  0999 V2000
  -22.7009  -10.9001   18.6300 C   0  0  0  0  0  0  0  0  0  0  0  0
  -22.2663  -12.2193   18.5507 C   0  0  0  0  0  0  0  0  0  0  0  0
  -29.9239  -27.1243   18.7751 C   0  0  0  0  0  0  0  0  0  0  0  0
  -29.9317  -27.8102   21.0916 C   0  0  0  0  0  0  0  0  0  0  0  0
  -23.7871  -10.5728   19.4405 C   0  0  0  0  0  0  0  0  0  0  0  0
  -22.9170  -13.2118   19.2828 C   0  0  0  0  0  0  0  0  0  0  0  0
  -23.8189  -19.0317   17.6032 C   0  0  0  0  0  0  0  0  0  0  0  0
  -31.3177  -27.0716   18.7860 C   0  0  0  0  0  0  0  0  0  0  0  0
  -31.3255  -27.7576   21.1025 C   0  0  0  0  0  0  0  0  0  0  0  0
  -23.1441  -20.2122   17.9111 C   0  0  0  0  0  0  0  0  0  0  0  0
  -33.7252  -25.3891   21.3310 C   0  0  0  0  0  0  0  0  0  0  0  0
  -34.3405  -24.7747   22.4216 C   0  0  0  0  0  0  0  0  0  0  0  0
  -24.7407  -20.6609   19.6628 C   0  0  0  0  0  0  0  0  0  0  0  0
  -17.8753  -27.2155   22.3776 C   0  0  0  0  0  0  0  0  0  0  0  0
  -19.3160  -29.1449   22.1815 C   0  0  0  0  0  0  0  0  0  0  0  0
  -35.4869  -26.8380   22.9372 C   0  0  0  0  0  0  0  0  0  0  0  0
  -29.2309  -27.4936   19.9279 C   0  0  0  0  0  0  0  0  0  0  0  0
  -26.9019  -26.4910   19.6485 C   0  0  0  0  0  0  0  0  0  0  0  0
  -24.4575  -11.5634   20.1754 C   0  0  0  0  0  0  0  0  0  0  0  0
  -24.9553  -18.6508   18.3312 C   0  0  0  0  0  0  0  0  0  0  0  0
  -24.0123  -12.8972   20.1050 C   0  0  0  0  0  0  0  0  0  0  0  0
  -25.4297  -19.4764   19.3605 C   0  0  0  0  0  0  0  0  0  0  0  0
  -18.9634  -26.4445   22.7865 C   0  0  0  0  0  0  0  0  0  0  0  0
  -20.2278  -27.0237   22.8930 C   0  0  0  0  0  0  0  0  0  0  0  0
  -20.4041  -28.3740   22.5904 C   0  0  0  0  0  0  0  0  0  0  0  0
  -32.0185  -27.3883   19.9497 C   0  0  0  0  0  0  0  0  0  0  0  0
  -23.6033  -21.0255   18.9429 C   0  0  0  0  0  0  0  0  0  0  0  0
  -33.9908  -26.7280   21.0434 C   0  0  0  0  0  0  0  0  0  0  0  0
  -35.2213  -25.4992   23.2248 C   0  0  0  0  0  0  0  0  0  0  0  0
  -34.8716  -27.4524   21.8465 C   0  0  0  0  0  0  0  0  0  0  0  0
  -18.0516  -28.5657   22.0750 C   0  0  0  0  0  0  0  0  0  0  0  0
  -27.7911  -27.5487   19.9171 C   0  0  0  0  0  0  0  0  0  0  0  0
  -25.6542  -27.0538   19.7629 C   0  0  0  0  0  0  0  0  0  0  0  0
  -18.7710  -24.2367   20.7451 C   0  0  0  0  0  0  0  0  0  0  0  0
  -27.1789  -25.1220   19.3245 C   0  0  0  0  0  0  0  0  0  0  0  0
  -25.7096  -16.1784   20.1810 C   0  0  0  0  0  0  0  0  0  0  0  0
  -28.6419  -17.5656   20.1722 C   0  0  0  0  0  0  0  0  0  0  0  0
  -30.5057  -20.3984   19.7873 C   0  0  0  0  0  0  0  0  0  0  0  0
  -22.0056  -30.3114   22.4234 C   0  0  0  0  0  0  0  0  0  0  0  0
  -25.5970  -11.1539   21.0746 C   0  0  0  0  0  0  0  0  0  0  0  0
  -25.6876  -17.3878   17.9691 C   0  0  0  0  0  0  0  0  0  0  0  0
  -26.6568  -19.1227   20.1589 C   0  0  0  0  0  0  0  0  0  0  0  0
  -19.3691  -23.2165   19.7968 C   0  0  0  0  0  0  0  0  0  0  0  0
  -26.4665  -12.3240   21.5273 C   0  0  0  0  0  0  0  0  0  0  0  0
  -24.2512  -31.9008   20.1632 C   0  0  0  0  0  0  0  0  0  0  0  0
  -25.5963  -13.4841   22.0003 C   0  0  0  0  0  0  0  0  0  0  0  0
  -25.2992  -30.8232   19.8756 C   0  0  0  0  0  0  0  0  0  0  0  0
  -21.2078  -22.7125   21.4562 C   0  0  0  0  0  0  0  0  0  0  0  0
  -23.7757  -31.8565   21.6143 C   0  0  0  0  0  0  0  0  0  0  0  0
  -20.0758  -22.9932   22.4430 C   0  0  0  0  0  0  0  0  0  0  0  0
  -24.3496  -29.4668   21.7849 C   0  0  0  0  0  0  0  0  0  0  0  0
  -24.7077  -14.0060   20.8647 C   0  0  1  0  0  0  0  0  0  0  0  0
  -26.5346  -16.8393   19.1132 C   0  0  1  0  0  0  0  0  0  0  0  0
  -20.8792  -23.1362   20.0165 C   0  0  1  0  0  0  0  0  0  0  0  0
  -24.8113  -29.4300   20.3189 C   0  0  2  0  0  0  0  0  0  0  0  0
  -21.3923  -26.1927   23.3322 C   0  0  0  0  0  0  0  0  0  0  0  0
  -32.8729  -21.2263   19.8770 C   0  0  0  0  0  0  0  0  0  0  0  0
  -28.5535  -17.4804   23.2209 C   0  0  0  0  0  0  0  0  0  0  0  0
  -30.4347  -19.1322   23.2521 C   0  0  0  0  0  0  0  0  0  0  0  0
  -30.7683  -16.8838   22.2244 C   0  0  0  0  0  0  0  0  0  0  0  0
  -30.4430  -21.2358   16.9494 C   0  0  0  0  0  0  0  0  0  0  0  0
  -18.7464  -24.9937   23.1061 C   0  0  0  0  0  0  0  0  0  0  0  0
  -21.5403  -22.2074   19.0021 C   0  0  0  0  0  0  0  0  0  1  0  0
  -29.3407  -18.5938   21.0285 C   0  0  1  0  0  0  0  0  0  0  0  0
  -31.7682  -20.6730   18.9904 C   0  0  2  0  0  0  0  0  0  0  0  0
  -29.7500  -18.0285   22.4179 C   0  0  0  0  0  0  0  0  0  0  0  0
  -27.1618  -28.6967   20.1821 N   0  0  0  0  0  0  0  0  0  0  0  0
  -25.8638  -28.3635   20.0804 N   0  0  0  0  0  0  0  0  0  0  0  0
  -19.2436  -24.1245   22.0528 N   0  0  0  0  0  0  0  0  0  0  0  0
  -27.3344  -17.8746   19.7710 N   0  0  0  0  0  0  0  0  0  0  0  0
  -23.3245  -30.5072   21.9618 N   0  0  0  0  0  0  0  0  0  0  0  0
  -24.4093  -26.5512   19.6218 N   0  0  0  0  0  0  0  0  0  0  0  0
  -27.2880  -24.1966   20.3714 N   0  0  0  0  0  0  0  0  0  0  0  0
  -21.6799  -28.9823   22.6914 N   0  0  0  0  0  0  0  0  0  0  0  0
  -25.4769  -14.8342   19.9610 N   0  0  0  0  0  0  0  0  0  0  0  0
  -30.4575  -19.0951   20.2348 N   0  0  0  0  0  0  0  0  0  0  0  0
  -31.4938  -21.6615   17.9094 N   0  3  0  0  0  0  0  0  0  0  0  0
  -17.9362  -25.0518   20.3561 O   0  0  0  0  0  0  0  0  0  0  0  0
  -27.3415  -24.7341   18.1427 O   0  0  0  0  0  0  0  0  0  0  0  0
  -25.3147  -16.8388   21.1348 O   0  0  0  0  0  0  0  0  0  0  0  0
  -29.2368  -16.5297   19.8644 O   0  0  0  0  0  0  0  0  0  0  0  0
  -29.6497  -21.2555   19.9953 O   0  0  0  0  0  0  0  0  0  0  0  0
  -21.2142  -31.2501   22.5441 O   0  0  0  0  0  0  0  0  0  0  0  0
  -33.3786  -27.3368   19.9607 O   0  0  0  0  0  0  0  0  0  0  0  0
  -22.9461  -22.1780   19.2460 O   0  0  0  0  0  0  0  0  0  1  0  0
  -35.8109  -24.9095   24.2730 F   0  0  0  0  0  0  0  0  0  0  0  0
  -35.1298  -28.7393   21.5759 F   0  0  0  0  0  0  0  0  0  0  0  0
  -16.7091  -29.5163   21.5694 Cl  0  0  0  0  0  0  0  0  0  0  0  0
  1  2  1  0  0  0  0
  1  5  2  0  0  0  0
  2  6  2  0  0  0  0
  3  8  2  0  0  0  0
  3 17  1  0  0  0  0
  4  9  1  0  0  0  0
  4 17  2  0  0  0  0
  5 19  1  0  0  0  0
  6 21  1  0  0  0  0
  7 10  2  0  0  0  0
  7 20  1  0  0  0  0
  8 26  1  0  0  0  0
  9 26  2  0  0  0  0
 10 27  1  0  0  0  0
 11 12  2  0  0  0  0
 11 28  1  0  0  0  0
 12 29  1  0  0  0  0
 13 22  1  0  0  0  0
 13 27  2  0  0  0  0
 14 23  1  0  0  0  0
 14 31  2  0  0  0  0
 15 25  2  0  0  0  0
 15 31  1  0  0  0  0
 16 29  2  0  0  0  0
 16 30  1  0  0  0  0
 17 32  1  0  0  0  0
 18 32  1  0  0  0  0
 18 33  2  0  0  0  0
 18 35  1  0  0  0  0
 19 21  2  0  0  0  0
 19 40  1  0  0  0  0
 20 22  2  0  0  0  0
 20 41  1  0  0  0  0
 21 52  1  0  0  0  0
 22 42  1  0  0  0  0
 23 24  2  0  0  0  0
 23 62  1  0  0  0  0
 24 25  1  0  0  0  0
 24 56  1  0  0  0  0
 25 74  1  0  0  0  0
 26 84  1  0  0  0  0
 27 85  1  0  0  0  0
 28 30  2  0  0  0  0
 28 84  1  0  0  0  0
 29 86  1  0  0  0  0
 30 87  1  0  0  0  0
 31 88  1  0  0  0  0
 32 67  2  0  0  0  0
 33 68  1  0  0  0  0
 33 72  1  0  0  0  0
 34 43  1  0  0  0  0
 34 69  1  0  0  0  0
 34 78  2  0  0  0  0
 35 73  1  0  0  0  0
 35 79  2  0  0  0  0
 36 53  1  0  0  0  0
 36 75  1  0  0  0  0
 36 80  2  0  0  0  0
 37 64  1  0  0  0  0
 37 70  1  0  0  0  0
 37 81  2  0  0  0  0
 38 65  1  0  0  0  0
 38 76  1  0  0  0  0
 38 82  2  0  0  0  0
 39 71  1  0  0  0  0
 39 74  1  0  0  0  0
 39 83  2  0  0  0  0
 40 44  1  0  0  0  0
 41 53  1  0  0  0  0
 42 70  1  0  0  0  0
 43 54  1  0  0  0  0
 44 46  1  0  0  0  0
 45 47  1  0  0  0  0
 45 49  1  0  0  0  0
 46 52  1  0  0  0  0
 47 55  1  0  0  0  0
 48 50  1  0  0  0  0
 48 54  1  0  0  0  0
 49 71  1  0  0  0  0
 50 69  1  0  0  0  0
 51 55  1  0  0  0  0
 51 71  1  0  0  0  0
 52 75  1  0  0  0  0
 53 70  1  0  0  0  0
 54 63  1  0  0  0  0
 55 68  1  0  0  0  0
 57 65  1  0  0  0  0
 58 66  1  0  0  0  0
 59 66  1  0  0  0  0
 60 66  1  0  0  0  0
 61 77  1  0  0  0  0
 62 69  1  0  0  0  0
 63 85  1  0  0  0  0
 64 66  1  0  0  0  0
 64 76  1  0  0  0  0
 65 77  1  0  0  0  0
 67 68  1  0  0  0  0
M  CHG  1  77   1
M  ISO  4  39 100  63 101  74 100  85 101
M  END
> <Batch ID>
0054

> <Smiles>
CNC(C)C(=O)NC(C(=O)N1Cc2cc([101O:1][101CH2:1]C3CCN(Cc4cc(Cl)cc([100NH:0][100C:0](=O)N5CCCC(n6nc(-c7ccc(Oc8ccc(F)cc8F)cc7)c(C(N)=O)c6N)C5)c4C)C(=O)C3)ccc2CC1C(=O)NC1CCCc2ccccc21)C(C)(C)C

> <Shape>
0.242

> <Color>
0.097

> <Negative vol penalty>
0.000

$$$$

  -OEChem-04042322463D

 96105  0     1  0  0  0  0  0999 V2000
  -29.0705  -25.4479   16.1523 C   0  0  0  0  0  0  0  0  0  0  0  0
  -27.9031  -25.3756   16.9054 C   0  0  0  0  0  0  0  0  0  0  0  0
  -20.3716  -19.9587   23.3112 C   0  0  0  0  0  0  0  0  0  0  0  0
  -21.4140  -19.9691   24.2380 C   0  0  0  0  0  0  0  0  0  0  0  0
  -24.4996   -9.1551   21.3735 C   0  0  0  0  0  0  0  0  0  0  0  0
  -22.6067  -10.3715   20.4937 C   0  0  0  0  0  0  0  0  0  0  0  0
  -30.1742  -26.1434   16.6442 C   0  0  0  0  0  0  0  0  0  0  0  0
  -27.8390  -25.9980   18.1516 C   0  0  0  0  0  0  0  0  0  0  0  0
  -23.5251  -28.5644   18.8219 C   0  0  0  0  0  0  0  0  0  0  0  0
  -20.4428  -19.1311   22.1906 C   0  0  0  0  0  0  0  0  0  0  0  0
  -22.5277  -19.1519   24.0441 C   0  0  0  0  0  0  0  0  0  0  0  0
  -23.6890   -8.0377   21.5729 C   0  0  0  0  0  0  0  0  0  0  0  0
  -21.7960   -9.2541   20.6929 C   0  0  0  0  0  0  0  0  0  0  0  0
  -22.3872  -27.8247   19.1409 C   0  0  0  0  0  0  0  0  0  0  0  0
  -21.3990   -6.9928   23.8286 C   0  0  0  0  0  0  0  0  0  0  0  0
  -21.5145   -6.3176   25.0437 C   0  0  0  0  0  0  0  0  0  0  0  0
  -19.9302  -18.9635   18.4822 C   0  0  0  0  0  0  0  0  0  0  0  0
  -22.6646  -28.4112   21.4643 C   0  0  0  0  0  0  0  0  0  0  0  0
  -18.2396  -20.5802   19.0864 C   0  0  0  0  0  0  0  0  0  0  0  0
  -22.1526   -4.3070   23.8659 C   0  0  0  0  0  0  0  0  0  0  0  0
  -23.9585  -10.3221   20.8340 C   0  0  0  0  0  0  0  0  0  0  0  0
  -20.8886  -19.7091   19.1685 C   0  0  0  0  0  0  0  0  0  0  0  0
  -25.5361  -11.7953   19.4744 C   0  0  0  0  0  0  0  0  0  0  0  0
  -30.1203  -26.7829   17.8928 C   0  0  0  0  0  0  0  0  0  0  0  0
  -24.2488  -29.2252   19.8249 C   0  0  0  0  0  0  0  0  0  0  0  0
  -28.9434  -26.7017   18.6613 C   0  0  0  0  0  0  0  0  0  0  0  0
  -23.8099  -29.1607   21.1550 C   0  0  0  0  0  0  0  0  0  0  0  0
  -21.5565  -18.3140   21.9968 C   0  0  0  0  0  0  0  0  0  0  0  0
  -18.6057  -19.3990   18.4411 C   0  0  0  0  0  0  0  0  0  0  0  0
  -19.1980  -21.3259   19.7727 C   0  0  0  0  0  0  0  0  0  0  0  0
  -20.5225  -20.8903   19.8137 C   0  0  0  0  0  0  0  0  0  0  0  0
  -22.5990  -18.3244   22.9235 C   0  0  0  0  0  0  0  0  0  0  0  0
  -22.3372   -8.0871   21.2325 C   0  0  0  0  0  0  0  0  0  0  0  0
  -21.9584  -27.7456   20.4626 C   0  0  0  0  0  0  0  0  0  0  0  0
  -21.6602   -6.3250   22.6321 C   0  0  0  0  0  0  0  0  0  0  0  0
  -21.8913   -4.9748   25.0624 C   0  0  0  0  0  0  0  0  0  0  0  0
  -22.0370   -4.9821   22.6508 C   0  0  0  0  0  0  0  0  0  0  0  0
  -24.7953  -11.4769   20.6284 C   0  0  0  0  0  0  0  0  0  0  0  0
  -26.1555  -12.9823   19.7807 C   0  0  0  0  0  0  0  0  0  0  0  0
  -24.4126  -17.4285   18.4184 C   0  0  0  0  0  0  0  0  0  0  0  0
  -23.5417  -17.1181   19.3810 C   0  0  0  0  0  0  0  0  0  0  0  0
  -22.2639  -19.2289   19.1941 C   0  0  0  0  0  0  0  0  0  0  0  0
  -25.6538  -11.0819   18.2363 C   0  0  0  0  0  0  0  0  0  0  0  0
  -27.2113  -29.0203   20.9584 C   0  0  0  0  0  0  0  0  0  0  0  0
  -26.3126  -31.6137   22.6873 C   0  0  0  0  0  0  0  0  0  0  0  0
  -19.8062  -24.8405   20.7393 C   0  0  0  0  0  0  0  0  0  0  0  0
  -23.7816  -33.4414   24.0658 C   0  0  0  0  0  0  0  0  0  0  0  0
  -24.8511  -17.4060   23.5800 C   0  0  0  0  0  0  0  0  0  0  0  0
  -31.3547  -27.4829   18.4037 C   0  0  0  0  0  0  0  0  0  0  0  0
  -25.4589  -30.0409   19.4607 C   0  0  0  0  0  0  0  0  0  0  0  0
  -24.5399  -29.8686   22.2661 C   0  0  0  0  0  0  0  0  0  0  0  0
  -31.0793  -28.4312   19.5678 C   0  0  0  0  0  0  0  0  0  0  0  0
  -27.8411  -15.4744   23.5067 C   0  0  0  0  0  0  0  0  0  0  0  0
  -30.1882  -27.7569   20.6062 C   0  0  0  0  0  0  0  0  0  0  0  0
  -27.4686  -14.2620   22.6502 C   0  0  0  0  0  0  0  0  0  0  0  0
  -26.6771  -15.9262   24.3868 C   0  0  0  0  0  0  0  0  0  0  0  0
  -25.0446  -14.9576   22.8164 C   0  0  0  0  0  0  0  0  0  0  0  0
  -28.8268  -27.3847   20.0067 C   0  0  1  0  0  0  0  0  0  0  0  0
  -26.4128  -30.2507   20.6326 C   0  0  1  0  0  0  0  0  0  0  0  0
  -26.1648  -14.5058   21.8652 C   0  0  2  0  0  0  0  0  0  0  0  0
  -17.5809  -18.6020   17.7070 C   0  0  0  0  0  0  0  0  0  0  0  0
  -21.5481  -21.6926   20.5509 C   0  0  0  0  0  0  0  0  0  0  0  0
  -23.3602  -35.4894   25.4534 C   0  0  0  0  0  0  0  0  0  0  0  0
  -27.2053  -30.1031   25.1835 C   0  0  0  0  0  0  0  0  0  0  0  0
  -25.9135  -31.7499   26.5573 C   0  0  0  0  0  0  0  0  0  0  0  0
  -27.8239  -32.5261   25.1535 C   0  0  0  0  0  0  0  0  0  0  0  0
  -22.2081  -34.7201   21.9099 C   0  0  0  0  0  0  0  0  0  0  0  0
  -21.6060  -17.4336   20.7816 C   0  0  0  0  0  0  0  0  0  0  0  0
  -18.7776  -22.5936   20.4586 C   0  0  0  0  0  0  0  0  0  0  0  0
  -20.5512  -25.8975   19.9524 C   0  0  0  0  0  0  0  0  0  1  0  0
  -25.6665  -31.8288   24.0346 C   0  0  1  0  0  0  0  0  0  0  0  0
  -23.4873  -34.9305   24.0448 C   0  0  2  0  0  0  0  0  0  0  0  0
  -26.6394  -31.5369   25.2118 C   0  0  0  0  0  0  0  0  0  0  0  0
  -24.9306  -12.3880   21.5957 N   0  0  0  0  0  0  0  0  0  0  0  0
  -25.7636  -13.2905   21.0502 N   0  0  0  0  0  0  0  0  0  0  0  0
  -25.7210  -30.6483   21.8604 N   0  0  0  0  0  0  0  0  0  0  0  0
  -25.4777  -16.1419   23.5744 N   0  0  0  0  0  0  0  0  0  0  0  0
  -26.9917  -13.7820   19.0853 N   0  0  0  0  0  0  0  0  0  0  0  0
  -24.9501   -9.8788   18.0889 N   0  0  0  0  0  0  0  0  0  0  0  0
  -23.7388  -17.5019   22.7444 N   0  0  0  0  0  0  0  0  0  0  0  0
  -27.9806  -28.5546   19.9092 N   0  0  0  0  0  0  0  0  0  0  0  0
  -19.4903  -23.7439   19.9527 N   0  0  0  0  0  0  0  0  0  0  0  0
  -25.1362  -33.1879   24.0207 N   0  0  0  0  0  0  0  0  0  0  0  0
  -22.5170  -17.9564   19.7636 N   0  0  0  0  0  0  0  0  0  0  0  0
  -22.2145  -35.1968   23.3169 N   0  3  0  0  0  0  0  0  0  0  0  0
  -23.1723  -19.9265   18.7305 O   0  0  0  0  0  0  0  0  0  0  0  0
  -26.3749  -11.4907   17.2948 O   0  0  0  0  0  0  0  0  0  0  0  0
  -27.1363  -28.5306   22.0793 O   0  0  0  0  0  0  0  0  0  0  0  0
  -27.3013  -32.2828   22.3770 O   0  0  0  0  0  0  0  0  0  0  0  0
  -19.5294  -24.9696   21.9287 O   0  0  0  0  0  0  0  0  0  0  0  0
  -22.8983  -32.5886   24.1207 O   0  0  0  0  0  0  0  0  0  0  0  0
  -25.2863  -18.3431   24.2540 O   0  0  0  0  0  0  0  0  0  0  0  0
  -21.5458   -6.9969   21.4267 O   0  0  0  0  0  0  0  0  0  0  0  0
  -20.8484  -27.0238   20.7768 O   0  0  0  0  0  0  0  0  0  1  0  0
  -22.0037   -4.3270   26.2294 F   0  0  0  0  0  0  0  0  0  0  0  0
  -22.2904   -4.3357   21.5046 F   0  0  0  0  0  0  0  0  0  0  0  0
  1  2  1  0  0  0  0
  1  7  2  0  0  0  0
  2  8  2  0  0  0  0
  3  4  1  0  0  0  0
  3 10  2  0  0  0  0
  4 11  2  0  0  0  0
  5 12  2  0  0  0  0
  5 21  1  0  0  0  0
  6 13  1  0  0  0  0
  6 21  2  0  0  0  0
  7 24  1  0  0  0  0
  8 26  1  0  0  0  0
  9 14  2  0  0  0  0
  9 25  1  0  0  0  0
 10 28  1  0  0  0  0
 11 32  1  0  0  0  0
 12 33  1  0  0  0  0
 13 33  2  0  0  0  0
 14 34  1  0  0  0  0
 15 16  2  0  0  0  0
 15 35  1  0  0  0  0
 16 36  1  0  0  0  0
 17 22  1  0  0  0  0
 17 29  2  0  0  0  0
 18 27  1  0  0  0  0
 18 34  2  0  0  0  0
 19 29  1  0  0  0  0
 19 30  2  0  0  0  0
 20 36  2  0  0  0  0
 20 37  1  0  0  0  0
 21 38  1  0  0  0  0
 22 31  2  0  0  0  0
 22 42  1  0  0  0  0
 23 38  1  0  0  0  0
 23 39  2  0  0  0  0
 23 43  1  0  0  0  0
 24 26  2  0  0  0  0
 24 49  1  0  0  0  0
 25 27  2  0  0  0  0
 25 50  1  0  0  0  0
 26 58  1  0  0  0  0
 27 51  1  0  0  0  0
 28 32  2  0  0  0  0
 28 68  1  0  0  0  0
 29 61  1  0  0  0  0
 30 31  1  0  0  0  0
 30 69  1  0  0  0  0
 31 62  1  0  0  0  0
 32 80  1  0  0  0  0
 33 93  1  0  0  0  0
 34 94  1  0  0  0  0
 35 37  2  0  0  0  0
 35 93  1  0  0  0  0
 36 95  1  0  0  0  0
 37 96  1  0  0  0  0
 38 74  2  0  0  0  0
 39 75  1  0  0  0  0
 39 78  1  0  0  0  0
 40 41  2  0  0  0  0
 41 84  1  0  0  0  0
 42 84  1  0  0  0  0
 42 86  2  0  0  0  0
 43 79  1  0  0  0  0
 43 87  2  0  0  0  0
 44 59  1  0  0  0  0
 44 81  1  0  0  0  0
 44 88  2  0  0  0  0
 45 71  1  0  0  0  0
 45 76  1  0  0  0  0
 45 89  2  0  0  0  0
 46 70  1  0  0  0  0
 46 82  1  0  0  0  0
 46 90  2  0  0  0  0
 47 72  1  0  0  0  0
 47 83  1  0  0  0  0
 47 91  2  0  0  0  0
 48 77  1  0  0  0  0
 48 80  1  0  0  0  0
 48 92  2  0  0  0  0
 49 52  1  0  0  0  0
 50 59  1  0  0  0  0
 51 76  1  0  0  0  0
 52 54  1  0  0  0  0
 53 55  1  0  0  0  0
 53 56  1  0  0  0  0
 54 58  1  0  0  0  0
 55 60  1  0  0  0  0
 56 77  1  0  0  0  0
 57 60  1  0  0  0  0
 57 77  1  0  0  0  0
 58 81  1  0  0  0  0
 59 76  1  0  0  0  0
 60 75  1  0  0  0  0
 63 72  1  0  0  0  0
 64 73  1  0  0  0  0
 65 73  1  0  0  0  0
 66 73  1  0  0  0  0
 67 85  1  0  0  0  0
 68 84  1  0  0  0  0
 69 82  1  0  0  0  0
 70 94  1  0  0  0  0
 71 73  1  0  0  0  0
 71 83  1  0  0  0  0
 72 85  1  0  0  0  0
 74 75  1  0  0  0  0
M  CHG  1  85   1
M  ISO  4  48 100  70 101  80 100  94 101
M  END
> <Batch ID>
0054

> <Smiles>
C=CN(Cc1ccccc1[100NH:0][100C:0](=O)N1CCCC(n2nc(-c3ccc(Oc4ccc(F)cc4F)cc3)c(C(N)=O)c2N)C1)C(=O)c1cc(C)cc(CNC(=O)[101CH2:1][101O:1]c2ccc3c(c2)CN(C(=O)C(NC(=O)C(C)NC)C(C)(C)C)C(C(=O)NC2CCCc4ccccc42)C3)c1C

> <Shape>
0.267

> <Color>
0.124

> <Negative vol penalty>
0.000

$$$$

  -OEChem-04042322463D

 85 93  0     1  0  0  0  0  0999 V2000
  -21.2507  -33.8062   20.8935 C   0  0  0  0  0  0  0  0  0  0  0  0
  -22.4881  -33.1717   20.9340 C   0  0  0  0  0  0  0  0  0  0  0  0
  -36.2089  -25.1038   16.5130 C   0  0  0  0  0  0  0  0  0  0  0  0
  -28.1247  -17.9880   21.1216 C   0  0  0  0  0  0  0  0  0  0  0  0
  -30.4341  -18.4298   21.6772 C   0  0  0  0  0  0  0  0  0  0  0  0
  -35.8365  -25.3057   17.8420 C   0  0  0  0  0  0  0  0  0  0  0  0
  -20.1682  -33.2652   21.5860 C   0  0  0  0  0  0  0  0  0  0  0  0
  -22.6441  -31.9964   21.6680 C   0  0  0  0  0  0  0  0  0  0  0  0
  -25.2405  -28.4581   19.1413 C   0  0  0  0  0  0  0  0  0  0  0  0
  -28.3622  -16.6174   21.2244 C   0  0  0  0  0  0  0  0  0  0  0  0
  -30.6716  -17.0592   21.7800 C   0  0  0  0  0  0  0  0  0  0  0  0
  -26.6264  -28.6010   19.0892 C   0  0  0  0  0  0  0  0  0  0  0  0
  -29.7498  -14.1818   19.3358 C   0  0  0  0  0  0  0  0  0  0  0  0
  -35.2512  -24.7328   15.5690 C   0  0  0  0  0  0  0  0  0  0  0  0
  -29.2350  -13.3587   18.3343 C   0  0  0  0  0  0  0  0  0  0  0  0
  -26.8541  -26.9772   20.8586 C   0  0  0  0  0  0  0  0  0  0  0  0
  -27.9329  -12.1663   19.9835 C   0  0  0  0  0  0  0  0  0  0  0  0
  -29.1607  -18.8943   21.3479 C   0  0  0  0  0  0  0  0  0  0  0  0
  -34.5066  -25.1366   18.2270 C   0  0  0  0  0  0  0  0  0  0  0  0
  -28.5029  -21.1812   22.2672 C   0  0  0  0  0  0  0  0  0  0  0  0
  -20.3086  -32.0774   22.3210 C   0  0  0  0  0  0  0  0  0  0  0  0
  -24.6495  -27.5803   20.0614 C   0  0  0  0  0  0  0  0  0  0  0  0
  -21.5628  -31.4397   22.3720 C   0  0  0  0  0  0  0  0  0  0  0  0
  -25.4607  -26.8231   20.9186 C   0  0  0  0  0  0  0  0  0  0  0  0
  -33.5489  -24.7656   17.2831 C   0  0  0  0  0  0  0  0  0  0  0  0
  -29.6356  -16.1530   21.5536 C   0  0  0  0  0  0  0  0  0  0  0  0
  -27.4333  -27.8626   19.9499 C   0  0  0  0  0  0  0  0  0  0  0  0
  -29.3562  -13.9971   20.6612 C   0  0  0  0  0  0  0  0  0  0  0  0
  -28.3265  -12.3510   18.6581 C   0  0  0  0  0  0  0  0  0  0  0  0
  -33.9213  -24.5637   15.9541 C   0  0  0  0  0  0  0  0  0  0  0  0
  -28.4477  -12.9894   20.9850 C   0  0  0  0  0  0  0  0  0  0  0  0
  -28.9162  -20.3102   21.2413 C   0  0  0  0  0  0  0  0  0  0  0  0
  -28.4149  -22.4099   21.6598 C   0  0  0  0  0  0  0  0  0  0  0  0
  -34.1388  -25.3571   19.6400 C   0  0  0  0  0  0  0  0  0  0  0  0
  -28.2237  -20.9043   23.6460 C   0  0  0  0  0  0  0  0  0  0  0  0
  -22.6451  -27.9094   22.5064 C   0  0  0  0  0  0  0  0  0  0  0  0
  -22.7311  -24.6667   22.5085 C   0  0  0  0  0  0  0  0  0  0  0  0
  -24.4146  -21.8126   21.6918 C   0  0  0  0  0  0  0  0  0  0  0  0
  -31.0651  -24.7917   16.8631 C   0  0  0  0  0  0  0  0  0  0  0  0
  -19.1217  -31.5563   23.0919 C   0  0  0  0  0  0  0  0  0  0  0  0
  -23.1544  -27.4178   20.0867 C   0  0  0  0  0  0  0  0  0  0  0  0
  -24.8766  -25.8521   21.9108 C   0  0  0  0  0  0  0  0  0  0  0  0
  -19.2760  -30.1053   23.5403 C   0  0  0  0  0  0  0  0  0  0  0  0
  -27.5643  -24.4300   17.4019 C   0  0  0  0  0  0  0  0  0  0  0  0
  -20.6528  -29.8809   24.1575 C   0  0  0  0  0  0  0  0  0  0  0  0
  -27.4762  -23.4163   18.5450 C   0  0  0  0  0  0  0  0  0  0  0  0
  -28.7124  -24.1091   16.4465 C   0  0  0  0  0  0  0  0  0  0  0  0
  -29.9356  -22.9279   18.2291 C   0  0  0  0  0  0  0  0  0  0  0  0
  -21.7654  -30.1497   23.1369 C   0  0  1  0  0  0  0  0  0  0  0  0
  -22.6345  -26.8767   21.4149 C   0  0  1  0  0  0  0  0  0  0  0  0
  -28.8344  -23.2465   19.2536 C   0  0  2  0  0  0  0  0  0  0  0  0
  -24.2506  -19.3138   21.8548 C   0  0  0  0  0  0  0  0  0  0  0  0
  -23.4749  -24.8131   25.4641 C   0  0  0  0  0  0  0  0  0  0  0  0
  -24.2137  -22.4250   25.3248 C   0  0  0  0  0  0  0  0  0  0  0  0
  -21.8302  -23.0187   24.8898 C   0  0  0  0  0  0  0  0  0  0  0  0
  -24.4494  -21.5023   18.7488 C   0  0  0  0  0  0  0  0  0  0  0  0
  -31.8955  -26.6740   21.5787 C   0  0  0  0  0  0  0  0  0  0  0  0
  -31.0352  -27.5130   20.6340 C   0  0  0  0  0  0  0  0  0  0  0  0
  -33.3836  -26.9297   21.3875 C   0  0  0  0  0  0  0  0  0  0  0  0
  -29.5523  -27.2133   20.8125 C   0  0  0  0  0  0  0  0  0  1  0  0
  -23.5899  -23.6204   23.1771 C   0  0  1  0  0  0  0  0  0  0  0  0
  -23.9620  -20.5388   21.0011 C   0  0  2  0  0  0  0  0  0  0  0  0
  -23.2884  -23.4889   24.6967 C   0  0  0  0  0  0  0  0  0  0  0  0
  -29.0792  -20.9328   20.0709 N   0  0  0  0  0  0  0  0  0  0  0  0
  -28.7667  -22.2080   20.3576 N   0  0  0  0  0  0  0  0  0  0  0  0
  -23.4091  -25.7333   21.9015 N   0  0  0  0  0  0  0  0  0  0  0  0
  -29.9675  -23.9667   17.1876 N   0  0  0  0  0  0  0  0  0  0  0  0
  -28.0715  -23.6325   22.1178 N   0  0  0  0  0  0  0  0  0  0  0  0
  -34.1936  -24.3178   20.4730 N   0  0  0  0  0  0  0  0  0  0  0  0
  -28.3645  -19.5875   24.1048 N   0  0  0  0  0  0  0  0  0  0  0  0
  -32.1936  -24.5884   17.6567 N   0  0  0  0  0  0  0  0  0  0  0  0
  -21.8940  -29.0343   22.2239 N   0  0  0  0  0  0  0  0  0  0  0  0
  -23.3953  -22.3883   22.4205 N   0  0  0  0  0  0  0  0  0  0  0  0
  -33.7662  -26.5871   20.0173 N   0  3  0  0  0  0  0  0  0  0  0  0
  -24.6649  -20.3790   19.6968 N   0  3  0  0  0  0  0  0  0  0  0  0
  -27.8443  -21.7950   24.4436 O   0  0  0  0  0  0  0  0  0  0  0  0
  -23.2860  -27.7003   23.5297 O   0  0  0  0  0  0  0  0  0  0  0  0
  -21.5043  -24.5385   22.5182 O   0  0  0  0  0  0  0  0  0  0  0  0
  -25.5590  -22.2509   21.5977 O   0  0  0  0  0  0  0  0  0  0  0  0
  -30.9993  -25.6364   15.9664 O   0  0  0  0  0  0  0  0  0  0  0  0
  -29.8676  -14.8156   21.6543 O   0  0  0  0  0  0  0  0  0  0  0  0
  -28.7862  -28.0006   19.9017 O   0  0  0  0  0  0  0  0  0  1  0  0
  -27.8310  -11.5616   17.6960 F   0  0  0  0  0  0  0  0  0  0  0  0
  -33.0101  -24.2073   15.0373 F   0  0  0  0  0  0  0  0  0  0  0  0
  -28.0650  -12.8079   22.2564 F   0  0  0  0  0  0  0  0  0  0  0  0
  1  2  1  0  0  0  0
  1  7  2  0  0  0  0
  2  8  2  0  0  0  0
  3  6  2  0  0  0  0
  3 14  1  0  0  0  0
  4 10  2  0  0  0  0
  4 18  1  0  0  0  0
  5 11  1  0  0  0  0
  5 18  2  0  0  0  0
  6 19  1  0  0  0  0
  7 21  1  0  0  0  0
  8 23  1  0  0  0  0
  9 12  2  0  0  0  0
  9 22  1  0  0  0  0
 10 26  1  0  0  0  0
 11 26  2  0  0  0  0
 12 27  1  0  0  0  0
 13 15  2  0  0  0  0
 13 28  1  0  0  0  0
 14 30  2  0  0  0  0
 15 29  1  0  0  0  0
 16 24  1  0  0  0  0
 16 27  2  0  0  0  0
 17 29  2  0  0  0  0
 17 31  1  0  0  0  0
 18 32  1  0  0  0  0
 19 25  2  0  0  0  0
 19 34  1  0  0  0  0
 20 32  1  0  0  0  0
 20 33  2  0  0  0  0
 20 35  1  0  0  0  0
 21 23  2  0  0  0  0
 21 40  1  0  0  0  0
 22 24  2  0  0  0  0
 22 41  1  0  0  0  0
 23 49  1  0  0  0  0
 24 42  1  0  0  0  0
 25 30  1  0  0  0  0
 25 71  1  0  0  0  0
 26 81  1  0  0  0  0
 27 82  1  0  0  0  0
 28 31  2  0  0  0  0
 28 81  1  0  0  0  0
 29 83  1  0  0  0  0
 30 84  1  0  0  0  0
 31 85  1  0  0  0  0
 32 64  2  0  0  0  0
 33 65  1  0  0  0  0
 33 68  1  0  0  0  0
 34 69  1  0  0  0  0
 34 74  2  0  0  0  0
 35 70  1  0  0  0  0
 35 76  2  0  0  0  0
 36 50  1  0  0  0  0
 36 72  1  0  0  0  0
 36 77  2  0  0  0  0
 37 61  1  0  0  0  0
 37 66  1  0  0  0  0
 37 78  2  0  0  0  0
 38 62  1  0  0  0  0
 38 73  1  0  0  0  0
 38 79  2  0  0  0  0
 39 67  1  0  0  0  0
 39 71  1  0  0  0  0
 39 80  2  0  0  0  0
 40 43  1  0  0  0  0
 41 50  1  0  0  0  0
 42 66  1  0  0  0  0
 43 45  1  0  0  0  0
 44 46  1  0  0  0  0
 44 47  1  0  0  0  0
 45 49  1  0  0  0  0
 46 51  1  0  0  0  0
 47 67  1  0  0  0  0
 48 51  1  0  0  0  0
 48 67  1  0  0  0  0
 49 72  1  0  0  0  0
 50 66  1  0  0  0  0
 51 65  1  0  0  0  0
 52 62  1  0  0  0  0
 53 63  1  0  0  0  0
 54 63  1  0  0  0  0
 55 63  1  0  0  0  0
 56 75  1  0  0  0  0
 57 58  1  0  0  0  0
 57 59  1  0  0  0  0
 58 60  1  0  0  0  0
 59 74  1  0  0  0  0
 60 82  1  0  0  0  0
 61 63  1  0  0  0  0
 61 73  1  0  0  0  0
 62 75  1  0  0  0  0
 64 65  1  0  0  0  0
M  CHG  2  74   1  75   1
M  ISO  4  39 100  60 101  71 100  82 101
M  END
> <Batch ID>
0054

> <Smiles>
CNC(C)C(=O)NC(C(=O)N1Cc2cc([101O:1][101CH2:1]CCCNC(=N)c3cccc(F)c3[100NH:0][100C:0](=O)N3CCCC(n4nc(-c5ccc(Oc6ccc(F)cc6F)cc5)c(C(N)=O)c4N)C3)ccc2CC1C(=O)NC1CCCc2ccccc21)C(C)(C)C

> <Shape>
0.212

> <Color>
0.064

> <Negative vol penalty>
0.000

$$$$

  -OEChem-04042322463D

 87 96  0     1  0  0  0  0  0999 V2000
  -31.5637  -35.1787   22.4014 C   0  0  0  0  0  0  0  0  0  0  0  0
  -31.2657  -34.0158   21.6984 C   0  0  0  0  0  0  0  0  0  0  0  0
  -30.4166  -19.3566   20.4152 C   0  0  0  0  0  0  0  0  0  0  0  0
  -23.5655   -8.6431   21.6562 C   0  0  0  0  0  0  0  0  0  0  0  0
  -24.9465   -9.5096   23.4392 C   0  0  0  0  0  0  0  0  0  0  0  0
  -30.9269  -35.4417   23.6136 C   0  0  0  0  0  0  0  0  0  0  0  0
  -30.3315  -33.1145   22.2078 C   0  0  0  0  0  0  0  0  0  0  0  0
  -26.4029  -29.6793   19.0029 C   0  0  0  0  0  0  0  0  0  0  0  0
  -29.2981  -20.1774   20.5597 C   0  0  0  0  0  0  0  0  0  0  0  0
  -30.2543  -17.9987   20.1402 C   0  0  0  0  0  0  0  0  0  0  0  0
  -23.1330   -7.6133   22.4917 C   0  0  0  0  0  0  0  0  0  0  0  0
  -24.5140   -8.4798   24.2747 C   0  0  0  0  0  0  0  0  0  0  0  0
  -26.4396  -28.3471   18.5936 C   0  0  0  0  0  0  0  0  0  0  0  0
  -20.9134   -7.2156   25.0112 C   0  0  0  0  0  0  0  0  0  0  0  0
  -19.5495   -6.9240   25.0280 C   0  0  0  0  0  0  0  0  0  0  0  0
  -25.1287  -27.7252   20.5208 C   0  0  0  0  0  0  0  0  0  0  0  0
  -20.0214   -4.6736   24.2863 C   0  0  0  0  0  0  0  0  0  0  0  0
  -24.4723   -9.5913   22.1300 C   0  0  0  0  0  0  0  0  0  0  0  0
  -24.1251  -11.6368   20.6457 C   0  0  0  0  0  0  0  0  0  0  0  0
  -29.9773  -34.5479   24.1333 C   0  0  0  0  0  0  0  0  0  0  0  0
  -25.7370  -30.0436   20.1820 C   0  0  0  0  0  0  0  0  0  0  0  0
  -29.6824  -33.3652   23.4287 C   0  0  0  0  0  0  0  0  0  0  0  0
  -25.0829  -29.0631   20.9415 C   0  0  0  0  0  0  0  0  0  0  0  0
  -28.0174  -19.6404   20.4294 C   0  0  0  0  0  0  0  0  0  0  0  0
  -27.8551  -18.2825   20.1545 C   0  0  0  0  0  0  0  0  0  0  0  0
  -28.9736  -17.4617   20.0099 C   0  0  0  0  0  0  0  0  0  0  0  0
  -23.6072   -7.5316   23.8009 C   0  0  0  0  0  0  0  0  0  0  0  0
  -25.8049  -27.3694   19.3540 C   0  0  0  0  0  0  0  0  0  0  0  0
  -21.8314   -6.2362   24.6319 C   0  0  0  0  0  0  0  0  0  0  0  0
  -19.1035   -5.6530   24.6656 C   0  0  0  0  0  0  0  0  0  0  0  0
  -21.3854   -4.9652   24.2695 C   0  0  0  0  0  0  0  0  0  0  0  0
  -24.9199  -10.6550   21.2673 C   0  0  0  0  0  0  0  0  0  0  0  0
  -25.0183  -12.4054   19.9401 C   0  0  0  0  0  0  0  0  0  0  0  0
  -26.9122  -21.9074   18.5860 C   0  0  0  0  0  0  0  0  0  0  0  0
  -27.6638  -21.5309   17.5405 C   0  0  0  0  0  0  0  0  0  0  0  0
  -22.7064  -11.8363   20.7013 C   0  0  0  0  0  0  0  0  0  0  0  0
  -26.6137  -31.3669   22.9359 C   0  0  0  0  0  0  0  0  0  0  0  0
  -23.4204  -31.3620   23.5066 C   0  0  0  0  0  0  0  0  0  0  0  0
  -20.3605  -30.0052   22.8413 C   0  0  0  0  0  0  0  0  0  0  0  0
  -29.8516  -15.1437   19.5599 C   0  0  0  0  0  0  0  0  0  0  0  0
  -29.3498  -34.8521   25.4706 C   0  0  0  0  0  0  0  0  0  0  0  0
  -25.6840  -31.4888   20.5956 C   0  0  0  0  0  0  0  0  0  0  0  0
  -24.3371  -29.4050   22.2046 C   0  0  0  0  0  0  0  0  0  0  0  0
  -26.7862  -23.3383   19.0344 C   0  0  0  0  0  0  0  0  0  0  0  0
  -28.0967  -34.0286   25.7568 C   0  0  0  0  0  0  0  0  0  0  0  0
  -29.9129  -11.6460   18.8969 C   0  0  0  0  0  0  0  0  0  0  0  0
  -28.3361  -32.5592   25.4246 C   0  0  0  0  0  0  0  0  0  0  0  0
  -28.5540  -11.1571   19.4034 C   0  0  0  0  0  0  0  0  0  0  0  0
  -24.5440  -22.6828   19.9835 C   0  0  0  0  0  0  0  0  0  0  0  0
  -30.4844  -12.7511   19.7834 C   0  0  0  0  0  0  0  0  0  0  0  0
  -28.2256  -13.3990   20.5229 C   0  0  0  0  0  0  0  0  0  0  0  0
  -24.7164  -21.2807   19.4039 C   0  0  0  0  0  0  0  0  0  0  0  0
  -28.6565  -32.3752   23.9364 C   0  0  1  0  0  0  0  0  0  0  0  0
  -25.4136  -31.6743   22.0856 C   0  0  1  0  0  0  0  0  0  0  0  0
  -25.3095  -23.7307   19.1636 C   0  0  1  0  0  0  0  0  0  0  0  0
  -27.5799  -12.3308   19.6253 C   0  0  2  0  0  0  0  0  0  0  0  0
  -26.4790  -17.7109   20.0154 C   0  0  0  0  0  0  0  0  0  0  0  0
  -17.9430  -30.1842   23.4903 C   0  0  0  0  0  0  0  0  0  0  0  0
  -24.0161  -29.9020   26.1187 C   0  0  0  0  0  0  0  0  0  0  0  0
  -21.5942  -29.2795   26.2420 C   0  0  0  0  0  0  0  0  0  0  0  0
  -22.2671  -31.6810   26.2934 C   0  0  0  0  0  0  0  0  0  0  0  0
  -19.5525  -30.7124   20.0834 C   0  0  0  0  0  0  0  0  0  0  0  0
  -26.8317  -20.5455   20.5896 C   0  0  0  0  0  0  0  0  0  0  0  0
  -25.1681  -25.1187   19.7841 C   0  0  0  0  0  0  0  0  0  1  0  0
  -22.4468  -30.3896   24.1273 C   0  0  1  0  0  0  0  0  0  0  0  0
  -19.0219  -30.6465   22.5233 C   0  0  2  0  0  0  0  0  0  0  0  0
  -22.5967  -30.3060   25.6726 C   0  0  0  0  0  0  0  0  0  0  0  0
  -26.2180  -10.7856   20.9815 N   0  0  0  0  0  0  0  0  0  0  0  0
  -26.2459  -11.8584   20.1726 N   0  0  0  0  0  0  0  0  0  0  0  0
  -24.3193  -30.8309   22.5707 N   0  0  0  0  0  0  0  0  0  0  0  0
  -29.5081  -13.8306   19.9454 N   0  0  0  0  0  0  0  0  0  0  0  0
  -24.8656  -13.4891   19.1497 N   0  0  0  0  0  0  0  0  0  0  0  0
  -22.1869  -12.6636   21.7063 N   0  0  0  0  0  0  0  0  0  0  0  0
  -28.8322  -16.0799   19.7299 N   0  0  0  0  0  0  0  0  0  0  0  0
  -27.4465  -32.4494   23.1459 N   0  0  0  0  0  0  0  0  0  0  0  0
  -21.1202  -30.7964   23.6768 N   0  0  0  0  0  0  0  0  0  0  0  0
  -26.1698  -20.8865   19.2831 N   0  3  2  0  0  0  0  0  0  0  0  0
  -18.5947  -30.2949   21.1395 N   0  3  0  0  0  0  0  0  0  0  0  0
  -21.9212  -11.2837   19.8941 O   0  0  0  0  0  0  0  0  0  0  0  0
  -26.7715  -30.2321   23.3706 O   0  0  0  0  0  0  0  0  0  0  0  0
  -23.3801  -32.5505   23.8345 O   0  0  0  0  0  0  0  0  0  0  0  0
  -20.6969  -28.9101   22.3963 O   0  0  0  0  0  0  0  0  0  0  0  0
  -30.9587  -15.4124   19.0864 O   0  0  0  0  0  0  0  0  0  0  0  0
  -23.1852   -6.5270   24.6165 O   0  0  0  0  0  0  0  0  0  0  0  0
  -25.8397  -26.0682   18.9572 O   0  0  0  0  0  0  0  0  0  1  0  0
  -17.7938   -5.3727   24.6833 F   0  0  0  0  0  0  0  0  0  0  0  0
  -22.2626   -4.0199   23.9053 F   0  0  0  0  0  0  0  0  0  0  0  0
  1  2  1  0  0  0  0
  1  6  2  0  0  0  0
  2  7  2  0  0  0  0
  3  9  2  0  0  0  0
  3 10  1  0  0  0  0
  4 11  2  0  0  0  0
  4 18  1  0  0  0  0
  5 12  1  0  0  0  0
  5 18  2  0  0  0  0
  6 20  1  0  0  0  0
  7 22  1  0  0  0  0
  8 13  2  0  0  0  0
  8 21  1  0  0  0  0
  9 24  1  0  0  0  0
 10 26  2  0  0  0  0
 11 27  1  0  0  0  0
 12 27  2  0  0  0  0
 13 28  1  0  0  0  0
 14 15  2  0  0  0  0
 14 29  1  0  0  0  0
 15 30  1  0  0  0  0
 16 23  1  0  0  0  0
 16 28  2  0  0  0  0
 17 30  2  0  0  0  0
 17 31  1  0  0  0  0
 18 32  1  0  0  0  0
 19 32  1  0  0  0  0
 19 33  2  0  0  0  0
 19 36  1  0  0  0  0
 20 22  2  0  0  0  0
 20 41  1  0  0  0  0
 21 23  2  0  0  0  0
 21 42  1  0  0  0  0
 22 53  1  0  0  0  0
 23 43  1  0  0  0  0
 24 25  2  0  0  0  0
 24 63  1  0  0  0  0
 25 26  1  0  0  0  0
 25 57  1  0  0  0  0
 26 74  1  0  0  0  0
 27 84  1  0  0  0  0
 28 85  1  0  0  0  0
 29 31  2  0  0  0  0
 29 84  1  0  0  0  0
 30 86  1  0  0  0  0
 31 87  1  0  0  0  0
 32 68  2  0  0  0  0
 33 69  1  0  0  0  0
 33 72  1  0  0  0  0
 34 35  2  0  0  0  0
 34 44  1  0  0  0  0
 34 77  1  0  0  0  0
 36 73  1  0  0  0  0
 36 79  2  0  0  0  0
 37 54  1  0  0  0  0
 37 75  1  0  0  0  0
 37 80  2  0  0  0  0
 38 65  1  0  0  0  0
 38 70  1  0  0  0  0
 38 81  2  0  0  0  0
 39 66  1  0  0  0  0
 39 76  1  0  0  0  0
 39 82  2  0  0  0  0
 40 71  1  0  0  0  0
 40 74  1  0  0  0  0
 40 83  2  0  0  0  0
 41 45  1  0  0  0  0
 42 54  1  0  0  0  0
 43 70  1  0  0  0  0
 44 55  1  0  0  0  0
 45 47  1  0  0  0  0
 46 48  1  0  0  0  0
 46 50  1  0  0  0  0
 47 53  1  0  0  0  0
 48 56  1  0  0  0  0
 49 52  1  0  0  0  0
 49 55  1  0  0  0  0
 50 71  1  0  0  0  0
 51 56  1  0  0  0  0
 51 71  1  0  0  0  0
 52 77  1  0  0  0  0
 53 75  1  0  0  0  0
 54 70  1  0  0  0  0
 55 64  1  0  0  0  0
 56 69  1  0  0  0  0
 58 66  1  0  0  0  0
 59 67  1  0  0  0  0
 60 67  1  0  0  0  0
 61 67  1  0  0  0  0
 62 78  1  0  0  0  0
 63 77  1  0  0  0  0
 64 85  1  0  0  0  0
 65 67  1  0  0  0  0
 65 76  1  0  0  0  0
 66 78  1  0  0  0  0
 68 69  1  0  0  0  0
M  CHG  2  77   1  78   1
M  ISO  4  40 100  64 101  74 100  85 101
M  END
> <Batch ID>
0054

> <Smiles>
C=C1CC([101CH2:1][101O:1]c2ccc3c(c2)CN(C(=O)C(NC(=O)C(C)NC)C(C)(C)C)C(C(=O)NC2CCCc4ccccc42)C3)CCN1Cc1cccc([100NH:0][100C:0](=O)N2CCCC(n3nc(-c4ccc(Oc5ccc(F)cc5F)cc4)c(C(N)=O)c3N)C2)c1C

> <Shape>
0.294

> <Color>
0.092

> <Negative vol penalty>
0.000

$$$$

  -OEChem-04042322463D

 84 93  0     1  0  0  0  0  0999 V2000
  -20.0159  -24.2056   23.3266 C   0  0  0  0  0  0  0  0  0  0  0  0
  -21.1417  -24.5229   22.5735 C   0  0  0  0  0  0  0  0  0  0  0  0
  -28.2925  -12.1893   21.1697 C   0  0  0  0  0  0  0  0  0  0  0  0
  -27.2171  -11.4685   19.1298 C   0  0  0  0  0  0  0  0  0  0  0  0
  -19.0296  -25.1670   23.5428 C   0  0  0  0  0  0  0  0  0  0  0  0
  -21.2814  -25.8016   22.0351 C   0  0  0  0  0  0  0  0  0  0  0  0
  -25.9389  -27.6826   22.6789 C   0  0  0  0  0  0  0  0  0  0  0  0
  -28.0485  -21.7450   20.4875 C   0  0  0  0  0  0  0  0  0  0  0  0
  -26.9503  -22.6132   18.5185 C   0  0  0  0  0  0  0  0  0  0  0  0
  -27.2055  -20.6339   20.4678 C   0  0  0  0  0  0  0  0  0  0  0  0
  -26.1073  -21.5021   18.4987 C   0  0  0  0  0  0  0  0  0  0  0  0
  -29.3964  -11.3912   20.8698 C   0  0  0  0  0  0  0  0  0  0  0  0
  -28.3211  -10.6703   18.8299 C   0  0  0  0  0  0  0  0  0  0  0  0
  -26.9363  -27.2205   21.8214 C   0  0  0  0  0  0  0  0  0  0  0  0
  -32.1078  -11.5448   18.8555 C   0  0  0  0  0  0  0  0  0  0  0  0
  -33.3754  -12.1023   19.0228 C   0  0  0  0  0  0  0  0  0  0  0  0
  -26.7125  -29.2213   20.4926 C   0  0  0  0  0  0  0  0  0  0  0  0
  -33.9203  -10.3812   20.6285 C   0  0  0  0  0  0  0  0  0  0  0  0
  -27.2028  -12.2280   20.2997 C   0  0  0  0  0  0  0  0  0  0  0  0
  -25.2314  -12.9628   21.7423 C   0  0  0  0  0  0  0  0  0  0  0  0
  -19.1618  -26.4610   23.0149 C   0  0  0  0  0  0  0  0  0  0  0  0
  -25.3120  -28.9146   22.4431 C   0  0  0  0  0  0  0  0  0  0  0  0
  -20.2952  -26.7808   22.2433 C   0  0  0  0  0  0  0  0  0  0  0  0
  -25.7092  -29.6980   21.3500 C   0  0  0  0  0  0  0  0  0  0  0  0
  -27.9209  -22.7347   19.5129 C   0  0  0  0  0  0  0  0  0  0  0  0
  -26.2349  -20.5124   19.4734 C   0  0  0  0  0  0  0  0  0  0  0  0
  -29.4107  -10.6317   19.7000 C   0  0  0  0  0  0  0  0  0  0  0  0
  -27.3213  -27.9885   20.7264 C   0  0  0  0  0  0  0  0  0  0  0  0
  -31.7464  -10.4056   19.5747 C   0  0  0  0  0  0  0  0  0  0  0  0
  -34.2817  -11.5205   19.9093 C   0  0  0  0  0  0  0  0  0  0  0  0
  -32.6527   -9.8238   20.4612 C   0  0  0  0  0  0  0  0  0  0  0  0
  -26.0620  -13.0518   20.6092 C   0  0  0  0  0  0  0  0  0  0  0  0
  -24.3023  -13.9589   21.5661 C   0  0  0  0  0  0  0  0  0  0  0  0
  -30.1796  -23.7815   19.4357 C   0  0  0  0  0  0  0  0  0  0  0  0
  -30.8699  -22.7788   18.8581 C   0  0  0  0  0  0  0  0  0  0  0  0
  -25.2942  -12.0604   22.8547 C   0  0  0  0  0  0  0  0  0  0  0  0
  -22.3340  -29.8328   21.8172 C   0  0  0  0  0  0  0  0  0  0  0  0
  -23.6057  -32.8038   22.0966 C   0  0  0  0  0  0  0  0  0  0  0  0
  -25.5710  -35.5912   22.2186 C   0  0  0  0  0  0  0  0  0  0  0  0
  -24.3638  -19.1093   18.5373 C   0  0  0  0  0  0  0  0  0  0  0  0
  -18.0469  -27.4524   23.2356 C   0  0  0  0  0  0  0  0  0  0  0  0
  -24.2565  -29.4112   23.3926 C   0  0  0  0  0  0  0  0  0  0  0  0
  -25.0817  -31.0371   21.0644 C   0  0  0  0  0  0  0  0  0  0  0  0
  -30.9725  -24.9409   20.0074 C   0  0  0  0  0  0  0  0  0  0  0  0
  -18.4491  -28.8961   22.9449 C   0  0  0  0  0  0  0  0  0  0  0  0
  -30.3237  -26.2866   19.7192 C   0  0  0  0  0  0  0  0  0  0  0  0
  -22.0620  -16.4243   18.1256 C   0  0  0  0  0  0  0  0  0  0  0  0
  -19.1997  -28.9847   21.6200 C   0  0  0  0  0  0  0  0  0  0  0  0
  -22.7482  -15.2482   18.8242 C   0  0  0  0  0  0  0  0  0  0  0  0
  -23.0670  -17.3190   17.4023 C   0  0  0  0  0  0  0  0  0  0  0  0
  -24.8695  -16.6180   18.9283 C   0  0  0  0  0  0  0  0  0  0  0  0
  -28.0858  -25.1700   19.4912 C   0  0  0  0  0  0  0  0  0  0  0  0
  -20.4946  -28.1644   21.6635 C   0  0  1  0  0  0  0  0  0  0  0  0
  -23.3265  -30.4448   22.7648 C   0  0  1  0  0  0  0  0  0  0  0  0
  -23.9046  -15.7246   19.7249 C   0  0  2  0  0  0  0  0  0  0  0  0
  -28.8766  -26.2754   20.1882 C   0  0  2  0  0  0  0  0  0  1  0  0
  -25.4625  -38.0890   22.0026 C   0  0  0  0  0  0  0  0  0  0  0  0
  -23.3793  -32.5295   19.0662 C   0  0  0  0  0  0  0  0  0  0  0  0
  -24.2177  -34.8796   18.8607 C   0  0  0  0  0  0  0  0  0  0  0  0
  -22.0693  -34.4227   20.0430 C   0  0  0  0  0  0  0  0  0  0  0  0
  -26.5385  -35.9888   24.9871 C   0  0  0  0  0  0  0  0  0  0  0  0
  -24.2520  -33.7837   21.1474 C   0  0  1  0  0  0  0  0  0  0  0  0
  -25.4080  -36.9070   22.9580 C   0  0  2  0  0  0  0  0  0  0  0  0
  -23.4948  -33.8842   19.7931 C   0  0  0  0  0  0  0  0  0  0  0  0
  -25.6929  -14.0273   19.7748 N   0  0  0  0  0  0  0  0  0  0  0  0
  -24.6202  -14.5604   20.3841 N   0  0  0  0  0  0  0  0  0  0  0  0
  -28.7804  -23.8704   19.5340 N   0  0  0  0  0  0  0  0  0  0  0  0
  -24.0497  -31.4762   22.0182 N   0  0  0  0  0  0  0  0  0  0  0  0
  -24.1309  -17.7350   18.3187 N   0  0  0  0  0  0  0  0  0  0  0  0
  -23.2525  -14.3701   22.3086 N   0  0  0  0  0  0  0  0  0  0  0  0
  -26.3126  -11.0979   22.8776 N   0  0  0  0  0  0  0  0  0  0  0  0
  -25.3786  -19.3836   19.4534 N   0  0  0  0  0  0  0  0  0  0  0  0
  -21.5200  -28.8771   22.3948 N   0  0  0  0  0  0  0  0  0  0  0  0
  -24.3529  -35.0467   21.8706 N   0  0  0  0  0  0  0  0  0  0  0  0
  -26.4901  -37.0702   23.9696 N   0  3  0  0  0  0  0  0  0  0  0  0
  -24.4616  -12.0957   23.7923 O   0  0  0  0  0  0  0  0  0  0  0  0
  -22.3075  -30.2015   20.6488 O   0  0  0  0  0  0  0  0  0  0  0  0
  -22.7439  -33.2031   22.8837 O   0  0  0  0  0  0  0  0  0  0  0  0
  -26.6691  -35.0978   21.9711 O   0  0  0  0  0  0  0  0  0  0  0  0
  -23.6927  -19.9787   17.9752 O   0  0  0  0  0  0  0  0  0  0  0  0
  -30.4878   -9.8529   19.4069 O   0  0  0  0  0  0  0  0  0  0  0  0
  -28.2941  -27.5395   19.8875 O   0  0  0  0  0  0  0  0  0  1  0  0
  -35.4995  -12.0550   20.0687 F   0  0  0  0  0  0  0  0  0  0  0  0
  -32.3116   -8.7286   21.1540 F   0  0  0  0  0  0  0  0  0  0  0  0
  1  2  1  0  0  0  0
  1  5  2  0  0  0  0
  2  6  2  0  0  0  0
  3 12  2  0  0  0  0
  3 19  1  0  0  0  0
  4 13  1  0  0  0  0
  4 19  2  0  0  0  0
  5 21  1  0  0  0  0
  6 23  1  0  0  0  0
  7 14  2  0  0  0  0
  7 22  1  0  0  0  0
  8 10  2  0  0  0  0
  8 25  1  0  0  0  0
  9 11  1  0  0  0  0
  9 25  2  0  0  0  0
 10 26  1  0  0  0  0
 11 26  2  0  0  0  0
 12 27  1  0  0  0  0
 13 27  2  0  0  0  0
 14 28  1  0  0  0  0
 15 16  2  0  0  0  0
 15 29  1  0  0  0  0
 16 30  1  0  0  0  0
 17 24  1  0  0  0  0
 17 28  2  0  0  0  0
 18 30  2  0  0  0  0
 18 31  1  0  0  0  0
 19 32  1  0  0  0  0
 20 32  1  0  0  0  0
 20 33  2  0  0  0  0
 20 36  1  0  0  0  0
 21 23  2  0  0  0  0
 21 41  1  0  0  0  0
 22 24  2  0  0  0  0
 22 42  1  0  0  0  0
 23 53  1  0  0  0  0
 24 43  1  0  0  0  0
 25 67  1  0  0  0  0
 26 72  1  0  0  0  0
 27 81  1  0  0  0  0
 28 82  1  0  0  0  0
 29 31  2  0  0  0  0
 29 81  1  0  0  0  0
 30 83  1  0  0  0  0
 31 84  1  0  0  0  0
 32 65  2  0  0  0  0
 33 66  1  0  0  0  0
 33 70  1  0  0  0  0
 34 35  2  0  0  0  0
 34 44  1  0  0  0  0
 34 67  1  0  0  0  0
 36 71  1  0  0  0  0
 36 76  2  0  0  0  0
 37 54  1  0  0  0  0
 37 73  1  0  0  0  0
 37 77  2  0  0  0  0
 38 62  1  0  0  0  0
 38 68  1  0  0  0  0
 38 78  2  0  0  0  0
 39 63  1  0  0  0  0
 39 74  1  0  0  0  0
 39 79  2  0  0  0  0
 40 69  1  0  0  0  0
 40 72  1  0  0  0  0
 40 80  2  0  0  0  0
 41 45  1  0  0  0  0
 42 54  1  0  0  0  0
 43 68  1  0  0  0  0
 44 46  1  0  0  0  0
 45 48  1  0  0  0  0
 46 56  1  0  0  0  0
 47 49  1  0  0  0  0
 47 50  1  0  0  0  0
 48 53  1  0  0  0  0
 49 55  1  0  0  0  0
 50 69  1  0  0  0  0
 51 55  1  0  0  0  0
 51 69  1  0  0  0  0
 52 56  1  0  0  0  0
 52 67  1  0  0  0  0
 53 73  1  0  0  0  0
 54 68  1  0  0  0  0
 55 66  1  0  0  0  0
 56 82  1  0  0  0  0
 57 63  1  0  0  0  0
 58 64  1  0  0  0  0
 59 64  1  0  0  0  0
 60 64  1  0  0  0  0
 61 75  1  0  0  0  0
 62 64  1  0  0  0  0
 62 74  1  0  0  0  0
 63 75  1  0  0  0  0
 65 66  1  0  0  0  0
M  CHG  1  75   1
M  ISO  4  40 100  56 101  72 100  82 101
M  END
> <Batch ID>
0054

> <Smiles>
C=C1CC[101CH:1]([101O:1]c2ccc3c(c2)CN(C(=O)C(NC(=O)C(C)NC)C(C)(C)C)C(C(=O)NC2CCCc4ccccc42)C3)CN1c1ccc([100NH:0][100C:0](=O)N2CCCC(n3nc(-c4ccc(Oc5ccc(F)cc5F)cc4)c(C(N)=O)c3N)C2)cc1

> <Shape>
0.256

> <Color>
0.120

> <Negative vol penalty>
0.000

$$$$

  -OEChem-04042322463D

 88 97  0     1  0  0  0  0  0999 V2000
  -17.0345  -29.1388   24.7307 C   0  0  0  0  0  0  0  0  0  0  0  0
  -17.4457  -28.0652   23.9472 C   0  0  0  0  0  0  0  0  0  0  0  0
  -26.7787  -12.3373   21.7301 C   0  0  0  0  0  0  0  0  0  0  0  0
  -26.0670  -14.2063   20.3745 C   0  0  0  0  0  0  0  0  0  0  0  0
  -17.6052  -30.3968   24.5420 C   0  0  0  0  0  0  0  0  0  0  0  0
  -18.4270  -28.2493   22.9739 C   0  0  0  0  0  0  0  0  0  0  0  0
  -22.7197  -24.2286   21.2672 C   0  0  0  0  0  0  0  0  0  0  0  0
  -25.4687  -11.8592   21.7587 C   0  0  0  0  0  0  0  0  0  0  0  0
  -24.7570  -13.7281   20.4031 C   0  0  0  0  0  0  0  0  0  0  0  0
  -22.7998  -23.3402   20.1957 C   0  0  0  0  0  0  0  0  0  0  0  0
  -23.3928  -10.1569   19.7031 C   0  0  0  0  0  0  0  0  0  0  0  0
  -23.1951   -8.7940   19.4816 C   0  0  0  0  0  0  0  0  0  0  0  0
  -24.0839  -24.9620   18.9548 C   0  0  0  0  0  0  0  0  0  0  0  0
  -29.4570  -20.9117   17.8353 C   0  0  0  0  0  0  0  0  0  0  0  0
  -29.9303  -22.4722   19.6180 C   0  0  0  0  0  0  0  0  0  0  0  0
  -22.1782   -8.5870   21.6633 C   0  0  0  0  0  0  0  0  0  0  0  0
  -27.0779  -13.5109   21.0380 C   0  0  0  0  0  0  0  0  0  0  0  0
  -29.5665  -13.3456   20.5019 C   0  0  0  0  0  0  0  0  0  0  0  0
  -18.6009  -30.5943   23.5724 C   0  0  0  0  0  0  0  0  0  0  0  0
  -23.3128  -25.4967   21.1863 C   0  0  0  0  0  0  0  0  0  0  0  0
  -19.0106  -29.5115   22.7712 C   0  0  0  0  0  0  0  0  0  0  0  0
  -24.0121  -25.8637   20.0276 C   0  0  0  0  0  0  0  0  0  0  0  0
  -29.0254  -21.9644   17.0284 C   0  0  0  0  0  0  0  0  0  0  0  0
  -29.0463  -23.2710   17.5162 C   0  0  0  0  0  0  0  0  0  0  0  0
  -29.9094  -21.1656   19.1302 C   0  0  0  0  0  0  0  0  0  0  0  0
  -24.4578  -12.5546   21.0953 C   0  0  0  0  0  0  0  0  0  0  0  0
  -23.4795  -23.7080   19.0382 C   0  0  0  0  0  0  0  0  0  0  0  0
  -22.9832  -10.7348   20.9047 C   0  0  0  0  0  0  0  0  0  0  0  0
  -29.4987  -23.5249   18.8110 C   0  0  0  0  0  0  0  0  0  0  0  0
  -22.5878   -8.0090   20.4617 C   0  0  0  0  0  0  0  0  0  0  0  0
  -22.3759   -9.9499   21.8848 C   0  0  0  0  0  0  0  0  0  0  0  0
  -28.4309  -14.0056   21.0085 C   0  0  0  0  0  0  0  0  0  0  0  0
  -30.5973  -14.2298   20.7066 C   0  0  0  0  0  0  0  0  0  0  0  0
  -26.5071  -22.6165   14.6301 C   0  0  0  0  0  0  0  0  0  0  0  0
  -29.6794  -12.0492   19.9000 C   0  0  0  0  0  0  0  0  0  0  0  0
  -22.2389  -28.4865   21.2945 C   0  0  0  0  0  0  0  0  0  0  0  0
  -25.4004  -29.2110   21.2512 C   0  0  0  0  0  0  0  0  0  0  0  0
  -28.5771  -28.2712   20.4312 C   0  0  0  0  0  0  0  0  0  0  0  0
  -30.8271  -20.1753   21.2571 C   0  0  0  0  0  0  0  0  0  0  0  0
  -19.1547  -31.9830   23.3729 C   0  0  0  0  0  0  0  0  0  0  0  0
  -23.2403  -26.4333   22.3610 C   0  0  0  0  0  0  0  0  0  0  0  0
  -24.6835  -27.2057   19.8982 C   0  0  0  0  0  0  0  0  0  0  0  0
  -24.9940  -22.5817   14.5174 C   0  0  0  0  0  0  0  0  0  0  0  0
  -20.4559  -32.0110   22.5753 C   0  0  0  0  0  0  0  0  0  0  0  0
  -31.9691  -17.7721   23.6229 C   0  0  0  0  0  0  0  0  0  0  0  0
  -20.3417  -31.1286   21.3362 C   0  0  0  0  0  0  0  0  0  0  0  0
  -31.2996  -16.4722   23.1713 C   0  0  0  0  0  0  0  0  0  0  0  0
  -24.8616  -20.8704   16.2989 C   0  0  0  0  0  0  0  0  0  0  0  0
  -31.0551  -18.9798   23.4236 C   0  0  0  0  0  0  0  0  0  0  0  0
  -26.3484  -21.0152   16.5714 C   0  0  0  0  0  0  0  0  0  0  0  0
  -29.8391  -17.8280   21.6170 C   0  0  0  0  0  0  0  0  0  0  0  0
  -20.0901  -29.6659   21.7219 C   0  0  1  0  0  0  0  0  0  0  0  0
  -23.4418  -27.8949   21.9732 C   0  0  1  0  0  0  0  0  0  0  0  0
  -24.2580  -22.1719   15.7862 C   0  0  1  0  0  0  0  0  0  0  0  0
  -30.7455  -16.5921   21.7380 C   0  0  2  0  0  0  0  0  0  0  0  0
  -28.5869  -24.4037   16.6548 C   0  0  0  0  0  0  0  0  0  0  0  0
  -31.0802  -28.3921   20.2987 C   0  0  0  0  0  0  0  0  0  0  0  0
  -24.8242  -31.0248   18.8662 C   0  0  0  0  0  0  0  0  0  0  0  0
  -27.2805  -31.0526   18.3827 C   0  0  0  0  0  0  0  0  0  0  0  0
  -26.4247  -31.9748   20.5367 C   0  0  0  0  0  0  0  0  0  0  0  0
  -28.8974  -26.8818   23.0246 C   0  0  0  0  0  0  0  0  0  0  0  0
  -28.5429  -21.6649   15.6385 C   0  0  0  0  0  0  0  0  0  0  0  0
  -24.2705  -23.2851   16.8356 C   0  0  0  0  0  0  0  0  0  1  0  0
  -26.4225  -29.4731   20.1715 C   0  0  1  0  0  0  0  0  0  0  0  0
  -29.8735  -28.3067   21.2203 C   0  0  2  0  0  0  0  0  0  0  0  0
  -26.2238  -30.8567   19.4907 C   0  0  0  0  0  0  0  0  0  0  0  0
  -28.7134  -15.2156   21.4984 N   0  0  0  0  0  0  0  0  0  0  0  0
  -30.0384  -15.3230   21.3006 N   0  0  0  0  0  0  0  0  0  0  0  0
  -27.0911  -21.7363   15.5382 N   0  0  0  0  0  0  0  0  0  0  0  0
  -24.5792  -28.0888   21.0716 N   0  0  0  0  0  0  0  0  0  0  0  0
  -30.5721  -19.0309   22.0419 N   0  0  0  0  0  0  0  0  0  0  0  0
  -31.9183  -14.1711   20.4348 N   0  0  0  0  0  0  0  0  0  0  0  0
  -28.5212  -11.2713   19.7665 N   0  0  0  0  0  0  0  0  0  0  0  0
  -30.3483  -20.0963   19.9497 N   0  0  0  0  0  0  0  0  0  0  0  0
  -21.3187  -29.0412   22.1634 N   0  0  0  0  0  0  0  0  0  0  0  0
  -27.7295  -29.2961   20.7950 N   0  0  0  0  0  0  0  0  0  0  0  0
  -30.0055  -27.0793   22.0551 N   0  3  0  0  0  0  0  0  0  0  0  0
  -27.1452  -23.3513   13.8710 O   0  0  0  0  0  0  0  0  0  0  0  0
  -30.7777  -11.5873   19.5076 O   0  0  0  0  0  0  0  0  0  0  0  0
  -22.1526  -28.4441   20.0728 O   0  0  0  0  0  0  0  0  0  0  0  0
  -25.3380  -29.9697   22.2218 O   0  0  0  0  0  0  0  0  0  0  0  0
  -28.3416  -27.4216   19.5748 O   0  0  0  0  0  0  0  0  0  0  0  0
  -31.4499  -21.1425   21.7030 O   0  0  0  0  0  0  0  0  0  0  0  0
  -29.5264  -24.7946   19.3046 O   0  0  0  0  0  0  0  0  0  0  0  0
  -23.1794  -12.0882   21.1228 O   0  0  0  0  0  0  0  0  0  0  0  0
  -23.5586  -22.8430   17.9906 O   0  0  0  0  0  0  0  0  0  1  0  0
  -22.3967   -6.7006   20.2482 F   0  0  0  0  0  0  0  0  0  0  0  0
  -21.9792  -10.4997   23.0408 F   0  0  0  0  0  0  0  0  0  0  0  0
  1  2  1  0  0  0  0
  1  5  2  0  0  0  0
  2  6  2  0  0  0  0
  3  8  2  0  0  0  0
  3 17  1  0  0  0  0
  4  9  1  0  0  0  0
  4 17  2  0  0  0  0
  5 19  1  0  0  0  0
  6 21  1  0  0  0  0
  7 10  2  0  0  0  0
  7 20  1  0  0  0  0
  8 26  1  0  0  0  0
  9 26  2  0  0  0  0
 10 27  1  0  0  0  0
 11 12  2  0  0  0  0
 11 28  1  0  0  0  0
 12 30  1  0  0  0  0
 13 22  1  0  0  0  0
 13 27  2  0  0  0  0
 14 23  1  0  0  0  0
 14 25  2  0  0  0  0
 15 25  1  0  0  0  0
 15 29  2  0  0  0  0
 16 30  2  0  0  0  0
 16 31  1  0  0  0  0
 17 32  1  0  0  0  0
 18 32  1  0  0  0  0
 18 33  2  0  0  0  0
 18 35  1  0  0  0  0
 19 21  2  0  0  0  0
 19 40  1  0  0  0  0
 20 22  2  0  0  0  0
 20 41  1  0  0  0  0
 21 52  1  0  0  0  0
 22 42  1  0  0  0  0
 23 24  2  0  0  0  0
 23 62  1  0  0  0  0
 24 29  1  0  0  0  0
 24 56  1  0  0  0  0
 25 74  1  0  0  0  0
 26 85  1  0  0  0  0
 27 86  1  0  0  0  0
 28 31  2  0  0  0  0
 28 85  1  0  0  0  0
 29 84  1  0  0  0  0
 30 87  1  0  0  0  0
 31 88  1  0  0  0  0
 32 67  2  0  0  0  0
 33 68  1  0  0  0  0
 33 72  1  0  0  0  0
 34 43  1  0  0  0  0
 34 69  1  0  0  0  0
 34 78  2  0  0  0  0
 35 73  1  0  0  0  0
 35 79  2  0  0  0  0
 36 53  1  0  0  0  0
 36 75  1  0  0  0  0
 36 80  2  0  0  0  0
 37 64  1  0  0  0  0
 37 70  1  0  0  0  0
 37 81  2  0  0  0  0
 38 65  1  0  0  0  0
 38 76  1  0  0  0  0
 38 82  2  0  0  0  0
 39 71  1  0  0  0  0
 39 74  1  0  0  0  0
 39 83  2  0  0  0  0
 40 44  1  0  0  0  0
 41 53  1  0  0  0  0
 42 70  1  0  0  0  0
 43 54  1  0  0  0  0
 44 46  1  0  0  0  0
 45 47  1  0  0  0  0
 45 49  1  0  0  0  0
 46 52  1  0  0  0  0
 47 55  1  0  0  0  0
 48 50  1  0  0  0  0
 48 54  1  0  0  0  0
 49 71  1  0  0  0  0
 50 69  1  0  0  0  0
 51 55  1  0  0  0  0
 51 71  1  0  0  0  0
 52 75  1  0  0  0  0
 53 70  1  0  0  0  0
 54 63  1  0  0  0  0
 55 68  1  0  0  0  0
 57 65  1  0  0  0  0
 58 66  1  0  0  0  0
 59 66  1  0  0  0  0
 60 66  1  0  0  0  0
 61 77  1  0  0  0  0
 62 69  1  0  0  0  0
 63 86  1  0  0  0  0
 64 66  1  0  0  0  0
 64 76  1  0  0  0  0
 65 77  1  0  0  0  0
 67 68  1  0  0  0  0
M  CHG  1  77   1
M  ISO  4  39 100  63 101  74 100  86 101
M  END
> <Batch ID>
0054

> <Smiles>
CNC(C)C(=O)NC(C(=O)N1Cc2cc([101O:1][101CH2:1]C3CCN(Cc4cc([100NH:0][100C:0](=O)N5CCCC(n6nc(-c7ccc(Oc8ccc(F)cc8F)cc7)c(C(N)=O)c6N)C5)cc(O)c4C)C(=O)C3)ccc2CC1C(=O)NC1CCCc2ccccc21)C(C)(C)C

> <Shape>
0.286

> <Color>
0.081

> <Negative vol penalty>
0.000

$$$$

  -OEChem-04042322463D

 81 89  0     1  0  0  0  0  0999 V2000
  -19.4351  -32.7900   24.9827 C   0  0  0  0  0  0  0  0  0  0  0  0
  -20.5026  -32.0284   25.4472 C   0  0  0  0  0  0  0  0  0  0  0  0
  -31.8073  -21.3025   21.2136 C   0  0  0  0  0  0  0  0  0  0  0  0
  -25.1503  -14.7857   21.8196 C   0  0  0  0  0  0  0  0  0  0  0  0
  -25.6144  -13.6369   19.7455 C   0  0  0  0  0  0  0  0  0  0  0  0
  -30.8857  -21.4761   20.1811 C   0  0  0  0  0  0  0  0  0  0  0  0
  -18.6536  -32.3222   23.9270 C   0  0  0  0  0  0  0  0  0  0  0  0
  -20.7886  -30.7978   24.8569 C   0  0  0  0  0  0  0  0  0  0  0  0
  -26.3229  -28.3096   24.0291 C   0  0  0  0  0  0  0  0  0  0  0  0
  -31.4738  -21.6742   22.5160 C   0  0  0  0  0  0  0  0  0  0  0  0
  -24.1490  -13.8588   22.1090 C   0  0  0  0  0  0  0  0  0  0  0  0
  -24.6132  -12.7099   20.0349 C   0  0  0  0  0  0  0  0  0  0  0  0
  -27.0381  -27.3526   24.7478 C   0  0  0  0  0  0  0  0  0  0  0  0
  -24.2409   -9.9754   21.9853 C   0  0  0  0  0  0  0  0  0  0  0  0
  -24.5298   -8.6264   21.7800 C   0  0  0  0  0  0  0  0  0  0  0  0
  -29.2970  -22.3930   21.7533 C   0  0  0  0  0  0  0  0  0  0  0  0
  -26.2439  -25.6400   23.2460 C   0  0  0  0  0  0  0  0  0  0  0  0
  -22.7144   -8.4793   20.1926 C   0  0  0  0  0  0  0  0  0  0  0  0
  -25.8830  -14.6748   20.6379 C   0  0  0  0  0  0  0  0  0  0  0  0
  -29.6305  -22.0213   20.4510 C   0  0  0  0  0  0  0  0  0  0  0  0
  -28.2783  -15.5509   20.6876 C   0  0  0  0  0  0  0  0  0  0  0  0
  -18.9362  -31.0897   23.3172 C   0  0  0  0  0  0  0  0  0  0  0  0
  -25.5528  -27.9366   22.9181 C   0  0  0  0  0  0  0  0  0  0  0  0
  -20.0094  -30.3124   23.7930 C   0  0  0  0  0  0  0  0  0  0  0  0
  -25.5219  -26.5945   22.5134 C   0  0  0  0  0  0  0  0  0  0  0  0
  -30.2187  -22.2194   22.7859 C   0  0  0  0  0  0  0  0  0  0  0  0
  -23.8804  -12.8209   21.2167 C   0  0  0  0  0  0  0  0  0  0  0  0
  -26.9964  -26.0171   24.3580 C   0  0  0  0  0  0  0  0  0  0  0  0
  -23.1887  -10.5764   21.2944 C   0  0  0  0  0  0  0  0  0  0  0  0
  -23.7665   -7.8783   20.8836 C   0  0  0  0  0  0  0  0  0  0  0  0
  -22.4254   -9.8283   20.3980 C   0  0  0  0  0  0  0  0  0  0  0  0
  -26.9171  -15.6324   20.3381 C   0  0  0  0  0  0  0  0  0  0  0  0
  -28.8336  -16.6981   20.1755 C   0  0  0  0  0  0  0  0  0  0  0  0
  -30.1709  -23.8115   24.4252 C   0  0  0  0  0  0  0  0  0  0  0  0
  -28.6606  -22.2045   19.3635 C   0  0  0  0  0  0  0  0  0  0  0  0
  -28.9784  -14.5296   21.4105 C   0  0  0  0  0  0  0  0  0  0  0  0
  -22.4622  -28.0639   22.1865 C   0  0  0  0  0  0  0  0  0  0  0  0
  -23.5036  -27.0294   19.2938 C   0  0  0  0  0  0  0  0  0  0  0  0
  -25.9061  -25.4126   17.4881 C   0  0  0  0  0  0  0  0  0  0  0  0
  -18.0343  -30.6039   22.2103 C   0  0  0  0  0  0  0  0  0  0  0  0
  -24.8085  -28.9850   22.1375 C   0  0  0  0  0  0  0  0  0  0  0  0
  -24.7266  -26.1455   21.3158 C   0  0  0  0  0  0  0  0  0  0  0  0
  -18.6337  -29.4622   21.3932 C   0  0  0  0  0  0  0  0  0  0  0  0
  -26.9471  -20.1517   16.9989 C   0  0  0  0  0  0  0  0  0  0  0  0
  -19.2293  -28.4020   22.3141 C   0  0  0  0  0  0  0  0  0  0  0  0
  -26.8793  -18.7894   17.6914 C   0  0  0  0  0  0  0  0  0  0  0  0
  -26.8107  -21.2987   17.9970 C   0  0  0  0  0  0  0  0  0  0  0  0
  -27.7032  -19.8862   19.8171 C   0  0  0  0  0  0  0  0  0  0  0  0
  -20.3665  -28.9839   23.1624 C   0  0  1  0  0  0  0  0  0  0  0  0
  -23.6458  -28.4157   21.3304 C   0  0  1  0  0  0  0  0  0  0  0  0
  -27.8877  -18.7031   18.8525 C   0  0  1  0  0  0  0  0  0  0  0  0
  -31.1583  -24.7407   26.4816 C   0  0  0  0  0  0  0  0  0  0  0  0
  -26.4607  -24.6902   15.1498 C   0  0  0  0  0  0  0  0  0  0  0  0
  -21.4848  -24.7529   19.5209 C   0  0  0  0  0  0  0  0  0  0  0  0
  -22.7140  -23.5729   17.6865 C   0  0  0  0  0  0  0  0  0  0  0  0
  -21.6440  -25.7832   17.2476 C   0  0  0  0  0  0  0  0  0  0  0  0
  -28.3686  -27.0536   17.4412 C   0  0  0  0  0  0  0  0  0  0  0  0
  -28.8931  -25.5099   25.7001 C   0  0  0  0  0  0  0  0  0  1  0  0
  -29.8539  -24.3289   25.8104 C   0  0  1  0  0  0  0  0  0  0  0  0
  -23.7369  -25.6783   18.6621 C   0  0  1  0  0  0  0  0  0  0  0  0
  -26.6153  -25.7815   16.1976 C   0  0  2  0  0  0  0  0  0  0  0  0
  -22.4085  -24.9547   18.3031 C   0  0  0  0  0  0  0  0  0  0  0  0
  -26.6253  -16.7435   19.6568 N   0  0  0  0  0  0  0  0  0  0  0  0
  -29.8834  -22.5938   24.0977 N   0  0  0  0  0  0  0  0  0  0  0  0
  -27.8109  -17.3709   19.5741 N   0  0  0  0  0  0  0  0  0  0  0  0
  -27.7796  -21.1573   19.0833 N   0  0  0  0  0  0  0  0  0  0  0  0
  -24.0108  -27.2069   20.5889 N   0  0  0  0  0  0  0  0  0  0  0  0
  -30.0919  -17.1869   20.1855 N   0  0  0  0  0  0  0  0  0  0  0  0
  -28.2557  -13.4182   21.8652 N   0  0  0  0  0  0  0  0  0  0  0  0
  -21.5739  -29.1057   22.3739 N   0  0  0  0  0  0  0  0  0  0  0  0
  -24.6195  -25.9071   17.5232 N   0  0  0  0  0  0  0  0  0  0  0  0
  -28.0696  -25.9907   16.4473 N   0  3  0  0  0  0  0  0  0  0  0  0
  -28.7093  -23.2793   18.7672 O   0  0  0  0  0  0  0  0  0  0  0  0
  -30.2051  -14.6084   21.6604 O   0  0  0  0  0  0  0  0  0  0  0  0
  -22.3614  -26.9308   22.6420 O   0  0  0  0  0  0  0  0  0  0  0  0
  -22.9001  -27.8978   18.6588 O   0  0  0  0  0  0  0  0  0  0  0  0
  -26.4389  -24.7487   18.3747 O   0  0  0  0  0  0  0  0  0  0  0  0
  -22.9036  -11.9160   21.4988 O   0  0  0  0  0  0  0  0  0  0  0  0
  -27.6930  -25.0810   25.0581 O   0  0  0  0  0  0  0  0  0  1  0  0
  -24.0451   -6.5832   20.6853 F   0  0  0  0  0  0  0  0  0  0  0  0
  -21.4141  -10.4005   19.7305 F   0  0  0  0  0  0  0  0  0  0  0  0
  1  2  1  0  0  0  0
  1  7  2  0  0  0  0
  2  8  2  0  0  0  0
  3  6  1  0  0  0  0
  3 10  2  0  0  0  0
  4 11  2  0  0  0  0
  4 19  1  0  0  0  0
  5 12  1  0  0  0  0
  5 19  2  0  0  0  0
  6 20  2  0  0  0  0
  7 22  1  0  0  0  0
  8 24  1  0  0  0  0
  9 13  2  0  0  0  0
  9 23  1  0  0  0  0
 10 26  1  0  0  0  0
 11 27  1  0  0  0  0
 12 27  2  0  0  0  0
 13 28  1  0  0  0  0
 14 15  2  0  0  0  0
 14 29  1  0  0  0  0
 15 30  1  0  0  0  0
 16 20  1  0  0  0  0
 16 26  2  0  0  0  0
 17 25  1  0  0  0  0
 17 28  2  0  0  0  0
 18 30  2  0  0  0  0
 18 31  1  0  0  0  0
 19 32  1  0  0  0  0
 20 35  1  0  0  0  0
 21 32  1  0  0  0  0
 21 33  2  0  0  0  0
 21 36  1  0  0  0  0
 22 24  2  0  0  0  0
 22 40  1  0  0  0  0
 23 25  2  0  0  0  0
 23 41  1  0  0  0  0
 24 49  1  0  0  0  0
 25 42  1  0  0  0  0
 26 64  1  0  0  0  0
 27 78  1  0  0  0  0
 28 79  1  0  0  0  0
 29 31  2  0  0  0  0
 29 78  1  0  0  0  0
 30 80  1  0  0  0  0
 31 81  1  0  0  0  0
 32 63  2  0  0  0  0
 33 65  1  0  0  0  0
 33 68  1  0  0  0  0
 34 59  1  0  0  0  0
 34 64  2  0  0  0  0
 35 66  1  0  0  0  0
 35 73  2  0  0  0  0
 36 69  1  0  0  0  0
 36 74  2  0  0  0  0
 37 50  1  0  0  0  0
 37 70  1  0  0  0  0
 37 75  2  0  0  0  0
 38 60  1  0  0  0  0
 38 67  1  0  0  0  0
 38 76  2  0  0  0  0
 39 61  1  0  0  0  0
 39 71  1  0  0  0  0
 39 77  2  0  0  0  0
 40 43  1  0  0  0  0
 41 50  1  0  0  0  0
 42 67  1  0  0  0  0
 43 45  1  0  0  0  0
 44 46  1  0  0  0  0
 44 47  1  0  0  0  0
 45 49  1  0  0  0  0
 46 51  1  0  0  0  0
 47 66  1  0  0  0  0
 48 51  1  0  0  0  0
 48 66  1  0  0  0  0
 49 70  1  0  0  0  0
 50 67  1  0  0  0  0
 51 65  1  0  0  0  0
 52 59  1  0  0  0  0
 53 61  1  0  0  0  0
 54 62  1  0  0  0  0
 55 62  1  0  0  0  0
 56 62  1  0  0  0  0
 57 72  1  0  0  0  0
 58 59  1  0  0  0  0
 58 79  1  0  0  0  0
 60 62  1  0  0  0  0
 60 71  1  0  0  0  0
 61 72  1  0  0  0  0
 63 65  1  0  0  0  0
M  CHG  1  72   1
M  ISO  4  20 100  35 100  58 101  79 101
M  END
> <Batch ID>
0054

> <Smiles>
CNC(C)C(=O)NC(C(=O)N1Cc2cc([101O:1][101CH2:1]C(C)=CNc3ccc[100c:0]([100C:0](=O)N4CCCC(n5nc(-c6ccc(Oc7ccc(F)cc7F)cc6)c(C(N)=O)c5N)C4)c3)ccc2CC1C(=O)NC1CCCc2ccccc21)C(C)(C)C

> <Shape>
0.203

> <Color>
0.072

> <Negative vol penalty>
0.000

$$$$

  -OEChem-04042322463D

 84 92  0     1  0  0  0  0  0999 V2000
  -32.6683  -26.2953   17.5341 C   0  0  0  0  0  0  0  0  0  0  0  0
  -31.3695  -26.0084   17.9420 C   0  0  0  0  0  0  0  0  0  0  0  0
  -24.6319   -9.1883   21.9536 C   0  0  0  0  0  0  0  0  0  0  0  0
  -23.0268  -10.3755   20.5929 C   0  0  0  0  0  0  0  0  0  0  0  0
  -33.4726  -27.1302   18.3086 C   0  0  0  0  0  0  0  0  0  0  0  0
  -30.8747  -26.5554   19.1254 C   0  0  0  0  0  0  0  0  0  0  0  0
  -26.1828  -28.3885   18.6054 C   0  0  0  0  0  0  0  0  0  0  0  0
  -22.9718  -19.3399   18.7393 C   0  0  0  0  0  0  0  0  0  0  0  0
  -23.8736  -18.2935   18.9321 C   0  0  0  0  0  0  0  0  0  0  0  0
  -23.5988   -8.4432   22.5221 C   0  0  0  0  0  0  0  0  0  0  0  0
  -21.9937   -9.6304   21.1613 C   0  0  0  0  0  0  0  0  0  0  0  0
  -25.1361  -27.4674   18.6020 C   0  0  0  0  0  0  0  0  0  0  0  0
  -21.6819   -5.7904   21.6733 C   0  0  0  0  0  0  0  0  0  0  0  0
  -21.8689   -4.4139   21.7996 C   0  0  0  0  0  0  0  0  0  0  0  0
  -24.6834  -27.9825   20.9148 C   0  0  0  0  0  0  0  0  0  0  0  0
  -25.0738  -19.6262   20.5510 C   0  0  0  0  0  0  0  0  0  0  0  0
  -21.6078   -4.5983   24.1944 C   0  0  0  0  0  0  0  0  0  0  0  0
  -24.3459  -10.1545   20.9890 C   0  0  0  0  0  0  0  0  0  0  0  0
  -26.1552  -10.6078   19.2487 C   0  0  0  0  0  0  0  0  0  0  0  0
  -32.9841  -27.6955   19.4971 C   0  0  0  0  0  0  0  0  0  0  0  0
  -26.4951  -29.1067   19.7686 C   0  0  0  0  0  0  0  0  0  0  0  0
  -31.6737  -27.3976   19.9172 C   0  0  0  0  0  0  0  0  0  0  0  0
  -25.7328  -28.9139   20.9296 C   0  0  0  0  0  0  0  0  0  0  0  0
  -23.1210  -20.5295   19.4522 C   0  0  0  0  0  0  0  0  0  0  0  0
  -24.1720  -20.6726   20.3581 C   0  0  0  0  0  0  0  0  0  0  0  0
  -24.9246  -18.4366   19.8380 C   0  0  0  0  0  0  0  0  0  0  0  0
  -22.2798   -8.6642   22.1260 C   0  0  0  0  0  0  0  0  0  0  0  0
  -24.3881  -27.2622   19.7576 C   0  0  0  0  0  0  0  0  0  0  0  0
  -21.4578   -6.5708   22.8075 C   0  0  0  0  0  0  0  0  0  0  0  0
  -21.8319   -3.8179   23.0602 C   0  0  0  0  0  0  0  0  0  0  0  0
  -21.4208   -5.9748   24.0680 C   0  0  0  0  0  0  0  0  0  0  0  0
  -25.4125  -10.9250   20.4018 C   0  0  0  0  0  0  0  0  0  0  0  0
  -27.0398  -11.6496   19.1127 C   0  0  0  0  0  0  0  0  0  0  0  0
  -26.0544   -9.4729   18.3784 C   0  0  0  0  0  0  0  0  0  0  0  0
  -29.0392  -29.3117   21.6632 C   0  0  0  0  0  0  0  0  0  0  0  0
  -27.3037  -31.6521   23.0889 C   0  0  0  0  0  0  0  0  0  0  0  0
  -22.7646  -24.0527   19.4748 C   0  0  0  0  0  0  0  0  0  0  0  0
  -24.2353  -33.0001   23.7329 C   0  0  0  0  0  0  0  0  0  0  0  0
  -26.9369  -17.3516   20.8964 C   0  0  0  0  0  0  0  0  0  0  0  0
  -33.9068  -28.5542   20.3253 C   0  0  0  0  0  0  0  0  0  0  0  0
  -27.6101  -30.1160   19.7483 C   0  0  0  0  0  0  0  0  0  0  0  0
  -26.0146  -29.6745   22.1987 C   0  0  0  0  0  0  0  0  0  0  0  0
  -33.1805  -29.3938   21.3731 C   0  0  0  0  0  0  0  0  0  0  0  0
  -29.4062  -14.9145   21.6964 C   0  0  0  0  0  0  0  0  0  0  0  0
  -32.1654  -28.5426   22.1293 C   0  0  0  0  0  0  0  0  0  0  0  0
  -28.7321  -13.5863   21.3445 C   0  0  0  0  0  0  0  0  0  0  0  0
  -28.4140  -15.9154   22.2858 C   0  0  0  0  0  0  0  0  0  0  0  0
  -26.5380  -14.8208   21.1232 C   0  0  0  0  0  0  0  0  0  0  0  0
  -31.0927  -27.9917   21.1820 C   0  0  1  0  0  0  0  0  0  0  0  0
  -28.1689  -30.4171   21.1356 C   0  0  1  0  0  0  0  0  0  0  0  0
  -27.4844  -13.8030   20.4660 C   0  0  2  0  0  0  0  0  0  0  0  0
  -24.3502  -21.9363   21.1340 C   0  0  0  0  0  0  0  0  0  0  0  0
  -23.1327  -34.8920   24.9586 C   0  0  0  0  0  0  0  0  0  0  0  0
  -27.7283  -30.1851   25.7304 C   0  0  0  0  0  0  0  0  0  0  0  0
  -25.8675  -31.5468   26.7057 C   0  0  0  0  0  0  0  0  0  0  0  0
  -27.9322  -32.6734   25.8747 C   0  0  0  0  0  0  0  0  0  0  0  0
  -23.4701  -22.7381   17.4682 C   0  0  0  0  0  0  0  0  0  0  0  0
  -23.1105  -34.1171   21.2336 C   0  0  0  0  0  0  0  0  0  0  0  0
  -22.1382  -21.6420   19.2270 C   0  0  0  0  0  0  0  0  0  0  0  0
  -23.4866  -25.2437   18.8806 C   0  0  0  0  0  0  0  0  0  1  0  0
  -26.2949  -31.7024   24.2108 C   0  0  1  0  0  0  0  0  0  0  0  0
  -23.7206  -34.4250   23.6361 C   0  0  2  0  0  0  0  0  0  0  0  0
  -26.9514  -31.5110   25.6072 C   0  0  0  0  0  0  0  0  0  0  0  0
  -25.7924  -12.0780   20.9588 N   0  0  0  0  0  0  0  0  0  0  0  0
  -26.7835  -12.4944   20.1523 N   0  0  0  0  0  0  0  0  0  0  0  0
  -27.1190  -30.6457   22.1304 N   0  0  0  0  0  0  0  0  0  0  0  0
  -27.2604  -16.0729   21.3974 N   0  0  0  0  0  0  0  0  0  0  0  0
  -28.0043  -11.9162   18.2065 N   0  0  0  0  0  0  0  0  0  0  0  0
  -25.0910   -8.4957   18.6635 N   0  0  0  0  0  0  0  0  0  0  0  0
  -25.8398  -17.3731   20.0358 N   0  0  0  0  0  0  0  0  0  0  0  0
  -30.1258  -29.0196   20.8610 N   0  0  0  0  0  0  0  0  0  0  0  0
  -25.5751  -32.9619   24.0565 N   0  0  0  0  0  0  0  0  0  0  0  0
  -22.7904  -22.8596   18.7520 N   0  0  0  0  0  0  0  0  0  0  0  0
  -22.6632  -34.5238   22.5906 N   0  3  0  0  0  0  0  0  0  0  0  0
  -26.8076   -9.3215   17.3868 O   0  0  0  0  0  0  0  0  0  0  0  0
  -28.7473  -28.7653   22.7205 O   0  0  0  0  0  0  0  0  0  0  0  0
  -28.2178  -32.4800   23.0601 O   0  0  0  0  0  0  0  0  0  0  0  0
  -22.1976  -24.1856   20.5637 O   0  0  0  0  0  0  0  0  0  0  0  0
  -23.5195  -32.0190   23.5442 O   0  0  0  0  0  0  0  0  0  0  0  0
  -27.6018  -18.3495   21.1862 O   0  0  0  0  0  0  0  0  0  0  0  0
  -21.2715   -7.9371   22.6803 O   0  0  0  0  0  0  0  0  0  0  0  0
  -23.3664  -26.3633   19.7572 O   0  0  0  0  0  0  0  0  0  1  0  0
  -22.0100   -2.4958   23.1812 F   0  0  0  0  0  0  0  0  0  0  0  0
  -21.2047   -6.7192   25.1612 F   0  0  0  0  0  0  0  0  0  0  0  0
  1  2  1  0  0  0  0
  1  5  2  0  0  0  0
  2  6  2  0  0  0  0
  3 10  2  0  0  0  0
  3 18  1  0  0  0  0
  4 11  1  0  0  0  0
  4 18  2  0  0  0  0
  5 20  1  0  0  0  0
  6 22  1  0  0  0  0
  7 12  2  0  0  0  0
  7 21  1  0  0  0  0
  8  9  2  0  0  0  0
  8 24  1  0  0  0  0
  9 26  1  0  0  0  0
 10 27  1  0  0  0  0
 11 27  2  0  0  0  0
 12 28  1  0  0  0  0
 13 14  2  0  0  0  0
 13 29  1  0  0  0  0
 14 30  1  0  0  0  0
 15 23  1  0  0  0  0
 15 28  2  0  0  0  0
 16 25  1  0  0  0  0
 16 26  2  0  0  0  0
 17 30  2  0  0  0  0
 17 31  1  0  0  0  0
 18 32  1  0  0  0  0
 19 32  1  0  0  0  0
 19 33  2  0  0  0  0
 19 34  1  0  0  0  0
 20 22  2  0  0  0  0
 20 40  1  0  0  0  0
 21 23  2  0  0  0  0
 21 41  1  0  0  0  0
 22 49  1  0  0  0  0
 23 42  1  0  0  0  0
 24 25  2  0  0  0  0
 24 59  1  0  0  0  0
 25 52  1  0  0  0  0
 26 70  1  0  0  0  0
 27 81  1  0  0  0  0
 28 82  1  0  0  0  0
 29 31  2  0  0  0  0
 29 81  1  0  0  0  0
 30 83  1  0  0  0  0
 31 84  1  0  0  0  0
 32 64  2  0  0  0  0
 33 65  1  0  0  0  0
 33 68  1  0  0  0  0
 34 69  1  0  0  0  0
 34 75  2  0  0  0  0
 35 50  1  0  0  0  0
 35 71  1  0  0  0  0
 35 76  2  0  0  0  0
 36 61  1  0  0  0  0
 36 66  1  0  0  0  0
 36 77  2  0  0  0  0
 37 60  1  0  0  0  0
 37 73  1  0  0  0  0
 37 78  2  0  0  0  0
 38 62  1  0  0  0  0
 38 72  1  0  0  0  0
 38 79  2  0  0  0  0
 39 67  1  0  0  0  0
 39 70  1  0  0  0  0
 39 80  2  0  0  0  0
 40 43  1  0  0  0  0
 41 50  1  0  0  0  0
 42 66  1  0  0  0  0
 43 45  1  0  0  0  0
 44 46  1  0  0  0  0
 44 47  1  0  0  0  0
 45 49  1  0  0  0  0
 46 51  1  0  0  0  0
 47 67  1  0  0  0  0
 48 51  1  0  0  0  0
 48 67  1  0  0  0  0
 49 71  1  0  0  0  0
 50 66  1  0  0  0  0
 51 65  1  0  0  0  0
 53 62  1  0  0  0  0
 54 63  1  0  0  0  0
 55 63  1  0  0  0  0
 56 63  1  0  0  0  0
 57 73  1  0  0  0  0
 58 74  1  0  0  0  0
 59 73  1  0  0  0  0
 60 82  1  0  0  0  0
 61 63  1  0  0  0  0
 61 72  1  0  0  0  0
 62 74  1  0  0  0  0
 64 65  1  0  0  0  0
M  CHG  1  74   1
M  ISO  4  39 100  60 101  70 100  82 101
M  END
> <Batch ID>
0054

> <Smiles>
CNC(C)C(=O)NC(C(=O)N1Cc2cc([101O:1][101CH2:1]C(=O)N(C)Cc3ccc([100NH:0][100C:0](=O)N4CCCC(n5nc(-c6ccc(Oc7ccc(F)cc7F)cc6)c(C(N)=O)c5N)C4)cc3C)ccc2CC1C(=O)NC1CCCc2ccccc21)C(C)(C)C

> <Shape>
0.264

> <Color>
0.097

> <Negative vol penalty>
0.000

$$$$

  -OEChem-04042322463D

 88 97  0     1  0  0  0  0  0999 V2000
  -26.3569  -34.8243   24.5819 C   0  0  0  0  0  0  0  0  0  0  0  0
  -26.8450  -33.6115   24.1060 C   0  0  0  0  0  0  0  0  0  0  0  0
  -20.7487  -18.0464   20.0745 C   0  0  0  0  0  0  0  0  0  0  0  0
  -21.9033  -19.1360   18.2532 C   0  0  0  0  0  0  0  0  0  0  0  0
  -25.0610  -34.9015   25.0905 C   0  0  0  0  0  0  0  0  0  0  0  0
  -26.0378  -32.4750   24.1395 C   0  0  0  0  0  0  0  0  0  0  0  0
  -26.2293  -29.8284   19.8263 C   0  0  0  0  0  0  0  0  0  0  0  0
  -19.5589  -18.6646   19.6901 C   0  0  0  0  0  0  0  0  0  0  0  0
  -20.7135  -19.7542   17.8688 C   0  0  0  0  0  0  0  0  0  0  0  0
  -27.3470  -29.0198   19.6245 C   0  0  0  0  0  0  0  0  0  0  0  0
  -17.1778  -18.2337   17.3284 C   0  0  0  0  0  0  0  0  0  0  0  0
  -16.0247  -17.4501   17.2851 C   0  0  0  0  0  0  0  0  0  0  0  0
  -26.0710  -27.0934   20.3173 C   0  0  0  0  0  0  0  0  0  0  0  0
  -31.1373  -21.5291   15.2718 C   0  0  0  0  0  0  0  0  0  0  0  0
  -30.7873  -21.2233   17.6426 C   0  0  0  0  0  0  0  0  0  0  0  0
  -14.9862  -18.8877   18.9258 C   0  0  0  0  0  0  0  0  0  0  0  0
  -21.9210  -18.2821   19.3561 C   0  0  0  0  0  0  0  0  0  0  0  0
  -23.4043  -16.2617   19.8308 C   0  0  0  0  0  0  0  0  0  0  0  0
  -24.2342  -33.7675   25.1213 C   0  0  0  0  0  0  0  0  0  0  0  0
  -25.0252  -29.2763   20.2863 C   0  0  0  0  0  0  0  0  0  0  0  0
  -24.7301  -32.5368   24.6502 C   0  0  0  0  0  0  0  0  0  0  0  0
  -24.9388  -27.8968   20.5217 C   0  0  0  0  0  0  0  0  0  0  0  0
  -31.4441  -21.8623   16.5911 C   0  0  0  0  0  0  0  0  0  0  0  0
  -30.1734  -20.5569   15.0041 C   0  0  0  0  0  0  0  0  0  0  0  0
  -29.8235  -20.2511   17.3750 C   0  0  0  0  0  0  0  0  0  0  0  0
  -19.5413  -19.5185   18.5872 C   0  0  0  0  0  0  0  0  0  0  0  0
  -27.2688  -27.6526   19.8727 C   0  0  0  0  0  0  0  0  0  0  0  0
  -17.2352  -19.3443   18.1704 C   0  0  0  0  0  0  0  0  0  0  0  0
  -14.9289  -17.7771   18.0837 C   0  0  0  0  0  0  0  0  0  0  0  0
  -16.1393  -19.6713   18.9691 C   0  0  0  0  0  0  0  0  0  0  0  0
  -29.5166  -19.9179   16.0557 C   0  0  0  0  0  0  0  0  0  0  0  0
  -23.1505  -17.6442   19.7530 C   0  0  0  0  0  0  0  0  0  0  0  0
  -24.7083  -16.1754   20.2536 C   0  0  0  0  0  0  0  0  0  0  0  0
  -31.5080  -25.1288   16.3612 C   0  0  0  0  0  0  0  0  0  0  0  0
  -22.5389  -15.1546   19.5463 C   0  0  0  0  0  0  0  0  0  0  0  0
  -23.2204  -29.6706   22.8730 C   0  0  0  0  0  0  0  0  0  0  0  0
  -21.1964  -27.6948   21.2849 C   0  0  0  0  0  0  0  0  0  0  0  0
  -20.7755  -25.2690   18.9216 C   0  0  0  0  0  0  0  0  0  0  0  0
  -29.3910  -19.8624   19.8262 C   0  0  0  0  0  0  0  0  0  0  0  0
  -22.8570  -33.8894   25.7240 C   0  0  0  0  0  0  0  0  0  0  0  0
  -23.8209  -30.1579   20.4734 C   0  0  0  0  0  0  0  0  0  0  0  0
  -23.6635  -27.2517   20.9971 C   0  0  0  0  0  0  0  0  0  0  0  0
  -30.9496  -26.3919   16.9861 C   0  0  0  0  0  0  0  0  0  0  0  0
  -21.9355  -32.7224   25.3786 C   0  0  0  0  0  0  0  0  0  0  0  0
  -27.9780  -18.5531   22.8205 C   0  0  0  0  0  0  0  0  0  0  0  0
  -22.6598  -31.3942   25.5743 C   0  0  0  0  0  0  0  0  0  0  0  0
  -26.6052  -18.0401   22.3795 C   0  0  0  0  0  0  0  0  0  0  0  0
  -30.6335  -25.1943   19.1893 C   0  0  0  0  0  0  0  0  0  0  0  0
  -28.3653  -19.8373   22.0894 C   0  0  0  0  0  0  0  0  0  0  0  0
  -31.9017  -24.4838   18.7193 C   0  0  0  0  0  0  0  0  0  0  0  0
  -26.9183  -19.2513   20.1836 C   0  0  0  0  0  0  0  0  0  0  0  0
  -23.8763  -31.2873   24.6469 C   0  0  1  0  0  0  0  0  0  0  0  0
  -22.7936  -29.5698   21.4358 C   0  0  1  0  0  0  0  0  0  0  0  0
  -29.9563  -26.0230   18.0872 C   0  0  1  0  0  0  0  0  0  0  0  0
  -26.5132  -17.9241   20.8454 C   0  0  2  0  0  0  0  0  0  0  0  0
  -29.8771  -20.2331   13.5749 C   0  0  0  0  0  0  0  0  0  0  0  0
  -19.0111  -23.8245   17.8739 C   0  0  0  0  0  0  0  0  0  0  0  0
  -21.1701  -25.9274   23.7720 C   0  0  0  0  0  0  0  0  0  0  0  0
  -20.2056  -24.0902   22.3711 C   0  0  0  0  0  0  0  0  0  0  0  0
  -18.9413  -26.2189   22.6758 C   0  0  0  0  0  0  0  0  0  0  0  0
  -21.2631  -26.4186   16.2383 C   0  0  0  0  0  0  0  0  0  0  0  0
  -32.4823  -22.9081   16.8785 C   0  0  0  0  0  0  0  0  0  0  0  0
  -29.2799  -27.2632   18.6644 C   0  0  0  0  0  0  0  0  0  1  0  0
  -21.0012  -26.1997   21.2101 C   0  0  1  0  0  0  0  0  0  0  0  0
  -19.7801  -25.1334   17.7835 C   0  0  2  0  0  0  0  0  0  0  0  0
  -20.3543  -25.6212   22.5001 C   0  0  0  0  0  0  0  0  0  0  0  0
  -24.2082  -18.3830   20.0987 N   0  0  0  0  0  0  0  0  0  0  0  0
  -25.1393  -17.4613   20.3980 N   0  0  0  0  0  0  0  0  0  0  0  0
  -31.8861  -24.1657   17.2970 N   0  0  0  0  0  0  0  0  0  0  0  0
  -22.5153  -28.1567   21.1712 N   0  0  0  0  0  0  0  0  0  0  0  0
  -28.2585  -19.6511   20.6407 N   0  0  0  0  0  0  0  0  0  0  0  0
  -25.5167  -15.1256   20.5122 N   0  0  0  0  0  0  0  0  0  0  0  0
  -22.5159  -14.6426   18.2419 N   0  0  0  0  0  0  0  0  0  0  0  0
  -29.1778  -19.6233   18.4690 N   0  0  0  0  0  0  0  0  0  0  0  0
  -23.4581  -30.9632   23.2999 N   0  0  0  0  0  0  0  0  0  0  0  0
  -20.2363  -25.9483   19.9935 N   0  0  0  0  0  0  0  0  0  0  0  0
  -20.4849  -25.1747   16.4711 N   0  3  0  0  0  0  0  0  0  0  0  0
  -31.6174  -25.0190   15.1412 O   0  0  0  0  0  0  0  0  0  0  0  0
  -21.7954  -14.6454   20.4190 O   0  0  0  0  0  0  0  0  0  0  0  0
  -23.3247  -28.6514   23.5452 O   0  0  0  0  0  0  0  0  0  0  0  0
  -20.2140  -28.4263   21.4314 O   0  0  0  0  0  0  0  0  0  0  0  0
  -21.9160  -24.8144   18.8666 O   0  0  0  0  0  0  0  0  0  0  0  0
  -30.4777  -20.2023   20.3011 O   0  0  0  0  0  0  0  0  0  0  0  0
  -18.3804  -20.1217   18.2117 O   0  0  0  0  0  0  0  0  0  0  0  0
  -28.3585  -26.8612   19.6772 O   0  0  0  0  0  0  0  0  0  1  0  0
  -13.8210  -17.0254   18.0409 F   0  0  0  0  0  0  0  0  0  0  0  0
  -16.1881  -20.7377   19.7791 F   0  0  0  0  0  0  0  0  0  0  0  0
  -28.3194  -18.7109   15.7164 Cl  0  0  0  0  0  0  0  0  0  0  0  0
  1  2  1  0  0  0  0
  1  5  2  0  0  0  0
  2  6  2  0  0  0  0
  3  8  2  0  0  0  0
  3 17  1  0  0  0  0
  4  9  1  0  0  0  0
  4 17  2  0  0  0  0
  5 19  1  0  0  0  0
  6 21  1  0  0  0  0
  7 10  2  0  0  0  0
  7 20  1  0  0  0  0
  8 26  1  0  0  0  0
  9 26  2  0  0  0  0
 10 27  1  0  0  0  0
 11 12  2  0  0  0  0
 11 28  1  0  0  0  0
 12 29  1  0  0  0  0
 13 22  1  0  0  0  0
 13 27  2  0  0  0  0
 14 23  1  0  0  0  0
 14 24  2  0  0  0  0
 15 23  2  0  0  0  0
 15 25  1  0  0  0  0
 16 29  2  0  0  0  0
 16 30  1  0  0  0  0
 17 32  1  0  0  0  0
 18 32  1  0  0  0  0
 18 33  2  0  0  0  0
 18 35  1  0  0  0  0
 19 21  2  0  0  0  0
 19 40  1  0  0  0  0
 20 22  2  0  0  0  0
 20 41  1  0  0  0  0
 21 52  1  0  0  0  0
 22 42  1  0  0  0  0
 23 62  1  0  0  0  0
 24 31  1  0  0  0  0
 24 56  1  0  0  0  0
 25 31  2  0  0  0  0
 25 74  1  0  0  0  0
 26 84  1  0  0  0  0
 27 85  1  0  0  0  0
 28 30  2  0  0  0  0
 28 84  1  0  0  0  0
 29 86  1  0  0  0  0
 30 87  1  0  0  0  0
 31 88  1  0  0  0  0
 32 67  2  0  0  0  0
 33 68  1  0  0  0  0
 33 72  1  0  0  0  0
 34 43  1  0  0  0  0
 34 69  1  0  0  0  0
 34 78  2  0  0  0  0
 35 73  1  0  0  0  0
 35 79  2  0  0  0  0
 36 53  1  0  0  0  0
 36 75  1  0  0  0  0
 36 80  2  0  0  0  0
 37 64  1  0  0  0  0
 37 70  1  0  0  0  0
 37 81  2  0  0  0  0
 38 65  1  0  0  0  0
 38 76  1  0  0  0  0
 38 82  2  0  0  0  0
 39 71  1  0  0  0  0
 39 74  1  0  0  0  0
 39 83  2  0  0  0  0
 40 44  1  0  0  0  0
 41 53  1  0  0  0  0
 42 70  1  0  0  0  0
 43 54  1  0  0  0  0
 44 46  1  0  0  0  0
 45 47  1  0  0  0  0
 45 49  1  0  0  0  0
 46 52  1  0  0  0  0
 47 55  1  0  0  0  0
 48 50  1  0  0  0  0
 48 54  1  0  0  0  0
 49 71  1  0  0  0  0
 50 69  1  0  0  0  0
 51 55  1  0  0  0  0
 51 71  1  0  0  0  0
 52 75  1  0  0  0  0
 53 70  1  0  0  0  0
 54 63  1  0  0  0  0
 55 68  1  0  0  0  0
 57 65  1  0  0  0  0
 58 66  1  0  0  0  0
 59 66  1  0  0  0  0
 60 66  1  0  0  0  0
 61 77  1  0  0  0  0
 62 69  1  0  0  0  0
 63 85  1  0  0  0  0
 64 66  1  0  0  0  0
 64 76  1  0  0  0  0
 65 77  1  0  0  0  0
 67 68  1  0  0  0  0
M  CHG  1  77   1
M  ISO  4  39 100  63 101  74 100  85 101
M  END
> <Batch ID>
0054

> <Smiles>
CNC(C)C(=O)NC(C(=O)N1Cc2cc([101O:1][101CH2:1]C3CCN(Cc4cc(C)c(Cl)c([100NH:0][100C:0](=O)N5CCCC(n6nc(-c7ccc(Oc8ccc(F)cc8F)cc7)c(C(N)=O)c6N)C5)c4)C(=O)C3)ccc2CC1C(=O)NC1CCCc2ccccc21)C(C)(C)C

> <Shape>
0.191

> <Color>
0.112

> <Negative vol penalty>
0.000

$$$$

  -OEChem-04042322463D

 86 94  0     1  0  0  0  0  0999 V2000
  -24.4127  -23.0056   13.2351 C   0  0  0  0  0  0  0  0  0  0  0  0
  -24.3031  -21.7308   13.7812 C   0  0  0  0  0  0  0  0  0  0  0  0
  -28.5790  -26.1815   17.7350 C   0  0  0  0  0  0  0  0  0  0  0  0
  -28.6069  -26.0831   20.1489 C   0  0  0  0  0  0  0  0  0  0  0  0
  -24.5499  -24.1120   14.0724 C   0  0  0  0  0  0  0  0  0  0  0  0
  -24.3318  -21.5615   15.1650 C   0  0  0  0  0  0  0  0  0  0  0  0
  -21.2360  -17.4071   18.4305 C   0  0  0  0  0  0  0  0  0  0  0  0
  -30.4661  -13.2926   19.5194 C   0  0  0  0  0  0  0  0  0  0  0  0
  -30.1942  -12.1436   18.7768 C   0  0  0  0  0  0  0  0  0  0  0  0
  -27.9552  -27.4277   17.7930 C   0  0  0  0  0  0  0  0  0  0  0  0
  -27.9831  -27.3294   20.2068 C   0  0  0  0  0  0  0  0  0  0  0  0
  -21.6009  -16.1719   18.9641 C   0  0  0  0  0  0  0  0  0  0  0  0
  -24.8590  -28.5707   19.8459 C   0  0  0  0  0  0  0  0  0  0  0  0
  -23.7970  -28.7230   20.7373 C   0  0  0  0  0  0  0  0  0  0  0  0
  -22.0589  -17.2294   21.0833 C   0  0  0  0  0  0  0  0  0  0  0  0
  -28.1182  -13.5073   20.0469 C   0  0  0  0  0  0  0  0  0  0  0  0
  -25.0079  -30.4732   21.8809 C   0  0  0  0  0  0  0  0  0  0  0  0
  -28.9049  -25.5092   18.9130 C   0  0  0  0  0  0  0  0  0  0  0  0
  -30.9324  -23.9634   18.8274 C   0  0  0  0  0  0  0  0  0  0  0  0
  -24.5705  -23.9571   15.4675 C   0  0  0  0  0  0  0  0  0  0  0  0
  -21.2903  -18.5665   19.2175 C   0  0  0  0  0  0  0  0  0  0  0  0
  -24.4707  -22.6667   16.0218 C   0  0  0  0  0  0  0  0  0  0  0  0
  -21.6917  -18.4777   20.5581 C   0  0  0  0  0  0  0  0  0  0  0  0
  -29.4281  -13.9744   20.1545 C   0  0  0  0  0  0  0  0  0  0  0  0
  -28.8843  -11.6765   18.6692 C   0  0  0  0  0  0  0  0  0  0  0  0
  -27.8463  -12.3583   19.3042 C   0  0  0  0  0  0  0  0  0  0  0  0
  -27.6572  -28.0017   19.0289 C   0  0  0  0  0  0  0  0  0  0  0  0
  -22.0152  -16.0833   20.2898 C   0  0  0  0  0  0  0  0  0  0  0  0
  -25.9955  -29.3696   19.9721 C   0  0  0  0  0  0  0  0  0  0  0  0
  -23.8714  -29.6742   21.7548 C   0  0  0  0  0  0  0  0  0  0  0  0
  -26.0699  -30.3209   20.9895 C   0  0  0  0  0  0  0  0  0  0  0  0
  -29.5488  -24.2216   18.8537 C   0  0  0  0  0  0  0  0  0  0  0  0
  -31.0253  -22.5942   18.7714 C   0  0  0  0  0  0  0  0  0  0  0  0
  -32.0352  -24.8795   18.8516 C   0  0  0  0  0  0  0  0  0  0  0  0
  -22.9093  -21.2983   19.0783 C   0  0  0  0  0  0  0  0  0  0  0  0
  -21.0117  -22.0989   21.5845 C   0  0  0  0  0  0  0  0  0  0  0  0
  -24.9032  -13.3838   20.4988 C   0  0  0  0  0  0  0  0  0  0  0  0
  -19.0814  -21.0665   24.2026 C   0  0  0  0  0  0  0  0  0  0  0  0
  -29.5250  -17.6474   20.5672 C   0  0  0  0  0  0  0  0  0  0  0  0
  -24.7681  -25.1781   16.3306 C   0  0  0  0  0  0  0  0  0  0  0  0
  -20.8678  -19.8872   18.6347 C   0  0  0  0  0  0  0  0  0  0  0  0
  -21.7480  -19.6894   21.4509 C   0  0  0  0  0  0  0  0  0  0  0  0
  -24.4130  -24.9508   17.7977 C   0  0  0  0  0  0  0  0  0  0  0  0
  -27.4779  -19.0823   17.9503 C   0  0  0  0  0  0  0  0  0  0  0  0
  -25.0226  -23.6452   18.2985 C   0  0  0  0  0  0  0  0  0  0  0  0
  -27.9552  -20.5358   17.9533 C   0  0  0  0  0  0  0  0  0  0  0  0
  -27.4279  -18.5140   19.3655 C   0  0  0  0  0  0  0  0  0  0  0  0
  -29.1918  -20.0619   20.1181 C   0  0  0  0  0  0  0  0  0  0  0  0
  -24.4726  -22.4448   17.5187 C   0  0  1  0  0  0  0  0  0  0  0  0
  -21.4529  -21.0834   19.3791 C   0  0  1  0  0  0  0  0  0  0  0  0
  -29.2856  -20.6871   18.7144 C   0  0  2  0  0  0  0  0  0  0  0  0
  -28.6174  -10.4448   17.8678 C   0  0  0  0  0  0  0  0  0  0  0  0
  -17.6904  -21.9524   26.0941 C   0  0  0  0  0  0  0  0  0  0  0  0
  -23.5526  -22.7888   23.1266 C   0  0  0  0  0  0  0  0  0  0  0  0
  -22.2026  -22.7419   25.2346 C   0  0  0  0  0  0  0  0  0  0  0  0
  -21.6668  -24.3994   23.4490 C   0  0  0  0  0  0  0  0  0  0  0  0
  -25.7101  -11.2195   21.4662 C   0  0  0  0  0  0  0  0  0  0  0  0
  -16.6333  -19.7676   23.1641 C   0  0  0  0  0  0  0  0  0  0  0  0
  -29.7190  -15.2032   20.9480 C   0  0  0  0  0  0  0  0  0  0  0  0
  -26.4286  -11.8746   19.2023 C   0  0  0  0  0  0  0  0  0  0  0  0
  -24.1448  -13.5838   21.8069 C   0  0  0  0  0  0  0  0  0  0  0  0
  -23.3551  -14.8861   21.8478 C   0  0  0  0  0  0  0  0  0  1  0  0
  -21.1074  -21.9609   23.0847 C   0  0  1  0  0  0  0  0  0  0  0  0
  -17.6895  -21.4747   24.6503 C   0  0  2  0  0  0  0  0  0  0  0  0
  -22.1332  -22.9500   23.7066 C   0  0  0  0  0  0  0  0  0  0  0  0
  -28.8154  -23.1059   18.8172 N   0  0  0  0  0  0  0  0  0  0  0  0
  -29.7416  -22.1334   18.7673 N   0  0  0  0  0  0  0  0  0  0  0  0
  -21.3311  -20.9590   20.8331 N   0  0  0  0  0  0  0  0  0  0  0  0
  -28.7302  -18.6726   20.0280 N   0  0  0  0  0  0  0  0  0  0  0  0
  -32.0790  -21.7516   18.7256 N   0  0  0  0  0  0  0  0  0  0  0  0
  -31.7618  -26.2528   18.9100 N   0  0  0  0  0  0  0  0  0  0  0  0
  -23.1441  -22.1066   17.9824 N   0  0  0  0  0  0  0  0  0  0  0  0
  -19.7490  -22.1092   23.5957 N   0  0  0  0  0  0  0  0  0  0  0  0
  -29.0130  -16.3613   20.4468 N   0  0  0  0  0  0  0  0  0  0  0  0
  -25.6508  -12.2056   20.3941 N   0  0  0  0  0  0  0  0  0  0  0  0
  -16.7504  -20.3231   24.5369 N   0  3  0  0  0  0  0  0  0  0  0  0
  -33.2274  -24.4922   18.8057 O   0  0  0  0  0  0  0  0  0  0  0  0
  -23.7572  -20.7712   19.7888 O   0  0  0  0  0  0  0  0  0  0  0  0
  -20.6595  -23.1761   21.0975 O   0  0  0  0  0  0  0  0  0  0  0  0
  -24.8413  -14.2292   19.6024 O   0  0  0  0  0  0  0  0  0  0  0  0
  -19.5328  -19.9368   24.3774 O   0  0  0  0  0  0  0  0  0  0  0  0
  -30.6136  -17.8617   21.1113 O   0  0  0  0  0  0  0  0  0  0  0  0
  -27.0487  -29.2178   19.0858 O   0  0  0  0  0  0  0  0  0  0  0  0
  -22.3726  -14.8789   20.8130 O   0  0  0  0  0  0  0  0  0  1  0  0
  -22.8509  -29.8214   22.6098 F   0  0  0  0  0  0  0  0  0  0  0  0
  -27.1586  -31.0921   21.1150 F   0  0  0  0  0  0  0  0  0  0  0  0
  1  2  1  0  0  0  0
  1  5  2  0  0  0  0
  2  6  2  0  0  0  0
  3 10  2  0  0  0  0
  3 18  1  0  0  0  0
  4 11  1  0  0  0  0
  4 18  2  0  0  0  0
  5 20  1  0  0  0  0
  6 22  1  0  0  0  0
  7 12  2  0  0  0  0
  7 21  1  0  0  0  0
  8  9  2  0  0  0  0
  8 24  1  0  0  0  0
  9 25  1  0  0  0  0
 10 27  1  0  0  0  0
 11 27  2  0  0  0  0
 12 28  1  0  0  0  0
 13 14  2  0  0  0  0
 13 29  1  0  0  0  0
 14 30  1  0  0  0  0
 15 23  1  0  0  0  0
 15 28  2  0  0  0  0
 16 24  2  0  0  0  0
 16 26  1  0  0  0  0
 17 30  2  0  0  0  0
 17 31  1  0  0  0  0
 18 32  1  0  0  0  0
 19 32  1  0  0  0  0
 19 33  2  0  0  0  0
 19 34  1  0  0  0  0
 20 22  2  0  0  0  0
 20 40  1  0  0  0  0
 21 23  2  0  0  0  0
 21 41  1  0  0  0  0
 22 49  1  0  0  0  0
 23 42  1  0  0  0  0
 24 59  1  0  0  0  0
 25 26  2  0  0  0  0
 25 52  1  0  0  0  0
 26 60  1  0  0  0  0
 27 83  1  0  0  0  0
 28 84  1  0  0  0  0
 29 31  2  0  0  0  0
 29 83  1  0  0  0  0
 30 85  1  0  0  0  0
 31 86  1  0  0  0  0
 32 66  2  0  0  0  0
 33 67  1  0  0  0  0
 33 70  1  0  0  0  0
 34 71  1  0  0  0  0
 34 77  2  0  0  0  0
 35 50  1  0  0  0  0
 35 72  1  0  0  0  0
 35 78  2  0  0  0  0
 36 63  1  0  0  0  0
 36 68  1  0  0  0  0
 36 79  2  0  0  0  0
 37 61  1  0  0  0  0
 37 75  1  0  0  0  0
 37 80  2  0  0  0  0
 38 64  1  0  0  0  0
 38 73  1  0  0  0  0
 38 81  2  0  0  0  0
 39 69  1  0  0  0  0
 39 74  1  0  0  0  0
 39 82  2  0  0  0  0
 40 43  1  0  0  0  0
 41 50  1  0  0  0  0
 42 68  1  0  0  0  0
 43 45  1  0  0  0  0
 44 46  1  0  0  0  0
 44 47  1  0  0  0  0
 45 49  1  0  0  0  0
 46 51  1  0  0  0  0
 47 69  1  0  0  0  0
 48 51  1  0  0  0  0
 48 69  1  0  0  0  0
 49 72  1  0  0  0  0
 50 68  1  0  0  0  0
 51 67  1  0  0  0  0
 53 64  1  0  0  0  0
 54 65  1  0  0  0  0
 55 65  1  0  0  0  0
 56 65  1  0  0  0  0
 57 75  1  0  0  0  0
 58 76  1  0  0  0  0
 59 74  1  0  0  0  0
 60 75  1  0  0  0  0
 61 62  1  0  0  0  0
 62 84  1  0  0  0  0
 63 65  1  0  0  0  0
 63 73  1  0  0  0  0
 64 76  1  0  0  0  0
 66 67  1  0  0  0  0
M  CHG  1  76   1
M  ISO  4  39 100  62 101  74 100  84 101
M  END
> <Batch ID>
0054

> <Smiles>
CNC(C)C(=O)NC(C(=O)N1Cc2cc([101O:1][101CH2:1]CC(=O)N(C)Cc3cc(C[100NH:0][100C:0](=O)N4CCCC(n5nc(-c6ccc(Oc7ccc(F)cc7F)cc6)c(C(N)=O)c5N)C4)ccc3C)ccc2CC1C(=O)NC1CCCc2ccccc21)C(C)(C)C

> <Shape>
0.216

> <Color>
0.076

> <Negative vol penalty>
0.000

$$$$

  -OEChem-04042322463D

 89 98  0     1  0  0  0  0  0999 V2000
  -27.4713  -24.4428   16.6894 C   0  0  0  0  0  0  0  0  0  0  0  0
  -26.3983  -25.2455   17.0598 C   0  0  0  0  0  0  0  0  0  0  0  0
  -25.8912  -23.2526   22.0325 C   0  0  0  0  0  0  0  0  0  0  0  0
  -27.8396  -11.9915   20.0300 C   0  0  0  0  0  0  0  0  0  0  0  0
  -25.6870  -13.0874   19.9842 C   0  0  0  0  0  0  0  0  0  0  0  0
  -28.6070  -24.3888   17.4947 C   0  0  0  0  0  0  0  0  0  0  0  0
  -26.4653  -26.0037   18.2292 C   0  0  0  0  0  0  0  0  0  0  0  0
  -22.7827  -29.1578   19.0620 C   0  0  0  0  0  0  0  0  0  0  0  0
  -26.8110  -22.3698   21.4657 C   0  0  0  0  0  0  0  0  0  0  0  0
  -27.2984  -10.9605   20.7980 C   0  0  0  0  0  0  0  0  0  0  0  0
  -25.1458  -12.0564   20.7521 C   0  0  0  0  0  0  0  0  0  0  0  0
  -21.5033  -28.7428   19.4287 C   0  0  0  0  0  0  0  0  0  0  0  0
  -24.0486   -8.8981   20.2599 C   0  0  0  0  0  0  0  0  0  0  0  0
  -22.8135   -8.3809   19.8694 C   0  0  0  0  0  0  0  0  0  0  0  0
  -23.5783  -24.0049   22.3279 C   0  0  0  0  0  0  0  0  0  0  0  0
  -21.7791  -22.8440   21.2132 C   0  0  0  0  0  0  0  0  0  0  0  0
  -21.9525  -29.3921   21.7081 C   0  0  0  0  0  0  0  0  0  0  0  0
  -21.8737   -9.0138   22.0032 C   0  0  0  0  0  0  0  0  0  0  0  0
  -24.5182  -23.1255   21.7661 C   0  0  0  0  0  0  0  0  0  0  0  0
  -24.0719  -22.0883   20.9128 C   0  0  0  0  0  0  0  0  0  0  0  0
  -27.0339  -13.0550   19.6232 C   0  0  0  0  0  0  0  0  0  0  0  0
  -22.2180  -23.8639   22.0523 C   0  0  0  0  0  0  0  0  0  0  0  0
  -27.6580  -14.1908   17.4259 C   0  0  0  0  0  0  0  0  0  0  0  0
  -28.6822  -25.1374   18.6808 C   0  0  0  0  0  0  0  0  0  0  0  0
  -23.6621  -29.6839   20.0193 C   0  0  0  0  0  0  0  0  0  0  0  0
  -27.6125  -25.9812   19.0429 C   0  0  0  0  0  0  0  0  0  0  0  0
  -23.2417  -29.8155   21.3505 C   0  0  0  0  0  0  0  0  0  0  0  0
  -25.0117  -21.2089   20.3511 C   0  0  0  0  0  0  0  0  0  0  0  0
  -26.3721  -21.3500   20.6267 C   0  0  0  0  0  0  0  0  0  0  0  0
  -25.9515  -10.9929   21.1590 C   0  0  0  0  0  0  0  0  0  0  0  0
  -21.0890  -28.8572   20.7524 C   0  0  0  0  0  0  0  0  0  0  0  0
  -24.1963   -9.4731   21.5222 C   0  0  0  0  0  0  0  0  0  0  0  0
  -21.7260   -8.4388   20.7410 C   0  0  0  0  0  0  0  0  0  0  0  0
  -22.6988  -21.9612   20.6464 C   0  0  0  0  0  0  0  0  0  0  0  0
  -23.1089   -9.5310   22.3938 C   0  0  0  0  0  0  0  0  0  0  0  0
  -27.5926  -14.1206   18.8304 C   0  0  0  0  0  0  0  0  0  0  0  0
  -28.2739  -15.3916   17.1705 C   0  0  0  0  0  0  0  0  0  0  0  0
  -21.2432  -24.7974   22.6514 C   0  0  0  0  0  0  0  0  0  0  0  0
  -27.2028  -13.2544   16.4403 C   0  0  0  0  0  0  0  0  0  0  0  0
  -26.5012  -28.8309   21.1660 C   0  0  0  0  0  0  0  0  0  0  0  0
  -26.2934  -31.6718   22.7178 C   0  0  0  0  0  0  0  0  0  0  0  0
  -24.3100  -34.1509   23.9699 C   0  0  0  0  0  0  0  0  0  0  0  0
  -28.7110  -20.4921   20.2526 C   0  0  0  0  0  0  0  0  0  0  0  0
  -29.9385  -25.0477   19.5109 C   0  0  0  0  0  0  0  0  0  0  0  0
  -25.0294  -30.1519   19.6025 C   0  0  0  0  0  0  0  0  0  0  0  0
  -24.1403  -30.3925   22.4125 C   0  0  0  0  0  0  0  0  0  0  0  0
  -29.7409  -25.5342   20.9429 C   0  0  0  0  0  0  0  0  0  0  0  0
  -31.4009  -18.4768   19.0778 C   0  0  0  0  0  0  0  0  0  0  0  0
  -29.0527  -26.8910   20.9405 C   0  0  0  0  0  0  0  0  0  0  0  0
  -30.7345  -17.1393   18.7475 C   0  0  0  0  0  0  0  0  0  0  0  0
  -30.7860  -19.1263   20.3162 C   0  0  0  0  0  0  0  0  0  0  0  0
  -28.6592  -17.9387   19.9481 C   0  0  0  0  0  0  0  0  0  0  0  0
  -27.6506  -26.7911   20.3263 C   0  0  1  0  0  0  0  0  0  0  0  0
  -26.0239  -30.1961   20.7585 C   0  0  1  0  0  0  0  0  0  0  0  0
  -29.2013  -17.2775   18.6703 C   0  0  2  0  0  0  0  0  0  0  0  0
  -24.5976  -20.0908   19.4392 C   0  0  0  0  0  0  0  0  0  0  0  0
  -24.4257  -36.3249   25.2178 C   0  0  0  0  0  0  0  0  0  0  0  0
  -26.8273  -30.1528   25.3096 C   0  0  0  0  0  0  0  0  0  0  0  0
  -26.0006  -32.1520   26.5699 C   0  0  0  0  0  0  0  0  0  0  0  0
  -28.0208  -32.3423   25.1188 C   0  0  0  0  0  0  0  0  0  0  0  0
  -23.0647  -35.6349   21.7325 C   0  0  0  0  0  0  0  0  0  0  0  0
  -18.3449  -26.5836   21.2809 C   0  0  0  0  0  0  0  0  0  0  0  0
  -19.0813  -25.9751   22.4627 C   0  0  0  0  0  0  0  0  0  0  0  0
  -19.2636  -27.3827   20.3654 C   0  0  0  0  0  0  0  0  0  1  0  0
  -25.7410  -32.1258   24.0474 C   0  0  1  0  0  0  0  0  0  0  0  0
  -24.3898  -35.6620   23.8496 C   0  0  2  0  0  0  0  0  0  0  0  0
  -26.6309  -31.6805   25.2420 C   0  0  0  0  0  0  0  0  0  0  0  0
  -28.1245  -15.1915   19.4256 N   0  0  0  0  0  0  0  0  0  0  0  0
  -28.5302  -15.9459   18.3900 N   0  0  0  0  0  0  0  0  0  0  0  0
  -25.4701  -30.8300   21.9566 N   0  0  0  0  0  0  0  0  0  0  0  0
  -29.3323  -19.2280   20.1698 N   0  0  0  0  0  0  0  0  0  0  0  0
  -28.6158  -16.0169   16.0240 N   0  0  0  0  0  0  0  0  0  0  0  0
  -21.5302  -25.3277   23.8403 N   0  0  0  0  0  0  0  0  0  0  0  0
  -26.5916  -12.0705   16.8754 N   0  0  0  0  0  0  0  0  0  0  0  0
  -27.3293  -20.4688   20.0654 N   0  0  0  0  0  0  0  0  0  0  0  0
  -27.1162  -28.1235   20.1506 N   0  0  0  0  0  0  0  0  0  0  0  0
  -25.5602  -33.5697   23.9427 N   0  0  0  0  0  0  0  0  0  0  0  0
  -20.1184  -25.0655   21.9754 N   0  3  0  0  0  0  0  0  0  0  0  0
  -23.2098  -36.1853   23.1047 N   0  3  0  0  0  0  0  0  0  0  0  0
  -27.3488  -13.4538   15.2105 O   0  0  0  0  0  0  0  0  0  0  0  0
  -26.3260  -28.4482   22.3169 O   0  0  0  0  0  0  0  0  0  0  0  0
  -27.4111  -32.0558   22.3644 O   0  0  0  0  0  0  0  0  0  0  0  0
  -23.2455  -33.5467   24.0808 O   0  0  0  0  0  0  0  0  0  0  0  0
  -29.3605  -21.5230   20.4461 O   0  0  0  0  0  0  0  0  0  0  0  0
  -25.4230   -9.9869   21.9081 O   0  0  0  0  0  0  0  0  0  0  0  0
  -19.8409  -28.4522   21.1132 O   0  0  0  0  0  0  0  0  0  1  0  0
  -20.5396   -7.9434   20.3652 F   0  0  0  0  0  0  0  0  0  0  0  0
  -22.2212  -20.9971   19.8453 F   0  0  0  0  0  0  0  0  0  0  0  0
  -23.2444  -10.0833   23.6072 F   0  0  0  0  0  0  0  0  0  0  0  0
  1  2  1  0  0  0  0
  1  6  2  0  0  0  0
  2  7  2  0  0  0  0
  3  9  2  0  0  0  0
  3 19  1  0  0  0  0
  4 10  2  0  0  0  0
  4 21  1  0  0  0  0
  5 11  1  0  0  0  0
  5 21  2  0  0  0  0
  6 24  1  0  0  0  0
  7 26  1  0  0  0  0
  8 12  2  0  0  0  0
  8 25  1  0  0  0  0
  9 29  1  0  0  0  0
 10 30  1  0  0  0  0
 11 30  2  0  0  0  0
 12 31  1  0  0  0  0
 13 14  2  0  0  0  0
 13 32  1  0  0  0  0
 14 33  1  0  0  0  0
 15 19  1  0  0  0  0
 15 22  2  0  0  0  0
 16 22  1  0  0  0  0
 16 34  2  0  0  0  0
 17 27  1  0  0  0  0
 17 31  2  0  0  0  0
 18 33  2  0  0  0  0
 18 35  1  0  0  0  0
 19 20  2  0  0  0  0
 20 28  1  0  0  0  0
 20 34  1  0  0  0  0
 21 36  1  0  0  0  0
 22 38  1  0  0  0  0
 23 36  1  0  0  0  0
 23 37  2  0  0  0  0
 23 39  1  0  0  0  0
 24 26  2  0  0  0  0
 24 44  1  0  0  0  0
 25 27  2  0  0  0  0
 25 45  1  0  0  0  0
 26 53  1  0  0  0  0
 27 46  1  0  0  0  0
 28 29  2  0  0  0  0
 28 56  1  0  0  0  0
 29 75  1  0  0  0  0
 30 85  1  0  0  0  0
 31 86  1  0  0  0  0
 32 35  2  0  0  0  0
 32 85  1  0  0  0  0
 33 87  1  0  0  0  0
 34 88  1  0  0  0  0
 35 89  1  0  0  0  0
 36 68  2  0  0  0  0
 37 69  1  0  0  0  0
 37 72  1  0  0  0  0
 38 73  1  0  0  0  0
 38 78  2  0  0  0  0
 39 74  1  0  0  0  0
 39 80  2  0  0  0  0
 40 54  1  0  0  0  0
 40 76  1  0  0  0  0
 40 81  2  0  0  0  0
 41 65  1  0  0  0  0
 41 70  1  0  0  0  0
 41 82  2  0  0  0  0
 42 66  1  0  0  0  0
 42 77  1  0  0  0  0
 42 83  2  0  0  0  0
 43 71  1  0  0  0  0
 43 75  1  0  0  0  0
 43 84  2  0  0  0  0
 44 47  1  0  0  0  0
 45 54  1  0  0  0  0
 46 70  1  0  0  0  0
 47 49  1  0  0  0  0
 48 50  1  0  0  0  0
 48 51  1  0  0  0  0
 49 53  1  0  0  0  0
 50 55  1  0  0  0  0
 51 71  1  0  0  0  0
 52 55  1  0  0  0  0
 52 71  1  0  0  0  0
 53 76  1  0  0  0  0
 54 70  1  0  0  0  0
 55 69  1  0  0  0  0
 57 66  1  0  0  0  0
 58 67  1  0  0  0  0
 59 67  1  0  0  0  0
 60 67  1  0  0  0  0
 61 79  1  0  0  0  0
 62 63  1  0  0  0  0
 62 64  1  0  0  0  0
 63 78  1  0  0  0  0
 64 86  1  0  0  0  0
 65 67  1  0  0  0  0
 65 77  1  0  0  0  0
 66 79  1  0  0  0  0
 68 69  1  0  0  0  0
M  CHG  2  78   1  79   1
M  ISO  4  43 100  64 101  75 100  86 101
M  END
> <Batch ID>
0054

> <Smiles>
CNC(C)C(=O)NC(C(=O)N1Cc2cc([101O:1][101CH2:1]CCNC(=N)c3cc(F)c4c(C)c([100NH:0][100C:0](=O)N5CCCC(n6nc(-c7ccc(Oc8ccc(F)cc8F)cc7)c(C(N)=O)c6N)C5)ccc4c3)ccc2CC1C(=O)NC1CCCc2ccccc21)C(C)(C)C

> <Shape>
0.328

> <Color>
0.076

> <Negative vol penalty>
0.000

$$$$

  -OEChem-04042322463D

 89 98  0     1  0  0  0  0  0999 V2000
  -26.8067  -13.5782   26.8022 C   0  0  0  0  0  0  0  0  0  0  0  0
  -26.1233  -13.4583   25.8221 C   0  0  0  0  0  0  0  0  0  0  0  0
  -25.9617  -22.6112   39.3618 C   0  0  0  0  0  0  0  0  0  0  0  0
  -26.7927  -22.4310   38.2607 C   0  0  0  0  0  0  0  0  0  0  0  0
  -22.8459  -10.1059   20.1098 C   0  0  0  0  0  0  0  0  0  0  0  0
  -24.2788   -9.5470   21.9729 C   0  0  0  0  0  0  0  0  0  0  0  0
  -25.0922  -21.5934   39.7515 C   0  0  0  0  0  0  0  0  0  0  0  0
  -26.7553  -21.2323   37.5492 C   0  0  0  0  0  0  0  0  0  0  0  0
  -27.5274  -18.6543   30.9104 C   0  0  0  0  0  0  0  0  0  0  0  0
  -33.6660  -11.9509   24.6494 C   0  0  0  0  0  0  0  0  0  0  0  0
  -32.8724  -12.2814   23.5509 C   0  0  0  0  0  0  0  0  0  0  0  0
  -22.1377   -8.9191   20.2984 C   0  0  0  0  0  0  0  0  0  0  0  0
  -23.5706   -8.3602   22.1616 C   0  0  0  0  0  0  0  0  0  0  0  0
  -28.2324  -17.6765   30.2099 C   0  0  0  0  0  0  0  0  0  0  0  0
  -20.6416   -7.4031   23.5492 C   0  0  0  0  0  0  0  0  0  0  0  0
  -20.2847   -7.0635   24.8541 C   0  0  0  0  0  0  0  0  0  0  0  0
  -26.6335  -16.0186   30.9269 C   0  0  0  0  0  0  0  0  0  0  0  0
  -30.9645  -12.5465   25.0092 C   0  0  0  0  0  0  0  0  0  0  0  0
  -21.5548   -5.0166   24.6688 C   0  0  0  0  0  0  0  0  0  0  0  0
  -23.9165  -10.4198   20.9470 C   0  0  0  0  0  0  0  0  0  0  0  0
  -24.1412  -12.9572   20.8090 C   0  0  0  0  0  0  0  0  0  0  0  0
  -25.0371  -20.3853   39.0386 C   0  0  0  0  0  0  0  0  0  0  0  0
  -26.3743  -18.3190   31.6346 C   0  0  0  0  0  0  0  0  0  0  0  0
  -25.8851  -20.1969   37.9305 C   0  0  0  0  0  0  0  0  0  0  0  0
  -25.9142  -16.9945   31.6337 C   0  0  0  0  0  0  0  0  0  0  0  0
  -33.1088  -11.9181   25.9277 C   0  0  0  0  0  0  0  0  0  0  0  0
  -31.7581  -12.2159   26.1076 C   0  0  0  0  0  0  0  0  0  0  0  0
  -31.5217  -12.5793   23.7308 C   0  0  0  0  0  0  0  0  0  0  0  0
  -22.5000   -8.0463   21.3243 C   0  0  0  0  0  0  0  0  0  0  0  0
  -27.7871  -16.3579   30.2204 C   0  0  0  0  0  0  0  0  0  0  0  0
  -21.4550   -6.5494   22.8040 C   0  0  0  0  0  0  0  0  0  0  0  0
  -20.7414   -5.8703   25.4140 C   0  0  0  0  0  0  0  0  0  0  0  0
  -21.9116   -5.3562   23.3638 C   0  0  0  0  0  0  0  0  0  0  0  0
  -24.6488  -11.6454   20.7523 C   0  0  0  0  0  0  0  0  0  0  0  0
  -25.2287  -13.7574   20.5570 C   0  0  0  0  0  0  0  0  0  0  0  0
  -28.7726  -12.6950   27.9458 C   0  0  0  0  0  0  0  0  0  0  0  0
  -22.8060  -13.4118   21.0666 C   0  0  0  0  0  0  0  0  0  0  0  0
  -25.5345  -18.4420   34.6978 C   0  0  0  0  0  0  0  0  0  0  0  0
  -22.6426  -17.5395   33.5383 C   0  0  0  0  0  0  0  0  0  0  0  0
  -21.4036  -15.2273   31.0611 C   0  0  0  0  0  0  0  0  0  0  0  0
  -31.1112  -12.9976   21.2808 C   0  0  0  0  0  0  0  0  0  0  0  0
  -24.1149  -19.2961   39.5261 C   0  0  0  0  0  0  0  0  0  0  0  0
  -25.6102  -19.3903   32.3631 C   0  0  0  0  0  0  0  0  0  0  0  0
  -24.6706  -16.5864   32.3789 C   0  0  0  0  0  0  0  0  0  0  0  0
  -23.8680  -18.1995   38.4933 C   0  0  0  0  0  0  0  0  0  0  0  0
  -29.4205  -13.7588   18.2411 C   0  0  0  0  0  0  0  0  0  0  0  0
  -25.1830  -17.7581   37.8586 C   0  0  0  0  0  0  0  0  0  0  0  0
  -27.9579  -13.4284   18.5473 C   0  0  0  0  0  0  0  0  0  0  0  0
  -29.2736  -15.4982   27.2772 C   0  0  0  0  0  0  0  0  0  0  0  0
  -30.3769  -12.7779   18.9169 C   0  0  0  0  0  0  0  0  0  0  0  0
  -30.4268  -14.5528   27.5557 C   0  0  0  0  0  0  0  0  0  0  0  0
  -28.7169  -12.2843   20.6690 C   0  0  0  0  0  0  0  0  0  0  0  0
  -27.6463  -13.7257   28.0061 C   0  0  1  0  0  0  0  0  0  0  0  0
  -25.8558  -18.9203   37.1183 C   0  0  1  0  0  0  0  0  0  0  0  0
  -24.7379  -18.8420   33.4882 C   0  0  1  0  0  0  0  0  0  0  0  0
  -27.7181  -13.2836   20.0629 C   0  0  2  0  0  0  0  0  0  0  0  0
  -28.0960  -15.1746   28.1800 C   0  0  1  0  0  0  0  0  0  1  0  0
  -25.2915  -13.3128   24.6285 C   0  0  0  0  0  0  0  0  0  0  0  0
  -33.9782  -11.5607   27.0883 C   0  0  0  0  0  0  0  0  0  0  0  0
  -19.2947  -15.2680   29.7017 C   0  0  0  0  0  0  0  0  0  0  0  0
  -21.5130  -15.7936   35.7712 C   0  0  0  0  0  0  0  0  0  0  0  0
  -20.2782  -14.4861   34.0294 C   0  0  0  0  0  0  0  0  0  0  0  0
  -19.7878  -16.9112   34.3468 C   0  0  0  0  0  0  0  0  0  0  0  0
  -22.9024  -15.0304   28.5168 C   0  0  0  0  0  0  0  0  0  0  0  0
  -31.1371  -12.1891   27.4743 C   0  0  0  0  0  0  0  0  0  0  0  0
  -21.9653  -16.2183   33.2650 C   0  0  1  0  0  0  0  0  0  0  0  0
  -20.7834  -15.5778   29.7206 C   0  0  2  0  0  0  0  0  0  0  0  0
  -20.9144  -15.8551   34.3518 C   0  0  0  0  0  0  0  0  0  0  0  0
  -25.9570  -11.6098   20.4851 N   0  0  0  0  0  0  0  0  0  0  0  0
  -26.2805  -12.9093   20.3715 N   0  0  0  0  0  0  0  0  0  0  0  0
  -30.0434  -13.1446   27.5952 N   0  0  0  0  0  0  0  0  0  0  0  0
  -23.9617  -17.6690   33.0811 N   0  0  0  0  0  0  0  0  0  0  0  0
  -30.0933  -12.6958   20.3514 N   0  0  0  0  0  0  0  0  0  0  0  0
  -25.3782  -15.0967   20.4781 N   0  0  0  0  0  0  0  0  0  0  0  0
  -21.8092  -12.4560   21.3058 N   0  0  0  0  0  0  0  0  0  0  0  0
  -30.7156  -12.9171   22.6155 N   0  0  0  0  0  0  0  0  0  0  0  0
  -25.2123  -19.1467   35.8419 N   0  0  0  0  0  0  0  0  0  0  0  0
  -21.4210  -16.3102   31.9145 N   0  0  0  0  0  0  0  0  0  0  0  0
  -21.4385  -14.8035   28.6286 N   0  3  0  0  0  0  0  0  0  0  0  0
  -28.5009  -11.5050   28.1410 O   0  0  0  0  0  0  0  0  0  0  0  0
  -22.5024  -14.6289   21.0679 O   0  0  0  0  0  0  0  0  0  0  0  0
  -26.3780  -17.5584   34.6006 O   0  0  0  0  0  0  0  0  0  0  0  0
  -22.0216  -18.4266   34.1291 O   0  0  0  0  0  0  0  0  0  0  0  0
  -21.8266  -14.1042   31.3262 O   0  0  0  0  0  0  0  0  0  0  0  0
  -32.2423  -13.3314   20.9188 O   0  0  0  0  0  0  0  0  0  0  0  0
  -21.8090   -6.8882   21.5088 O   0  0  0  0  0  0  0  0  0  0  0  0
  -28.4737  -15.4014   29.5381 O   0  0  0  0  0  0  0  0  0  1  0  0
  -20.3999   -5.5451   26.6677 F   0  0  0  0  0  0  0  0  0  0  0  0
  -22.6943   -4.5326   22.6532 F   0  0  0  0  0  0  0  0  0  0  0  0
  1  2  3  0  0  0  0
  1 53  1  0  0  0  0
  2 58  1  0  0  0  0
  3  4  1  0  0  0  0
  3  7  2  0  0  0  0
  4  8  2  0  0  0  0
  5 12  2  0  0  0  0
  5 20  1  0  0  0  0
  6 13  1  0  0  0  0
  6 20  2  0  0  0  0
  7 22  1  0  0  0  0
  8 24  1  0  0  0  0
  9 14  2  0  0  0  0
  9 23  1  0  0  0  0
 10 11  2  0  0  0  0
 10 26  1  0  0  0  0
 11 28  1  0  0  0  0
 12 29  1  0  0  0  0
 13 29  2  0  0  0  0
 14 30  1  0  0  0  0
 15 16  2  0  0  0  0
 15 31  1  0  0  0  0
 16 32  1  0  0  0  0
 17 25  1  0  0  0  0
 17 30  2  0  0  0  0
 18 27  1  0  0  0  0
 18 28  2  0  0  0  0
 19 32  2  0  0  0  0
 19 33  1  0  0  0  0
 20 34  1  0  0  0  0
 21 34  1  0  0  0  0
 21 35  2  0  0  0  0
 21 37  1  0  0  0  0
 22 24  2  0  0  0  0
 22 42  1  0  0  0  0
 23 25  2  0  0  0  0
 23 43  1  0  0  0  0
 24 54  1  0  0  0  0
 25 44  1  0  0  0  0
 26 27  2  0  0  0  0
 26 59  1  0  0  0  0
 27 65  1  0  0  0  0
 28 76  1  0  0  0  0
 29 86  1  0  0  0  0
 30 87  1  0  0  0  0
 31 33  2  0  0  0  0
 31 86  1  0  0  0  0
 32 88  1  0  0  0  0
 33 89  1  0  0  0  0
 34 69  2  0  0  0  0
 35 70  1  0  0  0  0
 35 74  1  0  0  0  0
 36 53  1  0  0  0  0
 36 71  1  0  0  0  0
 36 80  2  0  0  0  0
 37 75  1  0  0  0  0
 37 81  2  0  0  0  0
 38 55  1  0  0  0  0
 38 77  1  0  0  0  0
 38 82  2  0  0  0  0
 39 66  1  0  0  0  0
 39 72  1  0  0  0  0
 39 83  2  0  0  0  0
 40 67  1  0  0  0  0
 40 78  1  0  0  0  0
 40 84  2  0  0  0  0
 41 73  1  0  0  0  0
 41 76  1  0  0  0  0
 41 85  2  0  0  0  0
 42 45  1  0  0  0  0
 43 55  1  0  0  0  0
 44 72  1  0  0  0  0
 45 47  1  0  0  0  0
 46 48  1  0  0  0  0
 46 50  1  0  0  0  0
 47 54  1  0  0  0  0
 48 56  1  0  0  0  0
 49 51  1  0  0  0  0
 49 57  1  0  0  0  0
 50 73  1  0  0  0  0
 51 71  1  0  0  0  0
 52 56  1  0  0  0  0
 52 73  1  0  0  0  0
 53 57  1  0  0  0  0
 54 77  1  0  0  0  0
 55 72  1  0  0  0  0
 56 70  1  0  0  0  0
 57 87  1  0  0  0  0
 60 67  1  0  0  0  0
 61 68  1  0  0  0  0
 62 68  1  0  0  0  0
 63 68  1  0  0  0  0
 64 79  1  0  0  0  0
 65 71  1  0  0  0  0
 66 68  1  0  0  0  0
 66 78  1  0  0  0  0
 67 79  1  0  0  0  0
 69 70  1  0  0  0  0
M  CHG  1  79   1
M  ISO  4  41 100  57 101  76 100  87 101
M  END
> <Batch ID>
0054

> <Smiles>
CC#CC1C(=O)N(Cc2cc([100NH:0][100C:0](=O)N3CCCC(n4nc(-c5ccc(Oc6ccc(F)cc6F)cc5)c(C(N)=O)c4N)C3)ccc2C)CC[101CH:1]1[101O:1]c1ccc2c(c1)CN(C(=O)C(NC(=O)C(C)NC)C(C)(C)C)C(C(=O)NC1CCCc3ccccc31)C2

> <Shape>
0.149

> <Color>
0.174

> <Negative vol penalty>
0.000

$$$$

  -OEChem-04042322463D

 82 90  0     1  0  0  0  0  0999 V2000
  -17.0959  -24.6980   23.9373 C   0  0  0  0  0  0  0  0  0  0  0  0
  -17.9397  -24.1084   23.0016 C   0  0  0  0  0  0  0  0  0  0  0  0
  -21.1908  -14.3914   16.3359 C   0  0  0  0  0  0  0  0  0  0  0  0
  -27.7226  -17.2873   19.4521 C   0  0  0  0  0  0  0  0  0  0  0  0
  -28.2720  -16.8023   21.7542 C   0  0  0  0  0  0  0  0  0  0  0  0
  -20.9057  -14.0055   17.6457 C   0  0  0  0  0  0  0  0  0  0  0  0
  -17.1540  -26.0736   24.1575 C   0  0  0  0  0  0  0  0  0  0  0  0
  -18.8415  -24.8941   22.2847 C   0  0  0  0  0  0  0  0  0  0  0  0
  -23.4527  -22.8165   22.0290 C   0  0  0  0  0  0  0  0  0  0  0  0
  -21.1256  -15.7373   15.9755 C   0  0  0  0  0  0  0  0  0  0  0  0
  -28.5056  -18.4403   19.5081 C   0  0  0  0  0  0  0  0  0  0  0  0
  -29.0551  -17.9553   21.8103 C   0  0  0  0  0  0  0  0  0  0  0  0
  -23.6353  -21.7827   21.1116 C   0  0  0  0  0  0  0  0  0  0  0  0
  -30.9091  -20.9608   22.6702 C   0  0  0  0  0  0  0  0  0  0  0  0
  -30.7782  -21.7795   23.7919 C   0  0  0  0  0  0  0  0  0  0  0  0
  -20.4903  -16.3114   18.2347 C   0  0  0  0  0  0  0  0  0  0  0  0
  -24.6545  -23.3362   19.5730 C   0  0  0  0  0  0  0  0  0  0  0  0
  -28.4385  -22.1023   23.2832 C   0  0  0  0  0  0  0  0  0  0  0  0
  -27.6058  -16.4683   20.5752 C   0  0  0  0  0  0  0  0  0  0  0  0
  -20.5554  -14.9656   18.5951 C   0  0  0  0  0  0  0  0  0  0  0  0
  -27.2119  -13.9846   20.1468 C   0  0  0  0  0  0  0  0  0  0  0  0
  -18.0636  -26.8752   23.4499 C   0  0  0  0  0  0  0  0  0  0  0  0
  -23.8604  -24.1223   21.7204 C   0  0  0  0  0  0  0  0  0  0  0  0
  -18.9108  -26.2818   22.4947 C   0  0  0  0  0  0  0  0  0  0  0  0
  -24.4783  -24.3843   20.4893 C   0  0  0  0  0  0  0  0  0  0  0  0
  -20.7754  -16.6973   16.9249 C   0  0  0  0  0  0  0  0  0  0  0  0
  -29.1718  -18.7743   20.6872 C   0  0  0  0  0  0  0  0  0  0  0  0
  -24.2336  -22.0430   19.8822 C   0  0  0  0  0  0  0  0  0  0  0  0
  -29.8047  -20.7129   21.8549 C   0  0  0  0  0  0  0  0  0  0  0  0
  -29.5429  -22.3503   24.0984 C   0  0  0  0  0  0  0  0  0  0  0  0
  -28.5694  -21.2836   22.1614 C   0  0  0  0  0  0  0  0  0  0  0  0
  -26.7967  -15.2775   20.5181 C   0  0  0  0  0  0  0  0  0  0  0  0
  -26.0791  -13.2156   20.2560 C   0  0  0  0  0  0  0  0  0  0  0  0
  -20.2554  -14.5596   19.9742 C   0  0  0  0  0  0  0  0  0  0  0  0
  -28.5058  -13.5203   19.7397 C   0  0  0  0  0  0  0  0  0  0  0  0
  -22.3802  -26.9161   21.3928 C   0  0  0  0  0  0  0  0  0  0  0  0
  -25.4075  -28.0439   21.0996 C   0  0  0  0  0  0  0  0  0  0  0  0
  -22.4561  -19.8087   17.1548 C   0  0  0  0  0  0  0  0  0  0  0  0
  -28.6677  -27.4197   20.3069 C   0  0  0  0  0  0  0  0  0  0  0  0
  -18.0569  -28.3644   23.6882 C   0  0  0  0  0  0  0  0  0  0  0  0
  -23.6806  -25.2212   22.7316 C   0  0  0  0  0  0  0  0  0  0  0  0
  -24.9522  -25.7648   20.1177 C   0  0  0  0  0  0  0  0  0  0  0  0
  -19.3008  -29.0719   23.1567 C   0  0  0  0  0  0  0  0  0  0  0  0
  -21.9509  -12.9327   22.6612 C   0  0  0  0  0  0  0  0  0  0  0  0
  -19.6192  -28.6005   21.7414 C   0  0  0  0  0  0  0  0  0  0  0  0
  -23.4247  -13.2437   22.3940 C   0  0  0  0  0  0  0  0  0  0  0  0
  -21.0487  -14.1003   22.2697 C   0  0  0  0  0  0  0  0  0  0  0  0
  -22.7021  -14.8857   20.6102 C   0  0  0  0  0  0  0  0  0  0  0  0
  -19.9197  -27.0970   21.7151 C   0  0  1  0  0  0  0  0  0  0  0  0
  -23.6674  -26.6125   22.1060 C   0  0  1  0  0  0  0  0  0  0  0  0
  -23.6413  -13.7150   20.9437 C   0  0  1  0  0  0  0  0  0  0  0  0
  -30.9018  -28.5481   20.1259 C   0  0  0  0  0  0  0  0  0  0  0  0
  -24.5355  -29.3451   18.4811 C   0  0  0  0  0  0  0  0  0  0  0  0
  -26.9536  -29.6243   17.8954 C   0  0  0  0  0  0  0  0  0  0  0  0
  -26.0197  -30.7648   19.9079 C   0  0  0  0  0  0  0  0  0  0  0  0
  -29.8562  -25.6533   22.3627 C   0  0  0  0  0  0  0  0  0  0  0  0
  -20.7062  -18.1459   16.5362 C   0  0  0  0  0  0  0  0  0  0  0  0
  -23.8773  -20.2077   16.7897 C   0  0  0  0  0  0  0  0  0  0  0  0
  -24.3904  -21.3869   17.6017 C   0  0  0  0  0  0  0  0  0  1  0  0
  -26.3611  -28.2600   19.9494 C   0  0  1  0  0  0  0  0  0  0  0  0
  -29.9616  -27.7596   21.0243 C   0  0  2  0  0  0  0  0  0  0  0  0
  -25.9569  -29.4728   19.0644 C   0  0  0  0  0  0  0  0  0  0  0  0
  -25.5012  -15.3307   20.8390 N   0  0  0  0  0  0  0  0  0  0  0  0
  -25.0926  -14.0617   20.6696 N   0  0  0  0  0  0  0  0  0  0  0  0
  -21.3079  -14.5151   20.8915 N   0  0  0  0  0  0  0  0  0  0  0  0
  -24.7483  -26.8070   21.1374 N   0  0  0  0  0  0  0  0  0  0  0  0
  -25.8406  -11.9049   20.0376 N   0  0  0  0  0  0  0  0  0  0  0  0
  -29.5591  -14.4431   19.6820 N   0  0  0  0  0  0  0  0  0  0  0  0
  -21.2597  -26.8409   22.1980 N   0  0  0  0  0  0  0  0  0  0  0  0
  -22.0199  -18.7317   16.3965 N   0  0  0  0  0  0  0  0  0  0  0  0
  -27.6921  -28.3665   20.5371 N   0  0  0  0  0  0  0  0  0  0  0  0
  -30.6576  -26.5142   21.4551 N   0  3  0  0  0  0  0  0  0  0  0  0
  -19.0830  -14.2744   20.2139 O   0  0  0  0  0  0  0  0  0  0  0  0
  -28.7179  -12.3259   19.4203 O   0  0  0  0  0  0  0  0  0  0  0  0
  -22.4021  -27.1991   20.2007 O   0  0  0  0  0  0  0  0  0  0  0  0
  -25.2585  -28.9367   21.9376 O   0  0  0  0  0  0  0  0  0  0  0  0
  -21.7957  -20.3824   18.0166 O   0  0  0  0  0  0  0  0  0  0  0  0
  -28.5367  -26.4166   19.6088 O   0  0  0  0  0  0  0  0  0  0  0  0
  -29.9361  -19.8992   20.7421 O   0  0  0  0  0  0  0  0  0  0  0  0
  -24.4125  -21.0359   18.9847 O   0  0  0  0  0  0  0  0  0  1  0  0
  -29.4170  -23.1352   25.1764 F   0  0  0  0  0  0  0  0  0  0  0  0
  -27.5046  -21.0482   21.3827 F   0  0  0  0  0  0  0  0  0  0  0  0
  1  2  1  0  0  0  0
  1  7  2  0  0  0  0
  2  8  2  0  0  0  0
  3  6  1  0  0  0  0
  3 10  2  0  0  0  0
  4 11  2  0  0  0  0
  4 19  1  0  0  0  0
  5 12  1  0  0  0  0
  5 19  2  0  0  0  0
  6 20  2  0  0  0  0
  7 22  1  0  0  0  0
  8 24  1  0  0  0  0
  9 13  2  0  0  0  0
  9 23  1  0  0  0  0
 10 26  1  0  0  0  0
 11 27  1  0  0  0  0
 12 27  2  0  0  0  0
 13 28  1  0  0  0  0
 14 15  2  0  0  0  0
 14 29  1  0  0  0  0
 15 30  1  0  0  0  0
 16 20  1  0  0  0  0
 16 26  2  0  0  0  0
 17 25  1  0  0  0  0
 17 28  2  0  0  0  0
 18 30  2  0  0  0  0
 18 31  1  0  0  0  0
 19 32  1  0  0  0  0
 20 34  1  0  0  0  0
 21 32  1  0  0  0  0
 21 33  2  0  0  0  0
 21 35  1  0  0  0  0
 22 24  2  0  0  0  0
 22 40  1  0  0  0  0
 23 25  2  0  0  0  0
 23 41  1  0  0  0  0
 24 49  1  0  0  0  0
 25 42  1  0  0  0  0
 26 57  1  0  0  0  0
 27 79  1  0  0  0  0
 28 80  1  0  0  0  0
 29 31  2  0  0  0  0
 29 79  1  0  0  0  0
 30 81  1  0  0  0  0
 31 82  1  0  0  0  0
 32 63  2  0  0  0  0
 33 64  1  0  0  0  0
 33 67  1  0  0  0  0
 34 65  1  0  0  0  0
 34 73  2  0  0  0  0
 35 68  1  0  0  0  0
 35 74  2  0  0  0  0
 36 50  1  0  0  0  0
 36 69  1  0  0  0  0
 36 75  2  0  0  0  0
 37 60  1  0  0  0  0
 37 66  1  0  0  0  0
 37 76  2  0  0  0  0
 38 58  1  0  0  0  0
 38 70  1  0  0  0  0
 38 77  2  0  0  0  0
 39 61  1  0  0  0  0
 39 71  1  0  0  0  0
 39 78  2  0  0  0  0
 40 43  1  0  0  0  0
 41 50  1  0  0  0  0
 42 66  1  0  0  0  0
 43 45  1  0  0  0  0
 44 46  1  0  0  0  0
 44 47  1  0  0  0  0
 45 49  1  0  0  0  0
 46 51  1  0  0  0  0
 47 65  1  0  0  0  0
 48 51  1  0  0  0  0
 48 65  1  0  0  0  0
 49 69  1  0  0  0  0
 50 66  1  0  0  0  0
 51 64  1  0  0  0  0
 52 61  1  0  0  0  0
 53 62  1  0  0  0  0
 54 62  1  0  0  0  0
 55 62  1  0  0  0  0
 56 72  1  0  0  0  0
 57 70  1  0  0  0  0
 58 59  1  0  0  0  0
 59 80  1  0  0  0  0
 60 62  1  0  0  0  0
 60 71  1  0  0  0  0
 61 72  1  0  0  0  0
 63 64  1  0  0  0  0
M  CHG  1  72   1
M  ISO  4  20 100  34 100  59 101  80 101
M  END
> <Batch ID>
0054

> <Smiles>
CNC(C)C(=O)NC(C(=O)N1Cc2cc([101O:1][101CH2:1]CC(=O)NCc3ccc[100c:0]([100C:0](=O)N4CCCC(n5nc(-c6ccc(Oc7ccc(F)cc7F)cc6)c(C(N)=O)c5N)C4)c3)ccc2CC1C(=O)NC1CCCc2ccccc21)C(C)(C)C

> <Shape>
0.214

> <Color>
0.067

> <Negative vol penalty>
0.000

$$$$

  -OEChem-04042322463D

 86 94  0     1  0  0  0  0  0999 V2000
  -22.7986  -23.3702   17.9988 C   0  0  0  0  0  0  0  0  0  0  0  0
  -23.8995  -22.7257   18.5539 C   0  0  0  0  0  0  0  0  0  0  0  0
  -22.5129  -30.7090   20.3767 C   0  0  0  0  0  0  0  0  0  0  0  0
  -22.6839  -29.0278   22.1034 C   0  0  0  0  0  0  0  0  0  0  0  0
  -21.5148  -22.8772   18.2284 C   0  0  0  0  0  0  0  0  0  0  0  0
  -23.7170  -21.5885   19.3400 C   0  0  0  0  0  0  0  0  0  0  0  0
  -26.9928  -17.8969   18.2058 C   0  0  0  0  0  0  0  0  0  0  0  0
  -21.1323  -30.5169   20.3263 C   0  0  0  0  0  0  0  0  0  0  0  0
  -21.3032  -28.8357   22.0530 C   0  0  0  0  0  0  0  0  0  0  0  0
  -28.2900  -18.0224   18.7011 C   0  0  0  0  0  0  0  0  0  0  0  0
  -18.5308  -30.3830   23.2105 C   0  0  0  0  0  0  0  0  0  0  0  0
  -17.8446  -30.3027   24.4222 C   0  0  0  0  0  0  0  0  0  0  0  0
  -29.1219  -22.5566   22.8418 C   0  0  0  0  0  0  0  0  0  0  0  0
  -27.7507  -16.4904   20.4847 C   0  0  0  0  0  0  0  0  0  0  0  0
  -30.0790  -23.3694   20.3507 C   0  0  0  0  0  0  0  0  0  0  0  0
  -17.0922  -28.0796   23.8487 C   0  0  0  0  0  0  0  0  0  0  0  0
  -23.2888  -29.9644   21.2653 C   0  0  0  0  0  0  0  0  0  0  0  0
  -29.7431  -21.6351   21.9988 C   0  0  0  0  0  0  0  0  0  0  0  0
  -25.4183  -31.0698   22.1319 C   0  0  0  0  0  0  0  0  0  0  0  0
  -21.3172  -21.7278   19.0097 C   0  0  0  0  0  0  0  0  0  0  0  0
  -26.0600  -17.0743   18.8536 C   0  0  0  0  0  0  0  0  0  0  0  0
  -22.4293  -21.0805   19.5814 C   0  0  0  0  0  0  0  0  0  0  0  0
  -26.4430  -16.3542   19.9941 C   0  0  0  0  0  0  0  0  0  0  0  0
  -29.4578  -24.2909   21.1937 C   0  0  0  0  0  0  0  0  0  0  0  0
  -20.5275  -29.5802   21.1644 C   0  0  0  0  0  0  0  0  0  0  0  0
  -28.6683  -17.3213   19.8424 C   0  0  0  0  0  0  0  0  0  0  0  0
  -18.4978  -29.3117   22.3179 C   0  0  0  0  0  0  0  0  0  0  0  0
  -17.1253  -29.1510   24.7413 C   0  0  0  0  0  0  0  0  0  0  0  0
  -28.9792  -23.8845   22.4392 C   0  0  0  0  0  0  0  0  0  0  0  0
  -30.2217  -22.0415   20.7533 C   0  0  0  0  0  0  0  0  0  0  0  0
  -17.7785  -28.1600   22.6370 C   0  0  0  0  0  0  0  0  0  0  0  0
  -24.7151  -30.1621   21.3174 C   0  0  0  0  0  0  0  0  0  0  0  0
  -26.7381  -30.8703   21.8081 C   0  0  0  0  0  0  0  0  0  0  0  0
  -29.8934  -20.2220   22.4319 C   0  0  0  0  0  0  0  0  0  0  0  0
  -24.9228  -32.0092   23.0950 C   0  0  0  0  0  0  0  0  0  0  0  0
  -23.2633  -17.5507   20.2871 C   0  0  0  0  0  0  0  0  0  0  0  0
  -23.2436  -14.3118   20.4642 C   0  0  0  0  0  0  0  0  0  0  0  0
  -25.0259  -11.4017   20.5067 C   0  0  0  0  0  0  0  0  0  0  0  0
  -29.7346  -26.2055   19.5799 C   0  0  0  0  0  0  0  0  0  0  0  0
  -19.9071  -21.2598   19.2690 C   0  0  0  0  0  0  0  0  0  0  0  0
  -24.6726  -16.9290   18.2913 C   0  0  0  0  0  0  0  0  0  0  0  0
  -25.4853  -15.4421   20.7148 C   0  0  0  0  0  0  0  0  0  0  0  0
  -19.8278  -19.8325   19.8045 C   0  0  0  0  0  0  0  0  0  0  0  0
  -29.5339  -29.4729   18.1798 C   0  0  0  0  0  0  0  0  0  0  0  0
  -20.8411  -19.6260   20.9259 C   0  0  0  0  0  0  0  0  0  0  0  0
  -28.3432  -30.1052   18.9040 C   0  0  0  0  0  0  0  0  0  0  0  0
  -29.3059  -27.9881   17.9026 C   0  0  0  0  0  0  0  0  0  0  0  0
  -27.7442  -27.8195   19.8005 C   0  0  0  0  0  0  0  0  0  0  0  0
  -22.2739  -19.8299   20.4192 C   0  0  1  0  0  0  0  0  0  0  0  0
  -23.6539  -16.4630   19.3269 C   0  0  1  0  0  0  0  0  0  0  0  0
  -27.9545  -29.2996   20.1592 C   0  0  2  0  0  0  0  0  0  0  0  0
  -24.7356   -8.9166   20.6998 C   0  0  0  0  0  0  0  0  0  0  0  0
  -22.7624  -14.6036   23.4631 C   0  0  0  0  0  0  0  0  0  0  0  0
  -23.4238  -12.2039   23.7321 C   0  0  0  0  0  0  0  0  0  0  0  0
  -21.4255  -12.7991   22.3627 C   0  0  0  0  0  0  0  0  0  0  0  0
  -32.5592  -17.7403   21.5288 C   0  0  0  0  0  0  0  0  0  0  0  0
  -31.4472  -18.0230   23.7578 C   0  0  0  0  0  0  0  0  0  0  0  0
  -26.2119  -10.9388   17.8349 C   0  0  0  0  0  0  0  0  0  0  0  0
  -30.1056  -17.2916   21.7369 C   0  0  0  0  0  0  0  0  0  1  0  0
  -23.7362  -13.2928   21.4632 C   0  0  1  0  0  0  0  0  0  0  0  0
  -24.8450  -10.0986   19.7492 C   0  0  2  0  0  0  0  0  0  0  0  0
  -22.8547  -13.2435   22.7431 C   0  0  0  0  0  0  0  0  0  0  0  0
  -31.2681  -18.1653   22.2409 C   0  0  0  0  0  0  0  0  0  0  0  0
  -25.5214  -29.4398   20.5350 N   0  0  0  0  0  0  0  0  0  0  0  0
  -26.7449  -29.8935   20.8563 N   0  0  0  0  0  0  0  0  0  0  0  0
  -24.1382  -15.3383   20.1298 N   0  0  0  0  0  0  0  0  0  0  0  0
  -28.9457  -27.2884   19.1378 N   0  0  0  0  0  0  0  0  0  0  0  0
  -27.8818  -31.4369   22.2476 N   0  0  0  0  0  0  0  0  0  0  0  0
  -23.5390  -32.0845   23.3043 N   0  0  0  0  0  0  0  0  0  0  0  0
  -29.3145  -25.6395   20.7832 N   0  0  0  0  0  0  0  0  0  0  0  0
  -30.9963  -19.5590   21.9297 N   0  0  0  0  0  0  0  0  0  0  0  0
  -22.7193  -18.6673   19.6814 N   0  0  0  0  0  0  0  0  0  0  0  0
  -23.8195  -12.0251   20.7459 N   0  0  0  0  0  0  0  0  0  0  0  0
  -26.0012   -9.8640   18.8386 N   0  3  0  0  0  0  0  0  0  0  0  0
  -29.0468  -19.7280   23.1720 O   0  0  0  0  0  0  0  0  0  0  0  0
  -25.6834  -32.7712   23.7387 O   0  0  0  0  0  0  0  0  0  0  0  0
  -23.4408  -17.3884   21.4887 O   0  0  0  0  0  0  0  0  0  0  0  0
  -22.1097  -14.1971   19.9924 O   0  0  0  0  0  0  0  0  0  0  0  0
  -26.1269  -11.8225   20.8548 O   0  0  0  0  0  0  0  0  0  0  0  0
  -30.7270  -25.8267   18.9525 O   0  0  0  0  0  0  0  0  0  0  0  0
  -19.1802  -29.3926   21.1157 O   0  0  0  0  0  0  0  0  0  0  0  0
  -29.9336  -17.4425   20.3283 O   0  0  0  0  0  0  0  0  0  1  0  0
  -16.4676  -29.0735   25.9056 F   0  0  0  0  0  0  0  0  0  0  0  0
  -28.3803  -24.7614   23.2576 F   0  0  0  0  0  0  0  0  0  0  0  0
  -30.8216  -21.1650   19.9349 F   0  0  0  0  0  0  0  0  0  0  0  0
  -17.7440  -27.1270   21.7840 F   0  0  0  0  0  0  0  0  0  0  0  0
  1  2  1  0  0  0  0
  1  5  2  0  0  0  0
  2  6  2  0  0  0  0
  3  8  2  0  0  0  0
  3 17  1  0  0  0  0
  4  9  1  0  0  0  0
  4 17  2  0  0  0  0
  5 20  1  0  0  0  0
  6 22  1  0  0  0  0
  7 10  2  0  0  0  0
  7 21  1  0  0  0  0
  8 25  1  0  0  0  0
  9 25  2  0  0  0  0
 10 26  1  0  0  0  0
 11 12  2  0  0  0  0
 11 27  1  0  0  0  0
 12 28  1  0  0  0  0
 13 18  1  0  0  0  0
 13 29  2  0  0  0  0
 14 23  1  0  0  0  0
 14 26  2  0  0  0  0
 15 24  2  0  0  0  0
 15 30  1  0  0  0  0
 16 28  2  0  0  0  0
 16 31  1  0  0  0  0
 17 32  1  0  0  0  0
 18 30  2  0  0  0  0
 18 34  1  0  0  0  0
 19 32  1  0  0  0  0
 19 33  2  0  0  0  0
 19 35  1  0  0  0  0
 20 22  2  0  0  0  0
 20 40  1  0  0  0  0
 21 23  2  0  0  0  0
 21 41  1  0  0  0  0
 22 49  1  0  0  0  0
 23 42  1  0  0  0  0
 24 29  1  0  0  0  0
 24 70  1  0  0  0  0
 25 81  1  0  0  0  0
 26 82  1  0  0  0  0
 27 31  2  0  0  0  0
 27 81  1  0  0  0  0
 28 83  1  0  0  0  0
 29 84  1  0  0  0  0
 30 85  1  0  0  0  0
 31 86  1  0  0  0  0
 32 64  2  0  0  0  0
 33 65  1  0  0  0  0
 33 68  1  0  0  0  0
 34 71  1  0  0  0  0
 34 75  2  0  0  0  0
 35 69  1  0  0  0  0
 35 76  2  0  0  0  0
 36 50  1  0  0  0  0
 36 72  1  0  0  0  0
 36 77  2  0  0  0  0
 37 60  1  0  0  0  0
 37 66  1  0  0  0  0
 37 78  2  0  0  0  0
 38 61  1  0  0  0  0
 38 73  1  0  0  0  0
 38 79  2  0  0  0  0
 39 67  1  0  0  0  0
 39 70  1  0  0  0  0
 39 80  2  0  0  0  0
 40 43  1  0  0  0  0
 41 50  1  0  0  0  0
 42 66  1  0  0  0  0
 43 45  1  0  0  0  0
 44 46  1  0  0  0  0
 44 47  1  0  0  0  0
 45 49  1  0  0  0  0
 46 51  1  0  0  0  0
 47 67  1  0  0  0  0
 48 51  1  0  0  0  0
 48 67  1  0  0  0  0
 49 72  1  0  0  0  0
 50 66  1  0  0  0  0
 51 65  1  0  0  0  0
 52 61  1  0  0  0  0
 53 62  1  0  0  0  0
 54 62  1  0  0  0  0
 55 62  1  0  0  0  0
 56 63  1  0  0  0  0
 57 63  1  0  0  0  0
 58 74  1  0  0  0  0
 59 63  1  0  0  0  0
 59 82  1  0  0  0  0
 60 62  1  0  0  0  0
 60 73  1  0  0  0  0
 61 74  1  0  0  0  0
 63 71  1  0  0  0  0
 64 65  1  0  0  0  0
M  CHG  1  74   1
M  ISO  4  39 100  59 101  70 100  82 101
M  END
> <Batch ID>
0054

> <Smiles>
CNC(C)C(=O)NC(C(=O)N1Cc2cc([101O:1][101CH2:1]C(C)(C)NC(=O)c3cc(F)c([100NH:0][100C:0](=O)N4CCCC(n5nc(-c6ccc(Oc7ccc(F)cc7F)cc6)c(C(N)=O)c5N)C4)cc3F)ccc2CC1C(=O)NC1CCCc2ccccc21)C(C)(C)C

> <Shape>
0.264

> <Color>
0.074

> <Negative vol penalty>
0.000

$$$$

  -OEChem-04042322463D

 88 96  0     1  0  0  0  0  0999 V2000
  -28.6050  -37.4617   22.9518 C   0  0  0  0  0  0  0  0  0  0  0  0
  -29.0004  -36.2634   22.3660 C   0  0  0  0  0  0  0  0  0  0  0  0
  -23.1410  -12.7097   20.7249 C   0  0  0  0  0  0  0  0  0  0  0  0
  -24.2844  -12.5490   18.6026 C   0  0  0  0  0  0  0  0  0  0  0  0
  -27.6388  -37.4595   23.9569 C   0  0  0  0  0  0  0  0  0  0  0  0
  -28.4305  -35.0620   22.7858 C   0  0  0  0  0  0  0  0  0  0  0  0
  -27.2079  -30.1597   19.3248 C   0  0  0  0  0  0  0  0  0  0  0  0
  -34.2087  -19.0024   18.4378 C   0  0  0  0  0  0  0  0  0  0  0  0
  -22.0837  -11.9582   20.2122 C   0  0  0  0  0  0  0  0  0  0  0  0
  -23.2271  -11.7974   18.0899 C   0  0  0  0  0  0  0  0  0  0  0  0
  -27.8939  -28.9640   19.1164 C   0  0  0  0  0  0  0  0  0  0  0  0
  -21.4140   -8.7033   19.5878 C   0  0  0  0  0  0  0  0  0  0  0  0
  -33.8484  -17.7788   19.0022 C   0  0  0  0  0  0  0  0  0  0  0  0
  -20.9027   -7.6773   20.3825 C   0  0  0  0  0  0  0  0  0  0  0  0
  -26.5279  -27.8949   20.7927 C   0  0  0  0  0  0  0  0  0  0  0  0
  -31.9992  -19.8650   18.8973 C   0  0  0  0  0  0  0  0  0  0  0  0
  -18.7362   -8.7466   20.3692 C   0  0  0  0  0  0  0  0  0  0  0  0
  -24.2414  -13.0052   19.9201 C   0  0  0  0  0  0  0  0  0  0  0  0
  -26.4820  -13.2982   21.1040 C   0  0  0  0  0  0  0  0  0  0  0  0
  -27.0497  -36.2585   24.3825 C   0  0  0  0  0  0  0  0  0  0  0  0
  -26.1823  -30.2349   20.2782 C   0  0  0  0  0  0  0  0  0  0  0  0
  -27.4564  -35.0436   23.7985 C   0  0  0  0  0  0  0  0  0  0  0  0
  -25.8287  -29.0920   21.0096 C   0  0  0  0  0  0  0  0  0  0  0  0
  -33.2841  -20.0455   18.3854 C   0  0  0  0  0  0  0  0  0  0  0  0
  -31.6389  -18.6414   19.4617 C   0  0  0  0  0  0  0  0  0  0  0  0
  -22.1267  -11.5020   18.8947 C   0  0  0  0  0  0  0  0  0  0  0  0
  -27.5559  -27.8321   19.8524 C   0  0  0  0  0  0  0  0  0  0  0  0
  -20.5864   -9.7510   19.1838 C   0  0  0  0  0  0  0  0  0  0  0  0
  -19.5638   -7.6990   20.7732 C   0  0  0  0  0  0  0  0  0  0  0  0
  -32.5635  -17.5983   19.5142 C   0  0  0  0  0  0  0  0  0  0  0  0
  -19.2476   -9.7726   19.5745 C   0  0  0  0  0  0  0  0  0  0  0  0
  -25.3336  -13.7820   20.4489 C   0  0  0  0  0  0  0  0  0  0  0  0
  -27.2050  -14.4258   21.4072 C   0  0  0  0  0  0  0  0  0  0  0  0
  -26.8611  -11.9499   21.4108 C   0  0  0  0  0  0  0  0  0  0  0  0
  -25.7202  -31.8943   22.9496 C   0  0  0  0  0  0  0  0  0  0  0  0
  -22.7851  -30.5180   22.8349 C   0  0  0  0  0  0  0  0  0  0  0  0
  -32.6737  -23.5317   18.5276 C   0  0  0  0  0  0  0  0  0  0  0  0
  -30.3742  -25.5551   19.7078 C   0  0  0  0  0  0  0  0  0  0  0  0
  -20.8331  -27.9441   21.7340 C   0  0  0  0  0  0  0  0  0  0  0  0
  -29.2974  -19.3927   20.0089 C   0  0  0  0  0  0  0  0  0  0  0  0
  -26.0436  -36.3013   25.5052 C   0  0  0  0  0  0  0  0  0  0  0  0
  -25.4339  -31.5252   20.4722 C   0  0  0  0  0  0  0  0  0  0  0  0
  -24.7216  -29.1150   22.0305 C   0  0  0  0  0  0  0  0  0  0  0  0
  -25.2173  -35.0240   25.6317 C   0  0  0  0  0  0  0  0  0  0  0  0
  -25.9314  -19.3189   21.1673 C   0  0  0  0  0  0  0  0  0  0  0  0
  -26.1187  -33.7957   25.5589 C   0  0  0  0  0  0  0  0  0  0  0  0
  -25.5703  -17.8320   21.1375 C   0  0  0  0  0  0  0  0  0  0  0  0
  -26.8325  -19.7072   19.9964 C   0  0  0  0  0  0  0  0  0  0  0  0
  -27.6809  -17.4014   19.8158 C   0  0  0  0  0  0  0  0  0  0  0  0
  -26.8434  -33.7224   24.2094 C   0  0  1  0  0  0  0  0  0  0  0  0
  -24.7520  -31.6215   21.8334 C   0  0  1  0  0  0  0  0  0  0  0  0
  -26.8274  -16.9492   21.0120 C   0  0  2  0  0  0  0  0  0  0  0  0
  -18.4817  -27.0734   21.8326 C   0  0  0  0  0  0  0  0  0  0  0  0
  -23.2670  -29.5463   25.6869 C   0  0  0  0  0  0  0  0  0  0  0  0
  -21.3742  -27.9359   25.3838 C   0  0  0  0  0  0  0  0  0  0  0  0
  -20.9542  -30.3912   25.2494 C   0  0  0  0  0  0  0  0  0  0  0  0
  -34.4084  -22.3609   19.9067 C   0  0  0  0  0  0  0  0  0  0  0  0
  -20.5137  -28.1414   18.7984 C   0  0  0  0  0  0  0  0  0  0  0  0
  -33.6723  -21.3622   17.7771 C   0  0  0  0  0  0  0  0  0  0  0  0
  -32.6652  -24.5918   19.6148 C   0  0  0  0  0  0  0  0  0  0  0  0
  -29.5862  -26.7582   19.2353 C   0  0  0  0  0  0  0  0  0  1  0  0
  -22.1827  -29.2388   23.3640 C   0  0  1  0  0  0  0  0  0  0  0  0
  -19.4734  -27.9284   21.0592 C   0  0  2  0  0  0  0  0  0  0  0  0
  -21.9667  -29.2778   24.9032 C   0  0  0  0  0  0  0  0  0  0  0  0
  -25.3234  -15.1133   20.3420 N   0  0  0  0  0  0  0  0  0  0  0  0
  -26.4742  -15.4757   20.9340 N   0  0  0  0  0  0  0  0  0  0  0  0
  -24.0238  -30.4017   22.1884 N   0  0  0  0  0  0  0  0  0  0  0  0
  -28.0048  -18.8310   19.9429 N   0  0  0  0  0  0  0  0  0  0  0  0
  -28.3883  -14.6119   22.0298 N   0  0  0  0  0  0  0  0  0  0  0  0
  -26.0024  -10.9107   21.0277 N   0  0  0  0  0  0  0  0  0  0  0  0
  -30.3335  -18.4598   19.9821 N   0  0  0  0  0  0  0  0  0  0  0  0
  -25.9484  -33.2374   23.1808 N   0  0  0  0  0  0  0  0  0  0  0  0
  -31.6970  -25.6163   19.2985 N   0  0  0  0  0  0  0  0  0  0  0  0
  -20.9636  -29.0132   22.5951 N   0  0  0  0  0  0  0  0  0  0  0  0
  -33.5503  -22.4597   18.7285 N   0  0  0  0  0  0  0  0  0  0  0  0
  -19.5873  -27.3822   19.6773 N   0  3  0  0  0  0  0  0  0  0  0  0
  -27.9220  -11.6761   22.0217 O   0  0  0  0  0  0  0  0  0  0  0  0
  -26.2219  -30.9557   23.5572 O   0  0  0  0  0  0  0  0  0  0  0  0
  -22.1756  -31.5801   22.9833 O   0  0  0  0  0  0  0  0  0  0  0  0
  -31.9409  -23.6341   17.5402 O   0  0  0  0  0  0  0  0  0  0  0  0
  -29.8728  -24.6510   20.3704 O   0  0  0  0  0  0  0  0  0  0  0  0
  -21.6921  -27.0912   21.5216 O   0  0  0  0  0  0  0  0  0  0  0  0
  -29.4717  -20.6097   20.1112 O   0  0  0  0  0  0  0  0  0  0  0  0
  -21.0953  -10.7684   18.3942 O   0  0  0  0  0  0  0  0  0  0  0  0
  -28.2244  -26.6640   19.6513 O   0  0  0  0  0  0  0  0  0  1  0  0
  -19.0726   -6.7129   21.5350 F   0  0  0  0  0  0  0  0  0  0  0  0
  -32.2282  -16.4177   20.0537 F   0  0  0  0  0  0  0  0  0  0  0  0
  -18.4474  -10.7759   19.1885 F   0  0  0  0  0  0  0  0  0  0  0  0
  1  2  1  0  0  0  0
  1  5  2  0  0  0  0
  2  6  2  0  0  0  0
  3  9  2  0  0  0  0
  3 18  1  0  0  0  0
  4 10  1  0  0  0  0
  4 18  2  0  0  0  0
  5 20  1  0  0  0  0
  6 22  1  0  0  0  0
  7 11  2  0  0  0  0
  7 21  1  0  0  0  0
  8 13  2  0  0  0  0
  8 24  1  0  0  0  0
  9 26  1  0  0  0  0
 10 26  2  0  0  0  0
 11 27  1  0  0  0  0
 12 14  2  0  0  0  0
 12 28  1  0  0  0  0
 13 30  1  0  0  0  0
 14 29  1  0  0  0  0
 15 23  1  0  0  0  0
 15 27  2  0  0  0  0
 16 24  2  0  0  0  0
 16 25  1  0  0  0  0
 17 29  2  0  0  0  0
 17 31  1  0  0  0  0
 18 32  1  0  0  0  0
 19 32  1  0  0  0  0
 19 33  2  0  0  0  0
 19 34  1  0  0  0  0
 20 22  2  0  0  0  0
 20 41  1  0  0  0  0
 21 23  2  0  0  0  0
 21 42  1  0  0  0  0
 22 50  1  0  0  0  0
 23 43  1  0  0  0  0
 24 59  1  0  0  0  0
 25 30  2  0  0  0  0
 25 71  1  0  0  0  0
 26 84  1  0  0  0  0
 27 85  1  0  0  0  0
 28 31  2  0  0  0  0
 28 84  1  0  0  0  0
 29 86  1  0  0  0  0
 30 87  1  0  0  0  0
 31 88  1  0  0  0  0
 32 65  2  0  0  0  0
 33 66  1  0  0  0  0
 33 69  1  0  0  0  0
 34 70  1  0  0  0  0
 34 77  2  0  0  0  0
 35 51  1  0  0  0  0
 35 72  1  0  0  0  0
 35 78  2  0  0  0  0
 36 62  1  0  0  0  0
 36 67  1  0  0  0  0
 36 79  2  0  0  0  0
 37 60  1  0  0  0  0
 37 75  1  0  0  0  0
 37 80  2  0  0  0  0
 38 61  1  0  0  0  0
 38 73  1  0  0  0  0
 38 81  2  0  0  0  0
 39 63  1  0  0  0  0
 39 74  1  0  0  0  0
 39 82  2  0  0  0  0
 40 68  1  0  0  0  0
 40 71  1  0  0  0  0
 40 83  2  0  0  0  0
 41 44  1  0  0  0  0
 42 51  1  0  0  0  0
 43 67  1  0  0  0  0
 44 46  1  0  0  0  0
 45 47  1  0  0  0  0
 45 48  1  0  0  0  0
 46 50  1  0  0  0  0
 47 52  1  0  0  0  0
 48 68  1  0  0  0  0
 49 52  1  0  0  0  0
 49 68  1  0  0  0  0
 50 72  1  0  0  0  0
 51 67  1  0  0  0  0
 52 66  1  0  0  0  0
 53 63  1  0  0  0  0
 54 64  1  0  0  0  0
 55 64  1  0  0  0  0
 56 64  1  0  0  0  0
 57 75  1  0  0  0  0
 58 76  1  0  0  0  0
 59 75  1  0  0  0  0
 60 73  1  0  0  0  0
 61 85  1  0  0  0  0
 62 64  1  0  0  0  0
 62 74  1  0  0  0  0
 63 76  1  0  0  0  0
 65 66  1  0  0  0  0
M  CHG  1  76   1
M  ISO  4  40 100  61 101  71 100  85 101
M  END
> <Batch ID>
0054

> <Smiles>
CNC(C)C(=O)NC(C(=O)N1Cc2cc([101O:1][101CH2:1]C(=O)NCC(=O)N(C)Cc3ccc(F)c([100NH:0][100C:0](=O)N4CCCC(n5nc(-c6ccc(Oc7ccc(F)cc7F)cc6)c(C(N)=O)c5N)C4)c3)ccc2CC1C(=O)NC1CCCc2ccccc21)C(C)(C)C

> <Shape>
0.277

> <Color>
0.093

> <Negative vol penalty>
0.000

$$$$

  -OEChem-04042322463D

 86 95  0     1  0  0  0  0  0999 V2000
  -23.2996  -20.5448   28.2511 C   0  0  0  0  0  0  0  0  0  0  0  0
  -24.5299  -21.0827   27.8870 C   0  0  0  0  0  0  0  0  0  0  0  0
  -25.9494  -13.0973   21.5739 C   0  0  0  0  0  0  0  0  0  0  0  0
  -25.9363  -13.5328   19.1975 C   0  0  0  0  0  0  0  0  0  0  0  0
  -22.2115  -20.6475   27.3855 C   0  0  0  0  0  0  0  0  0  0  0  0
  -24.6729  -21.7228   26.6564 C   0  0  0  0  0  0  0  0  0  0  0  0
  -28.2428  -27.0945   23.5393 C   0  0  0  0  0  0  0  0  0  0  0  0
  -30.5107  -22.2609   15.2761 C   0  0  0  0  0  0  0  0  0  0  0  0
  -24.8126  -12.3012   21.4343 C   0  0  0  0  0  0  0  0  0  0  0  0
  -24.7995  -12.7367   19.0579 C   0  0  0  0  0  0  0  0  0  0  0  0
  -29.0485  -27.3523   22.4310 C   0  0  0  0  0  0  0  0  0  0  0  0
  -24.0791   -9.1641   20.4079 C   0  0  0  0  0  0  0  0  0  0  0  0
  -24.0623   -7.9362   21.0693 C   0  0  0  0  0  0  0  0  0  0  0  0
  -29.6460  -21.1835   15.0836 C   0  0  0  0  0  0  0  0  0  0  0  0
  -27.0791  -27.5397   21.0506 C   0  0  0  0  0  0  0  0  0  0  0  0
  -30.0078  -22.2424   17.6391 C   0  0  0  0  0  0  0  0  0  0  0  0
  -22.1093   -8.6312   22.3102 C   0  0  0  0  0  0  0  0  0  0  0  0
  -26.5113  -13.7131   20.4555 C   0  0  0  0  0  0  0  0  0  0  0  0
  -29.0285  -14.1228   20.5159 C   0  0  0  0  0  0  0  0  0  0  0  0
  -22.3388  -21.2977   26.1479 C   0  0  0  0  0  0  0  0  0  0  0  0
  -26.8474  -27.0465   23.4092 C   0  0  0  0  0  0  0  0  0  0  0  0
  -23.5858  -21.8331   25.7729 C   0  0  0  0  0  0  0  0  0  0  0  0
  -26.2578  -27.2837   22.1592 C   0  0  0  0  0  0  0  0  0  0  0  0
  -30.6916  -22.7904   16.5539 C   0  0  0  0  0  0  0  0  0  0  0  0
  -29.1430  -21.1650   17.4466 C   0  0  0  0  0  0  0  0  0  0  0  0
  -24.2376  -12.1209   20.1763 C   0  0  0  0  0  0  0  0  0  0  0  0
  -28.4668  -27.5721   21.1859 C   0  0  0  0  0  0  0  0  0  0  0  0
  -23.1109  -10.1257   20.6977 C   0  0  0  0  0  0  0  0  0  0  0  0
  -23.0774   -7.6697   22.0204 C   0  0  0  0  0  0  0  0  0  0  0  0
  -22.1261   -9.8591   21.6488 C   0  0  0  0  0  0  0  0  0  0  0  0
  -28.9621  -20.6356   16.1689 C   0  0  0  0  0  0  0  0  0  0  0  0
  -27.6853  -14.5360   20.5992 C   0  0  0  0  0  0  0  0  0  0  0  0
  -29.7542  -15.2706   20.7214 C   0  0  0  0  0  0  0  0  0  0  0  0
  -30.5277  -25.7132   18.1978 C   0  0  0  0  0  0  0  0  0  0  0  0
  -29.5715  -12.8180   20.2742 C   0  0  0  0  0  0  0  0  0  0  0  0
  -24.6284  -24.8149   23.8558 C   0  0  0  0  0  0  0  0  0  0  0  0
  -22.5948  -27.2707   23.2593 C   0  0  0  0  0  0  0  0  0  0  0  0
  -22.0802  -30.3217   21.8194 C   0  0  0  0  0  0  0  0  0  0  0  0
  -28.5506  -21.0646   19.8931 C   0  0  0  0  0  0  0  0  0  0  0  0
  -21.1465  -21.3424   25.2253 C   0  0  0  0  0  0  0  0  0  0  0  0
  -25.9911  -26.7937   24.6196 C   0  0  0  0  0  0  0  0  0  0  0  0
  -24.7637  -27.2631   21.9705 C   0  0  0  0  0  0  0  0  0  0  0  0
  -21.2847  -22.3650   24.1004 C   0  0  0  0  0  0  0  0  0  0  0  0
  -29.5142  -19.5051   22.9454 C   0  0  0  0  0  0  0  0  0  0  0  0
  -22.6592  -22.2580   23.4476 C   0  0  0  0  0  0  0  0  0  0  0  0
  -29.2826  -18.0157   22.6805 C   0  0  0  0  0  0  0  0  0  0  0  0
  -29.5464  -27.0021   16.4465 C   0  0  0  0  0  0  0  0  0  0  0  0
  -28.4487  -20.3724   22.2776 C   0  0  0  0  0  0  0  0  0  0  0  0
  -30.5843  -26.0647   15.8586 C   0  0  0  0  0  0  0  0  0  0  0  0
  -28.0295  -18.6403   20.5765 C   0  0  0  0  0  0  0  0  0  0  0  0
  -23.7742  -22.5567   24.4571 C   0  0  1  0  0  0  0  0  0  0  0  0
  -29.9293  -27.0821   17.9261 C   0  0  1  0  0  0  0  0  0  0  0  0
  -24.6057  -26.2590   24.2703 C   0  0  1  0  0  0  0  0  0  0  0  0
  -29.1147  -17.7305   21.1751 C   0  0  2  0  0  0  0  0  0  0  0  0
  -20.3045  -32.0596   21.4676 C   0  0  0  0  0  0  0  0  0  0  0  0
  -21.3134  -25.5231   21.1112 C   0  0  0  0  0  0  0  0  0  0  0  0
  -20.2319  -27.5807   20.1810 C   0  0  0  0  0  0  0  0  0  0  0  0
  -19.6925  -26.8289   22.4976 C   0  0  0  0  0  0  0  0  0  0  0  0
  -23.6333  -32.3718   23.2836 C   0  0  0  0  0  0  0  0  0  0  0  0
  -31.6227  -23.9499   16.7607 C   0  0  0  0  0  0  0  0  0  0  0  0
  -28.7559  -27.4040   18.8313 C   0  0  0  0  0  0  0  0  0  1  0  0
  -21.9549  -27.8523   22.0219 C   0  0  1  0  0  0  0  0  0  0  0  0
  -21.4490  -31.5944   22.3544 C   0  0  2  0  0  0  0  0  0  0  0  0
  -20.8265  -26.9448   21.4558 C   0  0  0  0  0  0  0  0  0  0  0  0
  -27.5622  -15.8442   20.8391 N   0  0  0  0  0  0  0  0  0  0  0  0
  -28.8373  -16.2629   20.9084 N   0  0  0  0  0  0  0  0  0  0  0  0
  -30.9061  -25.1904   16.9623 N   0  0  0  0  0  0  0  0  0  0  0  0
  -23.9694  -27.0053   23.1830 N   0  0  0  0  0  0  0  0  0  0  0  0
  -28.3486  -20.0499   20.8525 N   0  0  0  0  0  0  0  0  0  0  0  0
  -31.0808  -15.5178   20.7587 N   0  0  0  0  0  0  0  0  0  0  0  0
  -28.6844  -11.7498   20.0841 N   0  0  0  0  0  0  0  0  0  0  0  0
  -28.4629  -20.6329   18.5701 N   0  0  0  0  0  0  0  0  0  0  0  0
  -23.8898  -23.9827   24.6752 N   0  0  0  0  0  0  0  0  0  0  0  0
  -21.5164  -29.1963   22.3824 N   0  0  0  0  0  0  0  0  0  0  0  0
  -22.4622  -32.6851   22.4249 N   0  3  0  0  0  0  0  0  0  0  0  0
  -30.6807  -25.2157   19.3034 O   0  0  0  0  0  0  0  0  0  0  0  0
  -30.8070  -12.6028   20.2446 O   0  0  0  0  0  0  0  0  0  0  0  0
  -25.2674  -24.4807   22.8650 O   0  0  0  0  0  0  0  0  0  0  0  0
  -21.9019  -27.0661   24.2592 O   0  0  0  0  0  0  0  0  0  0  0  0
  -22.9806  -30.3254   20.9828 O   0  0  0  0  0  0  0  0  0  0  0  0
  -28.8111  -22.2251   20.2210 O   0  0  0  0  0  0  0  0  0  0  0  0
  -23.1284  -11.3440   20.0396 O   0  0  0  0  0  0  0  0  0  0  0  0
  -29.2508  -27.8234   20.1023 O   0  0  0  0  0  0  0  0  0  1  0  0
  -23.0606   -6.4898   22.6543 F   0  0  0  0  0  0  0  0  0  0  0  0
  -21.1927  -10.7785   21.9306 F   0  0  0  0  0  0  0  0  0  0  0  0
  -27.9008  -19.3021   15.8853 Cl  0  0  0  0  0  0  0  0  0  0  0  0
  1  2  1  0  0  0  0
  1  5  2  0  0  0  0
  2  6  2  0  0  0  0
  3  9  2  0  0  0  0
  3 18  1  0  0  0  0
  4 10  1  0  0  0  0
  4 18  2  0  0  0  0
  5 20  1  0  0  0  0
  6 22  1  0  0  0  0
  7 11  2  0  0  0  0
  7 21  1  0  0  0  0
  8 14  2  0  0  0  0
  8 24  1  0  0  0  0
  9 26  1  0  0  0  0
 10 26  2  0  0  0  0
 11 27  1  0  0  0  0
 12 13  2  0  0  0  0
 12 28  1  0  0  0  0
 13 29  1  0  0  0  0
 14 31  1  0  0  0  0
 15 23  1  0  0  0  0
 15 27  2  0  0  0  0
 16 24  2  0  0  0  0
 16 25  1  0  0  0  0
 17 29  2  0  0  0  0
 17 30  1  0  0  0  0
 18 32  1  0  0  0  0
 19 32  1  0  0  0  0
 19 33  2  0  0  0  0
 19 35  1  0  0  0  0
 20 22  2  0  0  0  0
 20 40  1  0  0  0  0
 21 23  2  0  0  0  0
 21 41  1  0  0  0  0
 22 51  1  0  0  0  0
 23 42  1  0  0  0  0
 24 60  1  0  0  0  0
 25 31  2  0  0  0  0
 25 72  1  0  0  0  0
 26 82  1  0  0  0  0
 27 83  1  0  0  0  0
 28 30  2  0  0  0  0
 28 82  1  0  0  0  0
 29 84  1  0  0  0  0
 30 85  1  0  0  0  0
 31 86  1  0  0  0  0
 32 65  2  0  0  0  0
 33 66  1  0  0  0  0
 33 70  1  0  0  0  0
 34 52  1  0  0  0  0
 34 67  1  0  0  0  0
 34 76  2  0  0  0  0
 35 71  1  0  0  0  0
 35 77  2  0  0  0  0
 36 53  1  0  0  0  0
 36 73  1  0  0  0  0
 36 78  2  0  0  0  0
 37 62  1  0  0  0  0
 37 68  1  0  0  0  0
 37 79  2  0  0  0  0
 38 63  1  0  0  0  0
 38 74  1  0  0  0  0
 38 80  2  0  0  0  0
 39 69  1  0  0  0  0
 39 72  1  0  0  0  0
 39 81  2  0  0  0  0
 40 43  1  0  0  0  0
 41 53  1  0  0  0  0
 42 68  1  0  0  0  0
 43 45  1  0  0  0  0
 44 46  1  0  0  0  0
 44 48  1  0  0  0  0
 45 51  1  0  0  0  0
 46 54  1  0  0  0  0
 47 49  1  0  0  0  0
 47 52  1  0  0  0  0
 48 69  1  0  0  0  0
 49 67  1  0  0  0  0
 50 54  1  0  0  0  0
 50 69  1  0  0  0  0
 51 73  1  0  0  0  0
 52 61  1  0  0  0  0
 53 68  1  0  0  0  0
 54 66  1  0  0  0  0
 55 63  1  0  0  0  0
 56 64  1  0  0  0  0
 57 64  1  0  0  0  0
 58 64  1  0  0  0  0
 59 75  1  0  0  0  0
 60 67  1  0  0  0  0
 61 83  1  0  0  0  0
 62 64  1  0  0  0  0
 62 74  1  0  0  0  0
 63 75  1  0  0  0  0
 65 66  1  0  0  0  0
M  CHG  1  75   1
M  ISO  4  39 100  61 101  72 100  83 101
M  END
> <Batch ID>
0054

> <Smiles>
CNC(C)C(=O)NC(C(=O)N1Cc2cc([101O:1][101CH2:1]C3CCN(Cc4ccc(Cl)c([100NH:0][100C:0](=O)N5CCCC(n6nc(-c7ccc(Oc8ccc(F)cc8F)cc7)c(C(N)=O)c6N)C5)c4)C3=O)ccc2CC1C(=O)NC1CCCc2ccccc21)C(C)(C)C

> <Shape>
0.254

> <Color>
0.078

> <Negative vol penalty>
0.000

$$$$

  -OEChem-04042322463D

 85 93  0     1  0  0  0  0  0999 V2000
  -18.1070  -30.4064   23.8391 C   0  0  0  0  0  0  0  0  0  0  0  0
  -19.1481  -29.5507   24.1844 C   0  0  0  0  0  0  0  0  0  0  0  0
  -29.4352  -23.5879   21.0435 C   0  0  0  0  0  0  0  0  0  0  0  0
  -27.2224  -23.4060   20.0908 C   0  0  0  0  0  0  0  0  0  0  0  0
  -17.0900  -29.9603   22.9960 C   0  0  0  0  0  0  0  0  0  0  0  0
  -19.1723  -28.2479   23.6876 C   0  0  0  0  0  0  0  0  0  0  0  0
  -23.7552  -23.1496   21.6091 C   0  0  0  0  0  0  0  0  0  0  0  0
  -25.6983  -12.6747   19.4168 C   0  0  0  0  0  0  0  0  0  0  0  0
  -29.4631  -24.9443   20.7198 C   0  0  0  0  0  0  0  0  0  0  0  0
  -27.2503  -24.7625   19.7672 C   0  0  0  0  0  0  0  0  0  0  0  0
  -24.0476  -21.8058   21.8379 C   0  0  0  0  0  0  0  0  0  0  0  0
  -26.8094  -27.7109   21.3589 C   0  0  0  0  0  0  0  0  0  0  0  0
  -24.9731  -11.5508   19.8123 C   0  0  0  0  0  0  0  0  0  0  0  0
  -25.6718  -28.4667   21.6423 C   0  0  0  0  0  0  0  0  0  0  0  0
  -22.2788  -21.1698   20.3259 C   0  0  0  0  0  0  0  0  0  0  0  0
  -24.6483  -12.5294   21.9973 C   0  0  0  0  0  0  0  0  0  0  0  0
  -25.4520  -29.0142   19.2994 C   0  0  0  0  0  0  0  0  0  0  0  0
  -28.3149  -22.8187   20.7289 C   0  0  0  0  0  0  0  0  0  0  0  0
  -27.8188  -20.8373   22.2572 C   0  0  0  0  0  0  0  0  0  0  0  0
  -17.1068  -28.6546   22.4810 C   0  0  0  0  0  0  0  0  0  0  0  0
  -22.7136  -23.5142   20.7439 C   0  0  0  0  0  0  0  0  0  0  0  0
  -18.1538  -27.7836   22.8380 C   0  0  0  0  0  0  0  0  0  0  0  0
  -21.9769  -22.5190   20.0858 C   0  0  0  0  0  0  0  0  0  0  0  0
  -25.3736  -13.6533   21.6017 C   0  0  0  0  0  0  0  0  0  0  0  0
  -25.8986  -13.7259   20.3115 C   0  0  0  0  0  0  0  0  0  0  0  0
  -28.3707  -25.5317   20.0817 C   0  0  0  0  0  0  0  0  0  0  0  0
  -23.3075  -20.8156   21.1985 C   0  0  0  0  0  0  0  0  0  0  0  0
  -27.2684  -27.6068   20.0458 C   0  0  0  0  0  0  0  0  0  0  0  0
  -24.4481  -11.4781   21.1026 C   0  0  0  0  0  0  0  0  0  0  0  0
  -24.9931  -29.1183   20.6125 C   0  0  0  0  0  0  0  0  0  0  0  0
  -26.5897  -28.2584   19.0161 C   0  0  0  0  0  0  0  0  0  0  0  0
  -28.2857  -21.4172   21.0625 C   0  0  0  0  0  0  0  0  0  0  0  0
  -28.0052  -19.4881   22.0797 C   0  0  0  0  0  0  0  0  0  0  0  0
  -27.2660  -21.4622   23.4232 C   0  0  0  0  0  0  0  0  0  0  0  0
  -19.9789  -25.1014   21.0694 C   0  0  0  0  0  0  0  0  0  0  0  0
  -19.8612  -24.7826   17.8434 C   0  0  0  0  0  0  0  0  0  0  0  0
  -24.0651  -16.6667   21.9436 C   0  0  0  0  0  0  0  0  0  0  0  0
  -20.8367  -23.0574   15.0651 C   0  0  0  0  0  0  0  0  0  0  0  0
  -27.6680  -14.8944   18.9513 C   0  0  0  0  0  0  0  0  0  0  0  0
  -15.9606  -28.2025   21.6112 C   0  0  0  0  0  0  0  0  0  0  0  0
  -22.4283  -24.9685   20.4871 C   0  0  0  0  0  0  0  0  0  0  0  0
  -20.8618  -22.8580   19.1319 C   0  0  0  0  0  0  0  0  0  0  0  0
  -16.2572  -26.9268   20.8271 C   0  0  0  0  0  0  0  0  0  0  0  0
  -30.5367  -16.9551   18.5025 C   0  0  0  0  0  0  0  0  0  0  0  0
  -16.8907  -25.8773   21.7350 C   0  0  0  0  0  0  0  0  0  0  0  0
  -30.1684  -18.2520   19.2268 C   0  0  0  0  0  0  0  0  0  0  0  0
  -29.3305  -16.3368   17.7978 C   0  0  0  0  0  0  0  0  0  0  0  0
  -27.7834  -17.4290   19.3735 C   0  0  0  0  0  0  0  0  0  0  0  0
  -18.2282  -26.3712   22.2995 C   0  0  1  0  0  0  0  0  0  0  0  0
  -21.0104  -25.2193   19.9831 C   0  0  1  0  0  0  0  0  0  0  0  0
  -28.9520  -18.0545   20.1525 C   0  0  2  0  0  0  0  0  0  0  0  0
  -20.5481  -23.0112   12.5727 C   0  0  0  0  0  0  0  0  0  0  0  0
  -17.0832  -23.5692   18.1900 C   0  0  0  0  0  0  0  0  0  0  0  0
  -17.2500  -22.6936   15.8504 C   0  0  0  0  0  0  0  0  0  0  0  0
  -17.2973  -25.1528   16.2663 C   0  0  0  0  0  0  0  0  0  0  0  0
  -23.4861  -15.1398   23.8421 C   0  0  0  0  0  0  0  0  0  0  0  0
  -23.7280  -23.4914   14.6058 C   0  0  0  0  0  0  0  0  0  0  0  0
  -25.5730  -14.7695   22.5858 C   0  0  0  0  0  0  0  0  0  0  0  0
  -22.7623  -17.3980   22.2505 C   0  0  0  0  0  0  0  0  0  0  0  0
  -22.5066  -18.5798   21.3237 C   0  0  0  0  0  0  0  0  0  1  0  0
  -19.3068  -23.7513   16.8906 C   0  0  1  0  0  0  0  0  0  0  0  0
  -21.3888  -23.5258   13.7308 C   0  0  2  0  0  0  0  0  0  0  0  0
  -17.7540  -23.7850   16.8187 C   0  0  0  0  0  0  0  0  0  0  0  0
  -28.7351  -20.5107   20.1905 N   0  0  0  0  0  0  0  0  0  0  0  0
  -28.5514  -19.3475   20.8380 N   0  0  0  0  0  0  0  0  0  0  0  0
  -20.6170  -24.2940   18.9186 N   0  0  0  0  0  0  0  0  0  0  0  0
  -28.2187  -16.1757   18.7373 N   0  0  0  0  0  0  0  0  0  0  0  0
  -27.7535  -18.4202   22.8663 N   0  0  0  0  0  0  0  0  0  0  0  0
  -27.1452  -22.8585   23.4391 N   0  0  0  0  0  0  0  0  0  0  0  0
  -26.6378  -14.8591   19.8904 N   0  0  0  0  0  0  0  0  0  0  0  0
  -19.2691  -26.2644   21.2998 N   0  0  0  0  0  0  0  0  0  0  0  0
  -19.9692  -23.9798   15.6110 N   0  0  0  0  0  0  0  0  0  0  0  0
  -24.3622  -15.5688   22.7588 N   0  0  0  0  0  0  0  0  0  0  0  0
  -22.7861  -23.0403   13.5493 N   0  3  0  0  0  0  0  0  0  0  0  0
  -26.9054  -20.8033   24.4279 O   0  0  0  0  0  0  0  0  0  0  0  0
  -19.8366  -24.0339   21.6541 O   0  0  0  0  0  0  0  0  0  0  0  0
  -19.6382  -25.9782   17.6372 O   0  0  0  0  0  0  0  0  0  0  0  0
  -24.7942  -17.0441   21.0226 O   0  0  0  0  0  0  0  0  0  0  0  0
  -21.1414  -21.9794   15.5706 O   0  0  0  0  0  0  0  0  0  0  0  0
  -28.0983  -13.8972   18.3661 O   0  0  0  0  0  0  0  0  0  0  0  0
  -28.3974  -26.8554   19.7660 O   0  0  0  0  0  0  0  0  0  0  0  0
  -23.5903  -19.5031   21.4206 O   0  0  0  0  0  0  0  0  0  1  0  0
  -23.7511  -10.3990   21.4821 F   0  0  0  0  0  0  0  0  0  0  0  0
  -23.8999  -29.8428   20.8846 F   0  0  0  0  0  0  0  0  0  0  0  0
  -27.0251  -28.1611   17.7524 F   0  0  0  0  0  0  0  0  0  0  0  0
  1  2  1  0  0  0  0
  1  5  2  0  0  0  0
  2  6  2  0  0  0  0
  3  9  2  0  0  0  0
  3 18  1  0  0  0  0
  4 10  1  0  0  0  0
  4 18  2  0  0  0  0
  5 20  1  0  0  0  0
  6 22  1  0  0  0  0
  7 11  2  0  0  0  0
  7 21  1  0  0  0  0
  8 13  2  0  0  0  0
  8 25  1  0  0  0  0
  9 26  1  0  0  0  0
 10 26  2  0  0  0  0
 11 27  1  0  0  0  0
 12 14  2  0  0  0  0
 12 28  1  0  0  0  0
 13 29  1  0  0  0  0
 14 30  1  0  0  0  0
 15 23  1  0  0  0  0
 15 27  2  0  0  0  0
 16 24  1  0  0  0  0
 16 29  2  0  0  0  0
 17 30  2  0  0  0  0
 17 31  1  0  0  0  0
 18 32  1  0  0  0  0
 19 32  1  0  0  0  0
 19 33  2  0  0  0  0
 19 34  1  0  0  0  0
 20 22  2  0  0  0  0
 20 40  1  0  0  0  0
 21 23  2  0  0  0  0
 21 41  1  0  0  0  0
 22 49  1  0  0  0  0
 23 42  1  0  0  0  0
 24 25  2  0  0  0  0
 24 58  1  0  0  0  0
 25 70  1  0  0  0  0
 26 81  1  0  0  0  0
 27 82  1  0  0  0  0
 28 31  2  0  0  0  0
 28 81  1  0  0  0  0
 29 83  1  0  0  0  0
 30 84  1  0  0  0  0
 31 85  1  0  0  0  0
 32 64  2  0  0  0  0
 33 65  1  0  0  0  0
 33 68  1  0  0  0  0
 34 69  1  0  0  0  0
 34 75  2  0  0  0  0
 35 50  1  0  0  0  0
 35 71  1  0  0  0  0
 35 76  2  0  0  0  0
 36 61  1  0  0  0  0
 36 66  1  0  0  0  0
 36 77  2  0  0  0  0
 37 59  1  0  0  0  0
 37 73  1  0  0  0  0
 37 78  2  0  0  0  0
 38 62  1  0  0  0  0
 38 72  1  0  0  0  0
 38 79  2  0  0  0  0
 39 67  1  0  0  0  0
 39 70  1  0  0  0  0
 39 80  2  0  0  0  0
 40 43  1  0  0  0  0
 41 50  1  0  0  0  0
 42 66  1  0  0  0  0
 43 45  1  0  0  0  0
 44 46  1  0  0  0  0
 44 47  1  0  0  0  0
 45 49  1  0  0  0  0
 46 51  1  0  0  0  0
 47 67  1  0  0  0  0
 48 51  1  0  0  0  0
 48 67  1  0  0  0  0
 49 71  1  0  0  0  0
 50 66  1  0  0  0  0
 51 65  1  0  0  0  0
 52 62  1  0  0  0  0
 53 63  1  0  0  0  0
 54 63  1  0  0  0  0
 55 63  1  0  0  0  0
 56 73  1  0  0  0  0
 57 74  1  0  0  0  0
 58 73  1  0  0  0  0
 59 60  1  0  0  0  0
 60 82  1  0  0  0  0
 61 63  1  0  0  0  0
 61 72  1  0  0  0  0
 62 74  1  0  0  0  0
 64 65  1  0  0  0  0
M  CHG  1  74   1
M  ISO  4  39 100  60 101  70 100  82 101
M  END
> <Batch ID>
0054

> <Smiles>
CNC(C)C(=O)NC(C(=O)N1Cc2cc([101O:1][101CH2:1]CC(=O)N(C)Cc3cc(F)ccc3[100NH:0][100C:0](=O)N3CCCC(n4nc(-c5ccc(Oc6ccc(F)cc6F)cc5)c(C(N)=O)c4N)C3)ccc2CC1C(=O)NC1CCCc2ccccc21)C(C)(C)C

> <Shape>
0.201

> <Color>
0.089

> <Negative vol penalty>
0.000

$$$$

  -OEChem-04042322463D

 87 95  0     1  0  0  0  0  0999 V2000
  -28.4496  -31.2091   28.1766 C   0  0  0  0  0  0  0  0  0  0  0  0
  -28.4416  -30.2407   27.1779 C   0  0  0  0  0  0  0  0  0  0  0  0
  -29.3787  -20.3720   18.9416 C   0  0  0  0  0  0  0  0  0  0  0  0
  -23.2058  -10.1697   21.2141 C   0  0  0  0  0  0  0  0  0  0  0  0
  -24.7734   -8.5922   22.1583 C   0  0  0  0  0  0  0  0  0  0  0  0
  -27.3094  -31.9765   28.4111 C   0  0  0  0  0  0  0  0  0  0  0  0
  -27.2929  -30.0383   26.4137 C   0  0  0  0  0  0  0  0  0  0  0  0
  -27.0347  -28.4829   20.4960 C   0  0  0  0  0  0  0  0  0  0  0  0
  -28.2867  -20.9880   19.5530 C   0  0  0  0  0  0  0  0  0  0  0  0
  -29.5568  -18.9934   19.0574 C   0  0  0  0  0  0  0  0  0  0  0  0
  -22.2719   -9.1461   21.0544 C   0  0  0  0  0  0  0  0  0  0  0  0
  -23.8394   -7.5686   21.9987 C   0  0  0  0  0  0  0  0  0  0  0  0
  -26.8426  -27.2598   19.8551 C   0  0  0  0  0  0  0  0  0  0  0  0
  -21.7364   -4.6080   22.1725 C   0  0  0  0  0  0  0  0  0  0  0  0
  -21.5532   -3.7244   23.2361 C   0  0  0  0  0  0  0  0  0  0  0  0
  -24.4898  -27.7478   19.6420 C   0  0  0  0  0  0  0  0  0  0  0  0
  -20.8890   -5.5662   24.6517 C   0  0  0  0  0  0  0  0  0  0  0  0
  -24.4566   -9.8928   21.7660 C   0  0  0  0  0  0  0  0  0  0  0  0
  -25.5861  -11.7839   23.0527 C   0  0  0  0  0  0  0  0  0  0  0  0
  -26.1493  -31.7900   27.6430 C   0  0  0  0  0  0  0  0  0  0  0  0
  -25.9522  -29.3444   20.7248 C   0  0  0  0  0  0  0  0  0  0  0  0
  -26.1357  -30.8030   26.6390 C   0  0  0  0  0  0  0  0  0  0  0  0
  -24.6713  -28.9825   20.2837 C   0  0  0  0  0  0  0  0  0  0  0  0
  -27.3729  -20.2253   20.2802 C   0  0  0  0  0  0  0  0  0  0  0  0
  -27.5510  -18.8467   20.3961 C   0  0  0  0  0  0  0  0  0  0  0  0
  -28.6430  -18.2308   19.7847 C   0  0  0  0  0  0  0  0  0  0  0  0
  -22.5886   -7.8455   21.4467 C   0  0  0  0  0  0  0  0  0  0  0  0
  -25.5696  -26.8907   19.4306 C   0  0  0  0  0  0  0  0  0  0  0  0
  -21.4959   -5.9707   22.3484 C   0  0  0  0  0  0  0  0  0  0  0  0
  -21.1295   -4.2035   24.4757 C   0  0  0  0  0  0  0  0  0  0  0  0
  -21.0722   -6.4498   23.5880 C   0  0  0  0  0  0  0  0  0  0  0  0
  -25.4220  -10.9496   21.9307 C   0  0  0  0  0  0  0  0  0  0  0  0
  -26.6266  -12.6140   22.7142 C   0  0  0  0  0  0  0  0  0  0  0  0
  -24.8626  -11.8065   24.2904 C   0  0  0  0  0  0  0  0  0  0  0  0
  -24.5495  -30.5459   23.3118 C   0  0  0  0  0  0  0  0  0  0  0  0
  -22.8505  -32.2384   21.1274 C   0  0  0  0  0  0  0  0  0  0  0  0
  -25.1741  -22.9894   19.9737 C   0  0  0  0  0  0  0  0  0  0  0  0
  -21.6729  -32.4877   17.9340 C   0  0  0  0  0  0  0  0  0  0  0  0
  -28.8826  -15.9824   18.7443 C   0  0  0  0  0  0  0  0  0  0  0  0
  -24.9258  -32.6111   27.9648 C   0  0  0  0  0  0  0  0  0  0  0  0
  -26.1806  -30.6721   21.3935 C   0  0  0  0  0  0  0  0  0  0  0  0
  -23.4794  -29.8805   20.4871 C   0  0  0  0  0  0  0  0  0  0  0  0
  -23.8714  -32.5914   26.8611 C   0  0  0  0  0  0  0  0  0  0  0  0
  -29.8853  -12.4339   18.8615 C   0  0  0  0  0  0  0  0  0  0  0  0
  -23.6371  -31.1657   26.3721 C   0  0  0  0  0  0  0  0  0  0  0  0
  -28.7854  -11.7972   19.7093 C   0  0  0  0  0  0  0  0  0  0  0  0
  -29.3743  -13.6451   18.0869 C   0  0  0  0  0  0  0  0  0  0  0  0
  -27.6253  -14.0405   19.7942 C   0  0  0  0  0  0  0  0  0  0  0  0
  -24.9169  -30.5707   25.7725 C   0  0  1  0  0  0  0  0  0  0  0  0
  -24.9191  -31.2437   22.0334 C   0  0  1  0  0  0  0  0  0  0  0  0
  -28.1197  -12.8433   20.6201 C   0  0  1  0  0  0  0  0  0  0  0  0
  -26.7694  -18.1748   22.6818 C   0  0  0  0  0  0  0  0  0  0  0  0
  -20.2818  -33.9644   16.4571 C   0  0  0  0  0  0  0  0  0  0  0  0
  -20.3187  -31.1964   22.4743 C   0  0  0  0  0  0  0  0  0  0  0  0
  -19.0333  -31.8980   20.4436 C   0  0  0  0  0  0  0  0  0  0  0  0
  -20.2313  -33.6062   21.8110 C   0  0  0  0  0  0  0  0  0  0  0  0
  -29.2602  -16.2519   21.1845 C   0  0  0  0  0  0  0  0  0  0  0  0
  -24.7453  -20.7439   18.9515 C   0  0  0  0  0  0  0  0  0  0  0  0
  -23.9360  -32.9705   16.0889 C   0  0  0  0  0  0  0  0  0  0  0  0
  -26.5677  -18.0326   21.1773 C   0  0  0  0  0  0  0  0  0  0  0  0
  -26.2064  -20.9136   20.9282 C   0  0  0  0  0  0  0  0  0  0  0  0
  -24.2704  -23.5593   18.8852 C   0  0  0  0  0  0  0  0  0  0  0  0
  -24.1076  -25.0715   18.9734 C   0  0  0  0  0  0  0  0  0  1  0  0
  -21.5653  -32.0162   20.3672 C   0  0  1  0  0  0  0  0  0  0  0  0
  -21.6853  -33.6373   16.9427 C   0  0  2  0  0  0  0  0  0  0  0  0
  -20.3091  -32.1612   21.2718 C   0  0  0  0  0  0  0  0  0  0  0  0
  -26.2889  -11.2247   20.9525 N   0  0  0  0  0  0  0  0  0  0  0  0
  -27.0076  -12.2412   21.4588 N   0  0  0  0  0  0  0  0  0  0  0  0
  -23.7528  -31.1655   21.1516 N   0  0  0  0  0  0  0  0  0  0  0  0
  -28.7059  -14.6023   18.9692 N   0  0  0  0  0  0  0  0  0  0  0  0
  -27.2438  -13.6192   23.3708 N   0  0  0  0  0  0  0  0  0  0  0  0
  -23.8231  -10.8843   24.4736 N   0  0  0  0  0  0  0  0  0  0  0  0
  -25.1378  -31.0873   24.4388 N   0  0  0  0  0  0  0  0  0  0  0  0
  -21.5962  -32.9364   19.2355 N   0  0  0  0  0  0  0  0  0  0  0  0
  -28.8469  -16.8053   19.8908 N   0  0  0  0  0  0  0  0  0  0  0  0
  -25.3671  -21.6036   19.9512 N   0  0  0  0  0  0  0  0  0  0  0  0
  -22.5234  -33.2921   15.7597 N   0  3  0  0  0  0  0  0  0  0  0  0
  -25.1192  -12.6310   25.2002 O   0  0  0  0  0  0  0  0  0  0  0  0
  -23.7857  -29.5881   23.2782 O   0  0  0  0  0  0  0  0  0  0  0  0
  -23.0498  -33.3264   21.6735 O   0  0  0  0  0  0  0  0  0  0  0  0
  -25.6918  -23.7324   20.8116 O   0  0  0  0  0  0  0  0  0  0  0  0
  -21.7223  -31.3093   17.5882 O   0  0  0  0  0  0  0  0  0  0  0  0
  -29.0860  -16.4382   17.6128 O   0  0  0  0  0  0  0  0  0  0  0  0
  -21.6774   -6.8465   21.2912 O   0  0  0  0  0  0  0  0  0  0  0  0
  -25.3792  -25.6971   18.8055 O   0  0  0  0  0  0  0  0  0  1  0  0
  -20.9522   -3.3547   25.4966 F   0  0  0  0  0  0  0  0  0  0  0  0
  -20.8385   -7.7577   23.7628 F   0  0  0  0  0  0  0  0  0  0  0  0
  1  2  1  0  0  0  0
  1  6  2  0  0  0  0
  2  7  2  0  0  0  0
  3  9  1  0  0  0  0
  3 10  2  0  0  0  0
  4 11  2  0  0  0  0
  4 18  1  0  0  0  0
  5 12  1  0  0  0  0
  5 18  2  0  0  0  0
  6 20  1  0  0  0  0
  7 22  1  0  0  0  0
  8 13  2  0  0  0  0
  8 21  1  0  0  0  0
  9 24  2  0  0  0  0
 10 26  1  0  0  0  0
 11 27  1  0  0  0  0
 12 27  2  0  0  0  0
 13 28  1  0  0  0  0
 14 15  2  0  0  0  0
 14 29  1  0  0  0  0
 15 30  1  0  0  0  0
 16 23  1  0  0  0  0
 16 28  2  0  0  0  0
 17 30  2  0  0  0  0
 17 31  1  0  0  0  0
 18 32  1  0  0  0  0
 19 32  1  0  0  0  0
 19 33  2  0  0  0  0
 19 34  1  0  0  0  0
 20 22  2  0  0  0  0
 20 40  1  0  0  0  0
 21 23  2  0  0  0  0
 21 41  1  0  0  0  0
 22 49  1  0  0  0  0
 23 42  1  0  0  0  0
 24 25  1  0  0  0  0
 24 61  1  0  0  0  0
 25 26  2  0  0  0  0
 25 60  1  0  0  0  0
 26 75  1  0  0  0  0
 27 84  1  0  0  0  0
 28 85  1  0  0  0  0
 29 31  2  0  0  0  0
 29 84  1  0  0  0  0
 30 86  1  0  0  0  0
 31 87  1  0  0  0  0
 32 67  2  0  0  0  0
 33 68  1  0  0  0  0
 33 71  1  0  0  0  0
 34 72  1  0  0  0  0
 34 78  2  0  0  0  0
 35 50  1  0  0  0  0
 35 73  1  0  0  0  0
 35 79  2  0  0  0  0
 36 64  1  0  0  0  0
 36 69  1  0  0  0  0
 36 80  2  0  0  0  0
 37 62  1  0  0  0  0
 37 76  1  0  0  0  0
 37 81  2  0  0  0  0
 38 65  1  0  0  0  0
 38 74  1  0  0  0  0
 38 82  2  0  0  0  0
 39 70  1  0  0  0  0
 39 75  1  0  0  0  0
 39 83  2  0  0  0  0
 40 43  1  0  0  0  0
 41 50  1  0  0  0  0
 42 69  1  0  0  0  0
 43 45  1  0  0  0  0
 44 46  1  0  0  0  0
 44 47  1  0  0  0  0
 45 49  1  0  0  0  0
 46 51  1  0  0  0  0
 47 70  1  0  0  0  0
 48 51  1  0  0  0  0
 48 70  1  0  0  0  0
 49 73  1  0  0  0  0
 50 69  1  0  0  0  0
 51 68  1  0  0  0  0
 52 60  1  0  0  0  0
 53 65  1  0  0  0  0
 54 66  1  0  0  0  0
 55 66  1  0  0  0  0
 56 66  1  0  0  0  0
 57 75  1  0  0  0  0
 58 76  1  0  0  0  0
 59 77  1  0  0  0  0
 61 76  1  0  0  0  0
 62 63  1  0  0  0  0
 63 85  1  0  0  0  0
 64 66  1  0  0  0  0
 64 74  1  0  0  0  0
 65 77  1  0  0  0  0
 67 68  1  0  0  0  0
M  CHG  1  77   1
M  ISO  4  39 100  63 101  75 100  85 101
M  END
> <Batch ID>
0054

> <Smiles>
CCc1c(CN(C)C(=O)C[101CH2:1][101O:1]c2ccc3c(c2)CN(C(=O)C(NC(=O)C(C)NC)C(C)(C)C)C(C(=O)NC2CCCc4ccccc42)C3)cccc1[100N:0](C)[100C:0](=O)N1CCCC(n2nc(-c3ccc(Oc4ccc(F)cc4F)cc3)c(C(N)=O)c2N)C1

> <Shape>
0.285

> <Color>
0.127

> <Negative vol penalty>
0.000

$$$$

  -OEChem-04042322463D

 85 94  0     1  0  0  0  0  0999 V2000
  -18.2318  -25.3500   20.0916 C   0  0  0  0  0  0  0  0  0  0  0  0
  -19.6096  -25.1971   19.9749 C   0  0  0  0  0  0  0  0  0  0  0  0
  -23.8845   -9.3749   22.4488 C   0  0  0  0  0  0  0  0  0  0  0  0
  -23.2981   -9.8649   20.1568 C   0  0  0  0  0  0  0  0  0  0  0  0
  -17.7096  -26.3818   20.8705 C   0  0  0  0  0  0  0  0  0  0  0  0
  -20.4661  -26.0766   20.6362 C   0  0  0  0  0  0  0  0  0  0  0  0
  -24.2851  -23.6935   22.9559 C   0  0  0  0  0  0  0  0  0  0  0  0
  -30.0848  -17.7333   23.1660 C   0  0  0  0  0  0  0  0  0  0  0  0
  -31.8050  -18.0818   21.5057 C   0  0  0  0  0  0  0  0  0  0  0  0
  -29.6753  -19.0587   23.0199 C   0  0  0  0  0  0  0  0  0  0  0  0
  -31.3955  -19.4072   21.3596 C   0  0  0  0  0  0  0  0  0  0  0  0
  -23.1329   -8.2013   22.3902 C   0  0  0  0  0  0  0  0  0  0  0  0
  -22.5465   -8.6913   20.0982 C   0  0  0  0  0  0  0  0  0  0  0  0
  -25.3479  -23.2686   22.1598 C   0  0  0  0  0  0  0  0  0  0  0  0
  -19.8746   -7.3194   22.5645 C   0  0  0  0  0  0  0  0  0  0  0  0
  -19.0323   -7.0358   23.6395 C   0  0  0  0  0  0  0  0  0  0  0  0
  -26.6242  -25.1977   22.8445 C   0  0  0  0  0  0  0  0  0  0  0  0
  -20.2303   -4.9752   24.0344 C   0  0  0  0  0  0  0  0  0  0  0  0
  -23.9670  -10.2067   21.3321 C   0  0  0  0  0  0  0  0  0  0  0  0
  -24.5526  -12.5079   22.2644 C   0  0  0  0  0  0  0  0  0  0  0  0
  -18.5601  -27.2685   21.5494 C   0  0  0  0  0  0  0  0  0  0  0  0
  -24.3800  -24.8814   23.6951 C   0  0  0  0  0  0  0  0  0  0  0  0
  -19.9548  -27.1220   21.4238 C   0  0  0  0  0  0  0  0  0  0  0  0
  -25.5622  -25.6341   23.6513 C   0  0  0  0  0  0  0  0  0  0  0  0
  -31.1496  -17.2449   22.4089 C   0  0  0  0  0  0  0  0  0  0  0  0
  -30.3307  -19.8956   22.1168 C   0  0  0  0  0  0  0  0  0  0  0  0
  -22.4639   -7.8595   21.2149 C   0  0  0  0  0  0  0  0  0  0  0  0
  -26.5165  -24.0222   22.1018 C   0  0  0  0  0  0  0  0  0  0  0  0
  -20.8947   -6.4309   22.2243 C   0  0  0  0  0  0  0  0  0  0  0  0
  -19.2102   -5.8637   24.3745 C   0  0  0  0  0  0  0  0  0  0  0  0
  -21.0725   -5.2588   22.9594 C   0  0  0  0  0  0  0  0  0  0  0  0
  -24.7428  -11.4194   21.3922 C   0  0  0  0  0  0  0  0  0  0  0  0
  -25.5407  -13.3986   21.9226 C   0  0  0  0  0  0  0  0  0  0  0  0
  -30.0546  -21.9373   20.7369 C   0  0  0  0  0  0  0  0  0  0  0  0
  -23.5705  -12.6970   23.2918 C   0  0  0  0  0  0  0  0  0  0  0  0
  -22.8083  -27.6442   23.7124 C   0  0  0  0  0  0  0  0  0  0  0  0
  -24.6644  -28.2372   26.3058 C   0  0  0  0  0  0  0  0  0  0  0  0
  -27.0652  -28.3681   28.7278 C   0  0  0  0  0  0  0  0  0  0  0  0
  -30.8474  -14.5079   20.5981 C   0  0  0  0  0  0  0  0  0  0  0  0
  -17.9492  -28.3973   22.3415 C   0  0  0  0  0  0  0  0  0  0  0  0
  -23.2348  -25.3121   24.5699 C   0  0  0  0  0  0  0  0  0  0  0  0
  -25.7221  -26.9063   24.4416 C   0  0  0  0  0  0  0  0  0  0  0  0
  -29.8742  -23.4472   20.7504 C   0  0  0  0  0  0  0  0  0  0  0  0
  -18.9248  -29.0582   23.3119 C   0  0  0  0  0  0  0  0  0  0  0  0
  -28.6906  -13.4623   17.9652 C   0  0  0  0  0  0  0  0  0  0  0  0
  -20.2556  -29.3402   22.6218 C   0  0  0  0  0  0  0  0  0  0  0  0
  -27.4590  -12.9220   18.6941 C   0  0  0  0  0  0  0  0  0  0  0  0
  -29.1648  -23.3823   23.1185 C   0  0  0  0  0  0  0  0  0  0  0  0
  -29.9786  -13.1441   18.7214 C   0  0  0  0  0  0  0  0  0  0  0  0
  -29.1313  -21.8626   23.0680 C   0  0  0  0  0  0  0  0  0  0  0  0
  -28.7598  -13.0350   20.8606 C   0  0  0  0  0  0  0  0  0  0  0  0
  -20.9164  -28.0408   22.1458 C   0  0  1  0  0  0  0  0  0  0  0  0
  -23.2481  -26.8059   24.8792 C   0  0  1  0  0  0  0  0  0  0  0  0
  -27.4320  -13.3799   20.1647 C   0  0  2  0  0  0  0  0  0  0  0  0
  -28.8657  -23.9652   21.7535 C   0  0  2  0  0  0  0  0  0  1  0  0
  -27.9882  -29.8780   30.5070 C   0  0  0  0  0  0  0  0  0  0  0  0
  -26.0751  -29.8926   24.1658 C   0  0  0  0  0  0  0  0  0  0  0  0
  -27.6534  -30.7031   25.9322 C   0  0  0  0  0  0  0  0  0  0  0  0
  -25.2179  -31.2126   26.1093 C   0  0  0  0  0  0  0  0  0  0  0  0
  -26.4016  -26.4391   30.8720 C   0  0  0  0  0  0  0  0  0  0  0  0
  -31.5874  -15.8278   22.5652 C   0  0  0  0  0  0  0  0  0  0  0  0
  -26.0244  -28.8535   26.5288 C   0  0  1  0  0  0  0  0  0  0  0  0
  -26.9992  -28.7668   30.1910 C   0  0  2  0  0  0  0  0  0  0  0  0
  -26.2396  -30.1376   25.6790 C   0  0  0  0  0  0  0  0  0  0  0  0
  -25.7709  -11.6000   20.5588 N   0  0  0  0  0  0  0  0  0  0  0  0
  -26.2355  -12.8124   20.9058 N   0  0  0  0  0  0  0  0  0  0  0  0
  -29.9058  -21.2709   21.9648 N   0  0  0  0  0  0  0  0  0  0  0  0
  -24.5719  -27.2889   25.2771 N   0  0  0  0  0  0  0  0  0  0  0  0
  -29.8885  -13.6056   20.1088 N   0  0  0  0  0  0  0  0  0  0  0  0
  -25.8743  -14.6182   22.3955 N   0  0  0  0  0  0  0  0  0  0  0  0
  -22.3567  -13.3095   22.9512 N   0  0  0  0  0  0  0  0  0  0  0  0
  -21.5365  -27.3525   23.2576 N   0  0  0  0  0  0  0  0  0  0  0  0
  -26.1473  -29.0615   27.9676 N   0  0  0  0  0  0  0  0  0  0  0  0
  -30.6849  -14.8994   21.9213 N   0  0  0  0  0  0  0  0  0  0  0  0
  -27.3119  -27.5979   31.0610 N   0  3  0  0  0  0  0  0  0  0  0  0
  -30.3733  -21.4048   19.6697 O   0  0  0  0  0  0  0  0  0  0  0  0
  -23.7701  -12.3485   24.4801 O   0  0  0  0  0  0  0  0  0  0  0  0
  -23.5662  -28.4939   23.2592 O   0  0  0  0  0  0  0  0  0  0  0  0
  -23.7206  -28.5791   27.0227 O   0  0  0  0  0  0  0  0  0  0  0  0
  -27.8548  -27.5284   28.3011 O   0  0  0  0  0  0  0  0  0  0  0  0
  -31.7761  -14.9372   19.9052 O   0  0  0  0  0  0  0  0  0  0  0  0
  -21.7306   -6.7143   21.1573 O   0  0  0  0  0  0  0  0  0  0  0  0
  -27.5551  -23.6101   21.3250 O   0  0  0  0  0  0  0  0  0  1  0  0
  -18.4022   -5.5922   25.4078 F   0  0  0  0  0  0  0  0  0  0  0  0
  -22.0516   -4.4020   22.6381 F   0  0  0  0  0  0  0  0  0  0  0  0
  1  2  1  0  0  0  0
  1  5  2  0  0  0  0
  2  6  2  0  0  0  0
  3 12  2  0  0  0  0
  3 19  1  0  0  0  0
  4 13  1  0  0  0  0
  4 19  2  0  0  0  0
  5 21  1  0  0  0  0
  6 23  1  0  0  0  0
  7 14  2  0  0  0  0
  7 22  1  0  0  0  0
  8 10  2  0  0  0  0
  8 25  1  0  0  0  0
  9 11  1  0  0  0  0
  9 25  2  0  0  0  0
 10 26  1  0  0  0  0
 11 26  2  0  0  0  0
 12 27  1  0  0  0  0
 13 27  2  0  0  0  0
 14 28  1  0  0  0  0
 15 16  2  0  0  0  0
 15 29  1  0  0  0  0
 16 30  1  0  0  0  0
 17 24  1  0  0  0  0
 17 28  2  0  0  0  0
 18 30  2  0  0  0  0
 18 31  1  0  0  0  0
 19 32  1  0  0  0  0
 20 32  1  0  0  0  0
 20 33  2  0  0  0  0
 20 35  1  0  0  0  0
 21 23  2  0  0  0  0
 21 40  1  0  0  0  0
 22 24  2  0  0  0  0
 22 41  1  0  0  0  0
 23 52  1  0  0  0  0
 24 42  1  0  0  0  0
 25 61  1  0  0  0  0
 26 67  1  0  0  0  0
 27 82  1  0  0  0  0
 28 83  1  0  0  0  0
 29 31  2  0  0  0  0
 29 82  1  0  0  0  0
 30 84  1  0  0  0  0
 31 85  1  0  0  0  0
 32 65  2  0  0  0  0
 33 66  1  0  0  0  0
 33 70  1  0  0  0  0
 34 43  1  0  0  0  0
 34 67  1  0  0  0  0
 34 76  2  0  0  0  0
 35 71  1  0  0  0  0
 35 77  2  0  0  0  0
 36 53  1  0  0  0  0
 36 72  1  0  0  0  0
 36 78  2  0  0  0  0
 37 62  1  0  0  0  0
 37 68  1  0  0  0  0
 37 79  2  0  0  0  0
 38 63  1  0  0  0  0
 38 73  1  0  0  0  0
 38 80  2  0  0  0  0
 39 69  1  0  0  0  0
 39 74  1  0  0  0  0
 39 81  2  0  0  0  0
 40 44  1  0  0  0  0
 41 53  1  0  0  0  0
 42 68  1  0  0  0  0
 43 55  1  0  0  0  0
 44 46  1  0  0  0  0
 45 47  1  0  0  0  0
 45 49  1  0  0  0  0
 46 52  1  0  0  0  0
 47 54  1  0  0  0  0
 48 50  1  0  0  0  0
 48 55  1  0  0  0  0
 49 69  1  0  0  0  0
 50 67  1  0  0  0  0
 51 54  1  0  0  0  0
 51 69  1  0  0  0  0
 52 72  1  0  0  0  0
 53 68  1  0  0  0  0
 54 66  1  0  0  0  0
 55 83  1  0  0  0  0
 56 63  1  0  0  0  0
 57 64  1  0  0  0  0
 58 64  1  0  0  0  0
 59 64  1  0  0  0  0
 60 75  1  0  0  0  0
 61 74  1  0  0  0  0
 62 64  1  0  0  0  0
 62 73  1  0  0  0  0
 63 75  1  0  0  0  0
 65 66  1  0  0  0  0
M  CHG  1  75   1
M  ISO  4  39 100  55 101  74 100  83 101
M  END
> <Batch ID>
0054

> <Smiles>
CNC(C)C(=O)NC(C(=O)N1Cc2cc([101O:1][101CH:1]3CCN(c4ccc(C[100NH:0][100C:0](=O)N5CCCC(n6nc(-c7ccc(Oc8ccc(F)cc8F)cc7)c(C(N)=O)c6N)C5)cc4)C(=O)C3)ccc2CC1C(=O)NC1CCCc2ccccc21)C(C)(C)C

> <Shape>
0.263

> <Color>
0.150

> <Negative vol penalty>
0.000

$$$$

  -OEChem-04042322463D

 89 98  0     1  0  0  0  0  0999 V2000
  -20.0125  -10.0117   20.0005 C   0  0  0  0  0  0  0  0  0  0  0  0
  -20.0830  -11.2652   20.5999 C   0  0  0  0  0  0  0  0  0  0  0  0
  -22.2946  -24.4913   25.0461 C   0  0  0  0  0  0  0  0  0  0  0  0
  -24.3083  -24.3168   23.7226 C   0  0  0  0  0  0  0  0  0  0  0  0
  -21.1132   -9.1570   20.0431 C   0  0  0  0  0  0  0  0  0  0  0  0
  -21.2541  -11.6643   21.2432 C   0  0  0  0  0  0  0  0  0  0  0  0
  -24.7801  -17.5980   19.1818 C   0  0  0  0  0  0  0  0  0  0  0  0
  -24.8614  -28.6517   19.8507 C   0  0  0  0  0  0  0  0  0  0  0  0
  -25.1199  -27.2848   19.9520 C   0  0  0  0  0  0  0  0  0  0  0  0
  -22.5053  -23.2026   25.5366 C   0  0  0  0  0  0  0  0  0  0  0  0
  -24.5190  -23.0281   24.2131 C   0  0  0  0  0  0  0  0  0  0  0  0
  -25.3965  -18.8338   18.9843 C   0  0  0  0  0  0  0  0  0  0  0  0
  -22.0624  -20.0273   24.4663 C   0  0  0  0  0  0  0  0  0  0  0  0
  -20.9679  -19.1637   24.5084 C   0  0  0  0  0  0  0  0  0  0  0  0
  -27.0631  -18.2803   20.6468 C   0  0  0  0  0  0  0  0  0  0  0  0
  -27.1946  -27.7617   21.0944 C   0  0  0  0  0  0  0  0  0  0  0  0
  -21.2233  -18.9566   26.9019 C   0  0  0  0  0  0  0  0  0  0  0  0
  -23.1961  -25.0484   24.1391 C   0  0  0  0  0  0  0  0  0  0  0  0
  -21.8665  -26.8397   22.9018 C   0  0  0  0  0  0  0  0  0  0  0  0
  -22.3016   -9.5496   20.6789 C   0  0  0  0  0  0  0  0  0  0  0  0
  -25.3125  -16.6913   20.1026 C   0  0  0  0  0  0  0  0  0  0  0  0
  -22.3713  -10.8135   21.2955 C   0  0  0  0  0  0  0  0  0  0  0  0
  -26.4573  -17.0359   20.8399 C   0  0  0  0  0  0  0  0  0  0  0  0
  -25.7696  -29.5737   20.3712 C   0  0  0  0  0  0  0  0  0  0  0  0
  -26.2864  -26.8397   20.5738 C   0  0  0  0  0  0  0  0  0  0  0  0
  -26.9362  -29.1287   20.9931 C   0  0  0  0  0  0  0  0  0  0  0  0
  -23.6175  -22.4711   25.1201 C   0  0  0  0  0  0  0  0  0  0  0  0
  -26.5350  -19.1742   19.7152 C   0  0  0  0  0  0  0  0  0  0  0  0
  -22.7375  -20.3555   25.6420 C   0  0  0  0  0  0  0  0  0  0  0  0
  -20.5483  -18.6284   25.7262 C   0  0  0  0  0  0  0  0  0  0  0  0
  -22.3179  -19.8202   26.8598 C   0  0  0  0  0  0  0  0  0  0  0  0
  -22.9787  -26.3793   23.6316 C   0  0  0  0  0  0  0  0  0  0  0  0
  -22.1394  -28.1636   22.6586 C   0  0  0  0  0  0  0  0  0  0  0  0
  -27.2951  -24.8996   21.7510 C   0  0  0  0  0  0  0  0  0  0  0  0
  -26.8793  -23.4801   19.2721 C   0  0  0  0  0  0  0  0  0  0  0  0
  -20.6915  -26.1337   22.4813 C   0  0  0  0  0  0  0  0  0  0  0  0
  -25.0544  -13.3176   21.7236 C   0  0  0  0  0  0  0  0  0  0  0  0
  -28.0327  -13.8258   21.1932 C   0  0  0  0  0  0  0  0  0  0  0  0
  -31.3692  -13.5514   20.5373 C   0  0  0  0  0  0  0  0  0  0  0  0
  -27.5686  -30.9896   22.5513 C   0  0  0  0  0  0  0  0  0  0  0  0
  -23.4491   -8.5728   20.7401 C   0  0  0  0  0  0  0  0  0  0  0  0
  -24.6461  -15.3738   20.3924 C   0  0  0  0  0  0  0  0  0  0  0  0
  -26.9747  -16.0431   21.8447 C   0  0  0  0  0  0  0  0  0  0  0  0
  -27.5228  -23.4070   21.6419 C   0  0  0  0  0  0  0  0  0  0  0  0
  -25.8732  -24.4949   19.7771 C   0  0  0  0  0  0  0  0  0  0  0  0
  -24.7797   -9.2191   21.1170 C   0  0  0  0  0  0  0  0  0  0  0  0
  -24.5196  -31.9085   24.4359 C   0  0  0  0  0  0  0  0  0  0  0  0
  -24.6014  -10.1505   22.3117 C   0  0  0  0  0  0  0  0  0  0  0  0
  -23.7241  -30.6045   24.4510 C   0  0  0  0  0  0  0  0  0  0  0  0
  -26.0222  -31.6545   24.3643 C   0  0  0  0  0  0  0  0  0  0  0  0
  -25.6302  -29.4893   23.2242 C   0  0  0  0  0  0  0  0  0  0  0  0
  -23.6324  -11.2922   21.9814 C   0  0  1  0  0  0  0  0  0  0  0  0
  -25.6471  -14.2473   20.7058 C   0  0  1  0  0  0  0  0  0  0  0  0
  -24.1117  -29.7188   23.2553 C   0  0  1  0  0  0  0  0  0  0  0  0
  -25.4668  -31.0318   20.2484 C   0  0  0  0  0  0  0  0  0  0  0  0
  -33.4503  -12.4125   21.3554 C   0  0  0  0  0  0  0  0  0  0  0  0
  -28.1773  -15.7782   23.5322 C   0  0  0  0  0  0  0  0  0  0  0  0
  -30.6203  -15.2631   23.7190 C   0  0  0  0  0  0  0  0  0  0  0  0
  -28.9364  -13.4552   24.0634 C   0  0  0  0  0  0  0  0  0  0  0  0
  -29.1557  -30.2415   20.8328 C   0  0  0  0  0  0  0  0  0  0  0  0
  -31.7512  -12.1447   17.9617 C   0  0  0  0  0  0  0  0  0  0  0  0
  -28.7884  -22.0647   19.9699 C   0  0  0  0  0  0  0  0  0  0  0  0
  -28.2947  -20.6661   20.2941 C   0  0  0  0  0  0  0  0  0  1  0  0
  -29.3433  -14.3421   21.7310 C   0  0  1  0  0  0  0  0  0  0  0  0
  -32.2720  -12.3391   20.3967 C   0  0  2  0  0  0  0  0  0  0  0  0
  -29.2584  -14.7194   23.2370 C   0  0  0  0  0  0  0  0  0  0  0  0
  -23.8905  -27.3332   23.8385 N   0  0  0  0  0  0  0  0  0  0  0  0
  -23.3516  -28.4062   23.2349 N   0  0  0  0  0  0  0  0  0  0  0  0
  -26.5525  -25.4299   20.6780 N   0  0  0  0  0  0  0  0  0  0  0  0
  -27.7802  -23.0724   20.2522 N   0  0  0  0  0  0  0  0  0  0  0  0
  -26.9312  -14.6860   21.2781 N   0  0  0  0  0  0  0  0  0  0  0  0
  -26.3697  -30.7617   23.2576 N   0  0  0  0  0  0  0  0  0  0  0  0
  -21.4585  -29.1323   22.0102 N   0  0  0  0  0  0  0  0  0  0  0  0
  -20.5712  -24.7779   22.8155 N   0  0  0  0  0  0  0  0  0  0  0  0
  -24.2934  -12.3001   21.1804 N   0  0  0  0  0  0  0  0  0  0  0  0
  -30.3402  -13.3216   21.4259 N   0  0  0  0  0  0  0  0  0  0  0  0
  -27.8877  -30.0662   21.5375 N   0  0  0  0  0  0  0  0  0  0  0  0
  -32.8019  -12.2463   19.0069 N   0  3  0  0  0  0  0  0  0  0  0  0
  -27.6271  -25.4970   22.7746 O   0  0  0  0  0  0  0  0  0  0  0  0
  -26.8021  -23.0122   18.1376 O   0  0  0  0  0  0  0  0  0  0  0  0
  -19.7831  -26.6845   21.8144 O   0  0  0  0  0  0  0  0  0  0  0  0
  -25.2720  -13.5075   22.9145 O   0  0  0  0  0  0  0  0  0  0  0  0
  -27.9829  -12.6889   20.7153 O   0  0  0  0  0  0  0  0  0  0  0  0
  -31.5600  -14.5988   19.9233 O   0  0  0  0  0  0  0  0  0  0  0  0
  -28.3317  -31.9196   22.8403 O   0  0  0  0  0  0  0  0  0  0  0  0
  -23.8235  -21.2136   25.5987 O   0  0  0  0  0  0  0  0  0  0  0  0
  -27.1343  -20.3805   19.5141 O   0  0  0  0  0  0  0  0  0  1  0  0
  -19.4963  -17.8003   25.7666 F   0  0  0  0  0  0  0  0  0  0  0  0
  -22.9617  -20.1327   27.9928 F   0  0  0  0  0  0  0  0  0  0  0  0
  1  2  1  0  0  0  0
  1  5  2  0  0  0  0
  2  6  2  0  0  0  0
  3 10  2  0  0  0  0
  3 18  1  0  0  0  0
  4 11  1  0  0  0  0
  4 18  2  0  0  0  0
  5 20  1  0  0  0  0
  6 22  1  0  0  0  0
  7 12  2  0  0  0  0
  7 21  1  0  0  0  0
  8  9  2  0  0  0  0
  8 24  1  0  0  0  0
  9 25  1  0  0  0  0
 10 27  1  0  0  0  0
 11 27  2  0  0  0  0
 12 28  1  0  0  0  0
 13 14  2  0  0  0  0
 13 29  1  0  0  0  0
 14 30  1  0  0  0  0
 15 23  1  0  0  0  0
 15 28  2  0  0  0  0
 16 25  2  0  0  0  0
 16 26  1  0  0  0  0
 17 30  2  0  0  0  0
 17 31  1  0  0  0  0
 18 32  1  0  0  0  0
 19 32  1  0  0  0  0
 19 33  2  0  0  0  0
 19 36  1  0  0  0  0
 20 22  2  0  0  0  0
 20 41  1  0  0  0  0
 21 23  2  0  0  0  0
 21 42  1  0  0  0  0
 22 52  1  0  0  0  0
 23 43  1  0  0  0  0
 24 26  2  0  0  0  0
 24 55  1  0  0  0  0
 25 69  1  0  0  0  0
 26 77  1  0  0  0  0
 27 86  1  0  0  0  0
 28 87  1  0  0  0  0
 29 31  2  0  0  0  0
 29 86  1  0  0  0  0
 30 88  1  0  0  0  0
 31 89  1  0  0  0  0
 32 67  2  0  0  0  0
 33 68  1  0  0  0  0
 33 73  1  0  0  0  0
 34 44  1  0  0  0  0
 34 69  1  0  0  0  0
 34 79  2  0  0  0  0
 35 45  1  0  0  0  0
 35 70  1  0  0  0  0
 35 80  2  0  0  0  0
 36 74  1  0  0  0  0
 36 81  2  0  0  0  0
 37 53  1  0  0  0  0
 37 75  1  0  0  0  0
 37 82  2  0  0  0  0
 38 64  1  0  0  0  0
 38 71  1  0  0  0  0
 38 83  2  0  0  0  0
 39 65  1  0  0  0  0
 39 76  1  0  0  0  0
 39 84  2  0  0  0  0
 40 72  1  0  0  0  0
 40 77  1  0  0  0  0
 40 85  2  0  0  0  0
 41 46  1  0  0  0  0
 42 53  1  0  0  0  0
 43 71  1  0  0  0  0
 44 70  1  0  0  0  0
 45 69  1  0  0  0  0
 46 48  1  0  0  0  0
 47 49  1  0  0  0  0
 47 50  1  0  0  0  0
 48 52  1  0  0  0  0
 49 54  1  0  0  0  0
 50 72  1  0  0  0  0
 51 54  1  0  0  0  0
 51 72  1  0  0  0  0
 52 75  1  0  0  0  0
 53 71  1  0  0  0  0
 54 68  1  0  0  0  0
 56 65  1  0  0  0  0
 57 66  1  0  0  0  0
 58 66  1  0  0  0  0
 59 66  1  0  0  0  0
 60 77  1  0  0  0  0
 61 78  1  0  0  0  0
 62 63  1  0  0  0  0
 62 70  1  0  0  0  0
 63 87  1  0  0  0  0
 64 66  1  0  0  0  0
 64 76  1  0  0  0  0
 65 78  1  0  0  0  0
 67 68  1  0  0  0  0
M  CHG  1  78   1
M  ISO  4  40 100  63 101  77 100  87 101
M  END
> <Batch ID>
0054

> <Smiles>
CNC(C)C(=O)NC(C(=O)N1Cc2cc([101O:1][101CH2:1]CN3CC(=O)N(c4ccc(C)c([100N:0](C)[100C:0](=O)N5CCCC(n6nc(-c7ccc(Oc8ccc(F)cc8F)cc7)c(C(N)=O)c6N)C5)c4)CC3=O)ccc2CC1C(=O)NC1CCCc2ccccc21)C(C)(C)C

> <Shape>
0.243

> <Color>
0.062

> <Negative vol penalty>
0.000

$$$$

  -OEChem-04042322463D

 92101  0     1  0  0  0  0  0999 V2000
  -20.8344  -26.3572   25.9330 C   0  0  0  0  0  0  0  0  0  0  0  0
  -21.8683  -25.9288   25.1066 C   0  0  0  0  0  0  0  0  0  0  0  0
  -32.0962  -18.9279   22.4989 C   0  0  0  0  0  0  0  0  0  0  0  0
  -22.2297  -11.3693   19.9054 C   0  0  0  0  0  0  0  0  0  0  0  0
  -22.9870  -12.9476   18.2403 C   0  0  0  0  0  0  0  0  0  0  0  0
  -19.6943  -26.9366   25.3777 C   0  0  0  0  0  0  0  0  0  0  0  0
  -21.7622  -26.0786   23.7243 C   0  0  0  0  0  0  0  0  0  0  0  0
  -26.0121  -27.8694   21.6323 C   0  0  0  0  0  0  0  0  0  0  0  0
  -32.2342  -19.7371   21.3712 C   0  0  0  0  0  0  0  0  0  0  0  0
  -31.4587  -17.6915   22.3964 C   0  0  0  0  0  0  0  0  0  0  0  0
  -21.1159  -11.0743   19.1193 C   0  0  0  0  0  0  0  0  0  0  0  0
  -21.8733  -12.6525   17.4541 C   0  0  0  0  0  0  0  0  0  0  0  0
  -27.0594  -26.9680   21.4470 C   0  0  0  0  0  0  0  0  0  0  0  0
  -20.4198   -9.2101   16.3855 C   0  0  0  0  0  0  0  0  0  0  0  0
  -20.0785   -7.8675   16.2227 C   0  0  0  0  0  0  0  0  0  0  0  0
  -26.4487  -26.7455   19.1239 C   0  0  0  0  0  0  0  0  0  0  0  0
  -17.9200   -8.2952   17.2201 C   0  0  0  0  0  0  0  0  0  0  0  0
  -23.1652  -12.3060   19.4660 C   0  0  0  0  0  0  0  0  0  0  0  0
  -24.3189  -13.1320   21.5860 C   0  0  0  0  0  0  0  0  0  0  0  0
  -19.5783  -27.1024   23.9886 C   0  0  0  0  0  0  0  0  0  0  0  0
  -25.1671  -28.2079   20.5656 C   0  0  0  0  0  0  0  0  0  0  0  0
  -20.6189  -26.6596   23.1499 C   0  0  0  0  0  0  0  0  0  0  0  0
  -25.3930  -27.6534   19.2977 C   0  0  0  0  0  0  0  0  0  0  0  0
  -31.7345  -19.3099   20.1409 C   0  0  0  0  0  0  0  0  0  0  0  0
  -31.0969  -18.0735   20.0384 C   0  0  0  0  0  0  0  0  0  0  0  0
  -30.9590  -17.2643   21.1662 C   0  0  0  0  0  0  0  0  0  0  0  0
  -20.9377  -11.7159   17.8936 C   0  0  0  0  0  0  0  0  0  0  0  0
  -27.2761  -26.4037   20.1933 C   0  0  0  0  0  0  0  0  0  0  0  0
  -19.5111  -10.0953   16.9658 C   0  0  0  0  0  0  0  0  0  0  0  0
  -18.8286   -7.4100   16.6399 C   0  0  0  0  0  0  0  0  0  0  0  0
  -18.2612   -9.6378   17.3830 C   0  0  0  0  0  0  0  0  0  0  0  0
  -24.3156  -12.6116   20.2779 C   0  0  0  0  0  0  0  0  0  0  0  0
  -25.6495  -13.2402   21.9091 C   0  0  0  0  0  0  0  0  0  0  0  0
  -31.3605  -22.5277   19.5454 C   0  0  0  0  0  0  0  0  0  0  0  0
  -23.2177  -13.4859   22.4332 C   0  0  0  0  0  0  0  0  0  0  0  0
  -28.3812  -22.8074   20.7629 C   0  0  0  0  0  0  0  0  0  0  0  0
  -22.0597  -27.8892   19.9773 C   0  0  0  0  0  0  0  0  0  0  0  0
  -22.7753  -29.6438   17.3446 C   0  0  0  0  0  0  0  0  0  0  0  0
  -25.4250  -29.7612   14.8985 C   0  0  0  0  0  0  0  0  0  0  0  0
  -30.7914  -14.9611   20.2375 C   0  0  0  0  0  0  0  0  0  0  0  0
  -18.3064  -27.6911   23.4315 C   0  0  0  0  0  0  0  0  0  0  0  0
  -24.0583  -29.2023   20.7757 C   0  0  0  0  0  0  0  0  0  0  0  0
  -24.5268  -27.9994   18.1151 C   0  0  0  0  0  0  0  0  0  0  0  0
  -30.3762  -23.6825   19.4776 C   0  0  0  0  0  0  0  0  0  0  0  0
  -18.4335  -28.1552   21.9828 C   0  0  0  0  0  0  0  0  0  0  0  0
  -29.7726  -11.4749   19.5902 C   0  0  0  0  0  0  0  0  0  0  0  0
  -19.1285  -27.0904   21.1402 C   0  0  0  0  0  0  0  0  0  0  0  0
  -28.2548  -11.5273   19.7563 C   0  0  0  0  0  0  0  0  0  0  0  0
  -28.7328  -22.2404   18.3070 C   0  0  0  0  0  0  0  0  0  0  0  0
  -30.3358  -12.8066   19.1028 C   0  0  0  0  0  0  0  0  0  0  0  0
  -29.5964  -21.0193   18.5657 C   0  0  0  0  0  0  0  0  0  0  0  0
  -28.4340  -14.0213   20.1217 C   0  0  0  0  0  0  0  0  0  0  0  0
  -20.5516  -26.8275   21.6474 C   0  0  1  0  0  0  0  0  0  0  0  0
  -22.9434  -29.0813   19.7414 C   0  0  1  0  0  0  0  0  0  0  0  0
  -27.8414  -12.7073   20.6529 C   0  0  1  0  0  0  0  0  0  0  0  0
  -28.9018  -23.2914   19.4038 C   0  0  1  0  0  0  0  0  0  0  0  0
  -30.5626  -17.6194   18.7162 C   0  0  0  0  0  0  0  0  0  0  0  0
  -26.4995  -21.8984   22.1821 C   0  0  0  0  0  0  0  0  0  0  0  0
  -26.2647  -31.6628   13.4928 C   0  0  0  0  0  0  0  0  0  0  0  0
  -20.8471  -28.5606   15.2426 C   0  0  0  0  0  0  0  0  0  0  0  0
  -22.5575  -29.1007   13.4959 C   0  0  0  0  0  0  0  0  0  0  0  0
  -21.5673  -30.9273   14.8764 C   0  0  0  0  0  0  0  0  0  0  0  0
  -29.2659  -15.6597   22.0691 C   0  0  0  0  0  0  0  0  0  0  0  0
  -28.1957  -29.4155   15.8796 C   0  0  0  0  0  0  0  0  0  0  0  0
  -31.8965  -20.2004   18.9431 C   0  0  0  0  0  0  0  0  0  0  0  0
  -26.9229  -22.3905   20.8100 C   0  0  0  0  0  0  0  0  0  0  0  0
  -28.1172  -24.5185   19.0123 C   0  0  0  0  0  0  0  0  0  1  0  0
  -23.2134  -29.3268   15.9351 C   0  0  1  0  0  0  0  0  0  0  0  0
  -26.4815  -30.8417   14.7543 C   0  0  2  0  0  0  0  0  0  0  0  0
  -22.0528  -29.4617   14.9093 C   0  0  0  0  0  0  0  0  0  0  0  0
  -25.5464  -12.4037   19.8026 N   0  0  0  0  0  0  0  0  0  0  0  0
  -26.3355  -12.7956   20.8174 N   0  0  0  0  0  0  0  0  0  0  0  0
  -30.9678  -21.3230   18.9686 N   0  0  0  0  0  0  0  0  0  0  0  0
  -23.4517  -28.9718   18.3725 N   0  0  0  0  0  0  0  0  0  0  0  0
  -29.8907  -13.9171   19.9457 N   0  0  0  0  0  0  0  0  0  0  0  0
  -26.2878  -13.6713   23.0177 N   0  0  0  0  0  0  0  0  0  0  0  0
  -21.9158  -13.3113   21.9446 N   0  0  0  0  0  0  0  0  0  0  0  0
  -21.4449  -27.8807   21.2148 N   0  0  0  0  0  0  0  0  0  0  0  0
  -24.3576  -30.1888   15.6596 N   0  0  0  0  0  0  0  0  0  0  0  0
  -30.3033  -15.9806   21.0833 N   0  0  0  0  0  0  0  0  0  0  0  0
  -27.8401  -30.2325   14.6909 N   0  3  0  0  0  0  0  0  0  0  0  0
  -32.4764  -22.7268   20.0346 O   0  0  0  0  0  0  0  0  0  0  0  0
  -23.3836  -13.9588   23.5832 O   0  0  0  0  0  0  0  0  0  0  0  0
  -29.1189  -22.7669   21.7464 O   0  0  0  0  0  0  0  0  0  0  0  0
  -21.9430  -27.0407   19.1009 O   0  0  0  0  0  0  0  0  0  0  0  0
  -21.8714  -30.4631   17.5270 O   0  0  0  0  0  0  0  0  0  0  0  0
  -25.5338  -28.6503   14.3842 O   0  0  0  0  0  0  0  0  0  0  0  0
  -31.9485  -14.9656   19.8010 O   0  0  0  0  0  0  0  0  0  0  0  0
  -19.8511  -11.4281   17.1261 O   0  0  0  0  0  0  0  0  0  0  0  0
  -28.2972  -25.5231   20.0098 O   0  0  0  0  0  0  0  0  0  1  0  0
  -18.5005   -6.1210   16.4821 F   0  0  0  0  0  0  0  0  0  0  0  0
  -17.3837  -10.4837   17.9400 F   0  0  0  0  0  0  0  0  0  0  0  0
  1  2  1  0  0  0  0
  1  6  2  0  0  0  0
  2  7  2  0  0  0  0
  3  9  2  0  0  0  0
  3 10  1  0  0  0  0
  4 11  2  0  0  0  0
  4 18  1  0  0  0  0
  5 12  1  0  0  0  0
  5 18  2  0  0  0  0
  6 20  1  0  0  0  0
  7 22  1  0  0  0  0
  8 13  2  0  0  0  0
  8 21  1  0  0  0  0
  9 24  1  0  0  0  0
 10 26  2  0  0  0  0
 11 27  1  0  0  0  0
 12 27  2  0  0  0  0
 13 28  1  0  0  0  0
 14 15  2  0  0  0  0
 14 29  1  0  0  0  0
 15 30  1  0  0  0  0
 16 23  1  0  0  0  0
 16 28  2  0  0  0  0
 17 30  2  0  0  0  0
 17 31  1  0  0  0  0
 18 32  1  0  0  0  0
 19 32  1  0  0  0  0
 19 33  2  0  0  0  0
 19 35  1  0  0  0  0
 20 22  2  0  0  0  0
 20 41  1  0  0  0  0
 21 23  2  0  0  0  0
 21 42  1  0  0  0  0
 22 53  1  0  0  0  0
 23 43  1  0  0  0  0
 24 25  2  0  0  0  0
 24 65  1  0  0  0  0
 25 26  1  0  0  0  0
 25 57  1  0  0  0  0
 26 80  1  0  0  0  0
 27 89  1  0  0  0  0
 28 90  1  0  0  0  0
 29 31  2  0  0  0  0
 29 89  1  0  0  0  0
 30 91  1  0  0  0  0
 31 92  1  0  0  0  0
 32 71  2  0  0  0  0
 33 72  1  0  0  0  0
 33 76  1  0  0  0  0
 34 44  1  0  0  0  0
 34 73  1  0  0  0  0
 34 82  2  0  0  0  0
 35 77  1  0  0  0  0
 35 83  2  0  0  0  0
 36 56  1  0  0  0  0
 36 66  1  0  0  0  0
 36 84  2  0  0  0  0
 37 54  1  0  0  0  0
 37 78  1  0  0  0  0
 37 85  2  0  0  0  0
 38 68  1  0  0  0  0
 38 74  1  0  0  0  0
 38 86  2  0  0  0  0
 39 69  1  0  0  0  0
 39 79  1  0  0  0  0
 39 87  2  0  0  0  0
 40 75  1  0  0  0  0
 40 80  1  0  0  0  0
 40 88  2  0  0  0  0
 41 45  1  0  0  0  0
 42 54  1  0  0  0  0
 43 74  1  0  0  0  0
 44 56  1  0  0  0  0
 45 47  1  0  0  0  0
 46 48  1  0  0  0  0
 46 50  1  0  0  0  0
 47 53  1  0  0  0  0
 48 55  1  0  0  0  0
 49 51  1  0  0  0  0
 49 56  1  0  0  0  0
 50 75  1  0  0  0  0
 51 73  1  0  0  0  0
 52 55  1  0  0  0  0
 52 75  1  0  0  0  0
 53 78  1  0  0  0  0
 54 74  1  0  0  0  0
 55 72  1  0  0  0  0
 56 67  1  0  0  0  0
 58 66  1  0  0  0  0
 59 69  1  0  0  0  0
 60 70  1  0  0  0  0
 61 70  1  0  0  0  0
 62 70  1  0  0  0  0
 63 80  1  0  0  0  0
 64 81  1  0  0  0  0
 65 73  1  0  0  0  0
 67 90  1  0  0  0  0
 68 70  1  0  0  0  0
 68 79  1  0  0  0  0
 69 81  1  0  0  0  0
 71 72  1  0  0  0  0
M  CHG  1  81   1
M  ISO  4  40 100  67 101  80 100  90 101
M  END
> <Batch ID>
0054

> <Smiles>
CCC(=O)C1([101CH2:1][101O:1]c2ccc3c(c2)CN(C(=O)C(NC(=O)C(C)NC)C(C)(C)C)C(C(=O)NC2CCCc4ccccc42)C3)CCN(Cc2cccc([100N:0](C)[100C:0](=O)N3CCCC(n4nc(-c5ccc(Oc6ccc(F)cc6F)cc5)c(C(N)=O)c4N)C3)c2C)C(=O)C1

> <Shape>
0.228

> <Color>
0.101

> <Negative vol penalty>
0.000

$$$$

  -OEChem-04042322463D

 86 94  0     1  0  0  0  0  0999 V2000
  -17.6431  -25.2345   25.1650 C   0  0  0  0  0  0  0  0  0  0  0  0
  -18.5414  -24.4626   24.4353 C   0  0  0  0  0  0  0  0  0  0  0  0
  -25.0558  -10.5443   21.3843 C   0  0  0  0  0  0  0  0  0  0  0  0
  -32.0588  -20.8761   20.5618 C   0  0  0  0  0  0  0  0  0  0  0  0
  -30.2998  -20.4929   18.9506 C   0  0  0  0  0  0  0  0  0  0  0  0
  -17.5098  -26.5946   24.8888 C   0  0  0  0  0  0  0  0  0  0  0  0
  -19.3061  -25.0501   23.4281 C   0  0  0  0  0  0  0  0  0  0  0  0
  -24.1593  -23.6121   23.5845 C   0  0  0  0  0  0  0  0  0  0  0  0
  -24.0381  -11.4970   21.4327 C   0  0  0  0  0  0  0  0  0  0  0  0
  -26.2127  -10.7965   20.6470 C   0  0  0  0  0  0  0  0  0  0  0  0
  -32.6716  -21.7672   19.6809 C   0  0  0  0  0  0  0  0  0  0  0  0
  -30.9125  -21.3841   18.0697 C   0  0  0  0  0  0  0  0  0  0  0  0
  -24.4668  -22.3521   23.0730 C   0  0  0  0  0  0  0  0  0  0  0  0
  -31.1507  -24.7327   17.6815 C   0  0  0  0  0  0  0  0  0  0  0  0
  -30.3387  -25.6656   17.0367 C   0  0  0  0  0  0  0  0  0  0  0  0
  -25.2204  -23.3750   21.0225 C   0  0  0  0  0  0  0  0  0  0  0  0
  -31.0066  -24.7673   14.8957 C   0  0  0  0  0  0  0  0  0  0  0  0
  -30.8729  -20.2389   20.1967 C   0  0  0  0  0  0  0  0  0  0  0  0
  -29.2757  -19.6189   22.0867 C   0  0  0  0  0  0  0  0  0  0  0  0
  -18.2802  -27.2011   23.8842 C   0  0  0  0  0  0  0  0  0  0  0  0
  -24.3702  -24.7641   22.8133 C   0  0  0  0  0  0  0  0  0  0  0  0
  -19.1820  -26.4193   23.1373 C   0  0  0  0  0  0  0  0  0  0  0  0
  -24.9171  -24.6486   21.5274 C   0  0  0  0  0  0  0  0  0  0  0  0
  -24.1772  -12.7018   20.7436 C   0  0  0  0  0  0  0  0  0  0  0  0
  -26.3519  -12.0013   19.9580 C   0  0  0  0  0  0  0  0  0  0  0  0
  -25.3341  -12.9539   20.0063 C   0  0  0  0  0  0  0  0  0  0  0  0
  -32.0984  -22.0213   18.4349 C   0  0  0  0  0  0  0  0  0  0  0  0
  -24.9948  -22.2331   21.7908 C   0  0  0  0  0  0  0  0  0  0  0  0
  -31.8908  -23.8171   16.9334 C   0  0  0  0  0  0  0  0  0  0  0  0
  -30.2666  -25.6829   15.6438 C   0  0  0  0  0  0  0  0  0  0  0  0
  -31.8187  -23.8343   15.5406 C   0  0  0  0  0  0  0  0  0  0  0  0
  -30.2398  -19.3178   21.1060 C   0  0  0  0  0  0  0  0  0  0  0  0
  -28.9973  -18.4103   22.6768 C   0  0  0  0  0  0  0  0  0  0  0  0
  -24.9466  -17.6102   20.8720 C   0  0  0  0  0  0  0  0  0  0  0  0
  -24.4856  -18.8545   20.6855 C   0  0  0  0  0  0  0  0  0  0  0  0
  -28.6847  -20.8784   22.4331 C   0  0  0  0  0  0  0  0  0  0  0  0
  -24.8958  -16.6153   19.7654 C   0  0  0  0  0  0  0  0  0  0  0  0
  -22.5007  -27.0520   21.6409 C   0  0  0  0  0  0  0  0  0  0  0  0
  -25.3295  -28.3729   20.7604 C   0  0  0  0  0  0  0  0  0  0  0  0
  -28.6270  -27.9225   20.0053 C   0  0  0  0  0  0  0  0  0  0  0  0
  -29.4301  -12.7488   20.7764 C   0  0  0  0  0  0  0  0  0  0  0  0
  -18.0670  -28.6649   23.5900 C   0  0  0  0  0  0  0  0  0  0  0  0
  -24.0582  -26.1180   23.3896 C   0  0  0  0  0  0  0  0  0  0  0  0
  -25.1815  -25.8560   20.6667 C   0  0  0  0  0  0  0  0  0  0  0  0
  -19.1855  -29.2884   22.7591 C   0  0  0  0  0  0  0  0  0  0  0  0
  -30.9886  -14.1691   23.6453 C   0  0  0  0  0  0  0  0  0  0  0  0
  -19.5365  -28.3904   21.5769 C   0  0  0  0  0  0  0  0  0  0  0  0
  -30.8865  -15.6769   23.4083 C   0  0  0  0  0  0  0  0  0  0  0  0
  -31.2316  -13.4084   22.3437 C   0  0  0  0  0  0  0  0  0  0  0  0
  -30.1576  -15.1985   21.0337 C   0  0  0  0  0  0  0  0  0  0  0  0
  -20.0471  -27.0253   22.0536 C   0  0  1  0  0  0  0  0  0  0  0  0
  -23.8334  -27.1844   22.3221 C   0  0  1  0  0  0  0  0  0  0  0  0
  -29.8570  -16.0033   22.3098 C   0  0  2  0  0  0  0  0  0  0  0  0
  -23.0727  -13.7053   20.8120 C   0  0  0  0  0  0  0  0  0  0  0  0
  -30.6733  -29.1843   19.2858 C   0  0  0  0  0  0  0  0  0  0  0  0
  -24.2236  -28.5427   17.9217 C   0  0  0  0  0  0  0  0  0  0  0  0
  -26.5639  -28.8973   17.1059 C   0  0  0  0  0  0  0  0  0  0  0  0
  -25.5219  -30.5496   18.6573 C   0  0  0  0  0  0  0  0  0  0  0  0
  -30.0998  -27.1621   22.4572 C   0  0  0  0  0  0  0  0  0  0  0  0
  -27.6009  -12.2467   19.1761 C   0  0  0  0  0  0  0  0  0  0  0  0
  -25.4839  -14.2507   19.2646 C   0  0  0  0  0  0  0  0  0  0  0  0
  -24.5095  -19.9053   21.7483 C   0  0  0  0  0  0  0  0  0  1  0  0
  -26.2170  -28.2856   19.5423 C   0  0  1  0  0  0  0  0  0  0  0  0
  -29.8749  -28.6536   20.4663 C   0  0  2  0  0  0  0  0  0  0  0  0
  -25.6249  -29.0457   18.3220 C   0  0  0  0  0  0  0  0  0  0  0  0
  -30.5529  -18.0198   21.0721 N   0  0  0  0  0  0  0  0  0  0  0  0
  -29.7813  -17.4945   22.0389 N   0  0  0  0  0  0  0  0  0  0  0  0
  -24.8540  -27.1573   21.2724 N   0  0  0  0  0  0  0  0  0  0  0  0
  -30.2203  -13.7617   21.3445 N   0  0  0  0  0  0  0  0  0  0  0  0
  -28.1609  -18.0522   23.6741 N   0  0  0  0  0  0  0  0  0  0  0  0
  -29.0841  -22.0208   21.7264 N   0  0  0  0  0  0  0  0  0  0  0  0
  -25.4164  -15.3915   20.1502 N   0  0  0  0  0  0  0  0  0  0  0  0
  -21.4203  -27.1269   22.4992 N   0  0  0  0  0  0  0  0  0  0  0  0
  -27.5320  -28.7592   19.9607 N   0  0  0  0  0  0  0  0  0  0  0  0
  -28.4916  -13.1705   19.8426 N   0  0  0  0  0  0  0  0  0  0  0  0
  -30.7503  -27.7392   21.2527 N   0  3  0  0  0  0  0  0  0  0  0  0
  -27.8397  -20.9900   23.3535 O   0  0  0  0  0  0  0  0  0  0  0  0
  -24.4387  -16.8831   18.6590 O   0  0  0  0  0  0  0  0  0  0  0  0
  -22.4558  -26.8950   20.4264 O   0  0  0  0  0  0  0  0  0  0  0  0
  -25.0735  -29.4784   21.2442 O   0  0  0  0  0  0  0  0  0  0  0  0
  -28.6247  -26.7293   19.7105 O   0  0  0  0  0  0  0  0  0  0  0  0
  -29.5484  -11.5576   21.0830 O   0  0  0  0  0  0  0  0  0  0  0  0
  -32.6959  -22.8910   17.5751 O   0  0  0  0  0  0  0  0  0  0  0  0
  -25.2952  -21.0044   21.2889 O   0  0  0  0  0  0  0  0  0  1  0  0
  -29.4855  -26.5779   15.0248 F   0  0  0  0  0  0  0  0  0  0  0  0
  -32.5265  -22.9564   14.8166 F   0  0  0  0  0  0  0  0  0  0  0  0
  1  2  1  0  0  0  0
  1  6  2  0  0  0  0
  2  7  2  0  0  0  0
  3  9  1  0  0  0  0
  3 10  2  0  0  0  0
  4 11  2  0  0  0  0
  4 18  1  0  0  0  0
  5 12  1  0  0  0  0
  5 18  2  0  0  0  0
  6 20  1  0  0  0  0
  7 22  1  0  0  0  0
  8 13  2  0  0  0  0
  8 21  1  0  0  0  0
  9 24  2  0  0  0  0
 10 25  1  0  0  0  0
 11 27  1  0  0  0  0
 12 27  2  0  0  0  0
 13 28  1  0  0  0  0
 14 15  2  0  0  0  0
 14 29  1  0  0  0  0
 15 30  1  0  0  0  0
 16 23  1  0  0  0  0
 16 28  2  0  0  0  0
 17 30  2  0  0  0  0
 17 31  1  0  0  0  0
 18 32  1  0  0  0  0
 19 32  1  0  0  0  0
 19 33  2  0  0  0  0
 19 36  1  0  0  0  0
 20 22  2  0  0  0  0
 20 42  1  0  0  0  0
 21 23  2  0  0  0  0
 21 43  1  0  0  0  0
 22 51  1  0  0  0  0
 23 44  1  0  0  0  0
 24 26  1  0  0  0  0
 24 54  1  0  0  0  0
 25 26  2  0  0  0  0
 25 60  1  0  0  0  0
 26 61  1  0  0  0  0
 27 83  1  0  0  0  0
 28 84  1  0  0  0  0
 29 31  2  0  0  0  0
 29 83  1  0  0  0  0
 30 85  1  0  0  0  0
 31 86  1  0  0  0  0
 32 66  2  0  0  0  0
 33 67  1  0  0  0  0
 33 70  1  0  0  0  0
 34 35  2  0  0  0  0
 34 37  1  0  0  0  0
 35 62  1  0  0  0  0
 36 71  1  0  0  0  0
 36 77  2  0  0  0  0
 37 72  1  0  0  0  0
 37 78  2  0  0  0  0
 38 52  1  0  0  0  0
 38 73  1  0  0  0  0
 38 79  2  0  0  0  0
 39 63  1  0  0  0  0
 39 68  1  0  0  0  0
 39 80  2  0  0  0  0
 40 64  1  0  0  0  0
 40 74  1  0  0  0  0
 40 81  2  0  0  0  0
 41 69  1  0  0  0  0
 41 75  1  0  0  0  0
 41 82  2  0  0  0  0
 42 45  1  0  0  0  0
 43 52  1  0  0  0  0
 44 68  1  0  0  0  0
 45 47  1  0  0  0  0
 46 48  1  0  0  0  0
 46 49  1  0  0  0  0
 47 51  1  0  0  0  0
 48 53  1  0  0  0  0
 49 69  1  0  0  0  0
 50 53  1  0  0  0  0
 50 69  1  0  0  0  0
 51 73  1  0  0  0  0
 52 68  1  0  0  0  0
 53 67  1  0  0  0  0
 55 64  1  0  0  0  0
 56 65  1  0  0  0  0
 57 65  1  0  0  0  0
 58 65  1  0  0  0  0
 59 76  1  0  0  0  0
 60 75  1  0  0  0  0
 61 72  1  0  0  0  0
 62 84  1  0  0  0  0
 63 65  1  0  0  0  0
 63 74  1  0  0  0  0
 64 76  1  0  0  0  0
 66 67  1  0  0  0  0
M  CHG  1  76   1
M  ISO  4  41 100  62 101  75 100  84 101
M  END
> <Batch ID>
0054

> <Smiles>
CNC(C)C(=O)NC(C(=O)N1Cc2cc([101O:1][101CH2:1]C=CC(=O)NCc3c(C)cccc3C[100NH:0][100C:0](=O)N3CCCC(n4nc(-c5ccc(Oc6ccc(F)cc6F)cc5)c(C(N)=O)c4N)C3)ccc2CC1C(=O)NC1CCCc2ccccc21)C(C)(C)C

> <Shape>
0.231

> <Color>
0.063

> <Negative vol penalty>
0.000

$$$$

  -OEChem-04042322463D

 85 93  0     1  0  0  0  0  0999 V2000
  -31.0349  -23.3113   21.1803 C   0  0  0  0  0  0  0  0  0  0  0  0
  -17.0034  -29.0275   24.5392 C   0  0  0  0  0  0  0  0  0  0  0  0
  -17.6483  -27.9629   23.9178 C   0  0  0  0  0  0  0  0  0  0  0  0
  -31.2755  -23.2216   19.8093 C   0  0  0  0  0  0  0  0  0  0  0  0
  -24.4258  -13.9065   18.8172 C   0  0  0  0  0  0  0  0  0  0  0  0
  -24.9721  -15.0503   20.8739 C   0  0  0  0  0  0  0  0  0  0  0  0
  -29.8530  -22.7995   21.7160 C   0  0  0  0  0  0  0  0  0  0  0  0
  -17.3505  -30.3378   24.2126 C   0  0  0  0  0  0  0  0  0  0  0  0
  -18.6399  -28.2080   22.9685 C   0  0  0  0  0  0  0  0  0  0  0  0
  -22.7139  -25.2698   23.6116 C   0  0  0  0  0  0  0  0  0  0  0  0
  -30.3341  -22.6202   18.9739 C   0  0  0  0  0  0  0  0  0  0  0  0
  -24.6868  -12.6807   19.4295 C   0  0  0  0  0  0  0  0  0  0  0  0
  -25.2331  -13.8245   21.4863 C   0  0  0  0  0  0  0  0  0  0  0  0
  -22.6246  -23.9513   23.1673 C   0  0  0  0  0  0  0  0  0  0  0  0
  -24.8607   -9.2287   20.5557 C   0  0  0  0  0  0  0  0  0  0  0  0
  -23.9507   -8.1926   20.3467 C   0  0  0  0  0  0  0  0  0  0  0  0
  -23.8306  -24.5504   21.1658 C   0  0  0  0  0  0  0  0  0  0  0  0
  -22.1998   -9.5304   21.3376 C   0  0  0  0  0  0  0  0  0  0  0  0
  -24.5685  -15.0913   19.5394 C   0  0  0  0  0  0  0  0  0  0  0  0
  -28.9117  -22.1981   20.8806 C   0  0  0  0  0  0  0  0  0  0  0  0
  -23.0681  -17.0381   18.8563 C   0  0  0  0  0  0  0  0  0  0  0  0
  -18.3535  -30.5990   23.2659 C   0  0  0  0  0  0  0  0  0  0  0  0
  -23.3538  -26.2424   22.8300 C   0  0  0  0  0  0  0  0  0  0  0  0
  -18.9997  -29.5230   22.6279 C   0  0  0  0  0  0  0  0  0  0  0  0
  -23.9289  -25.8799   21.6037 C   0  0  0  0  0  0  0  0  0  0  0  0
  -29.1522  -22.1085   19.5096 C   0  0  0  0  0  0  0  0  0  0  0  0
  -25.0904  -12.6397   20.7640 C   0  0  0  0  0  0  0  0  0  0  0  0
  -23.1804  -23.5920   21.9429 C   0  0  0  0  0  0  0  0  0  0  0  0
  -24.4404  -10.4157   21.1558 C   0  0  0  0  0  0  0  0  0  0  0  0
  -22.6202   -8.3434   20.7376 C   0  0  0  0  0  0  0  0  0  0  0  0
  -23.1100  -10.5665   21.5467 C   0  0  0  0  0  0  0  0  0  0  0  0
  -24.2996  -16.3579   18.9072 C   0  0  0  0  0  0  0  0  0  0  0  0
  -23.3377  -18.1839   18.1485 C   0  0  0  0  0  0  0  0  0  0  0  0
  -27.6792  -21.6709   21.4813 C   0  0  0  0  0  0  0  0  0  0  0  0
  -21.7944  -16.6674   19.4003 C   0  0  0  0  0  0  0  0  0  0  0  0
  -27.5077  -20.4178   21.9451 C   0  0  0  0  0  0  0  0  0  0  0  0
  -26.1471  -20.1181   22.5145 C   0  0  0  0  0  0  0  0  0  0  0  0
  -22.4453  -28.9451   21.4251 C   0  0  0  0  0  0  0  0  0  0  0  0
  -25.6110  -29.2123   20.7702 C   0  0  0  0  0  0  0  0  0  0  0  0
  -28.6203  -27.6627   20.3346 C   0  0  0  0  0  0  0  0  0  0  0  0
  -28.3251  -21.3510   17.2538 C   0  0  0  0  0  0  0  0  0  0  0  0
  -18.6612  -32.0322   22.9110 C   0  0  0  0  0  0  0  0  0  0  0  0
  -23.4651  -27.6546   23.3357 C   0  0  0  0  0  0  0  0  0  0  0  0
  -24.6443  -26.8821   20.7362 C   0  0  0  0  0  0  0  0  0  0  0  0
  -19.9838  -32.2054   22.1687 C   0  0  0  0  0  0  0  0  0  0  0  0
  -26.2534  -19.8897   14.7539 C   0  0  0  0  0  0  0  0  0  0  0  0
  -20.1071  -31.1754   21.0503 C   0  0  0  0  0  0  0  0  0  0  0  0
  -25.4009  -18.8844   15.5316 C   0  0  0  0  0  0  0  0  0  0  0  0
  -27.6797  -19.9632   15.2962 C   0  0  0  0  0  0  0  0  0  0  0  0
  -26.9305  -19.2060   17.5176 C   0  0  0  0  0  0  0  0  0  0  0  0
  -20.0977  -29.7483   21.6112 C   0  0  1  0  0  0  0  0  0  0  0  0
  -23.6898  -28.6723   22.2216 C   0  0  1  0  0  0  0  0  0  0  0  0
  -25.4674  -19.1443   17.0493 C   0  0  2  0  0  0  0  0  0  0  0  0
  -28.5680  -19.3549   21.9902 C   0  0  0  0  0  0  0  0  0  0  0  0
  -31.0183  -28.1400   19.7698 C   0  0  0  0  0  0  0  0  0  0  0  0
  -24.8465  -29.5711   17.8382 C   0  0  0  0  0  0  0  0  0  0  0  0
  -27.2275  -29.0911   17.2308 C   0  0  0  0  0  0  0  0  0  0  0  0
  -26.6761  -31.0803   18.6315 C   0  0  0  0  0  0  0  0  0  0  0  0
  -29.5638  -26.6043   22.9324 C   0  0  0  0  0  0  0  0  0  0  0  0
  -23.7296  -20.0334   21.9673 C   0  0  0  0  0  0  0  0  0  0  0  0
  -23.0543  -21.2838   22.5016 C   0  0  0  0  0  0  0  0  0  1  0  0
  -26.5105  -28.7687   19.6419 C   0  0  1  0  0  0  0  0  0  0  0  0
  -30.0006  -27.9696   20.8869 C   0  0  2  0  0  0  0  0  0  0  0  0
  -26.3000  -29.6091   18.3508 C   0  0  0  0  0  0  0  0  0  0  0  0
  -25.2787  -17.0165   18.2814 N   0  0  0  0  0  0  0  0  0  0  0  0
  -24.6626  -18.1225   17.8305 N   0  0  0  0  0  0  0  0  0  0  0  0
  -24.7213  -28.2515   21.2713 N   0  0  0  0  0  0  0  0  0  0  0  0
  -27.6641  -20.2159   16.7386 N   0  0  0  0  0  0  0  0  0  0  0  0
  -22.5684  -19.2277   17.7732 N   0  0  0  0  0  0  0  0  0  0  0  0
  -21.6931  -15.4570   20.0995 N   0  0  0  0  0  0  0  0  0  0  0  0
  -28.2144  -21.5052   18.6353 N   0  0  0  0  0  0  0  0  0  0  0  0
  -25.1029  -20.2768   21.6135 N   0  0  0  0  0  0  0  0  0  0  0  0
  -21.3881  -29.4195   22.1779 N   0  0  0  0  0  0  0  0  0  0  0  0
  -27.8717  -28.8082   20.1653 N   0  0  0  0  0  0  0  0  0  0  0  0
  -30.4598  -26.8656   21.7765 N   0  3  0  0  0  0  0  0  0  0  0  0
  -20.7724  -17.3804   19.2560 O   0  0  0  0  0  0  0  0  0  0  0  0
  -26.0009  -19.7602   23.6818 O   0  0  0  0  0  0  0  0  0  0  0  0
  -22.4447  -28.7417   20.2166 O   0  0  0  0  0  0  0  0  0  0  0  0
  -25.6997  -30.3665   21.1962 O   0  0  0  0  0  0  0  0  0  0  0  0
  -28.2452  -26.5214   20.0755 O   0  0  0  0  0  0  0  0  0  0  0  0
  -28.9208  -22.1439   16.5199 O   0  0  0  0  0  0  0  0  0  0  0  0
  -25.3449  -11.4438   21.3620 O   0  0  0  0  0  0  0  0  0  0  0  0
  -23.0941  -22.3059   21.5066 O   0  0  0  0  0  0  0  0  0  1  0  0
  -21.7460   -7.3489   20.5354 F   0  0  0  0  0  0  0  0  0  0  0  0
  -22.7000  -11.7050   22.1226 F   0  0  0  0  0  0  0  0  0  0  0  0
  1  4  1  0  0  0  0
  1  7  2  0  0  0  0
  2  3  1  0  0  0  0
  2  8  2  0  0  0  0
  3  9  2  0  0  0  0
  4 11  2  0  0  0  0
  5 12  2  0  0  0  0
  5 19  1  0  0  0  0
  6 13  1  0  0  0  0
  6 19  2  0  0  0  0
  7 20  1  0  0  0  0
  8 22  1  0  0  0  0
  9 24  1  0  0  0  0
 10 14  2  0  0  0  0
 10 23  1  0  0  0  0
 11 26  1  0  0  0  0
 12 27  1  0  0  0  0
 13 27  2  0  0  0  0
 14 28  1  0  0  0  0
 15 16  2  0  0  0  0
 15 29  1  0  0  0  0
 16 30  1  0  0  0  0
 17 25  1  0  0  0  0
 17 28  2  0  0  0  0
 18 30  2  0  0  0  0
 18 31  1  0  0  0  0
 19 32  1  0  0  0  0
 20 26  2  0  0  0  0
 20 34  1  0  0  0  0
 21 32  1  0  0  0  0
 21 33  2  0  0  0  0
 21 35  1  0  0  0  0
 22 24  2  0  0  0  0
 22 42  1  0  0  0  0
 23 25  2  0  0  0  0
 23 43  1  0  0  0  0
 24 51  1  0  0  0  0
 25 44  1  0  0  0  0
 26 71  1  0  0  0  0
 27 82  1  0  0  0  0
 28 83  1  0  0  0  0
 29 31  2  0  0  0  0
 29 82  1  0  0  0  0
 30 84  1  0  0  0  0
 31 85  1  0  0  0  0
 32 65  2  0  0  0  0
 33 66  1  0  0  0  0
 33 69  1  0  0  0  0
 34 36  2  0  0  0  0
 35 70  1  0  0  0  0
 35 76  2  0  0  0  0
 36 37  1  0  0  0  0
 36 54  1  0  0  0  0
 37 72  1  0  0  0  0
 37 77  2  0  0  0  0
 38 52  1  0  0  0  0
 38 73  1  0  0  0  0
 38 78  2  0  0  0  0
 39 62  1  0  0  0  0
 39 67  1  0  0  0  0
 39 79  2  0  0  0  0
 40 63  1  0  0  0  0
 40 74  1  0  0  0  0
 40 80  2  0  0  0  0
 41 68  1  0  0  0  0
 41 71  1  0  0  0  0
 41 81  2  0  0  0  0
 42 45  1  0  0  0  0
 43 52  1  0  0  0  0
 44 67  1  0  0  0  0
 45 47  1  0  0  0  0
 46 48  1  0  0  0  0
 46 49  1  0  0  0  0
 47 51  1  0  0  0  0
 48 53  1  0  0  0  0
 49 68  1  0  0  0  0
 50 53  1  0  0  0  0
 50 68  1  0  0  0  0
 51 73  1  0  0  0  0
 52 67  1  0  0  0  0
 53 66  1  0  0  0  0
 55 63  1  0  0  0  0
 56 64  1  0  0  0  0
 57 64  1  0  0  0  0
 58 64  1  0  0  0  0
 59 75  1  0  0  0  0
 60 61  1  0  0  0  0
 60 72  1  0  0  0  0
 61 83  1  0  0  0  0
 62 64  1  0  0  0  0
 62 74  1  0  0  0  0
 63 75  1  0  0  0  0
 65 66  1  0  0  0  0
M  CHG  1  75   1
M  ISO  4  41 100  61 101  71 100  83 101
M  END
> <Batch ID>
0054

> <Smiles>
CNC(C)C(=O)NC(C(=O)N1Cc2cc([101O:1][101CH2:1]CNC(=O)C(C)=Cc3ccccc3[100NH:0][100C:0](=O)N3CCCC(n4nc(-c5ccc(Oc6ccc(F)cc6F)cc5)c(C(N)=O)c4N)C3)ccc2CC1C(=O)NC1CCCc2ccccc21)C(C)(C)C

> <Shape>
0.214

> <Color>
0.079

> <Negative vol penalty>
0.000

$$$$

  -OEChem-04042322463D

 88 97  0     1  0  0  0  0  0999 V2000
  -29.0200  -37.4117   21.5798 C   0  0  0  0  0  0  0  0  0  0  0  0
  -29.1127  -36.2588   20.8067 C   0  0  0  0  0  0  0  0  0  0  0  0
  -26.6668  -12.8291   18.8130 C   0  0  0  0  0  0  0  0  0  0  0  0
  -26.3431  -12.9722   21.2029 C   0  0  0  0  0  0  0  0  0  0  0  0
  -28.5268  -37.3386   22.8819 C   0  0  0  0  0  0  0  0  0  0  0  0
  -28.7132  -35.0320   21.3355 C   0  0  0  0  0  0  0  0  0  0  0  0
  -26.0641  -30.4089   18.3165 C   0  0  0  0  0  0  0  0  0  0  0  0
  -26.9821  -23.6790   19.3368 C   0  0  0  0  0  0  0  0  0  0  0  0
  -27.7156  -22.6322   19.8950 C   0  0  0  0  0  0  0  0  0  0  0  0
  -25.4282  -12.2009   18.6828 C   0  0  0  0  0  0  0  0  0  0  0  0
  -25.1045  -12.3440   21.0728 C   0  0  0  0  0  0  0  0  0  0  0  0
  -26.5722  -29.2290   17.7747 C   0  0  0  0  0  0  0  0  0  0  0  0
  -23.9384   -9.1986   20.6512 C   0  0  0  0  0  0  0  0  0  0  0  0
  -23.6309   -8.1793   21.5523 C   0  0  0  0  0  0  0  0  0  0  0  0
  -25.9391  -28.0436   19.7780 C   0  0  0  0  0  0  0  0  0  0  0  0
  -21.7108   -9.4321   22.3143 C   0  0  0  0  0  0  0  0  0  0  0  0
  -27.1242  -13.2147   20.0730 C   0  0  0  0  0  0  0  0  0  0  0  0
  -29.6614  -13.3466   19.8428 C   0  0  0  0  0  0  0  0  0  0  0  0
  -28.1120  -36.1118   23.4236 C   0  0  0  0  0  0  0  0  0  0  0  0
  -25.4986  -30.4172   19.5997 C   0  0  0  0  0  0  0  0  0  0  0  0
  -28.2152  -34.9423   22.6465 C   0  0  0  0  0  0  0  0  0  0  0  0
  -25.4223  -29.2243   20.3328 C   0  0  0  0  0  0  0  0  0  0  0  0
  -25.9177  -23.4046   18.4780 C   0  0  0  0  0  0  0  0  0  0  0  0
  -25.5870  -22.0833   18.1773 C   0  0  0  0  0  0  0  0  0  0  0  0
  -26.3206  -21.0364   18.7355 C   0  0  0  0  0  0  0  0  0  0  0  0
  -27.3849  -21.3108   19.5943 C   0  0  0  0  0  0  0  0  0  0  0  0
  -24.6471  -11.9584   19.8127 C   0  0  0  0  0  0  0  0  0  0  0  0
  -26.5124  -28.0467   18.5066 C   0  0  0  0  0  0  0  0  0  0  0  0
  -23.1322  -10.3348   20.5817 C   0  0  0  0  0  0  0  0  0  0  0  0
  -22.5171   -8.2960   22.3838 C   0  0  0  0  0  0  0  0  0  0  0  0
  -22.0183  -10.4515   21.4132 C   0  0  0  0  0  0  0  0  0  0  0  0
  -28.4038  -13.8632   20.2082 C   0  0  0  0  0  0  0  0  0  0  0  0
  -30.5498  -14.3412   20.1716 C   0  0  0  0  0  0  0  0  0  0  0  0
  -24.4684  -24.7183   15.5326 C   0  0  0  0  0  0  0  0  0  0  0  0
  -29.9966  -12.0810   19.2585 C   0  0  0  0  0  0  0  0  0  0  0  0
  -26.1796  -31.8737   22.3417 C   0  0  0  0  0  0  0  0  0  0  0  0
  -23.3906  -30.5235   23.3014 C   0  0  0  0  0  0  0  0  0  0  0  0
  -21.0772  -28.0487   22.8894 C   0  0  0  0  0  0  0  0  0  0  0  0
  -29.2295  -20.3761   21.0448 C   0  0  0  0  0  0  0  0  0  0  0  0
  -27.6299  -36.0750   24.8522 C   0  0  0  0  0  0  0  0  0  0  0  0
  -24.9308  -31.6927   20.1591 C   0  0  0  0  0  0  0  0  0  0  0  0
  -24.8068  -29.1758   21.7066 C   0  0  0  0  0  0  0  0  0  0  0  0
  -24.8957  -24.7507   14.0771 C   0  0  0  0  0  0  0  0  0  0  0  0
  -26.8770  -34.7957   25.2082 C   0  0  0  0  0  0  0  0  0  0  0  0
  -26.1935  -25.4790   13.7973 C   0  0  0  0  0  0  0  0  0  0  0  0
  -30.8019  -17.9729   23.3709 C   0  0  0  0  0  0  0  0  0  0  0  0
  -27.6352  -33.5720   24.7036 C   0  0  0  0  0  0  0  0  0  0  0  0
  -30.7091  -16.6048   22.6936 C   0  0  0  0  0  0  0  0  0  0  0  0
  -27.2650  -25.0062   14.7614 C   0  0  0  0  0  0  0  0  0  0  0  0
  -30.9079  -19.1204   22.3760 C   0  0  0  0  0  0  0  0  0  0  0  0
  -29.2891  -17.8253   20.9713 C   0  0  0  0  0  0  0  0  0  0  0  0
  -27.7686  -33.5969   23.1762 C   0  0  1  0  0  0  0  0  0  0  0  0
  -24.8421  -31.6899   21.6821 C   0  0  1  0  0  0  0  0  0  0  0  0
  -30.2961  -16.6903   21.2147 C   0  0  2  0  0  0  0  0  0  0  0  0
  -26.8415  -25.2687   16.2072 C   0  0  1  0  0  0  0  0  0  0  0  0
  -24.4449  -21.7921   17.2560 C   0  0  0  0  0  0  0  0  0  0  0  0
  -25.9639  -19.6192   18.4115 C   0  0  0  0  0  0  0  0  0  0  0  0
  -18.9255  -27.1839   23.8484 C   0  0  0  0  0  0  0  0  0  0  0  0
  -24.9210  -29.3385   25.6602 C   0  0  0  0  0  0  0  0  0  0  0  0
  -23.0079  -27.7642   26.0207 C   0  0  0  0  0  0  0  0  0  0  0  0
  -22.6523  -30.2245   26.2278 C   0  0  0  0  0  0  0  0  0  0  0  0
  -19.6370  -28.4670   20.3379 C   0  0  0  0  0  0  0  0  0  0  0  0
  -25.1446  -24.5500   17.8910 C   0  0  0  0  0  0  0  0  0  0  0  0
  -26.9632  -26.7558   16.5608 C   0  0  0  0  0  0  0  0  0  1  0  0
  -23.0016  -29.2111   23.9380 C   0  0  1  0  0  0  0  0  0  0  0  0
  -19.5620  -28.0899   22.8059 C   0  0  2  0  0  0  0  0  0  0  0  0
  -23.4091  -29.1356   25.4366 C   0  0  0  0  0  0  0  0  0  0  0  0
  -28.4821  -15.0905   20.7292 N   0  0  0  0  0  0  0  0  0  0  0  0
  -29.7996  -15.3535   20.6938 N   0  0  0  0  0  0  0  0  0  0  0  0
  -25.4817  -24.7748   16.4894 N   0  0  0  0  0  0  0  0  0  0  0  0
  -24.2711  -30.4503   22.2127 N   0  0  0  0  0  0  0  0  0  0  0  0
  -29.7743  -19.1322   21.4467 N   0  0  0  0  0  0  0  0  0  0  0  0
  -31.8917  -14.4399   20.0620 N   0  0  0  0  0  0  0  0  0  0  0  0
  -30.2801  -11.0055   20.1113 N   0  0  0  0  0  0  0  0  0  0  0  0
  -28.1437  -20.2631   20.1728 N   0  0  0  0  0  0  0  0  0  0  0  0
  -26.5256  -33.1946   22.5537 N   0  0  0  0  0  0  0  0  0  0  0  0
  -21.5715  -29.0495   23.6988 N   0  0  0  0  0  0  0  0  0  0  0  0
  -19.1053  -27.6484   21.4578 N   0  3  0  0  0  0  0  0  0  0  0  0
  -23.2758  -24.5450   15.8002 O   0  0  0  0  0  0  0  0  0  0  0  0
  -30.0593  -11.9131   18.0170 O   0  0  0  0  0  0  0  0  0  0  0  0
  -26.8475  -30.8898   22.6378 O   0  0  0  0  0  0  0  0  0  0  0  0
  -22.9247  -31.5744   23.7490 O   0  0  0  0  0  0  0  0  0  0  0  0
  -21.7543  -27.2100   22.2988 O   0  0  0  0  0  0  0  0  0  0  0  0
  -29.6843  -21.4456   21.4564 O   0  0  0  0  0  0  0  0  0  0  0  0
  -23.4383  -11.3456   19.6861 O   0  0  0  0  0  0  0  0  0  0  0  0
  -27.0081  -26.8938   17.9804 O   0  0  0  0  0  0  0  0  0  1  0  0
  -22.2210   -7.3163   23.2480 F   0  0  0  0  0  0  0  0  0  0  0  0
  -21.2393  -11.5401   21.3502 F   0  0  0  0  0  0  0  0  0  0  0  0
  1  2  1  0  0  0  0
  1  5  2  0  0  0  0
  2  6  2  0  0  0  0
  3 10  2  0  0  0  0
  3 17  1  0  0  0  0
  4 11  1  0  0  0  0
  4 17  2  0  0  0  0
  5 19  1  0  0  0  0
  6 21  1  0  0  0  0
  7 12  2  0  0  0  0
  7 20  1  0  0  0  0
  8  9  2  0  0  0  0
  8 23  1  0  0  0  0
  9 26  1  0  0  0  0
 10 27  1  0  0  0  0
 11 27  2  0  0  0  0
 12 28  1  0  0  0  0
 13 14  2  0  0  0  0
 13 29  1  0  0  0  0
 14 30  1  0  0  0  0
 15 22  1  0  0  0  0
 15 28  2  0  0  0  0
 16 30  2  0  0  0  0
 16 31  1  0  0  0  0
 17 32  1  0  0  0  0
 18 32  1  0  0  0  0
 18 33  2  0  0  0  0
 18 35  1  0  0  0  0
 19 21  2  0  0  0  0
 19 40  1  0  0  0  0
 20 22  2  0  0  0  0
 20 41  1  0  0  0  0
 21 52  1  0  0  0  0
 22 42  1  0  0  0  0
 23 24  2  0  0  0  0
 23 63  1  0  0  0  0
 24 25  1  0  0  0  0
 24 56  1  0  0  0  0
 25 26  2  0  0  0  0
 25 57  1  0  0  0  0
 26 75  1  0  0  0  0
 27 85  1  0  0  0  0
 28 86  1  0  0  0  0
 29 31  2  0  0  0  0
 29 85  1  0  0  0  0
 30 87  1  0  0  0  0
 31 88  1  0  0  0  0
 32 68  2  0  0  0  0
 33 69  1  0  0  0  0
 33 73  1  0  0  0  0
 34 43  1  0  0  0  0
 34 70  1  0  0  0  0
 34 79  2  0  0  0  0
 35 74  1  0  0  0  0
 35 80  2  0  0  0  0
 36 53  1  0  0  0  0
 36 76  1  0  0  0  0
 36 81  2  0  0  0  0
 37 65  1  0  0  0  0
 37 71  1  0  0  0  0
 37 82  2  0  0  0  0
 38 66  1  0  0  0  0
 38 77  1  0  0  0  0
 38 83  2  0  0  0  0
 39 72  1  0  0  0  0
 39 75  1  0  0  0  0
 39 84  2  0  0  0  0
 40 44  1  0  0  0  0
 41 53  1  0  0  0  0
 42 71  1  0  0  0  0
 43 45  1  0  0  0  0
 44 47  1  0  0  0  0
 45 49  1  0  0  0  0
 46 48  1  0  0  0  0
 46 50  1  0  0  0  0
 47 52  1  0  0  0  0
 48 54  1  0  0  0  0
 49 55  1  0  0  0  0
 50 72  1  0  0  0  0
 51 54  1  0  0  0  0
 51 72  1  0  0  0  0
 52 76  1  0  0  0  0
 53 71  1  0  0  0  0
 54 69  1  0  0  0  0
 55 64  1  0  0  0  0
 55 70  1  0  0  0  0
 58 66  1  0  0  0  0
 59 67  1  0  0  0  0
 60 67  1  0  0  0  0
 61 67  1  0  0  0  0
 62 78  1  0  0  0  0
 63 70  1  0  0  0  0
 64 86  1  0  0  0  0
 65 67  1  0  0  0  0
 65 77  1  0  0  0  0
 66 78  1  0  0  0  0
 68 69  1  0  0  0  0
M  CHG  1  78   1
M  ISO  4  39 100  64 101  75 100  86 101
M  END
> <Batch ID>
0054

> <Smiles>
CNC(C)C(=O)NC(C(=O)N1Cc2cc([101O:1][101CH2:1]C3CCCC(=O)N3Cc3ccc([100NH:0][100C:0](=O)N4CCCC(n5nc(-c6ccc(Oc7ccc(F)cc7F)cc6)c(C(N)=O)c5N)C4)c(C)c3C)ccc2CC1C(=O)NC1CCCc2ccccc21)C(C)(C)C

> <Shape>
0.297

> <Color>
0.074

> <Negative vol penalty>
0.000

$$$$

  -OEChem-04042322463D

 82 90  0     1  0  0  0  0  0999 V2000
  -18.2764  -27.5145   22.6540 C   0  0  0  0  0  0  0  0  0  0  0  0
  -30.2205  -13.7581   20.0666 C   0  0  0  0  0  0  0  0  0  0  0  0
  -29.7679  -15.0645   19.9117 C   0  0  0  0  0  0  0  0  0  0  0  0
  -18.9945  -28.1896   23.6410 C   0  0  0  0  0  0  0  0  0  0  0  0
  -28.6897  -23.0147   21.9384 C   0  0  0  0  0  0  0  0  0  0  0  0
  -29.9064  -23.5897   19.9319 C   0  0  0  0  0  0  0  0  0  0  0  0
  -18.9488  -26.9159   21.5886 C   0  0  0  0  0  0  0  0  0  0  0  0
  -29.3541  -12.6898   19.8385 C   0  0  0  0  0  0  0  0  0  0  0  0
  -28.4489  -15.3033   19.5276 C   0  0  0  0  0  0  0  0  0  0  0  0
  -24.8835  -19.9568   21.2991 C   0  0  0  0  0  0  0  0  0  0  0  0
  -28.9814  -21.6669   21.7291 C   0  0  0  0  0  0  0  0  0  0  0  0
  -30.1982  -22.2418   19.7226 C   0  0  0  0  0  0  0  0  0  0  0  0
  -24.5528  -21.1684   20.6937 C   0  0  0  0  0  0  0  0  0  0  0  0
  -28.6151  -19.5082   18.5176 C   0  0  0  0  0  0  0  0  0  0  0  0
  -28.4568  -19.0037   17.2269 C   0  0  0  0  0  0  0  0  0  0  0  0
  -20.3850  -28.2663   23.5625 C   0  0  0  0  0  0  0  0  0  0  0  0
  -22.5260  -20.1801   19.8366 C   0  0  0  0  0  0  0  0  0  0  0  0
  -30.7986  -18.4123   17.1708 C   0  0  0  0  0  0  0  0  0  0  0  0
  -29.1522  -23.9762   21.0398 C   0  0  0  0  0  0  0  0  0  0  0  0
  -20.3394  -26.9926   21.5100 C   0  0  0  0  0  0  0  0  0  0  0  0
  -29.6133  -26.3005   21.9844 C   0  0  0  0  0  0  0  0  0  0  0  0
  -28.0211  -12.9158   19.4607 C   0  0  0  0  0  0  0  0  0  0  0  0
  -24.0418  -18.8428   21.1685 C   0  0  0  0  0  0  0  0  0  0  0  0
  -27.5642  -14.2369   19.2929 C   0  0  0  0  0  0  0  0  0  0  0  0
  -22.8470  -18.9563   20.4435 C   0  0  0  0  0  0  0  0  0  0  0  0
  -29.7356  -21.2804   20.6212 C   0  0  0  0  0  0  0  0  0  0  0  0
  -23.3754  -21.2794   19.9599 C   0  0  0  0  0  0  0  0  0  0  0  0
  -29.8652  -19.4648   19.1350 C   0  0  0  0  0  0  0  0  0  0  0  0
  -29.5485  -18.4558   16.5535 C   0  0  0  0  0  0  0  0  0  0  0  0
  -30.9569  -18.9168   18.4615 C   0  0  0  0  0  0  0  0  0  0  0  0
  -21.0575  -27.6678   22.4970 C   0  0  0  0  0  0  0  0  0  0  0  0
  -28.8507  -25.3686   21.2552 C   0  0  0  0  0  0  0  0  0  0  0  0
  -28.9045  -27.4732   21.8897 C   0  0  0  0  0  0  0  0  0  0  0  0
  -22.5129  -24.7365   19.7093 C   0  0  0  0  0  0  0  0  0  0  0  0
  -21.0050  -26.3344   20.3485 C   0  0  0  0  0  0  0  0  0  0  0  0
  -30.8516  -26.1222   22.6848 C   0  0  0  0  0  0  0  0  0  0  0  0
  -24.3434  -15.9385   19.9124 C   0  0  0  0  0  0  0  0  0  0  0  0
  -21.4016  -15.4983   21.2063 C   0  0  0  0  0  0  0  0  0  0  0  0
  -18.4903  -16.8858   22.3225 C   0  0  0  0  0  0  0  0  0  0  0  0
  -23.0861  -28.6407   20.9093 C   0  0  0  0  0  0  0  0  0  0  0  0
  -27.1351  -11.7282   19.1793 C   0  0  0  0  0  0  0  0  0  0  0  0
  -24.3995  -17.5505   21.8500 C   0  0  0  0  0  0  0  0  0  0  0  0
  -21.8992  -17.7958   20.2901 C   0  0  0  0  0  0  0  0  0  0  0  0
  -25.6486  -12.0733   19.1390 C   0  0  0  0  0  0  0  0  0  0  0  0
  -25.8761  -29.8011   19.0164 C   0  0  0  0  0  0  0  0  0  0  0  0
  -25.4137  -13.3245   18.2988 C   0  0  0  0  0  0  0  0  0  0  0  0
  -27.0204  -28.8755   19.4279 C   0  0  0  0  0  0  0  0  0  0  0  0
  -24.5461  -29.0550   18.9615 C   0  0  0  0  0  0  0  0  0  0  0  0
  -25.3329  -27.4167   20.6311 C   0  0  0  0  0  0  0  0  0  0  0  0
  -26.1335  -14.5370   18.9015 C   0  0  1  0  0  0  0  0  0  0  0  0
  -23.7226  -16.3363   21.2216 C   0  0  1  0  0  0  0  0  0  0  0  0
  -26.6909  -28.1342   20.7359 C   0  0  1  0  0  0  0  0  0  0  0  0
  -16.2572  -16.2694   23.2873 C   0  0  0  0  0  0  0  0  0  0  0  0
  -20.4589  -14.6028   18.4460 C   0  0  0  0  0  0  0  0  0  0  0  0
  -18.1008  -14.9184   19.2256 C   0  0  0  0  0  0  0  0  0  0  0  0
  -19.5687  -13.2407   20.3450 C   0  0  0  0  0  0  0  0  0  0  0  0
  -19.0164  -18.4016   24.8094 C   0  0  0  0  0  0  0  0  0  0  0  0
  -23.5087  -23.6535   20.0027 C   0  0  0  0  0  0  0  0  0  1  0  0
  -19.9833  -15.7045   20.7320 C   0  0  1  0  0  0  0  0  0  0  0  0
  -17.6927  -16.6659   23.5953 C   0  0  2  0  0  0  0  0  0  0  0  0
  -19.5465  -14.6381   19.6882 C   0  0  0  0  0  0  0  0  0  0  0  0
  -27.7424  -25.9031   20.7356 N   0  0  0  0  0  0  0  0  0  0  0  0
  -21.9053  -25.3424   20.6740 N   0  0  0  0  0  0  0  0  0  0  0  0
  -27.8033  -27.1836   21.1390 N   0  0  0  0  0  0  0  0  0  0  0  0
  -22.2962  -16.5516   20.9698 N   0  0  0  0  0  0  0  0  0  0  0  0
  -24.2796  -28.3644   20.2260 N   0  0  0  0  0  0  0  0  0  0  0  0
  -29.1221  -28.7136   22.3762 N   0  0  0  0  0  0  0  0  0  0  0  0
  -31.4443  -24.8521   22.6812 N   0  0  0  0  0  0  0  0  0  0  0  0
  -25.3953  -15.0509   20.0352 N   0  0  0  0  0  0  0  0  0  0  0  0
  -19.1532  -15.7419   21.9312 N   0  0  0  0  0  0  0  0  0  0  0  0
  -17.6710  -17.9107   24.4146 N   0  3  0  0  0  0  0  0  0  0  0  0
  -20.7180  -26.7077   19.2143 O   0  0  0  0  0  0  0  0  0  0  0  0
  -31.4074  -27.0573   23.3094 O   0  0  0  0  0  0  0  0  0  0  0  0
  -23.8999  -16.4014   18.8680 O   0  0  0  0  0  0  0  0  0  0  0  0
  -21.7028  -14.4445   21.7723 O   0  0  0  0  0  0  0  0  0  0  0  0
  -18.5191  -17.9635   21.7323 O   0  0  0  0  0  0  0  0  0  0  0  0
  -22.2353  -29.4351   20.5134 O   0  0  0  0  0  0  0  0  0  0  0  0
  -30.0206  -19.9653   20.4167 O   0  0  0  0  0  0  0  0  0  0  0  0
  -23.0506  -22.4606   19.3674 O   0  0  0  0  0  0  0  0  0  1  0  0
  -29.3959  -17.9699   15.3146 F   0  0  0  0  0  0  0  0  0  0  0  0
  -32.1601  -18.8713   19.0499 F   0  0  0  0  0  0  0  0  0  0  0  0
  -22.8363  -27.7965   22.4460 S   0  0  0  0  0  0  0  0  0  0  0  0
  1  4  1  0  0  0  0
  1  7  2  0  0  0  0
  2  3  1  0  0  0  0
  2  8  2  0  0  0  0
  3  9  2  0  0  0  0
  4 16  2  0  0  0  0
  5 11  2  0  0  0  0
  5 19  1  0  0  0  0
  6 12  1  0  0  0  0
  6 19  2  0  0  0  0
  7 20  1  0  0  0  0
  8 22  1  0  0  0  0
  9 24  1  0  0  0  0
 10 13  2  0  0  0  0
 10 23  1  0  0  0  0
 11 26  1  0  0  0  0
 12 26  2  0  0  0  0
 13 27  1  0  0  0  0
 14 15  2  0  0  0  0
 14 28  1  0  0  0  0
 15 29  1  0  0  0  0
 16 31  1  0  0  0  0
 17 25  1  0  0  0  0
 17 27  2  0  0  0  0
 18 29  2  0  0  0  0
 18 30  1  0  0  0  0
 19 32  1  0  0  0  0
 20 31  2  0  0  0  0
 20 35  1  0  0  0  0
 21 32  1  0  0  0  0
 21 33  2  0  0  0  0
 21 36  1  0  0  0  0
 22 24  2  0  0  0  0
 22 41  1  0  0  0  0
 23 25  2  0  0  0  0
 23 42  1  0  0  0  0
 24 50  1  0  0  0  0
 25 43  1  0  0  0  0
 26 78  1  0  0  0  0
 27 79  1  0  0  0  0
 28 30  2  0  0  0  0
 28 78  1  0  0  0  0
 29 80  1  0  0  0  0
 30 81  1  0  0  0  0
 31 82  1  0  0  0  0
 32 62  2  0  0  0  0
 33 64  1  0  0  0  0
 33 67  1  0  0  0  0
 34 58  1  0  0  0  0
 34 63  2  0  0  0  0
 35 63  1  0  0  0  0
 35 72  2  0  0  0  0
 36 68  1  0  0  0  0
 36 73  2  0  0  0  0
 37 51  1  0  0  0  0
 37 69  1  0  0  0  0
 37 74  2  0  0  0  0
 38 59  1  0  0  0  0
 38 65  1  0  0  0  0
 38 75  2  0  0  0  0
 39 60  1  0  0  0  0
 39 70  1  0  0  0  0
 39 76  2  0  0  0  0
 40 66  1  0  0  0  0
 40 77  2  0  0  0  0
 40 82  1  0  0  0  0
 41 44  1  0  0  0  0
 42 51  1  0  0  0  0
 43 65  1  0  0  0  0
 44 46  1  0  0  0  0
 45 47  1  0  0  0  0
 45 48  1  0  0  0  0
 46 50  1  0  0  0  0
 47 52  1  0  0  0  0
 48 66  1  0  0  0  0
 49 52  1  0  0  0  0
 49 66  1  0  0  0  0
 50 69  1  0  0  0  0
 51 65  1  0  0  0  0
 52 64  1  0  0  0  0
 53 60  1  0  0  0  0
 54 61  1  0  0  0  0
 55 61  1  0  0  0  0
 56 61  1  0  0  0  0
 57 71  1  0  0  0  0
 58 79  1  0  0  0  0
 59 61  1  0  0  0  0
 59 70  1  0  0  0  0
 60 71  1  0  0  0  0
 62 64  1  0  0  0  0
M  CHG  1  71   1
M  ISO  4  40 100  58 101  79 101  82 100
M  END
> <Batch ID>
0054

> <Smiles>
CNC(C)C(=O)NC(C(=O)N1Cc2cc([101O:1][101CH2:1]C=NC(=O)c3ccccc3[100S:0][100C:0](=O)N3CCCC(n4nc(-c5ccc(Oc6ccc(F)cc6F)cc5)c(C(N)=O)c4N)C3)ccc2CC1C(=O)NC1CCCc2ccccc21)C(C)(C)C

> <Shape>
0.201

> <Color>
0.067

> <Negative vol penalty>
0.000

$$$$

  -OEChem-04042322463D

 85 93  0     1  0  0  0  0  0999 V2000
  -27.4288  -33.1503   24.7008 C   0  0  0  0  0  0  0  0  0  0  0  0
  -27.7567  -31.8259   24.4290 C   0  0  0  0  0  0  0  0  0  0  0  0
  -22.9983   -9.8920   19.9855 C   0  0  0  0  0  0  0  0  0  0  0  0
  -23.7148   -9.9572   22.2919 C   0  0  0  0  0  0  0  0  0  0  0  0
  -26.2183  -33.4542   25.3223 C   0  0  0  0  0  0  0  0  0  0  0  0
  -26.8746  -30.8044   24.7796 C   0  0  0  0  0  0  0  0  0  0  0  0
  -25.8890  -25.5843   21.7324 C   0  0  0  0  0  0  0  0  0  0  0  0
  -32.6596  -17.4336   23.4284 C   0  0  0  0  0  0  0  0  0  0  0  0
  -32.0532  -16.5407   22.5449 C   0  0  0  0  0  0  0  0  0  0  0  0
  -22.2298   -8.7600   20.2562 C   0  0  0  0  0  0  0  0  0  0  0  0
  -22.9462   -8.8251   22.5626 C   0  0  0  0  0  0  0  0  0  0  0  0
  -26.3734  -24.2890   21.9096 C   0  0  0  0  0  0  0  0  0  0  0  0
  -23.1893   -5.4830   22.1131 C   0  0  0  0  0  0  0  0  0  0  0  0
  -23.7730   -4.4701   22.8740 C   0  0  0  0  0  0  0  0  0  0  0  0
  -24.3876  -23.7234   23.1568 C   0  0  0  0  0  0  0  0  0  0  0  0
  -22.0430   -4.7253   24.5410 C   0  0  0  0  0  0  0  0  0  0  0  0
  -23.7409  -10.4907   21.0033 C   0  0  0  0  0  0  0  0  0  0  0  0
  -24.1291  -13.0047   20.8126 C   0  0  0  0  0  0  0  0  0  0  0  0
  -25.3166  -32.4366   25.6719 C   0  0  0  0  0  0  0  0  0  0  0  0
  -24.6532  -25.9627   22.2764 C   0  0  0  0  0  0  0  0  0  0  0  0
  -25.6515  -31.0948   25.4075 C   0  0  0  0  0  0  0  0  0  0  0  0
  -23.8886  -25.0234   22.9830 C   0  0  0  0  0  0  0  0  0  0  0  0
  -31.8816  -18.3444   24.1432 C   0  0  0  0  0  0  0  0  0  0  0  0
  -30.4971  -18.3623   23.9743 C   0  0  0  0  0  0  0  0  0  0  0  0
  -29.8906  -17.4695   23.0908 C   0  0  0  0  0  0  0  0  0  0  0  0
  -30.6687  -16.5587   22.3760 C   0  0  0  0  0  0  0  0  0  0  0  0
  -22.2037   -8.2265   21.5447 C   0  0  0  0  0  0  0  0  0  0  0  0
  -25.6240  -23.3592   22.6243 C   0  0  0  0  0  0  0  0  0  0  0  0
  -22.0324   -6.1171   22.5662 C   0  0  0  0  0  0  0  0  0  0  0  0
  -23.1999   -4.0913   24.0879 C   0  0  0  0  0  0  0  0  0  0  0  0
  -21.4593   -5.7383   23.7801 C   0  0  0  0  0  0  0  0  0  0  0  0
  -24.5354  -11.6598   20.7242 C   0  0  0  0  0  0  0  0  0  0  0  0
  -25.2409  -13.7240   20.4478 C   0  0  0  0  0  0  0  0  0  0  0  0
  -22.8602  -13.5547   21.1908 C   0  0  0  0  0  0  0  0  0  0  0  0
  -23.7096  -28.1097   24.4220 C   0  0  0  0  0  0  0  0  0  0  0  0
  -20.7498  -27.1440   23.5116 C   0  0  0  0  0  0  0  0  0  0  0  0
  -27.8558  -20.7509   23.7344 C   0  0  0  0  0  0  0  0  0  0  0  0
  -18.7894  -24.7053   22.1489 C   0  0  0  0  0  0  0  0  0  0  0  0
  -30.7203  -14.6818   20.6965 C   0  0  0  0  0  0  0  0  0  0  0  0
  -24.0412  -32.8103   26.3848 C   0  0  0  0  0  0  0  0  0  0  0  0
  -24.1325  -27.3561   22.0536 C   0  0  0  0  0  0  0  0  0  0  0  0
  -22.5463  -25.3735   23.5697 C   0  0  0  0  0  0  0  0  0  0  0  0
  -22.9954  -31.6982   26.3853 C   0  0  0  0  0  0  0  0  0  0  0  0
  -29.6087  -12.2150   18.3821 C   0  0  0  0  0  0  0  0  0  0  0  0
  -23.6334  -30.3656   26.7645 C   0  0  0  0  0  0  0  0  0  0  0  0
  -28.1563  -11.9613   18.7924 C   0  0  0  0  0  0  0  0  0  0  0  0
  -30.5048  -12.4654   19.5937 C   0  0  0  0  0  0  0  0  0  0  0  0
  -28.5851  -13.2645   20.9148 C   0  0  0  0  0  0  0  0  0  0  0  0
  -24.7099  -29.9608   25.7501 C   0  0  1  0  0  0  0  0  0  0  0  0
  -23.0967  -27.7798   23.0905 C   0  0  1  0  0  0  0  0  0  0  0  0
  -27.6318  -13.0713   19.7242 C   0  0  2  0  0  0  0  0  0  0  0  0
  -32.5563  -19.2894   25.0828 C   0  0  0  0  0  0  0  0  0  0  0  0
  -28.4047  -17.4905   22.9112 C   0  0  0  0  0  0  0  0  0  0  0  0
  -16.4025  -24.1910   21.5696 C   0  0  0  0  0  0  0  0  0  0  0  0
  -20.1481  -26.6288   26.4582 C   0  0  0  0  0  0  0  0  0  0  0  0
  -18.1763  -25.2610   25.7446 C   0  0  0  0  0  0  0  0  0  0  0  0
  -18.2773  -27.6891   25.1814 C   0  0  0  0  0  0  0  0  0  0  0  0
  -30.2670  -21.2185   23.2659 C   0  0  0  0  0  0  0  0  0  0  0  0
  -19.4258  -24.4287   19.2719 C   0  0  0  0  0  0  0  0  0  0  0  0
  -29.6623  -19.3438   24.7451 C   0  0  0  0  0  0  0  0  0  0  0  0
  -27.5114  -21.9297   22.8486 C   0  0  0  0  0  0  0  0  0  1  0  0
  -19.7896  -26.0701   23.9632 C   0  0  1  0  0  0  0  0  0  0  0  0
  -17.7230  -24.7560   21.0697 C   0  0  2  0  0  0  0  0  0  0  0  0
  -19.1240  -26.4059   25.3276 C   0  0  0  0  0  0  0  0  0  0  0  0
  -25.8061  -11.5296   20.3337 N   0  0  0  0  0  0  0  0  0  0  0  0
  -26.2078  -12.8021   20.1734 N   0  0  0  0  0  0  0  0  0  0  0  0
  -22.0832  -26.7504   23.3303 N   0  0  0  0  0  0  0  0  0  0  0  0
  -29.9475  -13.5322   20.4281 N   0  0  0  0  0  0  0  0  0  0  0  0
  -25.4759  -15.0488   20.3381 N   0  0  0  0  0  0  0  0  0  0  0  0
  -21.8263  -12.6737   21.5361 N   0  0  0  0  0  0  0  0  0  0  0  0
  -30.0739  -15.6426   21.4734 N   0  0  0  0  0  0  0  0  0  0  0  0
  -24.0994  -29.4292   24.5505 N   0  0  0  0  0  0  0  0  0  0  0  0
  -18.8447  -25.8806   22.8679 N   0  0  0  0  0  0  0  0  0  0  0  0
  -29.2072  -20.4505   23.9076 N   0  0  0  0  0  0  0  0  0  0  0  0
  -18.1517  -23.9667   19.8805 N   0  3  0  0  0  0  0  0  0  0  0  0
  -22.6445  -14.7903   21.2058 O   0  0  0  0  0  0  0  0  0  0  0  0
  -23.8194  -27.2325   25.2706 O   0  0  0  0  0  0  0  0  0  0  0  0
  -20.3307  -28.2882   23.3198 O   0  0  0  0  0  0  0  0  0  0  0  0
  -26.9368  -20.1189   24.2646 O   0  0  0  0  0  0  0  0  0  0  0  0
  -19.4997  -23.7202   22.3379 O   0  0  0  0  0  0  0  0  0  0  0  0
  -31.8608  -14.8168   20.2459 O   0  0  0  0  0  0  0  0  0  0  0  0
  -21.4536   -7.1220   21.8093 O   0  0  0  0  0  0  0  0  0  0  0  0
  -26.0948  -22.0944   22.7992 O   0  0  0  0  0  0  0  0  0  1  0  0
  -23.7597   -3.1176   24.8177 F   0  0  0  0  0  0  0  0  0  0  0  0
  -20.3472   -6.3430   24.2200 F   0  0  0  0  0  0  0  0  0  0  0  0
  1  2  1  0  0  0  0
  1  5  2  0  0  0  0
  2  6  2  0  0  0  0
  3 10  2  0  0  0  0
  3 17  1  0  0  0  0
  4 11  1  0  0  0  0
  4 17  2  0  0  0  0
  5 19  1  0  0  0  0
  6 21  1  0  0  0  0
  7 12  2  0  0  0  0
  7 20  1  0  0  0  0
  8  9  1  0  0  0  0
  8 23  2  0  0  0  0
  9 26  2  0  0  0  0
 10 27  1  0  0  0  0
 11 27  2  0  0  0  0
 12 28  1  0  0  0  0
 13 14  2  0  0  0  0
 13 29  1  0  0  0  0
 14 30  1  0  0  0  0
 15 22  1  0  0  0  0
 15 28  2  0  0  0  0
 16 30  2  0  0  0  0
 16 31  1  0  0  0  0
 17 32  1  0  0  0  0
 18 32  1  0  0  0  0
 18 33  2  0  0  0  0
 18 34  1  0  0  0  0
 19 21  2  0  0  0  0
 19 40  1  0  0  0  0
 20 22  2  0  0  0  0
 20 41  1  0  0  0  0
 21 49  1  0  0  0  0
 22 42  1  0  0  0  0
 23 24  1  0  0  0  0
 23 52  1  0  0  0  0
 24 25  2  0  0  0  0
 24 60  1  0  0  0  0
 25 26  1  0  0  0  0
 25 53  1  0  0  0  0
 26 71  1  0  0  0  0
 27 82  1  0  0  0  0
 28 83  1  0  0  0  0
 29 31  2  0  0  0  0
 29 82  1  0  0  0  0
 30 84  1  0  0  0  0
 31 85  1  0  0  0  0
 32 65  2  0  0  0  0
 33 66  1  0  0  0  0
 33 69  1  0  0  0  0
 34 70  1  0  0  0  0
 34 76  2  0  0  0  0
 35 50  1  0  0  0  0
 35 72  1  0  0  0  0
 35 77  2  0  0  0  0
 36 62  1  0  0  0  0
 36 67  1  0  0  0  0
 36 78  2  0  0  0  0
 37 61  1  0  0  0  0
 37 74  1  0  0  0  0
 37 79  2  0  0  0  0
 38 63  1  0  0  0  0
 38 73  1  0  0  0  0
 38 80  2  0  0  0  0
 39 68  1  0  0  0  0
 39 71  1  0  0  0  0
 39 81  2  0  0  0  0
 40 43  1  0  0  0  0
 41 50  1  0  0  0  0
 42 67  1  0  0  0  0
 43 45  1  0  0  0  0
 44 46  1  0  0  0  0
 44 47  1  0  0  0  0
 45 49  1  0  0  0  0
 46 51  1  0  0  0  0
 47 68  1  0  0  0  0
 48 51  1  0  0  0  0
 48 68  1  0  0  0  0
 49 72  1  0  0  0  0
 50 67  1  0  0  0  0
 51 66  1  0  0  0  0
 54 63  1  0  0  0  0
 55 64  1  0  0  0  0
 56 64  1  0  0  0  0
 57 64  1  0  0  0  0
 58 74  1  0  0  0  0
 59 75  1  0  0  0  0
 60 74  1  0  0  0  0
 61 83  1  0  0  0  0
 62 64  1  0  0  0  0
 62 73  1  0  0  0  0
 63 75  1  0  0  0  0
 65 66  1  0  0  0  0
M  CHG  1  75   1
M  ISO  4  39 100  61 101  71 100  83 101
M  END
> <Batch ID>
0054

> <Smiles>
CNC(C)C(=O)NC(C(=O)N1Cc2cc([101O:1][101CH2:1]C(=O)N(C)Cc3c(C)ccc([100NH:0][100C:0](=O)N4CCCC(n5nc(-c6ccc(Oc7ccc(F)cc7F)cc6)c(C(N)=O)c5N)C4)c3C)ccc2CC1C(=O)NC1CCCc2ccccc21)C(C)(C)C

> <Shape>
0.276

> <Color>
0.202

> <Negative vol penalty>
0.000

$$$$

  -OEChem-04042322463D

 83 91  0     1  0  0  0  0  0999 V2000
  -18.7313  -27.0391   25.9742 C   0  0  0  0  0  0  0  0  0  0  0  0
  -19.9648  -26.5486   25.5579 C   0  0  0  0  0  0  0  0  0  0  0  0
  -24.5069   -9.2481   21.1146 C   0  0  0  0  0  0  0  0  0  0  0  0
  -22.5298  -10.5473   20.6243 C   0  0  0  0  0  0  0  0  0  0  0  0
  -17.9826  -27.8518   25.1240 C   0  0  0  0  0  0  0  0  0  0  0  0
  -20.4498  -26.8696   24.2905 C   0  0  0  0  0  0  0  0  0  0  0  0
  -26.2948  -27.7863   22.7090 C   0  0  0  0  0  0  0  0  0  0  0  0
  -28.2455  -20.8011   17.7018 C   0  0  0  0  0  0  0  0  0  0  0  0
  -27.1752  -20.0361   17.2383 C   0  0  0  0  0  0  0  0  0  0  0  0
  -23.7079   -8.1434   21.4092 C   0  0  0  0  0  0  0  0  0  0  0  0
  -21.7308   -9.4425   20.9189 C   0  0  0  0  0  0  0  0  0  0  0  0
  -27.2442  -26.9613   22.1074 C   0  0  0  0  0  0  0  0  0  0  0  0
  -21.8103   -7.0590   23.9875 C   0  0  0  0  0  0  0  0  0  0  0  0
  -22.1126   -6.3297   25.1374 C   0  0  0  0  0  0  0  0  0  0  0  0
  -26.7030  -27.9153   19.9589 C   0  0  0  0  0  0  0  0  0  0  0  0
  -27.9214  -19.9086   19.9234 C   0  0  0  0  0  0  0  0  0  0  0  0
  -22.4738   -4.3565   23.7910 C   0  0  0  0  0  0  0  0  0  0  0  0
  -23.9178  -10.4501   20.7222 C   0  0  0  0  0  0  0  0  0  0  0  0
  -25.2825  -11.9412   19.1660 C   0  0  0  0  0  0  0  0  0  0  0  0
  -18.4631  -28.1908   23.8493 C   0  0  0  0  0  0  0  0  0  0  0  0
  -25.5334  -28.6757   21.9372 C   0  0  0  0  0  0  0  0  0  0  0  0
  -19.7062  -27.6865   23.4219 C   0  0  0  0  0  0  0  0  0  0  0  0
  -25.7464  -28.7523   20.5534 C   0  0  0  0  0  0  0  0  0  0  0  0
  -28.6186  -20.7373   19.0443 C   0  0  0  0  0  0  0  0  0  0  0  0
  -26.4779  -19.2074   18.1173 C   0  0  0  0  0  0  0  0  0  0  0  0
  -26.8510  -19.1437   19.4599 C   0  0  0  0  0  0  0  0  0  0  0  0
  -22.3199   -8.2405   21.3114 C   0  0  0  0  0  0  0  0  0  0  0  0
  -27.4464  -27.0237   20.7318 C   0  0  0  0  0  0  0  0  0  0  0  0
  -21.8396   -6.4371   22.7393 C   0  0  0  0  0  0  0  0  0  0  0  0
  -22.4444   -4.9785   25.0392 C   0  0  0  0  0  0  0  0  0  0  0  0
  -22.1714   -5.0858   22.6410 C   0  0  0  0  0  0  0  0  0  0  0  0
  -24.7426  -11.5918   20.4182 C   0  0  0  0  0  0  0  0  0  0  0  0
  -25.9827  -13.0985   19.4048 C   0  0  0  0  0  0  0  0  0  0  0  0
  -25.1619  -11.2790   17.9000 C   0  0  0  0  0  0  0  0  0  0  0  0
  -22.4348  -29.0242   21.3200 C   0  0  0  0  0  0  0  0  0  0  0  0
  -23.4382  -31.7066   19.7968 C   0  0  0  0  0  0  0  0  0  0  0  0
  -29.0641  -23.9383   19.7261 C   0  0  0  0  0  0  0  0  0  0  0  0
  -25.9731  -33.3761   18.2367 C   0  0  0  0  0  0  0  0  0  0  0  0
  -26.4121  -18.1402   21.7285 C   0  0  0  0  0  0  0  0  0  0  0  0
  -17.5965  -29.0338   22.9474 C   0  0  0  0  0  0  0  0  0  0  0  0
  -24.5321  -29.5779   22.6049 C   0  0  0  0  0  0  0  0  0  0  0  0
  -24.9693  -29.7046   19.6830 C   0  0  0  0  0  0  0  0  0  0  0  0
  -18.3515  -29.6335   21.7639 C   0  0  0  0  0  0  0  0  0  0  0  0
  -27.2523  -15.3406   23.7617 C   0  0  0  0  0  0  0  0  0  0  0  0
  -19.2210  -28.5746   21.0935 C   0  0  0  0  0  0  0  0  0  0  0  0
  -26.7187  -14.1445   22.9701 C   0  0  0  0  0  0  0  0  0  0  0  0
  -26.3342  -16.5556   23.6412 C   0  0  0  0  0  0  0  0  0  0  0  0
  -25.4757  -15.7582   21.4741 C   0  0  0  0  0  0  0  0  0  0  0  0
  -20.2774  -28.0328   22.0640 C   0  0  1  0  0  0  0  0  0  0  0  0
  -23.4514  -30.0797   21.6521 C   0  0  1  0  0  0  0  0  0  0  0  0
  -26.4002  -14.5304   21.5123 C   0  0  2  0  0  0  0  0  0  0  0  0
  -25.3349  -18.3999   17.5932 C   0  0  0  0  0  0  0  0  0  0  0  0
  -26.4805  -35.5349   17.0622 C   0  0  0  0  0  0  0  0  0  0  0  0
  -21.9515  -30.7090   17.3261 C   0  0  0  0  0  0  0  0  0  0  0  0
  -23.2500  -32.3602   15.9638 C   0  0  0  0  0  0  0  0  0  0  0  0
  -21.7198  -33.1603   17.7640 C   0  0  0  0  0  0  0  0  0  0  0  0
  -28.0366  -34.1087   20.2278 C   0  0  0  0  0  0  0  0  0  0  0  0
  -29.7710  -21.5609   19.5423 C   0  0  0  0  0  0  0  0  0  0  0  0
  -28.6189  -24.9547   20.7558 C   0  0  0  0  0  0  0  0  0  1  0  0
  -23.8932  -32.0332   18.3949 C   0  0  1  0  0  0  0  0  0  0  0  0
  -26.4895  -34.7953   18.3910 C   0  0  2  0  0  0  0  0  0  0  0  0
  -22.7171  -32.0462   17.3781 C   0  0  0  0  0  0  0  0  0  0  0  0
  -25.0717  -12.4569   21.3812 N   0  0  0  0  0  0  0  0  0  0  0  0
  -25.8260  -13.3614   20.7339 N   0  0  0  0  0  0  0  0  0  0  0  0
  -23.9972  -30.5616   20.3817 N   0  0  0  0  0  0  0  0  0  0  0  0
  -26.0801  -16.8647   22.2323 N   0  0  0  0  0  0  0  0  0  0  0  0
  -26.7110  -13.9066   18.6055 N   0  0  0  0  0  0  0  0  0  0  0  0
  -24.4056  -10.1010   17.8316 N   0  0  0  0  0  0  0  0  0  0  0  0
  -26.1556  -18.3074   20.3681 N   0  0  0  0  0  0  0  0  0  0  0  0
  -21.3695  -28.9728   22.1986 N   0  0  0  0  0  0  0  0  0  0  0  0
  -29.3279  -22.7061   20.3033 N   0  0  0  0  0  0  0  0  0  0  0  0
  -24.6192  -33.2955   18.4850 N   0  0  0  0  0  0  0  0  0  0  0  0
  -27.8851  -34.7848   18.9136 N   0  3  0  0  0  0  0  0  0  0  0  0
  -25.7220  -11.7100   16.8637 O   0  0  0  0  0  0  0  0  0  0  0  0
  -22.6037  -28.3103   20.3384 O   0  0  0  0  0  0  0  0  0  0  0  0
  -22.6224  -32.4445   20.3551 O   0  0  0  0  0  0  0  0  0  0  0  0
  -29.1700  -24.2048   18.5321 O   0  0  0  0  0  0  0  0  0  0  0  0
  -26.6976  -32.4341   17.9234 O   0  0  0  0  0  0  0  0  0  0  0  0
  -26.9141  -19.0103   22.4447 O   0  0  0  0  0  0  0  0  0  0  0  0
  -21.5400   -7.1627   21.5985 O   0  0  0  0  0  0  0  0  0  0  0  0
  -28.3720  -26.2191   20.1421 O   0  0  0  0  0  0  0  0  0  1  0  0
  -22.7362   -4.2786   26.1433 F   0  0  0  0  0  0  0  0  0  0  0  0
  -22.2024   -4.4831   21.4445 F   0  0  0  0  0  0  0  0  0  0  0  0
  1  2  1  0  0  0  0
  1  5  2  0  0  0  0
  2  6  2  0  0  0  0
  3 10  2  0  0  0  0
  3 18  1  0  0  0  0
  4 11  1  0  0  0  0
  4 18  2  0  0  0  0
  5 20  1  0  0  0  0
  6 22  1  0  0  0  0
  7 12  2  0  0  0  0
  7 21  1  0  0  0  0
  8  9  2  0  0  0  0
  8 24  1  0  0  0  0
  9 25  1  0  0  0  0
 10 27  1  0  0  0  0
 11 27  2  0  0  0  0
 12 28  1  0  0  0  0
 13 14  2  0  0  0  0
 13 29  1  0  0  0  0
 14 30  1  0  0  0  0
 15 23  1  0  0  0  0
 15 28  2  0  0  0  0
 16 24  2  0  0  0  0
 16 26  1  0  0  0  0
 17 30  2  0  0  0  0
 17 31  1  0  0  0  0
 18 32  1  0  0  0  0
 19 32  1  0  0  0  0
 19 33  2  0  0  0  0
 19 34  1  0  0  0  0
 20 22  2  0  0  0  0
 20 40  1  0  0  0  0
 21 23  2  0  0  0  0
 21 41  1  0  0  0  0
 22 49  1  0  0  0  0
 23 42  1  0  0  0  0
 24 58  1  0  0  0  0
 25 26  2  0  0  0  0
 25 52  1  0  0  0  0
 26 69  1  0  0  0  0
 27 80  1  0  0  0  0
 28 81  1  0  0  0  0
 29 31  2  0  0  0  0
 29 80  1  0  0  0  0
 30 82  1  0  0  0  0
 31 83  1  0  0  0  0
 32 63  2  0  0  0  0
 33 64  1  0  0  0  0
 33 67  1  0  0  0  0
 34 68  1  0  0  0  0
 34 74  2  0  0  0  0
 35 50  1  0  0  0  0
 35 70  1  0  0  0  0
 35 75  2  0  0  0  0
 36 60  1  0  0  0  0
 36 65  1  0  0  0  0
 36 76  2  0  0  0  0
 37 59  1  0  0  0  0
 37 71  1  0  0  0  0
 37 77  2  0  0  0  0
 38 61  1  0  0  0  0
 38 72  1  0  0  0  0
 38 78  2  0  0  0  0
 39 66  1  0  0  0  0
 39 69  1  0  0  0  0
 39 79  2  0  0  0  0
 40 43  1  0  0  0  0
 41 50  1  0  0  0  0
 42 65  1  0  0  0  0
 43 45  1  0  0  0  0
 44 46  1  0  0  0  0
 44 47  1  0  0  0  0
 45 49  1  0  0  0  0
 46 51  1  0  0  0  0
 47 66  1  0  0  0  0
 48 51  1  0  0  0  0
 48 66  1  0  0  0  0
 49 70  1  0  0  0  0
 50 65  1  0  0  0  0
 51 64  1  0  0  0  0
 53 61  1  0  0  0  0
 54 62  1  0  0  0  0
 55 62  1  0  0  0  0
 56 62  1  0  0  0  0
 57 73  1  0  0  0  0
 58 71  1  0  0  0  0
 59 81  1  0  0  0  0
 60 62  1  0  0  0  0
 60 72  1  0  0  0  0
 61 73  1  0  0  0  0
 63 64  1  0  0  0  0
M  CHG  1  73   1
M  ISO  4  39 100  59 101  69 100  81 101
M  END
> <Batch ID>
0054

> <Smiles>
CNC(C)C(=O)NC(C(=O)N1Cc2cc([101O:1][101CH2:1]C(=O)NCc3ccc(C)c([100NH:0][100C:0](=O)N4CCCC(n5nc(-c6ccc(Oc7ccc(F)cc7F)cc6)c(C(N)=O)c5N)C4)c3)ccc2CC1C(=O)NC1CCCc2ccccc21)C(C)(C)C

> <Shape>
0.253

> <Color>
0.131

> <Negative vol penalty>
0.000

$$$$

  -OEChem-04042322463D

 86 95  0     1  0  0  0  0  0999 V2000
  -22.3198  -17.6798   22.1663 C   0  0  0  0  0  0  0  0  0  0  0  0
  -22.9191  -18.6473   21.3662 C   0  0  0  0  0  0  0  0  0  0  0  0
  -25.9561  -14.1397   21.4536 C   0  0  0  0  0  0  0  0  0  0  0  0
  -25.6723  -15.6709   19.6065 C   0  0  0  0  0  0  0  0  0  0  0  0
  -21.0863  -17.9368   22.7633 C   0  0  0  0  0  0  0  0  0  0  0  0
  -22.2847  -19.8721   21.1618 C   0  0  0  0  0  0  0  0  0  0  0  0
  -25.4553  -23.7975   21.5899 C   0  0  0  0  0  0  0  0  0  0  0  0
  -30.2962  -23.2137   15.0270 C   0  0  0  0  0  0  0  0  0  0  0  0
  -24.5892  -13.8625   21.4339 C   0  0  0  0  0  0  0  0  0  0  0  0
  -24.3053  -15.3937   19.5867 C   0  0  0  0  0  0  0  0  0  0  0  0
  -26.2941  -24.0595   20.5075 C   0  0  0  0  0  0  0  0  0  0  0  0
  -22.4563  -11.9753   19.6112 C   0  0  0  0  0  0  0  0  0  0  0  0
  -30.1105  -21.8401   14.8711 C   0  0  0  0  0  0  0  0  0  0  0  0
  -22.0642  -10.6400   19.7048 C   0  0  0  0  0  0  0  0  0  0  0  0
  -24.8056  -25.8156   19.7868 C   0  0  0  0  0  0  0  0  0  0  0  0
  -30.8534  -22.8743   17.3533 C   0  0  0  0  0  0  0  0  0  0  0  0
  -20.8406  -11.1410   21.7269 C   0  0  0  0  0  0  0  0  0  0  0  0
  -26.4976  -15.0439   20.5399 C   0  0  0  0  0  0  0  0  0  0  0  0
  -28.9653  -14.4186   20.3750 C   0  0  0  0  0  0  0  0  0  0  0  0
  -20.4410  -19.1691   22.5739 C   0  0  0  0  0  0  0  0  0  0  0  0
  -24.2778  -24.5366   21.7731 C   0  0  0  0  0  0  0  0  0  0  0  0
  -21.0408  -20.1454   21.7557 C   0  0  0  0  0  0  0  0  0  0  0  0
  -23.9549  -25.5628   20.8737 C   0  0  0  0  0  0  0  0  0  0  0  0
  -30.6677  -23.7308   16.2681 C   0  0  0  0  0  0  0  0  0  0  0  0
  -30.6676  -21.5006   17.1973 C   0  0  0  0  0  0  0  0  0  0  0  0
  -23.7638  -14.4895   20.5005 C   0  0  0  0  0  0  0  0  0  0  0  0
  -25.9679  -25.0667   19.6041 C   0  0  0  0  0  0  0  0  0  0  0  0
  -22.0406  -12.8935   20.5755 C   0  0  0  0  0  0  0  0  0  0  0  0
  -21.2563  -10.2228   20.7626 C   0  0  0  0  0  0  0  0  0  0  0  0
  -30.2962  -20.9836   15.9562 C   0  0  0  0  0  0  0  0  0  0  0  0
  -21.2327  -12.4764   21.6333 C   0  0  0  0  0  0  0  0  0  0  0  0
  -27.9094  -15.3311   20.5602 C   0  0  0  0  0  0  0  0  0  0  0  0
  -30.1019  -15.1816   20.4857 C   0  0  0  0  0  0  0  0  0  0  0  0
  -29.8154  -25.9691   18.5296 C   0  0  0  0  0  0  0  0  0  0  0  0
  -28.9224  -13.0074   20.1253 C   0  0  0  0  0  0  0  0  0  0  0  0
  -21.1779  -23.8368   21.8420 C   0  0  0  0  0  0  0  0  0  0  0  0
  -20.8912  -26.9541   22.6921 C   0  0  0  0  0  0  0  0  0  0  0  0
  -22.3635  -30.0978   21.7089 C   0  0  0  0  0  0  0  0  0  0  0  0
  -31.2266  -20.9827   19.5985 C   0  0  0  0  0  0  0  0  0  0  0  0
  -19.0864  -19.3832   23.2015 C   0  0  0  0  0  0  0  0  0  0  0  0
  -23.3973  -24.2596   22.9607 C   0  0  0  0  0  0  0  0  0  0  0  0
  -22.7127  -26.3987   21.0370 C   0  0  0  0  0  0  0  0  0  0  0  0
  -28.6611  -26.6913   19.2037 C   0  0  0  0  0  0  0  0  0  0  0  0
  -18.6568  -20.8476   23.2384 C   0  0  0  0  0  0  0  0  0  0  0  0
  -31.7603  -19.1451   22.6011 C   0  0  0  0  0  0  0  0  0  0  0  0
  -18.9044  -21.5107   21.8872 C   0  0  0  0  0  0  0  0  0  0  0  0
  -30.9343  -17.8727   22.3990 C   0  0  0  0  0  0  0  0  0  0  0  0
  -27.5493  -27.0057   17.0044 C   0  0  0  0  0  0  0  0  0  0  0  0
  -31.0713  -20.3697   22.0016 C   0  0  0  0  0  0  0  0  0  0  0  0
  -28.5500  -26.0661   16.3543 C   0  0  0  0  0  0  0  0  0  0  0  0
  -29.8499  -18.9603   20.3920 C   0  0  0  0  0  0  0  0  0  0  0  0
  -20.3956  -21.4955   21.5301 C   0  0  1  0  0  0  0  0  0  0  0  0
  -21.9601  -24.7310   22.7619 C   0  0  1  0  0  0  0  0  0  0  0  0
  -30.5337  -17.6894   20.9220 C   0  0  2  0  0  0  0  0  0  0  0  0
  -27.3397  -26.6327   18.4594 C   0  0  1  0  0  0  0  0  0  1  0  0
  -22.6824  -32.2251   23.0014 C   0  0  0  0  0  0  0  0  0  0  0  0
  -18.2346  -27.7752   21.4357 C   0  0  0  0  0  0  0  0  0  0  0  0
  -19.1441  -30.0956   21.1978 C   0  0  0  0  0  0  0  0  0  0  0  0
  -18.8792  -29.0880   23.4643 C   0  0  0  0  0  0  0  0  0  0  0  0
  -25.2735  -30.1255   21.1699 C   0  0  0  0  0  0  0  0  0  0  0  0
  -30.8667  -25.2095   16.4355 C   0  0  0  0  0  0  0  0  0  0  0  0
  -20.7200  -28.2546   21.9448 C   0  0  1  0  0  0  0  0  0  0  0  0
  -23.3344  -30.9391   22.5178 C   0  0  2  0  0  0  0  0  0  0  0  0
  -19.2581  -28.7812   21.9991 C   0  0  0  0  0  0  0  0  0  0  0  0
  -28.3372  -16.5785   20.7725 N   0  0  0  0  0  0  0  0  0  0  0  0
  -29.6745  -16.4551   20.7215 N   0  0  0  0  0  0  0  0  0  0  0  0
  -29.7569  -25.8322   17.1449 N   0  0  0  0  0  0  0  0  0  0  0  0
  -21.8807  -26.0852   22.2105 N   0  0  0  0  0  0  0  0  0  0  0  0
  -30.7251  -20.1246   20.5999 N   0  0  0  0  0  0  0  0  0  0  0  0
  -31.4154  -14.8807   20.4033 N   0  0  0  0  0  0  0  0  0  0  0  0
  -27.6713  -12.3814   20.0414 N   0  0  0  0  0  0  0  0  0  0  0  0
  -30.8574  -20.6317   18.3004 N   0  0  0  0  0  0  0  0  0  0  0  0
  -21.1016  -22.5234   22.2646 N   0  0  0  0  0  0  0  0  0  0  0  0
  -21.7077  -29.1756   22.4967 N   0  0  0  0  0  0  0  0  0  0  0  0
  -24.5227  -31.2961   21.6923 N   0  3  0  0  0  0  0  0  0  0  0  0
  -30.7748  -25.6095   19.2183 O   0  0  0  0  0  0  0  0  0  0  0  0
  -29.9632  -12.3189   19.9971 O   0  0  0  0  0  0  0  0  0  0  0  0
  -20.6793  -24.3042   20.8248 O   0  0  0  0  0  0  0  0  0  0  0  0
  -20.1783  -26.7210   23.6714 O   0  0  0  0  0  0  0  0  0  0  0  0
  -22.2004  -30.2466   20.4999 O   0  0  0  0  0  0  0  0  0  0  0  0
  -31.9541  -21.9414   19.8701 O   0  0  0  0  0  0  0  0  0  0  0  0
  -22.4300  -14.2190   20.4808 O   0  0  0  0  0  0  0  0  0  0  0  0
  -26.7845  -25.3240   18.5464 O   0  0  0  0  0  0  0  0  0  1  0  0
  -20.8786   -8.9408   20.8515 F   0  0  0  0  0  0  0  0  0  0  0  0
  -30.1143  -19.6651   15.7947 F   0  0  0  0  0  0  0  0  0  0  0  0
  -20.8292  -13.3541   22.5621 F   0  0  0  0  0  0  0  0  0  0  0  0
  1  2  1  0  0  0  0
  1  5  2  0  0  0  0
  2  6  2  0  0  0  0
  3  9  2  0  0  0  0
  3 18  1  0  0  0  0
  4 10  1  0  0  0  0
  4 18  2  0  0  0  0
  5 20  1  0  0  0  0
  6 22  1  0  0  0  0
  7 11  2  0  0  0  0
  7 21  1  0  0  0  0
  8 13  2  0  0  0  0
  8 24  1  0  0  0  0
  9 26  1  0  0  0  0
 10 26  2  0  0  0  0
 11 27  1  0  0  0  0
 12 14  2  0  0  0  0
 12 28  1  0  0  0  0
 13 30  1  0  0  0  0
 14 29  1  0  0  0  0
 15 23  1  0  0  0  0
 15 27  2  0  0  0  0
 16 24  2  0  0  0  0
 16 25  1  0  0  0  0
 17 29  2  0  0  0  0
 17 31  1  0  0  0  0
 18 32  1  0  0  0  0
 19 32  1  0  0  0  0
 19 33  2  0  0  0  0
 19 35  1  0  0  0  0
 20 22  2  0  0  0  0
 20 40  1  0  0  0  0
 21 23  2  0  0  0  0
 21 41  1  0  0  0  0
 22 52  1  0  0  0  0
 23 42  1  0  0  0  0
 24 61  1  0  0  0  0
 25 30  2  0  0  0  0
 25 72  1  0  0  0  0
 26 82  1  0  0  0  0
 27 83  1  0  0  0  0
 28 31  2  0  0  0  0
 28 82  1  0  0  0  0
 29 84  1  0  0  0  0
 30 85  1  0  0  0  0
 31 86  1  0  0  0  0
 32 65  2  0  0  0  0
 33 66  1  0  0  0  0
 33 70  1  0  0  0  0
 34 43  1  0  0  0  0
 34 67  1  0  0  0  0
 34 76  2  0  0  0  0
 35 71  1  0  0  0  0
 35 77  2  0  0  0  0
 36 53  1  0  0  0  0
 36 73  1  0  0  0  0
 36 78  2  0  0  0  0
 37 62  1  0  0  0  0
 37 68  1  0  0  0  0
 37 79  2  0  0  0  0
 38 63  1  0  0  0  0
 38 74  1  0  0  0  0
 38 80  2  0  0  0  0
 39 69  1  0  0  0  0
 39 72  1  0  0  0  0
 39 81  2  0  0  0  0
 40 44  1  0  0  0  0
 41 53  1  0  0  0  0
 42 68  1  0  0  0  0
 43 55  1  0  0  0  0
 44 46  1  0  0  0  0
 45 47  1  0  0  0  0
 45 49  1  0  0  0  0
 46 52  1  0  0  0  0
 47 54  1  0  0  0  0
 48 50  1  0  0  0  0
 48 55  1  0  0  0  0
 49 69  1  0  0  0  0
 50 67  1  0  0  0  0
 51 54  1  0  0  0  0
 51 69  1  0  0  0  0
 52 73  1  0  0  0  0
 53 68  1  0  0  0  0
 54 66  1  0  0  0  0
 55 83  1  0  0  0  0
 56 63  1  0  0  0  0
 57 64  1  0  0  0  0
 58 64  1  0  0  0  0
 59 64  1  0  0  0  0
 60 75  1  0  0  0  0
 61 67  1  0  0  0  0
 62 64  1  0  0  0  0
 62 74  1  0  0  0  0
 63 75  1  0  0  0  0
 65 66  1  0  0  0  0
M  CHG  1  75   1
M  ISO  4  39 100  55 101  72 100  83 101
M  END
> <Batch ID>
0054

> <Smiles>
CNC(C)C(=O)NC(C(=O)N1Cc2cc([101O:1][101CH:1]3CCN(Cc4ccc(F)c([100NH:0][100C:0](=O)N5CCCC(n6nc(-c7ccc(Oc8ccc(F)cc8F)cc7)c(C(N)=O)c6N)C5)c4)C(=O)C3)ccc2CC1C(=O)NC1CCCc2ccccc21)C(C)(C)C

> <Shape>
0.240

> <Color>
0.064

> <Negative vol penalty>
0.000

$$$$

  -OEChem-04042322463D

 87 96  0     1  0  0  0  0  0999 V2000
  -31.2615  -29.3403   23.6821 C   0  0  0  0  0  0  0  0  0  0  0  0
  -30.6268  -28.3832   24.4674 C   0  0  0  0  0  0  0  0  0  0  0  0
  -22.8461  -10.1055   20.1104 C   0  0  0  0  0  0  0  0  0  0  0  0
  -24.2789   -9.5479   21.9741 C   0  0  0  0  0  0  0  0  0  0  0  0
  -32.1183  -28.9423   22.6567 C   0  0  0  0  0  0  0  0  0  0  0  0
  -30.8477  -27.0276   24.2269 C   0  0  0  0  0  0  0  0  0  0  0  0
  -31.2874  -20.7498   27.6493 C   0  0  0  0  0  0  0  0  0  0  0  0
  -33.6652  -11.9554   24.6506 C   0  0  0  0  0  0  0  0  0  0  0  0
  -32.8717  -12.2851   23.5519 C   0  0  0  0  0  0  0  0  0  0  0  0
  -22.1382   -8.9186   20.2995 C   0  0  0  0  0  0  0  0  0  0  0  0
  -23.5709   -8.3610   22.1633 C   0  0  0  0  0  0  0  0  0  0  0  0
  -30.7616  -19.4594   27.6042 C   0  0  0  0  0  0  0  0  0  0  0  0
  -20.6420   -7.4039   23.5509 C   0  0  0  0  0  0  0  0  0  0  0  0
  -20.2850   -7.0649   24.8560 C   0  0  0  0  0  0  0  0  0  0  0  0
  -32.3240  -18.8902   25.8566 C   0  0  0  0  0  0  0  0  0  0  0  0
  -30.9634  -12.5506   25.0097 C   0  0  0  0  0  0  0  0  0  0  0  0
  -21.5556   -5.0183   24.6719 C   0  0  0  0  0  0  0  0  0  0  0  0
  -23.9165  -10.4201   20.9477 C   0  0  0  0  0  0  0  0  0  0  0  0
  -24.1406  -12.9574   20.8084 C   0  0  0  0  0  0  0  0  0  0  0  0
  -32.3573  -27.5813   22.4098 C   0  0  0  0  0  0  0  0  0  0  0  0
  -32.3299  -21.1240   26.7893 C   0  0  0  0  0  0  0  0  0  0  0  0
  -31.7074  -26.6110   23.1964 C   0  0  0  0  0  0  0  0  0  0  0  0
  -32.8630  -20.1853   25.8945 C   0  0  0  0  0  0  0  0  0  0  0  0
  -33.1078  -11.9231   25.9289 C   0  0  0  0  0  0  0  0  0  0  0  0
  -31.7569  -12.2207   26.1085 C   0  0  0  0  0  0  0  0  0  0  0  0
  -31.5208  -12.5828   23.7314 C   0  0  0  0  0  0  0  0  0  0  0  0
  -22.5006   -8.0464   21.3260 C   0  0  0  0  0  0  0  0  0  0  0  0
  -31.2779  -18.5302   26.7058 C   0  0  0  0  0  0  0  0  0  0  0  0
  -21.4557   -6.5500   22.8063 C   0  0  0  0  0  0  0  0  0  0  0  0
  -20.7419   -5.8721   25.4165 C   0  0  0  0  0  0  0  0  0  0  0  0
  -21.9125   -5.3572   23.3668 C   0  0  0  0  0  0  0  0  0  0  0  0
  -24.6486  -11.6457   20.7525 C   0  0  0  0  0  0  0  0  0  0  0  0
  -25.2280  -13.7577   20.5561 C   0  0  0  0  0  0  0  0  0  0  0  0
  -28.7711  -12.6995   27.9460 C   0  0  0  0  0  0  0  0  0  0  0  0
  -22.8053  -13.4118   21.0655 C   0  0  0  0  0  0  0  0  0  0  0  0
  -32.6676  -23.2819   24.4800 C   0  0  0  0  0  0  0  0  0  0  0  0
  -35.7551  -22.2884   24.5376 C   0  0  0  0  0  0  0  0  0  0  0  0
  -37.9923  -19.8253   25.2956 C   0  0  0  0  0  0  0  0  0  0  0  0
  -31.1106  -12.9997   21.2811 C   0  0  0  0  0  0  0  0  0  0  0  0
  -33.2549  -27.1988   21.2597 C   0  0  0  0  0  0  0  0  0  0  0  0
  -32.9041  -22.5120   26.8690 C   0  0  0  0  0  0  0  0  0  0  0  0
  -33.9959  -20.5309   24.9642 C   0  0  0  0  0  0  0  0  0  0  0  0
  -27.6646  -13.7356   27.9774 C   0  0  0  0  0  0  0  0  0  0  0  0
  -33.7268  -25.7480   21.3116 C   0  0  0  0  0  0  0  0  0  0  0  0
  -28.1288  -15.1450   28.2881 C   0  0  0  0  0  0  0  0  0  0  0  0
  -29.4201  -13.7590   18.2409 C   0  0  0  0  0  0  0  0  0  0  0  0
  -32.5571  -24.8167   21.6139 C   0  0  0  0  0  0  0  0  0  0  0  0
  -27.9575  -13.4283   18.5469 C   0  0  0  0  0  0  0  0  0  0  0  0
  -30.3767  -12.7786   18.9173 C   0  0  0  0  0  0  0  0  0  0  0  0
  -30.4242  -14.5620   27.5624 C   0  0  0  0  0  0  0  0  0  0  0  0
  -28.7166  -12.2855   20.6694 C   0  0  0  0  0  0  0  0  0  0  0  0
  -31.9409  -25.1312   22.9824 C   0  0  1  0  0  0  0  0  0  0  0  0
  -33.6194  -22.9369   25.5902 C   0  0  1  0  0  0  0  0  0  0  0  0
  -29.2601  -15.5228   27.3414 C   0  0  2  0  0  0  0  0  0  0  0  0
  -27.7176  -13.2843   20.0626 C   0  0  2  0  0  0  0  0  0  0  0  0
  -33.9771  -11.5665   27.0898 C   0  0  0  0  0  0  0  0  0  0  0  0
  -40.4419  -19.2899   25.1947 C   0  0  0  0  0  0  0  0  0  0  0  0
  -35.5207  -21.7930   21.5360 C   0  0  0  0  0  0  0  0  0  0  0  0
  -37.6005  -20.4060   21.6730 C   0  0  0  0  0  0  0  0  0  0  0  0
  -37.6793  -22.8300   22.2567 C   0  0  0  0  0  0  0  0  0  0  0  0
  -38.1672  -19.5297   28.2352 C   0  0  0  0  0  0  0  0  0  0  0  0
  -31.1358  -12.1944   27.4751 C   0  0  0  0  0  0  0  0  0  0  0  0
  -29.7008  -16.9682   27.5595 C   0  0  0  0  0  0  0  0  0  1  0  0
  -36.5450  -21.2117   23.8335 C   0  0  1  0  0  0  0  0  0  0  0  0
  -39.3143  -19.8599   26.0411 C   0  0  2  0  0  0  0  0  0  0  0  0
  -36.8137  -21.5539   22.3409 C   0  0  0  0  0  0  0  0  0  0  0  0
  -25.9568  -11.6103   20.4854 N   0  0  0  0  0  0  0  0  0  0  0  0
  -26.2801  -12.9098   20.3712 N   0  0  0  0  0  0  0  0  0  0  0  0
  -30.0422  -13.1495   27.5953 N   0  0  0  0  0  0  0  0  0  0  0  0
  -34.5191  -21.9026   25.0755 N   0  0  0  0  0  0  0  0  0  0  0  0
  -30.0929  -12.6972   20.3518 N   0  0  0  0  0  0  0  0  0  0  0  0
  -25.3772  -15.0971   20.4765 N   0  0  0  0  0  0  0  0  0  0  0  0
  -21.8087  -12.4559   21.3051 N   0  0  0  0  0  0  0  0  0  0  0  0
  -30.7148  -12.9198   22.6159 N   0  0  0  0  0  0  0  0  0  0  0  0
  -32.7627  -24.5895   24.0433 N   0  0  0  0  0  0  0  0  0  0  0  0
  -37.7524  -21.0068   24.6264 N   0  0  0  0  0  0  0  0  0  0  0  0
  -39.2213  -19.0640   27.2976 N   0  3  0  0  0  0  0  0  0  0  0  0
  -28.4872  -11.5157   28.1488 O   0  0  0  0  0  0  0  0  0  0  0  0
  -22.5015  -14.6289   21.0662 O   0  0  0  0  0  0  0  0  0  0  0  0
  -31.9046  -22.4248   24.0502 O   0  0  0  0  0  0  0  0  0  0  0  0
  -36.2208  -23.4281   24.6138 O   0  0  0  0  0  0  0  0  0  0  0  0
  -37.2488  -18.8467   25.3030 O   0  0  0  0  0  0  0  0  0  0  0  0
  -32.2417  -13.3336   20.9191 O   0  0  0  0  0  0  0  0  0  0  0  0
  -21.8098   -6.8883   21.5110 O   0  0  0  0  0  0  0  0  0  0  0  0
  -30.7660  -17.2702   26.6593 O   0  0  0  0  0  0  0  0  0  1  0  0
  -20.4003   -5.5475   26.6704 F   0  0  0  0  0  0  0  0  0  0  0  0
  -22.6955   -4.5334   22.6568 F   0  0  0  0  0  0  0  0  0  0  0  0
  1  2  1  0  0  0  0
  1  5  2  0  0  0  0
  2  6  2  0  0  0  0
  3 10  2  0  0  0  0
  3 18  1  0  0  0  0
  4 11  1  0  0  0  0
  4 18  2  0  0  0  0
  5 20  1  0  0  0  0
  6 22  1  0  0  0  0
  7 12  2  0  0  0  0
  7 21  1  0  0  0  0
  8  9  2  0  0  0  0
  8 24  1  0  0  0  0
  9 26  1  0  0  0  0
 10 27  1  0  0  0  0
 11 27  2  0  0  0  0
 12 28  1  0  0  0  0
 13 14  2  0  0  0  0
 13 29  1  0  0  0  0
 14 30  1  0  0  0  0
 15 23  1  0  0  0  0
 15 28  2  0  0  0  0
 16 25  1  0  0  0  0
 16 26  2  0  0  0  0
 17 30  2  0  0  0  0
 17 31  1  0  0  0  0
 18 32  1  0  0  0  0
 19 32  1  0  0  0  0
 19 33  2  0  0  0  0
 19 35  1  0  0  0  0
 20 22  2  0  0  0  0
 20 40  1  0  0  0  0
 21 23  2  0  0  0  0
 21 41  1  0  0  0  0
 22 52  1  0  0  0  0
 23 42  1  0  0  0  0
 24 25  2  0  0  0  0
 24 56  1  0  0  0  0
 25 62  1  0  0  0  0
 26 74  1  0  0  0  0
 27 84  1  0  0  0  0
 28 85  1  0  0  0  0
 29 31  2  0  0  0  0
 29 84  1  0  0  0  0
 30 86  1  0  0  0  0
 31 87  1  0  0  0  0
 32 67  2  0  0  0  0
 33 68  1  0  0  0  0
 33 72  1  0  0  0  0
 34 43  1  0  0  0  0
 34 69  1  0  0  0  0
 34 78  2  0  0  0  0
 35 73  1  0  0  0  0
 35 79  2  0  0  0  0
 36 53  1  0  0  0  0
 36 75  1  0  0  0  0
 36 80  2  0  0  0  0
 37 64  1  0  0  0  0
 37 70  1  0  0  0  0
 37 81  2  0  0  0  0
 38 65  1  0  0  0  0
 38 76  1  0  0  0  0
 38 82  2  0  0  0  0
 39 71  1  0  0  0  0
 39 74  1  0  0  0  0
 39 83  2  0  0  0  0
 40 44  1  0  0  0  0
 41 53  1  0  0  0  0
 42 70  1  0  0  0  0
 43 45  1  0  0  0  0
 44 47  1  0  0  0  0
 45 54  1  0  0  0  0
 46 48  1  0  0  0  0
 46 49  1  0  0  0  0
 47 52  1  0  0  0  0
 48 55  1  0  0  0  0
 49 71  1  0  0  0  0
 50 54  1  0  0  0  0
 50 69  1  0  0  0  0
 51 55  1  0  0  0  0
 51 71  1  0  0  0  0
 52 75  1  0  0  0  0
 53 70  1  0  0  0  0
 54 63  1  0  0  0  0
 55 68  1  0  0  0  0
 57 65  1  0  0  0  0
 58 66  1  0  0  0  0
 59 66  1  0  0  0  0
 60 66  1  0  0  0  0
 61 77  1  0  0  0  0
 62 69  1  0  0  0  0
 63 85  1  0  0  0  0
 64 66  1  0  0  0  0
 64 76  1  0  0  0  0
 65 77  1  0  0  0  0
 67 68  1  0  0  0  0
M  CHG  1  77   1
M  ISO  4  39 100  63 101  74 100  85 101
M  END
> <Batch ID>
0054

> <Smiles>
CNC(C)C(=O)NC(C(=O)N1Cc2cc([101O:1][101CH2:1]C3CCC(=O)N(Cc4cc([100NH:0][100C:0](=O)N5CCCC(n6nc(-c7ccc(Oc8ccc(F)cc8F)cc7)c(C(N)=O)c6N)C5)ccc4C)C3)ccc2CC1C(=O)NC1CCCc2ccccc21)C(C)(C)C

> <Shape>
0.152

> <Color>
0.178

> <Negative vol penalty>
0.000

$$$$

  -OEChem-04042322463D

 86 94  0     1  0  0  0  0  0999 V2000
  -26.7495  -27.4310   19.6011 C   0  0  0  0  0  0  0  0  0  0  0  0
  -26.0141  -26.7392   20.5581 C   0  0  0  0  0  0  0  0  0  0  0  0
  -18.8573  -17.1508   22.2204 C   0  0  0  0  0  0  0  0  0  0  0  0
  -29.4012  -18.2402   19.3678 C   0  0  0  0  0  0  0  0  0  0  0  0
  -27.4272  -19.4991   19.9640 C   0  0  0  0  0  0  0  0  0  0  0  0
  -19.4784  -15.9413   21.9095 C   0  0  0  0  0  0  0  0  0  0  0  0
  -26.5424  -28.7976   19.4181 C   0  0  0  0  0  0  0  0  0  0  0  0
  -25.0718  -27.4139   21.3336 C   0  0  0  0  0  0  0  0  0  0  0  0
  -20.7114  -24.8712   21.7409 C   0  0  0  0  0  0  0  0  0  0  0  0
  -19.5716  -18.1531   22.8770 C   0  0  0  0  0  0  0  0  0  0  0  0
  -29.8131  -19.2805   18.5349 C   0  0  0  0  0  0  0  0  0  0  0  0
  -27.8391  -20.5395   19.1312 C   0  0  0  0  0  0  0  0  0  0  0  0
  -20.6772  -23.8057   22.6393 C   0  0  0  0  0  0  0  0  0  0  0  0
  -27.8303  -21.2345   15.8224 C   0  0  0  0  0  0  0  0  0  0  0  0
  -26.8760  -21.8094   14.9832 C   0  0  0  0  0  0  0  0  0  0  0  0
  -19.5787  -25.2152   24.2598 C   0  0  0  0  0  0  0  0  0  0  0  0
  -27.2336  -23.9507   16.0433 C   0  0  0  0  0  0  0  0  0  0  0  0
  -28.2081  -18.3495   20.0823 C   0  0  0  0  0  0  0  0  0  0  0  0
  -20.8137  -15.7338   22.2551 C   0  0  0  0  0  0  0  0  0  0  0  0
  -28.0859  -17.1062   22.3065 C   0  0  0  0  0  0  0  0  0  0  0  0
  -25.5903  -29.4875   20.1851 C   0  0  0  0  0  0  0  0  0  0  0  0
  -20.1884  -26.1219   22.0997 C   0  0  0  0  0  0  0  0  0  0  0  0
  -24.8527  -28.7913   21.1617 C   0  0  0  0  0  0  0  0  0  0  0  0
  -19.6052  -26.2943   23.3632 C   0  0  0  0  0  0  0  0  0  0  0  0
  -20.9069  -17.9457   23.2226 C   0  0  0  0  0  0  0  0  0  0  0  0
  -21.5280  -16.7360   22.9117 C   0  0  0  0  0  0  0  0  0  0  0  0
  -29.0321  -20.4302   18.4167 C   0  0  0  0  0  0  0  0  0  0  0  0
  -20.1134  -23.9783   23.9000 C   0  0  0  0  0  0  0  0  0  0  0  0
  -28.4862  -22.0177   16.7723 C   0  0  0  0  0  0  0  0  0  0  0  0
  -26.5776  -23.1675   15.0936 C   0  0  0  0  0  0  0  0  0  0  0  0
  -28.1878  -23.3758   16.8827 C   0  0  0  0  0  0  0  0  0  0  0  0
  -27.7818  -17.2749   20.9423 C   0  0  0  0  0  0  0  0  0  0  0  0
  -27.4486  -15.9416   22.6588 C   0  0  0  0  0  0  0  0  0  0  0  0
  -21.4487  -14.4341   21.9090 C   0  0  0  0  0  0  0  0  0  0  0  0
  -28.8740  -17.9286   23.1772 C   0  0  0  0  0  0  0  0  0  0  0  0
  -21.3921  -29.0451   22.4313 C   0  0  0  0  0  0  0  0  0  0  0  0
  -18.2832  -29.8514   22.8863 C   0  0  0  0  0  0  0  0  0  0  0  0
  -20.5180  -20.6728   25.4480 C   0  0  0  0  0  0  0  0  0  0  0  0
  -15.1433  -28.8812   23.8065 C   0  0  0  0  0  0  0  0  0  0  0  0
  -22.6809  -13.1430   20.4491 C   0  0  0  0  0  0  0  0  0  0  0  0
  -25.4352  -30.9741   19.9840 C   0  0  0  0  0  0  0  0  0  0  0  0
  -20.2089  -27.2538   21.1094 C   0  0  0  0  0  0  0  0  0  0  0  0
  -19.0119  -27.6112   23.7897 C   0  0  0  0  0  0  0  0  0  0  0  0
  -24.1522  -31.5398   20.5875 C   0  0  0  0  0  0  0  0  0  0  0  0
  -25.9572  -11.7743   20.8397 C   0  0  0  0  0  0  0  0  0  0  0  0
  -23.9493  -31.0097   22.0034 C   0  0  0  0  0  0  0  0  0  0  0  0
  -26.8320  -13.0169   21.0181 C   0  0  0  0  0  0  0  0  0  0  0  0
  -24.8239  -12.0219   19.8475 C   0  0  0  0  0  0  0  0  0  0  0  0
  -24.8539  -14.4461   20.3469 C   0  0  0  0  0  0  0  0  0  0  0  0
  -23.8040  -29.4831   22.0053 C   0  0  1  0  0  0  0  0  0  0  0  0
  -20.1104  -28.6262   21.7684 C   0  0  1  0  0  0  0  0  0  0  0  0
  -25.9811  -14.2503   21.3742 C   0  0  2  0  0  0  0  0  0  0  0  0
  -22.9608  -16.5171   23.2836 C   0  0  0  0  0  0  0  0  0  0  0  0
  -21.3696  -13.3098   22.9235 C   0  0  0  0  0  0  0  0  0  0  0  0
  -12.8173  -29.7715   24.1142 C   0  0  0  0  0  0  0  0  0  0  0  0
  -19.1399  -31.1812   25.4954 C   0  0  0  0  0  0  0  0  0  0  0  0
  -16.7359  -31.1999   26.1942 C   0  0  0  0  0  0  0  0  0  0  0  0
  -17.4549  -32.4706   24.1716 C   0  0  0  0  0  0  0  0  0  0  0  0
  -20.9787  -18.3286   26.1864 C   0  0  0  0  0  0  0  0  0  0  0  0
  -14.0452  -27.0450   21.7617 C   0  0  0  0  0  0  0  0  0  0  0  0
  -21.6538  -19.0412   23.9270 C   0  0  0  0  0  0  0  0  0  0  0  0
  -20.6392  -21.7018   24.3438 C   0  0  0  0  0  0  0  0  0  1  0  0
  -17.3671  -29.9455   24.0826 C   0  0  1  0  0  0  0  0  0  0  0  0
  -13.7896  -29.1017   23.1557 C   0  0  2  0  0  0  0  0  0  0  0  0
  -17.6873  -31.1749   24.9789 C   0  0  0  0  0  0  0  0  0  0  0  0
  -27.0113  -16.2959   20.4609 N   0  0  0  0  0  0  0  0  0  0  0  0
  -22.0617  -14.3319   20.7659 N   0  0  0  0  0  0  0  0  0  0  0  0
  -26.8260  -15.5006   21.5283 N   0  0  0  0  0  0  0  0  0  0  0  0
  -19.0616  -28.6894   22.7884 N   0  0  0  0  0  0  0  0  0  0  0  0
  -24.0645  -13.2153   20.2183 N   0  0  0  0  0  0  0  0  0  0  0  0
  -27.3657  -15.2620   23.8223 N   0  0  0  0  0  0  0  0  0  0  0  0
  -29.4572  -19.0900   22.6526 N   0  0  0  0  0  0  0  0  0  0  0  0
  -22.4757  -29.1013   21.5758 N   0  0  0  0  0  0  0  0  0  0  0  0
  -16.0063  -29.9273   23.5571 N   0  0  0  0  0  0  0  0  0  0  0  0
  -21.0293  -19.3989   25.1980 N   0  0  0  0  0  0  0  0  0  0  0  0
  -13.2039  -27.8008   22.7250 N   0  3  0  0  0  0  0  0  0  0  0  0
  -29.0692  -17.6334   24.3807 O   0  0  0  0  0  0  0  0  0  0  0  0
  -21.3971  -29.3000   23.6300 O   0  0  0  0  0  0  0  0  0  0  0  0
  -18.3019  -30.7717   22.0651 O   0  0  0  0  0  0  0  0  0  0  0  0
  -19.9851  -21.0039   26.5115 O   0  0  0  0  0  0  0  0  0  0  0  0
  -15.4074  -27.8828   24.4728 O   0  0  0  0  0  0  0  0  0  0  0  0
  -22.0489  -12.0900   20.3525 O   0  0  0  0  0  0  0  0  0  0  0  0
  -29.4339  -21.4456   17.6042 O   0  0  0  0  0  0  0  0  0  0  0  0
  -20.0793  -22.9401   24.7791 O   0  0  0  0  0  0  0  0  0  1  0  0
  -25.6623  -23.7197   14.2865 F   0  0  0  0  0  0  0  0  0  0  0  0
  -28.8155  -24.1335   17.7924 F   0  0  0  0  0  0  0  0  0  0  0  0
  1  2  1  0  0  0  0
  1  7  2  0  0  0  0
  2  8  2  0  0  0  0
  3  6  1  0  0  0  0
  3 10  2  0  0  0  0
  4 11  2  0  0  0  0
  4 18  1  0  0  0  0
  5 12  1  0  0  0  0
  5 18  2  0  0  0  0
  6 19  2  0  0  0  0
  7 21  1  0  0  0  0
  8 23  1  0  0  0  0
  9 13  2  0  0  0  0
  9 22  1  0  0  0  0
 10 25  1  0  0  0  0
 11 27  1  0  0  0  0
 12 27  2  0  0  0  0
 13 28  1  0  0  0  0
 14 15  2  0  0  0  0
 14 29  1  0  0  0  0
 15 30  1  0  0  0  0
 16 24  1  0  0  0  0
 16 28  2  0  0  0  0
 17 30  2  0  0  0  0
 17 31  1  0  0  0  0
 18 32  1  0  0  0  0
 19 26  1  0  0  0  0
 19 34  1  0  0  0  0
 20 32  1  0  0  0  0
 20 33  2  0  0  0  0
 20 35  1  0  0  0  0
 21 23  2  0  0  0  0
 21 41  1  0  0  0  0
 22 24  2  0  0  0  0
 22 42  1  0  0  0  0
 23 50  1  0  0  0  0
 24 43  1  0  0  0  0
 25 26  2  0  0  0  0
 25 61  1  0  0  0  0
 26 53  1  0  0  0  0
 27 83  1  0  0  0  0
 28 84  1  0  0  0  0
 29 31  2  0  0  0  0
 29 83  1  0  0  0  0
 30 85  1  0  0  0  0
 31 86  1  0  0  0  0
 32 66  2  0  0  0  0
 33 68  1  0  0  0  0
 33 71  1  0  0  0  0
 34 54  1  0  0  0  0
 34 67  2  0  0  0  0
 35 72  1  0  0  0  0
 35 77  2  0  0  0  0
 36 51  1  0  0  0  0
 36 73  1  0  0  0  0
 36 78  2  0  0  0  0
 37 63  1  0  0  0  0
 37 69  1  0  0  0  0
 37 79  2  0  0  0  0
 38 62  1  0  0  0  0
 38 75  1  0  0  0  0
 38 80  2  0  0  0  0
 39 64  1  0  0  0  0
 39 74  1  0  0  0  0
 39 81  2  0  0  0  0
 40 67  1  0  0  0  0
 40 70  1  0  0  0  0
 40 82  2  0  0  0  0
 41 44  1  0  0  0  0
 42 51  1  0  0  0  0
 43 69  1  0  0  0  0
 44 46  1  0  0  0  0
 45 47  1  0  0  0  0
 45 48  1  0  0  0  0
 46 50  1  0  0  0  0
 47 52  1  0  0  0  0
 48 70  1  0  0  0  0
 49 52  1  0  0  0  0
 49 70  1  0  0  0  0
 50 73  1  0  0  0  0
 51 69  1  0  0  0  0
 52 68  1  0  0  0  0
 55 64  1  0  0  0  0
 56 65  1  0  0  0  0
 57 65  1  0  0  0  0
 58 65  1  0  0  0  0
 59 75  1  0  0  0  0
 60 76  1  0  0  0  0
 61 75  1  0  0  0  0
 62 84  1  0  0  0  0
 63 65  1  0  0  0  0
 63 74  1  0  0  0  0
 64 76  1  0  0  0  0
 66 68  1  0  0  0  0
M  CHG  1  76   1
M  ISO  4  40 100  62 101  67 100  84 101
M  END
> <Batch ID>
0054

> <Smiles>
CNC(C)C(=O)NC(C(=O)N1Cc2cc([101O:1][101CH2:1]C(=O)N(C)Cc3cccc(C(C)=[100N:0][100C:0](=O)N4CCCC(n5nc(-c6ccc(Oc7ccc(F)cc7F)cc6)c(C(N)=O)c5N)C4)c3C)ccc2CC1C(=O)NC1CCCc2ccccc21)C(C)(C)C

> <Shape>
0.222

> <Color>
0.088

> <Negative vol penalty>
0.000

$$$$

  -OEChem-04042322463D

 84 92  0     1  0  0  0  0  0999 V2000
  -23.7365  -18.2595   22.0025 C   0  0  0  0  0  0  0  0  0  0  0  0
  -24.4635  -19.3068   21.4455 C   0  0  0  0  0  0  0  0  0  0  0  0
  -34.8664  -23.5912   16.7927 C   0  0  0  0  0  0  0  0  0  0  0  0
  -35.1105  -22.8186   17.9281 C   0  0  0  0  0  0  0  0  0  0  0  0
  -25.2669  -12.9896   19.2538 C   0  0  0  0  0  0  0  0  0  0  0  0
  -25.1232  -14.2954   21.2815 C   0  0  0  0  0  0  0  0  0  0  0  0
  -22.3594  -18.3856   22.1805 C   0  0  0  0  0  0  0  0  0  0  0  0
  -23.8135  -20.4804   21.0653 C   0  0  0  0  0  0  0  0  0  0  0  0
  -26.3047  -24.6409   22.5244 C   0  0  0  0  0  0  0  0  0  0  0  0
  -33.5569  -23.8031   16.3615 C   0  0  0  0  0  0  0  0  0  0  0  0
  -34.0451  -22.2577   18.6322 C   0  0  0  0  0  0  0  0  0  0  0  0
  -25.1799  -11.8164   20.0032 C   0  0  0  0  0  0  0  0  0  0  0  0
  -25.0362  -13.1221   22.0308 C   0  0  0  0  0  0  0  0  0  0  0  0
  -27.4129  -25.0179   21.7671 C   0  0  0  0  0  0  0  0  0  0  0  0
  -24.6325   -8.4851   21.3516 C   0  0  0  0  0  0  0  0  0  0  0  0
  -23.7752   -7.4849   20.8932 C   0  0  0  0  0  0  0  0  0  0  0  0
  -26.0688  -26.6690   20.6329 C   0  0  0  0  0  0  0  0  0  0  0  0
  -21.9064   -9.0060   21.0693 C   0  0  0  0  0  0  0  0  0  0  0  0
  -25.2386  -14.2291   19.8930 C   0  0  0  0  0  0  0  0  0  0  0  0
  -24.2645  -16.1798   18.5688 C   0  0  0  0  0  0  0  0  0  0  0  0
  -21.6938  -19.5650   21.8112 C   0  0  0  0  0  0  0  0  0  0  0  0
  -25.0654  -25.2688   22.3336 C   0  0  0  0  0  0  0  0  0  0  0  0
  -22.4260  -20.6219   21.2374 C   0  0  0  0  0  0  0  0  0  0  0  0
  -24.9470  -26.2999   21.3908 C   0  0  0  0  0  0  0  0  0  0  0  0
  -32.4914  -23.2422   17.0657 C   0  0  0  0  0  0  0  0  0  0  0  0
  -32.7355  -22.4695   18.2011 C   0  0  0  0  0  0  0  0  0  0  0  0
  -25.0645  -11.8826   21.3917 C   0  0  0  0  0  0  0  0  0  0  0  0
  -27.2944  -26.0301   20.8192 C   0  0  0  0  0  0  0  0  0  0  0  0
  -24.1268   -9.7458   21.6689 C   0  0  0  0  0  0  0  0  0  0  0  0
  -22.4122   -7.7453   20.7520 C   0  0  0  0  0  0  0  0  0  0  0  0
  -22.7638  -10.0062   21.5278 C   0  0  0  0  0  0  0  0  0  0  0  0
  -25.3290  -15.4414   19.1195 C   0  0  0  0  0  0  0  0  0  0  0  0
  -24.8714  -17.2353   17.9330 C   0  0  0  0  0  0  0  0  0  0  0  0
  -22.8532  -15.9337   18.6267 C   0  0  0  0  0  0  0  0  0  0  0  0
  -22.1815  -24.3048   21.4074 C   0  0  0  0  0  0  0  0  0  0  0  0
  -21.3502  -27.3485   22.1604 C   0  0  0  0  0  0  0  0  0  0  0  0
  -29.5496  -25.0796   17.7206 C   0  0  0  0  0  0  0  0  0  0  0  0
  -22.3157  -30.5936   22.5901 C   0  0  0  0  0  0  0  0  0  0  0  0
  -30.0324  -19.9468   18.8640 C   0  0  0  0  0  0  0  0  0  0  0  0
  -20.1967  -19.6367   21.9794 C   0  0  0  0  0  0  0  0  0  0  0  0
  -23.8861  -24.8688   23.1772 C   0  0  0  0  0  0  0  0  0  0  0  0
  -23.6437  -27.0193   21.1619 C   0  0  0  0  0  0  0  0  0  0  0  0
  -19.6417  -21.0564   21.8958 C   0  0  0  0  0  0  0  0  0  0  0  0
  -28.9559  -18.4459   15.7517 C   0  0  0  0  0  0  0  0  0  0  0  0
  -20.2384  -21.7934   20.7010 C   0  0  0  0  0  0  0  0  0  0  0  0
  -27.7932  -17.5704   16.2225 C   0  0  0  0  0  0  0  0  0  0  0  0
  -30.0889  -18.4567   16.7737 C   0  0  0  0  0  0  0  0  0  0  0  0
  -28.5168  -18.0016   18.6163 C   0  0  0  0  0  0  0  0  0  0  0  0
  -21.7607  -21.9202   20.8352 C   0  0  1  0  0  0  0  0  0  0  0  0
  -22.5468  -25.2238   22.5386 C   0  0  1  0  0  0  0  0  0  0  0  0
  -27.3297  -17.9672   17.6366 C   0  0  2  0  0  0  0  0  0  0  0  0
  -21.4055  -32.8595   23.1686 C   0  0  0  0  0  0  0  0  0  0  0  0
  -20.1654  -27.5853   19.3586 C   0  0  0  0  0  0  0  0  0  0  0  0
  -20.1438  -30.0714   19.6534 C   0  0  0  0  0  0  0  0  0  0  0  0
  -18.7855  -28.6260   21.1661 C   0  0  0  0  0  0  0  0  0  0  0  0
  -24.0305  -30.7968   24.9936 C   0  0  0  0  0  0  0  0  0  0  0  0
  -31.0903  -23.4846   16.5838 C   0  0  0  0  0  0  0  0  0  0  0  0
  -31.6110  -21.8583   18.9709 C   0  0  0  0  0  0  0  0  0  0  0  0
  -29.3051  -26.5734   17.8660 C   0  0  0  0  0  0  0  0  0  0  0  0
  -28.1216  -26.8968   18.7648 C   0  0  0  0  0  0  0  0  0  1  0  0
  -21.3014  -28.6594   21.4133 C   0  0  1  0  0  0  0  0  0  0  0  0
  -22.0419  -31.5867   23.7051 C   0  0  2  0  0  0  0  0  0  0  0  0
  -20.1233  -28.7208   20.4006 C   0  0  0  0  0  0  0  0  0  0  0  0
  -26.5218  -15.9819   18.8565 N   0  0  0  0  0  0  0  0  0  0  0  0
  -26.2104  -17.0711   18.1335 N   0  0  0  0  0  0  0  0  0  0  0  0
  -22.5180  -26.5879   22.0070 N   0  0  0  0  0  0  0  0  0  0  0  0
  -29.5847  -18.8606   18.0939 N   0  0  0  0  0  0  0  0  0  0  0  0
  -24.3849  -18.2785   17.2276 N   0  0  0  0  0  0  0  0  0  0  0  0
  -22.4000  -14.8039   19.3213 N   0  0  0  0  0  0  0  0  0  0  0  0
  -22.0998  -22.9734   21.7681 N   0  0  0  0  0  0  0  0  0  0  0  0
  -30.6347  -24.8202   16.8956 N   0  0  0  0  0  0  0  0  0  0  0  0
  -21.2721  -29.7069   22.4283 N   0  0  0  0  0  0  0  0  0  0  0  0
  -31.0508  -20.7059   18.3006 N   0  0  0  0  0  0  0  0  0  0  0  0
  -23.3105  -31.9512   24.3970 N   0  3  0  0  0  0  0  0  0  0  0  0
  -22.0197  -16.6842   18.0649 O   0  0  0  0  0  0  0  0  0  0  0  0
  -21.9867  -24.7695   20.2903 O   0  0  0  0  0  0  0  0  0  0  0  0
  -20.3907  -27.0152   22.8602 O   0  0  0  0  0  0  0  0  0  0  0  0
  -28.8601  -24.2271   18.2736 O   0  0  0  0  0  0  0  0  0  0  0  0
  -23.3500  -30.6056   21.9263 O   0  0  0  0  0  0  0  0  0  0  0  0
  -29.5559  -20.2233   19.9701 O   0  0  0  0  0  0  0  0  0  0  0  0
  -24.9794  -10.7380   22.1232 O   0  0  0  0  0  0  0  0  0  0  0  0
  -28.3744  -26.3995   20.0782 O   0  0  0  0  0  0  0  0  0  1  0  0
  -21.5892   -6.7852   20.3103 F   0  0  0  0  0  0  0  0  0  0  0  0
  -22.2722  -11.2157   21.8299 F   0  0  0  0  0  0  0  0  0  0  0  0
  1  2  1  0  0  0  0
  1  7  2  0  0  0  0
  2  8  2  0  0  0  0
  3  4  1  0  0  0  0
  3 10  2  0  0  0  0
  4 11  2  0  0  0  0
  5 12  2  0  0  0  0
  5 19  1  0  0  0  0
  6 13  1  0  0  0  0
  6 19  2  0  0  0  0
  7 21  1  0  0  0  0
  8 23  1  0  0  0  0
  9 14  2  0  0  0  0
  9 22  1  0  0  0  0
 10 25  1  0  0  0  0
 11 26  1  0  0  0  0
 12 27  1  0  0  0  0
 13 27  2  0  0  0  0
 14 28  1  0  0  0  0
 15 16  2  0  0  0  0
 15 29  1  0  0  0  0
 16 30  1  0  0  0  0
 17 24  1  0  0  0  0
 17 28  2  0  0  0  0
 18 30  2  0  0  0  0
 18 31  1  0  0  0  0
 19 32  1  0  0  0  0
 20 32  1  0  0  0  0
 20 33  2  0  0  0  0
 20 34  1  0  0  0  0
 21 23  2  0  0  0  0
 21 40  1  0  0  0  0
 22 24  2  0  0  0  0
 22 41  1  0  0  0  0
 23 49  1  0  0  0  0
 24 42  1  0  0  0  0
 25 26  2  0  0  0  0
 25 57  1  0  0  0  0
 26 58  1  0  0  0  0
 27 81  1  0  0  0  0
 28 82  1  0  0  0  0
 29 31  2  0  0  0  0
 29 81  1  0  0  0  0
 30 83  1  0  0  0  0
 31 84  1  0  0  0  0
 32 64  2  0  0  0  0
 33 65  1  0  0  0  0
 33 68  1  0  0  0  0
 34 69  1  0  0  0  0
 34 75  2  0  0  0  0
 35 50  1  0  0  0  0
 35 70  1  0  0  0  0
 35 76  2  0  0  0  0
 36 61  1  0  0  0  0
 36 66  1  0  0  0  0
 36 77  2  0  0  0  0
 37 59  1  0  0  0  0
 37 71  1  0  0  0  0
 37 78  2  0  0  0  0
 38 62  1  0  0  0  0
 38 72  1  0  0  0  0
 38 79  2  0  0  0  0
 39 67  1  0  0  0  0
 39 73  1  0  0  0  0
 39 80  2  0  0  0  0
 40 43  1  0  0  0  0
 41 50  1  0  0  0  0
 42 66  1  0  0  0  0
 43 45  1  0  0  0  0
 44 46  1  0  0  0  0
 44 47  1  0  0  0  0
 45 49  1  0  0  0  0
 46 51  1  0  0  0  0
 47 67  1  0  0  0  0
 48 51  1  0  0  0  0
 48 67  1  0  0  0  0
 49 70  1  0  0  0  0
 50 66  1  0  0  0  0
 51 65  1  0  0  0  0
 52 62  1  0  0  0  0
 53 63  1  0  0  0  0
 54 63  1  0  0  0  0
 55 63  1  0  0  0  0
 56 74  1  0  0  0  0
 57 71  1  0  0  0  0
 58 73  1  0  0  0  0
 59 60  1  0  0  0  0
 60 82  1  0  0  0  0
 61 63  1  0  0  0  0
 61 72  1  0  0  0  0
 62 74  1  0  0  0  0
 64 65  1  0  0  0  0
M  CHG  1  74   1
M  ISO  4  39 100  60 101  73 100  82 101
M  END
> <Batch ID>
0054

> <Smiles>
CNC(C)C(=O)NC(C(=O)N1Cc2cc([101O:1][101CH2:1]CC(=O)NCc3ccccc3C[100NH:0][100C:0](=O)N3CCCC(n4nc(-c5ccc(Oc6ccc(F)cc6F)cc5)c(C(N)=O)c4N)C3)ccc2CC1C(=O)NC1CCCc2ccccc21)C(C)(C)C

> <Shape>
0.176

> <Color>
0.087

> <Negative vol penalty>
0.000

$$$$

  -OEChem-04042322463D

 86 95  0     1  0  0  0  0  0999 V2000
  -29.4508  -13.2520   18.9528 C   0  0  0  0  0  0  0  0  0  0  0  0
  -28.3125  -13.4027   18.1674 C   0  0  0  0  0  0  0  0  0  0  0  0
  -29.2038  -26.0772   19.7709 C   0  0  0  0  0  0  0  0  0  0  0  0
  -27.1917  -24.9024   20.4098 C   0  0  0  0  0  0  0  0  0  0  0  0
  -29.3449  -13.2711   20.3429 C   0  0  0  0  0  0  0  0  0  0  0  0
  -27.0672  -13.5715   18.7718 C   0  0  0  0  0  0  0  0  0  0  0  0
  -23.0751  -19.4241   17.4677 C   0  0  0  0  0  0  0  0  0  0  0  0
  -19.6824  -27.2757   20.3218 C   0  0  0  0  0  0  0  0  0  0  0  0
  -19.2847  -26.1604   19.5847 C   0  0  0  0  0  0  0  0  0  0  0  0
  -29.9496  -24.9190   19.9896 C   0  0  0  0  0  0  0  0  0  0  0  0
  -27.9375  -23.7441   20.6285 C   0  0  0  0  0  0  0  0  0  0  0  0
  -22.1603  -20.4135   17.1065 C   0  0  0  0  0  0  0  0  0  0  0  0
  -29.2590  -20.3785   21.0086 C   0  0  0  0  0  0  0  0  0  0  0  0
  -28.7533  -19.1773   20.5116 C   0  0  0  0  0  0  0  0  0  0  0  0
  -20.5710  -19.5437   18.7082 C   0  0  0  0  0  0  0  0  0  0  0  0
  -18.7987  -26.2639   22.3298 C   0  0  0  0  0  0  0  0  0  0  0  0
  -28.8122  -20.0794   18.2711 C   0  0  0  0  0  0  0  0  0  0  0  0
  -27.8249  -26.0690   19.9811 C   0  0  0  0  0  0  0  0  0  0  0  0
  -26.9270  -27.9803   18.5498 C   0  0  0  0  0  0  0  0  0  0  0  0
  -28.0990  -13.4498   20.9645 C   0  0  0  0  0  0  0  0  0  0  0  0
  -22.7467  -18.4991   18.4626 C   0  0  0  0  0  0  0  0  0  0  0  0
  -26.9443  -13.5916   20.1715 C   0  0  0  0  0  0  0  0  0  0  0  0
  -21.4880  -18.5581   19.0829 C   0  0  0  0  0  0  0  0  0  0  0  0
  -19.4395  -27.3275   21.6944 C   0  0  0  0  0  0  0  0  0  0  0  0
  -18.6439  -25.0968   20.2201 C   0  0  0  0  0  0  0  0  0  0  0  0
  -29.3164  -23.7524   20.4184 C   0  0  0  0  0  0  0  0  0  0  0  0
  -20.9113  -20.4729   17.7251 C   0  0  0  0  0  0  0  0  0  0  0  0
  -29.5411  -21.4302   20.1368 C   0  0  0  0  0  0  0  0  0  0  0  0
  -28.5300  -19.0277   19.1429 C   0  0  0  0  0  0  0  0  0  0  0  0
  -29.3178  -21.2807   18.7681 C   0  0  0  0  0  0  0  0  0  0  0  0
  -18.4009  -25.1485   21.5927 C   0  0  0  0  0  0  0  0  0  0  0  0
  -27.0541  -27.2653   19.7558 C   0  0  0  0  0  0  0  0  0  0  0  0
  -26.0943  -29.0282   18.8580 C   0  0  0  0  0  0  0  0  0  0  0  0
  -16.9159  -23.5438   19.3226 C   0  0  0  0  0  0  0  0  0  0  0  0
  -15.8210  -24.3125   19.4828 C   0  0  0  0  0  0  0  0  0  0  0  0
  -27.5096  -27.7204   17.2658 C   0  0  0  0  0  0  0  0  0  0  0  0
  -23.8236  -15.5417   20.5048 C   0  0  0  0  0  0  0  0  0  0  0  0
  -22.3052  -17.4232   22.3930 C   0  0  0  0  0  0  0  0  0  0  0  0
  -20.9422  -19.9562   24.2269 C   0  0  0  0  0  0  0  0  0  0  0  0
  -21.9056  -29.8066   23.0652 C   0  0  0  0  0  0  0  0  0  0  0  0
  -28.0277  -13.4162   22.4707 C   0  0  0  0  0  0  0  0  0  0  0  0
  -23.6773  -17.3787   18.8402 C   0  0  0  0  0  0  0  0  0  0  0  0
  -21.1649  -17.5208   20.1235 C   0  0  0  0  0  0  0  0  0  0  0  0
  -16.7034  -22.0891   18.9502 C   0  0  0  0  0  0  0  0  0  0  0  0
  -26.7224  -13.9749   23.0313 C   0  0  0  0  0  0  0  0  0  0  0  0
  -17.7002  -21.6048   17.9077 C   0  0  0  0  0  0  0  0  0  0  0  0
  -24.7883  -31.8228   22.5152 C   0  0  0  0  0  0  0  0  0  0  0  0
  -25.5283  -13.4070   22.2707 C   0  0  0  0  0  0  0  0  0  0  0  0
  -25.6844  -30.9479   21.6369 C   0  0  0  0  0  0  0  0  0  0  0  0
  -24.0261  -30.9935   23.5464 C   0  0  0  0  0  0  0  0  0  0  0  0
  -24.1470  -28.9953   22.1089 C   0  0  0  0  0  0  0  0  0  0  0  0
  -19.3227  -23.3856   18.6171 C   0  0  0  0  0  0  0  0  0  0  0  0
  -25.5791  -13.8017   20.7898 C   0  0  1  0  0  0  0  0  0  0  0  0
  -23.6116  -17.0174   20.3349 C   0  0  1  0  0  0  0  0  0  0  0  0
  -24.8937  -29.7802   21.0168 C   0  0  2  0  0  0  0  0  0  0  0  0
  -19.1192  -21.8912   18.3749 C   0  0  2  0  0  0  0  0  0  1  0  0
  -20.2731  -20.5518   26.5710 C   0  0  0  0  0  0  0  0  0  0  0  0
  -19.8335  -15.6549   22.1327 C   0  0  0  0  0  0  0  0  0  0  0  0
  -18.7812  -16.9757   23.9811 C   0  0  0  0  0  0  0  0  0  0  0  0
  -20.8666  -15.6759   24.4102 C   0  0  0  0  0  0  0  0  0  0  0  0
  -22.8303  -22.2337   24.3110 C   0  0  0  0  0  0  0  0  0  0  0  0
  -19.8650  -28.5202   22.4819 C   0  0  0  0  0  0  0  0  0  0  0  0
  -20.9851  -17.7870   23.0240 C   0  0  1  0  0  0  0  0  0  0  0  0
  -21.3783  -20.6059   25.5278 C   0  0  2  0  0  0  0  0  0  0  0  0
  -20.1259  -16.5363   23.3634 C   0  0  0  0  0  0  0  0  0  0  0  0
  -26.3579  -27.8128   20.7556 N   0  0  0  0  0  0  0  0  0  0  0  0
  -25.7854  -28.8830   20.1785 N   0  0  0  0  0  0  0  0  0  0  0  0
  -18.2493  -23.9721   19.4402 N   0  0  0  0  0  0  0  0  0  0  0  0
  -22.3287  -17.3069   20.9978 N   0  0  0  0  0  0  0  0  0  0  0  0
  -23.2963  -29.9041   22.8933 N   0  0  0  0  0  0  0  0  0  0  0  0
  -25.6035  -30.0504   18.1255 N   0  0  0  0  0  0  0  0  0  0  0  0
  -26.8044  -26.9127   16.3633 N   0  0  0  0  0  0  0  0  0  0  0  0
  -25.1506  -15.1733   20.6174 N   0  0  0  0  0  0  0  0  0  0  0  0
  -21.3004  -18.6257   24.1754 N   0  0  0  0  0  0  0  0  0  0  0  0
  -21.2908  -28.7488   22.4066 N   0  0  0  0  0  0  0  0  0  0  0  0
  -21.7385  -22.0337   25.2984 N   0  3  0  0  0  0  0  0  0  0  0  0
  -28.6301  -28.1771   16.9349 O   0  0  0  0  0  0  0  0  0  0  0  0
  -22.8550  -14.7916   20.5333 O   0  0  0  0  0  0  0  0  0  0  0  0
  -23.2892  -17.2410   23.1154 O   0  0  0  0  0  0  0  0  0  0  0  0
  -20.3406  -20.5669   23.3462 O   0  0  0  0  0  0  0  0  0  0  0  0
  -21.2590  -30.6065   23.7500 O   0  0  0  0  0  0  0  0  0  0  0  0
  -30.0438  -22.6219   20.6317 O   0  0  0  0  0  0  0  0  0  0  0  0
  -20.0247  -21.4442   17.3709 O   0  0  0  0  0  0  0  0  0  1  0  0
  -28.0459  -17.8736   18.6656 F   0  0  0  0  0  0  0  0  0  0  0  0
  -29.5881  -22.2871   17.9256 F   0  0  0  0  0  0  0  0  0  0  0  0
  -17.6105  -23.8534   22.4188 Cl  0  0  0  0  0  0  0  0  0  0  0  0
  1  2  1  0  0  0  0
  1  5  2  0  0  0  0
  2  6  2  0  0  0  0
  3 10  2  0  0  0  0
  3 18  1  0  0  0  0
  4 11  1  0  0  0  0
  4 18  2  0  0  0  0
  5 20  1  0  0  0  0
  6 22  1  0  0  0  0
  7 12  2  0  0  0  0
  7 21  1  0  0  0  0
  8  9  2  0  0  0  0
  8 24  1  0  0  0  0
  9 25  1  0  0  0  0
 10 26  1  0  0  0  0
 11 26  2  0  0  0  0
 12 27  1  0  0  0  0
 13 14  2  0  0  0  0
 13 28  1  0  0  0  0
 14 29  1  0  0  0  0
 15 23  1  0  0  0  0
 15 27  2  0  0  0  0
 16 24  2  0  0  0  0
 16 31  1  0  0  0  0
 17 29  2  0  0  0  0
 17 30  1  0  0  0  0
 18 32  1  0  0  0  0
 19 32  1  0  0  0  0
 19 33  2  0  0  0  0
 19 36  1  0  0  0  0
 20 22  2  0  0  0  0
 20 41  1  0  0  0  0
 21 23  2  0  0  0  0
 21 42  1  0  0  0  0
 22 53  1  0  0  0  0
 23 43  1  0  0  0  0
 24 62  1  0  0  0  0
 25 31  2  0  0  0  0
 25 68  1  0  0  0  0
 26 82  1  0  0  0  0
 27 83  1  0  0  0  0
 28 30  2  0  0  0  0
 28 82  1  0  0  0  0
 29 84  1  0  0  0  0
 30 85  1  0  0  0  0
 31 86  1  0  0  0  0
 32 66  2  0  0  0  0
 33 67  1  0  0  0  0
 33 71  1  0  0  0  0
 34 35  2  0  0  0  0
 34 44  1  0  0  0  0
 34 68  1  0  0  0  0
 36 72  1  0  0  0  0
 36 77  2  0  0  0  0
 37 54  1  0  0  0  0
 37 73  1  0  0  0  0
 37 78  2  0  0  0  0
 38 63  1  0  0  0  0
 38 69  1  0  0  0  0
 38 79  2  0  0  0  0
 39 64  1  0  0  0  0
 39 74  1  0  0  0  0
 39 80  2  0  0  0  0
 40 70  1  0  0  0  0
 40 75  1  0  0  0  0
 40 81  2  0  0  0  0
 41 45  1  0  0  0  0
 42 54  1  0  0  0  0
 43 69  1  0  0  0  0
 44 46  1  0  0  0  0
 45 48  1  0  0  0  0
 46 56  1  0  0  0  0
 47 49  1  0  0  0  0
 47 50  1  0  0  0  0
 48 53  1  0  0  0  0
 49 55  1  0  0  0  0
 50 70  1  0  0  0  0
 51 55  1  0  0  0  0
 51 70  1  0  0  0  0
 52 56  1  0  0  0  0
 52 68  1  0  0  0  0
 53 73  1  0  0  0  0
 54 69  1  0  0  0  0
 55 67  1  0  0  0  0
 56 83  1  0  0  0  0
 57 64  1  0  0  0  0
 58 65  1  0  0  0  0
 59 65  1  0  0  0  0
 60 65  1  0  0  0  0
 61 76  1  0  0  0  0
 62 75  1  0  0  0  0
 63 65  1  0  0  0  0
 63 74  1  0  0  0  0
 64 76  1  0  0  0  0
 66 67  1  0  0  0  0
M  CHG  1  76   1
M  ISO  4  40 100  56 101  75 100  83 101
M  END
> <Batch ID>
0054

> <Smiles>
C=C1CC[101CH:1]([101O:1]c2ccc3c(c2)CN(C(=O)C(NC(=O)C(C)NC)C(C)(C)C)C(C(=O)NC2CCCc4ccccc42)C3)CN1c1ccc(C[100NH:0][100C:0](=O)N2CCCC(n3nc(-c4ccc(Oc5ccc(F)cc5F)cc4)c(C(N)=O)c3N)C2)cc1Cl

> <Shape>
0.224

> <Color>
0.069

> <Negative vol penalty>
0.000

$$$$

  -OEChem-04042322463D

 85 93  0     1  0  0  0  0  0999 V2000
  -23.4676  -30.1754   21.3061 C   0  0  0  0  0  0  0  0  0  0  0  0
  -23.9186  -29.0852   20.5690 C   0  0  0  0  0  0  0  0  0  0  0  0
  -23.1680   -9.8739   19.8767 C   0  0  0  0  0  0  0  0  0  0  0  0
  -23.8715   -9.8475   22.1879 C   0  0  0  0  0  0  0  0  0  0  0  0
  -24.3561  -31.1879   21.6659 C   0  0  0  0  0  0  0  0  0  0  0  0
  -25.2583  -29.0073   20.1902 C   0  0  0  0  0  0  0  0  0  0  0  0
  -27.2248  -24.4013   20.9404 C   0  0  0  0  0  0  0  0  0  0  0  0
  -30.4098  -17.3144   15.7738 C   0  0  0  0  0  0  0  0  0  0  0  0
  -22.4529   -8.6939   20.0809 C   0  0  0  0  0  0  0  0  0  0  0  0
  -23.1564   -8.6674   22.3920 C   0  0  0  0  0  0  0  0  0  0  0  0
  -26.9109  -23.4151   20.0063 C   0  0  0  0  0  0  0  0  0  0  0  0
  -19.9398   -7.7614   22.8949 C   0  0  0  0  0  0  0  0  0  0  0  0
  -19.1562   -7.6710   24.0453 C   0  0  0  0  0  0  0  0  0  0  0  0
  -30.4067  -15.9855   15.3498 C   0  0  0  0  0  0  0  0  0  0  0  0
  -29.0500  -23.7501   18.9427 C   0  0  0  0  0  0  0  0  0  0  0  0
  -28.0656  -17.1416   16.3324 C   0  0  0  0  0  0  0  0  0  0  0  0
  -20.4365   -5.7533   24.7667 C   0  0  0  0  0  0  0  0  0  0  0  0
  -23.8773  -10.4507   20.9302 C   0  0  0  0  0  0  0  0  0  0  0  0
  -24.1467  -12.9869   20.8782 C   0  0  0  0  0  0  0  0  0  0  0  0
  -25.7094  -31.1176   21.2996 C   0  0  0  0  0  0  0  0  0  0  0  0
  -28.4513  -25.0781   20.8760 C   0  0  0  0  0  0  0  0  0  0  0  0
  -26.1655  -30.0205   20.5442 C   0  0  0  0  0  0  0  0  0  0  0  0
  -29.3781  -24.7427   19.8787 C   0  0  0  0  0  0  0  0  0  0  0  0
  -28.0625  -15.8127   15.9084 C   0  0  0  0  0  0  0  0  0  0  0  0
  -29.2392  -17.8924   16.2652 C   0  0  0  0  0  0  0  0  0  0  0  0
  -22.4471   -8.0906   21.3385 C   0  0  0  0  0  0  0  0  0  0  0  0
  -27.8223  -23.0914   19.0055 C   0  0  0  0  0  0  0  0  0  0  0  0
  -20.9717   -6.8477   22.6804 C   0  0  0  0  0  0  0  0  0  0  0  0
  -19.4045   -6.6670   24.9812 C   0  0  0  0  0  0  0  0  0  0  0  0
  -21.2200   -5.8437   23.6163 C   0  0  0  0  0  0  0  0  0  0  0  0
  -29.2331  -15.2347   15.4171 C   0  0  0  0  0  0  0  0  0  0  0  0
  -24.6167  -11.6694   20.7198 C   0  0  0  0  0  0  0  0  0  0  0  0
  -25.2245  -13.7765   20.5600 C   0  0  0  0  0  0  0  0  0  0  0  0
  -22.8516  -13.4552   21.2773 C   0  0  0  0  0  0  0  0  0  0  0  0
  -29.3235  -28.1045   20.4473 C   0  0  0  0  0  0  0  0  0  0  0  0
  -32.2845  -26.9302   21.0602 C   0  0  0  0  0  0  0  0  0  0  0  0
  -28.1753  -19.9692   17.2081 C   0  0  0  0  0  0  0  0  0  0  0  0
  -34.3875  -24.2426   21.0843 C   0  0  0  0  0  0  0  0  0  0  0  0
  -30.0584  -12.8213   17.1253 C   0  0  0  0  0  0  0  0  0  0  0  0
  -26.6222  -32.2594   21.6708 C   0  0  0  0  0  0  0  0  0  0  0  0
  -28.7858  -26.1207   21.9072 C   0  0  0  0  0  0  0  0  0  0  0  0
  -30.7168  -25.4255   19.7782 C   0  0  0  0  0  0  0  0  0  0  0  0
  -28.1051  -31.9174   21.5514 C   0  0  0  0  0  0  0  0  0  0  0  0
  -30.0045  -13.7879   20.5809 C   0  0  0  0  0  0  0  0  0  0  0  0
  -28.3852  -31.2116   20.2285 C   0  0  0  0  0  0  0  0  0  0  0  0
  -28.5809  -13.4558   21.0279 C   0  0  0  0  0  0  0  0  0  0  0  0
  -30.5277  -12.7675   19.5743 C   0  0  0  0  0  0  0  0  0  0  0  0
  -28.2250  -12.2522   18.8267 C   0  0  0  0  0  0  0  0  0  0  0  0
  -27.6166  -29.8879   20.1358 C   0  0  1  0  0  0  0  0  0  0  0  0
  -29.8521  -27.1054   21.4372 C   0  0  1  0  0  0  0  0  0  0  0  0
  -27.6468  -13.2776   19.8176 C   0  0  1  0  0  0  0  0  0  0  0  0
  -26.7892  -15.0361   15.9929 C   0  0  0  0  0  0  0  0  0  0  0  0
  -36.7582  -23.6009   21.5994 C   0  0  0  0  0  0  0  0  0  0  0  0
  -33.1963  -28.2079   18.4437 C   0  0  0  0  0  0  0  0  0  0  0  0
  -35.2434  -26.7695   18.5356 C   0  0  0  0  0  0  0  0  0  0  0  0
  -34.8134  -28.4404   20.3372 C   0  0  0  0  0  0  0  0  0  0  0  0
  -33.5391  -22.3521   23.1974 C   0  0  0  0  0  0  0  0  0  0  0  0
  -28.6060  -21.3841   17.5470 C   0  0  0  0  0  0  0  0  0  1  0  0
  -33.3982  -26.3484   20.2234 C   0  0  1  0  0  0  0  0  0  0  0  0
  -35.3427  -23.7205   22.1424 C   0  0  2  0  0  0  0  0  0  0  0  0
  -34.1369  -27.4298   19.3854 C   0  0  0  0  0  0  0  0  0  0  0  0
  -25.8936  -11.6207   20.3311 N   0  0  0  0  0  0  0  0  0  0  0  0
  -29.1125  -12.6592   16.1919 N   0  5  0  0  0  0  0  0  0  0  0  0
  -26.2351  -12.9174   20.2424 N   0  0  0  0  0  0  0  0  0  0  0  0
  -30.9949  -26.4424   20.8059 N   0  0  0  0  0  0  0  0  0  0  0  0
  -29.6017  -12.6210   18.4479 N   0  0  0  0  0  0  0  0  0  0  0  0
  -25.3969  -15.1150   20.5236 N   0  0  0  0  0  0  0  0  0  0  0  0
  -21.8593  -12.5089   21.5678 N   0  0  0  0  0  0  0  0  0  0  0  0
  -29.2430  -19.2406   16.6949 N   0  0  0  0  0  0  0  0  0  0  0  0
  -28.2731  -28.8661   20.9228 N   0  0  0  0  0  0  0  0  0  0  0  0
  -34.2596  -25.6142   21.1440 N   0  0  0  0  0  0  0  0  0  0  0  0
  -34.9062  -22.3768   22.6166 N   0  3  0  0  0  0  0  0  0  0  0  0
  -22.5775  -14.6766   21.3577 O   0  0  0  0  0  0  0  0  0  0  0  0
  -29.8319  -28.1799   19.3348 O   0  0  0  0  0  0  0  0  0  0  0  0
  -32.5500  -27.7809   21.9131 O   0  0  0  0  0  0  0  0  0  0  0  0
  -27.0236  -19.5875   17.3884 O   0  0  0  0  0  0  0  0  0  0  0  0
  -33.8152  -23.5076   20.2826 O   0  0  0  0  0  0  0  0  0  0  0  0
  -31.2361  -13.1203   16.9048 O   0  0  0  0  0  0  0  0  0  0  0  0
  -28.1276  -13.4596   13.9461 O   0  0  0  0  0  0  0  0  0  0  0  0
  -30.5681  -13.4280   14.2040 O   0  0  0  0  0  0  0  0  0  0  0  0
  -21.7492   -6.9392   21.5381 O   0  0  0  0  0  0  0  0  0  0  0  0
  -27.5181  -22.1296   18.0920 O   0  0  0  0  0  0  0  0  0  1  0  0
  -18.6530   -6.5813   26.0867 F   0  0  0  0  0  0  0  0  0  0  0  0
  -22.2107   -4.9637   23.4162 F   0  0  0  0  0  0  0  0  0  0  0  0
  -29.2658  -13.5212   14.8602 S   0  0  0  0  0  0  0  0  0  0  0  0
  1  2  1  0  0  0  0
  1  5  2  0  0  0  0
  2  6  2  0  0  0  0
  3  9  2  0  0  0  0
  3 18  1  0  0  0  0
  4 10  1  0  0  0  0
  4 18  2  0  0  0  0
  5 20  1  0  0  0  0
  6 22  1  0  0  0  0
  7 11  2  0  0  0  0
  7 21  1  0  0  0  0
  8 14  2  0  0  0  0
  8 25  1  0  0  0  0
  9 26  1  0  0  0  0
 10 26  2  0  0  0  0
 11 27  1  0  0  0  0
 12 13  2  0  0  0  0
 12 28  1  0  0  0  0
 13 29  1  0  0  0  0
 14 31  1  0  0  0  0
 15 23  1  0  0  0  0
 15 27  2  0  0  0  0
 16 24  1  0  0  0  0
 16 25  2  0  0  0  0
 17 29  2  0  0  0  0
 17 30  1  0  0  0  0
 18 32  1  0  0  0  0
 19 32  1  0  0  0  0
 19 33  2  0  0  0  0
 19 34  1  0  0  0  0
 20 22  2  0  0  0  0
 20 40  1  0  0  0  0
 21 23  2  0  0  0  0
 21 41  1  0  0  0  0
 22 49  1  0  0  0  0
 23 42  1  0  0  0  0
 24 31  2  0  0  0  0
 24 52  1  0  0  0  0
 25 69  1  0  0  0  0
 26 81  1  0  0  0  0
 27 82  1  0  0  0  0
 28 30  2  0  0  0  0
 28 81  1  0  0  0  0
 29 83  1  0  0  0  0
 30 84  1  0  0  0  0
 31 85  1  0  0  0  0
 32 62  2  0  0  0  0
 33 64  1  0  0  0  0
 33 67  1  0  0  0  0
 34 68  1  0  0  0  0
 34 73  2  0  0  0  0
 35 50  1  0  0  0  0
 35 70  1  0  0  0  0
 35 74  2  0  0  0  0
 36 59  1  0  0  0  0
 36 65  1  0  0  0  0
 36 75  2  0  0  0  0
 37 58  1  0  0  0  0
 37 69  1  0  0  0  0
 37 76  2  0  0  0  0
 38 60  1  0  0  0  0
 38 71  1  0  0  0  0
 38 77  2  0  0  0  0
 39 63  1  0  0  0  0
 39 66  1  0  0  0  0
 39 78  2  0  0  0  0
 40 43  1  0  0  0  0
 41 50  1  0  0  0  0
 42 65  1  0  0  0  0
 43 45  1  0  0  0  0
 44 46  1  0  0  0  0
 44 47  1  0  0  0  0
 45 49  1  0  0  0  0
 46 51  1  0  0  0  0
 47 66  1  0  0  0  0
 48 51  1  0  0  0  0
 48 66  1  0  0  0  0
 49 70  1  0  0  0  0
 50 65  1  0  0  0  0
 51 64  1  0  0  0  0
 53 60  1  0  0  0  0
 54 61  1  0  0  0  0
 55 61  1  0  0  0  0
 56 61  1  0  0  0  0
 57 72  1  0  0  0  0
 58 82  1  0  0  0  0
 59 61  1  0  0  0  0
 59 71  1  0  0  0  0
 60 72  1  0  0  0  0
 62 64  1  0  0  0  0
 63 85  1  0  0  0  0
 79 85  2  0  0  0  0
 80 85  2  0  0  0  0
M  CHG  2  63  -1  72   1
M  ISO  4  39 100  58 101  63 100  82 101
M  END
> <Batch ID>
0054

> <Smiles>
CNC(C)C(=O)NC(C(=O)N1Cc2cc([101O:1][101CH2:1]C(=O)Nc3ccc(S(=O)(=O)[100NH:0][100C:0](=O)N4CCCC(n5nc(-c6ccc(Oc7ccc(F)cc7F)cc6)c(C(N)=O)c5N)C4)c(C)c3)ccc2CC1C(=O)NC1CCCc2ccccc21)C(C)(C)C

> <Shape>
0.266

> <Color>
0.187

> <Negative vol penalty>
0.000

$$$$

  -OEChem-04042322463D

 88 97  0     1  0  0  0  0  0999 V2000
  -22.8485   -7.9625   20.6142 C   0  0  0  0  0  0  0  0  0  0  0  0
  -22.3960   -9.1267   20.0015 C   0  0  0  0  0  0  0  0  0  0  0  0
  -28.8122  -28.1642   20.3021 C   0  0  0  0  0  0  0  0  0  0  0  0
  -27.4265  -26.3583   19.4922 C   0  0  0  0  0  0  0  0  0  0  0  0
  -23.6667   -8.0416   21.7404 C   0  0  0  0  0  0  0  0  0  0  0  0
  -22.7606  -10.3707   20.5154 C   0  0  0  0  0  0  0  0  0  0  0  0
  -23.8451  -15.4922   17.3374 C   0  0  0  0  0  0  0  0  0  0  0  0
  -29.9499  -27.3845   20.0941 C   0  0  0  0  0  0  0  0  0  0  0  0
  -28.5642  -25.5786   19.2841 C   0  0  0  0  0  0  0  0  0  0  0  0
  -23.0570  -16.6081   17.0593 C   0  0  0  0  0  0  0  0  0  0  0  0
  -31.0202  -25.3252   16.9767 C   0  0  0  0  0  0  0  0  0  0  0  0
  -31.1131  -24.6250   15.7739 C   0  0  0  0  0  0  0  0  0  0  0  0
  -24.0549  -17.7699   18.9231 C   0  0  0  0  0  0  0  0  0  0  0  0
  -18.8301  -23.8781   18.7717 C   0  0  0  0  0  0  0  0  0  0  0  0
  -18.6564  -24.6323   21.4519 C   0  0  0  0  0  0  0  0  0  0  0  0
  -31.2232  -22.5429   16.9945 C   0  0  0  0  0  0  0  0  0  0  0  0
  -27.5504  -27.6511   20.0013 C   0  0  0  0  0  0  0  0  0  0  0  0
  -26.0762  -29.6992   19.6278 C   0  0  0  0  0  0  0  0  0  0  0  0
  -24.0494   -9.2872   22.2625 C   0  0  0  0  0  0  0  0  0  0  0  0
  -24.7377  -15.5029   18.4190 C   0  0  0  0  0  0  0  0  0  0  0  0
  -23.5836  -10.4664   21.6504 C   0  0  0  0  0  0  0  0  0  0  0  0
  -24.8551  -16.6538   19.2113 C   0  0  0  0  0  0  0  0  0  0  0  0
  -17.9609  -23.2055   19.6305 C   0  0  0  0  0  0  0  0  0  0  0  0
  -19.6125  -24.9278   19.2530 C   0  0  0  0  0  0  0  0  0  0  0  0
  -17.8740  -23.5825   20.9706 C   0  0  0  0  0  0  0  0  0  0  0  0
  -19.5257  -25.3049   20.5931 C   0  0  0  0  0  0  0  0  0  0  0  0
  -29.8259  -26.0917   19.5851 C   0  0  0  0  0  0  0  0  0  0  0  0
  -23.1597  -17.7462   17.8539 C   0  0  0  0  0  0  0  0  0  0  0  0
  -31.0289  -24.6342   18.1884 C   0  0  0  0  0  0  0  0  0  0  0  0
  -31.2146  -23.2339   15.7828 C   0  0  0  0  0  0  0  0  0  0  0  0
  -31.1304  -23.2431   18.1973 C   0  0  0  0  0  0  0  0  0  0  0  0
  -26.3748  -28.4558   20.2165 C   0  0  0  0  0  0  0  0  0  0  0  0
  -24.8557  -30.0443   20.1546 C   0  0  0  0  0  0  0  0  0  0  0  0
  -17.8716  -20.6635   17.1941 C   0  0  0  0  0  0  0  0  0  0  0  0
  -26.8344  -30.4731   18.6886 C   0  0  0  0  0  0  0  0  0  0  0  0
  -25.0348  -13.8195   21.0988 C   0  0  0  0  0  0  0  0  0  0  0  0
  -27.7773  -15.5244   21.4052 C   0  0  0  0  0  0  0  0  0  0  0  0
  -29.5417  -18.3390   20.6230 C   0  0  0  0  0  0  0  0  0  0  0  0
  -20.3327  -26.8549   22.4076 C   0  0  0  0  0  0  0  0  0  0  0  0
  -24.8966   -9.3222   23.5098 C   0  0  0  0  0  0  0  0  0  0  0  0
  -25.6001  -14.3006   18.6895 C   0  0  0  0  0  0  0  0  0  0  0  0
  -25.8127  -16.7233   20.3717 C   0  0  0  0  0  0  0  0  0  0  0  0
  -18.7648  -19.4980   16.8179 C   0  0  0  0  0  0  0  0  0  0  0  0
  -25.5433  -10.6804   23.7689 C   0  0  0  0  0  0  0  0  0  0  0  0
  -22.1538  -29.4295   24.0606 C   0  0  0  0  0  0  0  0  0  0  0  0
  -24.5215  -11.7998   23.5967 C   0  0  0  0  0  0  0  0  0  0  0  0
  -23.4129  -29.5893   23.2054 C   0  0  0  0  0  0  0  0  0  0  0  0
  -20.0642  -19.7646   18.9694 C   0  0  0  0  0  0  0  0  0  0  0  0
  -21.7100  -27.9704   24.1493 C   0  0  0  0  0  0  0  0  0  0  0  0
  -18.6831  -20.1706   19.4810 C   0  0  0  0  0  0  0  0  0  0  0  0
  -22.8013  -27.4527   22.0022 C   0  0  0  0  0  0  0  0  0  0  0  0
  -23.9776  -11.8345   22.1634 C   0  0  1  0  0  0  0  0  0  0  0  0
  -26.1030  -14.2376   20.1284 C   0  0  1  0  0  0  0  0  0  0  0  0
  -20.1483  -19.6919   17.4371 C   0  0  1  0  0  0  0  0  0  0  0  0
  -23.2495  -28.9132   21.8300 C   0  0  2  0  0  0  0  0  0  0  0  0
  -20.5349  -25.6307   18.3105 C   0  0  0  0  0  0  0  0  0  0  0  0
  -16.9508  -22.8768   21.9087 C   0  0  0  0  0  0  0  0  0  0  0  0
  -31.7410  -19.4683   21.0531 C   0  0  0  0  0  0  0  0  0  0  0  0
  -26.8126  -16.3399   24.1827 C   0  0  0  0  0  0  0  0  0  0  0  0
  -28.5267  -18.1647   24.1660 C   0  0  0  0  0  0  0  0  0  0  0  0
  -29.2460  -15.7791   24.0465 C   0  0  0  0  0  0  0  0  0  0  0  0
  -30.2667  -18.2767   17.7543 C   0  0  0  0  0  0  0  0  0  0  0  0
  -17.1290  -22.0786   19.0899 C   0  0  0  0  0  0  0  0  0  0  0  0
  -21.1167  -18.6015   16.9875 C   0  0  0  0  0  0  0  0  0  1  0  0
  -28.1503  -16.8456   22.0331 C   0  0  1  0  0  0  0  0  0  0  0  0
  -30.9673  -18.5319   20.1382 C   0  0  2  0  0  0  0  0  0  0  0  0
  -28.1643  -16.7806   23.5865 C   0  0  0  0  0  0  0  0  0  0  0  0
  -25.4208  -28.0392   21.0534 N   0  0  0  0  0  0  0  0  0  0  0  0
  -24.5109  -29.0265   20.9944 N   0  0  0  0  0  0  0  0  0  0  0  0
  -17.9492  -21.0108   18.5429 N   0  0  0  0  0  0  0  0  0  0  0  0
  -26.6297  -15.5200   20.5997 N   0  0  0  0  0  0  0  0  0  0  0  0
  -21.5720  -27.3972   22.8087 N   0  0  0  0  0  0  0  0  0  0  0  0
  -24.0544  -31.1162   19.9769 N   0  0  0  0  0  0  0  0  0  0  0  0
  -26.6228  -30.2573   17.3201 N   0  0  0  0  0  0  0  0  0  0  0  0
  -20.3121  -26.3687   21.1008 N   0  0  0  0  0  0  0  0  0  0  0  0
  -24.9373  -12.4522   21.2735 N   0  0  0  0  0  0  0  0  0  0  0  0
  -29.4252  -17.2341   21.4397 N   0  0  0  0  0  0  0  0  0  0  0  0
  -30.9734  -19.1070   18.7633 N   0  3  0  0  0  0  0  0  0  0  0  0
  -17.1493  -21.2050   16.3588 O   0  0  0  0  0  0  0  0  0  0  0  0
  -27.6865  -31.3188   19.0523 O   0  0  0  0  0  0  0  0  0  0  0  0
  -24.3506  -14.6741   21.6495 O   0  0  0  0  0  0  0  0  0  0  0  0
  -28.4824  -14.5344   21.6158 O   0  0  0  0  0  0  0  0  0  0  0  0
  -28.6241  -19.0950   20.3117 O   0  0  0  0  0  0  0  0  0  0  0  0
  -19.3536  -26.8489   23.1580 O   0  0  0  0  0  0  0  0  0  0  0  0
  -30.9359  -25.3307   19.3817 O   0  0  0  0  0  0  0  0  0  0  0  0
  -22.3911  -18.8365   17.5851 O   0  0  0  0  0  0  0  0  0  1  0  0
  -31.3022  -22.5615   14.6276 F   0  0  0  0  0  0  0  0  0  0  0  0
  -31.1381  -22.5737   19.3582 F   0  0  0  0  0  0  0  0  0  0  0  0
  1  2  1  0  0  0  0
  1  5  2  0  0  0  0
  2  6  2  0  0  0  0
  3  8  2  0  0  0  0
  3 17  1  0  0  0  0
  4  9  1  0  0  0  0
  4 17  2  0  0  0  0
  5 19  1  0  0  0  0
  6 21  1  0  0  0  0
  7 10  2  0  0  0  0
  7 20  1  0  0  0  0
  8 27  1  0  0  0  0
  9 27  2  0  0  0  0
 10 28  1  0  0  0  0
 11 12  2  0  0  0  0
 11 29  1  0  0  0  0
 12 30  1  0  0  0  0
 13 22  1  0  0  0  0
 13 28  2  0  0  0  0
 14 23  1  0  0  0  0
 14 24  2  0  0  0  0
 15 25  1  0  0  0  0
 15 26  2  0  0  0  0
 16 30  2  0  0  0  0
 16 31  1  0  0  0  0
 17 32  1  0  0  0  0
 18 32  1  0  0  0  0
 18 33  2  0  0  0  0
 18 35  1  0  0  0  0
 19 21  2  0  0  0  0
 19 40  1  0  0  0  0
 20 22  2  0  0  0  0
 20 41  1  0  0  0  0
 21 52  1  0  0  0  0
 22 42  1  0  0  0  0
 23 25  2  0  0  0  0
 23 63  1  0  0  0  0
 24 26  1  0  0  0  0
 24 56  1  0  0  0  0
 25 57  1  0  0  0  0
 26 75  1  0  0  0  0
 27 85  1  0  0  0  0
 28 86  1  0  0  0  0
 29 31  2  0  0  0  0
 29 85  1  0  0  0  0
 30 87  1  0  0  0  0
 31 88  1  0  0  0  0
 32 68  2  0  0  0  0
 33 69  1  0  0  0  0
 33 73  1  0  0  0  0
 34 43  1  0  0  0  0
 34 70  1  0  0  0  0
 34 79  2  0  0  0  0
 35 74  1  0  0  0  0
 35 80  2  0  0  0  0
 36 53  1  0  0  0  0
 36 76  1  0  0  0  0
 36 81  2  0  0  0  0
 37 65  1  0  0  0  0
 37 71  1  0  0  0  0
 37 82  2  0  0  0  0
 38 66  1  0  0  0  0
 38 77  1  0  0  0  0
 38 83  2  0  0  0  0
 39 72  1  0  0  0  0
 39 75  1  0  0  0  0
 39 84  2  0  0  0  0
 40 44  1  0  0  0  0
 41 53  1  0  0  0  0
 42 71  1  0  0  0  0
 43 54  1  0  0  0  0
 44 46  1  0  0  0  0
 45 47  1  0  0  0  0
 45 49  1  0  0  0  0
 46 52  1  0  0  0  0
 47 55  1  0  0  0  0
 48 50  1  0  0  0  0
 48 54  1  0  0  0  0
 49 72  1  0  0  0  0
 50 70  1  0  0  0  0
 51 55  1  0  0  0  0
 51 72  1  0  0  0  0
 52 76  1  0  0  0  0
 53 71  1  0  0  0  0
 54 64  1  0  0  0  0
 55 69  1  0  0  0  0
 58 66  1  0  0  0  0
 59 67  1  0  0  0  0
 60 67  1  0  0  0  0
 61 67  1  0  0  0  0
 62 78  1  0  0  0  0
 63 70  1  0  0  0  0
 64 86  1  0  0  0  0
 65 67  1  0  0  0  0
 65 77  1  0  0  0  0
 66 78  1  0  0  0  0
 68 69  1  0  0  0  0
M  CHG  1  78   1
M  ISO  4  39 100  64 101  75 100  86 101
M  END
> <Batch ID>
0054

> <Smiles>
CNC(C)C(=O)NC(C(=O)N1Cc2cc([101O:1][101CH2:1]C3CCN(Cc4cc(C)c([100NH:0][100C:0](=O)N5CCCC(n6nc(-c7ccc(Oc8ccc(F)cc8F)cc7)c(C(N)=O)c6N)C5)cc4C)C(=O)C3)ccc2CC1C(=O)NC1CCCc2ccccc21)C(C)(C)C

> <Shape>
0.241

> <Color>
0.049

> <Negative vol penalty>
0.000

$$$$
