
  -OEChem-04042322493D

 85 93  0     1  0  0  0  0  0999 V2000
  -20.5225  -25.8411   25.7672 C   0  0  0  0  0  0  0  0  0  0  0  0
  -21.6190  -25.6419   24.9344 C   0  0  0  0  0  0  0  0  0  0  0  0
  -25.5408  -19.8807   20.0525 C   0  0  0  0  0  0  0  0  0  0  0  0
  -24.6242   -9.2567   21.6105 C   0  0  0  0  0  0  0  0  0  0  0  0
  -23.1381  -11.1441   21.3531 C   0  0  0  0  0  0  0  0  0  0  0  0
  -19.4259  -26.5714   25.3112 C   0  0  0  0  0  0  0  0  0  0  0  0
  -21.6189  -26.1720   23.6446 C   0  0  0  0  0  0  0  0  0  0  0  0
  -26.0089  -28.4015   22.4603 C   0  0  0  0  0  0  0  0  0  0  0  0
  -26.4512  -20.7817   20.6047 C   0  0  0  0  0  0  0  0  0  0  0  0
  -25.9551  -18.5946   19.7061 C   0  0  0  0  0  0  0  0  0  0  0  0
  -23.8090   -8.7530   22.6241 C   0  0  0  0  0  0  0  0  0  0  0  0
  -22.3228  -10.6404   22.3666 C   0  0  0  0  0  0  0  0  0  0  0  0
  -27.0715  -27.5695   22.1105 C   0  0  0  0  0  0  0  0  0  0  0  0
  -20.8910   -7.0617   22.8646 C   0  0  0  0  0  0  0  0  0  0  0  0
  -20.5855   -5.7011   22.8347 C   0  0  0  0  0  0  0  0  0  0  0  0
  -26.6425  -28.0122   19.7783 C   0  0  0  0  0  0  0  0  0  0  0  0
  -28.1904  -19.1105   20.4640 C   0  0  0  0  0  0  0  0  0  0  0  0
  -21.6187   -5.4216   25.0007 C   0  0  0  0  0  0  0  0  0  0  0  0
  -24.2888  -10.4523   20.9750 C   0  0  0  0  0  0  0  0  0  0  0  0
  -25.0342  -10.7095   18.5490 C   0  0  0  0  0  0  0  0  0  0  0  0
  -19.4164  -27.1190   24.0186 C   0  0  0  0  0  0  0  0  0  0  0  0
  -25.2469  -29.0376   21.4697 C   0  0  0  0  0  0  0  0  0  0  0  0
  -20.5205  -26.9092   23.1705 C   0  0  0  0  0  0  0  0  0  0  0  0
  -25.5723  -28.8538   20.1183 C   0  0  0  0  0  0  0  0  0  0  0  0
  -27.7760  -20.3966   20.8104 C   0  0  0  0  0  0  0  0  0  0  0  0
  -27.2799  -18.2095   19.9118 C   0  0  0  0  0  0  0  0  0  0  0  0
  -22.6583   -9.4448   23.0021 C   0  0  0  0  0  0  0  0  0  0  0  0
  -27.3867  -27.3725   20.7693 C   0  0  0  0  0  0  0  0  0  0  0  0
  -21.5605   -7.6023   23.9624 C   0  0  0  0  0  0  0  0  0  0  0  0
  -20.9493   -4.8810   23.9028 C   0  0  0  0  0  0  0  0  0  0  0  0
  -21.9243   -6.7823   25.0305 C   0  0  0  0  0  0  0  0  0  0  0  0
  -25.1308  -10.9734   19.9284 C   0  0  0  0  0  0  0  0  0  0  0  0
  -26.0547  -11.4375   17.9877 C   0  0  0  0  0  0  0  0  0  0  0  0
  -24.1050   -9.8803   17.8384 C   0  0  0  0  0  0  0  0  0  0  0  0
  -22.1956  -28.9479   20.5839 C   0  0  0  0  0  0  0  0  0  0  0  0
  -23.1037  -31.3531   18.6057 C   0  0  0  0  0  0  0  0  0  0  0  0
  -28.5238  -23.6082   20.3125 C   0  0  0  0  0  0  0  0  0  0  0  0
  -25.6188  -32.9142   16.9076 C   0  0  0  0  0  0  0  0  0  0  0  0
  -28.9775  -16.3605   19.6986 C   0  0  0  0  0  0  0  0  0  0  0  0
  -18.1885  -27.8609   23.5535 C   0  0  0  0  0  0  0  0  0  0  0  0
  -24.1207  -29.9530   21.8644 C   0  0  0  0  0  0  0  0  0  0  0  0
  -24.7982  -29.5297   19.0172 C   0  0  0  0  0  0  0  0  0  0  0  0
  -18.4246  -28.7073   22.3053 C   0  0  0  0  0  0  0  0  0  0  0  0
  -30.4035  -13.1766   18.9868 C   0  0  0  0  0  0  0  0  0  0  0  0
  -19.1873  -27.9072   21.2542 C   0  0  0  0  0  0  0  0  0  0  0  0
  -29.2035  -12.2272   19.0160 C   0  0  0  0  0  0  0  0  0  0  0  0
  -30.2837  -14.2746   20.0422 C   0  0  0  0  0  0  0  0  0  0  0  0
  -27.8274  -14.0849   20.0370 C   0  0  0  0  0  0  0  0  0  0  0  0
  -20.5683  -27.4895   21.7737 C   0  0  1  0  0  0  0  0  0  0  0  0
  -23.0892  -30.1434   20.7566 C   0  0  1  0  0  0  0  0  0  0  0  0
  -27.8717  -13.0001   18.9485 C   0  0  2  0  0  0  0  0  0  0  0  0
  -31.6043  -22.4266   20.2676 C   0  0  0  0  0  0  0  0  0  0  0  0
  -26.0472  -34.8307   15.3452 C   0  0  0  0  0  0  0  0  0  0  0  0
  -21.9243  -29.7360   16.3026 C   0  0  0  0  0  0  0  0  0  0  0  0
  -23.1962  -31.1977   14.7170 C   0  0  0  0  0  0  0  0  0  0  0  0
  -21.4548  -32.1904   16.2019 C   0  0  0  0  0  0  0  0  0  0  0  0
  -27.4343  -34.2329   18.8373 C   0  0  0  0  0  0  0  0  0  0  0  0
  -28.7556  -21.3668   21.4048 C   0  0  0  0  0  0  0  0  0  0  0  0
  -29.0847  -24.5581   19.2593 C   0  0  0  0  0  0  0  0  0  0  0  0
  -30.3276  -22.0104   19.6201 C   0  0  0  0  0  0  0  0  0  0  0  0
  -28.3249  -25.8761   19.1766 C   0  0  0  0  0  0  0  0  0  1  0  0
  -23.6504  -31.4331   17.2009 C   0  0  1  0  0  0  0  0  0  0  0  0
  -26.0014  -34.3791   16.7966 C   0  0  2  0  0  0  0  0  0  0  0  0
  -22.5700  -31.1249   16.1261 C   0  0  0  0  0  0  0  0  0  0  0  0
  -26.1336  -11.8042   20.2254 N   0  0  0  0  0  0  0  0  0  0  0  0
  -26.6766  -12.0685   19.0247 N   0  0  0  0  0  0  0  0  0  0  0  0
  -23.7020  -30.4103   19.4536 N   0  0  0  0  0  0  0  0  0  0  0  0
  -28.9991  -14.9663   19.9145 N   0  0  0  0  0  0  0  0  0  0  0  0
  -26.4719  -11.5931   16.7133 N   0  0  0  0  0  0  0  0  0  0  0  0
  -23.1195   -9.2031   18.5694 N   0  0  0  0  0  0  0  0  0  0  0  0
  -27.7002  -16.9028   19.5604 N   0  0  0  0  0  0  0  0  0  0  0  0
  -21.4874  -28.6061   21.7201 N   0  0  0  0  0  0  0  0  0  0  0  0
  -24.2596  -32.7527   17.0745 N   0  0  0  0  0  0  0  0  0  0  0  0
  -29.1760  -22.3768   20.4414 N   0  0  0  0  0  0  0  0  0  0  0  0
  -27.3425  -34.6115   17.4037 N   0  3  0  0  0  0  0  0  0  0  0  0
  -24.1576   -9.7311   16.5940 O   0  0  0  0  0  0  0  0  0  0  0  0
  -22.1507  -28.3788   19.4996 O   0  0  0  0  0  0  0  0  0  0  0  0
  -22.1846  -32.1046   18.9407 O   0  0  0  0  0  0  0  0  0  0  0  0
  -27.5506  -23.9347   20.9969 O   0  0  0  0  0  0  0  0  0  0  0  0
  -26.4427  -32.0042   16.8481 O   0  0  0  0  0  0  0  0  0  0  0  0
  -30.0165  -17.0202   19.6133 O   0  0  0  0  0  0  0  0  0  0  0  0
  -21.8624   -8.9535   23.9909 O   0  0  0  0  0  0  0  0  0  0  0  0
  -28.4230  -26.5604   20.4250 O   0  0  0  0  0  0  0  0  0  1  0  0
  -20.6545   -3.5747   23.8747 F   0  0  0  0  0  0  0  0  0  0  0  0
  -22.5666   -7.2961   26.0885 F   0  0  0  0  0  0  0  0  0  0  0  0
  1  2  1  0  0  0  0
  1  6  2  0  0  0  0
  2  7  2  0  0  0  0
  3  9  2  0  0  0  0
  3 10  1  0  0  0  0
  4 11  2  0  0  0  0
  4 19  1  0  0  0  0
  5 12  1  0  0  0  0
  5 19  2  0  0  0  0
  6 21  1  0  0  0  0
  7 23  1  0  0  0  0
  8 13  2  0  0  0  0
  8 22  1  0  0  0  0
  9 25  1  0  0  0  0
 10 26  2  0  0  0  0
 11 27  1  0  0  0  0
 12 27  2  0  0  0  0
 13 28  1  0  0  0  0
 14 15  2  0  0  0  0
 14 29  1  0  0  0  0
 15 30  1  0  0  0  0
 16 24  1  0  0  0  0
 16 28  2  0  0  0  0
 17 25  2  0  0  0  0
 17 26  1  0  0  0  0
 18 30  2  0  0  0  0
 18 31  1  0  0  0  0
 19 32  1  0  0  0  0
 20 32  1  0  0  0  0
 20 33  2  0  0  0  0
 20 34  1  0  0  0  0
 21 23  2  0  0  0  0
 21 40  1  0  0  0  0
 22 24  2  0  0  0  0
 22 41  1  0  0  0  0
 23 49  1  0  0  0  0
 24 42  1  0  0  0  0
 25 58  1  0  0  0  0
 26 71  1  0  0  0  0
 27 82  1  0  0  0  0
 28 83  1  0  0  0  0
 29 31  2  0  0  0  0
 29 82  1  0  0  0  0
 30 84  1  0  0  0  0
 31 85  1  0  0  0  0
 32 65  2  0  0  0  0
 33 66  1  0  0  0  0
 33 69  1  0  0  0  0
 34 70  1  0  0  0  0
 34 76  2  0  0  0  0
 35 50  1  0  0  0  0
 35 72  1  0  0  0  0
 35 77  2  0  0  0  0
 36 62  1  0  0  0  0
 36 67  1  0  0  0  0
 36 78  2  0  0  0  0
 37 59  1  0  0  0  0
 37 74  1  0  0  0  0
 37 79  2  0  0  0  0
 38 63  1  0  0  0  0
 38 73  1  0  0  0  0
 38 80  2  0  0  0  0
 39 68  1  0  0  0  0
 39 71  1  0  0  0  0
 39 81  2  0  0  0  0
 40 43  1  0  0  0  0
 41 50  1  0  0  0  0
 42 67  1  0  0  0  0
 43 45  1  0  0  0  0
 44 46  1  0  0  0  0
 44 47  1  0  0  0  0
 45 49  1  0  0  0  0
 46 51  1  0  0  0  0
 47 68  1  0  0  0  0
 48 51  1  0  0  0  0
 48 68  1  0  0  0  0
 49 72  1  0  0  0  0
 50 67  1  0  0  0  0
 51 66  1  0  0  0  0
 52 60  1  0  0  0  0
 53 63  1  0  0  0  0
 54 64  1  0  0  0  0
 55 64  1  0  0  0  0
 56 64  1  0  0  0  0
 57 75  1  0  0  0  0
 58 74  1  0  0  0  0
 59 61  1  0  0  0  0
 60 74  1  0  0  0  0
 61 83  1  0  0  0  0
 62 64  1  0  0  0  0
 62 73  1  0  0  0  0
 63 75  1  0  0  0  0
 65 66  1  0  0  0  0
M  CHG  1  75   1
M  ISO  4  39 100  61 101  71 100  83 101
M  END
> <Batch ID>
0055

> <Smiles>
CCN(Cc1cccc([100NH:0][100C:0](=O)N2CCCC(n3nc(-c4ccc(Oc5ccc(F)cc5F)cc4)c(C(N)=O)c3N)C2)c1)C(=O)C[101CH2:1][101O:1]c1ccc2c(c1)CN(C(=O)C(NC(=O)C(C)NC)C(C)(C)C)C(C(=O)NC1CCCc3ccccc31)C2

> <Shape>
0.274

> <Color>
0.110

> <Negative vol penalty>
0.000

$$$$

  -OEChem-04042322493D

 85 93  0     1  0  0  0  0  0999 V2000
  -23.8849  -12.1731   17.1257 C   0  0  0  0  0  0  0  0  0  0  0  0
  -23.4440  -13.4907   17.1959 C   0  0  0  0  0  0  0  0  0  0  0  0
  -30.4020  -27.5262   19.2164 C   0  0  0  0  0  0  0  0  0  0  0  0
  -30.2771  -27.1876   21.6053 C   0  0  0  0  0  0  0  0  0  0  0  0
  -24.5099  -11.5889   18.2266 C   0  0  0  0  0  0  0  0  0  0  0  0
  -23.6268  -14.2245   18.3674 C   0  0  0  0  0  0  0  0  0  0  0  0
  -24.7905  -20.2207   18.8119 C   0  0  0  0  0  0  0  0  0  0  0  0
  -18.3259  -27.8862   21.9210 C   0  0  0  0  0  0  0  0  0  0  0  0
  -19.5385  -28.5686   22.0180 C   0  0  0  0  0  0  0  0  0  0  0  0
  -31.7943  -27.5600   19.2939 C   0  0  0  0  0  0  0  0  0  0  0  0
  -31.6694  -27.2214   21.6829 C   0  0  0  0  0  0  0  0  0  0  0  0
  -23.9709  -21.3187   19.0698 C   0  0  0  0  0  0  0  0  0  0  0  0
  -35.2024  -26.8580   22.4599 C   0  0  0  0  0  0  0  0  0  0  0  0
  -35.8330  -25.8880   23.2391 C   0  0  0  0  0  0  0  0  0  0  0  0
  -24.5744  -21.2136   21.4030 C   0  0  0  0  0  0  0  0  0  0  0  0
  -20.5679  -26.6033   22.9747 C   0  0  0  0  0  0  0  0  0  0  0  0
  -34.8816  -24.1544   21.8510 C   0  0  0  0  0  0  0  0  0  0  0  0
  -29.6434  -27.3400   20.3720 C   0  0  0  0  0  0  0  0  0  0  0  0
  -27.3918  -26.1745   20.0900 C   0  0  0  0  0  0  0  0  0  0  0  0
  -24.7091  -12.3190   19.4090 C   0  0  0  0  0  0  0  0  0  0  0  0
  -25.5009  -19.6031   19.8513 C   0  0  0  0  0  0  0  0  0  0  0  0
  -24.2538  -13.6491   19.4856 C   0  0  0  0  0  0  0  0  0  0  0  0
  -25.4043  -20.1095   21.1553 C   0  0  0  0  0  0  0  0  0  0  0  0
  -18.2342  -26.5623   22.3509 C   0  0  0  0  0  0  0  0  0  0  0  0
  -19.3552  -25.9209   22.8777 C   0  0  0  0  0  0  0  0  0  0  0  0
  -20.6595  -27.9271   22.5448 C   0  0  0  0  0  0  0  0  0  0  0  0
  -32.4280  -27.4076   20.5272 C   0  0  0  0  0  0  0  0  0  0  0  0
  -23.8605  -21.8135   20.3660 C   0  0  0  0  0  0  0  0  0  0  0  0
  -34.4113  -26.4762   21.3763 C   0  0  0  0  0  0  0  0  0  0  0  0
  -35.6726  -24.5363   22.9346 C   0  0  0  0  0  0  0  0  0  0  0  0
  -34.2509  -25.1244   21.0719 C   0  0  0  0  0  0  0  0  0  0  0  0
  -28.2051  -27.3055   20.2926 C   0  0  0  0  0  0  0  0  0  0  0  0
  -26.1101  -26.6681   20.0938 C   0  0  0  0  0  0  0  0  0  0  0  0
  -27.7618  -24.8005   19.9141 C   0  0  0  0  0  0  0  0  0  0  0  0
  -25.5084  -16.7011   21.1482 C   0  0  0  0  0  0  0  0  0  0  0  0
  -28.0296  -17.8781   22.8157 C   0  0  0  0  0  0  0  0  0  0  0  0
  -21.1474  -23.7025   21.8550 C   0  0  0  0  0  0  0  0  0  0  0  0
  -29.6703  -20.6062   24.0455 C   0  0  0  0  0  0  0  0  0  0  0  0
  -22.1548  -29.9344   22.2594 C   0  0  0  0  0  0  0  0  0  0  0  0
  -25.3473  -11.6297   20.5889 C   0  0  0  0  0  0  0  0  0  0  0  0
  -26.4016  -18.4362   19.5521 C   0  0  0  0  0  0  0  0  0  0  0  0
  -26.1621  -19.4950   22.3028 C   0  0  0  0  0  0  0  0  0  0  0  0
  -25.8386  -12.5943   21.6652 C   0  0  0  0  0  0  0  0  0  0  0  0
  -24.4162  -31.4361   19.9554 C   0  0  0  0  0  0  0  0  0  0  0  0
  -24.7722  -13.6412   21.9710 C   0  0  0  0  0  0  0  0  0  0  0  0
  -25.5366  -30.4023   19.8211 C   0  0  0  0  0  0  0  0  0  0  0  0
  -23.8724  -31.5010   21.3816 C   0  0  0  0  0  0  0  0  0  0  0  0
  -24.5718  -29.1780   21.8104 C   0  0  0  0  0  0  0  0  0  0  0  0
  -24.4561  -14.4854   20.7305 C   0  0  1  0  0  0  0  0  0  0  0  0
  -26.6786  -17.5664   20.7744 C   0  0  1  0  0  0  0  0  0  0  0  0
  -25.1071  -29.0303   20.3768 C   0  0  2  0  0  0  0  0  0  0  0  0
  -16.9250  -25.8526   22.2377 C   0  0  0  0  0  0  0  0  0  0  0  0
  -31.4932  -21.9180   25.1651 C   0  0  0  0  0  0  0  0  0  0  0  0
  -18.8950  -24.4135   24.8332 C   0  0  0  0  0  0  0  0  0  0  0  0
  -26.5854  -17.0195   25.3627 C   0  0  0  0  0  0  0  0  0  0  0  0
  -28.1345  -18.5004   26.6571 C   0  0  0  0  0  0  0  0  0  0  0  0
  -29.0466  -16.5755   25.3588 C   0  0  0  0  0  0  0  0  0  0  0  0
  -31.1567  -20.9287   21.5066 C   0  0  0  0  0  0  0  0  0  0  0  0
  -22.4630  -22.9560   21.9144 C   0  0  0  0  0  0  0  0  0  1  0  0
  -28.1970  -18.6118   24.1244 C   0  0  1  0  0  0  0  0  0  0  0  0
  -31.1344  -21.0048   24.0031 C   0  0  2  0  0  0  0  0  0  0  0  0
  -19.2798  -24.4763   23.3512 C   0  0  2  0  0  0  0  0  0  0  0  0
  -27.9750  -17.6874   25.3547 C   0  0  0  0  0  0  0  0  0  0  0  0
  -27.4993  -28.4327   20.4160 N   0  0  0  0  0  0  0  0  0  0  0  0
  -26.2290  -28.0125   20.2904 N   0  0  0  0  0  0  0  0  0  0  0  0
  -27.0247  -18.3521   21.9606 N   0  0  0  0  0  0  0  0  0  0  0  0
  -23.4817  -30.1658   21.8394 N   0  0  0  0  0  0  0  0  0  0  0  0
  -24.9042  -26.0790   19.9479 N   0  0  0  0  0  0  0  0  0  0  0  0
  -29.1228  -24.4668   19.9372 N   0  0  0  0  0  0  0  0  0  0  0  0
  -21.8921  -28.6193   22.6417 N   0  0  0  0  0  0  0  0  0  0  0  0
  -25.4914  -15.4733   20.5143 N   0  0  0  0  0  0  0  0  0  0  0  0
  -29.5145  -19.2365   24.0764 N   0  0  0  0  0  0  0  0  0  0  0  0
  -20.5575  -23.7993   23.1073 N   0  0  0  0  0  0  0  0  0  0  0  0
  -31.4401  -21.7198   22.7318 N   0  3  0  0  0  0  0  0  0  0  0  0
  -26.9115  -23.8978   19.7252 O   0  0  0  0  0  0  0  0  0  0  0  0
  -24.6830  -17.1160   21.9532 O   0  0  0  0  0  0  0  0  0  0  0  0
  -28.7681  -16.9241   22.5585 O   0  0  0  0  0  0  0  0  0  0  0  0
  -20.6902  -24.1589   20.8108 O   0  0  0  0  0  0  0  0  0  0  0  0
  -28.7562  -21.4278   24.0542 O   0  0  0  0  0  0  0  0  0  0  0  0
  -21.3064  -30.8301   22.2527 O   0  0  0  0  0  0  0  0  0  0  0  0
  -33.7865  -27.4403   20.6032 O   0  0  0  0  0  0  0  0  0  0  0  0
  -23.0607  -22.8846   20.6206 O   0  0  0  0  0  0  0  0  0  1  0  0
  -36.2795  -23.6050   23.6820 F   0  0  0  0  0  0  0  0  0  0  0  0
  -33.4931  -24.7515   20.0314 F   0  0  0  0  0  0  0  0  0  0  0  0
  -18.3102  -23.7808   22.6765 F   0  0  0  0  0  0  0  0  0  0  0  0
  1  2  1  0  0  0  0
  1  5  2  0  0  0  0
  2  6  2  0  0  0  0
  3 10  2  0  0  0  0
  3 18  1  0  0  0  0
  4 11  1  0  0  0  0
  4 18  2  0  0  0  0
  5 20  1  0  0  0  0
  6 22  1  0  0  0  0
  7 12  2  0  0  0  0
  7 21  1  0  0  0  0
  8  9  2  0  0  0  0
  8 24  1  0  0  0  0
  9 26  1  0  0  0  0
 10 27  1  0  0  0  0
 11 27  2  0  0  0  0
 12 28  1  0  0  0  0
 13 14  2  0  0  0  0
 13 29  1  0  0  0  0
 14 30  1  0  0  0  0
 15 23  1  0  0  0  0
 15 28  2  0  0  0  0
 16 25  1  0  0  0  0
 16 26  2  0  0  0  0
 17 30  2  0  0  0  0
 17 31  1  0  0  0  0
 18 32  1  0  0  0  0
 19 32  1  0  0  0  0
 19 33  2  0  0  0  0
 19 34  1  0  0  0  0
 20 22  2  0  0  0  0
 20 40  1  0  0  0  0
 21 23  2  0  0  0  0
 21 41  1  0  0  0  0
 22 49  1  0  0  0  0
 23 42  1  0  0  0  0
 24 25  2  0  0  0  0
 24 52  1  0  0  0  0
 25 62  1  0  0  0  0
 26 70  1  0  0  0  0
 27 81  1  0  0  0  0
 28 82  1  0  0  0  0
 29 31  2  0  0  0  0
 29 81  1  0  0  0  0
 30 83  1  0  0  0  0
 31 84  1  0  0  0  0
 32 64  2  0  0  0  0
 33 65  1  0  0  0  0
 33 68  1  0  0  0  0
 34 69  1  0  0  0  0
 34 75  2  0  0  0  0
 35 50  1  0  0  0  0
 35 71  1  0  0  0  0
 35 76  2  0  0  0  0
 36 60  1  0  0  0  0
 36 66  1  0  0  0  0
 36 77  2  0  0  0  0
 37 59  1  0  0  0  0
 37 73  1  0  0  0  0
 37 78  2  0  0  0  0
 38 61  1  0  0  0  0
 38 72  1  0  0  0  0
 38 79  2  0  0  0  0
 39 67  1  0  0  0  0
 39 70  1  0  0  0  0
 39 80  2  0  0  0  0
 40 43  1  0  0  0  0
 41 50  1  0  0  0  0
 42 66  1  0  0  0  0
 43 45  1  0  0  0  0
 44 46  1  0  0  0  0
 44 47  1  0  0  0  0
 45 49  1  0  0  0  0
 46 51  1  0  0  0  0
 47 67  1  0  0  0  0
 48 51  1  0  0  0  0
 48 67  1  0  0  0  0
 49 71  1  0  0  0  0
 50 66  1  0  0  0  0
 51 65  1  0  0  0  0
 53 61  1  0  0  0  0
 54 62  1  0  0  0  0
 55 63  1  0  0  0  0
 56 63  1  0  0  0  0
 57 63  1  0  0  0  0
 58 74  1  0  0  0  0
 59 82  1  0  0  0  0
 60 63  1  0  0  0  0
 60 72  1  0  0  0  0
 61 74  1  0  0  0  0
 62 73  1  0  0  0  0
 62 85  1  0  0  0  0
 64 65  1  0  0  0  0
M  CHG  1  74   1
M  ISO  4  39 100  59 101  70 100  82 101
M  END
> <Batch ID>
0055

> <Smiles>
CNC(C)C(=O)NC(C(=O)N1Cc2cc([101O:1][101CH2:1]C(=O)NC(C)(F)c3cc([100NH:0][100C:0](=O)N4CCCC(n5nc(-c6ccc(Oc7ccc(F)cc7F)cc6)c(C(N)=O)c5N)C4)ccc3C)ccc2CC1C(=O)NC1CCCc2ccccc21)C(C)(C)C

> <Shape>
0.180

> <Color>
0.077

> <Negative vol penalty>
0.000

$$$$

  -OEChem-04042322493D

 87 95  0     1  0  0  0  0  0999 V2000
  -19.2431  -22.5081   19.4782 C   0  0  0  0  0  0  0  0  0  0  0  0
  -27.6571  -12.0558   17.7193 C   0  0  0  0  0  0  0  0  0  0  0  0
  -27.3012  -13.3414   17.3244 C   0  0  0  0  0  0  0  0  0  0  0  0
  -29.2333  -24.4049   19.6789 C   0  0  0  0  0  0  0  0  0  0  0  0
  -27.5051  -23.2112   20.8727 C   0  0  0  0  0  0  0  0  0  0  0  0
  -27.0836  -11.4941   18.8593 C   0  0  0  0  0  0  0  0  0  0  0  0
  -26.3706  -14.0656   18.0687 C   0  0  0  0  0  0  0  0  0  0  0  0
  -24.7872  -20.7737   20.0208 C   0  0  0  0  0  0  0  0  0  0  0  0
  -30.1828  -23.4947   20.1432 C   0  0  0  0  0  0  0  0  0  0  0  0
  -28.4546  -22.3009   21.3370 C   0  0  0  0  0  0  0  0  0  0  0  0
  -23.7207  -21.6717   20.0225 C   0  0  0  0  0  0  0  0  0  0  0  0
  -30.3656  -19.4534   22.5444 C   0  0  0  0  0  0  0  0  0  0  0  0
  -30.0447  -18.0970   22.4919 C   0  0  0  0  0  0  0  0  0  0  0  0
  -18.1051  -27.0558   21.9808 C   0  0  0  0  0  0  0  0  0  0  0  0
  -22.8545  -20.6298   22.0184 C   0  0  0  0  0  0  0  0  0  0  0  0
  -19.3636  -28.9527   22.7900 C   0  0  0  0  0  0  0  0  0  0  0  0
  -29.7932  -18.2494   20.0939 C   0  0  0  0  0  0  0  0  0  0  0  0
  -27.8945  -24.2632   20.0437 C   0  0  0  0  0  0  0  0  0  0  0  0
  -19.0795  -26.1943   22.4846 C   0  0  0  0  0  0  0  0  0  0  0  0
  -26.1570  -25.1139   18.3808 C   0  0  0  0  0  0  0  0  0  0  0  0
  -26.1527  -12.2155   19.6233 C   0  0  0  0  0  0  0  0  0  0  0  0
  -24.8896  -19.7884   21.0134 C   0  0  0  0  0  0  0  0  0  0  0  0
  -25.7831  -13.5125   19.2191 C   0  0  0  0  0  0  0  0  0  0  0  0
  -23.9246  -19.7222   22.0285 C   0  0  0  0  0  0  0  0  0  0  0  0
  -20.3381  -28.0912   23.2939 C   0  0  0  0  0  0  0  0  0  0  0  0
  -20.1960  -26.7119   23.1412 C   0  0  0  0  0  0  0  0  0  0  0  0
  -29.7934  -22.4427   20.9723 C   0  0  0  0  0  0  0  0  0  0  0  0
  -22.7526  -21.5980   21.0197 C   0  0  0  0  0  0  0  0  0  0  0  0
  -30.4001  -20.2079   21.3717 C   0  0  0  0  0  0  0  0  0  0  0  0
  -29.7585  -17.4950   21.2667 C   0  0  0  0  0  0  0  0  0  0  0  0
  -18.2472  -28.4350   22.1334 C   0  0  0  0  0  0  0  0  0  0  0  0
  -30.1140  -19.6058   20.1464 C   0  0  0  0  0  0  0  0  0  0  0  0
  -26.9133  -25.2034   19.5648 C   0  0  0  0  0  0  0  0  0  0  0  0
  -25.3775  -26.2448   18.3849 C   0  0  0  0  0  0  0  0  0  0  0  0
  -18.9066  -24.7380   22.3115 C   0  0  0  0  0  0  0  0  0  0  0  0
  -26.1588  -24.0992   17.3679 C   0  0  0  0  0  0  0  0  0  0  0  0
  -24.8932  -16.6098   21.0268 C   0  0  0  0  0  0  0  0  0  0  0  0
  -25.5596  -17.0122   24.1759 C   0  0  0  0  0  0  0  0  0  0  0  0
  -25.3999  -19.0089   26.9390 C   0  0  0  0  0  0  0  0  0  0  0  0
  -23.3663  -29.7947   22.7672 C   0  0  0  0  0  0  0  0  0  0  0  0
  -25.5243  -11.5485   20.8211 C   0  0  0  0  0  0  0  0  0  0  0  0
  -26.0606  -18.8443   21.0127 C   0  0  0  0  0  0  0  0  0  0  0  0
  -23.9998  -18.6959   23.1283 C   0  0  0  0  0  0  0  0  0  0  0  0
  -24.8267  -12.5243   21.7654 C   0  0  0  0  0  0  0  0  0  0  0  0
  -25.3395  -30.7605   19.9654 C   0  0  0  0  0  0  0  0  0  0  0  0
  -23.9529  -13.4961   20.9787 C   0  0  0  0  0  0  0  0  0  0  0  0
  -25.8984  -29.4378   19.4382 C   0  0  0  0  0  0  0  0  0  0  0  0
  -25.2522  -30.7686   21.4900 C   0  0  0  0  0  0  0  0  0  0  0  0
  -25.0712  -28.3114   21.5467 C   0  0  0  0  0  0  0  0  0  0  0  0
  -24.7958  -14.3392   20.0142 C   0  0  1  0  0  0  0  0  0  0  0  0
  -25.7880  -17.5538   21.7792 C   0  0  1  0  0  0  0  0  0  0  0  0
  -25.1258  -28.2345   20.0113 C   0  0  2  0  0  0  0  0  0  0  0  0
  -21.2416  -25.7887   23.6816 C   0  0  0  0  0  0  0  0  0  0  0  0
  -25.8123  -19.7559   29.2989 C   0  0  0  0  0  0  0  0  0  0  0  0
  -23.1866  -15.1925   24.7821 C   0  0  0  0  0  0  0  0  0  0  0  0
  -23.2423  -16.0228   27.1434 C   0  0  0  0  0  0  0  0  0  0  0  0
  -25.2004  -14.7912   26.2097 C   0  0  0  0  0  0  0  0  0  0  0  0
  -27.9398  -20.3354   26.1982 C   0  0  0  0  0  0  0  0  0  0  0  0
  -21.5235  -28.6718   23.9930 C   0  0  0  0  0  0  0  0  0  0  0  0
  -20.4778  -22.0124   21.5762 C   0  0  0  0  0  0  0  0  0  1  0  0
  -19.3005  -22.7313   20.9278 C   0  0  1  0  0  0  0  0  0  0  0  0
  -24.7363  -17.1521   25.4335 C   0  0  1  0  0  0  0  0  0  0  0  0
  -26.4493  -19.3922   27.9667 C   0  0  2  0  0  0  0  0  0  0  0  0
  -24.0886  -15.8079   25.8705 C   0  0  0  0  0  0  0  0  0  0  0  0
  -19.1954  -22.3312   18.3323 N   0  0  0  0  0  0  0  0  0  0  0  0
  -26.6391  -26.3043   20.2697 N   0  0  0  0  0  0  0  0  0  0  0  0
  -25.7020  -26.9170   19.5265 N   0  0  0  0  0  0  0  0  0  0  0  0
  -25.1602  -17.7912   23.0807 N   0  0  0  0  0  0  0  0  0  0  0  0
  -24.5061  -29.6025   21.9691 N   0  0  0  0  0  0  0  0  0  0  0  0
  -24.4532  -26.7200   17.5234 N   0  0  0  0  0  0  0  0  0  0  0  0
  -18.2568  -24.0653   23.2613 N   0  0  0  0  0  0  0  0  0  0  0  0
  -27.0210  -23.0047   17.5201 N   0  0  0  0  0  0  0  0  0  0  0  0
  -25.4798  -15.3942   20.7308 N   0  0  0  0  0  0  0  0  0  0  0  0
  -25.6172  -17.7442   26.4344 N   0  0  0  0  0  0  0  0  0  0  0  0
  -22.7142  -28.6369   23.1734 N   0  0  0  0  0  0  0  0  0  0  0  0
  -19.4116  -24.1663   21.2133 N   0  3  0  0  0  0  0  0  0  0  0  0
  -27.2396  -20.5617   27.4888 N   0  3  0  0  0  0  0  0  0  0  0  0
  -25.4297  -24.1694   16.3495 O   0  0  0  0  0  0  0  0  0  0  0  0
  -23.7544  -16.9580   20.7377 O   0  0  0  0  0  0  0  0  0  0  0  0
  -26.5259  -16.2455   24.1679 O   0  0  0  0  0  0  0  0  0  0  0  0
  -24.4774  -19.7552   26.6187 O   0  0  0  0  0  0  0  0  0  0  0  0
  -22.9569  -30.9152   23.0893 O   0  0  0  0  0  0  0  0  0  0  0  0
  -30.7196  -21.5542   21.4254 O   0  0  0  0  0  0  0  0  0  0  0  0
  -21.7102  -22.4728   21.0233 O   0  0  0  0  0  0  0  0  0  1  0  0
  -29.4519  -16.1920   21.2162 F   0  0  0  0  0  0  0  0  0  0  0  0
  -17.3120  -29.2620   21.6475 F   0  0  0  0  0  0  0  0  0  0  0  0
  -30.1468  -20.3252   19.0162 F   0  0  0  0  0  0  0  0  0  0  0  0
  1 61  1  0  0  0  0
  1 65  3  0  0  0  0
  2  3  1  0  0  0  0
  2  6  2  0  0  0  0
  3  7  2  0  0  0  0
  4  9  2  0  0  0  0
  4 18  1  0  0  0  0
  5 10  1  0  0  0  0
  5 18  2  0  0  0  0
  6 21  1  0  0  0  0
  7 23  1  0  0  0  0
  8 11  2  0  0  0  0
  8 22  1  0  0  0  0
  9 27  1  0  0  0  0
 10 27  2  0  0  0  0
 11 28  1  0  0  0  0
 12 13  2  0  0  0  0
 12 29  1  0  0  0  0
 13 30  1  0  0  0  0
 14 19  1  0  0  0  0
 14 31  2  0  0  0  0
 15 24  1  0  0  0  0
 15 28  2  0  0  0  0
 16 25  2  0  0  0  0
 16 31  1  0  0  0  0
 17 30  2  0  0  0  0
 17 32  1  0  0  0  0
 18 33  1  0  0  0  0
 19 26  2  0  0  0  0
 19 35  1  0  0  0  0
 20 33  1  0  0  0  0
 20 34  2  0  0  0  0
 20 36  1  0  0  0  0
 21 23  2  0  0  0  0
 21 41  1  0  0  0  0
 22 24  2  0  0  0  0
 22 42  1  0  0  0  0
 23 50  1  0  0  0  0
 24 43  1  0  0  0  0
 25 26  1  0  0  0  0
 25 59  1  0  0  0  0
 26 53  1  0  0  0  0
 27 83  1  0  0  0  0
 28 84  1  0  0  0  0
 29 32  2  0  0  0  0
 29 83  1  0  0  0  0
 30 85  1  0  0  0  0
 31 86  1  0  0  0  0
 32 87  1  0  0  0  0
 33 66  2  0  0  0  0
 34 67  1  0  0  0  0
 34 70  1  0  0  0  0
 35 71  1  0  0  0  0
 35 76  2  0  0  0  0
 36 72  1  0  0  0  0
 36 78  2  0  0  0  0
 37 51  1  0  0  0  0
 37 73  1  0  0  0  0
 37 79  2  0  0  0  0
 38 62  1  0  0  0  0
 38 68  1  0  0  0  0
 38 80  2  0  0  0  0
 39 63  1  0  0  0  0
 39 74  1  0  0  0  0
 39 81  2  0  0  0  0
 40 69  1  0  0  0  0
 40 75  1  0  0  0  0
 40 82  2  0  0  0  0
 41 44  1  0  0  0  0
 42 51  1  0  0  0  0
 43 68  1  0  0  0  0
 44 46  1  0  0  0  0
 45 47  1  0  0  0  0
 45 48  1  0  0  0  0
 46 50  1  0  0  0  0
 47 52  1  0  0  0  0
 48 69  1  0  0  0  0
 49 52  1  0  0  0  0
 49 69  1  0  0  0  0
 50 73  1  0  0  0  0
 51 68  1  0  0  0  0
 52 67  1  0  0  0  0
 54 63  1  0  0  0  0
 55 64  1  0  0  0  0
 56 64  1  0  0  0  0
 57 64  1  0  0  0  0
 58 77  1  0  0  0  0
 59 75  1  0  0  0  0
 60 61  1  0  0  0  0
 60 84  1  0  0  0  0
 61 76  1  0  0  0  0
 62 64  1  0  0  0  0
 62 74  1  0  0  0  0
 63 77  1  0  0  0  0
 66 67  1  0  0  0  0
M  CHG  2  76   1  77   1
M  ISO  4  40 100  60 101  75 100  84 101
M  END
> <Batch ID>
0055

> <Smiles>
CNC(C)C(=O)NC(C(=O)N1Cc2cc([101O:1][101CH2:1]C(C#N)NC(=N)c3cc(F)cc(C[100NH:0][100C:0](=O)N4CCCC(n5nc(-c6ccc(Oc7ccc(F)cc7F)cc6)c(C(N)=O)c5N)C4)c3C)ccc2CC1C(=O)NC1CCCc2ccccc21)C(C)(C)C

> <Shape>
0.216

> <Color>
0.064

> <Negative vol penalty>
0.000

$$$$

  -OEChem-04042322493D

 87 95  0     1  0  0  0  0  0999 V2000
  -23.6919  -25.1010   15.7124 C   0  0  0  0  0  0  0  0  0  0  0  0
  -24.1037  -23.7781   15.8374 C   0  0  0  0  0  0  0  0  0  0  0  0
  -27.7069  -26.4785   18.4562 C   0  0  0  0  0  0  0  0  0  0  0  0
  -29.4865  -26.3672   20.0864 C   0  0  0  0  0  0  0  0  0  0  0  0
  -23.4999  -25.8808   16.8521 C   0  0  0  0  0  0  0  0  0  0  0  0
  -24.3250  -23.2345   17.1023 C   0  0  0  0  0  0  0  0  0  0  0  0
  -23.2706  -17.4652   18.8657 C   0  0  0  0  0  0  0  0  0  0  0  0
  -31.5173  -15.7824   22.3134 C   0  0  0  0  0  0  0  0  0  0  0  0
  -27.3370  -27.7312   18.9454 C   0  0  0  0  0  0  0  0  0  0  0  0
  -29.1166  -27.6200   20.5757 C   0  0  0  0  0  0  0  0  0  0  0  0
  -24.1070  -16.3580   19.0009 C   0  0  0  0  0  0  0  0  0  0  0  0
  -25.6985  -30.8008   20.0023 C   0  0  0  0  0  0  0  0  0  0  0  0
  -32.5637  -15.0704   21.7271 C   0  0  0  0  0  0  0  0  0  0  0  0
  -24.3403  -31.0435   20.2071 C   0  0  0  0  0  0  0  0  0  0  0  0
  -24.3540  -16.8392   21.3518 C   0  0  0  0  0  0  0  0  0  0  0  0
  -29.9730  -14.8235   20.7219 C   0  0  0  0  0  0  0  0  0  0  0  0
  -24.2503  -29.2122   21.7805 C   0  0  0  0  0  0  0  0  0  0  0  0
  -28.7817  -25.7965   19.0267 C   0  0  0  0  0  0  0  0  0  0  0  0
  -30.0876  -24.2288   17.4954 C   0  0  0  0  0  0  0  0  0  0  0  0
  -23.7096  -25.3436   18.1320 C   0  0  0  0  0  0  0  0  0  0  0  0
  -22.9779  -18.2754   19.9722 C   0  0  0  0  0  0  0  0  0  0  0  0
  -24.1370  -24.0082   18.2602 C   0  0  0  0  0  0  0  0  0  0  0  0
  -23.5115  -17.9546   21.2286 C   0  0  0  0  0  0  0  0  0  0  0  0
  -30.2219  -15.6589   21.8108 C   0  0  0  0  0  0  0  0  0  0  0  0
  -31.0195  -14.1116   20.1355 C   0  0  0  0  0  0  0  0  0  0  0  0
  -28.0418  -28.3020   20.0052 C   0  0  0  0  0  0  0  0  0  0  0  0
  -24.6512  -16.0465   20.2435 C   0  0  0  0  0  0  0  0  0  0  0  0
  -26.3326  -29.7637   20.6866 C   0  0  0  0  0  0  0  0  0  0  0  0
  -23.6162  -30.2493   21.0962 C   0  0  0  0  0  0  0  0  0  0  0  0
  -32.3148  -14.2351   20.6381 C   0  0  0  0  0  0  0  0  0  0  0  0
  -25.6085  -28.9695   21.5757 C   0  0  0  0  0  0  0  0  0  0  0  0
  -29.1639  -24.5021   18.5221 C   0  0  0  0  0  0  0  0  0  0  0  0
  -30.0946  -22.8590   17.3955 C   0  0  0  0  0  0  0  0  0  0  0  0
  -27.8646  -12.9242   19.0173 C   0  0  0  0  0  0  0  0  0  0  0  0
  -26.6477  -13.0747   19.5587 C   0  0  0  0  0  0  0  0  0  0  0  0
  -30.8694  -25.1324   16.7030 C   0  0  0  0  0  0  0  0  0  0  0  0
  -28.7155  -11.7636   19.4092 C   0  0  0  0  0  0  0  0  0  0  0  0
  -23.4785  -21.3254   20.7142 C   0  0  0  0  0  0  0  0  0  0  0  0
  -21.6711  -20.5873   23.3047 C   0  0  0  0  0  0  0  0  0  0  0  0
  -20.5067  -18.1908   25.4373 C   0  0  0  0  0  0  0  0  0  0  0  0
  -28.8679  -18.6227   21.3204 C   0  0  0  0  0  0  0  0  0  0  0  0
  -23.5349  -26.2393   19.3328 C   0  0  0  0  0  0  0  0  0  0  0  0
  -22.0525  -19.4507   19.8153 C   0  0  0  0  0  0  0  0  0  0  0  0
  -23.2120  -18.7807   22.4518 C   0  0  0  0  0  0  0  0  0  0  0  0
  -23.4292  -25.4770   20.6511 C   0  0  0  0  0  0  0  0  0  0  0  0
  -27.2948  -19.0394   18.0879 C   0  0  0  0  0  0  0  0  0  0  0  0
  -24.5147  -24.4089   20.7386 C   0  0  0  0  0  0  0  0  0  0  0  0
  -27.6916  -20.4751   17.7393 C   0  0  0  0  0  0  0  0  0  0  0  0
  -27.0013  -18.8933   19.5781 C   0  0  0  0  0  0  0  0  0  0  0  0
  -28.5107  -20.7635   20.1238 C   0  0  0  0  0  0  0  0  0  0  0  0
  -24.3634  -23.3753   19.6160 C   0  0  1  0  0  0  0  0  0  0  0  0
  -22.2346  -20.5041   20.9037 C   0  0  1  0  0  0  0  0  0  0  0  0
  -28.8421  -20.9716   18.6349 C   0  0  2  0  0  0  0  0  0  0  0  0
  -19.0790  -17.8970   27.4800 C   0  0  0  0  0  0  0  0  0  0  0  0
  -23.9269  -21.6919   25.0372 C   0  0  0  0  0  0  0  0  0  0  0  0
  -22.8952  -20.5290   26.9997 C   0  0  0  0  0  0  0  0  0  0  0  0
  -21.6269  -22.3107   25.7999 C   0  0  0  0  0  0  0  0  0  0  0  0
  -30.9947  -10.8722   19.7051 C   0  0  0  0  0  0  0  0  0  0  0  0
  -18.6057  -16.4372   23.9984 C   0  0  0  0  0  0  0  0  0  0  0  0
  -29.1032  -16.4199   22.4381 C   0  0  0  0  0  0  0  0  0  0  0  0
  -30.7490  -13.2140   18.9627 C   0  0  0  0  0  0  0  0  0  0  0  0
  -25.7259  -14.1968   19.2046 C   0  0  0  0  0  0  0  0  0  1  0  0
  -21.9545  -20.0622   24.6914 C   0  0  1  0  0  0  0  0  0  0  0  0
  -19.1115  -17.8990   25.9596 C   0  0  2  0  0  0  0  0  0  0  0  0
  -22.6083  -21.1338   25.6088 C   0  0  0  0  0  0  0  0  0  0  0  0
  -28.6233  -23.3948   19.0374 N   0  0  0  0  0  0  0  0  0  0  0  0
  -29.2089  -22.4125   18.3317 N   0  0  0  0  0  0  0  0  0  0  0  0
  -22.3068  -19.9234   22.2459 N   0  0  0  0  0  0  0  0  0  0  0  0
  -28.1429  -19.3660   20.3742 N   0  0  0  0  0  0  0  0  0  0  0  0
  -30.7718  -22.0049   16.5991 N   0  0  0  0  0  0  0  0  0  0  0  0
  -30.7408  -26.5084   16.9362 N   0  0  0  0  0  0  0  0  0  0  0  0
  -23.2983  -22.4455   19.9252 N   0  0  0  0  0  0  0  0  0  0  0  0
  -20.6904  -19.5356   25.1947 N   0  0  0  0  0  0  0  0  0  0  0  0
  -28.4514  -17.3098   21.5031 N   0  0  0  0  0  0  0  0  0  0  0  0
  -30.0974  -11.9691   19.3655 N   0  0  0  0  0  0  0  0  0  0  0  0
  -18.6459  -16.5679   25.4777 N   0  3  0  0  0  0  0  0  0  0  0  0
  -31.6465  -24.7322   15.8032 O   0  0  0  0  0  0  0  0  0  0  0  0
  -28.1865  -10.6958   19.7218 O   0  0  0  0  0  0  0  0  0  0  0  0
  -24.5239  -20.9701   21.2456 O   0  0  0  0  0  0  0  0  0  0  0  0
  -20.9081  -21.5465   23.1655 O   0  0  0  0  0  0  0  0  0  0  0  0
  -21.3505  -17.3138   25.2654 O   0  0  0  0  0  0  0  0  0  0  0  0
  -29.8201  -19.0929   21.9524 O   0  0  0  0  0  0  0  0  0  0  0  0
  -27.6813  -29.5245   20.4827 O   0  0  0  0  0  0  0  0  0  0  0  0
  -25.4684  -14.9667   20.3781 O   0  0  0  0  0  0  0  0  0  1  0  0
  -22.3123  -30.4834   21.2939 F   0  0  0  0  0  0  0  0  0  0  0  0
  -33.3270  -13.5561   20.0804 F   0  0  0  0  0  0  0  0  0  0  0  0
  -26.2125  -27.9725   22.2368 F   0  0  0  0  0  0  0  0  0  0  0  0
  1  2  1  0  0  0  0
  1  5  2  0  0  0  0
  2  6  2  0  0  0  0
  3  9  2  0  0  0  0
  3 18  1  0  0  0  0
  4 10  1  0  0  0  0
  4 18  2  0  0  0  0
  5 20  1  0  0  0  0
  6 22  1  0  0  0  0
  7 11  2  0  0  0  0
  7 21  1  0  0  0  0
  8 13  2  0  0  0  0
  8 24  1  0  0  0  0
  9 26  1  0  0  0  0
 10 26  2  0  0  0  0
 11 27  1  0  0  0  0
 12 14  2  0  0  0  0
 12 28  1  0  0  0  0
 13 30  1  0  0  0  0
 14 29  1  0  0  0  0
 15 23  1  0  0  0  0
 15 27  2  0  0  0  0
 16 24  2  0  0  0  0
 16 25  1  0  0  0  0
 17 29  2  0  0  0  0
 17 31  1  0  0  0  0
 18 32  1  0  0  0  0
 19 32  1  0  0  0  0
 19 33  2  0  0  0  0
 19 36  1  0  0  0  0
 20 22  2  0  0  0  0
 20 42  1  0  0  0  0
 21 23  2  0  0  0  0
 21 43  1  0  0  0  0
 22 51  1  0  0  0  0
 23 44  1  0  0  0  0
 24 60  1  0  0  0  0
 25 30  2  0  0  0  0
 25 61  1  0  0  0  0
 26 83  1  0  0  0  0
 27 84  1  0  0  0  0
 28 31  2  0  0  0  0
 28 83  1  0  0  0  0
 29 85  1  0  0  0  0
 30 86  1  0  0  0  0
 31 87  1  0  0  0  0
 32 66  2  0  0  0  0
 33 67  1  0  0  0  0
 33 70  1  0  0  0  0
 34 35  2  0  0  0  0
 34 37  1  0  0  0  0
 35 62  1  0  0  0  0
 36 71  1  0  0  0  0
 36 77  2  0  0  0  0
 37 75  1  0  0  0  0
 37 78  2  0  0  0  0
 38 52  1  0  0  0  0
 38 72  1  0  0  0  0
 38 79  2  0  0  0  0
 39 63  1  0  0  0  0
 39 68  1  0  0  0  0
 39 80  2  0  0  0  0
 40 64  1  0  0  0  0
 40 73  1  0  0  0  0
 40 81  2  0  0  0  0
 41 69  1  0  0  0  0
 41 74  1  0  0  0  0
 41 82  2  0  0  0  0
 42 45  1  0  0  0  0
 43 52  1  0  0  0  0
 44 68  1  0  0  0  0
 45 47  1  0  0  0  0
 46 48  1  0  0  0  0
 46 49  1  0  0  0  0
 47 51  1  0  0  0  0
 48 53  1  0  0  0  0
 49 69  1  0  0  0  0
 50 53  1  0  0  0  0
 50 69  1  0  0  0  0
 51 72  1  0  0  0  0
 52 68  1  0  0  0  0
 53 67  1  0  0  0  0
 54 64  1  0  0  0  0
 55 65  1  0  0  0  0
 56 65  1  0  0  0  0
 57 65  1  0  0  0  0
 58 75  1  0  0  0  0
 59 76  1  0  0  0  0
 60 74  1  0  0  0  0
 61 75  1  0  0  0  0
 62 84  1  0  0  0  0
 63 65  1  0  0  0  0
 63 73  1  0  0  0  0
 64 76  1  0  0  0  0
 66 67  1  0  0  0  0
M  CHG  1  76   1
M  ISO  4  41 100  62 101  74 100  84 101
M  END
> <Batch ID>
0055

> <Smiles>
CNC(C)C(=O)NC(C(=O)N1Cc2cc([101O:1][101CH2:1]C=CC(=O)N(C)Cc3cc(C[100NH:0][100C:0](=O)N4CCCC(n5nc(-c6ccc(Oc7ccc(F)cc7F)cc6)c(C(N)=O)c5N)C4)ccc3F)ccc2CC1C(=O)NC1CCCc2ccccc21)C(C)(C)C

> <Shape>
0.217

> <Color>
0.050

> <Negative vol penalty>
0.000

$$$$

  -OEChem-04042322493D

 84 92  0     1  0  0  0  0  0999 V2000
  -27.0810  -24.5947   16.0607 C   0  0  0  0  0  0  0  0  0  0  0  0
  -26.0635  -25.4484   16.4716 C   0  0  0  0  0  0  0  0  0  0  0  0
  -23.2304  -25.2768   20.8169 C   0  0  0  0  0  0  0  0  0  0  0  0
  -24.7780  -12.6757   19.8212 C   0  0  0  0  0  0  0  0  0  0  0  0
  -25.5022  -13.8279   21.8174 C   0  0  0  0  0  0  0  0  0  0  0  0
  -28.1780  -24.3739   16.8907 C   0  0  0  0  0  0  0  0  0  0  0  0
  -26.1483  -26.0908   17.7073 C   0  0  0  0  0  0  0  0  0  0  0  0
  -22.7047  -29.4559   18.7181 C   0  0  0  0  0  0  0  0  0  0  0  0
  -22.2249  -25.2034   21.7808 C   0  0  0  0  0  0  0  0  0  0  0  0
  -23.5747  -24.1432   20.0805 C   0  0  0  0  0  0  0  0  0  0  0  0
  -25.4698  -11.5351   20.2284 C   0  0  0  0  0  0  0  0  0  0  0  0
  -26.1941  -12.6872   22.2247 C   0  0  0  0  0  0  0  0  0  0  0  0
  -21.3832  -29.1186   19.0071 C   0  0  0  0  0  0  0  0  0  0  0  0
  -25.0125   -8.9891   22.4060 C   0  0  0  0  0  0  0  0  0  0  0  0
  -24.3597   -7.7614   22.2963 C   0  0  0  0  0  0  0  0  0  0  0  0
  -21.7989  -29.5217   21.3489 C   0  0  0  0  0  0  0  0  0  0  0  0
  -21.9080  -22.8629   21.2721 C   0  0  0  0  0  0  0  0  0  0  0  0
  -26.0933   -6.9725   20.8099 C   0  0  0  0  0  0  0  0  0  0  0  0
  -24.7942  -13.8222   20.6156 C   0  0  0  0  0  0  0  0  0  0  0  0
  -22.7442  -15.3350   20.4873 C   0  0  0  0  0  0  0  0  0  0  0  0
  -28.2696  -25.0046   18.1424 C   0  0  0  0  0  0  0  0  0  0  0  0
  -23.5877  -29.8187   19.7453 C   0  0  0  0  0  0  0  0  0  0  0  0
  -27.2590  -25.8995   18.5490 C   0  0  0  0  0  0  0  0  0  0  0  0
  -23.1304  -29.8656   21.0700 C   0  0  0  0  0  0  0  0  0  0  0  0
  -21.5637  -23.9965   22.0084 C   0  0  0  0  0  0  0  0  0  0  0  0
  -22.9135  -22.9363   20.3081 C   0  0  0  0  0  0  0  0  0  0  0  0
  -26.1778  -11.5408   21.4302 C   0  0  0  0  0  0  0  0  0  0  0  0
  -20.9308  -29.1487   20.3230 C   0  0  0  0  0  0  0  0  0  0  0  0
  -26.2056   -9.2087   21.7176 C   0  0  0  0  0  0  0  0  0  0  0  0
  -24.9001   -6.7530   21.4983 C   0  0  0  0  0  0  0  0  0  0  0  0
  -26.7460   -8.2003   20.9195 C   0  0  0  0  0  0  0  0  0  0  0  0
  -24.0802  -15.0009   20.1952 C   0  0  0  0  0  0  0  0  0  0  0  0
  -22.5477  -16.5424   19.8627 C   0  0  0  0  0  0  0  0  0  0  0  0
  -21.7681  -14.6181   21.2547 C   0  0  0  0  0  0  0  0  0  0  0  0
  -26.3042  -28.6312   20.8918 C   0  0  0  0  0  0  0  0  0  0  0  0
  -26.2696  -31.3295   22.6919 C   0  0  0  0  0  0  0  0  0  0  0  0
  -19.0259  -25.8349   23.6425 C   0  0  0  0  0  0  0  0  0  0  0  0
  -24.4484  -33.8445   24.1079 C   0  0  0  0  0  0  0  0  0  0  0  0
  -24.2365  -21.6872   18.5658 C   0  0  0  0  0  0  0  0  0  0  0  0
  -29.4829  -24.7359   18.9974 C   0  0  0  0  0  0  0  0  0  0  0  0
  -25.0030  -30.2055   19.4139 C   0  0  0  0  0  0  0  0  0  0  0  0
  -24.0329  -30.2679   22.2067 C   0  0  0  0  0  0  0  0  0  0  0  0
  -29.2725  -25.1074   20.4616 C   0  0  0  0  0  0  0  0  0  0  0  0
  -25.4219  -19.0268   16.5178 C   0  0  0  0  0  0  0  0  0  0  0  0
  -28.6968  -26.5119   20.5640 C   0  0  0  0  0  0  0  0  0  0  0  0
  -25.0686  -17.7698   17.3159 C   0  0  0  0  0  0  0  0  0  0  0  0
  -25.8488  -20.1760   17.4292 C   0  0  0  0  0  0  0  0  0  0  0  0
  -24.5494  -19.2429   19.3027 C   0  0  0  0  0  0  0  0  0  0  0  0
  -27.3150  -26.5854   19.9020 C   0  0  1  0  0  0  0  0  0  0  0  0
  -25.9543  -30.0626   20.5979 C   0  0  1  0  0  0  0  0  0  0  0  0
  -24.0510  -18.0781   18.4317 C   0  0  2  0  0  0  0  0  0  0  0  0
  -24.6933  -35.8809   25.5537 C   0  0  0  0  0  0  0  0  0  0  0  0
  -26.5826  -29.5456   25.1474 C   0  0  0  0  0  0  0  0  0  0  0  0
  -25.8743  -31.4865   26.5615 C   0  0  0  0  0  0  0  0  0  0  0  0
  -27.9555  -31.6354   25.1944 C   0  0  0  0  0  0  0  0  0  0  0  0
  -23.4109  -35.6218   21.9810 C   0  0  0  0  0  0  0  0  0  0  0  0
  -20.4814  -23.9181   23.0461 C   0  0  0  0  0  0  0  0  0  0  0  0
  -17.8595  -26.6451   23.1056 C   0  0  0  0  0  0  0  0  0  0  0  0
  -18.1797  -27.3168   21.7751 C   0  0  0  0  0  0  0  0  0  0  0  0
  -19.3873  -28.2362   21.8853 C   0  0  0  0  0  0  0  0  0  1  0  0
  -25.7070  -31.7077   24.0408 C   0  0  1  0  0  0  0  0  0  0  0  0
  -24.6545  -35.3483   24.1297 C   0  0  2  0  0  0  0  0  0  0  0  0
  -26.5131  -31.0843   25.2150 C   0  0  0  0  0  0  0  0  0  0  0  0
  -24.6894  -15.9216   19.4434 N   0  0  0  0  0  0  0  0  0  0  0  0
  -23.7318  -16.8461   19.2577 N   0  0  0  0  0  0  0  0  0  0  0  0
  -25.4096  -30.6312   21.8324 N   0  0  0  0  0  0  0  0  0  0  0  0
  -24.8347  -20.4138   18.4587 N   0  0  0  0  0  0  0  0  0  0  0  0
  -21.4794  -17.3632   19.7774 N   0  0  0  0  0  0  0  0  0  0  0  0
  -22.1365  -13.3930   21.8271 N   0  0  0  0  0  0  0  0  0  0  0  0
  -23.2630  -21.7852   19.5594 N   0  0  0  0  0  0  0  0  0  0  0  0
  -26.8970  -27.9683   19.8342 N   0  0  0  0  0  0  0  0  0  0  0  0
  -19.3957  -24.8269   22.7641 N   0  0  0  0  0  0  0  0  0  0  0  0
  -25.6475  -33.1652   24.0642 N   0  0  0  0  0  0  0  0  0  0  0  0
  -23.5492  -36.0333   23.4017 N   0  3  0  0  0  0  0  0  0  0  0  0
  -20.5987  -15.0431   21.4139 O   0  0  0  0  0  0  0  0  0  0  0  0
  -26.0561  -28.1633   21.9969 O   0  0  0  0  0  0  0  0  0  0  0  0
  -27.4270  -31.6484   22.4084 O   0  0  0  0  0  0  0  0  0  0  0  0
  -19.5630  -26.0602   24.7237 O   0  0  0  0  0  0  0  0  0  0  0  0
  -23.3351  -33.3244   24.1313 O   0  0  0  0  0  0  0  0  0  0  0  0
  -24.5443  -22.6143   17.8122 O   0  0  0  0  0  0  0  0  0  0  0  0
  -26.8529  -10.4279   21.8281 O   0  0  0  0  0  0  0  0  0  0  0  0
  -19.6416  -28.8193   20.6079 O   0  0  0  0  0  0  0  0  0  1  0  0
  -24.2740   -5.5735   21.3943 F   0  0  0  0  0  0  0  0  0  0  0  0
  -27.8926   -8.4049   20.2567 F   0  0  0  0  0  0  0  0  0  0  0  0
  1  2  1  0  0  0  0
  1  6  2  0  0  0  0
  2  7  2  0  0  0  0
  3  9  2  0  0  0  0
  3 10  1  0  0  0  0
  4 11  2  0  0  0  0
  4 19  1  0  0  0  0
  5 12  1  0  0  0  0
  5 19  2  0  0  0  0
  6 21  1  0  0  0  0
  7 23  1  0  0  0  0
  8 13  2  0  0  0  0
  8 22  1  0  0  0  0
  9 25  1  0  0  0  0
 10 26  2  0  0  0  0
 11 27  1  0  0  0  0
 12 27  2  0  0  0  0
 13 28  1  0  0  0  0
 14 15  2  0  0  0  0
 14 29  1  0  0  0  0
 15 30  1  0  0  0  0
 16 24  1  0  0  0  0
 16 28  2  0  0  0  0
 17 25  2  0  0  0  0
 17 26  1  0  0  0  0
 18 30  2  0  0  0  0
 18 31  1  0  0  0  0
 19 32  1  0  0  0  0
 20 32  1  0  0  0  0
 20 33  2  0  0  0  0
 20 34  1  0  0  0  0
 21 23  2  0  0  0  0
 21 40  1  0  0  0  0
 22 24  2  0  0  0  0
 22 41  1  0  0  0  0
 23 49  1  0  0  0  0
 24 42  1  0  0  0  0
 25 57  1  0  0  0  0
 26 70  1  0  0  0  0
 27 81  1  0  0  0  0
 28 82  1  0  0  0  0
 29 31  2  0  0  0  0
 29 81  1  0  0  0  0
 30 83  1  0  0  0  0
 31 84  1  0  0  0  0
 32 64  2  0  0  0  0
 33 65  1  0  0  0  0
 33 68  1  0  0  0  0
 34 69  1  0  0  0  0
 34 75  2  0  0  0  0
 35 50  1  0  0  0  0
 35 71  1  0  0  0  0
 35 76  2  0  0  0  0
 36 61  1  0  0  0  0
 36 66  1  0  0  0  0
 36 77  2  0  0  0  0
 37 58  1  0  0  0  0
 37 72  1  0  0  0  0
 37 78  2  0  0  0  0
 38 62  1  0  0  0  0
 38 73  1  0  0  0  0
 38 79  2  0  0  0  0
 39 67  1  0  0  0  0
 39 70  1  0  0  0  0
 39 80  2  0  0  0  0
 40 43  1  0  0  0  0
 41 50  1  0  0  0  0
 42 66  1  0  0  0  0
 43 45  1  0  0  0  0
 44 46  1  0  0  0  0
 44 47  1  0  0  0  0
 45 49  1  0  0  0  0
 46 51  1  0  0  0  0
 47 67  1  0  0  0  0
 48 51  1  0  0  0  0
 48 67  1  0  0  0  0
 49 71  1  0  0  0  0
 50 66  1  0  0  0  0
 51 65  1  0  0  0  0
 52 62  1  0  0  0  0
 53 63  1  0  0  0  0
 54 63  1  0  0  0  0
 55 63  1  0  0  0  0
 56 74  1  0  0  0  0
 57 72  1  0  0  0  0
 58 59  1  0  0  0  0
 59 60  1  0  0  0  0
 60 82  1  0  0  0  0
 61 63  1  0  0  0  0
 61 73  1  0  0  0  0
 62 74  1  0  0  0  0
 64 65  1  0  0  0  0
M  CHG  1  74   1
M  ISO  4  39 100  60 101  70 100  82 101
M  END
> <Batch ID>
0055

> <Smiles>
CNC(C)C(=O)NC(C(=O)N1Cc2cc([101O:1][101CH2:1]CCC(=O)NCc3cccc([100NH:0][100C:0](=O)N4CCCC(n5nc(-c6ccc(Oc7ccc(F)cc7F)cc6)c(C(N)=O)c5N)C4)c3)ccc2CC1C(=O)NC1CCCc2ccccc21)C(C)(C)C

> <Shape>
0.246

> <Color>
0.080

> <Negative vol penalty>
0.000

$$$$

  -OEChem-04042322493D

 82 90  0     1  0  0  0  0  0999 V2000
  -28.3802  -36.7812   19.9160 C   0  0  0  0  0  0  0  0  0  0  0  0
  -28.7093  -35.4467   19.7009 C   0  0  0  0  0  0  0  0  0  0  0  0
  -23.9117   -9.3123   20.3656 C   0  0  0  0  0  0  0  0  0  0  0  0
  -22.8701  -11.2558   21.3531 C   0  0  0  0  0  0  0  0  0  0  0  0
  -27.5214  -37.1269   20.9585 C   0  0  0  0  0  0  0  0  0  0  0  0
  -28.1806  -34.4572   20.5289 C   0  0  0  0  0  0  0  0  0  0  0  0
  -26.5932  -28.7668   18.9147 C   0  0  0  0  0  0  0  0  0  0  0  0
  -22.9585   -8.4937   20.9713 C   0  0  0  0  0  0  0  0  0  0  0  0
  -21.9169  -10.4371   21.9588 C   0  0  0  0  0  0  0  0  0  0  0  0
  -27.2499  -27.5422   19.0274 C   0  0  0  0  0  0  0  0  0  0  0  0
  -22.3846   -7.1849   24.0344 C   0  0  0  0  0  0  0  0  0  0  0  0
  -22.8338   -6.0223   24.6606 C   0  0  0  0  0  0  0  0  0  0  0  0
  -28.2046  -20.3500   18.4836 C   0  0  0  0  0  0  0  0  0  0  0  0
  -26.0577  -27.0983   21.0770 C   0  0  0  0  0  0  0  0  0  0  0  0
  -29.9149  -19.1480   20.3310 C   0  0  0  0  0  0  0  0  0  0  0  0
  -21.4639   -4.6946   23.1781 C   0  0  0  0  0  0  0  0  0  0  0  0
  -23.8675  -10.6934   20.5566 C   0  0  0  0  0  0  0  0  0  0  0  0
  -29.0662  -21.1350   19.2498 C   0  0  0  0  0  0  0  0  0  0  0  0
  -24.7724  -12.1421   18.6619 C   0  0  0  0  0  0  0  0  0  0  0  0
  -26.9742  -36.1402   21.7938 C   0  0  0  0  0  0  0  0  0  0  0  0
  -25.6703  -29.1720   19.8897 C   0  0  0  0  0  0  0  0  0  0  0  0
  -27.3147  -34.7901   21.5844 C   0  0  0  0  0  0  0  0  0  0  0  0
  -25.3888  -28.3275   20.9730 C   0  0  0  0  0  0  0  0  0  0  0  0
  -28.1981  -18.9640   18.6411 C   0  0  0  0  0  0  0  0  0  0  0  0
  -29.9213  -20.5340   20.1735 C   0  0  0  0  0  0  0  0  0  0  0  0
  -29.0533  -18.3631   19.5648 C   0  0  0  0  0  0  0  0  0  0  0  0
  -21.9611   -9.0561   21.7679 C   0  0  0  0  0  0  0  0  0  0  0  0
  -26.9844  -26.7090   20.1102 C   0  0  0  0  0  0  0  0  0  0  0  0
  -21.4750   -7.1024   22.9801 C   0  0  0  0  0  0  0  0  0  0  0  0
  -22.3735   -4.7771   24.2324 C   0  0  0  0  0  0  0  0  0  0  0  0
  -21.0147   -5.8573   22.5519 C   0  0  0  0  0  0  0  0  0  0  0  0
  -24.8522  -11.5395   19.9316 C   0  0  0  0  0  0  0  0  0  0  0  0
  -25.9502  -12.8377   18.5373 C   0  0  0  0  0  0  0  0  0  0  0  0
  -29.0498  -22.5952   19.0608 C   0  0  0  0  0  0  0  0  0  0  0  0
  -27.9780  -23.3854   19.2283 C   0  0  0  0  0  0  0  0  0  0  0  0
  -23.7271  -12.0789   17.6826 C   0  0  0  0  0  0  0  0  0  0  0  0
  -25.4892  -31.5969   21.9367 C   0  0  0  0  0  0  0  0  0  0  0  0
  -22.5524  -30.3587   22.5408 C   0  0  0  0  0  0  0  0  0  0  0  0
  -20.4887  -27.6410   22.4950 C   0  0  0  0  0  0  0  0  0  0  0  0
  -29.8535  -16.2194   20.6186 C   0  0  0  0  0  0  0  0  0  0  0  0
  -26.0879  -36.5667   22.9371 C   0  0  0  0  0  0  0  0  0  0  0  0
  -24.9505  -30.4841   19.7396 C   0  0  0  0  0  0  0  0  0  0  0  0
  -24.3916  -28.7070   22.0361 C   0  0  0  0  0  0  0  0  0  0  0  0
  -25.2739  -35.4227   23.5363 C   0  0  0  0  0  0  0  0  0  0  0  0
  -30.1422  -12.7517   21.3730 C   0  0  0  0  0  0  0  0  0  0  0  0
  -26.1586  -34.2016   23.7669 C   0  0  0  0  0  0  0  0  0  0  0  0
  -28.7851  -12.1768   20.9608 C   0  0  0  0  0  0  0  0  0  0  0  0
  -30.0062  -14.1466   21.9808 C   0  0  0  0  0  0  0  0  0  0  0  0
  -27.9110  -14.5382   20.7456 C   0  0  0  0  0  0  0  0  0  0  0  0
  -26.7418  -33.6856   22.4458 C   0  0  1  0  0  0  0  0  0  0  0  0
  -24.4112  -31.0243   21.0604 C   0  0  1  0  0  0  0  0  0  0  0  0
  -28.0036  -13.1610   20.0686 C   0  0  2  0  0  0  0  0  0  0  0  0
  -27.2638  -18.1481   17.8077 C   0  0  0  0  0  0  0  0  0  0  0  0
  -30.8576  -21.3442   21.0115 C   0  0  0  0  0  0  0  0  0  0  0  0
  -18.1563  -26.9286   23.0861 C   0  0  0  0  0  0  0  0  0  0  0  0
  -23.3188  -30.3083   25.4938 C   0  0  0  0  0  0  0  0  0  0  0  0
  -21.3988  -28.7520   25.8937 C   0  0  0  0  0  0  0  0  0  0  0  0
  -20.9766  -31.0563   25.0364 C   0  0  0  0  0  0  0  0  0  0  0  0
  -19.8726  -26.9243   19.6905 C   0  0  0  0  0  0  0  0  0  0  0  0
  -28.0066  -24.8644   19.0109 C   0  0  0  0  0  0  0  0  0  1  0  0
  -22.0023  -29.3306   23.4995 C   0  0  1  0  0  0  0  0  0  0  0  0
  -19.0673  -27.4640   21.9924 C   0  0  2  0  0  0  0  0  0  0  0  0
  -21.9444  -29.8552   24.9620 C   0  0  0  0  0  0  0  0  0  0  0  0
  -25.9907  -11.8269   20.5681 N   0  0  0  0  0  0  0  0  0  0  0  0
  -26.6372  -12.6177   19.6948 N   0  0  0  0  0  0  0  0  0  0  0  0
  -23.7184  -30.0027   21.8482 N   0  0  0  0  0  0  0  0  0  0  0  0
  -29.2589  -15.0252   21.0783 N   0  0  0  0  0  0  0  0  0  0  0  0
  -26.4548  -13.6099   17.5517 N   0  0  0  0  0  0  0  0  0  0  0  0
  -22.5855  -11.3191   17.9720 N   0  0  0  0  0  0  0  0  0  0  0  0
  -29.0608  -16.9570   19.7399 N   0  0  0  0  0  0  0  0  0  0  0  0
  -25.7448  -32.9362   21.7118 N   0  0  0  0  0  0  0  0  0  0  0  0
  -20.7103  -28.9199   22.9605 N   0  0  0  0  0  0  0  0  0  0  0  0
  -19.0377  -26.5104   20.8475 N   0  3  0  0  0  0  0  0  0  0  0  0
  -23.8103  -12.6651   16.5767 O   0  0  0  0  0  0  0  0  0  0  0  0
  -26.0466  -30.8774   22.7572 O   0  0  0  0  0  0  0  0  0  0  0  0
  -21.9652  -31.4351   22.4059 O   0  0  0  0  0  0  0  0  0  0  0  0
  -21.3184  -26.7344   22.4799 O   0  0  0  0  0  0  0  0  0  0  0  0
  -30.9933  -16.5487   20.9567 O   0  0  0  0  0  0  0  0  0  0  0  0
  -21.0307   -8.2576   22.3589 O   0  0  0  0  0  0  0  0  0  0  0  0
  -27.6244  -25.5134   20.2229 O   0  0  0  0  0  0  0  0  0  1  0  0
  -22.8061   -3.6606   24.8328 F   0  0  0  0  0  0  0  0  0  0  0  0
  -20.1418   -5.7716   21.5388 F   0  0  0  0  0  0  0  0  0  0  0  0
  1  2  1  0  0  0  0
  1  5  2  0  0  0  0
  2  6  2  0  0  0  0
  3  8  2  0  0  0  0
  3 17  1  0  0  0  0
  4  9  1  0  0  0  0
  4 17  2  0  0  0  0
  5 20  1  0  0  0  0
  6 22  1  0  0  0  0
  7 10  2  0  0  0  0
  7 21  1  0  0  0  0
  8 27  1  0  0  0  0
  9 27  2  0  0  0  0
 10 28  1  0  0  0  0
 11 12  2  0  0  0  0
 11 29  1  0  0  0  0
 12 30  1  0  0  0  0
 13 18  1  0  0  0  0
 13 24  2  0  0  0  0
 14 23  1  0  0  0  0
 14 28  2  0  0  0  0
 15 25  1  0  0  0  0
 15 26  2  0  0  0  0
 16 30  2  0  0  0  0
 16 31  1  0  0  0  0
 17 32  1  0  0  0  0
 18 25  2  0  0  0  0
 18 34  1  0  0  0  0
 19 32  1  0  0  0  0
 19 33  2  0  0  0  0
 19 36  1  0  0  0  0
 20 22  2  0  0  0  0
 20 41  1  0  0  0  0
 21 23  2  0  0  0  0
 21 42  1  0  0  0  0
 22 50  1  0  0  0  0
 23 43  1  0  0  0  0
 24 26  1  0  0  0  0
 24 53  1  0  0  0  0
 25 54  1  0  0  0  0
 26 70  1  0  0  0  0
 27 79  1  0  0  0  0
 28 80  1  0  0  0  0
 29 31  2  0  0  0  0
 29 79  1  0  0  0  0
 30 81  1  0  0  0  0
 31 82  1  0  0  0  0
 32 64  2  0  0  0  0
 33 65  1  0  0  0  0
 33 68  1  0  0  0  0
 34 35  2  0  0  0  0
 35 60  1  0  0  0  0
 36 69  1  0  0  0  0
 36 74  2  0  0  0  0
 37 51  1  0  0  0  0
 37 71  1  0  0  0  0
 37 75  2  0  0  0  0
 38 61  1  0  0  0  0
 38 66  1  0  0  0  0
 38 76  2  0  0  0  0
 39 62  1  0  0  0  0
 39 72  1  0  0  0  0
 39 77  2  0  0  0  0
 40 67  1  0  0  0  0
 40 70  1  0  0  0  0
 40 78  2  0  0  0  0
 41 44  1  0  0  0  0
 42 51  1  0  0  0  0
 43 66  1  0  0  0  0
 44 46  1  0  0  0  0
 45 47  1  0  0  0  0
 45 48  1  0  0  0  0
 46 50  1  0  0  0  0
 47 52  1  0  0  0  0
 48 67  1  0  0  0  0
 49 52  1  0  0  0  0
 49 67  1  0  0  0  0
 50 71  1  0  0  0  0
 51 66  1  0  0  0  0
 52 65  1  0  0  0  0
 55 62  1  0  0  0  0
 56 63  1  0  0  0  0
 57 63  1  0  0  0  0
 58 63  1  0  0  0  0
 59 73  1  0  0  0  0
 60 80  1  0  0  0  0
 61 63  1  0  0  0  0
 61 72  1  0  0  0  0
 62 73  1  0  0  0  0
 64 65  1  0  0  0  0
M  CHG  1  73   1
M  ISO  4  40 100  60 101  70 100  80 101
M  END
> <Batch ID>
0055

> <Smiles>
CNC(C)C(=O)NC(C(=O)N1Cc2cc([101O:1][101CH2:1]C=Cc3cc(C)c([100NH:0][100C:0](=O)N4CCCC(n5nc(-c6ccc(Oc7ccc(F)cc7F)cc6)c(C(N)=O)c5N)C4)cc3C)ccc2CC1C(=O)NC1CCCc2ccccc21)C(C)(C)C

> <Shape>
0.342

> <Color>
0.092

> <Negative vol penalty>
0.000

$$$$

  -OEChem-04042322493D

 85 93  0     1  0  0  0  0  0999 V2000
  -23.2597  -36.9975   21.9037 C   0  0  0  0  0  0  0  0  0  0  0  0
  -24.2517  -36.1055   21.5092 C   0  0  0  0  0  0  0  0  0  0  0  0
  -24.3220   -9.2439   21.4709 C   0  0  0  0  0  0  0  0  0  0  0  0
  -24.7836  -10.4429   23.5170 C   0  0  0  0  0  0  0  0  0  0  0  0
  -22.3178  -36.6138   22.8573 C   0  0  0  0  0  0  0  0  0  0  0  0
  -24.3029  -34.8294   22.0690 C   0  0  0  0  0  0  0  0  0  0  0  0
  -26.0179  -29.6528   19.2820 C   0  0  0  0  0  0  0  0  0  0  0  0
  -30.2191  -20.5224   21.0529 C   0  0  0  0  0  0  0  0  0  0  0  0
  -30.0748  -19.2039   20.6211 C   0  0  0  0  0  0  0  0  0  0  0  0
  -24.0031   -8.1050   22.2103 C   0  0  0  0  0  0  0  0  0  0  0  0
  -24.4646   -9.3040   24.2564 C   0  0  0  0  0  0  0  0  0  0  0  0
  -27.2198  -28.9463   19.2727 C   0  0  0  0  0  0  0  0  0  0  0  0
  -21.3788   -6.9545   24.0054 C   0  0  0  0  0  0  0  0  0  0  0  0
  -20.2290   -6.2505   23.6479 C   0  0  0  0  0  0  0  0  0  0  0  0
  -27.6828  -19.3684   20.9184 C   0  0  0  0  0  0  0  0  0  0  0  0
  -26.3836  -27.5125   21.0231 C   0  0  0  0  0  0  0  0  0  0  0  0
  -21.5663   -4.2850   23.2172 C   0  0  0  0  0  0  0  0  0  0  0  0
  -24.7123  -10.4129   22.1243 C   0  0  0  0  0  0  0  0  0  0  0  0
  -27.8271  -20.6868   21.3502 C   0  0  0  0  0  0  0  0  0  0  0  0
  -24.1661  -12.6150   20.9581 C   0  0  0  0  0  0  0  0  0  0  0  0
  -22.3517  -35.3290   23.4220 C   0  0  0  0  0  0  0  0  0  0  0  0
  -24.9922  -29.3007   20.1710 C   0  0  0  0  0  0  0  0  0  0  0  0
  -23.3614  -34.4285   23.0321 C   0  0  0  0  0  0  0  0  0  0  0  0
  -25.1687  -28.2145   21.0400 C   0  0  0  0  0  0  0  0  0  0  0  0
  -29.0952  -21.2638   21.4175 C   0  0  0  0  0  0  0  0  0  0  0  0
  -28.8066  -18.6269   20.5538 C   0  0  0  0  0  0  0  0  0  0  0  0
  -24.0744   -8.1350   23.6030 C   0  0  0  0  0  0  0  0  0  0  0  0
  -27.4039  -27.8778   20.1453 C   0  0  0  0  0  0  0  0  0  0  0  0
  -22.6225   -6.3238   23.9688 C   0  0  0  0  0  0  0  0  0  0  0  0
  -20.3227   -4.9158   23.2538 C   0  0  0  0  0  0  0  0  0  0  0  0
  -22.7162   -4.9890   23.5747 C   0  0  0  0  0  0  0  0  0  0  0  0
  -25.0424  -11.5896   21.3611 C   0  0  0  0  0  0  0  0  0  0  0  0
  -24.9618  -13.4939   20.2646 C   0  0  0  0  0  0  0  0  0  0  0  0
  -26.6370  -21.4390   21.7243 C   0  0  0  0  0  0  0  0  0  0  0  0
  -22.7587  -12.7602   21.1900 C   0  0  0  0  0  0  0  0  0  0  0  0
  -23.4941  -30.7661   22.5610 C   0  0  0  0  0  0  0  0  0  0  0  0
  -21.6422  -28.1032   22.5165 C   0  0  0  0  0  0  0  0  0  0  0  0
  -21.3330  -24.8025   21.7062 C   0  0  0  0  0  0  0  0  0  0  0  0
  -29.0070  -25.0033   21.0440 C   0  0  0  0  0  0  0  0  0  0  0  0
  -29.6724  -16.4125   19.7212 C   0  0  0  0  0  0  0  0  0  0  0  0
  -21.3407  -34.9759   24.4840 C   0  0  0  0  0  0  0  0  0  0  0  0
  -23.6916  -30.0560   20.1501 C   0  0  0  0  0  0  0  0  0  0  0  0
  -24.0909  -27.7836   21.9998 C   0  0  0  0  0  0  0  0  0  0  0  0
  -21.2386  -33.4768   24.7534 C   0  0  0  0  0  0  0  0  0  0  0  0
  -29.7249  -13.0283   18.6159 C   0  0  0  0  0  0  0  0  0  0  0  0
  -22.6284  -32.8635   24.8920 C   0  0  0  0  0  0  0  0  0  0  0  0
  -28.4393  -12.4367   19.1984 C   0  0  0  0  0  0  0  0  0  0  0  0
  -30.3701  -14.0323   19.5695 C   0  0  0  0  0  0  0  0  0  0  0  0
  -28.1948  -14.5100   20.6227 C   0  0  0  0  0  0  0  0  0  0  0  0
  -23.4351  -33.0270   23.5982 C   0  0  1  0  0  0  0  0  0  0  0  0
  -22.9093  -29.9350   21.4542 C   0  0  1  0  0  0  0  0  0  0  0  0
  -27.4740  -13.5415   19.6708 C   0  0  2  0  0  0  0  0  0  0  0  0
  -19.7153  -22.8878   21.8264 C   0  0  0  0  0  0  0  0  0  0  0  0
  -29.3276  -25.5005   18.5952 C   0  0  0  0  0  0  0  0  0  0  0  0
  -22.2314  -27.7955   25.4944 C   0  0  0  0  0  0  0  0  0  0  0  0
  -21.4159  -25.4334   25.3406 C   0  0  0  0  0  0  0  0  0  0  0  0
  -19.8631  -27.3219   24.8452 C   0  0  0  0  0  0  0  0  0  0  0  0
  -21.2729  -24.5169   18.7611 C   0  0  0  0  0  0  0  0  0  0  0  0
  -29.2790  -22.6808   21.8786 C   0  0  0  0  0  0  0  0  0  0  0  0
  -21.6918  -26.7551   23.1939 C   0  0  1  0  0  0  0  0  0  0  0  0
  -20.2365  -24.0412   20.9833 C   0  0  2  0  0  0  0  0  0  0  0  0
  -28.5070  -25.7928   19.8422 C   0  0  2  0  0  0  0  0  0  1  0  0
  -21.3218  -26.8356   24.7019 C   0  0  0  0  0  0  0  0  0  0  0  0
  -26.2986  -11.7965   20.9571 N   0  0  0  0  0  0  0  0  0  0  0  0
  -25.4366  -20.9455   21.6779 N   0  0  0  0  0  0  0  0  0  0  0  0
  -26.2174  -12.9620   20.2929 N   0  0  0  0  0  0  0  0  0  0  0  0
  -22.8396  -28.5574   21.9458 N   0  0  0  0  0  0  0  0  0  0  0  0
  -29.3978  -15.0513   19.9711 N   0  0  0  0  0  0  0  0  0  0  0  0
  -24.7029  -14.6620   19.6393 N   0  0  0  0  0  0  0  0  0  0  0  0
  -22.0960  -11.7652   21.9216 N   0  0  0  0  0  0  0  0  0  0  0  0
  -28.6608  -17.2869   20.1171 N   0  0  0  0  0  0  0  0  0  0  0  0
  -23.0084  -32.0588   22.6108 N   0  0  0  0  0  0  0  0  0  0  0  0
  -28.8893  -23.6335   20.8658 N   0  0  0  0  0  0  0  0  0  0  0  0
  -20.8299  -25.8740   22.4134 N   0  0  0  0  0  0  0  0  0  0  0  0
  -20.7501  -23.4892   19.6979 N   0  3  0  0  0  0  0  0  0  0  0  0
  -22.1049  -13.7348   20.7470 O   0  0  0  0  0  0  0  0  0  0  0  0
  -24.3234  -30.2707   23.3150 O   0  0  0  0  0  0  0  0  0  0  0  0
  -20.5784  -28.7271   22.4883 O   0  0  0  0  0  0  0  0  0  0  0  0
  -22.5169  -24.4769   21.6522 O   0  0  0  0  0  0  0  0  0  0  0  0
  -29.4442  -25.5477   22.0556 O   0  0  0  0  0  0  0  0  0  0  0  0
  -30.7154  -16.7736   19.1701 O   0  0  0  0  0  0  0  0  0  0  0  0
  -23.7630   -7.0238   24.3248 O   0  0  0  0  0  0  0  0  0  0  0  0
  -28.5763  -27.1869   20.1388 O   0  0  0  0  0  0  0  0  0  1  0  0
  -19.2182   -4.2394   22.9120 F   0  0  0  0  0  0  0  0  0  0  0  0
  -23.9080   -4.3774   23.5387 F   0  0  0  0  0  0  0  0  0  0  0  0
  1  2  1  0  0  0  0
  1  5  2  0  0  0  0
  2  6  2  0  0  0  0
  3 10  2  0  0  0  0
  3 18  1  0  0  0  0
  4 11  1  0  0  0  0
  4 18  2  0  0  0  0
  5 21  1  0  0  0  0
  6 23  1  0  0  0  0
  7 12  2  0  0  0  0
  7 22  1  0  0  0  0
  8  9  2  0  0  0  0
  8 25  1  0  0  0  0
  9 26  1  0  0  0  0
 10 27  1  0  0  0  0
 11 27  2  0  0  0  0
 12 28  1  0  0  0  0
 13 14  2  0  0  0  0
 13 29  1  0  0  0  0
 14 30  1  0  0  0  0
 15 19  1  0  0  0  0
 15 26  2  0  0  0  0
 16 24  1  0  0  0  0
 16 28  2  0  0  0  0
 17 30  2  0  0  0  0
 17 31  1  0  0  0  0
 18 32  1  0  0  0  0
 19 25  2  0  0  0  0
 19 34  1  0  0  0  0
 20 32  1  0  0  0  0
 20 33  2  0  0  0  0
 20 35  1  0  0  0  0
 21 23  2  0  0  0  0
 21 41  1  0  0  0  0
 22 24  2  0  0  0  0
 22 42  1  0  0  0  0
 23 50  1  0  0  0  0
 24 43  1  0  0  0  0
 25 59  1  0  0  0  0
 26 71  1  0  0  0  0
 27 82  1  0  0  0  0
 28 83  1  0  0  0  0
 29 31  2  0  0  0  0
 29 82  1  0  0  0  0
 30 84  1  0  0  0  0
 31 85  1  0  0  0  0
 32 64  2  0  0  0  0
 33 66  1  0  0  0  0
 33 69  1  0  0  0  0
 34 65  2  0  0  0  0
 35 70  1  0  0  0  0
 35 76  2  0  0  0  0
 36 51  1  0  0  0  0
 36 72  1  0  0  0  0
 36 77  2  0  0  0  0
 37 60  1  0  0  0  0
 37 67  1  0  0  0  0
 37 78  2  0  0  0  0
 38 61  1  0  0  0  0
 38 74  1  0  0  0  0
 38 79  2  0  0  0  0
 39 62  1  0  0  0  0
 39 73  1  0  0  0  0
 39 80  2  0  0  0  0
 40 68  1  0  0  0  0
 40 71  1  0  0  0  0
 40 81  2  0  0  0  0
 41 44  1  0  0  0  0
 42 51  1  0  0  0  0
 43 67  1  0  0  0  0
 44 46  1  0  0  0  0
 45 47  1  0  0  0  0
 45 48  1  0  0  0  0
 46 50  1  0  0  0  0
 47 52  1  0  0  0  0
 48 68  1  0  0  0  0
 49 52  1  0  0  0  0
 49 68  1  0  0  0  0
 50 72  1  0  0  0  0
 51 67  1  0  0  0  0
 52 66  1  0  0  0  0
 53 61  1  0  0  0  0
 54 62  1  0  0  0  0
 55 63  1  0  0  0  0
 56 63  1  0  0  0  0
 57 63  1  0  0  0  0
 58 75  1  0  0  0  0
 59 73  1  0  0  0  0
 60 63  1  0  0  0  0
 60 74  1  0  0  0  0
 61 75  1  0  0  0  0
 62 83  1  0  0  0  0
 64 66  1  0  0  0  0
M  CHG  1  75   1
M  ISO  4  40 100  62 101  71 100  83 101
M  END
> <Batch ID>
0055

> <Smiles>
CNC(C)C(=O)NC(C(=O)N1Cc2cc([101O:1][101CH:1](C)C(=O)NCc3ccc([100NH:0][100C:0](=O)N4CCCC(n5nc(-c6ccc(Oc7ccc(F)cc7F)cc6)c(C(N)=O)c5N)C4)cc3C=N)ccc2CC1C(=O)NC1CCCc2ccccc21)C(C)(C)C

> <Shape>
0.312

> <Color>
0.121

> <Negative vol penalty>
0.000

$$$$

  -OEChem-04042322493D

 86 94  0     1  0  0  0  0  0999 V2000
  -16.7215  -26.0585   22.6037 C   0  0  0  0  0  0  0  0  0  0  0  0
  -17.9904  -25.5663   22.3156 C   0  0  0  0  0  0  0  0  0  0  0  0
  -32.2875  -21.2246   14.6810 C   0  0  0  0  0  0  0  0  0  0  0  0
  -26.4964  -13.1435   21.3869 C   0  0  0  0  0  0  0  0  0  0  0  0
  -26.3728  -13.6169   19.0210 C   0  0  0  0  0  0  0  0  0  0  0  0
  -16.5689  -27.3700   23.0518 C   0  0  0  0  0  0  0  0  0  0  0  0
  -19.1074  -26.3857   22.4744 C   0  0  0  0  0  0  0  0  0  0  0  0
  -22.9374  -24.0207   24.7946 C   0  0  0  0  0  0  0  0  0  0  0  0
  -32.9761  -20.5459   15.6864 C   0  0  0  0  0  0  0  0  0  0  0  0
  -30.9311  -21.5109   14.8357 C   0  0  0  0  0  0  0  0  0  0  0  0
  -25.2099  -12.6060   21.3466 C   0  0  0  0  0  0  0  0  0  0  0  0
  -25.0863  -13.0794   18.9806 C   0  0  0  0  0  0  0  0  0  0  0  0
  -23.7006  -23.1411   24.0279 C   0  0  0  0  0  0  0  0  0  0  0  0
  -23.7483   -9.7121   20.3865 C   0  0  0  0  0  0  0  0  0  0  0  0
  -23.5300   -8.5027   21.0461 C   0  0  0  0  0  0  0  0  0  0  0  0
  -25.3925  -24.8415   23.7724 C   0  0  0  0  0  0  0  0  0  0  0  0
  -21.8798   -9.5678   22.4531 C   0  0  0  0  0  0  0  0  0  0  0  0
  -27.0779  -13.6490   20.2241 C   0  0  0  0  0  0  0  0  0  0  0  0
  -29.6207  -13.5211   20.0648 C   0  0  0  0  0  0  0  0  0  0  0  0
  -17.6855  -28.2028   23.2254 C   0  0  0  0  0  0  0  0  0  0  0  0
  -23.3918  -25.3230   25.0472 C   0  0  0  0  0  0  0  0  0  0  0  0
  -18.9695  -27.7099   22.9240 C   0  0  0  0  0  0  0  0  0  0  0  0
  -24.6344  -25.7348   24.5446 C   0  0  0  0  0  0  0  0  0  0  0  0
  -32.3083  -20.1534   16.8464 C   0  0  0  0  0  0  0  0  0  0  0  0
  -30.2633  -21.1185   15.9957 C   0  0  0  0  0  0  0  0  0  0  0  0
  -30.9519  -20.4397   17.0011 C   0  0  0  0  0  0  0  0  0  0  0  0
  -24.5048  -12.5739   20.1435 C   0  0  0  0  0  0  0  0  0  0  0  0
  -24.9270  -23.5524   23.5143 C   0  0  0  0  0  0  0  0  0  0  0  0
  -23.0323  -10.8495   20.7601 C   0  0  0  0  0  0  0  0  0  0  0  0
  -22.5958   -8.4305   22.0794 C   0  0  0  0  0  0  0  0  0  0  0  0
  -22.0981  -10.7773   21.7934 C   0  0  0  0  0  0  0  0  0  0  0  0
  -28.4065  -14.2048   20.2653 C   0  0  0  0  0  0  0  0  0  0  0  0
  -30.5864  -14.4873   20.2069 C   0  0  0  0  0  0  0  0  0  0  0  0
  -29.8546  -12.1363   19.7760 C   0  0  0  0  0  0  0  0  0  0  0  0
  -22.3285  -28.2408   24.3691 C   0  0  0  0  0  0  0  0  0  0  0  0
  -24.8146  -29.1585   26.2399 C   0  0  0  0  0  0  0  0  0  0  0  0
  -27.7235  -21.8493   18.3544 C   0  0  0  0  0  0  0  0  0  0  0  0
  -27.8709  -28.4177   27.5654 C   0  0  0  0  0  0  0  0  0  0  0  0
  -30.5623  -20.4195   19.4899 C   0  0  0  0  0  0  0  0  0  0  0  0
  -17.4664  -29.6281   23.6670 C   0  0  0  0  0  0  0  0  0  0  0  0
  -22.5690  -26.2509   25.8983 C   0  0  0  0  0  0  0  0  0  0  0  0
  -25.1766  -27.1158   24.8041 C   0  0  0  0  0  0  0  0  0  0  0  0
  -18.7359  -30.3130   24.1668 C   0  0  0  0  0  0  0  0  0  0  0  0
  -31.4328  -18.6353   22.4456 C   0  0  0  0  0  0  0  0  0  0  0  0
  -19.8934  -30.0577   23.2067 C   0  0  0  0  0  0  0  0  0  0  0  0
  -30.8713  -17.2328   22.2011 C   0  0  0  0  0  0  0  0  0  0  0  0
  -30.5205  -19.7191   21.8737 C   0  0  0  0  0  0  0  0  0  0  0  0
  -29.6031  -18.1457   20.2148 C   0  0  0  0  0  0  0  0  0  0  0  0
  -20.2079  -28.5602   23.1074 C   0  0  1  0  0  0  0  0  0  0  0  0
  -22.8924  -27.7230   25.6620 C   0  0  1  0  0  0  0  0  0  0  0  0
  -30.5196  -17.0176   20.7160 C   0  0  2  0  0  0  0  0  0  0  0  0
  -33.0732  -19.4277   17.9057 C   0  0  0  0  0  0  0  0  0  0  0  0
  -29.6705  -29.3802   29.0256 C   0  0  0  0  0  0  0  0  0  0  0  0
  -25.7283  -30.9385   23.9362 C   0  0  0  0  0  0  0  0  0  0  0  0
  -27.9618  -31.1184   25.0531 C   0  0  0  0  0  0  0  0  0  0  0  0
  -25.9222  -31.9816   26.2009 C   0  0  0  0  0  0  0  0  0  0  0  0
  -29.1785  -23.5875   17.2838 C   0  0  0  0  0  0  0  0  0  0  0  0
  -27.5766  -26.2482   29.5568 C   0  0  0  0  0  0  0  0  0  0  0  0
  -28.8035  -21.4417   16.1325 C   0  0  0  0  0  0  0  0  0  0  0  0
  -27.5408  -22.8351   19.5011 C   0  0  0  0  0  0  0  0  0  0  0  0
  -26.6410  -22.2888   20.6076 C   0  0  0  0  0  0  0  0  0  0  0  0
  -26.5111  -23.2709   21.7629 C   0  0  0  0  0  0  0  0  0  1  0  0
  -26.2689  -29.4853   26.0007 C   0  0  1  0  0  0  0  0  0  0  0  0
  -28.4096  -28.5313   28.9801 C   0  0  2  0  0  0  0  0  0  0  0  0
  -26.4595  -30.8555   25.2910 C   0  0  0  0  0  0  0  0  0  0  0  0
  -28.5823  -15.5050   20.5157 N   0  0  0  0  0  0  0  0  0  0  0  0
  -29.9181  -15.6459   20.4737 N   0  0  0  0  0  0  0  0  0  0  0  0
  -24.3322  -27.9884   25.6366 N   0  0  0  0  0  0  0  0  0  0  0  0
  -30.2339  -19.4516   20.4627 N   0  0  0  0  0  0  0  0  0  0  0  0
  -31.9336  -14.4504   20.1284 N   0  0  0  0  0  0  0  0  0  0  0  0
  -28.7497  -11.2814   19.6634 N   0  0  0  0  0  0  0  0  0  0  0  0
  -30.2733  -20.0408   18.1793 N   0  0  0  0  0  0  0  0  0  0  0  0
  -20.9555  -28.1228   24.2668 N   0  0  0  0  0  0  0  0  0  0  0  0
  -26.9280  -29.3878   27.2986 N   0  0  0  0  0  0  0  0  0  0  0  0
  -28.5362  -22.2752   17.2982 N   0  0  0  0  0  0  0  0  0  0  0  0
  -28.7325  -27.1808   29.5214 N   0  3  0  0  0  0  0  0  0  0  0  0
  -31.0100  -11.6676   19.6385 O   0  0  0  0  0  0  0  0  0  0  0  0
  -23.0830  -28.7138   23.5274 O   0  0  0  0  0  0  0  0  0  0  0  0
  -24.1335  -29.9099   26.9421 O   0  0  0  0  0  0  0  0  0  0  0  0
  -27.1729  -20.7455   18.3848 O   0  0  0  0  0  0  0  0  0  0  0  0
  -28.2513  -27.5570   26.7748 O   0  0  0  0  0  0  0  0  0  0  0  0
  -31.0880  -21.4932   19.7944 O   0  0  0  0  0  0  0  0  0  0  0  0
  -23.2496  -12.0493   20.1037 O   0  0  0  0  0  0  0  0  0  0  0  0
  -25.6736  -22.6961   22.7651 O   0  0  0  0  0  0  0  0  0  1  0  0
  -22.3853   -7.2686   22.7117 F   0  0  0  0  0  0  0  0  0  0  0  0
  -21.4064  -11.8663   22.1561 F   0  0  0  0  0  0  0  0  0  0  0  0
  1  2  1  0  0  0  0
  1  6  2  0  0  0  0
  2  7  2  0  0  0  0
  3  9  1  0  0  0  0
  3 10  2  0  0  0  0
  4 11  2  0  0  0  0
  4 18  1  0  0  0  0
  5 12  1  0  0  0  0
  5 18  2  0  0  0  0
  6 20  1  0  0  0  0
  7 22  1  0  0  0  0
  8 13  2  0  0  0  0
  8 21  1  0  0  0  0
  9 24  2  0  0  0  0
 10 25  1  0  0  0  0
 11 27  1  0  0  0  0
 12 27  2  0  0  0  0
 13 28  1  0  0  0  0
 14 15  2  0  0  0  0
 14 29  1  0  0  0  0
 15 30  1  0  0  0  0
 16 23  1  0  0  0  0
 16 28  2  0  0  0  0
 17 30  2  0  0  0  0
 17 31  1  0  0  0  0
 18 32  1  0  0  0  0
 19 32  1  0  0  0  0
 19 33  2  0  0  0  0
 19 34  1  0  0  0  0
 20 22  2  0  0  0  0
 20 40  1  0  0  0  0
 21 23  2  0  0  0  0
 21 41  1  0  0  0  0
 22 49  1  0  0  0  0
 23 42  1  0  0  0  0
 24 26  1  0  0  0  0
 24 52  1  0  0  0  0
 25 26  2  0  0  0  0
 25 59  1  0  0  0  0
 26 72  1  0  0  0  0
 27 83  1  0  0  0  0
 28 84  1  0  0  0  0
 29 31  2  0  0  0  0
 29 83  1  0  0  0  0
 30 85  1  0  0  0  0
 31 86  1  0  0  0  0
 32 66  2  0  0  0  0
 33 67  1  0  0  0  0
 33 70  1  0  0  0  0
 34 71  1  0  0  0  0
 34 77  2  0  0  0  0
 35 50  1  0  0  0  0
 35 73  1  0  0  0  0
 35 78  2  0  0  0  0
 36 63  1  0  0  0  0
 36 68  1  0  0  0  0
 36 79  2  0  0  0  0
 37 60  1  0  0  0  0
 37 75  1  0  0  0  0
 37 80  2  0  0  0  0
 38 64  1  0  0  0  0
 38 74  1  0  0  0  0
 38 81  2  0  0  0  0
 39 69  1  0  0  0  0
 39 72  1  0  0  0  0
 39 82  2  0  0  0  0
 40 43  1  0  0  0  0
 41 50  1  0  0  0  0
 42 68  1  0  0  0  0
 43 45  1  0  0  0  0
 44 46  1  0  0  0  0
 44 47  1  0  0  0  0
 45 49  1  0  0  0  0
 46 51  1  0  0  0  0
 47 69  1  0  0  0  0
 48 51  1  0  0  0  0
 48 69  1  0  0  0  0
 49 73  1  0  0  0  0
 50 68  1  0  0  0  0
 51 67  1  0  0  0  0
 53 64  1  0  0  0  0
 54 65  1  0  0  0  0
 55 65  1  0  0  0  0
 56 65  1  0  0  0  0
 57 75  1  0  0  0  0
 58 76  1  0  0  0  0
 59 75  1  0  0  0  0
 60 61  1  0  0  0  0
 61 62  1  0  0  0  0
 62 84  1  0  0  0  0
 63 65  1  0  0  0  0
 63 74  1  0  0  0  0
 64 76  1  0  0  0  0
 66 67  1  0  0  0  0
M  CHG  1  76   1
M  ISO  4  39 100  62 101  72 100  84 101
M  END
> <Batch ID>
0055

> <Smiles>
CNC(C)C(=O)NC(C(=O)N1Cc2cc([101O:1][101CH2:1]CCC(=O)N(C)Cc3cccc(C)c3[100NH:0][100C:0](=O)N3CCCC(n4nc(-c5ccc(Oc6ccc(F)cc6F)cc5)c(C(N)=O)c4N)C3)ccc2CC1C(=O)NC1CCCc2ccccc21)C(C)(C)C

> <Shape>
0.256

> <Color>
0.085

> <Negative vol penalty>
0.000

$$$$

  -OEChem-04042322493D

 86 95  0     1  0  0  0  0  0999 V2000
  -26.7380  -34.6223   26.0714 C   0  0  0  0  0  0  0  0  0  0  0  0
  -27.1789  -33.4580   25.4507 C   0  0  0  0  0  0  0  0  0  0  0  0
  -26.4369  -24.0873   15.0658 C   0  0  0  0  0  0  0  0  0  0  0  0
  -23.0687  -10.2961   21.5815 C   0  0  0  0  0  0  0  0  0  0  0  0
  -24.1795   -8.8458   20.0005 C   0  0  0  0  0  0  0  0  0  0  0  0
  -25.9480  -22.7815   15.0296 C   0  0  0  0  0  0  0  0  0  0  0  0
  -25.3886  -34.7747   26.3871 C   0  0  0  0  0  0  0  0  0  0  0  0
  -26.2706  -32.4446   25.1463 C   0  0  0  0  0  0  0  0  0  0  0  0
  -26.9305  -30.5800   20.4845 C   0  0  0  0  0  0  0  0  0  0  0  0
  -27.1288  -24.5421   16.1884 C   0  0  0  0  0  0  0  0  0  0  0  0
  -22.2448   -9.2402   21.9713 C   0  0  0  0  0  0  0  0  0  0  0  0
  -23.3556   -7.7899   20.3903 C   0  0  0  0  0  0  0  0  0  0  0  0
  -27.9819  -29.6831   20.3004 C   0  0  0  0  0  0  0  0  0  0  0  0
  -22.4664   -6.5070   23.9496 C   0  0  0  0  0  0  0  0  0  0  0  0
  -22.2628   -6.3139   25.3159 C   0  0  0  0  0  0  0  0  0  0  0  0
  -26.8427  -22.3853   17.2385 C   0  0  0  0  0  0  0  0  0  0  0  0
  -26.4249  -27.8440   20.4154 C   0  0  0  0  0  0  0  0  0  0  0  0
  -19.8885   -6.6381   25.0079 C   0  0  0  0  0  0  0  0  0  0  0  0
  -24.0360  -10.0989   20.5961 C   0  0  0  0  0  0  0  0  0  0  0  0
  -26.1508  -21.9305   16.1159 C   0  0  0  0  0  0  0  0  0  0  0  0
  -26.1333  -11.5437   20.7430 C   0  0  0  0  0  0  0  0  0  0  0  0
  -24.4617  -33.7668   26.0777 C   0  0  0  0  0  0  0  0  0  0  0  0
  -25.6178  -30.1144   20.6465 C   0  0  0  0  0  0  0  0  0  0  0  0
  -24.9077  -32.5831   25.4594 C   0  0  0  0  0  0  0  0  0  0  0  0
  -25.3584  -28.7373   20.5988 C   0  0  0  0  0  0  0  0  0  0  0  0
  -27.3317  -23.6911   17.2747 C   0  0  0  0  0  0  0  0  0  0  0  0
  -22.3883   -7.9871   21.3757 C   0  0  0  0  0  0  0  0  0  0  0  0
  -27.7296  -28.3147   20.2687 C   0  0  0  0  0  0  0  0  0  0  0  0
  -21.3810   -6.7658   23.1124 C   0  0  0  0  0  0  0  0  0  0  0  0
  -20.9739   -6.3794   25.8451 C   0  0  0  0  0  0  0  0  0  0  0  0
  -20.0921   -6.8312   23.6416 C   0  0  0  0  0  0  0  0  0  0  0  0
  -24.8870  -11.1894   20.1926 C   0  0  0  0  0  0  0  0  0  0  0  0
  -26.5307  -12.6392   20.0160 C   0  0  0  0  0  0  0  0  0  0  0  0
  -28.8028  -23.2764   19.2296 C   0  0  0  0  0  0  0  0  0  0  0  0
  -25.6338  -20.5512   16.0763 C   0  0  0  0  0  0  0  0  0  0  0  0
  -26.8663  -10.9368   21.8154 C   0  0  0  0  0  0  0  0  0  0  0  0
  -23.4481  -30.2823   22.9635 C   0  0  0  0  0  0  0  0  0  0  0  0
  -21.5393  -28.8839   20.7447 C   0  0  0  0  0  0  0  0  0  0  0  0
  -21.2899  -26.9762   17.9260 C   0  0  0  0  0  0  0  0  0  0  0  0
  -25.3853  -17.5514   17.8553 C   0  0  0  0  0  0  0  0  0  0  0  0
  -23.0209  -33.9568   26.4811 C   0  0  0  0  0  0  0  0  0  0  0  0
  -24.4912  -31.0963   20.8174 C   0  0  0  0  0  0  0  0  0  0  0  0
  -23.9642  -28.1873   20.7475 C   0  0  0  0  0  0  0  0  0  0  0  0
  -29.2520  -23.7941   20.5842 C   0  0  0  0  0  0  0  0  0  0  0  0
  -22.0618  -32.9938   25.7862 C   0  0  0  0  0  0  0  0  0  0  0  0
  -29.6008  -25.2639   20.6005 C   0  0  0  0  0  0  0  0  0  0  0  0
  -24.6738  -14.6331   15.7667 C   0  0  0  0  0  0  0  0  0  0  0  0
  -22.6091  -31.5707   25.8303 C   0  0  0  0  0  0  0  0  0  0  0  0
  -24.7407  -13.5063   16.7955 C   0  0  0  0  0  0  0  0  0  0  0  0
  -24.0881  -15.9113   16.3640 C   0  0  0  0  0  0  0  0  0  0  0  0
  -24.8594  -15.2549   18.6188 C   0  0  0  0  0  0  0  0  0  0  0  0
  -28.1286  -25.6199   18.6394 C   0  0  0  0  0  0  0  0  0  0  0  0
  -23.9489  -31.4718   25.0908 C   0  0  1  0  0  0  0  0  0  0  0  0
  -23.2632  -30.4862   21.4864 C   0  0  1  0  0  0  0  0  0  0  0  0
  -25.4815  -13.9633   18.0632 C   0  0  1  0  0  0  0  0  0  0  0  0
  -28.4245  -26.0528   20.0677 C   0  0  2  0  0  0  0  0  0  1  0  0
  -19.5959  -25.9704   16.3716 C   0  0  0  0  0  0  0  0  0  0  0  0
  -20.9196  -26.7315   22.8167 C   0  0  0  0  0  0  0  0  0  0  0  0
  -20.0315  -25.3016   20.9634 C   0  0  0  0  0  0  0  0  0  0  0  0
  -18.9479  -27.4889   21.4775 C   0  0  0  0  0  0  0  0  0  0  0  0
  -22.3349  -28.5003   15.6143 C   0  0  0  0  0  0  0  0  0  0  0  0
  -21.2145  -27.4613   20.3577 C   0  0  1  0  0  0  0  0  0  0  0  0
  -20.4932  -27.1668   16.6479 C   0  0  2  0  0  0  0  0  0  0  0  0
  -20.3050  -26.7558   21.4029 C   0  0  0  0  0  0  0  0  0  0  0  0
  -24.5170  -11.9946   19.1932 N   0  0  0  0  0  0  0  0  0  0  0  0
  -25.7999  -19.7297   17.0615 N   0  0  0  0  0  0  0  0  0  0  0  0
  -25.5368  -12.8659   19.1100 N   0  0  0  0  0  0  0  0  0  0  0  0
  -28.0499  -24.1632   18.4394 N   0  0  0  0  0  0  0  0  0  0  0  0
  -22.8971  -29.1871   20.9185 N   0  0  0  0  0  0  0  0  0  0  0  0
  -24.8045  -16.2991   17.5886 N   0  0  0  0  0  0  0  0  0  0  0  0
  -27.6299  -13.4211   20.0699 N   0  0  0  0  0  0  0  0  0  0  0  0
  -26.3131   -9.8184   22.4538 N   0  0  0  0  0  0  0  0  0  0  0  0
  -23.7352  -31.4409   23.6598 N   0  0  0  0  0  0  0  0  0  0  0  0
  -20.6458  -27.5231   19.0157 N   0  0  0  0  0  0  0  0  0  0  0  0
  -25.2592  -18.5029   16.8552 N   0  0  0  0  0  0  0  0  0  0  0  0
  -21.4108  -27.3441   15.4871 N   0  3  0  0  0  0  0  0  0  0  0  0
  -29.0727  -22.1083   18.9371 O   0  0  0  0  0  0  0  0  0  0  0  0
  -27.9712  -11.3832   22.2071 O   0  0  0  0  0  0  0  0  0  0  0  0
  -23.3370  -29.1574   23.4367 O   0  0  0  0  0  0  0  0  0  0  0  0
  -20.6225  -29.6980   20.8805 O   0  0  0  0  0  0  0  0  0  0  0  0
  -22.3733  -26.3966   17.9554 O   0  0  0  0  0  0  0  0  0  0  0  0
  -25.9736  -17.8023   18.9133 O   0  0  0  0  0  0  0  0  0  0  0  0
  -21.5847   -6.9565   21.7560 O   0  0  0  0  0  0  0  0  0  0  0  0
  -28.7540  -27.4370   20.0899 O   0  0  0  0  0  0  0  0  0  1  0  0
  -20.7783   -6.1924   27.1569 F   0  0  0  0  0  0  0  0  0  0  0  0
  -19.0454   -7.0783   22.8421 F   0  0  0  0  0  0  0  0  0  0  0  0
  1  2  1  0  0  0  0
  1  7  2  0  0  0  0
  2  8  2  0  0  0  0
  3  6  1  0  0  0  0
  3 10  2  0  0  0  0
  4 11  2  0  0  0  0
  4 19  1  0  0  0  0
  5 12  1  0  0  0  0
  5 19  2  0  0  0  0
  6 20  2  0  0  0  0
  7 22  1  0  0  0  0
  8 24  1  0  0  0  0
  9 13  2  0  0  0  0
  9 23  1  0  0  0  0
 10 26  1  0  0  0  0
 11 27  1  0  0  0  0
 12 27  2  0  0  0  0
 13 28  1  0  0  0  0
 14 15  2  0  0  0  0
 14 29  1  0  0  0  0
 15 30  1  0  0  0  0
 16 20  1  0  0  0  0
 16 26  2  0  0  0  0
 17 25  1  0  0  0  0
 17 28  2  0  0  0  0
 18 30  2  0  0  0  0
 18 31  1  0  0  0  0
 19 32  1  0  0  0  0
 20 35  1  0  0  0  0
 21 32  1  0  0  0  0
 21 33  2  0  0  0  0
 21 36  1  0  0  0  0
 22 24  2  0  0  0  0
 22 41  1  0  0  0  0
 23 25  2  0  0  0  0
 23 42  1  0  0  0  0
 24 53  1  0  0  0  0
 25 43  1  0  0  0  0
 26 68  1  0  0  0  0
 27 83  1  0  0  0  0
 28 84  1  0  0  0  0
 29 31  2  0  0  0  0
 29 83  1  0  0  0  0
 30 85  1  0  0  0  0
 31 86  1  0  0  0  0
 32 65  2  0  0  0  0
 33 67  1  0  0  0  0
 33 71  1  0  0  0  0
 34 44  1  0  0  0  0
 34 68  1  0  0  0  0
 34 77  2  0  0  0  0
 35 66  2  0  0  0  0
 36 72  1  0  0  0  0
 36 78  2  0  0  0  0
 37 54  1  0  0  0  0
 37 73  1  0  0  0  0
 37 79  2  0  0  0  0
 38 62  1  0  0  0  0
 38 69  1  0  0  0  0
 38 80  2  0  0  0  0
 39 63  1  0  0  0  0
 39 74  1  0  0  0  0
 39 81  2  0  0  0  0
 40 70  1  0  0  0  0
 40 75  1  0  0  0  0
 40 82  2  0  0  0  0
 41 45  1  0  0  0  0
 42 54  1  0  0  0  0
 43 69  1  0  0  0  0
 44 46  1  0  0  0  0
 45 48  1  0  0  0  0
 46 56  1  0  0  0  0
 47 49  1  0  0  0  0
 47 50  1  0  0  0  0
 48 53  1  0  0  0  0
 49 55  1  0  0  0  0
 50 70  1  0  0  0  0
 51 55  1  0  0  0  0
 51 70  1  0  0  0  0
 52 56  1  0  0  0  0
 52 68  1  0  0  0  0
 53 73  1  0  0  0  0
 54 69  1  0  0  0  0
 55 67  1  0  0  0  0
 56 84  1  0  0  0  0
 57 63  1  0  0  0  0
 58 64  1  0  0  0  0
 59 64  1  0  0  0  0
 60 64  1  0  0  0  0
 61 76  1  0  0  0  0
 62 64  1  0  0  0  0
 62 74  1  0  0  0  0
 63 76  1  0  0  0  0
 65 67  1  0  0  0  0
 66 75  1  0  0  0  0
M  CHG  1  76   1
M  ISO  4  40 100  56 101  75 100  84 101
M  END
> <Batch ID>
0055

> <Smiles>
CNC(C)C(=O)NC(C(=O)N1Cc2cc([101O:1][101CH:1]3CCC(=O)N(c4cccc(C=N[100NH:0][100C:0](=O)N5CCCC(n6nc(-c7ccc(Oc8ccc(F)cc8F)cc7)c(C(N)=O)c6N)C5)c4)C3)ccc2CC1C(=O)NC1CCCc2ccccc21)C(C)(C)C

> <Shape>
0.251

> <Color>
0.096

> <Negative vol penalty>
0.000

$$$$

  -OEChem-04042322493D

 90 98  0     1  0  0  0  0  0999 V2000
  -29.4530  -22.8244   13.9072 C   0  0  0  0  0  0  0  0  0  0  0  0
  -29.0474  -22.5115   15.2007 C   0  0  0  0  0  0  0  0  0  0  0  0
  -23.6179  -11.5281   16.5085 C   0  0  0  0  0  0  0  0  0  0  0  0
  -29.6247  -19.9821   19.7556 C   0  0  0  0  0  0  0  0  0  0  0  0
  -30.4544  -20.0342   22.0240 C   0  0  0  0  0  0  0  0  0  0  0  0
  -23.1159  -12.5360   17.3316 C   0  0  0  0  0  0  0  0  0  0  0  0
  -29.8624  -24.1215   13.6009 C   0  0  0  0  0  0  0  0  0  0  0  0
  -29.0521  -23.4954   16.1888 C   0  0  0  0  0  0  0  0  0  0  0  0
  -24.8380  -23.4487   18.9967 C   0  0  0  0  0  0  0  0  0  0  0  0
  -29.3670  -21.3515   19.8184 C   0  0  0  0  0  0  0  0  0  0  0  0
  -30.1968  -21.4037   22.0868 C   0  0  0  0  0  0  0  0  0  0  0  0
  -24.7411  -22.4684   19.9834 C   0  0  0  0  0  0  0  0  0  0  0  0
  -31.6482  -24.2613   21.0155 C   0  0  0  0  0  0  0  0  0  0  0  0
  -24.9622  -11.1648   16.5913 C   0  0  0  0  0  0  0  0  0  0  0  0
  -32.6341  -25.0801   21.5662 C   0  0  0  0  0  0  0  0  0  0  0  0
  -25.3899  -24.0887   21.6485 C   0  0  0  0  0  0  0  0  0  0  0  0
  -31.0823  -25.8015   23.2717 C   0  0  0  0  0  0  0  0  0  0  0  0
  -30.1684  -19.3234   20.8585 C   0  0  0  0  0  0  0  0  0  0  0  0
  -23.9581  -13.1808   18.2375 C   0  0  0  0  0  0  0  0  0  0  0  0
  -31.6244  -17.2857   20.3736 C   0  0  0  0  0  0  0  0  0  0  0  0
  -29.8629  -25.1241   14.5834 C   0  0  0  0  0  0  0  0  0  0  0  0
  -25.2228  -24.7559   19.3276 C   0  0  0  0  0  0  0  0  0  0  0  0
  -29.4632  -24.8068   15.8956 C   0  0  0  0  0  0  0  0  0  0  0  0
  -25.4884  -25.0844   20.6646 C   0  0  0  0  0  0  0  0  0  0  0  0
  -29.6530  -22.0623   20.9839 C   0  0  0  0  0  0  0  0  0  0  0  0
  -25.0199  -22.7876   21.3090 C   0  0  0  0  0  0  0  0  0  0  0  0
  -30.3794  -24.2126   21.5929 C   0  0  0  0  0  0  0  0  0  0  0  0
  -25.3024  -12.8176   18.3203 C   0  0  0  0  0  0  0  0  0  0  0  0
  -32.3511  -25.8502   22.6943 C   0  0  0  0  0  0  0  0  0  0  0  0
  -25.8043  -11.8096   17.4971 C   0  0  0  0  0  0  0  0  0  0  0  0
  -30.0964  -24.9827   22.7209 C   0  0  0  0  0  0  0  0  0  0  0  0
  -30.4343  -17.9088   20.7945 C   0  0  0  0  0  0  0  0  0  0  0  0
  -31.3709  -15.9415   20.4982 C   0  0  0  0  0  0  0  0  0  0  0  0
  -23.4024  -14.2517   19.1044 C   0  0  0  0  0  0  0  0  0  0  0  0
  -32.8496  -17.8697   19.9116 C   0  0  0  0  0  0  0  0  0  0  0  0
  -27.6578  -26.6434   18.5452 C   0  0  0  0  0  0  0  0  0  0  0  0
  -25.9790  -28.8521   20.2262 C   0  0  0  0  0  0  0  0  0  0  0  0
  -24.7613  -17.0686   20.6035 C   0  0  0  0  0  0  0  0  0  0  0  0
  -23.6576  -29.5047   22.6412 C   0  0  0  0  0  0  0  0  0  0  0  0
  -26.2244  -12.8437   20.4785 C   0  0  0  0  0  0  0  0  0  0  0  0
  -30.3589  -26.5002   14.2161 C   0  0  0  0  0  0  0  0  0  0  0  0
  -25.2967  -25.8084   18.2555 C   0  0  0  0  0  0  0  0  0  0  0  0
  -25.8859  -26.4780   21.0749 C   0  0  0  0  0  0  0  0  0  0  0  0
  -29.9783  -27.5757   15.2304 C   0  0  0  0  0  0  0  0  0  0  0  0
  -28.7723  -12.8274   23.0214 C   0  0  0  0  0  0  0  0  0  0  0  0
  -30.2628  -27.0953   16.6500 C   0  0  0  0  0  0  0  0  0  0  0  0
  -29.5725  -14.0942   22.7199 C   0  0  0  0  0  0  0  0  0  0  0  0
  -27.2902  -13.0156   22.7133 C   0  0  0  0  0  0  0  0  0  0  0  0
  -27.8184  -14.7370   21.0074 C   0  0  0  0  0  0  0  0  0  0  0  0
  -29.4308  -25.8526   16.9890 C   0  0  1  0  0  0  0  0  0  0  0  0
  -26.1964  -26.9818   18.6311 C   0  0  1  0  0  0  0  0  0  0  0  0
  -29.3239  -14.5750   21.2790 C   0  0  1  0  0  0  0  0  0  0  0  0
  -21.9094  -17.4170   17.9974 C   0  0  0  0  0  0  0  0  0  0  0  0
  -22.5223  -31.4074   23.8194 C   0  0  0  0  0  0  0  0  0  0  0  0
  -28.5043  -29.3390   21.8680 C   0  0  0  0  0  0  0  0  0  0  0  0
  -27.0864  -30.4953   23.5770 C   0  0  0  0  0  0  0  0  0  0  0  0
  -27.2393  -31.4092   21.2610 C   0  0  0  0  0  0  0  0  0  0  0  0
  -20.9875  -28.6523   21.6911 C   0  0  0  0  0  0  0  0  0  0  0  0
  -23.0873  -17.8007   18.8825 C   0  0  0  0  0  0  0  0  0  0  0  0
  -25.0634  -19.5857   23.1056 C   0  0  0  0  0  0  0  0  0  0  0  0
  -25.3134  -18.1174   22.7890 C   0  0  0  0  0  0  0  0  0  0  0  0
  -25.1940  -20.4864   21.8832 C   0  0  0  0  0  0  0  0  0  1  0  0
  -25.9305  -29.2854   21.6714 C   0  0  1  0  0  0  0  0  0  0  0  0
  -23.5685  -16.6400   19.7561 C   0  0  1  0  0  0  0  0  0  0  0  0
  -22.4534  -30.4289   22.6573 C   0  0  2  0  0  0  0  0  0  0  0  0
  -27.1846  -30.1054   22.0867 C   0  0  0  0  0  0  0  0  0  0  0  0
  -29.4944  -17.0325   21.1589 N   0  0  0  0  0  0  0  0  0  0  0  0
  -30.0939  -15.8450   20.9674 N   0  0  0  0  0  0  0  0  0  0  0  0
  -25.9503  -27.4705   19.9894 N   0  0  0  0  0  0  0  0  0  0  0  0
  -27.0935  -13.5076   21.3504 N   0  0  0  0  0  0  0  0  0  0  0  0
  -32.1179  -14.8446   20.2509 N   0  0  0  0  0  0  0  0  0  0  0  0
  -32.9407  -19.2667   19.8454 N   0  0  0  0  0  0  0  0  0  0  0  0
  -23.9810  -15.5065   18.9687 N   0  0  0  0  0  0  0  0  0  0  0  0
  -28.0659  -26.2256   17.2929 N   0  0  0  0  0  0  0  0  0  0  0  0
  -24.3762  -17.5971   21.8323 N   0  0  0  0  0  0  0  0  0  0  0  0
  -24.6681  -29.9965   21.8423 N   0  0  0  0  0  0  0  0  0  0  0  0
  -21.1959  -29.6389   22.7820 N   0  3  0  0  0  0  0  0  0  0  0  0
  -22.4991  -13.9790   19.8905 O   0  0  0  0  0  0  0  0  0  0  0  0
  -33.8288  -17.1729   19.5520 O   0  0  0  0  0  0  0  0  0  0  0  0
  -28.3633  -26.7546   19.5410 O   0  0  0  0  0  0  0  0  0  0  0  0
  -26.0328  -29.7081   19.3396 O   0  0  0  0  0  0  0  0  0  0  0  0
  -25.9238  -16.9913   20.2110 O   0  0  0  0  0  0  0  0  0  0  0  0
  -23.6993  -28.4537   23.2768 O   0  0  0  0  0  0  0  0  0  0  0  0
  -25.5831  -11.8363   20.7747 O   0  0  0  0  0  0  0  0  0  0  0  0
  -29.4019  -23.3986   21.0455 O   0  0  0  0  0  0  0  0  0  0  0  0
  -26.1622  -13.4527   19.2220 O   0  0  0  0  0  0  0  0  0  0  0  0
  -24.9267  -21.8326   22.2739 O   0  0  0  0  0  0  0  0  0  1  0  0
  -33.2984  -26.6353   23.2239 F   0  0  0  0  0  0  0  0  0  0  0  0
  -27.0947  -11.4553   17.5714 F   0  0  0  0  0  0  0  0  0  0  0  0
  -28.8796  -24.9392   23.2807 F   0  0  0  0  0  0  0  0  0  0  0  0
  1  2  1  0  0  0  0
  1  7  2  0  0  0  0
  2  8  2  0  0  0  0
  3  6  2  0  0  0  0
  3 14  1  0  0  0  0
  4 10  2  0  0  0  0
  4 18  1  0  0  0  0
  5 11  1  0  0  0  0
  5 18  2  0  0  0  0
  6 19  1  0  0  0  0
  7 21  1  0  0  0  0
  8 23  1  0  0  0  0
  9 12  2  0  0  0  0
  9 22  1  0  0  0  0
 10 25  1  0  0  0  0
 11 25  2  0  0  0  0
 12 26  1  0  0  0  0
 13 15  2  0  0  0  0
 13 27  1  0  0  0  0
 14 30  2  0  0  0  0
 15 29  1  0  0  0  0
 16 24  1  0  0  0  0
 16 26  2  0  0  0  0
 17 29  2  0  0  0  0
 17 31  1  0  0  0  0
 18 32  1  0  0  0  0
 19 28  2  0  0  0  0
 19 34  1  0  0  0  0
 20 32  1  0  0  0  0
 20 33  2  0  0  0  0
 20 35  1  0  0  0  0
 21 23  2  0  0  0  0
 21 41  1  0  0  0  0
 22 24  2  0  0  0  0
 22 42  1  0  0  0  0
 23 50  1  0  0  0  0
 24 43  1  0  0  0  0
 25 85  1  0  0  0  0
 26 87  1  0  0  0  0
 27 31  2  0  0  0  0
 27 85  1  0  0  0  0
 28 30  1  0  0  0  0
 28 86  1  0  0  0  0
 29 88  1  0  0  0  0
 30 89  1  0  0  0  0
 31 90  1  0  0  0  0
 32 67  2  0  0  0  0
 33 68  1  0  0  0  0
 33 71  1  0  0  0  0
 34 73  1  0  0  0  0
 34 78  2  0  0  0  0
 35 72  1  0  0  0  0
 35 79  2  0  0  0  0
 36 51  1  0  0  0  0
 36 74  1  0  0  0  0
 36 80  2  0  0  0  0
 37 63  1  0  0  0  0
 37 69  1  0  0  0  0
 37 81  2  0  0  0  0
 38 64  1  0  0  0  0
 38 75  1  0  0  0  0
 38 82  2  0  0  0  0
 39 65  1  0  0  0  0
 39 76  1  0  0  0  0
 39 83  2  0  0  0  0
 40 70  1  0  0  0  0
 40 84  2  0  0  0  0
 40 86  1  0  0  0  0
 41 44  1  0  0  0  0
 42 51  1  0  0  0  0
 43 69  1  0  0  0  0
 44 46  1  0  0  0  0
 45 47  1  0  0  0  0
 45 48  1  0  0  0  0
 46 50  1  0  0  0  0
 47 52  1  0  0  0  0
 48 70  1  0  0  0  0
 49 52  1  0  0  0  0
 49 70  1  0  0  0  0
 50 74  1  0  0  0  0
 51 69  1  0  0  0  0
 52 68  1  0  0  0  0
 53 59  1  0  0  0  0
 54 65  1  0  0  0  0
 55 66  1  0  0  0  0
 56 66  1  0  0  0  0
 57 66  1  0  0  0  0
 58 77  1  0  0  0  0
 59 64  1  0  0  0  0
 60 61  1  0  0  0  0
 60 62  1  0  0  0  0
 61 75  1  0  0  0  0
 62 87  1  0  0  0  0
 63 66  1  0  0  0  0
 63 76  1  0  0  0  0
 64 73  1  0  0  0  0
 65 77  1  0  0  0  0
 67 68  1  0  0  0  0
M  CHG  1  77   1
M  ISO  4  40 100  62 101  86 100  87 101
M  END
> <Batch ID>
0055

> <Smiles>
CCC(NC(=O)c1cccc(F)c1[100O:0][100C:0](=O)N1CCCC(n2nc(-c3ccc(Oc4ccc(F)cc4F)cc3)c(C(N)=O)c2N)C1)C(=O)NCC[101CH2:1][101O:1]c1ccc2c(c1)CN(C(=O)C(NC(=O)C(C)NC)C(C)(C)C)C(C(=O)NC1CCCc3ccccc31)C2

> <Shape>
0.197

> <Color>
0.085

> <Negative vol penalty>
0.000

$$$$

  -OEChem-04042322493D

 89 97  0     1  0  0  0  0  0999 V2000
  -22.6231  -35.3968   15.7633 C   0  0  0  0  0  0  0  0  0  0  0  0
  -23.3734  -34.2253   15.7706 C   0  0  0  0  0  0  0  0  0  0  0  0
  -29.0346  -18.1654   18.2545 C   0  0  0  0  0  0  0  0  0  0  0  0
  -28.7392   -7.3198   18.5596 C   0  0  0  0  0  0  0  0  0  0  0  0
  -27.9306   -8.3639   16.5365 C   0  0  0  0  0  0  0  0  0  0  0  0
  -22.6169  -36.2263   16.8839 C   0  0  0  0  0  0  0  0  0  0  0  0
  -24.1190  -33.8833   16.8982 C   0  0  0  0  0  0  0  0  0  0  0  0
  -25.1809  -28.2441   19.0379 C   0  0  0  0  0  0  0  0  0  0  0  0
  -29.6868  -18.8549   19.2767 C   0  0  0  0  0  0  0  0  0  0  0  0
  -27.7326  -17.7028   18.4456 C   0  0  0  0  0  0  0  0  0  0  0  0
  -28.7514   -6.0823   17.9162 C   0  0  0  0  0  0  0  0  0  0  0  0
  -27.9429   -7.1264   15.8929 C   0  0  0  0  0  0  0  0  0  0  0  0
  -26.2675  -27.3804   18.9070 C   0  0  0  0  0  0  0  0  0  0  0  0
  -30.7360   -4.4286   15.7346 C   0  0  0  0  0  0  0  0  0  0  0  0
  -31.8578   -3.6183   15.9091 C   0  0  0  0  0  0  0  0  0  0  0  0
  -27.1263  -28.1495   21.0260 C   0  0  0  0  0  0  0  0  0  0  0  0
  -30.4639   -1.8963   16.8728 C   0  0  0  0  0  0  0  0  0  0  0  0
  -28.3287   -8.4606   17.8698 C   0  0  0  0  0  0  0  0  0  0  0  0
  -29.3649  -10.6752   18.5976 C   0  0  0  0  0  0  0  0  0  0  0  0
  -23.3551  -35.8894   18.0294 C   0  0  0  0  0  0  0  0  0  0  0  0
  -25.0644  -29.0763   20.1606 C   0  0  0  0  0  0  0  0  0  0  0  0
  -24.1238  -34.7097   18.0347 C   0  0  0  0  0  0  0  0  0  0  0  0
  -26.0360  -29.0210   21.1700 C   0  0  0  0  0  0  0  0  0  0  0  0
  -29.0370  -19.0818   20.4899 C   0  0  0  0  0  0  0  0  0  0  0  0
  -27.0829  -17.9296   19.6588 C   0  0  0  0  0  0  0  0  0  0  0  0
  -27.7351  -18.6192   20.6810 C   0  0  0  0  0  0  0  0  0  0  0  0
  -28.3533   -5.9856   16.5828 C   0  0  0  0  0  0  0  0  0  0  0  0
  -27.2419  -27.3351   19.8998 C   0  0  0  0  0  0  0  0  0  0  0  0
  -29.4781   -3.9729   16.1292 C   0  0  0  0  0  0  0  0  0  0  0  0
  -31.7218   -2.3521   16.4782 C   0  0  0  0  0  0  0  0  0  0  0  0
  -29.3421   -2.7067   16.6983 C   0  0  0  0  0  0  0  0  0  0  0  0
  -28.3154   -9.7391   18.5342 C   0  0  0  0  0  0  0  0  0  0  0  0
  -28.8542  -11.7141   19.3368 C   0  0  0  0  0  0  0  0  0  0  0  0
  -24.6647  -20.3352   17.9414 C   0  0  0  0  0  0  0  0  0  0  0  0
  -29.1341  -23.5272   21.3041 C   0  0  0  0  0  0  0  0  0  0  0  0
  -24.4844  -19.4686   18.9444 C   0  0  0  0  0  0  0  0  0  0  0  0
  -29.5038  -24.6610   20.6929 C   0  0  0  0  0  0  0  0  0  0  0  0
  -30.6835  -10.6114   18.0382 C   0  0  0  0  0  0  0  0  0  0  0  0
  -29.8058  -22.2404   20.9728 C   0  0  0  0  0  0  0  0  0  0  0  0
  -24.9888  -32.2200   20.6243 C   0  0  0  0  0  0  0  0  0  0  0  0
  -24.3578  -31.3604   23.6878 C   0  0  0  0  0  0  0  0  0  0  0  0
  -24.5856  -28.9970   26.1393 C   0  0  0  0  0  0  0  0  0  0  0  0
  -24.7118  -15.2541   20.5425 C   0  0  0  0  0  0  0  0  0  0  0  0
  -23.3549  -36.8414   19.1992 C   0  0  0  0  0  0  0  0  0  0  0  0
  -23.8723  -29.9830   20.2995 C   0  0  0  0  0  0  0  0  0  0  0  0
  -25.9467  -29.8792   22.4045 C   0  0  0  0  0  0  0  0  0  0  0  0
  -23.8746  -36.2179   20.4920 C   0  0  0  0  0  0  0  0  0  0  0  0
  -24.6072  -12.0375   22.0653 C   0  0  0  0  0  0  0  0  0  0  0  0
  -25.1633  -35.4445   20.2314 C   0  0  0  0  0  0  0  0  0  0  0  0
  -25.6442  -11.2289   21.2838 C   0  0  0  0  0  0  0  0  0  0  0  0
  -23.8559  -13.0138   21.1629 C   0  0  0  0  0  0  0  0  0  0  0  0
  -25.7532  -13.1070   19.5928 C   0  0  0  0  0  0  0  0  0  0  0  0
  -24.9258  -34.2920   19.2481 C   0  0  1  0  0  0  0  0  0  0  0  0
  -24.1219  -31.1582   21.2398 C   0  0  1  0  0  0  0  0  0  0  0  0
  -26.5754  -12.1482   20.4708 C   0  0  2  0  0  0  0  0  0  0  0  0
  -27.0384  -18.8624   21.9820 C   0  0  0  0  0  0  0  0  0  0  0  0
  -24.0129  -28.5975   28.5496 C   0  0  0  0  0  0  0  0  0  0  0  0
  -26.6939  -33.1315   24.5340 C   0  0  0  0  0  0  0  0  0  0  0  0
  -26.6765  -31.9742   26.7540 C   0  0  0  0  0  0  0  0  0  0  0  0
  -24.6834  -33.2790   26.0140 C   0  0  0  0  0  0  0  0  0  0  0  0
  -22.8315  -26.7110   25.4639 C   0  0  0  0  0  0  0  0  0  0  0  0
  -29.7612  -19.8269   21.5737 C   0  0  0  0  0  0  0  0  0  0  0  0
  -24.6691  -17.9832   18.8140 C   0  0  0  0  0  0  0  0  0  0  0  0
  -28.8780  -25.9880   20.9789 C   0  0  0  0  0  0  0  0  0  1  0  0
  -25.6886  -17.4240   19.8377 C   0  0  1  0  0  0  0  0  0  0  0  0
  -25.1945  -31.0633   24.9088 C   0  0  1  0  0  0  0  0  0  0  0  0
  -23.5537  -28.4475   27.1076 C   0  0  2  0  0  0  0  0  0  0  0  0
  -25.8151  -32.3471   25.5286 C   0  0  0  0  0  0  0  0  0  0  0  0
  -27.2207  -10.1471   19.1816 N   0  0  0  0  0  0  0  0  0  0  0  0
  -27.5796  -11.3511   19.6590 N   0  0  0  0  0  0  0  0  0  0  0  0
  -24.7657  -30.7539   22.4913 N   0  0  0  0  0  0  0  0  0  0  0  0
  -24.7964  -13.8573   20.4213 N   0  0  0  0  0  0  0  0  0  0  0  0
  -29.3756  -12.8935   19.7362 N   0  0  0  0  0  0  0  0  0  0  0  0
  -31.0445   -9.4717   17.3067 N   0  0  0  0  0  0  0  0  0  0  0  0
  -29.2870  -21.1863   21.7055 N   0  0  0  0  0  0  0  0  0  0  0  0
  -24.2880  -33.1791   19.9184 N   0  0  0  0  0  0  0  0  0  0  0  0
  -24.3355  -30.3149   25.8200 N   0  0  0  0  0  0  0  0  0  0  0  0
  -25.6447  -15.9790   19.8111 N   0  0  0  0  0  0  0  0  0  0  0  0
  -23.3103  -27.0018   26.8398 N   0  3  0  0  0  0  0  0  0  0  0  0
  -31.5224  -11.5304   18.1967 O   0  0  0  0  0  0  0  0  0  0  0  0
  -30.7060  -22.1614   20.1433 O   0  0  0  0  0  0  0  0  0  0  0  0
  -26.2035  -32.1734   20.7797 O   0  0  0  0  0  0  0  0  0  0  0  0
  -23.3744  -32.0975   23.7934 O   0  0  0  0  0  0  0  0  0  0  0  0
  -25.5221  -28.3256   25.7119 O   0  0  0  0  0  0  0  0  0  0  0  0
  -23.8708  -15.8137   21.2543 O   0  0  0  0  0  0  0  0  0  0  0  0
  -28.3653   -4.7783   15.9545 O   0  0  0  0  0  0  0  0  0  0  0  0
  -28.3038  -26.4934   19.7742 O   0  0  0  0  0  0  0  0  0  1  0  0
  -32.7989   -1.5734   16.6444 F   0  0  0  0  0  0  0  0  0  0  0  0
  -28.1361   -2.2629   17.0783 F   0  0  0  0  0  0  0  0  0  0  0  0
  1  2  1  0  0  0  0
  1  6  2  0  0  0  0
  2  7  2  0  0  0  0
  3  9  1  0  0  0  0
  3 10  2  0  0  0  0
  4 11  2  0  0  0  0
  4 18  1  0  0  0  0
  5 12  1  0  0  0  0
  5 18  2  0  0  0  0
  6 20  1  0  0  0  0
  7 22  1  0  0  0  0
  8 13  2  0  0  0  0
  8 21  1  0  0  0  0
  9 24  2  0  0  0  0
 10 25  1  0  0  0  0
 11 27  1  0  0  0  0
 12 27  2  0  0  0  0
 13 28  1  0  0  0  0
 14 15  2  0  0  0  0
 14 29  1  0  0  0  0
 15 30  1  0  0  0  0
 16 23  1  0  0  0  0
 16 28  2  0  0  0  0
 17 30  2  0  0  0  0
 17 31  1  0  0  0  0
 18 32  1  0  0  0  0
 19 32  1  0  0  0  0
 19 33  2  0  0  0  0
 19 38  1  0  0  0  0
 20 22  2  0  0  0  0
 20 44  1  0  0  0  0
 21 23  2  0  0  0  0
 21 45  1  0  0  0  0
 22 53  1  0  0  0  0
 23 46  1  0  0  0  0
 24 26  1  0  0  0  0
 24 62  1  0  0  0  0
 25 26  2  0  0  0  0
 25 65  1  0  0  0  0
 26 56  1  0  0  0  0
 27 86  1  0  0  0  0
 28 87  1  0  0  0  0
 29 31  2  0  0  0  0
 29 86  1  0  0  0  0
 30 88  1  0  0  0  0
 31 89  1  0  0  0  0
 32 69  2  0  0  0  0
 33 70  1  0  0  0  0
 33 73  1  0  0  0  0
 34 36  2  0  0  0  0
 35 37  2  0  0  0  0
 35 39  1  0  0  0  0
 36 63  1  0  0  0  0
 37 64  1  0  0  0  0
 38 74  1  0  0  0  0
 38 80  2  0  0  0  0
 39 75  1  0  0  0  0
 39 81  2  0  0  0  0
 40 54  1  0  0  0  0
 40 76  1  0  0  0  0
 40 82  2  0  0  0  0
 41 66  1  0  0  0  0
 41 71  1  0  0  0  0
 41 83  2  0  0  0  0
 42 67  1  0  0  0  0
 42 77  1  0  0  0  0
 42 84  2  0  0  0  0
 43 72  1  0  0  0  0
 43 78  1  0  0  0  0
 43 85  2  0  0  0  0
 44 47  1  0  0  0  0
 45 54  1  0  0  0  0
 46 71  1  0  0  0  0
 47 49  1  0  0  0  0
 48 50  1  0  0  0  0
 48 51  1  0  0  0  0
 49 53  1  0  0  0  0
 50 55  1  0  0  0  0
 51 72  1  0  0  0  0
 52 55  1  0  0  0  0
 52 72  1  0  0  0  0
 53 76  1  0  0  0  0
 54 71  1  0  0  0  0
 55 70  1  0  0  0  0
 57 67  1  0  0  0  0
 58 68  1  0  0  0  0
 59 68  1  0  0  0  0
 60 68  1  0  0  0  0
 61 79  1  0  0  0  0
 62 75  1  0  0  0  0
 63 65  1  0  0  0  0
 64 87  1  0  0  0  0
 65 78  1  0  0  0  0
 66 68  1  0  0  0  0
 66 77  1  0  0  0  0
 67 79  1  0  0  0  0
 69 70  1  0  0  0  0
M  CHG  1  79   1
M  ISO  4  43 100  64 101  78 100  87 101
M  END
> <Batch ID>
0055

> <Smiles>
C=CCC([100NH:0][100C:0](=O)N1CCCC(n2nc(-c3ccc(Oc4ccc(F)cc4F)cc3)c(C(N)=O)c2N)C1)c1cccc(CNC(=O)C=C[101CH2:1][101O:1]c2ccc3c(c2)CN(C(=O)C(NC(=O)C(C)NC)C(C)(C)C)C(C(=O)NC2CCCc4ccccc42)C3)c1C

> <Shape>
0.229

> <Color>
0.100

> <Negative vol penalty>
0.000

$$$$

  -OEChem-04042322493D

 92101  0     1  0  0  0  0  0999 V2000
  -32.1203  -15.0214   20.5619 C   0  0  0  0  0  0  0  0  0  0  0  0
  -31.1095  -15.9768   20.5310 C   0  0  0  0  0  0  0  0  0  0  0  0
  -30.3052  -26.0840   21.7320 C   0  0  0  0  0  0  0  0  0  0  0  0
  -28.2656  -25.4295   20.6145 C   0  0  0  0  0  0  0  0  0  0  0  0
  -31.8224  -13.6844   20.3020 C   0  0  0  0  0  0  0  0  0  0  0  0
  -29.8002  -15.5958   20.2391 C   0  0  0  0  0  0  0  0  0  0  0  0
  -18.4910  -27.3200   23.0369 C   0  0  0  0  0  0  0  0  0  0  0  0
  -26.4183  -17.7238   23.3502 C   0  0  0  0  0  0  0  0  0  0  0  0
  -17.9181  -26.1106   22.6437 C   0  0  0  0  0  0  0  0  0  0  0  0
  -30.6707  -24.7431   21.8503 C   0  0  0  0  0  0  0  0  0  0  0  0
  -28.6311  -24.0886   20.7327 C   0  0  0  0  0  0  0  0  0  0  0  0
  -26.0779  -19.0537   23.1068 C   0  0  0  0  0  0  0  0  0  0  0  0
  -30.7079  -21.9277   19.1714 C   0  0  0  0  0  0  0  0  0  0  0  0
  -30.5491  -21.1130   18.0504 C   0  0  0  0  0  0  0  0  0  0  0  0
  -20.6733  -26.2833   23.0457 C   0  0  0  0  0  0  0  0  0  0  0  0
  -24.0574  -18.3288   22.0061 C   0  0  0  0  0  0  0  0  0  0  0  0
  -29.0382  -19.6961   19.2941 C   0  0  0  0  0  0  0  0  0  0  0  0
  -29.1026  -26.4272   21.1142 C   0  0  0  0  0  0  0  0  0  0  0  0
  -20.1003  -25.0738   22.6525 C   0  0  0  0  0  0  0  0  0  0  0  0
  -29.0258  -28.6854   19.9300 C   0  0  0  0  0  0  0  0  0  0  0  0
  -19.8687  -27.4064   23.2379 C   0  0  0  0  0  0  0  0  0  0  0  0
  -30.5072  -13.2853   20.0163 C   0  0  0  0  0  0  0  0  0  0  0  0
  -25.5848  -16.6843   22.9130 C   0  0  0  0  0  0  0  0  0  0  0  0
  -29.4847  -14.2523   19.9739 C   0  0  0  0  0  0  0  0  0  0  0  0
  -24.3883  -16.9867   22.2474 C   0  0  0  0  0  0  0  0  0  0  0  0
  -18.7227  -24.9875   22.4515 C   0  0  0  0  0  0  0  0  0  0  0  0
  -29.8336  -23.7454   21.3506 C   0  0  0  0  0  0  0  0  0  0  0  0
  -24.8987  -19.3563   22.4322 C   0  0  0  0  0  0  0  0  0  0  0  0
  -30.0320  -21.6266   20.3538 C   0  0  0  0  0  0  0  0  0  0  0  0
  -29.7142  -19.9973   18.1117 C   0  0  0  0  0  0  0  0  0  0  0  0
  -29.1971  -20.5108   20.4152 C   0  0  0  0  0  0  0  0  0  0  0  0
  -28.7242  -27.8122   20.9922 C   0  0  0  0  0  0  0  0  0  0  0  0
  -28.4453  -29.8771   20.2899 C   0  0  0  0  0  0  0  0  0  0  0  0
  -21.7145  -28.5559   24.5545 C   0  0  0  0  0  0  0  0  0  0  0  0
  -20.2715  -27.2724   27.6780 C   0  0  0  0  0  0  0  0  0  0  0  0
  -21.6155  -28.1155   25.8192 C   0  0  0  0  0  0  0  0  0  0  0  0
  -20.3695  -27.7110   26.4180 C   0  0  0  0  0  0  0  0  0  0  0  0
  -20.9634  -23.9165   22.4590 C   0  0  0  0  0  0  0  0  0  0  0  0
  -29.7645  -28.4413   18.7257 C   0  0  0  0  0  0  0  0  0  0  0  0
  -25.9067  -14.2486   20.8962 C   0  0  0  0  0  0  0  0  0  0  0  0
  -22.9698  -13.4425   22.0130 C   0  0  0  0  0  0  0  0  0  0  0  0
  -20.0496  -14.4412   23.4696 C   0  0  0  0  0  0  0  0  0  0  0  0
  -23.9111  -31.3535   23.7526 C   0  0  0  0  0  0  0  0  0  0  0  0
  -30.2419  -11.8357   19.6955 C   0  0  0  0  0  0  0  0  0  0  0  0
  -25.9530  -15.2558   23.2068 C   0  0  0  0  0  0  0  0  0  0  0  0
  -23.4491  -15.9081   21.7752 C   0  0  0  0  0  0  0  0  0  0  0  0
  -23.0379  -28.9703   23.9640 C   0  0  0  0  0  0  0  0  0  0  0  0
  -28.7645  -11.4574   19.7632 C   0  0  0  0  0  0  0  0  0  0  0  0
  -27.1872  -32.4356   24.1199 C   0  0  0  0  0  0  0  0  0  0  0  0
  -27.9143  -12.4928   19.0338 C   0  0  0  0  0  0  0  0  0  0  0  0
  -27.9955  -31.4606   23.2654 C   0  0  0  0  0  0  0  0  0  0  0  0
  -20.8098  -29.6127   22.4466 C   0  0  0  0  0  0  0  0  0  0  0  0
  -26.0842  -31.7077   24.8786 C   0  0  0  0  0  0  0  0  0  0  0  0
  -21.6988  -30.7846   22.8473 C   0  0  0  0  0  0  0  0  0  0  0  0
  -25.9394  -29.9658   23.1267 C   0  0  0  0  0  0  0  0  0  0  0  0
  -20.4924  -28.7243   23.6663 C   0  0  1  0  0  0  0  0  0  0  0  0
  -28.0480  -13.8744   19.6855 C   0  0  1  0  0  0  0  0  0  0  0  0
  -25.2845  -14.2603   22.2638 C   0  0  1  0  0  0  0  0  0  0  0  0
  -27.0746  -30.6498   22.3375 C   0  0  2  0  0  0  0  0  0  0  0  0
  -18.0829  -23.7049   22.0303 C   0  0  0  0  0  0  0  0  0  0  0  0
  -17.8224  -13.5631   24.2218 C   0  0  0  0  0  0  0  0  0  0  0  0
  -22.0305  -13.3462   19.1115 C   0  0  0  0  0  0  0  0  0  0  0  0
  -19.6710  -13.4139   19.9461 C   0  0  0  0  0  0  0  0  0  0  0  0
  -21.1528  -11.5014   20.5539 C   0  0  0  0  0  0  0  0  0  0  0  0
  -20.5673  -15.2062   26.2813 C   0  0  0  0  0  0  0  0  0  0  0  0
  -24.0313  -22.7907   23.1543 C   0  0  0  0  0  0  0  0  0  0  0  0
  -22.6169  -22.3673   23.5271 C   0  0  0  0  0  0  0  0  0  0  0  0
  -25.0132  -21.6255   23.1346 C   0  0  0  0  0  0  0  0  0  1  0  0
  -21.5494  -13.7622   21.6138 C   0  0  1  0  0  0  0  0  0  0  0  0
  -19.2552  -13.8686   24.6296 C   0  0  2  0  0  0  0  0  0  0  0  0
  -21.1194  -13.0264   20.3134 C   0  0  0  0  0  0  0  0  0  0  0  0
  -28.0079  -28.3990   21.9548 N   0  0  0  0  0  0  0  0  0  0  0  0
  -27.8546  -29.6539   21.4988 N   0  0  0  0  0  0  0  0  0  0  0  0
  -23.8562  -14.5266   22.0808 N   0  0  0  0  0  0  0  0  0  0  0  0
  -22.9578  -30.3587   23.4708 N   0  0  0  0  0  0  0  0  0  0  0  0
  -25.2318  -30.9392   23.9713 N   0  0  0  0  0  0  0  0  0  0  0  0
  -28.3876  -31.0836   19.6870 N   0  0  0  0  0  0  0  0  0  0  0  0
  -30.2925  -27.1604   18.5139 N   0  0  0  0  0  0  0  0  0  0  0  0
  -21.7007  -23.4844   23.5662 N   0  0  0  0  0  0  0  0  0  0  0  0
  -27.2541  -13.9422   20.8937 N   0  0  0  0  0  0  0  0  0  0  0  0
  -20.7206  -13.4570   22.7750 N   0  0  0  0  0  0  0  0  0  0  0  0
  -19.2252  -14.8349   25.7638 N   0  3  0  0  0  0  0  0  0  0  0  0
  -21.0402  -23.3682   21.3465 O   0  0  0  0  0  0  0  0  0  0  0  0
  -29.9649  -29.3370   17.8708 O   0  0  0  0  0  0  0  0  0  0  0  0
  -25.2151  -14.4976   19.9156 O   0  0  0  0  0  0  0  0  0  0  0  0
  -23.2796  -12.2748   22.2625 O   0  0  0  0  0  0  0  0  0  0  0  0
  -20.0696  -15.6409   23.2038 O   0  0  0  0  0  0  0  0  0  0  0  0
  -23.5912  -32.5477   23.8185 O   0  0  0  0  0  0  0  0  0  0  0  0
  -30.1901  -22.4368   21.4656 O   0  0  0  0  0  0  0  0  0  0  0  0
  -24.5620  -20.6628   22.1910 O   0  0  0  0  0  0  0  0  0  1  0  0
  -29.5606  -19.2159   17.0347 F   0  0  0  0  0  0  0  0  0  0  0  0
  -28.5442  -20.2172   21.5480 F   0  0  0  0  0  0  0  0  0  0  0  0
  1  2  1  0  0  0  0
  1  5  2  0  0  0  0
  2  6  2  0  0  0  0
  3 10  2  0  0  0  0
  3 18  1  0  0  0  0
  4 11  1  0  0  0  0
  4 18  2  0  0  0  0
  5 22  1  0  0  0  0
  6 24  1  0  0  0  0
  7  9  2  0  0  0  0
  7 21  1  0  0  0  0
  8 12  2  0  0  0  0
  8 23  1  0  0  0  0
  9 26  1  0  0  0  0
 10 27  1  0  0  0  0
 11 27  2  0  0  0  0
 12 28  1  0  0  0  0
 13 14  2  0  0  0  0
 13 29  1  0  0  0  0
 14 30  1  0  0  0  0
 15 19  1  0  0  0  0
 15 21  2  0  0  0  0
 16 25  1  0  0  0  0
 16 28  2  0  0  0  0
 17 30  2  0  0  0  0
 17 31  1  0  0  0  0
 18 32  1  0  0  0  0
 19 26  2  0  0  0  0
 19 38  1  0  0  0  0
 20 32  1  0  0  0  0
 20 33  2  0  0  0  0
 20 39  1  0  0  0  0
 21 56  1  0  0  0  0
 22 24  2  0  0  0  0
 22 44  1  0  0  0  0
 23 25  2  0  0  0  0
 23 45  1  0  0  0  0
 24 57  1  0  0  0  0
 25 46  1  0  0  0  0
 26 60  1  0  0  0  0
 27 89  1  0  0  0  0
 28 90  1  0  0  0  0
 29 31  2  0  0  0  0
 29 89  1  0  0  0  0
 30 91  1  0  0  0  0
 31 92  1  0  0  0  0
 32 72  2  0  0  0  0
 33 73  1  0  0  0  0
 33 77  1  0  0  0  0
 34 36  2  0  0  0  0
 34 47  1  0  0  0  0
 34 56  1  0  0  0  0
 35 37  2  0  0  0  0
 36 37  1  0  0  0  0
 38 79  1  0  0  0  0
 38 83  2  0  0  0  0
 39 78  1  0  0  0  0
 39 84  2  0  0  0  0
 40 58  1  0  0  0  0
 40 80  1  0  0  0  0
 40 85  2  0  0  0  0
 41 69  1  0  0  0  0
 41 74  1  0  0  0  0
 41 86  2  0  0  0  0
 42 70  1  0  0  0  0
 42 81  1  0  0  0  0
 42 87  2  0  0  0  0
 43 75  1  0  0  0  0
 43 76  1  0  0  0  0
 43 88  2  0  0  0  0
 44 48  1  0  0  0  0
 45 58  1  0  0  0  0
 46 74  1  0  0  0  0
 47 75  1  0  0  0  0
 48 50  1  0  0  0  0
 49 51  1  0  0  0  0
 49 53  1  0  0  0  0
 50 57  1  0  0  0  0
 51 59  1  0  0  0  0
 52 54  1  0  0  0  0
 52 56  1  0  0  0  0
 53 76  1  0  0  0  0
 54 75  1  0  0  0  0
 55 59  1  0  0  0  0
 55 76  1  0  0  0  0
 57 80  1  0  0  0  0
 58 74  1  0  0  0  0
 59 73  1  0  0  0  0
 61 70  1  0  0  0  0
 62 71  1  0  0  0  0
 63 71  1  0  0  0  0
 64 71  1  0  0  0  0
 65 82  1  0  0  0  0
 66 67  1  0  0  0  0
 66 68  1  0  0  0  0
 67 79  1  0  0  0  0
 68 90  1  0  0  0  0
 69 71  1  0  0  0  0
 69 81  1  0  0  0  0
 70 82  1  0  0  0  0
 72 73  1  0  0  0  0
M  CHG  1  82   1
M  ISO  4  43 100  68 101  75 100  90 101
M  END
> <Batch ID>
0055

> <Smiles>
C=CC=C1C[100N:0]([100C:0](=O)N2CCCC(n3nc(-c4ccc(Oc5ccc(F)cc5F)cc4)c(C(N)=O)c3N)C2)CCC1c1ccc(C)c(C(=O)NCC[101CH2:1][101O:1]c2ccc3c(c2)CN(C(=O)C(NC(=O)C(C)NC)C(C)(C)C)C(C(=O)NC2CCCc4ccccc42)C3)c1

> <Shape>
0.265

> <Color>
0.045

> <Negative vol penalty>
0.000

$$$$

  -OEChem-04042322493D

 86 94  0     1  0  0  0  0  0999 V2000
  -30.5556  -25.4747   17.6171 C   0  0  0  0  0  0  0  0  0  0  0  0
  -29.1656  -25.4662   17.6741 C   0  0  0  0  0  0  0  0  0  0  0  0
  -28.3430  -18.8990   22.9960 C   0  0  0  0  0  0  0  0  0  0  0  0
  -27.1941  -20.5471   21.6539 C   0  0  0  0  0  0  0  0  0  0  0  0
  -31.2931  -25.9725   18.6905 C   0  0  0  0  0  0  0  0  0  0  0  0
  -28.5123  -25.9546   18.8050 C   0  0  0  0  0  0  0  0  0  0  0  0
  -23.1637  -28.9331   18.9681 C   0  0  0  0  0  0  0  0  0  0  0  0
  -16.8407  -20.1701   22.1340 C   0  0  0  0  0  0  0  0  0  0  0  0
  -17.8517  -19.8296   23.0326 C   0  0  0  0  0  0  0  0  0  0  0  0
  -29.1744  -18.5997   21.9167 C   0  0  0  0  0  0  0  0  0  0  0  0
  -28.0255  -20.2478   20.5747 C   0  0  0  0  0  0  0  0  0  0  0  0
  -21.8638  -28.5124   19.2459 C   0  0  0  0  0  0  0  0  0  0  0  0
  -31.3645  -17.1483   19.4027 C   0  0  0  0  0  0  0  0  0  0  0  0
  -31.6032  -15.8035   19.1194 C   0  0  0  0  0  0  0  0  0  0  0  0
  -22.1265  -29.2313   21.5336 C   0  0  0  0  0  0  0  0  0  0  0  0
  -29.2372  -15.4562   18.7746 C   0  0  0  0  0  0  0  0  0  0  0  0
  -27.3528  -19.8727   22.8646 C   0  0  0  0  0  0  0  0  0  0  0  0
  -26.7121  -21.1487   24.9785 C   0  0  0  0  0  0  0  0  0  0  0  0
  -30.6482  -26.4761   19.8312 C   0  0  0  0  0  0  0  0  0  0  0  0
  -23.9598  -29.4971   19.9753 C   0  0  0  0  0  0  0  0  0  0  0  0
  -29.2418  -26.4584   19.8953 C   0  0  0  0  0  0  0  0  0  0  0  0
  -23.4353  -29.6608   21.2653 C   0  0  0  0  0  0  0  0  0  0  0  0
  -16.9852  -21.2882   21.3126 C   0  0  0  0  0  0  0  0  0  0  0  0
  -18.1406  -22.0658   21.3900 C   0  0  0  0  0  0  0  0  0  0  0  0
  -19.1515  -21.7254   22.2887 C   0  0  0  0  0  0  0  0  0  0  0  0
  -19.0071  -20.6072   23.1100 C   0  0  0  0  0  0  0  0  0  0  0  0
  -29.0157  -19.2741   20.7061 C   0  0  0  0  0  0  0  0  0  0  0  0
  -21.3461  -28.6588   20.5295 C   0  0  0  0  0  0  0  0  0  0  0  0
  -30.0622  -17.6470   19.3720 C   0  0  0  0  0  0  0  0  0  0  0  0
  -30.5396  -14.9575   18.8053 C   0  0  0  0  0  0  0  0  0  0  0  0
  -28.9986  -16.8010   19.0579 C   0  0  0  0  0  0  0  0  0  0  0  0
  -26.4933  -20.1819   23.9789 C   0  0  0  0  0  0  0  0  0  0  0  0
  -25.6135  -21.0508   25.7972 C   0  0  0  0  0  0  0  0  0  0  0  0
  -27.8100  -22.0544   25.1516 C   0  0  0  0  0  0  0  0  0  0  0  0
  -26.7093  -28.7127   21.3641 C   0  0  0  0  0  0  0  0  0  0  0  0
  -26.3511  -31.5934   22.8117 C   0  0  0  0  0  0  0  0  0  0  0  0
  -19.0667  -25.5159   21.3029 C   0  0  0  0  0  0  0  0  0  0  0  0
  -24.2501  -34.0813   23.8329 C   0  0  0  0  0  0  0  0  0  0  0  0
  -20.0156  -19.1594   24.9081 C   0  0  0  0  0  0  0  0  0  0  0  0
  -31.4889  -26.9603   20.9860 C   0  0  0  0  0  0  0  0  0  0  0  0
  -25.3507  -29.9704   19.6529 C   0  0  0  0  0  0  0  0  0  0  0  0
  -24.2420  -30.2788   22.3769 C   0  0  0  0  0  0  0  0  0  0  0  0
  -30.7121  -27.8049   21.9928 C   0  0  0  0  0  0  0  0  0  0  0  0
  -22.3330  -17.9028   27.3013 C   0  0  0  0  0  0  0  0  0  0  0  0
  -29.3843  -27.1380   22.3373 C   0  0  0  0  0  0  0  0  0  0  0  0
  -23.6820  -18.4377   26.8153 C   0  0  0  0  0  0  0  0  0  0  0  0
  -21.4218  -17.5197   26.1365 C   0  0  0  0  0  0  0  0  0  0  0  0
  -22.5736  -19.1063   24.6447 C   0  0  0  0  0  0  0  0  0  0  0  0
  -28.4962  -27.0024   21.0945 C   0  0  1  0  0  0  0  0  0  0  0  0
  -26.2512  -30.0597   20.8811 C   0  0  1  0  0  0  0  0  0  0  0  0
  -23.5013  -19.5662   25.7812 C   0  0  2  0  0  0  0  0  0  0  0  0
  -15.8875  -21.6305   20.3591 C   0  0  0  0  0  0  0  0  0  0  0  0
  -20.3906  -22.5613   22.3700 C   0  0  0  0  0  0  0  0  0  0  0  0
  -24.2451  -36.2910   25.0224 C   0  0  0  0  0  0  0  0  0  0  0  0
  -26.6964  -30.1548   25.4803 C   0  0  0  0  0  0  0  0  0  0  0  0
  -25.7528  -32.1781   26.6137 C   0  0  0  0  0  0  0  0  0  0  0  0
  -27.8782  -32.3530   25.3195 C   0  0  0  0  0  0  0  0  0  0  0  0
  -16.7949  -24.6445   21.8948 C   0  0  0  0  0  0  0  0  0  0  0  0
  -23.1682  -35.4858   21.4631 C   0  0  0  0  0  0  0  0  0  0  0  0
  -18.2932  -23.2687   20.5045 C   0  0  0  0  0  0  0  0  0  0  0  0
  -18.7018  -26.7600   22.1062 C   0  0  0  0  0  0  0  0  0  0  0  0
  -19.8125  -27.8024   22.1328 C   0  0  0  0  0  0  0  0  0  1  0  0
  -25.6917  -32.0776   24.0805 C   0  0  1  0  0  0  0  0  0  0  0  0
  -24.3232  -35.5894   23.6753 C   0  0  2  0  0  0  0  0  0  0  0  0
  -26.4900  -31.6774   25.3533 C   0  0  0  0  0  0  0  0  0  0  0  0
  -25.3461  -19.5185   24.1454 N   0  0  0  0  0  0  0  0  0  0  0  0
  -24.8341  -20.0693   25.2593 N   0  0  0  0  0  0  0  0  0  0  0  0
  -25.5987  -30.7201   22.0135 N   0  0  0  0  0  0  0  0  0  0  0  0
  -21.2939  -18.6385   25.2002 N   0  0  0  0  0  0  0  0  0  0  0  0
  -25.2480  -21.7093   26.9175 N   0  0  0  0  0  0  0  0  0  0  0  0
  -28.8556  -22.0227   24.2189 N   0  0  0  0  0  0  0  0  0  0  0  0
  -20.0212  -20.2427   24.0300 N   0  0  0  0  0  0  0  0  0  0  0  0
  -27.8783  -28.2712   20.7740 N   0  0  0  0  0  0  0  0  0  0  0  0
  -25.5045  -33.5155   23.9201 N   0  0  0  0  0  0  0  0  0  0  0  0
  -18.0896  -24.5164   21.2372 N   0  0  0  0  0  0  0  0  0  0  0  0
  -23.1998  -36.0765   22.8259 N   0  3  0  0  0  0  0  0  0  0  0  0
  -27.8702  -22.8563   26.1143 O   0  0  0  0  0  0  0  0  0  0  0  0
  -26.0519  -28.1186   22.2105 O   0  0  0  0  0  0  0  0  0  0  0  0
  -27.4889  -31.9814   22.5354 O   0  0  0  0  0  0  0  0  0  0  0  0
  -20.1674  -25.4249   20.7530 O   0  0  0  0  0  0  0  0  0  0  0  0
  -23.1865  -33.4671   23.8781 O   0  0  0  0  0  0  0  0  0  0  0  0
  -18.9936  -18.6971   25.4217 O   0  0  0  0  0  0  0  0  0  0  0  0
  -29.8269  -18.9825   19.6528 O   0  0  0  0  0  0  0  0  0  0  0  0
  -20.0779  -28.2484   20.8035 O   0  0  0  0  0  0  0  0  0  1  0  0
  -30.7691  -13.6665   18.5317 F   0  0  0  0  0  0  0  0  0  0  0  0
  -27.7454  -17.2747   19.0257 F   0  0  0  0  0  0  0  0  0  0  0  0
  1  2  1  0  0  0  0
  1  5  2  0  0  0  0
  2  6  2  0  0  0  0
  3 10  2  0  0  0  0
  3 17  1  0  0  0  0
  4 11  1  0  0  0  0
  4 17  2  0  0  0  0
  5 19  1  0  0  0  0
  6 21  1  0  0  0  0
  7 12  2  0  0  0  0
  7 20  1  0  0  0  0
  8  9  1  0  0  0  0
  8 23  2  0  0  0  0
  9 26  2  0  0  0  0
 10 27  1  0  0  0  0
 11 27  2  0  0  0  0
 12 28  1  0  0  0  0
 13 14  2  0  0  0  0
 13 29  1  0  0  0  0
 14 30  1  0  0  0  0
 15 22  1  0  0  0  0
 15 28  2  0  0  0  0
 16 30  2  0  0  0  0
 16 31  1  0  0  0  0
 17 32  1  0  0  0  0
 18 32  1  0  0  0  0
 18 33  2  0  0  0  0
 18 34  1  0  0  0  0
 19 21  2  0  0  0  0
 19 40  1  0  0  0  0
 20 22  2  0  0  0  0
 20 41  1  0  0  0  0
 21 49  1  0  0  0  0
 22 42  1  0  0  0  0
 23 24  1  0  0  0  0
 23 52  1  0  0  0  0
 24 25  2  0  0  0  0
 24 60  1  0  0  0  0
 25 26  1  0  0  0  0
 25 53  1  0  0  0  0
 26 72  1  0  0  0  0
 27 83  1  0  0  0  0
 28 84  1  0  0  0  0
 29 31  2  0  0  0  0
 29 83  1  0  0  0  0
 30 85  1  0  0  0  0
 31 86  1  0  0  0  0
 32 66  2  0  0  0  0
 33 67  1  0  0  0  0
 33 70  1  0  0  0  0
 34 71  1  0  0  0  0
 34 77  2  0  0  0  0
 35 50  1  0  0  0  0
 35 73  1  0  0  0  0
 35 78  2  0  0  0  0
 36 63  1  0  0  0  0
 36 68  1  0  0  0  0
 36 79  2  0  0  0  0
 37 61  1  0  0  0  0
 37 75  1  0  0  0  0
 37 80  2  0  0  0  0
 38 64  1  0  0  0  0
 38 74  1  0  0  0  0
 38 81  2  0  0  0  0
 39 69  1  0  0  0  0
 39 72  1  0  0  0  0
 39 82  2  0  0  0  0
 40 43  1  0  0  0  0
 41 50  1  0  0  0  0
 42 68  1  0  0  0  0
 43 45  1  0  0  0  0
 44 46  1  0  0  0  0
 44 47  1  0  0  0  0
 45 49  1  0  0  0  0
 46 51  1  0  0  0  0
 47 69  1  0  0  0  0
 48 51  1  0  0  0  0
 48 69  1  0  0  0  0
 49 73  1  0  0  0  0
 50 68  1  0  0  0  0
 51 67  1  0  0  0  0
 54 64  1  0  0  0  0
 55 65  1  0  0  0  0
 56 65  1  0  0  0  0
 57 65  1  0  0  0  0
 58 75  1  0  0  0  0
 59 76  1  0  0  0  0
 60 75  1  0  0  0  0
 61 62  1  0  0  0  0
 62 84  1  0  0  0  0
 63 65  1  0  0  0  0
 63 74  1  0  0  0  0
 64 76  1  0  0  0  0
 66 67  1  0  0  0  0
M  CHG  1  76   1
M  ISO  4  39 100  62 101  72 100  84 101
M  END
> <Batch ID>
0055

> <Smiles>
CNC(C)C(=O)NC(C(=O)N1Cc2cc([101O:1][101CH2:1]CC(=O)N(C)Cc3c(C)ccc([100NH:0][100C:0](=O)N4CCCC(n5nc(-c6ccc(Oc7ccc(F)cc7F)cc6)c(C(N)=O)c5N)C4)c3C)ccc2CC1C(=O)NC1CCCc2ccccc21)C(C)(C)C

> <Shape>
0.251

> <Color>
0.058

> <Negative vol penalty>
0.000

$$$$

  -OEChem-04042322493D

 84 92  0     1  0  0  0  0  0999 V2000
  -25.9060  -38.3963   22.2655 C   0  0  0  0  0  0  0  0  0  0  0  0
  -26.5229  -37.4932   21.4058 C   0  0  0  0  0  0  0  0  0  0  0  0
  -22.5762  -12.7242   22.7448 C   0  0  0  0  0  0  0  0  0  0  0  0
  -22.0163  -14.3495   21.0472 C   0  0  0  0  0  0  0  0  0  0  0  0
  -25.3715  -37.9525   23.4744 C   0  0  0  0  0  0  0  0  0  0  0  0
  -26.6067  -36.1458   21.7549 C   0  0  0  0  0  0  0  0  0  0  0  0
  -26.5970  -29.6086   18.8256 C   0  0  0  0  0  0  0  0  0  0  0  0
  -29.5454  -19.8077   19.2504 C   0  0  0  0  0  0  0  0  0  0  0  0
  -21.3543  -12.9608   23.3744 C   0  0  0  0  0  0  0  0  0  0  0  0
  -20.7943  -14.5861   21.6768 C   0  0  0  0  0  0  0  0  0  0  0  0
  -27.3450  -28.4321   18.8147 C   0  0  0  0  0  0  0  0  0  0  0  0
  -18.1201  -12.0701   22.9507 C   0  0  0  0  0  0  0  0  0  0  0  0
  -17.3843  -10.9636   23.3747 C   0  0  0  0  0  0  0  0  0  0  0  0
  -29.5381  -21.1223   18.7843 C   0  0  0  0  0  0  0  0  0  0  0  0
  -26.3161  -27.7658   20.8924 C   0  0  0  0  0  0  0  0  0  0  0  0
  -27.6400  -20.6135   17.3788 C   0  0  0  0  0  0  0  0  0  0  0  0
  -17.4901  -11.7656   25.6513 C   0  0  0  0  0  0  0  0  0  0  0  0
  -22.9073  -13.4186   21.5812 C   0  0  0  0  0  0  0  0  0  0  0  0
  -24.4404  -12.2229   19.9296 C   0  0  0  0  0  0  0  0  0  0  0  0
  -25.4401  -36.5973   23.8341 C   0  0  0  0  0  0  0  0  0  0  0  0
  -25.7094  -29.8780   19.8773 C   0  0  0  0  0  0  0  0  0  0  0  0
  -26.0738  -35.6836   22.9703 C   0  0  0  0  0  0  0  0  0  0  0  0
  -25.5561  -28.9453   20.9130 C   0  0  0  0  0  0  0  0  0  0  0  0
  -27.6473  -19.2989   17.8449 C   0  0  0  0  0  0  0  0  0  0  0  0
  -28.6000  -18.8959   18.7807 C   0  0  0  0  0  0  0  0  0  0  0  0
  -20.4633  -13.8918   22.8404 C   0  0  0  0  0  0  0  0  0  0  0  0
  -27.2067  -27.5118   19.8497 C   0  0  0  0  0  0  0  0  0  0  0  0
  -18.5410  -13.0244   23.8770 C   0  0  0  0  0  0  0  0  0  0  0  0
  -17.0693  -10.8113   24.7249 C   0  0  0  0  0  0  0  0  0  0  0  0
  -18.2260  -12.8721   25.2272 C   0  0  0  0  0  0  0  0  0  0  0  0
  -28.5854  -21.5253   17.8486 C   0  0  0  0  0  0  0  0  0  0  0  0
  -24.1697  -13.1750   20.9307 C   0  0  0  0  0  0  0  0  0  0  0  0
  -25.7744  -12.3901   19.6486 C   0  0  0  0  0  0  0  0  0  0  0  0
  -23.5643  -11.2725   19.3093 C   0  0  0  0  0  0  0  0  0  0  0  0
  -25.4825  -32.1425   22.0964 C   0  0  0  0  0  0  0  0  0  0  0  0
  -22.6843  -30.6496   22.7775 C   0  0  0  0  0  0  0  0  0  0  0  0
  -20.8206  -27.7932   22.6582 C   0  0  0  0  0  0  0  0  0  0  0  0
  -29.5120  -17.0202   20.1936 C   0  0  0  0  0  0  0  0  0  0  0  0
  -24.8900  -36.1728   25.1727 C   0  0  0  0  0  0  0  0  0  0  0  0
  -24.8901  -31.1393   19.8606 C   0  0  0  0  0  0  0  0  0  0  0  0
  -24.6019  -29.1779   22.0548 C   0  0  0  0  0  0  0  0  0  0  0  0
  -24.6881  -34.6649   25.2977 C   0  0  0  0  0  0  0  0  0  0  0  0
  -29.8793  -13.8017   21.6712 C   0  0  0  0  0  0  0  0  0  0  0  0
  -25.9163  -33.9177   24.7876 C   0  0  0  0  0  0  0  0  0  0  0  0
  -28.4829  -13.1867   21.5524 C   0  0  0  0  0  0  0  0  0  0  0  0
  -29.8162  -15.3003   21.9611 C   0  0  0  0  0  0  0  0  0  0  0  0
  -27.5939  -15.4637   20.9105 C   0  0  0  0  0  0  0  0  0  0  0  0
  -26.1623  -34.2099   23.3025 C   0  0  1  0  0  0  0  0  0  0  0  0
  -24.3961  -31.5493   21.2446 C   0  0  1  0  0  0  0  0  0  0  0  0
  -27.6061  -13.9682   20.5544 C   0  0  2  0  0  0  0  0  0  0  0  0
  -26.6234  -18.3434   17.3238 C   0  0  0  0  0  0  0  0  0  0  0  0
  -18.5857  -26.8698   23.3290 C   0  0  0  0  0  0  0  0  0  0  0  0
  -23.6329  -30.4629   25.6715 C   0  0  0  0  0  0  0  0  0  0  0  0
  -21.8570  -28.7435   26.0694 C   0  0  0  0  0  0  0  0  0  0  0  0
  -21.2196  -31.0608   25.4012 C   0  0  0  0  0  0  0  0  0  0  0  0
  -20.0854  -27.2182   19.8497 C   0  0  0  0  0  0  0  0  0  0  0  0
  -27.8935  -23.9589   19.8146 C   0  0  0  0  0  0  0  0  0  0  0  0
  -27.3533  -25.2194   20.4655 C   0  0  0  0  0  0  0  0  0  1  0  0
  -22.2689  -29.5221   23.6914 C   0  0  1  0  0  0  0  0  0  0  0  0
  -19.3871  -27.5431   22.2257 C   0  0  2  0  0  0  0  0  0  0  0  0
  -22.2641  -29.9436   25.1880 C   0  0  0  0  0  0  0  0  0  0  0  0
  -25.2453  -13.8936   21.2633 N   0  0  0  0  0  0  0  0  0  0  0  0
  -26.2049  -13.3928   20.4667 N   0  0  0  0  0  0  0  0  0  0  0  0
  -23.8277  -30.4288   21.9967 N   0  0  0  0  0  0  0  0  0  0  0  0
  -28.9720  -15.9755   20.9731 N   0  0  0  0  0  0  0  0  0  0  0  0
  -26.6094  -11.7757   18.7839 N   0  0  0  0  0  0  0  0  0  0  0  0
  -22.2237  -11.2346   19.7162 N   0  0  0  0  0  0  0  0  0  0  0  0
  -28.6252  -17.5647   19.2653 N   0  0  0  0  0  0  0  0  0  0  0  0
  -25.2468  -33.4492   22.4793 N   0  0  0  0  0  0  0  0  0  0  0  0
  -20.9788  -29.0517   23.1989 N   0  0  0  0  0  0  0  0  0  0  0  0
  -27.5464  -23.9527   18.3749 N   0  0  0  0  0  0  0  0  0  0  0  0
  -19.3550  -26.6674   21.0203 N   0  3  0  0  0  0  0  0  0  0  0  0
  -23.9625  -10.4691   18.4320 O   0  0  0  0  0  0  0  0  0  0  0  0
  -26.4612  -31.4645   22.3861 O   0  0  0  0  0  0  0  0  0  0  0  0
  -22.0147  -31.6853   22.7519 O   0  0  0  0  0  0  0  0  0  0  0  0
  -21.7102  -26.9546   22.5326 O   0  0  0  0  0  0  0  0  0  0  0  0
  -30.6836  -17.3853   20.3200 O   0  0  0  0  0  0  0  0  0  0  0  0
  -29.9187  -23.7235   17.4012 O   0  0  0  0  0  0  0  0  0  0  0  0
  -27.9317  -23.1771   15.9598 O   0  0  0  0  0  0  0  0  0  0  0  0
  -19.2707  -14.1228   23.4543 O   0  0  0  0  0  0  0  0  0  0  0  0
  -27.9361  -26.3630   19.8419 O   0  0  0  0  0  0  0  0  0  1  0  0
  -16.3614   -9.7494   25.1317 F   0  0  0  0  0  0  0  0  0  0  0  0
  -18.6265  -13.7861   26.1216 F   0  0  0  0  0  0  0  0  0  0  0  0
  -28.5768  -23.1916   17.2587 S   0  0  0  0  0  0  0  0  0  0  0  0
  1  2  1  0  0  0  0
  1  5  2  0  0  0  0
  2  6  2  0  0  0  0
  3  9  2  0  0  0  0
  3 18  1  0  0  0  0
  4 10  1  0  0  0  0
  4 18  2  0  0  0  0
  5 20  1  0  0  0  0
  6 22  1  0  0  0  0
  7 11  2  0  0  0  0
  7 21  1  0  0  0  0
  8 14  2  0  0  0  0
  8 25  1  0  0  0  0
  9 26  1  0  0  0  0
 10 26  2  0  0  0  0
 11 27  1  0  0  0  0
 12 13  2  0  0  0  0
 12 28  1  0  0  0  0
 13 29  1  0  0  0  0
 14 31  1  0  0  0  0
 15 23  1  0  0  0  0
 15 27  2  0  0  0  0
 16 24  1  0  0  0  0
 16 31  2  0  0  0  0
 17 29  2  0  0  0  0
 17 30  1  0  0  0  0
 18 32  1  0  0  0  0
 19 32  1  0  0  0  0
 19 33  2  0  0  0  0
 19 34  1  0  0  0  0
 20 22  2  0  0  0  0
 20 39  1  0  0  0  0
 21 23  2  0  0  0  0
 21 40  1  0  0  0  0
 22 48  1  0  0  0  0
 23 41  1  0  0  0  0
 24 25  2  0  0  0  0
 24 51  1  0  0  0  0
 25 68  1  0  0  0  0
 26 80  1  0  0  0  0
 27 81  1  0  0  0  0
 28 30  2  0  0  0  0
 28 80  1  0  0  0  0
 29 82  1  0  0  0  0
 30 83  1  0  0  0  0
 31 84  1  0  0  0  0
 32 62  2  0  0  0  0
 33 63  1  0  0  0  0
 33 66  1  0  0  0  0
 34 67  1  0  0  0  0
 34 73  2  0  0  0  0
 35 49  1  0  0  0  0
 35 69  1  0  0  0  0
 35 74  2  0  0  0  0
 36 59  1  0  0  0  0
 36 64  1  0  0  0  0
 36 75  2  0  0  0  0
 37 60  1  0  0  0  0
 37 70  1  0  0  0  0
 37 76  2  0  0  0  0
 38 65  1  0  0  0  0
 38 68  1  0  0  0  0
 38 77  2  0  0  0  0
 39 42  1  0  0  0  0
 40 49  1  0  0  0  0
 41 64  1  0  0  0  0
 42 44  1  0  0  0  0
 43 45  1  0  0  0  0
 43 46  1  0  0  0  0
 44 48  1  0  0  0  0
 45 50  1  0  0  0  0
 46 65  1  0  0  0  0
 47 50  1  0  0  0  0
 47 65  1  0  0  0  0
 48 69  1  0  0  0  0
 49 64  1  0  0  0  0
 50 63  1  0  0  0  0
 52 60  1  0  0  0  0
 53 61  1  0  0  0  0
 54 61  1  0  0  0  0
 55 61  1  0  0  0  0
 56 72  1  0  0  0  0
 57 58  1  0  0  0  0
 57 71  1  0  0  0  0
 58 81  1  0  0  0  0
 59 61  1  0  0  0  0
 59 70  1  0  0  0  0
 60 72  1  0  0  0  0
 62 63  1  0  0  0  0
 71 84  1  0  0  0  0
 78 84  2  0  0  0  0
 79 84  2  0  0  0  0
M  CHG  1  72   1
M  ISO  4  38 100  58 101  68 100  81 101
M  END
> <Batch ID>
0055

> <Smiles>
CNC(C)C(=O)NC(C(=O)N1Cc2cc([101O:1][101CH2:1]CNS(=O)(=O)c3ccc([100NH:0][100C:0](=O)N4CCCC(n5nc(-c6ccc(Oc7ccc(F)cc7F)cc6)c(C(N)=O)c5N)C4)c(C)c3)ccc2CC1C(=O)NC1CCCc2ccccc21)C(C)(C)C

> <Shape>
0.307

> <Color>
0.085

> <Negative vol penalty>
0.000

$$$$

  -OEChem-04042322493D

 91 99  0     1  0  0  0  0  0999 V2000
  -28.7927  -35.6959   17.9235 C   0  0  0  0  0  0  0  0  0  0  0  0
  -28.9862  -34.3881   18.3567 C   0  0  0  0  0  0  0  0  0  0  0  0
  -30.8080  -21.2845   23.2541 C   0  0  0  0  0  0  0  0  0  0  0  0
  -24.0024   -9.2176   20.5602 C   0  0  0  0  0  0  0  0  0  0  0  0
  -23.0327  -11.2659   19.7228 C   0  0  0  0  0  0  0  0  0  0  0  0
  -27.9046  -36.5296   18.6018 C   0  0  0  0  0  0  0  0  0  0  0  0
  -28.2924  -33.9136   19.4693 C   0  0  0  0  0  0  0  0  0  0  0  0
  -26.3664  -29.2887   18.7305 C   0  0  0  0  0  0  0  0  0  0  0  0
  -30.2577  -21.7915   22.0770 C   0  0  0  0  0  0  0  0  0  0  0  0
  -30.7661  -19.9138   23.5098 C   0  0  0  0  0  0  0  0  0  0  0  0
  -22.7250   -8.6917   20.7531 C   0  0  0  0  0  0  0  0  0  0  0  0
  -21.7553  -10.7400   19.9157 C   0  0  0  0  0  0  0  0  0  0  0  0
  -27.2447  -28.2103   18.8272 C   0  0  0  0  0  0  0  0  0  0  0  0
  -20.2349   -8.9671   23.0220 C   0  0  0  0  0  0  0  0  0  0  0  0
  -19.9807   -8.3090   24.2253 C   0  0  0  0  0  0  0  0  0  0  0  0
  -26.4570  -27.7773   21.0658 C   0  0  0  0  0  0  0  0  0  0  0  0
  -19.4594   -6.2874   23.0095 C   0  0  0  0  0  0  0  0  0  0  0  0
  -24.1563  -10.5048   20.0451 C   0  0  0  0  0  0  0  0  0  0  0  0
  -26.2695  -10.9513   18.6877 C   0  0  0  0  0  0  0  0  0  0  0  0
  -27.1923  -36.0620   19.7175 C   0  0  0  0  0  0  0  0  0  0  0  0
  -25.5331  -29.6268   19.8065 C   0  0  0  0  0  0  0  0  0  0  0  0
  -27.3949  -34.7422   20.1640 C   0  0  0  0  0  0  0  0  0  0  0  0
  -25.5671  -28.8589   20.9792 C   0  0  0  0  0  0  0  0  0  0  0  0
  -29.6653  -20.9280   21.1556 C   0  0  0  0  0  0  0  0  0  0  0  0
  -30.1737  -19.0503   22.5884 C   0  0  0  0  0  0  0  0  0  0  0  0
  -29.6233  -19.5573   21.4113 C   0  0  0  0  0  0  0  0  0  0  0  0
  -21.6014   -9.4528   20.4308 C   0  0  0  0  0  0  0  0  0  0  0  0
  -27.2922  -27.4562   19.9960 C   0  0  0  0  0  0  0  0  0  0  0  0
  -20.1013   -8.2853   21.8124 C   0  0  0  0  0  0  0  0  0  0  0  0
  -19.5930   -6.9692   24.2191 C   0  0  0  0  0  0  0  0  0  0  0  0
  -19.7136   -6.9455   21.8062 C   0  0  0  0  0  0  0  0  0  0  0  0
  -25.4756  -11.0488   19.8462 C   0  0  0  0  0  0  0  0  0  0  0  0
  -27.4226  -11.6274   19.0038 C   0  0  0  0  0  0  0  0  0  0  0  0
  -25.9897  -10.3073   17.4377 C   0  0  0  0  0  0  0  0  0  0  0  0
  -25.2054  -32.1776   21.6745 C   0  0  0  0  0  0  0  0  0  0  0  0
  -22.6599  -30.5264   22.8219 C   0  0  0  0  0  0  0  0  0  0  0  0
  -27.5933  -23.5127   19.8230 C   0  0  0  0  0  0  0  0  0  0  0  0
  -21.1413  -27.5077   23.2996 C   0  0  0  0  0  0  0  0  0  0  0  0
  -30.0811  -15.8259   21.0692 C   0  0  0  0  0  0  0  0  0  0  0  0
  -26.2787  -37.0148   20.4469 C   0  0  0  0  0  0  0  0  0  0  0  0
  -24.5722  -30.7766   19.6765 C   0  0  0  0  0  0  0  0  0  0  0  0
  -24.6788  -29.1680   22.1555 C   0  0  0  0  0  0  0  0  0  0  0  0
  -25.3015  -36.3191   21.3911 C   0  0  0  0  0  0  0  0  0  0  0  0
  -29.1211  -13.3764   23.4251 C   0  0  0  0  0  0  0  0  0  0  0  0
  -26.0261  -35.2751   22.2348 C   0  0  0  0  0  0  0  0  0  0  0  0
  -28.1365  -12.5406   22.6085 C   0  0  0  0  0  0  0  0  0  0  0  0
  -28.9745  -14.8732   23.1451 C   0  0  0  0  0  0  0  0  0  0  0  0
  -28.0726  -14.3881   20.8926 C   0  0  0  0  0  0  0  0  0  0  0  0
  -26.6422  -34.1831   21.3519 C   0  0  1  0  0  0  0  0  0  0  0  0
  -24.1366  -31.3464   21.0229 C   0  0  1  0  0  0  0  0  0  0  0  0
  -28.2399  -12.8764   21.1106 C   0  0  2  0  0  0  0  0  0  0  0  0
  -28.9881  -18.6314   20.4232 C   0  0  0  0  0  0  0  0  0  0  0  0
  -25.9547  -20.6518   19.6906 C   0  0  0  0  0  0  0  0  0  0  0  0
  -30.7898  -17.2405   24.2335 C   0  0  0  0  0  0  0  0  0  0  0  0
  -19.0860  -26.4731   24.3008 C   0  0  0  0  0  0  0  0  0  0  0  0
  -31.8730  -18.4560   20.3982 C   0  0  0  0  0  0  0  0  0  0  0  0
  -32.9313  -17.6607   22.5361 C   0  0  0  0  0  0  0  0  0  0  0  0
  -23.8342  -30.9006   25.6131 C   0  0  0  0  0  0  0  0  0  0  0  0
  -22.3069  -29.0895   26.4226 C   0  0  0  0  0  0  0  0  0  0  0  0
  -21.3540  -31.1920   25.4771 C   0  0  0  0  0  0  0  0  0  0  0  0
  -20.2741  -26.4215   20.6867 C   0  0  0  0  0  0  0  0  0  0  0  0
  -29.0805  -21.4993   19.8963 C   0  0  0  0  0  0  0  0  0  0  0  0
  -28.7744  -24.2531   19.2040 C   0  0  0  0  0  0  0  0  0  0  0  0
  -26.7714  -21.3282   20.7385 C   0  0  0  0  0  0  0  0  0  0  0  0
  -28.4670  -25.7111   18.8867 C   0  0  0  0  0  0  0  0  0  1  0  0
  -30.1422  -17.5867   22.8860 C   0  0  2  0  0  0  0  0  0  0  0  0
  -22.4483  -29.5206   23.9276 C   0  0  1  0  0  0  0  0  0  0  0  0
  -19.7193  -27.0434   23.0413 C   0  0  2  0  0  0  0  0  0  0  0  0
  -32.0505  -17.2818   21.3526 C   0  0  0  0  0  0  0  0  0  0  0  0
  -22.5041  -30.1708   25.3388 C   0  0  0  0  0  0  0  0  0  0  0  0
  -26.0737  -11.7328   20.8252 N   0  0  0  0  0  0  0  0  0  0  0  0
  -27.2558  -12.0712   20.2827 N   0  0  0  0  0  0  0  0  0  0  0  0
  -23.7608  -30.3058   21.9821 N   0  0  0  0  0  0  0  0  0  0  0  0
  -29.0314  -15.1441   21.7021 N   0  0  0  0  0  0  0  0  0  0  0  0
  -28.5527  -11.8796   18.3099 N   0  0  0  0  0  0  0  0  0  0  0  0
  -24.7571   -9.6589   17.2813 N   0  0  0  0  0  0  0  0  0  0  0  0
  -25.6238  -33.2528   20.9140 N   0  0  0  0  0  0  0  0  0  0  0  0
  -21.1897  -28.8455   23.6300 N   0  0  0  0  0  0  0  0  0  0  0  0
  -27.8075  -22.1666   20.1398 N   0  0  0  0  0  0  0  0  0  0  0  0
  -30.7570  -16.8012   21.8177 N   0  0  0  0  0  0  0  0  0  0  0  0
  -19.7018  -25.9895   21.9878 N   0  3  0  0  0  0  0  0  0  0  0  0
  -26.8152  -10.2928   16.4933 O   0  0  0  0  0  0  0  0  0  0  0  0
  -25.6187  -31.8673   22.7856 O   0  0  0  0  0  0  0  0  0  0  0  0
  -21.8731  -31.4690   22.7031 O   0  0  0  0  0  0  0  0  0  0  0  0
  -26.5233  -24.0938   20.0218 O   0  0  0  0  0  0  0  0  0  0  0  0
  -22.1117  -26.7577   23.2201 O   0  0  0  0  0  0  0  0  0  0  0  0
  -30.3934  -15.5832   19.8963 O   0  0  0  0  0  0  0  0  0  0  0  0
  -20.3548   -8.9399   20.6187 O   0  0  0  0  0  0  0  0  0  0  0  0
  -28.1490  -26.4034   20.0933 O   0  0  0  0  0  0  0  0  0  1  0  0
  -19.3504   -6.3369   25.3747 F   0  0  0  0  0  0  0  0  0  0  0  0
  -19.5847   -6.2849   20.6474 F   0  0  0  0  0  0  0  0  0  0  0  0
  1  2  1  0  0  0  0
  1  6  2  0  0  0  0
  2  7  2  0  0  0  0
  3  9  2  0  0  0  0
  3 10  1  0  0  0  0
  4 11  2  0  0  0  0
  4 18  1  0  0  0  0
  5 12  1  0  0  0  0
  5 18  2  0  0  0  0
  6 20  1  0  0  0  0
  7 22  1  0  0  0  0
  8 13  2  0  0  0  0
  8 21  1  0  0  0  0
  9 24  1  0  0  0  0
 10 25  2  0  0  0  0
 11 27  1  0  0  0  0
 12 27  2  0  0  0  0
 13 28  1  0  0  0  0
 14 15  2  0  0  0  0
 14 29  1  0  0  0  0
 15 30  1  0  0  0  0
 16 23  1  0  0  0  0
 16 28  2  0  0  0  0
 17 30  2  0  0  0  0
 17 31  1  0  0  0  0
 18 32  1  0  0  0  0
 19 32  1  0  0  0  0
 19 33  2  0  0  0  0
 19 34  1  0  0  0  0
 20 22  2  0  0  0  0
 20 40  1  0  0  0  0
 21 23  2  0  0  0  0
 21 41  1  0  0  0  0
 22 49  1  0  0  0  0
 23 42  1  0  0  0  0
 24 26  2  0  0  0  0
 24 62  1  0  0  0  0
 25 26  1  0  0  0  0
 25 66  1  0  0  0  0
 26 52  1  0  0  0  0
 27 88  1  0  0  0  0
 28 89  1  0  0  0  0
 29 31  2  0  0  0  0
 29 88  1  0  0  0  0
 30 90  1  0  0  0  0
 31 91  1  0  0  0  0
 32 71  2  0  0  0  0
 33 72  1  0  0  0  0
 33 75  1  0  0  0  0
 34 76  1  0  0  0  0
 34 82  2  0  0  0  0
 35 50  1  0  0  0  0
 35 77  1  0  0  0  0
 35 83  2  0  0  0  0
 36 67  1  0  0  0  0
 36 73  1  0  0  0  0
 36 84  2  0  0  0  0
 37 63  1  0  0  0  0
 37 79  1  0  0  0  0
 37 85  2  0  0  0  0
 38 68  1  0  0  0  0
 38 78  1  0  0  0  0
 38 86  2  0  0  0  0
 39 74  1  0  0  0  0
 39 80  1  0  0  0  0
 39 87  2  0  0  0  0
 40 43  1  0  0  0  0
 41 50  1  0  0  0  0
 42 73  1  0  0  0  0
 43 45  1  0  0  0  0
 44 46  1  0  0  0  0
 44 47  1  0  0  0  0
 45 49  1  0  0  0  0
 46 51  1  0  0  0  0
 47 74  1  0  0  0  0
 48 51  1  0  0  0  0
 48 74  1  0  0  0  0
 49 77  1  0  0  0  0
 50 73  1  0  0  0  0
 51 72  1  0  0  0  0
 53 64  1  0  0  0  0
 54 66  1  0  0  0  0
 55 68  1  0  0  0  0
 56 69  1  0  0  0  0
 57 69  1  0  0  0  0
 58 70  1  0  0  0  0
 59 70  1  0  0  0  0
 60 70  1  0  0  0  0
 61 81  1  0  0  0  0
 62 79  1  0  0  0  0
 63 65  1  0  0  0  0
 64 79  1  0  0  0  0
 65 89  1  0  0  0  0
 66 80  1  0  0  0  0
 67 70  1  0  0  0  0
 67 78  1  0  0  0  0
 68 81  1  0  0  0  0
 69 80  1  0  0  0  0
 71 72  1  0  0  0  0
M  CHG  1  81   1
M  ISO  4  39 100  65 101  80 100  89 101
M  END
> <Batch ID>
0055

> <Smiles>
CCN(Cc1cccc(C(C)[100N:0](C(C)C)[100C:0](=O)N2CCCC(n3nc(-c4ccc(Oc5ccc(F)cc5F)cc4)c(C(N)=O)c3N)C2)c1C)C(=O)C[101CH2:1][101O:1]c1ccc2c(c1)CN(C(=O)C(NC(=O)C(C)NC)C(C)(C)C)C(C(=O)NC1CCCc3ccccc31)C2

> <Shape>
0.273

> <Color>
0.078

> <Negative vol penalty>
0.000

$$$$

  -OEChem-04042322493D

 88 96  0     1  0  0  0  0  0999 V2000
  -30.6019  -30.2900   26.0196 C   0  0  0  0  0  0  0  0  0  0  0  0
  -29.7545  -29.3819   25.3930 C   0  0  0  0  0  0  0  0  0  0  0  0
  -22.6588  -11.5900   18.8534 C   0  0  0  0  0  0  0  0  0  0  0  0
  -23.2185   -9.7375   20.2998 C   0  0  0  0  0  0  0  0  0  0  0  0
  -30.1498  -31.5759   26.3125 C   0  0  0  0  0  0  0  0  0  0  0  0
  -28.4539  -29.7589   25.0600 C   0  0  0  0  0  0  0  0  0  0  0  0
  -27.1456  -28.3053   20.3888 C   0  0  0  0  0  0  0  0  0  0  0  0
  -21.6637  -10.8197   18.2518 C   0  0  0  0  0  0  0  0  0  0  0  0
  -22.2232   -8.9672   19.6983 C   0  0  0  0  0  0  0  0  0  0  0  0
  -26.7950  -26.9674   20.2131 C   0  0  0  0  0  0  0  0  0  0  0  0
  -19.5892   -6.6318   18.7896 C   0  0  0  0  0  0  0  0  0  0  0  0
  -18.7516   -5.8886   19.6213 C   0  0  0  0  0  0  0  0  0  0  0  0
  -28.2751  -18.2223   22.6917 C   0  0  0  0  0  0  0  0  0  0  0  0
  -24.4618  -27.5766   20.2776 C   0  0  0  0  0  0  0  0  0  0  0  0
  -27.9664  -20.7962   21.6610 C   0  0  0  0  0  0  0  0  0  0  0  0
  -18.0220   -7.9219   20.7033 C   0  0  0  0  0  0  0  0  0  0  0  0
  -23.4363  -11.0489   19.8773 C   0  0  0  0  0  0  0  0  0  0  0  0
  -29.0517  -18.6382   21.6103 C   0  0  0  0  0  0  0  0  0  0  0  0
  -24.3299  -12.6805   21.6228 C   0  0  0  0  0  0  0  0  0  0  0  0
  -28.8463  -31.9720   25.9743 C   0  0  0  0  0  0  0  0  0  0  0  0
  -26.1552  -29.2892   20.5214 C   0  0  0  0  0  0  0  0  0  0  0  0
  -27.9835  -31.0510   25.3500 C   0  0  0  0  0  0  0  0  0  0  0  0
  -24.8024  -28.9266   20.4524 C   0  0  0  0  0  0  0  0  0  0  0  0
  -27.3441  -19.0932   23.2578 C   0  0  0  0  0  0  0  0  0  0  0  0
  -28.8974  -19.9251   21.0949 C   0  0  0  0  0  0  0  0  0  0  0  0
  -27.1898  -20.3802   22.7424 C   0  0  0  0  0  0  0  0  0  0  0  0
  -21.4458   -9.5083   18.6743 C   0  0  0  0  0  0  0  0  0  0  0  0
  -25.4529  -26.6025   20.1603 C   0  0  0  0  0  0  0  0  0  0  0  0
  -19.6432   -8.0200   18.9147 C   0  0  0  0  0  0  0  0  0  0  0  0
  -17.9681   -6.5337   20.5782 C   0  0  0  0  0  0  0  0  0  0  0  0
  -18.8597   -8.6650   19.8715 C   0  0  0  0  0  0  0  0  0  0  0  0
  -24.4648  -11.8439   20.4987 C   0  0  0  0  0  0  0  0  0  0  0  0
  -25.5845  -13.2063   21.8121 C   0  0  0  0  0  0  0  0  0  0  0  0
  -30.0355  -17.6903   21.0269 C   0  0  0  0  0  0  0  0  0  0  0  0
  -23.1737  -12.9576   22.4243 C   0  0  0  0  0  0  0  0  0  0  0  0
  -25.3251  -31.3435   22.8005 C   0  0  0  0  0  0  0  0  0  0  0  0
  -23.2805  -32.4346   20.5308 C   0  0  0  0  0  0  0  0  0  0  0  0
  -25.0566  -23.1049   21.9718 C   0  0  0  0  0  0  0  0  0  0  0  0
  -21.5056  -31.8027   17.6852 C   0  0  0  0  0  0  0  0  0  0  0  0
  -30.2486  -15.5007   19.8938 C   0  0  0  0  0  0  0  0  0  0  0  0
  -28.3871  -33.3576   26.3537 C   0  0  0  0  0  0  0  0  0  0  0  0
  -26.5499  -30.7315   20.6836 C   0  0  0  0  0  0  0  0  0  0  0  0
  -23.7010  -29.9472   20.5691 C   0  0  0  0  0  0  0  0  0  0  0  0
  -27.1171  -33.7979   25.6301 C   0  0  0  0  0  0  0  0  0  0  0  0
  -30.0260  -11.9774   19.7103 C   0  0  0  0  0  0  0  0  0  0  0  0
  -26.0701  -32.6892   25.6669 C   0  0  0  0  0  0  0  0  0  0  0  0
  -28.5494  -11.6933   19.9993 C   0  0  0  0  0  0  0  0  0  0  0  0
  -30.2070  -13.2422   18.8723 C   0  0  0  0  0  0  0  0  0  0  0  0
  -28.0709  -14.1545   19.6865 C   0  0  0  0  0  0  0  0  0  0  0  0
  -26.5740  -31.4304   24.9507 C   0  0  1  0  0  0  0  0  0  0  0  0
  -25.4565  -31.5820   21.3228 C   0  0  1  0  0  0  0  0  0  0  0  0
  -27.8399  -12.9299   20.5866 C   0  0  1  0  0  0  0  0  0  0  0  0
  -26.5236  -18.6258   24.4149 C   0  0  0  0  0  0  0  0  0  0  0  0
  -29.7157  -20.3958   19.9370 C   0  0  0  0  0  0  0  0  0  0  0  0
  -19.8955  -32.8773   16.0883 C   0  0  0  0  0  0  0  0  0  0  0  0
  -21.0334  -32.0852   22.5651 C   0  0  0  0  0  0  0  0  0  0  0  0
  -19.3950  -32.2465   20.6789 C   0  0  0  0  0  0  0  0  0  0  0  0
  -20.8887  -34.1754   21.1995 C   0  0  0  0  0  0  0  0  0  0  0  0
  -24.3688  -20.7028   21.8064 C   0  0  0  0  0  0  0  0  0  0  0  0
  -23.3747  -31.4942   15.4114 C   0  0  0  0  0  0  0  0  0  0  0  0
  -26.1945  -21.3352   23.3353 C   0  0  0  0  0  0  0  0  0  0  0  0
  -23.9737  -23.3944   20.9375 C   0  0  0  0  0  0  0  0  0  0  0  0
  -23.8763  -24.8697   20.5698 C   0  0  0  0  0  0  0  0  0  1  0  0
  -21.8649  -32.1076   20.1209 C   0  0  1  0  0  0  0  0  0  0  0  0
  -21.3568  -32.5891   16.3953 C   0  0  2  0  0  0  0  0  0  0  0  0
  -20.8160  -32.6339   21.1408 C   0  0  0  0  0  0  0  0  0  0  0  0
  -25.7072  -11.8356   20.0083 N   0  0  0  0  0  0  0  0  0  0  0  0
  -26.3643  -12.6736   20.8281 N   0  0  0  0  0  0  0  0  0  0  0  0
  -24.1377  -31.3437   20.7328 N   0  0  0  0  0  0  0  0  0  0  0  0
  -29.5140  -14.3683   19.5008 N   0  0  0  0  0  0  0  0  0  0  0  0
  -26.0858  -14.0677   22.7227 N   0  0  0  0  0  0  0  0  0  0  0  0
  -21.9643  -12.3329   22.0908 N   0  0  0  0  0  0  0  0  0  0  0  0
  -29.5026  -16.5034   20.5233 N   0  0  0  0  0  0  0  0  0  0  0  0
  -26.4806  -31.5937   23.5157 N   0  0  0  0  0  0  0  0  0  0  0  0
  -21.6997  -32.6321   18.7695 N   0  0  0  0  0  0  0  0  0  0  0  0
  -25.2002  -21.7669   22.3554 N   0  0  0  0  0  0  0  0  0  0  0  0
  -21.9352  -31.8257   15.2536 N   0  3  0  0  0  0  0  0  0  0  0  0
  -31.2206  -18.0091   20.9845 O   0  0  0  0  0  0  0  0  0  0  0  0
  -23.2083  -13.7489   23.3970 O   0  0  0  0  0  0  0  0  0  0  0  0
  -24.2541  -30.9623   23.2580 O   0  0  0  0  0  0  0  0  0  0  0  0
  -23.6155  -33.6148   20.6597 O   0  0  0  0  0  0  0  0  0  0  0  0
  -25.7509  -24.0184   22.4255 O   0  0  0  0  0  0  0  0  0  0  0  0
  -21.4511  -30.5756   17.7273 O   0  0  0  0  0  0  0  0  0  0  0  0
  -31.4694  -15.5952   19.7328 O   0  0  0  0  0  0  0  0  0  0  0  0
  -20.4747   -8.7564   18.0877 O   0  0  0  0  0  0  0  0  0  0  0  0
  -25.1080  -25.2972   19.9895 O   0  0  0  0  0  0  0  0  0  1  0  0
  -17.1626   -5.8200   21.3758 F   0  0  0  0  0  0  0  0  0  0  0  0
  -18.9064   -9.9985   19.9957 F   0  0  0  0  0  0  0  0  0  0  0  0
  1  2  1  0  0  0  0
  1  5  2  0  0  0  0
  2  6  2  0  0  0  0
  3  8  2  0  0  0  0
  3 17  1  0  0  0  0
  4  9  1  0  0  0  0
  4 17  2  0  0  0  0
  5 20  1  0  0  0  0
  6 22  1  0  0  0  0
  7 10  2  0  0  0  0
  7 21  1  0  0  0  0
  8 27  1  0  0  0  0
  9 27  2  0  0  0  0
 10 28  1  0  0  0  0
 11 12  2  0  0  0  0
 11 29  1  0  0  0  0
 12 30  1  0  0  0  0
 13 18  2  0  0  0  0
 13 24  1  0  0  0  0
 14 23  1  0  0  0  0
 14 28  2  0  0  0  0
 15 25  2  0  0  0  0
 15 26  1  0  0  0  0
 16 30  2  0  0  0  0
 16 31  1  0  0  0  0
 17 32  1  0  0  0  0
 18 25  1  0  0  0  0
 18 34  1  0  0  0  0
 19 32  1  0  0  0  0
 19 33  2  0  0  0  0
 19 35  1  0  0  0  0
 20 22  2  0  0  0  0
 20 41  1  0  0  0  0
 21 23  2  0  0  0  0
 21 42  1  0  0  0  0
 22 50  1  0  0  0  0
 23 43  1  0  0  0  0
 24 26  2  0  0  0  0
 24 53  1  0  0  0  0
 25 54  1  0  0  0  0
 26 61  1  0  0  0  0
 27 85  1  0  0  0  0
 28 86  1  0  0  0  0
 29 31  2  0  0  0  0
 29 85  1  0  0  0  0
 30 87  1  0  0  0  0
 31 88  1  0  0  0  0
 32 67  2  0  0  0  0
 33 68  1  0  0  0  0
 33 71  1  0  0  0  0
 34 73  1  0  0  0  0
 34 78  2  0  0  0  0
 35 72  1  0  0  0  0
 35 79  2  0  0  0  0
 36 51  1  0  0  0  0
 36 74  1  0  0  0  0
 36 80  2  0  0  0  0
 37 64  1  0  0  0  0
 37 69  1  0  0  0  0
 37 81  2  0  0  0  0
 38 62  1  0  0  0  0
 38 76  1  0  0  0  0
 38 82  2  0  0  0  0
 39 65  1  0  0  0  0
 39 75  1  0  0  0  0
 39 83  2  0  0  0  0
 40 70  1  0  0  0  0
 40 73  1  0  0  0  0
 40 84  2  0  0  0  0
 41 44  1  0  0  0  0
 42 51  1  0  0  0  0
 43 69  1  0  0  0  0
 44 46  1  0  0  0  0
 45 47  1  0  0  0  0
 45 48  1  0  0  0  0
 46 50  1  0  0  0  0
 47 52  1  0  0  0  0
 48 70  1  0  0  0  0
 49 52  1  0  0  0  0
 49 70  1  0  0  0  0
 50 74  1  0  0  0  0
 51 69  1  0  0  0  0
 52 68  1  0  0  0  0
 55 65  1  0  0  0  0
 56 66  1  0  0  0  0
 57 66  1  0  0  0  0
 58 66  1  0  0  0  0
 59 76  1  0  0  0  0
 60 77  1  0  0  0  0
 61 76  1  0  0  0  0
 62 63  1  0  0  0  0
 63 86  1  0  0  0  0
 64 66  1  0  0  0  0
 64 75  1  0  0  0  0
 65 77  1  0  0  0  0
 67 68  1  0  0  0  0
M  CHG  1  77   1
M  ISO  4  40 100  63 101  73 100  86 101
M  END
> <Batch ID>
0055

> <Smiles>
CNC(C)C(=O)NC(C(=O)N1Cc2cc([101O:1][101CH2:1]CC(=O)N(C)Cc3cc(C)c(C(=O)[100NH:0][100C:0](=O)N4CCCC(n5nc(-c6ccc(Oc7ccc(F)cc7F)cc6)c(C(N)=O)c5N)C4)cc3C)ccc2CC1C(=O)NC1CCCc2ccccc21)C(C)(C)C

> <Shape>
0.244

> <Color>
0.108

> <Negative vol penalty>
0.000

$$$$

  -OEChem-04042322493D

 84 92  0     1  0  0  0  0  0999 V2000
  -24.4896  -24.9941   21.9580 C   0  0  0  0  0  0  0  0  0  0  0  0
  -25.2976  -24.3828   22.9114 C   0  0  0  0  0  0  0  0  0  0  0  0
  -23.1908   -9.8097   19.9381 C   0  0  0  0  0  0  0  0  0  0  0  0
  -23.5755  -10.0013   22.3156 C   0  0  0  0  0  0  0  0  0  0  0  0
  -24.7129  -24.7584   20.6021 C   0  0  0  0  0  0  0  0  0  0  0  0
  -26.3287  -23.5345   22.5094 C   0  0  0  0  0  0  0  0  0  0  0  0
  -31.7753  -22.8202   25.2169 C   0  0  0  0  0  0  0  0  0  0  0  0
  -22.4282   -8.6619   20.1539 C   0  0  0  0  0  0  0  0  0  0  0  0
  -22.8128   -8.8535   22.5315 C   0  0  0  0  0  0  0  0  0  0  0  0
  -32.2628  -21.8625   26.1052 C   0  0  0  0  0  0  0  0  0  0  0  0
  -23.2222   -5.5068   22.2805 C   0  0  0  0  0  0  0  0  0  0  0  0
  -23.7257   -4.5506   23.1623 C   0  0  0  0  0  0  0  0  0  0  0  0
  -30.9715  -14.2472   26.2683 C   0  0  0  0  0  0  0  0  0  0  0  0
  -33.2258  -20.6474   24.2572 C   0  0  0  0  0  0  0  0  0  0  0  0
  -32.1159  -14.4801   23.7348 C   0  0  0  0  0  0  0  0  0  0  0  0
  -21.7725   -4.8113   24.5602 C   0  0  0  0  0  0  0  0  0  0  0  0
  -23.7645  -10.4794   21.0189 C   0  0  0  0  0  0  0  0  0  0  0  0
  -32.0240  -15.1379   26.0578 C   0  0  0  0  0  0  0  0  0  0  0  0
  -24.0956  -12.9959   20.7634 C   0  0  0  0  0  0  0  0  0  0  0  0
  -25.7534  -23.9144   20.1830 C   0  0  0  0  0  0  0  0  0  0  0  0
  -32.0004  -22.6926   23.8387 C   0  0  0  0  0  0  0  0  0  0  0  0
  -26.5653  -23.2862   21.1466 C   0  0  0  0  0  0  0  0  0  0  0  0
  -32.7422  -21.6061   23.3537 C   0  0  0  0  0  0  0  0  0  0  0  0
  -32.5962  -15.2544   24.7910 C   0  0  0  0  0  0  0  0  0  0  0  0
  -31.0634  -13.5893   23.9454 C   0  0  0  0  0  0  0  0  0  0  0  0
  -22.2392   -8.1838   21.4506 C   0  0  0  0  0  0  0  0  0  0  0  0
  -32.9857  -20.7744   25.6251 C   0  0  0  0  0  0  0  0  0  0  0  0
  -21.9939   -6.1153   22.5385 C   0  0  0  0  0  0  0  0  0  0  0  0
  -23.0009   -4.2028   24.3022 C   0  0  0  0  0  0  0  0  0  0  0  0
  -30.4912  -13.4728   25.2122 C   0  0  0  0  0  0  0  0  0  0  0  0
  -21.2690   -5.7675   23.6784 C   0  0  0  0  0  0  0  0  0  0  0  0
  -24.5528  -11.6648   20.7965 C   0  0  0  0  0  0  0  0  0  0  0  0
  -25.2241  -13.7406   20.5217 C   0  0  0  0  0  0  0  0  0  0  0  0
  -32.5179  -15.9469   27.1901 C   0  0  0  0  0  0  0  0  0  0  0  0
  -22.7695  -13.5130   20.9359 C   0  0  0  0  0  0  0  0  0  0  0  0
  -30.1396  -22.3595   21.2833 C   0  0  0  0  0  0  0  0  0  0  0  0
  -32.9451  -22.6633   19.6837 C   0  0  0  0  0  0  0  0  0  0  0  0
  -36.3450  -22.3689   19.7156 C   0  0  0  0  0  0  0  0  0  0  0  0
  -31.0342  -12.8001   21.5533 C   0  0  0  0  0  0  0  0  0  0  0  0
  -25.9263  -23.6527   18.7077 C   0  0  0  0  0  0  0  0  0  0  0  0
  -31.4907  -23.7483   22.8962 C   0  0  0  0  0  0  0  0  0  0  0  0
  -33.0287  -21.4338   21.8852 C   0  0  0  0  0  0  0  0  0  0  0  0
  -27.2766  -23.0356   18.3527 C   0  0  0  0  0  0  0  0  0  0  0  0
  -29.5107  -13.4641   18.4044 C   0  0  0  0  0  0  0  0  0  0  0  0
  -27.6042  -21.8864   19.3008 C   0  0  0  0  0  0  0  0  0  0  0  0
  -28.0241  -13.2051   18.6591 C   0  0  0  0  0  0  0  0  0  0  0  0
  -30.3967  -12.4848   19.1722 C   0  0  0  0  0  0  0  0  0  0  0  0
  -28.6428  -12.1458   20.8686 C   0  0  0  0  0  0  0  0  0  0  0  0
  -27.7095  -22.3791   20.7492 C   0  0  1  0  0  0  0  0  0  0  0  0
  -31.3385  -23.2470   21.4634 C   0  0  1  0  0  0  0  0  0  0  0  0
  -27.7122  -13.1488   20.1674 C   0  0  2  0  0  0  0  0  0  0  0  0
  -33.7238  -16.2017   24.5407 C   0  0  0  0  0  0  0  0  0  0  0  0
  -38.3607  -22.6527   18.2480 C   0  0  0  0  0  0  0  0  0  0  0  0
  -32.2681  -20.0545   18.2534 C   0  0  0  0  0  0  0  0  0  0  0  0
  -34.6654  -19.9001   17.5482 C   0  0  0  0  0  0  0  0  0  0  0  0
  -33.2646  -21.8192   16.7882 C   0  0  0  0  0  0  0  0  0  0  0  0
  -37.4921  -24.4381   21.4936 C   0  0  0  0  0  0  0  0  0  0  0  0
  -32.9211  -18.1877   28.1455 C   0  0  0  0  0  0  0  0  0  0  0  0
  -32.7132  -19.6159   27.6841 C   0  0  0  0  0  0  0  0  0  1  0  0
  -34.0098  -21.7078   19.2016 C   0  0  1  0  0  0  0  0  0  0  0  0
  -37.4423  -23.3152   19.2631 C   0  0  2  0  0  0  0  0  0  0  0  0
  -33.5451  -20.8723   17.9754 C   0  0  0  0  0  0  0  0  0  0  0  0
  -25.8690  -11.5664   20.5920 N   0  0  0  0  0  0  0  0  0  0  0  0
  -26.2486  -12.8451   20.4280 N   0  0  0  0  0  0  0  0  0  0  0  0
  -32.5038  -22.4891   21.0030 N   0  0  0  0  0  0  0  0  0  0  0  0
  -30.0471  -12.4884   20.5944 N   0  0  0  0  0  0  0  0  0  0  0  0
  -25.4301  -15.0674   20.3822 N   0  0  0  0  0  0  0  0  0  0  0  0
  -32.9967  -15.3074   28.2572 N   0  0  0  0  0  0  0  0  0  0  0  0
  -21.7260  -12.6089   21.1768 N   0  0  0  0  0  0  0  0  0  0  0  0
  -30.5772  -12.8042   22.8707 N   0  0  0  0  0  0  0  0  0  0  0  0
  -28.9787  -23.0393   20.9674 N   0  0  0  0  0  0  0  0  0  0  0  0
  -35.2016  -22.5134   18.9586 N   0  0  0  0  0  0  0  0  0  0  0  0
  -32.4591  -17.2804   27.0921 N   0  3  0  0  0  0  0  0  0  0  0  0
  -38.2645  -23.7497   20.4276 N   0  3  0  0  0  0  0  0  0  0  0  0
  -22.5148  -14.7390   20.8617 O   0  0  0  0  0  0  0  0  0  0  0  0
  -30.2591  -21.1475   21.4193 O   0  0  0  0  0  0  0  0  0  0  0  0
  -32.5258  -23.5367   18.9202 O   0  0  0  0  0  0  0  0  0  0  0  0
  -36.4891  -21.5778   20.6451 O   0  0  0  0  0  0  0  0  0  0  0  0
  -32.1926  -13.0719   21.2274 O   0  0  0  0  0  0  0  0  0  0  0  0
  -21.4950   -7.0639   21.6616 O   0  0  0  0  0  0  0  0  0  0  0  0
  -33.4621  -19.8379   26.4899 O   0  0  0  0  0  0  0  0  0  1  0  0
  -23.4838   -3.2834   25.1482 F   0  0  0  0  0  0  0  0  0  0  0  0
  -29.4796  -12.6194   25.4262 F   0  0  0  0  0  0  0  0  0  0  0  0
  -20.0878   -6.3479   23.9310 F   0  0  0  0  0  0  0  0  0  0  0  0
  1  2  1  0  0  0  0
  1  5  2  0  0  0  0
  2  6  2  0  0  0  0
  3  8  2  0  0  0  0
  3 17  1  0  0  0  0
  4  9  1  0  0  0  0
  4 17  2  0  0  0  0
  5 20  1  0  0  0  0
  6 22  1  0  0  0  0
  7 10  2  0  0  0  0
  7 21  1  0  0  0  0
  8 26  1  0  0  0  0
  9 26  2  0  0  0  0
 10 27  1  0  0  0  0
 11 12  2  0  0  0  0
 11 28  1  0  0  0  0
 12 29  1  0  0  0  0
 13 18  1  0  0  0  0
 13 30  2  0  0  0  0
 14 23  1  0  0  0  0
 14 27  2  0  0  0  0
 15 24  1  0  0  0  0
 15 25  2  0  0  0  0
 16 29  2  0  0  0  0
 16 31  1  0  0  0  0
 17 32  1  0  0  0  0
 18 24  2  0  0  0  0
 18 34  1  0  0  0  0
 19 32  1  0  0  0  0
 19 33  2  0  0  0  0
 19 35  1  0  0  0  0
 20 22  2  0  0  0  0
 20 40  1  0  0  0  0
 21 23  2  0  0  0  0
 21 41  1  0  0  0  0
 22 49  1  0  0  0  0
 23 42  1  0  0  0  0
 24 52  1  0  0  0  0
 25 30  1  0  0  0  0
 25 70  1  0  0  0  0
 26 80  1  0  0  0  0
 27 81  1  0  0  0  0
 28 31  2  0  0  0  0
 28 80  1  0  0  0  0
 29 82  1  0  0  0  0
 30 83  1  0  0  0  0
 31 84  1  0  0  0  0
 32 63  2  0  0  0  0
 33 64  1  0  0  0  0
 33 67  1  0  0  0  0
 34 68  1  0  0  0  0
 34 73  2  0  0  0  0
 35 69  1  0  0  0  0
 35 75  2  0  0  0  0
 36 50  1  0  0  0  0
 36 71  1  0  0  0  0
 36 76  2  0  0  0  0
 37 60  1  0  0  0  0
 37 65  1  0  0  0  0
 37 77  2  0  0  0  0
 38 61  1  0  0  0  0
 38 72  1  0  0  0  0
 38 78  2  0  0  0  0
 39 66  1  0  0  0  0
 39 70  1  0  0  0  0
 39 79  2  0  0  0  0
 40 43  1  0  0  0  0
 41 50  1  0  0  0  0
 42 65  1  0  0  0  0
 43 45  1  0  0  0  0
 44 46  1  0  0  0  0
 44 47  1  0  0  0  0
 45 49  1  0  0  0  0
 46 51  1  0  0  0  0
 47 66  1  0  0  0  0
 48 51  1  0  0  0  0
 48 66  1  0  0  0  0
 49 71  1  0  0  0  0
 50 65  1  0  0  0  0
 51 64  1  0  0  0  0
 53 61  1  0  0  0  0
 54 62  1  0  0  0  0
 55 62  1  0  0  0  0
 56 62  1  0  0  0  0
 57 74  1  0  0  0  0
 58 59  1  0  0  0  0
 58 73  1  0  0  0  0
 59 81  1  0  0  0  0
 60 62  1  0  0  0  0
 60 72  1  0  0  0  0
 61 74  1  0  0  0  0
 63 64  1  0  0  0  0
M  CHG  2  73   1  74   1
M  ISO  4  39 100  59 101  70 100  81 101
M  END
> <Batch ID>
0055

> <Smiles>
CNC(C)C(=O)NC(C(=O)N1Cc2cc([101O:1][101CH2:1]CNC(=N)c3cc(F)c([100NH:0][100C:0](=O)N4CCCC(n5nc(-c6ccc(Oc7ccc(F)cc7F)cc6)c(C(N)=O)c5N)C4)cc3C)ccc2CC1C(=O)NC1CCCc2ccccc21)C(C)(C)C

> <Shape>
0.168

> <Color>
0.179

> <Negative vol penalty>
0.000

$$$$

  -OEChem-04042322493D

 85 93  0     1  0  0  0  0  0999 V2000
  -17.3915  -22.2140   26.8194 C   0  0  0  0  0  0  0  0  0  0  0  0
  -18.7404  -21.8936   26.9349 C   0  0  0  0  0  0  0  0  0  0  0  0
  -32.1687  -18.1676   23.3643 C   0  0  0  0  0  0  0  0  0  0  0  0
  -23.2118   -9.7407   20.0588 C   0  0  0  0  0  0  0  0  0  0  0  0
  -23.7962  -10.0330   22.3848 C   0  0  0  0  0  0  0  0  0  0  0  0
  -16.9639  -23.0704   25.8057 C   0  0  0  0  0  0  0  0  0  0  0  0
  -19.6623  -22.4287   26.0359 C   0  0  0  0  0  0  0  0  0  0  0  0
  -23.8426  -24.1378   28.3270 C   0  0  0  0  0  0  0  0  0  0  0  0
  -31.6881  -17.1630   22.5245 C   0  0  0  0  0  0  0  0  0  0  0  0
  -31.2812  -19.0686   23.9528 C   0  0  0  0  0  0  0  0  0  0  0  0
  -22.5000   -8.5857   20.3828 C   0  0  0  0  0  0  0  0  0  0  0  0
  -23.0844   -8.8780   22.7088 C   0  0  0  0  0  0  0  0  0  0  0  0
  -24.7864  -23.1897   28.7195 C   0  0  0  0  0  0  0  0  0  0  0  0
  -19.4869   -7.8047   21.7033 C   0  0  0  0  0  0  0  0  0  0  0  0
  -18.2232   -7.6414   21.1358 C   0  0  0  0  0  0  0  0  0  0  0  0
  -26.0999  -23.6950   26.7603 C   0  0  0  0  0  0  0  0  0  0  0  0
  -29.4325  -17.9605   22.8613 C   0  0  0  0  0  0  0  0  0  0  0  0
  -18.9614   -5.5972   20.0806 C   0  0  0  0  0  0  0  0  0  0  0  0
  -23.8599  -10.4644   21.0598 C   0  0  0  0  0  0  0  0  0  0  0  0
  -24.1040  -12.9756   20.6837 C   0  0  0  0  0  0  0  0  0  0  0  0
  -17.8824  -23.6239   24.8998 C   0  0  0  0  0  0  0  0  0  0  0  0
  -24.0152  -24.8651   27.1405 C   0  0  0  0  0  0  0  0  0  0  0  0
  -19.2464  -23.2922   25.0083 C   0  0  0  0  0  0  0  0  0  0  0  0
  -25.1581  -24.6536   26.3562 C   0  0  0  0  0  0  0  0  0  0  0  0
  -30.3200  -17.0595   22.2729 C   0  0  0  0  0  0  0  0  0  0  0  0
  -22.4363   -8.1544   21.7077 C   0  0  0  0  0  0  0  0  0  0  0  0
  -25.9139  -22.9661   27.9346 C   0  0  0  0  0  0  0  0  0  0  0  0
  -29.9131  -18.9651   23.7013 C   0  0  0  0  0  0  0  0  0  0  0  0
  -20.4879   -6.8643   21.4594 C   0  0  0  0  0  0  0  0  0  0  0  0
  -17.9605   -6.5376   20.3244 C   0  0  0  0  0  0  0  0  0  0  0  0
  -20.2251   -5.7606   20.6481 C   0  0  0  0  0  0  0  0  0  0  0  0
  -24.5958  -11.6572   20.7257 C   0  0  0  0  0  0  0  0  0  0  0  0
  -25.1882  -13.7349   20.3168 C   0  0  0  0  0  0  0  0  0  0  0  0
  -22.7852  -13.4698   20.9525 C   0  0  0  0  0  0  0  0  0  0  0  0
  -22.3927  -25.1384   24.4208 C   0  0  0  0  0  0  0  0  0  0  0  0
  -24.5962  -27.4341   23.7908 C   0  0  0  0  0  0  0  0  0  0  0  0
  -27.7092  -28.7020   24.3813 C   0  0  0  0  0  0  0  0  0  0  0  0
  -28.2052  -19.8804   26.5267 C   0  0  0  0  0  0  0  0  0  0  0  0
  -30.5773  -15.0640   20.7569 C   0  0  0  0  0  0  0  0  0  0  0  0
  -17.3665  -24.5073   23.7916 C   0  0  0  0  0  0  0  0  0  0  0  0
  -23.0013  -25.9032   26.7448 C   0  0  0  0  0  0  0  0  0  0  0  0
  -25.4004  -25.4225   25.0840 C   0  0  0  0  0  0  0  0  0  0  0  0
  -18.4575  -25.3286   23.1094 C   0  0  0  0  0  0  0  0  0  0  0  0
  -29.7459  -12.3562   18.5998 C   0  0  0  0  0  0  0  0  0  0  0  0
  -19.6639  -24.4519   22.7887 C   0  0  0  0  0  0  0  0  0  0  0  0
  -28.2914  -12.0414   18.9571 C   0  0  0  0  0  0  0  0  0  0  0  0
  -30.5577  -12.7586   19.8297 C   0  0  0  0  0  0  0  0  0  0  0  0
  -28.5237  -13.5322   20.9846 C   0  0  0  0  0  0  0  0  0  0  0  0
  -20.2802  -23.8722   24.0676 C   0  0  1  0  0  0  0  0  0  0  0  0
  -23.0217  -26.2202   25.2526 C   0  0  1  0  0  0  0  0  0  0  0  0
  -27.6503  -13.1846   19.7680 C   0  0  2  0  0  0  0  0  0  0  0  0
  -29.2409  -30.5656   23.6898 C   0  0  0  0  0  0  0  0  0  0  0  0
  -26.6807  -19.6640   24.5449 C   0  0  0  0  0  0  0  0  0  0  0  0
  -25.1774  -25.9812   21.1714 C   0  0  0  0  0  0  0  0  0  0  0  0
  -27.3015  -27.2948   20.9950 C   0  0  0  0  0  0  0  0  0  0  0  0
  -25.1034  -28.4742   20.9874 C   0  0  0  0  0  0  0  0  0  0  0  0
  -27.8209  -29.7867   27.1326 C   0  0  0  0  0  0  0  0  0  0  0  0
  -27.2691  -19.7303   28.8199 C   0  0  0  0  0  0  0  0  0  0  0  0
  -26.3639  -20.9239   29.0672 C   0  0  0  0  0  0  0  0  0  1  0  0
  -25.9578  -27.4590   23.1394 C   0  0  1  0  0  0  0  0  0  0  0  0
  -28.1817  -30.1128   24.6827 C   0  0  2  0  0  0  0  0  0  0  0  0
  -28.0401  -19.3085   25.1259 C   0  0  1  0  0  0  0  0  0  0  0  0
  -25.8798  -27.2863   21.5962 C   0  0  0  0  0  0  0  0  0  0  0  0
  -25.8914  -11.5799   20.4104 N   0  0  0  0  0  0  0  0  0  0  0  0
  -26.2230  -12.8592   20.1668 N   0  0  0  0  0  0  0  0  0  0  0  0
  -24.3770  -26.4222   24.7363 N   0  0  0  0  0  0  0  0  0  0  0  0
  -29.8918  -13.8490   20.5455 N   0  0  0  0  0  0  0  0  0  0  0  0
  -25.3477  -15.0596   20.1110 N   0  0  0  0  0  0  0  0  0  0  0  0
  -21.7897  -12.5531   21.3171 N   0  0  0  0  0  0  0  0  0  0  0  0
  -29.8322  -16.0386   21.4199 N   0  0  0  0  0  0  0  0  0  0  0  0
  -21.0756  -24.8741   24.7444 N   0  0  0  0  0  0  0  0  0  0  0  0
  -27.2914  -19.3546   27.4311 N   0  0  0  0  0  0  0  0  0  0  0  0
  -26.5939  -28.6992   23.5705 N   0  0  0  0  0  0  0  0  0  0  0  0
  -28.7620  -30.1829   26.0536 N   0  3  0  0  0  0  0  0  0  0  0  0
  -22.4942  -14.6861   20.8558 O   0  0  0  0  0  0  0  0  0  0  0  0
  -23.0530  -24.5856   23.5490 O   0  0  0  0  0  0  0  0  0  0  0  0
  -23.7604  -28.2855   23.4777 O   0  0  0  0  0  0  0  0  0  0  0  0
  -28.2752  -27.7023   24.8182 O   0  0  0  0  0  0  0  0  0  0  0  0
  -29.0738  -20.7040   26.8059 O   0  0  0  0  0  0  0  0  0  0  0  0
  -31.7303  -15.2372   20.3538 O   0  0  0  0  0  0  0  0  0  0  0  0
  -21.7417   -7.0275   22.0243 O   0  0  0  0  0  0  0  0  0  0  0  0
  -26.8363  -22.0408   28.3151 O   0  0  0  0  0  0  0  0  0  1  0  0
  -29.0400  -19.8514   24.2799 O   0  0  0  0  0  0  0  0  0  0  0  0
  -16.7465   -6.3801   19.7808 F   0  0  0  0  0  0  0  0  0  0  0  0
  -21.1823   -4.8532   20.4111 F   0  0  0  0  0  0  0  0  0  0  0  0
  1  2  1  0  0  0  0
  1  6  2  0  0  0  0
  2  7  2  0  0  0  0
  3  9  1  0  0  0  0
  3 10  2  0  0  0  0
  4 11  2  0  0  0  0
  4 19  1  0  0  0  0
  5 12  1  0  0  0  0
  5 19  2  0  0  0  0
  6 21  1  0  0  0  0
  7 23  1  0  0  0  0
  8 13  2  0  0  0  0
  8 22  1  0  0  0  0
  9 25  2  0  0  0  0
 10 28  1  0  0  0  0
 11 26  1  0  0  0  0
 12 26  2  0  0  0  0
 13 27  1  0  0  0  0
 14 15  2  0  0  0  0
 14 29  1  0  0  0  0
 15 30  1  0  0  0  0
 16 24  1  0  0  0  0
 16 27  2  0  0  0  0
 17 25  1  0  0  0  0
 17 28  2  0  0  0  0
 18 30  2  0  0  0  0
 18 31  1  0  0  0  0
 19 32  1  0  0  0  0
 20 32  1  0  0  0  0
 20 33  2  0  0  0  0
 20 34  1  0  0  0  0
 21 23  2  0  0  0  0
 21 40  1  0  0  0  0
 22 24  2  0  0  0  0
 22 41  1  0  0  0  0
 23 49  1  0  0  0  0
 24 42  1  0  0  0  0
 25 70  1  0  0  0  0
 26 81  1  0  0  0  0
 27 82  1  0  0  0  0
 28 83  1  0  0  0  0
 29 31  2  0  0  0  0
 29 81  1  0  0  0  0
 30 84  1  0  0  0  0
 31 85  1  0  0  0  0
 32 64  2  0  0  0  0
 33 65  1  0  0  0  0
 33 68  1  0  0  0  0
 34 69  1  0  0  0  0
 34 75  2  0  0  0  0
 35 50  1  0  0  0  0
 35 71  1  0  0  0  0
 35 76  2  0  0  0  0
 36 60  1  0  0  0  0
 36 66  1  0  0  0  0
 36 77  2  0  0  0  0
 37 61  1  0  0  0  0
 37 73  1  0  0  0  0
 37 78  2  0  0  0  0
 38 62  1  0  0  0  0
 38 72  1  0  0  0  0
 38 79  2  0  0  0  0
 39 67  1  0  0  0  0
 39 70  1  0  0  0  0
 39 80  2  0  0  0  0
 40 43  1  0  0  0  0
 41 50  1  0  0  0  0
 42 66  1  0  0  0  0
 43 45  1  0  0  0  0
 44 46  1  0  0  0  0
 44 47  1  0  0  0  0
 45 49  1  0  0  0  0
 46 51  1  0  0  0  0
 47 67  1  0  0  0  0
 48 51  1  0  0  0  0
 48 67  1  0  0  0  0
 49 71  1  0  0  0  0
 50 66  1  0  0  0  0
 51 65  1  0  0  0  0
 52 61  1  0  0  0  0
 53 62  1  0  0  0  0
 54 63  1  0  0  0  0
 55 63  1  0  0  0  0
 56 63  1  0  0  0  0
 57 74  1  0  0  0  0
 58 59  1  0  0  0  0
 58 72  1  0  0  0  0
 59 82  1  0  0  0  0
 60 63  1  0  0  0  0
 60 73  1  0  0  0  0
 61 74  1  0  0  0  0
 62 83  1  0  0  0  0
 64 65  1  0  0  0  0
M  CHG  1  74   1
M  ISO  4  39 100  59 101  70 100  82 101
M  END
> <Batch ID>
0055

> <Smiles>
CNC(C)C(=O)NC(C(=O)N1Cc2cc([101O:1][101CH2:1]CNC(=O)C(C)Oc3cccc([100NH:0][100C:0](=O)N4CCCC(n5nc(-c6ccc(Oc7ccc(F)cc7F)cc6)c(C(N)=O)c5N)C4)c3)ccc2CC1C(=O)NC1CCCc2ccccc21)C(C)(C)C

> <Shape>
0.184

> <Color>
0.190

> <Negative vol penalty>
0.000

$$$$

  -OEChem-04042322493D

 86 94  0     1  0  0  0  0  0999 V2000
  -17.2122  -30.6193   23.4691 C   0  0  0  0  0  0  0  0  0  0  0  0
  -18.5466  -30.9395   23.2407 C   0  0  0  0  0  0  0  0  0  0  0  0
  -24.4502  -14.2583   21.0665 C   0  0  0  0  0  0  0  0  0  0  0  0
  -26.8377  -13.9337   20.8892 C   0  0  0  0  0  0  0  0  0  0  0  0
  -16.8125  -29.2840   23.5009 C   0  0  0  0  0  0  0  0  0  0  0  0
  -19.4824  -29.9245   23.0450 C   0  0  0  0  0  0  0  0  0  0  0  0
  -25.5135  -28.5088   19.4481 C   0  0  0  0  0  0  0  0  0  0  0  0
  -32.6168  -22.2463   22.6665 C   0  0  0  0  0  0  0  0  0  0  0  0
  -31.7306  -21.4975   21.8921 C   0  0  0  0  0  0  0  0  0  0  0  0
  -24.2394  -12.9580   20.6078 C   0  0  0  0  0  0  0  0  0  0  0  0
  -26.6269  -12.6334   20.4305 C   0  0  0  0  0  0  0  0  0  0  0  0
  -26.8106  -28.0439   19.6609 C   0  0  0  0  0  0  0  0  0  0  0  0
  -23.0813   -9.6018   19.8267 C   0  0  0  0  0  0  0  0  0  0  0  0
  -22.1405   -8.8216   20.4987 C   0  0  0  0  0  0  0  0  0  0  0  0
  -25.9913  -25.7750   19.6586 C   0  0  0  0  0  0  0  0  0  0  0  0
  -30.6234  -23.5286   21.1952 C   0  0  0  0  0  0  0  0  0  0  0  0
  -23.4158   -9.0410   22.5390 C   0  0  0  0  0  0  0  0  0  0  0  0
  -25.7494  -14.7462   21.2072 C   0  0  0  0  0  0  0  0  0  0  0  0
  -26.1238  -16.5053   23.0163 C   0  0  0  0  0  0  0  0  0  0  0  0
  -17.7422  -28.2523   23.2960 C   0  0  0  0  0  0  0  0  0  0  0  0
  -24.4422  -27.6093   19.3497 C   0  0  0  0  0  0  0  0  0  0  0  0
  -19.0950  -28.5740   23.0755 C   0  0  0  0  0  0  0  0  0  0  0  0
  -24.6819  -26.2309   19.4420 C   0  0  0  0  0  0  0  0  0  0  0  0
  -32.5062  -23.6362   22.7053 C   0  0  0  0  0  0  0  0  0  0  0  0
  -30.7340  -22.1387   21.1564 C   0  0  0  0  0  0  0  0  0  0  0  0
  -25.3277  -12.1456   20.2898 C   0  0  0  0  0  0  0  0  0  0  0  0
  -27.0492  -26.6770   19.7690 C   0  0  0  0  0  0  0  0  0  0  0  0
  -24.1895  -10.1016   20.5108 C   0  0  0  0  0  0  0  0  0  0  0  0
  -22.3076   -8.5412   21.8549 C   0  0  0  0  0  0  0  0  0  0  0  0
  -24.3567   -9.8212   21.8669 C   0  0  0  0  0  0  0  0  0  0  0  0
  -31.5096  -24.2774   21.9696 C   0  0  0  0  0  0  0  0  0  0  0  0
  -25.9678  -16.0895   21.6805 C   0  0  0  0  0  0  0  0  0  0  0  0
  -26.3032  -17.8645   22.9341 C   0  0  0  0  0  0  0  0  0  0  0  0
  -26.1079  -15.7321   24.2236 C   0  0  0  0  0  0  0  0  0  0  0  0
  -21.7825  -27.0980   21.0135 C   0  0  0  0  0  0  0  0  0  0  0  0
  -30.6635  -26.4828   20.3743 C   0  0  0  0  0  0  0  0  0  0  0  0
  -21.1558  -24.9958   18.6238 C   0  0  0  0  0  0  0  0  0  0  0  0
  -22.3608  -22.9886   16.1408 C   0  0  0  0  0  0  0  0  0  0  0  0
  -28.7894  -21.8557   19.5801 C   0  0  0  0  0  0  0  0  0  0  0  0
  -17.2714  -26.8223   23.3865 C   0  0  0  0  0  0  0  0  0  0  0  0
  -23.0528  -28.1254   19.0934 C   0  0  0  0  0  0  0  0  0  0  0  0
  -23.5693  -25.2228   19.3231 C   0  0  0  0  0  0  0  0  0  0  0  0
  -18.2582  -25.8177   22.7973 C   0  0  0  0  0  0  0  0  0  0  0  0
  -25.2700  -21.3173   19.5438 C   0  0  0  0  0  0  0  0  0  0  0  0
  -19.6735  -26.1108   23.2850 C   0  0  0  0  0  0  0  0  0  0  0  0
  -25.1047  -19.9552   20.2215 C   0  0  0  0  0  0  0  0  0  0  0  0
  -26.5262  -21.3703   18.6760 C   0  0  0  0  0  0  0  0  0  0  0  0
  -27.6026  -19.6196   20.0346 C   0  0  0  0  0  0  0  0  0  0  0  0
  -20.1354  -27.5018   22.8341 C   0  0  1  0  0  0  0  0  0  0  0  0
  -21.9635  -27.1474   19.5227 C   0  0  1  0  0  0  0  0  0  0  0  0
  -26.3857  -19.5393   20.9709 C   0  0  2  0  0  0  0  0  0  0  0  0
  -33.4714  -24.4084   23.5440 C   0  0  0  0  0  0  0  0  0  0  0  0
  -21.6096  -21.3628   14.3830 C   0  0  0  0  0  0  0  0  0  0  0  0
  -20.7340  -22.8712   20.7727 C   0  0  0  0  0  0  0  0  0  0  0  0
  -20.9334  -21.1264   18.9883 C   0  0  0  0  0  0  0  0  0  0  0  0
  -19.0838  -22.7977   18.8949 C   0  0  0  0  0  0  0  0  0  0  0  0
  -23.4425  -24.6698   13.9584 C   0  0  0  0  0  0  0  0  0  0  0  0
  -33.4221  -25.0714   18.8407 C   0  0  0  0  0  0  0  0  0  0  0  0
  -29.3494  -27.1979   20.0753 C   0  0  0  0  0  0  0  0  0  1  0  0
  -21.4472  -23.5345   18.3817 C   0  0  1  0  0  0  0  0  0  0  0  0
  -21.9399  -22.8146   14.6927 C   0  0  2  0  0  0  0  0  0  0  0  0
  -20.5705  -22.6013   19.2636 C   0  0  0  0  0  0  0  0  0  0  0  0
  -26.0416  -17.1025   20.8131 N   0  0  0  0  0  0  0  0  0  0  0  0
  -30.1877  -26.3499   22.9612 N   0  0  0  0  0  0  0  0  0  0  0  0
  -31.4677  -26.0921   19.4268 N   0  0  0  0  0  0  0  0  0  0  0  0
  -26.2458  -18.1684   21.6057 N   0  0  0  0  0  0  0  0  0  0  0  0
  -22.2274  -25.7771   19.0790 N   0  0  0  0  0  0  0  0  0  0  0  0
  -27.7002  -20.9678   19.4536 N   0  0  0  0  0  0  0  0  0  0  0  0
  -26.5029  -18.8175   23.8692 N   0  0  0  0  0  0  0  0  0  0  0  0
  -25.9118  -14.3476   24.1278 N   0  0  0  0  0  0  0  0  0  0  0  0
  -29.8347  -21.3773   20.3695 N   0  0  0  0  0  0  0  0  0  0  0  0
  -20.5244  -27.4781   21.4404 N   0  0  0  0  0  0  0  0  0  0  0  0
  -21.2924  -23.3197   16.9470 N   0  0  0  0  0  0  0  0  0  0  0  0
  -23.0327  -23.2531   13.7793 N   0  3  0  0  0  0  0  0  0  0  0  0
  -26.2465  -16.2556   25.3551 O   0  0  0  0  0  0  0  0  0  0  0  0
  -22.7148  -26.7401   21.7238 O   0  0  0  0  0  0  0  0  0  0  0  0
  -20.0210  -25.4297   18.4100 O   0  0  0  0  0  0  0  0  0  0  0  0
  -23.5208  -22.8416   16.5195 O   0  0  0  0  0  0  0  0  0  0  0  0
  -28.7829  -22.9702   19.0510 O   0  0  0  0  0  0  0  0  0  0  0  0
  -32.6695  -26.6178   21.9745 O   0  0  0  0  0  0  0  0  0  0  0  0
  -25.1224  -10.8766   19.8424 O   0  0  0  0  0  0  0  0  0  0  0  0
  -28.3142  -26.2206   19.9774 O   0  0  0  0  0  0  0  0  0  1  0  0
  -32.6082  -25.4611   19.9360 O   0  0  0  0  0  0  0  0  0  0  0  0
  -21.4032   -7.7933   22.5004 F   0  0  0  0  0  0  0  0  0  0  0  0
  -25.4186  -10.2995   22.5298 F   0  0  0  0  0  0  0  0  0  0  0  0
  -31.3422  -26.0337   21.9948 S   0  0  1  0  0  0  0  0  0  0  0  0
  1  2  1  0  0  0  0
  1  5  2  0  0  0  0
  2  6  2  0  0  0  0
  3 10  2  0  0  0  0
  3 18  1  0  0  0  0
  4 11  1  0  0  0  0
  4 18  2  0  0  0  0
  5 20  1  0  0  0  0
  6 22  1  0  0  0  0
  7 12  2  0  0  0  0
  7 21  1  0  0  0  0
  8  9  2  0  0  0  0
  8 24  1  0  0  0  0
  9 25  1  0  0  0  0
 10 26  1  0  0  0  0
 11 26  2  0  0  0  0
 12 27  1  0  0  0  0
 13 14  2  0  0  0  0
 13 28  1  0  0  0  0
 14 29  1  0  0  0  0
 15 23  1  0  0  0  0
 15 27  2  0  0  0  0
 16 25  2  0  0  0  0
 16 31  1  0  0  0  0
 17 29  2  0  0  0  0
 17 30  1  0  0  0  0
 18 32  1  0  0  0  0
 19 32  1  0  0  0  0
 19 33  2  0  0  0  0
 19 34  1  0  0  0  0
 20 22  2  0  0  0  0
 20 40  1  0  0  0  0
 21 23  2  0  0  0  0
 21 41  1  0  0  0  0
 22 49  1  0  0  0  0
 23 42  1  0  0  0  0
 24 31  2  0  0  0  0
 24 52  1  0  0  0  0
 25 71  1  0  0  0  0
 26 81  1  0  0  0  0
 27 82  1  0  0  0  0
 28 30  2  0  0  0  0
 28 81  1  0  0  0  0
 29 84  1  0  0  0  0
 30 85  1  0  0  0  0
 31 86  1  0  0  0  0
 32 63  2  0  0  0  0
 33 66  1  0  0  0  0
 33 69  1  0  0  0  0
 34 70  1  0  0  0  0
 34 75  2  0  0  0  0
 35 50  1  0  0  0  0
 35 72  1  0  0  0  0
 35 76  2  0  0  0  0
 36 59  1  0  0  0  0
 36 65  2  0  0  0  0
 36 86  1  0  0  0  0
 37 60  1  0  0  0  0
 37 67  1  0  0  0  0
 37 77  2  0  0  0  0
 38 61  1  0  0  0  0
 38 73  1  0  0  0  0
 38 78  2  0  0  0  0
 39 68  1  0  0  0  0
 39 71  1  0  0  0  0
 39 79  2  0  0  0  0
 40 43  1  0  0  0  0
 41 50  1  0  0  0  0
 42 67  1  0  0  0  0
 43 45  1  0  0  0  0
 44 46  1  0  0  0  0
 44 47  1  0  0  0  0
 45 49  1  0  0  0  0
 46 51  1  0  0  0  0
 47 68  1  0  0  0  0
 48 51  1  0  0  0  0
 48 68  1  0  0  0  0
 49 72  1  0  0  0  0
 50 67  1  0  0  0  0
 51 66  1  0  0  0  0
 53 61  1  0  0  0  0
 54 62  1  0  0  0  0
 55 62  1  0  0  0  0
 56 62  1  0  0  0  0
 57 74  1  0  0  0  0
 58 83  1  0  0  0  0
 59 82  1  0  0  0  0
 60 62  1  0  0  0  0
 60 73  1  0  0  0  0
 61 74  1  0  0  0  0
 63 66  1  0  0  0  0
 64 86  2  0  0  0  0
 65 83  1  0  0  0  0
 80 86  2  0  0  0  0
M  CHG  1  74   1
M  ISO  4  39 100  59 101  71 100  82 101
M  END
> <Batch ID>
0055

> <Smiles>
CNC(C)C(=O)NC(C(=O)N1Cc2cc([101O:1][101CH2:1]C(=NOC)S(=N)(=O)c3cc([100NH:0][100C:0](=O)N4CCCC(n5nc(-c6ccc(Oc7ccc(F)cc7F)cc6)c(C(N)=O)c5N)C4)ccc3C)ccc2CC1C(=O)NC1CCCc2ccccc21)C(C)(C)C

> <Shape>
0.230

> <Color>
0.100

> <Negative vol penalty>
0.000

$$$$

  -OEChem-04042322493D

 83 91  0     1  0  0  0  0  0999 V2000
  -28.1560  -36.4029   22.4316 C   0  0  0  0  0  0  0  0  0  0  0  0
  -28.4341  -35.0417   22.3602 C   0  0  0  0  0  0  0  0  0  0  0  0
  -29.9276  -20.9114   23.5154 C   0  0  0  0  0  0  0  0  0  0  0  0
  -24.6605  -12.2857   19.7749 C   0  0  0  0  0  0  0  0  0  0  0  0
  -25.6663  -12.9811   21.8586 C   0  0  0  0  0  0  0  0  0  0  0  0
  -26.9221  -36.8368   22.9146 C   0  0  0  0  0  0  0  0  0  0  0  0
  -27.4787  -34.1135   22.7728 C   0  0  0  0  0  0  0  0  0  0  0  0
  -26.9972  -30.2507   19.5337 C   0  0  0  0  0  0  0  0  0  0  0  0
  -30.8861  -21.7056   22.8862 C   0  0  0  0  0  0  0  0  0  0  0  0
  -28.8507  -20.4080   22.7856 C   0  0  0  0  0  0  0  0  0  0  0  0
  -25.1773  -11.0025   19.9537 C   0  0  0  0  0  0  0  0  0  0  0  0
  -26.1830  -11.6979   22.0375 C   0  0  0  0  0  0  0  0  0  0  0  0
  -27.9729  -29.2559   19.5794 C   0  0  0  0  0  0  0  0  0  0  0  0
  -24.4250   -8.2431   21.7573 C   0  0  0  0  0  0  0  0  0  0  0  0
  -23.5758   -7.1630   21.5169 C   0  0  0  0  0  0  0  0  0  0  0  0
  -26.4884  -27.8681   20.8792 C   0  0  0  0  0  0  0  0  0  0  0  0
  -29.6908  -21.4933   20.7973 C   0  0  0  0  0  0  0  0  0  0  0  0
  -25.0775   -6.3645   19.8009 C   0  0  0  0  0  0  0  0  0  0  0  0
  -24.9050  -13.2750   20.7273 C   0  0  0  0  0  0  0  0  0  0  0  0
  -23.1255  -15.0848   20.9833 C   0  0  0  0  0  0  0  0  0  0  0  0
  -25.9476  -35.9132   23.3242 C   0  0  0  0  0  0  0  0  0  0  0  0
  -25.7617  -30.0657   20.1706 C   0  0  0  0  0  0  0  0  0  0  0  0
  -26.2312  -34.5355   23.2630 C   0  0  0  0  0  0  0  0  0  0  0  0
  -25.4977  -28.8610   20.8378 C   0  0  0  0  0  0  0  0  0  0  0  0
  -30.7677  -21.9966   21.5271 C   0  0  0  0  0  0  0  0  0  0  0  0
  -28.7323  -20.6989   21.4266 C   0  0  0  0  0  0  0  0  0  0  0  0
  -25.9385  -10.7086   21.0850 C   0  0  0  0  0  0  0  0  0  0  0  0
  -27.7197  -28.0656   20.2547 C   0  0  0  0  0  0  0  0  0  0  0  0
  -25.6004   -8.3840   21.0195 C   0  0  0  0  0  0  0  0  0  0  0  0
  -23.9021   -6.2237   20.5387 C   0  0  0  0  0  0  0  0  0  0  0  0
  -25.9266   -7.4447   20.0413 C   0  0  0  0  0  0  0  0  0  0  0  0
  -24.3720  -14.6009   20.5429 C   0  0  0  0  0  0  0  0  0  0  0  0
  -23.0963  -16.3918   20.5621 C   0  0  0  0  0  0  0  0  0  0  0  0
  -22.0869  -14.4130   21.7083 C   0  0  0  0  0  0  0  0  0  0  0  0
  -24.2131  -31.5283   22.5299 C   0  0  0  0  0  0  0  0  0  0  0  0
  -21.8259  -29.4945   21.7008 C   0  0  0  0  0  0  0  0  0  0  0  0
  -30.8573  -25.1240   20.4535 C   0  0  0  0  0  0  0  0  0  0  0  0
  -20.9050  -26.5462   20.2495 C   0  0  0  0  0  0  0  0  0  0  0  0
  -27.3720  -20.3801   19.3304 C   0  0  0  0  0  0  0  0  0  0  0  0
  -24.6462  -36.4311   23.8836 C   0  0  0  0  0  0  0  0  0  0  0  0
  -24.7097  -31.1377   20.0893 C   0  0  0  0  0  0  0  0  0  0  0  0
  -24.1799  -28.6049   21.5207 C   0  0  0  0  0  0  0  0  0  0  0  0
  -23.5476  -35.3733   23.9494 C   0  0  0  0  0  0  0  0  0  0  0  0
  -24.8077  -19.2590   17.1292 C   0  0  0  0  0  0  0  0  0  0  0  0
  -24.0888  -34.0781   24.5463 C   0  0  0  0  0  0  0  0  0  0  0  0
  -24.2874  -17.9846   17.7980 C   0  0  0  0  0  0  0  0  0  0  0  0
  -26.3182  -19.4123   17.2986 C   0  0  0  0  0  0  0  0  0  0  0  0
  -26.2792  -18.0518   19.3521 C   0  0  0  0  0  0  0  0  0  0  0  0
  -25.2113  -33.4972   23.6778 C   0  0  1  0  0  0  0  0  0  0  0  0
  -23.6784  -31.0491   21.2100 C   0  0  1  0  0  0  0  0  0  0  0  0
  -24.7532  -17.8870   19.2640 C   0  0  2  0  0  0  0  0  0  0  0  0
  -18.8864  -25.1392   19.7565 C   0  0  0  0  0  0  0  0  0  0  0  0
  -21.7217  -28.6242   24.6234 C   0  0  0  0  0  0  0  0  0  0  0  0
  -20.4132  -26.6140   23.9057 C   0  0  0  0  0  0  0  0  0  0  0  0
  -19.4862  -28.9003   23.5368 C   0  0  0  0  0  0  0  0  0  0  0  0
  -21.3641  -26.7044   17.3301 C   0  0  0  0  0  0  0  0  0  0  0  0
  -31.7998  -22.8516   20.8503 C   0  0  0  0  0  0  0  0  0  0  0  0
  -30.8899  -26.5269   21.0395 C   0  0  0  0  0  0  0  0  0  0  0  0
  -30.0333  -27.5150   20.2629 C   0  0  0  0  0  0  0  0  0  1  0  0
  -21.4169  -28.1012   22.1135 C   0  0  1  0  0  0  0  0  0  0  0  0
  -19.8244  -26.2169   19.2355 C   0  0  2  0  0  0  0  0  0  0  0  0
  -20.7851  -28.0652   23.5337 C   0  0  0  0  0  0  0  0  0  0  0  0
  -25.0831  -15.5252   19.8917 N   0  0  0  0  0  0  0  0  0  0  0  0
  -24.2808  -16.6030   19.9198 N   0  0  0  0  0  0  0  0  0  0  0  0
  -23.1858  -29.6860   21.4184 N   0  0  0  0  0  0  0  0  0  0  0  0
  -26.6851  -19.3134   18.7130 N   0  0  0  0  0  0  0  0  0  0  0  0
  -22.1733  -17.3695   20.6821 N   0  0  0  0  0  0  0  0  0  0  0  0
  -22.2799  -13.0707   22.0623 N   0  0  0  0  0  0  0  0  0  0  0  0
  -27.6386  -20.1868   20.6854 N   0  0  0  0  0  0  0  0  0  0  0  0
  -24.6597  -32.8359   22.5147 N   0  0  0  0  0  0  0  0  0  0  0  0
  -31.6479  -24.2494   21.1849 N   0  0  0  0  0  0  0  0  0  0  0  0
  -20.5422  -27.6029   21.0576 N   0  0  0  0  0  0  0  0  0  0  0  0
  -20.4360  -25.7338   17.9652 N   0  3  0  0  0  0  0  0  0  0  0  0
  -21.0124  -14.9812   22.0183 O   0  0  0  0  0  0  0  0  0  0  0  0
  -24.2185  -30.7685   23.4914 O   0  0  0  0  0  0  0  0  0  0  0  0
  -20.9691  -30.3787   21.6247 O   0  0  0  0  0  0  0  0  0  0  0  0
  -30.2053  -24.8254   19.4566 O   0  0  0  0  0  0  0  0  0  0  0  0
  -21.9634  -25.9255   20.3204 O   0  0  0  0  0  0  0  0  0  0  0  0
  -27.6755  -21.4022   18.7097 O   0  0  0  0  0  0  0  0  0  0  0  0
  -26.4428   -9.4565   21.2599 O   0  0  0  0  0  0  0  0  0  0  0  0
  -28.6706  -27.0932   20.3015 O   0  0  0  0  0  0  0  0  0  1  0  0
  -23.0873   -5.1856   20.3089 F   0  0  0  0  0  0  0  0  0  0  0  0
  -27.0550   -7.5741   19.3301 F   0  0  0  0  0  0  0  0  0  0  0  0
  1  2  1  0  0  0  0
  1  6  2  0  0  0  0
  2  7  2  0  0  0  0
  3  9  2  0  0  0  0
  3 10  1  0  0  0  0
  4 11  2  0  0  0  0
  4 19  1  0  0  0  0
  5 12  1  0  0  0  0
  5 19  2  0  0  0  0
  6 21  1  0  0  0  0
  7 23  1  0  0  0  0
  8 13  2  0  0  0  0
  8 22  1  0  0  0  0
  9 25  1  0  0  0  0
 10 26  2  0  0  0  0
 11 27  1  0  0  0  0
 12 27  2  0  0  0  0
 13 28  1  0  0  0  0
 14 15  2  0  0  0  0
 14 29  1  0  0  0  0
 15 30  1  0  0  0  0
 16 24  1  0  0  0  0
 16 28  2  0  0  0  0
 17 25  2  0  0  0  0
 17 26  1  0  0  0  0
 18 30  2  0  0  0  0
 18 31  1  0  0  0  0
 19 32  1  0  0  0  0
 20 32  1  0  0  0  0
 20 33  2  0  0  0  0
 20 34  1  0  0  0  0
 21 23  2  0  0  0  0
 21 40  1  0  0  0  0
 22 24  2  0  0  0  0
 22 41  1  0  0  0  0
 23 49  1  0  0  0  0
 24 42  1  0  0  0  0
 25 57  1  0  0  0  0
 26 69  1  0  0  0  0
 27 80  1  0  0  0  0
 28 81  1  0  0  0  0
 29 31  2  0  0  0  0
 29 80  1  0  0  0  0
 30 82  1  0  0  0  0
 31 83  1  0  0  0  0
 32 63  2  0  0  0  0
 33 64  1  0  0  0  0
 33 67  1  0  0  0  0
 34 68  1  0  0  0  0
 34 74  2  0  0  0  0
 35 50  1  0  0  0  0
 35 70  1  0  0  0  0
 35 75  2  0  0  0  0
 36 60  1  0  0  0  0
 36 65  1  0  0  0  0
 36 76  2  0  0  0  0
 37 58  1  0  0  0  0
 37 71  1  0  0  0  0
 37 77  2  0  0  0  0
 38 61  1  0  0  0  0
 38 72  1  0  0  0  0
 38 78  2  0  0  0  0
 39 66  1  0  0  0  0
 39 69  1  0  0  0  0
 39 79  2  0  0  0  0
 40 43  1  0  0  0  0
 41 50  1  0  0  0  0
 42 65  1  0  0  0  0
 43 45  1  0  0  0  0
 44 46  1  0  0  0  0
 44 47  1  0  0  0  0
 45 49  1  0  0  0  0
 46 51  1  0  0  0  0
 47 66  1  0  0  0  0
 48 51  1  0  0  0  0
 48 66  1  0  0  0  0
 49 70  1  0  0  0  0
 50 65  1  0  0  0  0
 51 64  1  0  0  0  0
 52 61  1  0  0  0  0
 53 62  1  0  0  0  0
 54 62  1  0  0  0  0
 55 62  1  0  0  0  0
 56 73  1  0  0  0  0
 57 71  1  0  0  0  0
 58 59  1  0  0  0  0
 59 81  1  0  0  0  0
 60 62  1  0  0  0  0
 60 72  1  0  0  0  0
 61 73  1  0  0  0  0
 63 64  1  0  0  0  0
M  CHG  1  73   1
M  ISO  4  39 100  59 101  69 100  81 101
M  END
> <Batch ID>
0055

> <Smiles>
CNC(C)C(=O)NC(C(=O)N1Cc2cc([101O:1][101CH2:1]CC(=O)NCc3cccc([100NH:0][100C:0](=O)N4CCCC(n5nc(-c6ccc(Oc7ccc(F)cc7F)cc6)c(C(N)=O)c5N)C4)c3)ccc2CC1C(=O)NC1CCCc2ccccc21)C(C)(C)C

> <Shape>
0.274

> <Color>
0.093

> <Negative vol penalty>
0.000

$$$$

  -OEChem-04042322493D

 86 94  0     1  0  0  0  0  0999 V2000
  -32.0441  -15.4569   19.9333 C   0  0  0  0  0  0  0  0  0  0  0  0
  -31.0026  -16.3791   19.9488 C   0  0  0  0  0  0  0  0  0  0  0  0
  -18.3152  -27.6960   21.7690 C   0  0  0  0  0  0  0  0  0  0  0  0
  -28.4482  -26.2195   18.2699 C   0  0  0  0  0  0  0  0  0  0  0  0
  -26.3948  -25.0259   18.7126 C   0  0  0  0  0  0  0  0  0  0  0  0
  -31.7653  -14.0935   19.8468 C   0  0  0  0  0  0  0  0  0  0  0  0
  -29.6816  -15.9384   19.8767 C   0  0  0  0  0  0  0  0  0  0  0  0
  -26.6667  -18.2850   23.2007 C   0  0  0  0  0  0  0  0  0  0  0  0
  -18.6333  -26.4302   22.2610 C   0  0  0  0  0  0  0  0  0  0  0  0
  -19.0695  -28.8041   22.1547 C   0  0  0  0  0  0  0  0  0  0  0  0
  -29.1631  -25.0258   18.3676 C   0  0  0  0  0  0  0  0  0  0  0  0
  -27.1097  -23.8322   18.8102 C   0  0  0  0  0  0  0  0  0  0  0  0
  -26.2464  -19.5748   22.8790 C   0  0  0  0  0  0  0  0  0  0  0  0
  -28.4904  -21.5782   16.7046 C   0  0  0  0  0  0  0  0  0  0  0  0
  -27.9727  -20.4593   16.0522 C   0  0  0  0  0  0  0  0  0  0  0  0
  -24.1262  -18.6931   22.1398 C   0  0  0  0  0  0  0  0  0  0  0  0
  -27.8297  -19.2942   18.1640 C   0  0  0  0  0  0  0  0  0  0  0  0
  -27.0640  -26.2196   18.4425 C   0  0  0  0  0  0  0  0  0  0  0  0
  -25.7518  -28.0081   17.1827 C   0  0  0  0  0  0  0  0  0  0  0  0
  -30.4399  -13.6354   19.7833 C   0  0  0  0  0  0  0  0  0  0  0  0
  -25.8225  -17.1865   22.9838 C   0  0  0  0  0  0  0  0  0  0  0  0
  -29.3848  -14.5677   19.7879 C   0  0  0  0  0  0  0  0  0  0  0  0
  -24.5372  -17.3907   22.4620 C   0  0  0  0  0  0  0  0  0  0  0  0
  -19.7057  -26.2724   23.1389 C   0  0  0  0  0  0  0  0  0  0  0  0
  -20.1420  -28.6463   23.0326 C   0  0  0  0  0  0  0  0  0  0  0  0
  -20.4601  -27.3805   23.5247 C   0  0  0  0  0  0  0  0  0  0  0  0
  -28.4939  -23.8321   18.6378 C   0  0  0  0  0  0  0  0  0  0  0  0
  -24.9771  -19.7787   22.3458 C   0  0  0  0  0  0  0  0  0  0  0  0
  -28.6778  -21.5552   18.0866 C   0  0  0  0  0  0  0  0  0  0  0  0
  -27.6423  -19.3173   16.7819 C   0  0  0  0  0  0  0  0  0  0  0  0
  -28.3475  -20.4132   18.8163 C   0  0  0  0  0  0  0  0  0  0  0  0
  -26.3250  -27.4524   18.3423 C   0  0  0  0  0  0  0  0  0  0  0  0
  -25.1663  -29.1734   17.6137 C   0  0  0  0  0  0  0  0  0  0  0  0
  -23.4539  -21.5260   22.6584 C   0  0  0  0  0  0  0  0  0  1  0  0
  -25.7488  -27.5149   15.8364 C   0  0  0  0  0  0  0  0  0  0  0  0
  -22.8987  -22.7349   22.4807 C   0  0  0  0  0  0  0  0  0  0  0  0
  -21.6760  -23.0700   23.2787 C   0  0  0  0  0  0  0  0  0  0  0  0
  -25.9647  -14.5687   21.1865 C   0  0  0  0  0  0  0  0  0  0  0  0
  -23.2361  -13.8070   22.7666 C   0  0  0  0  0  0  0  0  0  0  0  0
  -20.5006  -14.8750   24.5054 C   0  0  0  0  0  0  0  0  0  0  0  0
  -23.0930  -30.9690   22.9361 C   0  0  0  0  0  0  0  0  0  0  0  0
  -30.1895  -12.1548   19.6431 C   0  0  0  0  0  0  0  0  0  0  0  0
  -26.2808  -15.8044   23.3611 C   0  0  0  0  0  0  0  0  0  0  0  0
  -23.5851  -16.2471   22.2288 C   0  0  0  0  0  0  0  0  0  0  0  0
  -28.7499  -11.7489   19.9482 C   0  0  0  0  0  0  0  0  0  0  0  0
  -25.5932  -32.5620   20.9643 C   0  0  0  0  0  0  0  0  0  0  0  0
  -27.7712  -12.6843   19.2454 C   0  0  0  0  0  0  0  0  0  0  0  0
  -26.0126  -31.4832   19.9641 C   0  0  0  0  0  0  0  0  0  0  0  0
  -25.2787  -31.9684   22.3357 C   0  0  0  0  0  0  0  0  0  0  0  0
  -24.7110  -29.7938   21.3244 C   0  0  0  0  0  0  0  0  0  0  0  0
  -27.9379  -14.1274   19.7364 C   0  0  1  0  0  0  0  0  0  0  0  0
  -25.5307  -14.7028   22.6187 C   0  0  1  0  0  0  0  0  0  0  0  0
  -24.9844  -30.3372   19.9115 C   0  0  2  0  0  0  0  0  0  0  0  0
  -21.6100  -27.2113   24.4660 C   0  0  0  0  0  0  0  0  0  0  0  0
  -18.4289  -14.0225   25.6360 C   0  0  0  0  0  0  0  0  0  0  0  0
  -21.9222  -13.3958   20.0437 C   0  0  0  0  0  0  0  0  0  0  0  0
  -19.6944  -13.4889   21.1823 C   0  0  0  0  0  0  0  0  0  0  0  0
  -21.3158  -11.6845   21.7636 C   0  0  0  0  0  0  0  0  0  0  0  0
  -21.3596  -15.9320   27.1329 C   0  0  0  0  0  0  0  0  0  0  0  0
  -20.0272  -24.8992   23.6536 C   0  0  0  0  0  0  0  0  0  0  0  0
  -20.9340  -29.8491   23.4297 C   0  0  0  0  0  0  0  0  0  0  0  0
  -21.7640  -14.0497   22.5363 C   0  0  1  0  0  0  0  0  0  0  0  0
  -19.8907  -14.4028   25.8128 C   0  0  2  0  0  0  0  0  0  0  0  0
  -21.1925  -13.1763   21.3839 C   0  0  0  0  0  0  0  0  0  0  0  0
  -26.1222  -28.2030   19.4283 N   0  0  0  0  0  0  0  0  0  0  0  0
  -25.4151  -29.2424   18.9530 N   0  0  0  0  0  0  0  0  0  0  0  0
  -24.0817  -14.9140   22.6078 N   0  0  0  0  0  0  0  0  0  0  0  0
  -24.2964  -30.8883   22.2162 N   0  0  0  0  0  0  0  0  0  0  0  0
  -24.4683  -30.1356   16.9740 N   0  0  0  0  0  0  0  0  0  0  0  0
  -26.3970  -26.3017   15.5679 N   0  0  0  0  0  0  0  0  0  0  0  0
  -21.1952  -24.3402   23.0107 N   0  0  0  0  0  0  0  0  0  0  0  0
  -27.3104  -14.2969   21.0295 N   0  0  0  0  0  0  0  0  0  0  0  0
  -21.1099  -13.8427   23.8238 N   0  0  0  0  0  0  0  0  0  0  0  0
  -22.2148  -29.9066   22.7611 N   0  0  0  0  0  0  0  0  0  0  0  0
  -19.9755  -15.4774   26.8419 N   0  3  0  0  0  0  0  0  0  0  0  0
  -25.2019  -28.1401   14.8964 O   0  0  0  0  0  0  0  0  0  0  0  0
  -21.1795  -22.2810   24.0778 O   0  0  0  0  0  0  0  0  0  0  0  0
  -25.1395  -14.7005   20.2902 O   0  0  0  0  0  0  0  0  0  0  0  0
  -23.6207  -12.6784   23.0830 O   0  0  0  0  0  0  0  0  0  0  0  0
  -20.4393  -16.0420   24.1248 O   0  0  0  0  0  0  0  0  0  0  0  0
  -22.8191  -31.9203   23.6757 O   0  0  0  0  0  0  0  0  0  0  0  0
  -23.3800  -23.6902   21.6126 O   0  0  0  0  0  0  0  0  0  0  0  0
  -29.1912  -22.6671   18.7329 O   0  0  0  0  0  0  0  0  0  0  0  0
  -24.5646  -21.0366   22.0303 O   0  0  0  0  0  0  0  0  0  1  0  0
  -27.1437  -18.2434   16.1555 F   0  0  0  0  0  0  0  0  0  0  0  0
  -28.5243  -20.3855   20.1444 F   0  0  0  0  0  0  0  0  0  0  0  0
  1  2  1  0  0  0  0
  1  6  2  0  0  0  0
  2  7  2  0  0  0  0
  3  9  2  0  0  0  0
  3 10  1  0  0  0  0
  4 11  2  0  0  0  0
  4 18  1  0  0  0  0
  5 12  1  0  0  0  0
  5 18  2  0  0  0  0
  6 20  1  0  0  0  0
  7 22  1  0  0  0  0
  8 13  2  0  0  0  0
  8 21  1  0  0  0  0
  9 24  1  0  0  0  0
 10 25  2  0  0  0  0
 11 27  1  0  0  0  0
 12 27  2  0  0  0  0
 13 28  1  0  0  0  0
 14 15  2  0  0  0  0
 14 29  1  0  0  0  0
 15 30  1  0  0  0  0
 16 23  1  0  0  0  0
 16 28  2  0  0  0  0
 17 30  2  0  0  0  0
 17 31  1  0  0  0  0
 18 32  1  0  0  0  0
 19 32  1  0  0  0  0
 19 33  2  0  0  0  0
 19 35  1  0  0  0  0
 20 22  2  0  0  0  0
 20 42  1  0  0  0  0
 21 23  2  0  0  0  0
 21 43  1  0  0  0  0
 22 51  1  0  0  0  0
 23 44  1  0  0  0  0
 24 26  2  0  0  0  0
 24 60  1  0  0  0  0
 25 26  1  0  0  0  0
 25 61  1  0  0  0  0
 26 54  1  0  0  0  0
 27 83  1  0  0  0  0
 28 84  1  0  0  0  0
 29 31  2  0  0  0  0
 29 83  1  0  0  0  0
 30 85  1  0  0  0  0
 31 86  1  0  0  0  0
 32 65  2  0  0  0  0
 33 66  1  0  0  0  0
 33 69  1  0  0  0  0
 34 36  2  0  0  0  0
 34 84  1  0  0  0  0
 35 70  1  0  0  0  0
 35 76  2  0  0  0  0
 36 37  1  0  0  0  0
 36 82  1  0  0  0  0
 37 71  1  0  0  0  0
 37 77  2  0  0  0  0
 38 52  1  0  0  0  0
 38 72  1  0  0  0  0
 38 78  2  0  0  0  0
 39 62  1  0  0  0  0
 39 67  1  0  0  0  0
 39 79  2  0  0  0  0
 40 63  1  0  0  0  0
 40 73  1  0  0  0  0
 40 80  2  0  0  0  0
 41 68  1  0  0  0  0
 41 74  1  0  0  0  0
 41 81  2  0  0  0  0
 42 45  1  0  0  0  0
 43 52  1  0  0  0  0
 44 67  1  0  0  0  0
 45 47  1  0  0  0  0
 46 48  1  0  0  0  0
 46 49  1  0  0  0  0
 47 51  1  0  0  0  0
 48 53  1  0  0  0  0
 49 68  1  0  0  0  0
 50 53  1  0  0  0  0
 50 68  1  0  0  0  0
 51 72  1  0  0  0  0
 52 67  1  0  0  0  0
 53 66  1  0  0  0  0
 55 63  1  0  0  0  0
 56 64  1  0  0  0  0
 57 64  1  0  0  0  0
 58 64  1  0  0  0  0
 59 75  1  0  0  0  0
 60 71  1  0  0  0  0
 61 74  1  0  0  0  0
 62 64  1  0  0  0  0
 62 73  1  0  0  0  0
 63 75  1  0  0  0  0
 65 66  1  0  0  0  0
M  CHG  1  75   1
M  ISO  4  34 101  41 100  74 100  84 101
M  END
> <Batch ID>
0055

> <Smiles>
CNC(C)C(=O)NC(C(=O)N1Cc2cc([101O:1][101CH2:1]C(=O)C(=O)NCc3cccc(C[100NH:0][100C:0](=O)N4CCCC(n5nc(-c6ccc(Oc7ccc(F)cc7F)cc6)c(C(N)=O)c5N)C4)c3C)ccc2CC1C(=O)NC1CCCc2ccccc21)C(C)(C)C

> <Shape>
0.218

> <Color>
0.088

> <Negative vol penalty>
0.000

$$$$

  -OEChem-04042322493D

 84 92  0     1  0  0  0  0  0999 V2000
  -32.5109  -19.4785   25.9471 C   0  0  0  0  0  0  0  0  0  0  0  0
  -31.2913  -20.0870   26.2262 C   0  0  0  0  0  0  0  0  0  0  0  0
  -29.0425  -26.1264   20.5422 C   0  0  0  0  0  0  0  0  0  0  0  0
  -27.2390  -26.1241   18.9345 C   0  0  0  0  0  0  0  0  0  0  0  0
  -32.7091  -18.8475   24.7197 C   0  0  0  0  0  0  0  0  0  0  0  0
  -30.2696  -20.0657   25.2774 C   0  0  0  0  0  0  0  0  0  0  0  0
  -23.1285  -19.8184   24.7680 C   0  0  0  0  0  0  0  0  0  0  0  0
  -29.4409  -24.8660   20.0970 C   0  0  0  0  0  0  0  0  0  0  0  0
  -27.6375  -24.8637   18.4893 C   0  0  0  0  0  0  0  0  0  0  0  0
  -22.0680  -20.4907   24.1621 C   0  0  0  0  0  0  0  0  0  0  0  0
  -27.3359  -21.6528   19.5043 C   0  0  0  0  0  0  0  0  0  0  0  0
  -26.3444  -20.6917   19.3073 C   0  0  0  0  0  0  0  0  0  0  0  0
  -22.4967  -19.3025   22.1070 C   0  0  0  0  0  0  0  0  0  0  0  0
  -19.5164  -27.7040   21.7011 C   0  0  0  0  0  0  0  0  0  0  0  0
  -17.6185  -26.7264   22.8322 C   0  0  0  0  0  0  0  0  0  0  0  0
  -18.2444  -29.0163   23.2814 C   0  0  0  0  0  0  0  0  0  0  0  0
  -26.9665  -20.5272   16.9786 C   0  0  0  0  0  0  0  0  0  0  0  0
  -27.9415  -26.7555   19.9610 C   0  0  0  0  0  0  0  0  0  0  0  0
  -27.9601  -29.3063   19.9351 C   0  0  0  0  0  0  0  0  0  0  0  0
  -31.6860  -18.8102   23.7593 C   0  0  0  0  0  0  0  0  0  0  0  0
  -23.8892  -18.8895   24.0436 C   0  0  0  0  0  0  0  0  0  0  0  0
  -30.4548  -19.4348   24.0355 C   0  0  0  0  0  0  0  0  0  0  0  0
  -23.5647  -18.6178   22.7068 C   0  0  0  0  0  0  0  0  0  0  0  0
  -18.6751  -26.6149   21.9284 C   0  0  0  0  0  0  0  0  0  0  0  0
  -19.3011  -28.9048   22.3777 C   0  0  0  0  0  0  0  0  0  0  0  0
  -28.7385  -24.2346   19.0706 C   0  0  0  0  0  0  0  0  0  0  0  0
  -21.7538  -20.2349   22.8306 C   0  0  0  0  0  0  0  0  0  0  0  0
  -28.1427  -22.0511   18.4384 C   0  0  0  0  0  0  0  0  0  0  0  0
  -26.1597  -20.1289   18.0445 C   0  0  0  0  0  0  0  0  0  0  0  0
  -27.9580  -21.4883   17.1756 C   0  0  0  0  0  0  0  0  0  0  0  0
  -17.4032  -27.9272   23.5087 C   0  0  0  0  0  0  0  0  0  0  0  0
  -27.5290  -28.0572   20.4208 C   0  0  0  0  0  0  0  0  0  0  0  0
  -27.2790  -30.2243   20.6966 C   0  0  0  0  0  0  0  0  0  0  0  0
  -28.8926  -29.6095   18.8892 C   0  0  0  0  0  0  0  0  0  0  0  0
  -26.9411  -18.6753   23.1812 C   0  0  0  0  0  0  0  0  0  0  0  0
  -26.0279  -15.7542   22.1062 C   0  0  0  0  0  0  0  0  0  0  0  0
  -19.8143  -23.0443   21.6083 C   0  0  0  0  0  0  0  0  0  0  0  0
  -23.5096  -13.7256   21.0153 C   0  0  0  0  0  0  0  0  0  0  0  0
  -22.1120  -29.9896   23.7130 C   0  0  0  0  0  0  0  0  0  0  0  0
  -31.9633  -18.1572   22.4283 C   0  0  0  0  0  0  0  0  0  0  0  0
  -25.0131  -18.1531   24.7194 C   0  0  0  0  0  0  0  0  0  0  0  0
  -24.3377  -17.6149   21.8912 C   0  0  0  0  0  0  0  0  0  0  0  0
  -30.7018  -17.8544   21.6238 C   0  0  0  0  0  0  0  0  0  0  0  0
  -25.3242  -30.7841   25.0274 C   0  0  0  0  0  0  0  0  0  0  0  0
  -29.7687  -19.0612   21.6199 C   0  0  0  0  0  0  0  0  0  0  0  0
  -26.2924  -30.2880   23.9520 C   0  0  0  0  0  0  0  0  0  0  0  0
  -24.1143  -29.8626   25.1660 C   0  0  0  0  0  0  0  0  0  0  0  0
  -24.3568  -29.1040   22.8337 C   0  0  0  0  0  0  0  0  0  0  0  0
  -29.3137  -19.4114   23.0418 C   0  0  1  0  0  0  0  0  0  0  0  0
  -26.0445  -17.6056   23.7376 C   0  0  1  0  0  0  0  0  0  0  0  0
  -25.5653  -30.0311   22.6184 C   0  0  2  0  0  0  0  0  0  0  0  0
  -23.0771  -11.4020   20.1721 C   0  0  0  0  0  0  0  0  0  0  0  0
  -27.2119  -16.5183   19.3999 C   0  0  0  0  0  0  0  0  0  0  0  0
  -25.9371  -14.6182   18.3839 C   0  0  0  0  0  0  0  0  0  0  0  0
  -27.6756  -14.1672   20.1150 C   0  0  0  0  0  0  0  0  0  0  0  0
  -21.6903  -13.1214   23.2700 C   0  0  0  0  0  0  0  0  0  0  0  0
  -18.9065  -25.3233   21.1988 C   0  0  0  0  0  0  0  0  0  0  0  0
  -20.2003  -30.0692   22.1325 C   0  0  0  0  0  0  0  0  0  0  0  0
  -20.4262  -22.2044   22.7091 C   0  0  0  0  0  0  0  0  0  1  0  0
  -25.4815  -15.2164   20.8057 C   0  0  1  0  0  0  0  0  0  0  0  0
  -23.1234  -12.3071   21.3934 C   0  0  2  0  0  0  0  0  0  0  0  0
  -26.5630  -15.1504   19.6907 C   0  0  0  0  0  0  0  0  0  0  0  0
  -26.6429  -28.1680   21.4140 N   0  0  0  0  0  0  0  0  0  0  0  0
  -26.5116  -29.4977   21.5587 N   0  0  0  0  0  0  0  0  0  0  0  0
  -25.4316  -16.9252   22.5949 N   0  0  0  0  0  0  0  0  0  0  0  0
  -23.4691  -29.6612   23.8663 N   0  0  0  0  0  0  0  0  0  0  0  0
  -27.2678  -31.5742   20.7062 N   0  0  0  0  0  0  0  0  0  0  0  0
  -29.5019  -28.5467   18.2084 N   0  0  0  0  0  0  0  0  0  0  0  0
  -28.2787  -18.4999   23.4802 N   0  0  0  0  0  0  0  0  0  0  0  0
  -19.5035  -24.3207   22.0505 N   0  0  0  0  0  0  0  0  0  0  0  0
  -24.8691  -13.9303   21.1211 N   0  0  0  0  0  0  0  0  0  0  0  0
  -21.5803  -29.7739   22.4475 N   0  0  0  0  0  0  0  0  0  0  0  0
  -21.7816  -12.2908   22.0416 N   0  3  0  0  0  0  0  0  0  0  0  0
  -29.1896  -30.7881   18.5789 O   0  0  0  0  0  0  0  0  0  0  0  0
  -26.4555  -19.5911   22.5276 O   0  0  0  0  0  0  0  0  0  0  0  0
  -26.9450  -15.1533   22.6713 O   0  0  0  0  0  0  0  0  0  0  0  0
  -19.6276  -22.6170   20.4723 O   0  0  0  0  0  0  0  0  0  0  0  0
  -22.6879  -14.5669   20.6579 O   0  0  0  0  0  0  0  0  0  0  0  0
  -21.4266  -30.4466   24.6340 O   0  0  0  0  0  0  0  0  0  0  0  0
  -29.1272  -23.0048   18.6358 O   0  0  0  0  0  0  0  0  0  0  0  0
  -20.7195  -20.8902   22.2366 O   0  0  0  0  0  0  0  0  0  1  0  0
  -25.2085  -19.2049   17.8558 F   0  0  0  0  0  0  0  0  0  0  0  0
  -28.7308  -21.8661   16.1480 F   0  0  0  0  0  0  0  0  0  0  0  0
  -16.1002  -28.0644   24.6248 Cl  0  0  0  0  0  0  0  0  0  0  0  0
  1  2  1  0  0  0  0
  1  5  2  0  0  0  0
  2  6  2  0  0  0  0
  3  8  2  0  0  0  0
  3 18  1  0  0  0  0
  4  9  1  0  0  0  0
  4 18  2  0  0  0  0
  5 20  1  0  0  0  0
  6 22  1  0  0  0  0
  7 10  2  0  0  0  0
  7 21  1  0  0  0  0
  8 26  1  0  0  0  0
  9 26  2  0  0  0  0
 10 27  1  0  0  0  0
 11 12  2  0  0  0  0
 11 28  1  0  0  0  0
 12 29  1  0  0  0  0
 13 23  1  0  0  0  0
 13 27  2  0  0  0  0
 14 24  2  0  0  0  0
 14 25  1  0  0  0  0
 15 24  1  0  0  0  0
 15 31  2  0  0  0  0
 16 25  2  0  0  0  0
 16 31  1  0  0  0  0
 17 29  2  0  0  0  0
 17 30  1  0  0  0  0
 18 32  1  0  0  0  0
 19 32  1  0  0  0  0
 19 33  2  0  0  0  0
 19 34  1  0  0  0  0
 20 22  2  0  0  0  0
 20 40  1  0  0  0  0
 21 23  2  0  0  0  0
 21 41  1  0  0  0  0
 22 49  1  0  0  0  0
 23 42  1  0  0  0  0
 24 57  1  0  0  0  0
 25 58  1  0  0  0  0
 26 80  1  0  0  0  0
 27 81  1  0  0  0  0
 28 30  2  0  0  0  0
 28 80  1  0  0  0  0
 29 82  1  0  0  0  0
 30 83  1  0  0  0  0
 31 84  1  0  0  0  0
 32 63  2  0  0  0  0
 33 64  1  0  0  0  0
 33 67  1  0  0  0  0
 34 68  1  0  0  0  0
 34 74  2  0  0  0  0
 35 50  1  0  0  0  0
 35 69  1  0  0  0  0
 35 75  2  0  0  0  0
 36 60  1  0  0  0  0
 36 65  1  0  0  0  0
 36 76  2  0  0  0  0
 37 59  1  0  0  0  0
 37 70  1  0  0  0  0
 37 77  2  0  0  0  0
 38 61  1  0  0  0  0
 38 71  1  0  0  0  0
 38 78  2  0  0  0  0
 39 66  1  0  0  0  0
 39 72  1  0  0  0  0
 39 79  2  0  0  0  0
 40 43  1  0  0  0  0
 41 50  1  0  0  0  0
 42 65  1  0  0  0  0
 43 45  1  0  0  0  0
 44 46  1  0  0  0  0
 44 47  1  0  0  0  0
 45 49  1  0  0  0  0
 46 51  1  0  0  0  0
 47 66  1  0  0  0  0
 48 51  1  0  0  0  0
 48 66  1  0  0  0  0
 49 69  1  0  0  0  0
 50 65  1  0  0  0  0
 51 64  1  0  0  0  0
 52 61  1  0  0  0  0
 53 62  1  0  0  0  0
 54 62  1  0  0  0  0
 55 62  1  0  0  0  0
 56 73  1  0  0  0  0
 57 70  1  0  0  0  0
 58 72  1  0  0  0  0
 59 81  1  0  0  0  0
 60 62  1  0  0  0  0
 60 71  1  0  0  0  0
 61 73  1  0  0  0  0
 63 64  1  0  0  0  0
M  CHG  1  73   1
M  ISO  4  39 100  59 101  72 100  81 101
M  END
> <Batch ID>
0055

> <Smiles>
CNC(C)C(=O)NC(C(=O)N1Cc2cc([101O:1][101CH2:1]C(=O)NCc3cc(Cl)cc(C[100NH:0][100C:0](=O)N4CCCC(n5nc(-c6ccc(Oc7ccc(F)cc7F)cc6)c(C(N)=O)c5N)C4)c3)ccc2CC1C(=O)NC1CCCc2ccccc21)C(C)(C)C

> <Shape>
0.209

> <Color>
0.077

> <Negative vol penalty>
0.000

$$$$

  -OEChem-04042322493D

 87 95  0     1  0  0  0  0  0999 V2000
  -24.9346  -19.6869   12.5978 C   0  0  0  0  0  0  0  0  0  0  0  0
  -25.1444  -20.6701   13.5594 C   0  0  0  0  0  0  0  0  0  0  0  0
  -19.4660  -22.1853   18.5584 C   0  0  0  0  0  0  0  0  0  0  0  0
  -21.6349  -23.1812   18.1833 C   0  0  0  0  0  0  0  0  0  0  0  0
  -25.1443  -30.3203   19.8374 C   0  0  0  0  0  0  0  0  0  0  0  0
  -25.0415  -18.3406   12.9442 C   0  0  0  0  0  0  0  0  0  0  0  0
  -25.4603  -20.3075   14.8683 C   0  0  0  0  0  0  0  0  0  0  0  0
  -29.2467  -23.0679   16.7889 C   0  0  0  0  0  0  0  0  0  0  0  0
  -23.8832  -30.5569   20.3844 C   0  0  0  0  0  0  0  0  0  0  0  0
  -19.4692  -21.6875   17.2554 C   0  0  0  0  0  0  0  0  0  0  0  0
  -21.6382  -22.6834   16.8803 C   0  0  0  0  0  0  0  0  0  0  0  0
  -28.9376  -24.3547   17.2276 C   0  0  0  0  0  0  0  0  0  0  0  0
  -19.0668  -19.8491   14.1452 C   0  0  0  0  0  0  0  0  0  0  0  0
  -18.6675  -18.5262   13.9554 C   0  0  0  0  0  0  0  0  0  0  0  0
  -28.8603  -23.5542   19.5019 C   0  0  0  0  0  0  0  0  0  0  0  0
  -24.7813  -30.2184   22.6016 C   0  0  0  0  0  0  0  0  0  0  0  0
  -20.4628  -17.7786   15.3889 C   0  0  0  0  0  0  0  0  0  0  0  0
  -20.5488  -22.9322   19.0224 C   0  0  0  0  0  0  0  0  0  0  0  0
  -26.2239  -30.0326   20.6725 C   0  0  0  0  0  0  0  0  0  0  0  0
  -21.0382  -22.8103   21.5230 C   0  0  0  0  0  0  0  0  0  0  0  0
  -25.3683  -17.9615   14.2558 C   0  0  0  0  0  0  0  0  0  0  0  0
  -29.3543  -22.0106   17.7038 C   0  0  0  0  0  0  0  0  0  0  0  0
  -25.5704  -18.9549   15.2329 C   0  0  0  0  0  0  0  0  0  0  0  0
  -29.1733  -22.2555   19.0726 C   0  0  0  0  0  0  0  0  0  0  0  0
  -23.7017  -30.5060   21.7665 C   0  0  0  0  0  0  0  0  0  0  0  0
  -26.0424  -29.9817   22.0546 C   0  0  0  0  0  0  0  0  0  0  0  0
  -20.5553  -21.9365   16.4164 C   0  0  0  0  0  0  0  0  0  0  0  0
  -28.7416  -24.5974   18.5840 C   0  0  0  0  0  0  0  0  0  0  0  0
  -20.1641  -20.1368   14.9568 C   0  0  0  0  0  0  0  0  0  0  0  0
  -19.3654  -17.4909   14.5772 C   0  0  0  0  0  0  0  0  0  0  0  0
  -20.8621  -19.1015   15.5787 C   0  0  0  0  0  0  0  0  0  0  0  0
  -20.5459  -23.4471   20.3681 C   0  0  0  0  0  0  0  0  0  0  0  0
  -20.8026  -23.7071   22.5364 C   0  0  0  0  0  0  0  0  0  0  0  0
  -27.5501  -29.7844   20.0724 C   0  0  0  0  0  0  0  0  0  0  0  0
  -21.6535  -21.5233   21.6670 C   0  0  0  0  0  0  0  0  0  0  0  0
  -27.8138  -19.2667   18.1523 C   0  0  0  0  0  0  0  0  0  0  0  0
  -30.1298  -27.9076   20.2753 C   0  0  0  0  0  0  0  0  0  0  0  0
  -30.1151  -18.7898   20.3880 C   0  0  0  0  0  0  0  0  0  0  0  0
  -32.4140  -20.1462   22.5145 C   0  0  0  0  0  0  0  0  0  0  0  0
  -20.1498  -29.6580   22.6450 C   0  0  0  0  0  0  0  0  0  0  0  0
  -25.4261  -16.4928   14.5938 C   0  0  0  0  0  0  0  0  0  0  0  0
  -29.7146  -20.6337   17.2174 C   0  0  0  0  0  0  0  0  0  0  0  0
  -29.2976  -21.1589   20.0975 C   0  0  0  0  0  0  0  0  0  0  0  0
  -26.1327  -16.1992   15.9148 C   0  0  0  0  0  0  0  0  0  0  0  0
  -17.8202  -27.2272   23.8032 C   0  0  0  0  0  0  0  0  0  0  0  0
  -25.6346  -17.1401   17.0072 C   0  0  0  0  0  0  0  0  0  0  0  0
  -18.2990  -25.9253   23.1583 C   0  0  0  0  0  0  0  0  0  0  0  0
  -18.0148  -28.4226   22.8730 C   0  0  0  0  0  0  0  0  0  0  0  0
  -19.8639  -27.2839   21.7077 C   0  0  0  0  0  0  0  0  0  0  0  0
  -25.9391  -18.6018   16.6575 C   0  0  1  0  0  0  0  0  0  0  0  0
  -29.2928  -19.5298   18.1822 C   0  0  1  0  0  0  0  0  0  0  0  0
  -19.7397  -26.0584   22.6292 C   0  0  2  0  0  0  0  0  0  0  0  0
  -27.1831  -29.6753   22.9691 C   0  0  0  0  0  0  0  0  0  0  0  0
  -31.5709  -28.2778   20.0313 C   0  0  0  0  0  0  0  0  0  0  0  0
  -34.1185  -19.5062   24.2415 C   0  0  0  0  0  0  0  0  0  0  0  0
  -27.8791  -18.2656   22.3969 C   0  0  0  0  0  0  0  0  0  0  0  0
  -29.5513  -18.5772   24.2340 C   0  0  0  0  0  0  0  0  0  0  0  0
  -29.8380  -16.7229   22.5902 C   0  0  0  0  0  0  0  0  0  0  0  0
  -34.6226  -21.3344   20.9431 C   0  0  0  0  0  0  0  0  0  0  0  0
  -22.3535  -30.7607   22.3508 C   0  0  0  0  0  0  0  0  0  0  0  0
  -28.9516  -26.9427   18.2499 C   0  0  0  0  0  0  0  0  0  1  0  0
  -29.1564  -28.1574   19.1398 C   0  0  1  0  0  0  0  0  0  0  0  0
  -30.2602  -19.1054   21.8572 C   0  0  1  0  0  0  0  0  0  0  0  0
  -33.8713  -19.8076   22.7716 C   0  0  2  0  0  0  0  0  0  0  0  0
  -29.3778  -18.1883   22.7503 C   0  0  0  0  0  0  0  0  0  0  0  0
  -20.0359  -24.6550   20.6229 N   0  0  0  0  0  0  0  0  0  0  0  0
  -20.2064  -24.7843   21.9497 N   0  0  0  0  0  0  0  0  0  0  0  0
  -29.6453  -19.8284   19.5717 N   0  0  0  0  0  0  0  0  0  0  0  0
  -19.4022  -28.4927   22.4080 N   0  0  0  0  0  0  0  0  0  0  0  0
  -21.0493  -23.6713   23.8631 N   0  0  0  0  0  0  0  0  0  0  0  0
  -28.3625  -30.8256   19.8912 N   0  0  0  0  0  0  0  0  0  0  0  0
  -21.8191  -20.7302   20.5234 N   0  0  0  0  0  0  0  0  0  0  0  0
  -27.3322  -18.9021   16.9094 N   0  0  0  0  0  0  0  0  0  0  0  0
  -31.6872  -19.0321   22.1514 N   0  0  0  0  0  0  0  0  0  0  0  0
  -21.4580  -29.6388   22.1772 N   0  0  0  0  0  0  0  0  0  0  0  0
  -27.8723  -28.5288   19.7373 N   0  3  0  0  0  0  0  0  0  0  0  0
  -34.7460  -20.9461   22.3717 N   0  3  0  0  0  0  0  0  0  0  0  0
  -22.0300  -21.0827   22.7795 O   0  0  0  0  0  0  0  0  0  0  0  0
  -27.1582  -19.3842   19.1809 O   0  0  0  0  0  0  0  0  0  0  0  0
  -29.7807  -27.4227   21.3519 O   0  0  0  0  0  0  0  0  0  0  0  0
  -30.4146  -17.6653   19.9787 O   0  0  0  0  0  0  0  0  0  0  0  0
  -31.9646  -21.2844   22.6282 O   0  0  0  0  0  0  0  0  0  0  0  0
  -19.6875  -30.6404   23.2349 O   0  0  0  0  0  0  0  0  0  0  0  0
  -20.5588  -21.4508   15.1449 O   0  0  0  0  0  0  0  0  0  0  0  0
  -28.4392  -25.8523   19.0148 O   0  0  0  0  0  0  0  0  0  1  0  0
  -18.9809  -16.2207   14.3961 F   0  0  0  0  0  0  0  0  0  0  0  0
  -21.9164  -19.3718   16.3605 F   0  0  0  0  0  0  0  0  0  0  0  0
  1  2  1  0  0  0  0
  1  6  2  0  0  0  0
  2  7  2  0  0  0  0
  3 10  2  0  0  0  0
  3 18  1  0  0  0  0
  4 11  1  0  0  0  0
  4 18  2  0  0  0  0
  5  9  2  0  0  0  0
  5 19  1  0  0  0  0
  6 21  1  0  0  0  0
  7 23  1  0  0  0  0
  8 12  2  0  0  0  0
  8 22  1  0  0  0  0
  9 25  1  0  0  0  0
 10 27  1  0  0  0  0
 11 27  2  0  0  0  0
 12 28  1  0  0  0  0
 13 14  2  0  0  0  0
 13 29  1  0  0  0  0
 14 30  1  0  0  0  0
 15 24  1  0  0  0  0
 15 28  2  0  0  0  0
 16 25  2  0  0  0  0
 16 26  1  0  0  0  0
 17 30  2  0  0  0  0
 17 31  1  0  0  0  0
 18 32  1  0  0  0  0
 19 26  2  0  0  0  0
 19 34  1  0  0  0  0
 20 32  1  0  0  0  0
 20 33  2  0  0  0  0
 20 35  1  0  0  0  0
 21 23  2  0  0  0  0
 21 41  1  0  0  0  0
 22 24  2  0  0  0  0
 22 42  1  0  0  0  0
 23 50  1  0  0  0  0
 24 43  1  0  0  0  0
 25 60  1  0  0  0  0
 26 53  1  0  0  0  0
 27 84  1  0  0  0  0
 28 85  1  0  0  0  0
 29 31  2  0  0  0  0
 29 84  1  0  0  0  0
 30 86  1  0  0  0  0
 31 87  1  0  0  0  0
 32 66  2  0  0  0  0
 33 67  1  0  0  0  0
 33 70  1  0  0  0  0
 34 71  1  0  0  0  0
 34 76  2  0  0  0  0
 35 72  1  0  0  0  0
 35 78  2  0  0  0  0
 36 51  1  0  0  0  0
 36 73  1  0  0  0  0
 36 79  2  0  0  0  0
 37 54  1  0  0  0  0
 37 62  1  0  0  0  0
 37 80  2  0  0  0  0
 38 63  1  0  0  0  0
 38 68  1  0  0  0  0
 38 81  2  0  0  0  0
 39 64  1  0  0  0  0
 39 74  1  0  0  0  0
 39 82  2  0  0  0  0
 40 69  1  0  0  0  0
 40 75  1  0  0  0  0
 40 83  2  0  0  0  0
 41 44  1  0  0  0  0
 42 51  1  0  0  0  0
 43 68  1  0  0  0  0
 44 46  1  0  0  0  0
 45 47  1  0  0  0  0
 45 48  1  0  0  0  0
 46 50  1  0  0  0  0
 47 52  1  0  0  0  0
 48 69  1  0  0  0  0
 49 52  1  0  0  0  0
 49 69  1  0  0  0  0
 50 73  1  0  0  0  0
 51 68  1  0  0  0  0
 52 67  1  0  0  0  0
 55 64  1  0  0  0  0
 56 65  1  0  0  0  0
 57 65  1  0  0  0  0
 58 65  1  0  0  0  0
 59 77  1  0  0  0  0
 60 75  1  0  0  0  0
 61 62  1  0  0  0  0
 61 85  1  0  0  0  0
 62 76  1  0  0  0  0
 63 65  1  0  0  0  0
 63 74  1  0  0  0  0
 64 77  1  0  0  0  0
 66 67  1  0  0  0  0
M  CHG  2  76   1  77   1
M  ISO  4  40 100  61 101  75 100  85 101
M  END
> <Batch ID>
0055

> <Smiles>
CNC(C)C(=O)NC(C(=O)N1Cc2cc([101O:1][101CH2:1]C(NC(=N)c3ccc(C[100NH:0][100C:0](=O)N4CCCC(n5nc(-c6ccc(Oc7ccc(F)cc7F)cc6)c(C(N)=O)c5N)C4)cc3C)C(C)=O)ccc2CC1C(=O)NC1CCCc2ccccc21)C(C)(C)C

> <Shape>
0.188

> <Color>
0.066

> <Negative vol penalty>
0.000

$$$$

  -OEChem-04042322493D

 91100  0     1  0  0  0  0  0999 V2000
  -30.1069  -24.4430   16.5112 C   0  0  0  0  0  0  0  0  0  0  0  0
  -28.7953  -24.2576   16.9363 C   0  0  0  0  0  0  0  0  0  0  0  0
  -27.9008  -17.2445   21.4567 C   0  0  0  0  0  0  0  0  0  0  0  0
  -27.5049  -17.3704   19.0767 C   0  0  0  0  0  0  0  0  0  0  0  0
  -31.0019  -25.1571   17.3069 C   0  0  0  0  0  0  0  0  0  0  0  0
  -28.3782  -24.7852   18.1578 C   0  0  0  0  0  0  0  0  0  0  0  0
  -22.8401  -27.0286   19.5005 C   0  0  0  0  0  0  0  0  0  0  0  0
  -28.5890  -18.4567   21.4063 C   0  0  0  0  0  0  0  0  0  0  0  0
  -28.1931  -18.5826   19.0263 C   0  0  0  0  0  0  0  0  0  0  0  0
  -21.7354  -26.4754   20.1465 C   0  0  0  0  0  0  0  0  0  0  0  0
  -27.8294  -21.7479   21.2519 C   0  0  0  0  0  0  0  0  0  0  0  0
  -27.5448  -22.6962   22.2344 C   0  0  0  0  0  0  0  0  0  0  0  0
  -22.4471  -27.4874   22.2174 C   0  0  0  0  0  0  0  0  0  0  0  0
  -20.0469  -15.2151   25.2270 C   0  0  0  0  0  0  0  0  0  0  0  0
  -19.9854  -17.5150   25.9645 C   0  0  0  0  0  0  0  0  0  0  0  0
  -29.8522  -22.6481   22.9491 C   0  0  0  0  0  0  0  0  0  0  0  0
  -27.3588  -16.7013   20.2918 C   0  0  0  0  0  0  0  0  0  0  0  0
  -27.1511  -14.2027   20.7625 C   0  0  0  0  0  0  0  0  0  0  0  0
  -30.5930  -25.7019   18.5343 C   0  0  0  0  0  0  0  0  0  0  0  0
  -23.7641  -27.8076   20.2117 C   0  0  0  0  0  0  0  0  0  0  0  0
  -29.2690  -25.5060   18.9712 C   0  0  0  0  0  0  0  0  0  0  0  0
  -23.5614  -28.0514   21.5776 C   0  0  0  0  0  0  0  0  0  0  0  0
  -19.5681  -15.6035   23.9758 C   0  0  0  0  0  0  0  0  0  0  0  0
  -19.2980  -16.9476   23.7189 C   0  0  0  0  0  0  0  0  0  0  0  0
  -19.5066  -17.9034   24.7132 C   0  0  0  0  0  0  0  0  0  0  0  0
  -28.7352  -19.1257   20.1911 C   0  0  0  0  0  0  0  0  0  0  0  0
  -21.5403  -26.7023   21.5057 C   0  0  0  0  0  0  0  0  0  0  0  0
  -29.1254  -21.2496   21.1181 C   0  0  0  0  0  0  0  0  0  0  0  0
  -28.5562  -23.1464   23.0830 C   0  0  0  0  0  0  0  0  0  0  0  0
  -30.1368  -21.6998   21.9666 C   0  0  0  0  0  0  0  0  0  0  0  0
  -20.2555  -16.1709   26.2214 C   0  0  0  0  0  0  0  0  0  0  0  0
  -26.6482  -15.4489   20.3431 C   0  0  0  0  0  0  0  0  0  0  0  0
  -26.0910  -13.3404   20.6242 C   0  0  0  0  0  0  0  0  0  0  0  0
  -18.7498  -24.8589   24.8198 C   0  0  0  0  0  0  0  0  0  0  0  0
  -19.7062  -24.7044   23.8880 C   0  0  0  0  0  0  0  0  0  0  0  0
  -28.4596  -13.8556   21.2350 C   0  0  0  0  0  0  0  0  0  0  0  0
  -19.3964  -20.3315   25.3585 C   0  0  0  0  0  0  0  0  0  0  0  0
  -26.8627  -27.5630   20.8769 C   0  0  0  0  0  0  0  0  0  0  0  0
  -26.4280  -30.5214   22.1345 C   0  0  0  0  0  0  0  0  0  0  0  0
  -24.2843  -32.8125   23.4768 C   0  0  0  0  0  0  0  0  0  0  0  0
  -20.1573  -14.1416   20.6184 C   0  0  0  0  0  0  0  0  0  0  0  0
  -31.6092  -26.4258   19.3817 C   0  0  0  0  0  0  0  0  0  0  0  0
  -24.9362  -28.4194   19.4945 C   0  0  0  0  0  0  0  0  0  0  0  0
  -24.5131  -28.8974   22.3819 C   0  0  0  0  0  0  0  0  0  0  0  0
  -17.7714  -23.8133   25.2598 C   0  0  0  0  0  0  0  0  0  0  0  0
  -19.9289  -23.4200   23.1305 C   0  0  0  0  0  0  0  0  0  0  0  0
  -30.9866  -27.2730   20.4885 C   0  0  0  0  0  0  0  0  0  0  0  0
  -18.4122  -22.5381   25.8038 C   0  0  0  0  0  0  0  0  0  0  0  0
  -20.2309  -22.2085   24.0137 C   0  0  0  0  0  0  0  0  0  0  0  0
  -22.1216  -12.6711   18.0385 C   0  0  0  0  0  0  0  0  0  0  0  0
  -29.9109  -26.4816   21.2255 C   0  0  0  0  0  0  0  0  0  0  0  0
  -23.5498  -13.1038   18.3744 C   0  0  0  0  0  0  0  0  0  0  0  0
  -21.1089  -13.7673   18.3621 C   0  0  0  0  0  0  0  0  0  0  0  0
  -22.6019  -14.7151   20.0785 C   0  0  0  0  0  0  0  0  0  0  0  0
  -28.7721  -26.0842   20.2785 C   0  0  1  0  0  0  0  0  0  0  0  0
  -19.0019  -21.6316   24.7208 C   0  0  1  0  0  0  0  0  0  0  0  0
  -26.0905  -28.7712   20.4279 C   0  0  1  0  0  0  0  0  0  0  0  0
  -23.6530  -13.6217   19.8216 C   0  0  2  0  0  0  0  0  0  0  0  0
  -18.7846  -17.3596   22.3749 C   0  0  0  0  0  0  0  0  0  0  0  0
  -24.2284  -35.1268   24.4456 C   0  0  0  0  0  0  0  0  0  0  0  0
  -27.6561  -29.4659   24.7205 C   0  0  0  0  0  0  0  0  0  0  0  0
  -26.7194  -31.4659   25.8998 C   0  0  0  0  0  0  0  0  0  0  0  0
  -28.3960  -31.7666   24.0773 C   0  0  0  0  0  0  0  0  0  0  0  0
  -22.4334  -33.7724   21.3764 C   0  0  0  0  0  0  0  0  0  0  0  0
  -19.3534  -14.5603   22.9287 C   0  0  0  0  0  0  0  0  0  0  0  0
  -20.6145  -25.8457   23.5219 C   0  0  0  0  0  0  0  0  0  1  0  0
  -26.0405  -31.0603   23.4903 C   0  0  1  0  0  0  0  0  0  0  0  0
  -24.0757  -34.2879   23.1863 C   0  0  2  0  0  0  0  0  0  0  0  0
  -27.1859  -30.9221   24.5325 C   0  0  0  0  0  0  0  0  0  0  0  0
  -25.3682  -15.3880   19.9664 N   0  0  0  0  0  0  0  0  0  0  0  0
  -25.0579  -14.0931   20.1485 N   0  0  0  0  0  0  0  0  0  0  0  0
  -25.6474  -29.4683   21.6369 N   0  0  0  0  0  0  0  0  0  0  0  0
  -21.2586  -14.2132   19.7494 N   0  0  0  0  0  0  0  0  0  0  0  0
  -25.9512  -12.0193   20.8641 N   0  0  0  0  0  0  0  0  0  0  0  0
  -29.4208  -13.4471   20.3004 N   0  0  0  0  0  0  0  0  0  0  0  0
  -19.2387  -19.2721   24.4740 N   0  0  0  0  0  0  0  0  0  0  0  0
  -27.9006  -27.2134   20.0342 N   0  0  0  0  0  0  0  0  0  0  0  0
  -25.5937  -32.4319   23.2719 N   0  0  0  0  0  0  0  0  0  0  0  0
  -20.3867  -14.5783   21.9174 N   0  0  0  0  0  0  0  0  0  0  0  0
  -22.7124  -34.5186   22.6303 N   0  3  0  0  0  0  0  0  0  0  0  0
  -28.7624  -13.8905   22.4518 O   0  0  0  0  0  0  0  0  0  0  0  0
  -19.7998  -20.2968   26.5165 O   0  0  0  0  0  0  0  0  0  0  0  0
  -26.5417  -26.9912   21.9121 O   0  0  0  0  0  0  0  0  0  0  0  0
  -27.3837  -31.0212   21.5356 O   0  0  0  0  0  0  0  0  0  0  0  0
  -23.3774  -32.0727   23.8518 O   0  0  0  0  0  0  0  0  0  0  0  0
  -19.0530  -13.7148   20.2643 O   0  0  0  0  0  0  0  0  0  0  0  0
  -29.4065  -20.3087   20.1417 O   0  0  0  0  0  0  0  0  0  0  0  0
  -20.4632  -26.1630   22.1389 O   0  0  0  0  0  0  0  0  0  1  0  0
  -28.2831  -24.0582   24.0254 F   0  0  0  0  0  0  0  0  0  0  0  0
  -31.3840  -21.2257   21.8421 F   0  0  0  0  0  0  0  0  0  0  0  0
  -20.8451  -15.6913   27.7654 Cl  0  0  0  0  0  0  0  0  0  0  0  0
  1  2  1  0  0  0  0
  1  5  2  0  0  0  0
  2  6  2  0  0  0  0
  3  8  2  0  0  0  0
  3 17  1  0  0  0  0
  4  9  1  0  0  0  0
  4 17  2  0  0  0  0
  5 19  1  0  0  0  0
  6 21  1  0  0  0  0
  7 10  2  0  0  0  0
  7 20  1  0  0  0  0
  8 26  1  0  0  0  0
  9 26  2  0  0  0  0
 10 27  1  0  0  0  0
 11 12  2  0  0  0  0
 11 28  1  0  0  0  0
 12 29  1  0  0  0  0
 13 22  1  0  0  0  0
 13 27  2  0  0  0  0
 14 23  2  0  0  0  0
 14 31  1  0  0  0  0
 15 25  1  0  0  0  0
 15 31  2  0  0  0  0
 16 29  2  0  0  0  0
 16 30  1  0  0  0  0
 17 32  1  0  0  0  0
 18 32  1  0  0  0  0
 18 33  2  0  0  0  0
 18 36  1  0  0  0  0
 19 21  2  0  0  0  0
 19 42  1  0  0  0  0
 20 22  2  0  0  0  0
 20 43  1  0  0  0  0
 21 55  1  0  0  0  0
 22 44  1  0  0  0  0
 23 24  1  0  0  0  0
 23 65  1  0  0  0  0
 24 25  2  0  0  0  0
 24 59  1  0  0  0  0
 25 76  1  0  0  0  0
 26 87  1  0  0  0  0
 27 88  1  0  0  0  0
 28 30  2  0  0  0  0
 28 87  1  0  0  0  0
 29 89  1  0  0  0  0
 30 90  1  0  0  0  0
 31 91  1  0  0  0  0
 32 70  2  0  0  0  0
 33 71  1  0  0  0  0
 33 74  1  0  0  0  0
 34 35  2  0  0  0  0
 34 45  1  0  0  0  0
 35 46  1  0  0  0  0
 35 66  1  0  0  0  0
 36 75  1  0  0  0  0
 36 81  2  0  0  0  0
 37 56  1  0  0  0  0
 37 76  1  0  0  0  0
 37 82  2  0  0  0  0
 38 57  1  0  0  0  0
 38 77  1  0  0  0  0
 38 83  2  0  0  0  0
 39 67  1  0  0  0  0
 39 72  1  0  0  0  0
 39 84  2  0  0  0  0
 40 68  1  0  0  0  0
 40 78  1  0  0  0  0
 40 85  2  0  0  0  0
 41 73  1  0  0  0  0
 41 79  1  0  0  0  0
 41 86  2  0  0  0  0
 42 47  1  0  0  0  0
 43 57  1  0  0  0  0
 44 72  1  0  0  0  0
 45 48  1  0  0  0  0
 46 49  1  0  0  0  0
 47 51  1  0  0  0  0
 48 56  1  0  0  0  0
 49 56  1  0  0  0  0
 50 52  1  0  0  0  0
 50 53  1  0  0  0  0
 51 55  1  0  0  0  0
 52 58  1  0  0  0  0
 53 73  1  0  0  0  0
 54 58  1  0  0  0  0
 54 73  1  0  0  0  0
 55 77  1  0  0  0  0
 57 72  1  0  0  0  0
 58 71  1  0  0  0  0
 60 68  1  0  0  0  0
 61 69  1  0  0  0  0
 62 69  1  0  0  0  0
 63 69  1  0  0  0  0
 64 80  1  0  0  0  0
 65 79  1  0  0  0  0
 66 88  1  0  0  0  0
 67 69  1  0  0  0  0
 67 78  1  0  0  0  0
 68 80  1  0  0  0  0
 70 71  1  0  0  0  0
M  CHG  1  80   1
M  ISO  4  41 100  66 101  79 100  88 101
M  END
> <Batch ID>
0055

> <Smiles>
CNC(C)C(=O)NC(C(=O)N1Cc2cc([101O:1][101CH2:1]C3=CCCC(C(=O)Nc4cc(Cl)cc(C[100NH:0][100C:0](=O)N5CCCC(n6nc(-c7ccc(Oc8ccc(F)cc8F)cc7)c(C(N)=O)c6N)C5)c4C)CC3)ccc2CC1C(=O)NC1CCCc2ccccc21)C(C)(C)C

> <Shape>
0.268

> <Color>
0.076

> <Negative vol penalty>
0.000

$$$$

  -OEChem-04042322493D

 84 92  0     1  0  0  0  0  0999 V2000
  -21.1904  -21.5730   18.4446 C   0  0  0  0  0  0  0  0  0  0  0  0
  -22.3942  -22.2603   18.3268 C   0  0  0  0  0  0  0  0  0  0  0  0
  -26.6555  -13.7229   21.8798 C   0  0  0  0  0  0  0  0  0  0  0  0
  -26.3110  -13.6990   19.4886 C   0  0  0  0  0  0  0  0  0  0  0  0
  -19.9835  -22.2692   18.3919 C   0  0  0  0  0  0  0  0  0  0  0  0
  -22.3919  -23.6441   18.1551 C   0  0  0  0  0  0  0  0  0  0  0  0
  -25.7991  -25.9717   21.0907 C   0  0  0  0  0  0  0  0  0  0  0  0
  -29.4469  -22.0880   14.4447 C   0  0  0  0  0  0  0  0  0  0  0  0
  -28.5774  -21.4117   15.3004 C   0  0  0  0  0  0  0  0  0  0  0  0
  -25.9575  -12.5205   21.9924 C   0  0  0  0  0  0  0  0  0  0  0  0
  -25.6130  -12.4966   19.6012 C   0  0  0  0  0  0  0  0  0  0  0  0
  -27.1300  -25.9299   20.6774 C   0  0  0  0  0  0  0  0  0  0  0  0
  -23.4304   -9.6060   19.3003 C   0  0  0  0  0  0  0  0  0  0  0  0
  -22.2367   -9.4803   18.5898 C   0  0  0  0  0  0  0  0  0  0  0  0
  -28.3496  -23.4060   16.6450 C   0  0  0  0  0  0  0  0  0  0  0  0
  -26.9179  -28.1626   19.7889 C   0  0  0  0  0  0  0  0  0  0  0  0
  -21.3207  -11.3628   19.7958 C   0  0  0  0  0  0  0  0  0  0  0  0
  -26.8322  -14.3122   20.6279 C   0  0  0  0  0  0  0  0  0  0  0  0
  -29.2192  -24.0823   15.7893 C   0  0  0  0  0  0  0  0  0  0  0  0
  -28.9362  -15.7192   20.3098 C   0  0  0  0  0  0  0  0  0  0  0  0
  -19.9667  -23.6635   18.2291 C   0  0  0  0  0  0  0  0  0  0  0  0
  -25.0132  -27.1070   20.8460 C   0  0  0  0  0  0  0  0  0  0  0  0
  -21.1836  -24.3594   18.0988 C   0  0  0  0  0  0  0  0  0  0  0  0
  -25.5781  -28.2172   20.2023 C   0  0  0  0  0  0  0  0  0  0  0  0
  -29.7678  -23.4232   14.6892 C   0  0  0  0  0  0  0  0  0  0  0  0
  -28.0287  -22.0707   16.4005 C   0  0  0  0  0  0  0  0  0  0  0  0
  -25.4363  -11.9074   20.8531 C   0  0  0  0  0  0  0  0  0  0  0  0
  -27.6888  -27.0243   20.0239 C   0  0  0  0  0  0  0  0  0  0  0  0
  -23.5693  -10.6100   20.2586 C   0  0  0  0  0  0  0  0  0  0  0  0
  -21.1818  -10.3587   18.8375 C   0  0  0  0  0  0  0  0  0  0  0  0
  -22.5144  -11.4884   20.5064 C   0  0  0  0  0  0  0  0  0  0  0  0
  -27.5527  -15.5545   20.5110 C   0  0  0  0  0  0  0  0  0  0  0  0
  -29.1177  -17.0800   20.2692 C   0  0  0  0  0  0  0  0  0  0  0  0
  -29.5434  -25.5041   16.0727 C   0  0  0  0  0  0  0  0  0  0  0  0
  -29.9653  -14.7305   20.1718 C   0  0  0  0  0  0  0  0  0  0  0  0
  -22.3675  -27.6876   19.1826 C   0  0  0  0  0  0  0  0  0  0  0  0
  -22.6232  -30.6217   20.5421 C   0  0  0  0  0  0  0  0  0  0  0  0
  -24.6224  -32.9841   21.9803 C   0  0  0  0  0  0  0  0  0  0  0  0
  -26.5158  -21.8885   18.4066 C   0  0  0  0  0  0  0  0  0  0  0  0
  -18.6361  -24.3668   18.1306 C   0  0  0  0  0  0  0  0  0  0  0  0
  -23.5869  -27.1465   21.3219 C   0  0  0  0  0  0  0  0  0  0  0  0
  -24.7827  -29.4677   19.9337 C   0  0  0  0  0  0  0  0  0  0  0  0
  -18.7305  -25.8783   18.3221 C   0  0  0  0  0  0  0  0  0  0  0  0
  -26.5303  -20.9896   21.8518 C   0  0  0  0  0  0  0  0  0  0  0  0
  -19.8770  -26.4507   17.4946 C   0  0  0  0  0  0  0  0  0  0  0  0
  -26.9307  -19.5125   21.8393 C   0  0  0  0  0  0  0  0  0  0  0  0
  -25.6353  -21.3446   20.6658 C   0  0  0  0  0  0  0  0  0  0  0  0
  -26.5696  -19.4916   19.3381 C   0  0  0  0  0  0  0  0  0  0  0  0
  -21.2229  -25.8635   17.9363 C   0  0  1  0  0  0  0  0  0  0  0  0
  -22.7316  -28.1565   20.5629 C   0  0  1  0  0  0  0  0  0  0  0  0
  -27.5246  -19.1010   20.4779 C   0  0  2  0  0  0  0  0  0  0  0  0
  -30.7017  -24.1238   13.7568 C   0  0  0  0  0  0  0  0  0  0  0  0
  -24.5525  -35.2953   22.9555 C   0  0  0  0  0  0  0  0  0  0  0  0
  -31.7390  -27.0367   18.6082 C   0  0  0  0  0  0  0  0  0  0  0  0
  -22.4623  -31.7998   17.7321 C   0  0  0  0  0  0  0  0  0  0  0  0
  -23.3367  -33.9542   18.6607 C   0  0  0  0  0  0  0  0  0  0  0  0
  -21.1559  -33.0465   19.4624 C   0  0  0  0  0  0  0  0  0  0  0  0
  -25.5318  -32.0205   24.6267 C   0  0  0  0  0  0  0  0  0  0  0  0
  -29.3287  -27.7440   18.4590 C   0  0  0  0  0  0  0  0  0  1  0  0
  -23.3041  -31.9166   20.1701 C   0  0  1  0  0  0  0  0  0  0  0  0
  -24.4604  -33.8055   23.2466 C   0  0  2  0  0  0  0  0  0  0  0  0
  -30.4979  -27.0880   17.7268 C   0  0  2  0  0  0  0  0  0  0  0  0
  -22.5794  -32.6551   19.0095 C   0  0  0  0  0  0  0  0  0  0  0  0
  -26.9014  -16.7178   20.5927 N   0  0  0  0  0  0  0  0  0  0  0  0
  -27.8801  -17.6265   20.4422 N   0  0  0  0  0  0  0  0  0  0  0  0
  -23.3906  -29.4554   20.4127 N   0  0  0  0  0  0  0  0  0  0  0  0
  -26.2643  -20.9291   19.4102 N   0  0  0  0  0  0  0  0  0  0  0  0
  -30.2136  -17.8506   20.1028 N   0  0  0  0  0  0  0  0  0  0  0  0
  -29.6052  -13.3776   20.2380 N   0  0  0  0  0  0  0  0  0  0  0  0
  -27.1471  -21.3828   17.2707 N   0  0  0  0  0  0  0  0  0  0  0  0
  -30.1446  -25.7545   17.2959 N   0  0  0  0  0  0  0  0  0  0  0  0
  -21.6723  -26.4936   19.1591 N   0  0  0  0  0  0  0  0  0  0  0  0
  -23.4054  -32.6928   21.4012 N   0  0  0  0  0  0  0  0  0  0  0  0
  -25.5212  -33.4528   24.2321 N   0  3  0  0  0  0  0  0  0  0  0  0
  -29.2527  -26.3625   15.2437 O   0  0  0  0  0  0  0  0  0  0  0  0
  -31.1709  -15.0377   20.0115 O   0  0  0  0  0  0  0  0  0  0  0  0
  -22.6918  -28.3601   18.2109 O   0  0  0  0  0  0  0  0  0  0  0  0
  -21.4557  -30.6448   20.9399 O   0  0  0  0  0  0  0  0  0  0  0  0
  -25.7192  -32.6389   21.5460 O   0  0  0  0  0  0  0  0  0  0  0  0
  -26.2196  -23.0768   18.5559 O   0  0  0  0  0  0  0  0  0  0  0  0
  -24.7553  -10.7340   20.9626 O   0  0  0  0  0  0  0  0  0  0  0  0
  -28.9874  -26.9859   19.6189 O   0  0  0  0  0  0  0  0  0  1  0  0
  -20.0361  -10.2389   18.1541 F   0  0  0  0  0  0  0  0  0  0  0  0
  -22.6424  -12.4557   21.4249 F   0  0  0  0  0  0  0  0  0  0  0  0
  1  2  1  0  0  0  0
  1  5  2  0  0  0  0
  2  6  2  0  0  0  0
  3 10  2  0  0  0  0
  3 18  1  0  0  0  0
  4 11  1  0  0  0  0
  4 18  2  0  0  0  0
  5 21  1  0  0  0  0
  6 23  1  0  0  0  0
  7 12  2  0  0  0  0
  7 22  1  0  0  0  0
  8  9  2  0  0  0  0
  8 25  1  0  0  0  0
  9 26  1  0  0  0  0
 10 27  1  0  0  0  0
 11 27  2  0  0  0  0
 12 28  1  0  0  0  0
 13 14  2  0  0  0  0
 13 29  1  0  0  0  0
 14 30  1  0  0  0  0
 15 19  1  0  0  0  0
 15 26  2  0  0  0  0
 16 24  1  0  0  0  0
 16 28  2  0  0  0  0
 17 30  2  0  0  0  0
 17 31  1  0  0  0  0
 18 32  1  0  0  0  0
 19 25  2  0  0  0  0
 19 34  1  0  0  0  0
 20 32  1  0  0  0  0
 20 33  2  0  0  0  0
 20 35  1  0  0  0  0
 21 23  2  0  0  0  0
 21 40  1  0  0  0  0
 22 24  2  0  0  0  0
 22 41  1  0  0  0  0
 23 49  1  0  0  0  0
 24 42  1  0  0  0  0
 25 52  1  0  0  0  0
 26 70  1  0  0  0  0
 27 81  1  0  0  0  0
 28 82  1  0  0  0  0
 29 31  2  0  0  0  0
 29 81  1  0  0  0  0
 30 83  1  0  0  0  0
 31 84  1  0  0  0  0
 32 64  2  0  0  0  0
 33 65  1  0  0  0  0
 33 68  1  0  0  0  0
 34 71  1  0  0  0  0
 34 75  2  0  0  0  0
 35 69  1  0  0  0  0
 35 76  2  0  0  0  0
 36 50  1  0  0  0  0
 36 72  1  0  0  0  0
 36 77  2  0  0  0  0
 37 60  1  0  0  0  0
 37 66  1  0  0  0  0
 37 78  2  0  0  0  0
 38 61  1  0  0  0  0
 38 73  1  0  0  0  0
 38 79  2  0  0  0  0
 39 67  1  0  0  0  0
 39 70  1  0  0  0  0
 39 80  2  0  0  0  0
 40 43  1  0  0  0  0
 41 50  1  0  0  0  0
 42 66  1  0  0  0  0
 43 45  1  0  0  0  0
 44 46  1  0  0  0  0
 44 47  1  0  0  0  0
 45 49  1  0  0  0  0
 46 51  1  0  0  0  0
 47 67  1  0  0  0  0
 48 51  1  0  0  0  0
 48 67  1  0  0  0  0
 49 72  1  0  0  0  0
 50 66  1  0  0  0  0
 51 65  1  0  0  0  0
 53 61  1  0  0  0  0
 54 62  1  0  0  0  0
 55 63  1  0  0  0  0
 56 63  1  0  0  0  0
 57 63  1  0  0  0  0
 58 74  1  0  0  0  0
 59 62  1  0  0  0  0
 59 82  1  0  0  0  0
 60 63  1  0  0  0  0
 60 73  1  0  0  0  0
 61 74  1  0  0  0  0
 62 71  1  0  0  0  0
 64 65  1  0  0  0  0
M  CHG  1  74   1
M  ISO  4  39 100  59 101  70 100  82 101
M  END
> <Batch ID>
0055

> <Smiles>
CNC(C)C(=O)NC(C(=O)N1Cc2cc([101O:1][101CH2:1]C(C)NC(=O)c3cc([100NH:0][100C:0](=O)N4CCCC(n5nc(-c6ccc(Oc7ccc(F)cc7F)cc6)c(C(N)=O)c5N)C4)ccc3C)ccc2CC1C(=O)NC1CCCc2ccccc21)C(C)(C)C

> <Shape>
0.205

> <Color>
0.070

> <Negative vol penalty>
0.000

$$$$

  -OEChem-04042322493D

 89 97  0     1  0  0  0  0  0999 V2000
  -22.1494  -10.9698   20.8874 C   0  0  0  0  0  0  0  0  0  0  0  0
  -21.8817  -12.2205   21.4347 C   0  0  0  0  0  0  0  0  0  0  0  0
  -17.8557  -29.2471   22.8881 C   0  0  0  0  0  0  0  0  0  0  0  0
  -29.8694  -29.4419   18.5504 C   0  0  0  0  0  0  0  0  0  0  0  0
  -29.4077  -27.3229   19.6152 C   0  0  0  0  0  0  0  0  0  0  0  0
  -17.4779  -27.9579   22.5126 C   0  0  0  0  0  0  0  0  0  0  0  0
  -23.4423  -10.6541   20.4720 C   0  0  0  0  0  0  0  0  0  0  0  0
  -22.9073  -13.1559   21.5680 C   0  0  0  0  0  0  0  0  0  0  0  0
  -21.5142  -17.7914   20.0793 C   0  0  0  0  0  0  0  0  0  0  0  0
  -19.2034  -29.6067   22.8883 C   0  0  0  0  0  0  0  0  0  0  0  0
  -31.2132  -29.0883   18.4293 C   0  0  0  0  0  0  0  0  0  0  0  0
  -30.7516  -26.9693   19.4940 C   0  0  0  0  0  0  0  0  0  0  0  0
  -20.7311  -18.5349   20.9612 C   0  0  0  0  0  0  0  0  0  0  0  0
  -33.9921  -25.3595   19.1398 C   0  0  0  0  0  0  0  0  0  0  0  0
  -34.2868  -24.0727   18.6893 C   0  0  0  0  0  0  0  0  0  0  0  0
  -22.6910  -19.7525   21.6653 C   0  0  0  0  0  0  0  0  0  0  0  0
  -33.1104  -24.5249   16.6281 C   0  0  0  0  0  0  0  0  0  0  0  0
  -28.9666  -28.5593   19.1434 C   0  0  0  0  0  0  0  0  0  0  0  0
  -18.4479  -27.0284   22.1373 C   0  0  0  0  0  0  0  0  0  0  0  0
  -26.5482  -28.6820   18.3410 C   0  0  0  0  0  0  0  0  0  0  0  0
  -24.4822  -11.5896   20.5914 C   0  0  0  0  0  0  0  0  0  0  0  0
  -22.8956  -18.0158   19.9915 C   0  0  0  0  0  0  0  0  0  0  0  0
  -24.2156  -12.8519   21.1551 C   0  0  0  0  0  0  0  0  0  0  0  0
  -23.4889  -19.0122   20.7796 C   0  0  0  0  0  0  0  0  0  0  0  0
  -19.7956  -27.3880   22.1375 C   0  0  0  0  0  0  0  0  0  0  0  0
  -20.1734  -28.6772   22.5130 C   0  0  0  0  0  0  0  0  0  0  0  0
  -31.6543  -27.8520   18.9010 C   0  0  0  0  0  0  0  0  0  0  0  0
  -21.3200  -19.5136   21.7565 C   0  0  0  0  0  0  0  0  0  0  0  0
  -33.2565  -26.2290   18.3344 C   0  0  0  0  0  0  0  0  0  0  0  0
  -33.8460  -23.6554   17.4335 C   0  0  0  0  0  0  0  0  0  0  0  0
  -32.8157  -25.8117   17.0786 C   0  0  0  0  0  0  0  0  0  0  0  0
  -27.5785  -28.9242   19.2693 C   0  0  0  0  0  0  0  0  0  0  0  0
  -25.4268  -29.2188   18.9249 C   0  0  0  0  0  0  0  0  0  0  0  0
  -18.0233  -25.6699   21.7439 C   0  0  0  0  0  0  0  0  0  0  0  0
  -26.6002  -28.0301   17.0651 C   0  0  0  0  0  0  0  0  0  0  0  0
  -25.4917  -16.2633   20.5331 C   0  0  0  0  0  0  0  0  0  0  0  0
  -27.0186  -18.8533   19.3153 C   0  0  0  0  0  0  0  0  0  0  0  0
  -26.9833  -22.2076   18.6874 C   0  0  0  0  0  0  0  0  0  0  0  0
  -16.7557  -22.8578   23.6281 C   0  0  0  0  0  0  0  0  0  0  0  0
  -22.1425  -30.0060   23.3516 C   0  0  0  0  0  0  0  0  0  0  0  0
  -25.8736  -11.1858   20.1722 C   0  0  0  0  0  0  0  0  0  0  0  0
  -23.7220  -17.2236   19.0158 C   0  0  0  0  0  0  0  0  0  0  0  0
  -24.9644  -19.3060   20.7084 C   0  0  0  0  0  0  0  0  0  0  0  0
  -26.8255  -12.3670   20.0027 C   0  0  0  0  0  0  0  0  0  0  0  0
  -24.9324  -32.1890   22.9937 C   0  0  0  0  0  0  0  0  0  0  0  0
  -26.7108  -13.3195   21.1886 C   0  0  0  0  0  0  0  0  0  0  0  0
  -25.7847  -31.5143   21.9165 C   0  0  0  0  0  0  0  0  0  0  0  0
  -24.2668  -31.1666   23.9131 C   0  0  0  0  0  0  0  0  0  0  0  0
  -24.3466  -29.4491   22.1487 C   0  0  0  0  0  0  0  0  0  0  0  0
  -25.2963  -13.9023   21.2934 C   0  0  1  0  0  0  0  0  0  0  0  0
  -25.2027  -17.1837   19.3811 C   0  0  1  0  0  0  0  0  0  0  0  0
  -24.9853  -30.4365   21.1583 C   0  0  2  0  0  0  0  0  0  0  0  0
  -20.8339  -26.3870   21.7371 C   0  0  0  0  0  0  0  0  0  0  0  0
  -28.3895  -24.0446   17.7153 C   0  0  0  0  0  0  0  0  0  0  0  0
  -28.7333  -18.8729   21.8391 C   0  0  0  0  0  0  0  0  0  0  0  0
  -29.4258  -21.2097   21.2665 C   0  0  0  0  0  0  0  0  0  0  0  0
  -29.9856  -19.3313   19.7235 C   0  0  0  0  0  0  0  0  0  0  0  0
  -24.9772  -22.7921   16.5915 C   0  0  0  0  0  0  0  0  0  0  0  0
  -15.4735  -21.0335   24.4205 C   0  0  0  0  0  0  0  0  0  0  0  0
  -19.7839  -22.4419   23.2534 C   0  0  0  0  0  0  0  0  0  0  0  0
  -18.7663  -22.5153   22.1052 C   0  0  0  0  0  0  0  0  0  0  0  0
  -20.9855  -21.5727   22.8985 C   0  0  0  0  0  0  0  0  0  1  0  0
  -27.5913  -20.1256   19.8916 C   0  0  1  0  0  0  0  0  0  0  0  0
  -27.3178  -23.0020   17.4378 C   0  0  2  0  0  0  0  0  0  0  0  0
  -17.5267  -23.3498   22.4275 C   0  0  2  0  0  0  0  0  0  0  0  0
  -28.9065  -19.8783   20.6832 C   0  0  0  0  0  0  0  0  0  0  0  0
  -27.1497  -29.5651   20.3600 N   0  0  0  0  0  0  0  0  0  0  0  0
  -25.8376  -29.7302   20.1206 N   0  0  0  0  0  0  0  0  0  0  0  0
  -25.7310  -18.5004   19.7436 N   0  0  0  0  0  0  0  0  0  0  0  0
  -23.5243  -30.1801   23.1255 N   0  0  0  0  0  0  0  0  0  0  0  0
  -24.1393  -29.2985   18.5269 N   0  0  0  0  0  0  0  0  0  0  0  0
  -17.7486  -25.4451   20.4590 N   0  0  0  0  0  0  0  0  0  0  0  0
  -27.8330  -27.5369   16.6166 N   0  0  0  0  0  0  0  0  0  0  0  0
  -21.5365  -29.0640   22.5210 N   0  0  0  0  0  0  0  0  0  0  0  0
  -25.1090  -14.9534   20.3163 N   0  0  0  0  0  0  0  0  0  0  0  0
  -27.7319  -21.0529   18.7741 N   0  0  0  0  0  0  0  0  0  0  0  0
  -17.9323  -24.7314   22.6942 N   0  3  0  0  0  0  0  0  0  0  0  0
  -26.1040  -23.7000   16.9274 N   0  3  0  0  0  0  0  0  0  0  0  0
  -25.5867  -27.9036   16.3369 O   0  0  0  0  0  0  0  0  0  0  0  0
  -26.0238  -16.7084   21.5433 O   0  0  0  0  0  0  0  0  0  0  0  0
  -27.6862  -18.2004   18.5092 O   0  0  0  0  0  0  0  0  0  0  0  0
  -26.1446  -22.5764   19.5066 O   0  0  0  0  0  0  0  0  0  0  0  0
  -16.5944  -23.4925   24.6625 O   0  0  0  0  0  0  0  0  0  0  0  0
  -21.5356  -30.6651   24.1998 O   0  0  0  0  0  0  0  0  0  0  0  0
  -32.9655  -27.5065   18.7828 O   0  0  0  0  0  0  0  0  0  0  0  0
  -20.5581  -20.2403   22.6186 O   0  0  0  0  0  0  0  0  0  1  0  0
  -16.2520  -21.6149   23.3699 O   0  0  0  0  0  0  0  0  0  0  0  0
  -34.1303  -22.4202   17.0004 F   0  0  0  0  0  0  0  0  0  0  0  0
  -32.1097  -26.6430   16.2999 F   0  0  0  0  0  0  0  0  0  0  0  0
  1  2  1  0  0  0  0
  1  7  2  0  0  0  0
  2  8  2  0  0  0  0
  3  6  2  0  0  0  0
  3 10  1  0  0  0  0
  4 11  2  0  0  0  0
  4 18  1  0  0  0  0
  5 12  1  0  0  0  0
  5 18  2  0  0  0  0
  6 19  1  0  0  0  0
  7 21  1  0  0  0  0
  8 23  1  0  0  0  0
  9 13  2  0  0  0  0
  9 22  1  0  0  0  0
 10 26  2  0  0  0  0
 11 27  1  0  0  0  0
 12 27  2  0  0  0  0
 13 28  1  0  0  0  0
 14 15  2  0  0  0  0
 14 29  1  0  0  0  0
 15 30  1  0  0  0  0
 16 24  1  0  0  0  0
 16 28  2  0  0  0  0
 17 30  2  0  0  0  0
 17 31  1  0  0  0  0
 18 32  1  0  0  0  0
 19 25  2  0  0  0  0
 19 34  1  0  0  0  0
 20 32  1  0  0  0  0
 20 33  2  0  0  0  0
 20 35  1  0  0  0  0
 21 23  2  0  0  0  0
 21 41  1  0  0  0  0
 22 24  2  0  0  0  0
 22 42  1  0  0  0  0
 23 50  1  0  0  0  0
 24 43  1  0  0  0  0
 25 26  1  0  0  0  0
 25 53  1  0  0  0  0
 26 74  1  0  0  0  0
 27 85  1  0  0  0  0
 28 86  1  0  0  0  0
 29 31  2  0  0  0  0
 29 85  1  0  0  0  0
 30 88  1  0  0  0  0
 31 89  1  0  0  0  0
 32 67  2  0  0  0  0
 33 68  1  0  0  0  0
 33 71  1  0  0  0  0
 34 72  1  0  0  0  0
 34 77  2  0  0  0  0
 35 73  1  0  0  0  0
 35 79  2  0  0  0  0
 36 51  1  0  0  0  0
 36 75  1  0  0  0  0
 36 80  2  0  0  0  0
 37 63  1  0  0  0  0
 37 69  1  0  0  0  0
 37 81  2  0  0  0  0
 38 64  1  0  0  0  0
 38 76  1  0  0  0  0
 38 82  2  0  0  0  0
 39 65  1  0  0  0  0
 39 83  2  0  0  0  0
 39 87  1  0  0  0  0
 40 70  1  0  0  0  0
 40 74  1  0  0  0  0
 40 84  2  0  0  0  0
 41 44  1  0  0  0  0
 42 51  1  0  0  0  0
 43 69  1  0  0  0  0
 44 46  1  0  0  0  0
 45 47  1  0  0  0  0
 45 48  1  0  0  0  0
 46 50  1  0  0  0  0
 47 52  1  0  0  0  0
 48 70  1  0  0  0  0
 49 52  1  0  0  0  0
 49 70  1  0  0  0  0
 50 75  1  0  0  0  0
 51 69  1  0  0  0  0
 52 68  1  0  0  0  0
 54 64  1  0  0  0  0
 55 66  1  0  0  0  0
 56 66  1  0  0  0  0
 57 66  1  0  0  0  0
 58 78  1  0  0  0  0
 59 87  1  0  0  0  0
 60 61  1  0  0  0  0
 60 62  1  0  0  0  0
 61 65  1  0  0  0  0
 62 86  1  0  0  0  0
 63 66  1  0  0  0  0
 63 76  1  0  0  0  0
 64 78  1  0  0  0  0
 65 77  1  0  0  0  0
 67 68  1  0  0  0  0
M  CHG  2  77   1  78   1
M  ISO  4  40 100  62 101  74 100  86 101
M  END
> <Batch ID>
0055

> <Smiles>
CNC(C)C(=O)NC(C(=O)N1Cc2cc([101O:1][101CH2:1]CCC(NC(=N)c3cccc([100NH:0][100C:0](=O)N4CCCC(n5nc(-c6ccc(Oc7ccc(F)cc7F)cc6)c(C(N)=O)c5N)C4)c3C)C(=O)OC)ccc2CC1C(=O)NC1CCCc2ccccc21)C(C)(C)C

> <Shape>
0.235

> <Color>
0.063

> <Negative vol penalty>
0.000

$$$$

  -OEChem-04042322493D

 86 95  0     1  0  0  0  0  0999 V2000
  -24.6520  -22.8580   19.3244 C   0  0  0  0  0  0  0  0  0  0  0  0
  -25.1911  -21.9291   18.4402 C   0  0  0  0  0  0  0  0  0  0  0  0
  -29.9930  -14.7590   22.7373 C   0  0  0  0  0  0  0  0  0  0  0  0
  -26.7608  -25.2438   20.2751 C   0  0  0  0  0  0  0  0  0  0  0  0
  -28.3819  -25.9449   18.6267 C   0  0  0  0  0  0  0  0  0  0  0  0
  -24.4742  -22.5206   20.6655 C   0  0  0  0  0  0  0  0  0  0  0  0
  -25.5539  -20.6625   18.8968 C   0  0  0  0  0  0  0  0  0  0  0  0
  -25.8818  -13.8363   16.7494 C   0  0  0  0  0  0  0  0  0  0  0  0
  -30.4532  -13.5936   22.1244 C   0  0  0  0  0  0  0  0  0  0  0  0
  -29.7892  -15.9121   21.9791 C   0  0  0  0  0  0  0  0  0  0  0  0
  -26.0028  -26.3854   20.0153 C   0  0  0  0  0  0  0  0  0  0  0  0
  -27.6239  -27.0866   18.3668 C   0  0  0  0  0  0  0  0  0  0  0  0
  -26.7779  -12.7704   16.6814 C   0  0  0  0  0  0  0  0  0  0  0  0
  -26.0796  -29.6646   20.8310 C   0  0  0  0  0  0  0  0  0  0  0  0
  -25.5832  -30.3747   21.9241 C   0  0  0  0  0  0  0  0  0  0  0  0
  -26.3517  -12.2718   19.0028 C   0  0  0  0  0  0  0  0  0  0  0  0
  -30.5062  -14.7343   19.9953 C   0  0  0  0  0  0  0  0  0  0  0  0
  -23.3282  -30.0078   21.1383 C   0  0  0  0  0  0  0  0  0  0  0  0
  -27.9504  -25.0235   19.5808 C   0  0  0  0  0  0  0  0  0  0  0  0
  -29.3104  -23.4682   21.0773 C   0  0  0  0  0  0  0  0  0  0  0  0
  -24.8260  -21.2459   21.1367 C   0  0  0  0  0  0  0  0  0  0  0  0
  -25.2209  -14.1351   17.9496 C   0  0  0  0  0  0  0  0  0  0  0  0
  -25.3819  -20.3081   20.2457 C   0  0  0  0  0  0  0  0  0  0  0  0
  -25.4457  -13.3404   19.0827 C   0  0  0  0  0  0  0  0  0  0  0  0
  -30.7099  -13.5812   20.7534 C   0  0  0  0  0  0  0  0  0  0  0  0
  -30.0459  -15.8997   20.6081 C   0  0  0  0  0  0  0  0  0  0  0  0
  -26.4343  -27.3068   19.0611 C   0  0  0  0  0  0  0  0  0  0  0  0
  -27.0152  -11.9898   17.8090 C   0  0  0  0  0  0  0  0  0  0  0  0
  -25.2003  -29.1262   19.8914 C   0  0  0  0  0  0  0  0  0  0  0  0
  -24.2075  -30.5462   22.0778 C   0  0  0  0  0  0  0  0  0  0  0  0
  -23.8246  -29.2978   20.0451 C   0  0  0  0  0  0  0  0  0  0  0  0
  -28.7342  -23.8446   19.8492 C   0  0  0  0  0  0  0  0  0  0  0  0
  -29.9460  -22.2806   20.8087 C   0  0  0  0  0  0  0  0  0  0  0  0
  -31.0664  -10.8489   18.1782 C   0  0  0  0  0  0  0  0  0  0  0  0
  -31.9722  -11.4491   20.8385 C   0  0  0  0  0  0  0  0  0  0  0  0
  -30.1455  -10.3154   17.3633 C   0  0  0  0  0  0  0  0  0  0  0  0
  -29.2743  -24.1327   22.3472 C   0  0  0  0  0  0  0  0  0  0  0  0
  -25.1542  -16.6354   19.9112 C   0  0  0  0  0  0  0  0  0  0  0  0
  -22.8380  -14.9160   21.3948 C   0  0  0  0  0  0  0  0  0  0  0  0
  -22.2862  -11.4652   22.2917 C   0  0  0  0  0  0  0  0  0  0  0  0
  -30.0444  -17.2293   18.4684 C   0  0  0  0  0  0  0  0  0  0  0  0
  -24.6592  -20.9432   22.6048 C   0  0  0  0  0  0  0  0  0  0  0  0
  -24.2371  -15.2717   17.9993 C   0  0  0  0  0  0  0  0  0  0  0  0
  -24.7463  -13.6070   20.3897 C   0  0  0  0  0  0  0  0  0  0  0  0
  -32.2309  -10.0781   18.7052 C   0  0  0  0  0  0  0  0  0  0  0  0
  -31.0173  -12.2678   18.6525 C   0  0  0  0  0  0  0  0  0  0  0  0
  -32.1300  -10.0711   20.2147 C   0  0  0  0  0  0  0  0  0  0  0  0
  -24.7213  -19.4530   22.9303 C   0  0  0  0  0  0  0  0  0  0  0  0
  -30.9246  -19.9915   16.4014 C   0  0  0  0  0  0  0  0  0  0  0  0
  -25.9033  -18.8004   22.2207 C   0  0  0  0  0  0  0  0  0  0  0  0
  -30.4806  -21.2092   17.2152 C   0  0  0  0  0  0  0  0  0  0  0  0
  -29.9577  -18.8196   16.5609 C   0  0  0  0  0  0  0  0  0  0  0  0
  -29.2299  -19.6511   18.7628 C   0  0  0  0  0  0  0  0  0  0  0  0
  -25.7647  -18.9156   20.6978 C   0  0  1  0  0  0  0  0  0  0  0  0
  -24.0080  -15.8024   19.4111 C   0  0  1  0  0  0  0  0  0  0  0  0
  -30.2072  -20.8354   18.6852 C   0  0  2  0  0  0  0  0  0  0  0  0
  -20.1524  -10.1883   22.6292 C   0  0  0  0  0  0  0  0  0  0  0  0
  -23.2037  -15.6490   24.3340 C   0  0  0  0  0  0  0  0  0  0  0  0
  -22.3568  -13.3710   24.9354 C   0  0  0  0  0  0  0  0  0  0  0  0
  -20.8802  -14.9654   23.7106 C   0  0  0  0  0  0  0  0  0  0  0  0
  -23.0700   -9.4060   20.3157 C   0  0  0  0  0  0  0  0  0  0  0  0
  -28.9737  -11.0670   16.8246 C   0  0  0  0  0  0  0  0  0  1  0  0
  -22.8128  -13.8810   22.4935 C   0  0  1  0  0  0  0  0  0  0  0  0
  -21.2835  -10.5127   21.6658 C   0  0  2  0  0  0  0  0  0  0  0  0
  -22.3359  -14.4696   23.8513 C   0  0  0  0  0  0  0  0  0  0  0  0
  -28.9819  -22.9672   18.8730 N   0  0  0  0  0  0  0  0  0  0  0  0
  -29.7209  -22.0279   19.4875 N   0  0  0  0  0  0  0  0  0  0  0  0
  -31.1871  -12.3709   20.1178 N   0  0  0  0  0  0  0  0  0  0  0  0
  -23.7983  -14.7334   20.3896 N   0  0  0  0  0  0  0  0  0  0  0  0
  -29.7500  -18.5196   17.9793 N   0  0  0  0  0  0  0  0  0  0  0  0
  -30.6700  -21.4384   21.5761 N   0  0  0  0  0  0  0  0  0  0  0  0
  -28.5765  -25.3440   22.4479 N   0  0  0  0  0  0  0  0  0  0  0  0
  -29.8387  -17.0712   19.8385 N   0  0  0  0  0  0  0  0  0  0  0  0
  -24.8147  -17.9429   20.2018 N   0  0  0  0  0  0  0  0  0  0  0  0
  -21.9932  -12.7803   21.9986 N   0  0  0  0  0  0  0  0  0  0  0  0
  -21.9516   -9.2379   21.2791 N   0  3  0  0  0  0  0  0  0  0  0  0
  -32.4750  -11.6484   21.9475 O   0  0  0  0  0  0  0  0  0  0  0  0
  -29.8578  -23.6744   23.3587 O   0  0  0  0  0  0  0  0  0  0  0  0
  -26.2641  -16.1289   20.0263 O   0  0  0  0  0  0  0  0  0  0  0  0
  -22.0305  -15.8481   21.4234 O   0  0  0  0  0  0  0  0  0  0  0  0
  -23.2325  -11.0812   22.9756 O   0  0  0  0  0  0  0  0  0  0  0  0
  -30.4750  -16.3385   17.7314 O   0  0  0  0  0  0  0  0  0  0  0  0
  -25.6947  -28.4209   18.8071 O   0  0  0  0  0  0  0  0  0  0  0  0
  -27.8899  -10.9493   17.7455 O   0  0  0  0  0  0  0  0  0  1  0  0
  -23.7308  -31.2268   23.1285 F   0  0  0  0  0  0  0  0  0  0  0  0
  -22.9750  -28.7819   19.1464 F   0  0  0  0  0  0  0  0  0  0  0  0
  1  2  1  0  0  0  0
  1  6  2  0  0  0  0
  2  7  2  0  0  0  0
  3  9  2  0  0  0  0
  3 10  1  0  0  0  0
  4 11  2  0  0  0  0
  4 19  1  0  0  0  0
  5 12  1  0  0  0  0
  5 19  2  0  0  0  0
  6 21  1  0  0  0  0
  7 23  1  0  0  0  0
  8 13  2  0  0  0  0
  8 22  1  0  0  0  0
  9 25  1  0  0  0  0
 10 26  2  0  0  0  0
 11 27  1  0  0  0  0
 12 27  2  0  0  0  0
 13 28  1  0  0  0  0
 14 15  2  0  0  0  0
 14 29  1  0  0  0  0
 15 30  1  0  0  0  0
 16 24  1  0  0  0  0
 16 28  2  0  0  0  0
 17 25  2  0  0  0  0
 17 26  1  0  0  0  0
 18 30  2  0  0  0  0
 18 31  1  0  0  0  0
 19 32  1  0  0  0  0
 20 32  1  0  0  0  0
 20 33  2  0  0  0  0
 20 37  1  0  0  0  0
 21 23  2  0  0  0  0
 21 42  1  0  0  0  0
 22 24  2  0  0  0  0
 22 43  1  0  0  0  0
 23 54  1  0  0  0  0
 24 44  1  0  0  0  0
 25 68  1  0  0  0  0
 26 73  1  0  0  0  0
 27 83  1  0  0  0  0
 28 84  1  0  0  0  0
 29 31  2  0  0  0  0
 29 83  1  0  0  0  0
 30 85  1  0  0  0  0
 31 86  1  0  0  0  0
 32 66  2  0  0  0  0
 33 67  1  0  0  0  0
 33 71  1  0  0  0  0
 34 36  2  0  0  0  0
 34 45  1  0  0  0  0
 34 46  1  0  0  0  0
 35 47  1  0  0  0  0
 35 68  1  0  0  0  0
 35 77  2  0  0  0  0
 36 62  1  0  0  0  0
 37 72  1  0  0  0  0
 37 78  2  0  0  0  0
 38 55  1  0  0  0  0
 38 74  1  0  0  0  0
 38 79  2  0  0  0  0
 39 63  1  0  0  0  0
 39 69  1  0  0  0  0
 39 80  2  0  0  0  0
 40 64  1  0  0  0  0
 40 75  1  0  0  0  0
 40 81  2  0  0  0  0
 41 70  1  0  0  0  0
 41 73  1  0  0  0  0
 41 82  2  0  0  0  0
 42 48  1  0  0  0  0
 43 55  1  0  0  0  0
 44 69  1  0  0  0  0
 45 47  1  0  0  0  0
 46 68  1  0  0  0  0
 48 50  1  0  0  0  0
 49 51  1  0  0  0  0
 49 52  1  0  0  0  0
 50 54  1  0  0  0  0
 51 56  1  0  0  0  0
 52 70  1  0  0  0  0
 53 56  1  0  0  0  0
 53 70  1  0  0  0  0
 54 74  1  0  0  0  0
 55 69  1  0  0  0  0
 56 67  1  0  0  0  0
 57 64  1  0  0  0  0
 58 65  1  0  0  0  0
 59 65  1  0  0  0  0
 60 65  1  0  0  0  0
 61 76  1  0  0  0  0
 62 84  1  0  0  0  0
 63 65  1  0  0  0  0
 63 75  1  0  0  0  0
 64 76  1  0  0  0  0
 66 67  1  0  0  0  0
M  CHG  1  76   1
M  ISO  4  41 100  62 101  73 100  84 101
M  END
> <Batch ID>
0055

> <Smiles>
CNC(C)C(=O)NC(C(=O)N1Cc2cc([101O:1][101CH2:1]C=C3CCC(=O)N(c4cccc([100NH:0][100C:0](=O)N5CCCC(n6nc(-c7ccc(Oc8ccc(F)cc8F)cc7)c(C(N)=O)c6N)C5)c4)C3)ccc2CC1C(=O)NC1CCCc2ccccc21)C(C)(C)C

> <Shape>
0.228

> <Color>
0.060

> <Negative vol penalty>
0.000

$$$$

  -OEChem-04042322493D

 86 94  0     1  0  0  0  0  0999 V2000
  -22.0508  -30.8102   22.7202 C   0  0  0  0  0  0  0  0  0  0  0  0
  -22.7943  -29.6866   23.0670 C   0  0  0  0  0  0  0  0  0  0  0  0
  -27.1593  -23.6877   18.2742 C   0  0  0  0  0  0  0  0  0  0  0  0
  -28.0893  -22.9538   20.3799 C   0  0  0  0  0  0  0  0  0  0  0  0
  -20.6701  -30.7076   22.5559 C   0  0  0  0  0  0  0  0  0  0  0  0
  -22.1572  -28.4599   23.2507 C   0  0  0  0  0  0  0  0  0  0  0  0
  -24.3854  -22.9164   21.9052 C   0  0  0  0  0  0  0  0  0  0  0  0
  -29.6837  -12.9380   20.9149 C   0  0  0  0  0  0  0  0  0  0  0  0
  -27.3566  -25.0164   18.6502 C   0  0  0  0  0  0  0  0  0  0  0  0
  -28.2866  -24.2825   20.7558 C   0  0  0  0  0  0  0  0  0  0  0  0
  -24.9953  -21.9357   22.6862 C   0  0  0  0  0  0  0  0  0  0  0  0
  -25.8366  -27.2966   20.6286 C   0  0  0  0  0  0  0  0  0  0  0  0
  -30.1729  -12.4414   19.7067 C   0  0  0  0  0  0  0  0  0  0  0  0
  -24.7947  -28.1955   20.4005 C   0  0  0  0  0  0  0  0  0  0  0  0
  -22.8705  -20.8211   22.9352 C   0  0  0  0  0  0  0  0  0  0  0  0
  -27.9423  -12.4984   18.7802 C   0  0  0  0  0  0  0  0  0  0  0  0
  -26.2392  -29.5087   18.9771 C   0  0  0  0  0  0  0  0  0  0  0  0
  -27.5256  -22.6564   19.1391 C   0  0  0  0  0  0  0  0  0  0  0  0
  -28.2245  -20.4516   18.0630 C   0  0  0  0  0  0  0  0  0  0  0  0
  -20.0171  -29.4769   22.7282 C   0  0  0  0  0  0  0  0  0  0  0  0
  -23.0091  -22.8626   21.6419 C   0  0  0  0  0  0  0  0  0  0  0  0
  -20.7663  -28.3410   23.0898 C   0  0  0  0  0  0  0  0  0  0  0  0
  -22.2460  -21.8009   22.1484 C   0  0  0  0  0  0  0  0  0  0  0  0
  -28.3238  -13.2147   21.0558 C   0  0  0  0  0  0  0  0  0  0  0  0
  -27.4531  -12.9949   19.9884 C   0  0  0  0  0  0  0  0  0  0  0  0
  -27.9202  -25.3138   19.8909 C   0  0  0  0  0  0  0  0  0  0  0  0
  -24.2373  -20.8894   23.2038 C   0  0  0  0  0  0  0  0  0  0  0  0
  -27.0799  -27.5039   20.0311 C   0  0  0  0  0  0  0  0  0  0  0  0
  -29.3022  -12.2216   18.6393 C   0  0  0  0  0  0  0  0  0  0  0  0
  -24.9960  -29.3015   19.5747 C   0  0  0  0  0  0  0  0  0  0  0  0
  -27.2812  -28.6099   19.2054 C   0  0  0  0  0  0  0  0  0  0  0  0
  -27.3216  -21.2837   18.7516 C   0  0  0  0  0  0  0  0  0  0  0  0
  -27.5623  -19.2547   17.9392 C   0  0  0  0  0  0  0  0  0  0  0  0
  -26.8722  -17.3255   23.0418 C   0  0  0  0  0  0  0  0  0  0  0  0
  -26.4461  -18.1906   23.9723 C   0  0  0  0  0  0  0  0  0  0  0  0
  -29.5438  -20.7352   17.5787 C   0  0  0  0  0  0  0  0  0  0  0  0
  -27.0918  -15.8945   23.3895 C   0  0  0  0  0  0  0  0  0  0  0  0
  -20.5277  -24.7434   22.2817 C   0  0  0  0  0  0  0  0  0  0  0  0
  -18.9346  -22.6193   20.4182 C   0  0  0  0  0  0  0  0  0  0  0  0
  -18.7545  -19.4677   19.1213 C   0  0  0  0  0  0  0  0  0  0  0  0
  -24.4079  -15.1914   20.1036 C   0  0  0  0  0  0  0  0  0  0  0  0
  -18.5165  -29.4252   22.5861 C   0  0  0  0  0  0  0  0  0  0  0  0
  -22.3712  -23.9137   20.7753 C   0  0  0  0  0  0  0  0  0  0  0  0
  -20.7687  -21.6864   21.8780 C   0  0  0  0  0  0  0  0  0  0  0  0
  -17.9676  -28.0091   22.4323 C   0  0  0  0  0  0  0  0  0  0  0  0
  -22.7281  -18.0594   18.8271 C   0  0  0  0  0  0  0  0  0  0  0  0
  -18.5959  -27.0781   23.4645 C   0  0  0  0  0  0  0  0  0  0  0  0
  -23.8465  -19.0866   18.6429 C   0  0  0  0  0  0  0  0  0  0  0  0
  -22.9531  -17.1961   20.0664 C   0  0  0  0  0  0  0  0  0  0  0  0
  -25.3875  -17.5602   19.9446 C   0  0  0  0  0  0  0  0  0  0  0  0
  -20.1147  -26.9875   23.2736 C   0  0  1  0  0  0  0  0  0  0  0  0
  -20.8673  -24.0398   20.9982 C   0  0  1  0  0  0  0  0  0  0  0  0
  -25.2337  -18.4173   18.6765 C   0  0  2  0  0  0  0  0  0  0  0  0
  -17.9001  -17.5748   17.7127 C   0  0  0  0  0  0  0  0  0  0  0  0
  -16.9459  -22.2915   22.7090 C   0  0  0  0  0  0  0  0  0  0  0  0
  -16.1262  -20.1990   21.6054 C   0  0  0  0  0  0  0  0  0  0  0  0
  -15.9104  -22.3912   20.4347 C   0  0  0  0  0  0  0  0  0  0  0  0
  -20.4569  -20.2507   16.8305 C   0  0  0  0  0  0  0  0  0  0  0  0
  -27.8208  -13.7475   22.3662 C   0  0  0  0  0  0  0  0  0  0  0  0
  -25.9930  -13.2819   20.1161 C   0  0  0  0  0  0  0  0  0  0  0  0
  -26.1996  -19.6384   23.6938 C   0  0  0  0  0  0  0  0  0  1  0  0
  -18.1926  -21.3277   20.6637 C   0  0  1  0  0  0  0  0  0  0  0  0
  -18.4990  -18.9726   17.7092 C   0  0  2  0  0  0  0  0  0  0  0  0
  -16.8212  -21.5553   21.3601 C   0  0  0  0  0  0  0  0  0  0  0  0
  -26.1733  -20.6676   19.0445 N   0  0  0  0  0  0  0  0  0  0  0  0
  -26.3501  -19.4357   18.5375 N   0  0  0  0  0  0  0  0  0  0  0  0
  -20.1899  -22.7420   21.0306 N   0  0  0  0  0  0  0  0  0  0  0  0
  -24.2860  -16.5891   20.0359 N   0  0  0  0  0  0  0  0  0  0  0  0
  -27.9045  -18.0755   17.3779 N   0  0  0  0  0  0  0  0  0  0  0  0
  -30.0725  -22.0158   17.7907 N   0  0  0  0  0  0  0  0  0  0  0  0
  -27.5303  -15.1622   22.2993 N   0  0  0  0  0  0  0  0  0  0  0  0
  -20.4334  -26.1168   22.1625 N   0  0  0  0  0  0  0  0  0  0  0  0
  -18.1025  -20.6567   19.3715 N   0  0  0  0  0  0  0  0  0  0  0  0
  -25.7062  -14.6981   20.0623 N   0  0  0  0  0  0  0  0  0  0  0  0
  -19.7717  -18.9367   16.9347 N   0  3  0  0  0  0  0  0  0  0  0  0
  -30.2271  -19.8834   16.9613 O   0  0  0  0  0  0  0  0  0  0  0  0
  -26.8987  -15.4533   24.5176 O   0  0  0  0  0  0  0  0  0  0  0  0
  -20.3620  -24.0885   23.3041 O   0  0  0  0  0  0  0  0  0  0  0  0
  -18.4225  -23.4844   19.7034 O   0  0  0  0  0  0  0  0  0  0  0  0
  -19.4587  -18.8586   19.9235 O   0  0  0  0  0  0  0  0  0  0  0  0
  -23.4316  -14.4386   20.1888 O   0  0  0  0  0  0  0  0  0  0  0  0
  -28.1131  -26.6102   20.2580 O   0  0  0  0  0  0  0  0  0  0  0  0
  -24.8300  -19.9312   23.9670 O   0  0  0  0  0  0  0  0  0  1  0  0
  -29.7718  -11.7454   17.4788 F   0  0  0  0  0  0  0  0  0  0  0  0
  -23.9949  -30.1637   19.3544 F   0  0  0  0  0  0  0  0  0  0  0  0
  -28.4731  -28.8135   18.6276 F   0  0  0  0  0  0  0  0  0  0  0  0
  1  2  1  0  0  0  0
  1  5  2  0  0  0  0
  2  6  2  0  0  0  0
  3  9  2  0  0  0  0
  3 18  1  0  0  0  0
  4 10  1  0  0  0  0
  4 18  2  0  0  0  0
  5 20  1  0  0  0  0
  6 22  1  0  0  0  0
  7 11  2  0  0  0  0
  7 21  1  0  0  0  0
  8 13  2  0  0  0  0
  8 24  1  0  0  0  0
  9 26  1  0  0  0  0
 10 26  2  0  0  0  0
 11 27  1  0  0  0  0
 12 14  2  0  0  0  0
 12 28  1  0  0  0  0
 13 29  1  0  0  0  0
 14 30  1  0  0  0  0
 15 23  1  0  0  0  0
 15 27  2  0  0  0  0
 16 25  1  0  0  0  0
 16 29  2  0  0  0  0
 17 30  2  0  0  0  0
 17 31  1  0  0  0  0
 18 32  1  0  0  0  0
 19 32  1  0  0  0  0
 19 33  2  0  0  0  0
 19 36  1  0  0  0  0
 20 22  2  0  0  0  0
 20 42  1  0  0  0  0
 21 23  2  0  0  0  0
 21 43  1  0  0  0  0
 22 51  1  0  0  0  0
 23 44  1  0  0  0  0
 24 25  2  0  0  0  0
 24 59  1  0  0  0  0
 25 60  1  0  0  0  0
 26 82  1  0  0  0  0
 27 83  1  0  0  0  0
 28 31  2  0  0  0  0
 28 82  1  0  0  0  0
 29 84  1  0  0  0  0
 30 85  1  0  0  0  0
 31 86  1  0  0  0  0
 32 65  2  0  0  0  0
 33 66  1  0  0  0  0
 33 69  1  0  0  0  0
 34 35  2  0  0  0  0
 34 37  1  0  0  0  0
 35 61  1  0  0  0  0
 36 70  1  0  0  0  0
 36 76  2  0  0  0  0
 37 71  1  0  0  0  0
 37 77  2  0  0  0  0
 38 52  1  0  0  0  0
 38 72  1  0  0  0  0
 38 78  2  0  0  0  0
 39 62  1  0  0  0  0
 39 67  1  0  0  0  0
 39 79  2  0  0  0  0
 40 63  1  0  0  0  0
 40 73  1  0  0  0  0
 40 80  2  0  0  0  0
 41 68  1  0  0  0  0
 41 74  1  0  0  0  0
 41 81  2  0  0  0  0
 42 45  1  0  0  0  0
 43 52  1  0  0  0  0
 44 67  1  0  0  0  0
 45 47  1  0  0  0  0
 46 48  1  0  0  0  0
 46 49  1  0  0  0  0
 47 51  1  0  0  0  0
 48 53  1  0  0  0  0
 49 68  1  0  0  0  0
 50 53  1  0  0  0  0
 50 68  1  0  0  0  0
 51 72  1  0  0  0  0
 52 67  1  0  0  0  0
 53 66  1  0  0  0  0
 54 63  1  0  0  0  0
 55 64  1  0  0  0  0
 56 64  1  0  0  0  0
 57 64  1  0  0  0  0
 58 75  1  0  0  0  0
 59 71  1  0  0  0  0
 60 74  1  0  0  0  0
 61 83  1  0  0  0  0
 62 64  1  0  0  0  0
 62 73  1  0  0  0  0
 63 75  1  0  0  0  0
 65 66  1  0  0  0  0
M  CHG  1  75   1
M  ISO  4  41 100  61 101  74 100  83 101
M  END
> <Batch ID>
0055

> <Smiles>
CNC(C)C(=O)NC(C(=O)N1Cc2cc([101O:1][101CH2:1]C=CC(=O)NCc3ccc(F)cc3C[100NH:0][100C:0](=O)N3CCCC(n4nc(-c5ccc(Oc6ccc(F)cc6F)cc5)c(C(N)=O)c4N)C3)ccc2CC1C(=O)NC1CCCc2ccccc21)C(C)(C)C

> <Shape>
0.191

> <Color>
0.081

> <Negative vol penalty>
0.000

$$$$

  -OEChem-04042322493D

 86 94  0     1  0  0  0  0  0999 V2000
  -29.4134  -24.4502   17.0123 C   0  0  0  0  0  0  0  0  0  0  0  0
  -28.2252  -24.4693   17.7357 C   0  0  0  0  0  0  0  0  0  0  0  0
  -28.5608  -15.8832   20.4194 C   0  0  0  0  0  0  0  0  0  0  0  0
  -27.9680  -15.6055   22.7451 C   0  0  0  0  0  0  0  0  0  0  0  0
  -30.5036  -25.2041   17.4446 C   0  0  0  0  0  0  0  0  0  0  0  0
  -28.1270  -25.2417   18.8925 C   0  0  0  0  0  0  0  0  0  0  0  0
  -23.7988  -27.8611   19.1178 C   0  0  0  0  0  0  0  0  0  0  0  0
  -20.6670  -17.8056   25.5755 C   0  0  0  0  0  0  0  0  0  0  0  0
  -29.8628  -16.2177   20.7912 C   0  0  0  0  0  0  0  0  0  0  0  0
  -29.2701  -15.9400   23.1169 C   0  0  0  0  0  0  0  0  0  0  0  0
  -22.6516  -27.1641   19.4944 C   0  0  0  0  0  0  0  0  0  0  0  0
  -32.6645  -14.6021   21.7779 C   0  0  0  0  0  0  0  0  0  0  0  0
  -20.2193  -18.3188   26.7927 C   0  0  0  0  0  0  0  0  0  0  0  0
  -33.7122  -14.0144   21.0691 C   0  0  0  0  0  0  0  0  0  0  0  0
  -22.8645  -28.0356   21.7337 C   0  0  0  0  0  0  0  0  0  0  0  0
  -19.5333  -19.5901   24.4061 C   0  0  0  0  0  0  0  0  0  0  0  0
  -34.4880  -16.2029   20.4012 C   0  0  0  0  0  0  0  0  0  0  0  0
  -27.6133  -15.5772   21.3963 C   0  0  0  0  0  0  0  0  0  0  0  0
  -25.7672  -13.9468   20.7320 C   0  0  0  0  0  0  0  0  0  0  0  0
  -30.4155  -25.9937   18.6019 C   0  0  0  0  0  0  0  0  0  0  0  0
  -24.4949  -28.6432   20.0507 C   0  0  0  0  0  0  0  0  0  0  0  0
  -29.2175  -26.0059   19.3414 C   0  0  0  0  0  0  0  0  0  0  0  0
  -24.0189  -28.7436   21.3658 C   0  0  0  0  0  0  0  0  0  0  0  0
  -19.0856  -20.1033   25.6235 C   0  0  0  0  0  0  0  0  0  0  0  0
  -20.3240  -18.4413   24.3821 C   0  0  0  0  0  0  0  0  0  0  0  0
  -30.2176  -16.2461   22.1399 C   0  0  0  0  0  0  0  0  0  0  0  0
  -22.1859  -27.2490   20.8033 C   0  0  0  0  0  0  0  0  0  0  0  0
  -32.5284  -15.9902   21.7983 C   0  0  0  0  0  0  0  0  0  0  0  0
  -34.6240  -14.8148   20.3808 C   0  0  0  0  0  0  0  0  0  0  0  0
  -19.4286  -19.4676   26.8168 C   0  0  0  0  0  0  0  0  0  0  0  0
  -33.4402  -16.7906   21.1100 C   0  0  0  0  0  0  0  0  0  0  0  0
  -26.2679  -15.2321   21.0129 C   0  0  0  0  0  0  0  0  0  0  0  0
  -24.4455  -14.1536   20.4207 C   0  0  0  0  0  0  0  0  0  0  0  0
  -26.4368  -12.6791   20.7509 C   0  0  0  0  0  0  0  0  0  0  0  0
  -27.4243  -28.5879   21.2832 C   0  0  0  0  0  0  0  0  0  0  0  0
  -26.4804  -31.3740   22.6504 C   0  0  0  0  0  0  0  0  0  0  0  0
  -19.1947  -23.0777   24.1198 C   0  0  0  0  0  0  0  0  0  0  0  0
  -23.9138  -33.3529   23.7198 C   0  0  0  0  0  0  0  0  0  0  0  0
  -20.5306  -18.4285   21.8715 C   0  0  0  0  0  0  0  0  0  0  0  0
  -31.6358  -26.7548   19.0560 C   0  0  0  0  0  0  0  0  0  0  0  0
  -25.7156  -29.4103   19.6219 C   0  0  0  0  0  0  0  0  0  0  0  0
  -24.7182  -29.5858   22.4002 C   0  0  0  0  0  0  0  0  0  0  0  0
  -31.3290  -27.8397   20.0851 C   0  0  0  0  0  0  0  0  0  0  0  0
  -21.5028  -17.4570   18.5869 C   0  0  0  0  0  0  0  0  0  0  0  0
  -30.4085  -27.2977   21.1740 C   0  0  0  0  0  0  0  0  0  0  0  0
  -22.7862  -16.6541   18.8113 C   0  0  0  0  0  0  0  0  0  0  0  0
  -21.3961  -18.6369   19.5514 C   0  0  0  0  0  0  0  0  0  0  0  0
  -22.8283  -17.4905   21.1958 C   0  0  0  0  0  0  0  0  0  0  0  0
  -29.0640  -26.8505   20.5877 C   0  0  1  0  0  0  0  0  0  0  0  0
  -26.6366  -29.7664   20.7848 C   0  0  1  0  0  0  0  0  0  0  0  0
  -22.9490  -16.2536   20.2907 C   0  0  2  0  0  0  0  0  0  0  0  0
  -23.4560  -35.5564   24.8297 C   0  0  0  0  0  0  0  0  0  0  0  0
  -27.3012  -30.1875   25.3390 C   0  0  0  0  0  0  0  0  0  0  0  0
  -25.9732  -31.9893   26.4608 C   0  0  0  0  0  0  0  0  0  0  0  0
  -27.9230  -32.5895   25.0252 C   0  0  0  0  0  0  0  0  0  0  0  0
  -19.6074  -23.1566   26.5912 C   0  0  0  0  0  0  0  0  0  0  0  0
  -22.4027  -34.3498   21.3785 C   0  0  0  0  0  0  0  0  0  0  0  0
  -18.2357  -21.3408   25.6471 C   0  0  0  0  0  0  0  0  0  0  0  0
  -20.0403  -24.3412   24.0272 C   0  0  0  0  0  0  0  0  0  0  0  0
  -20.1791  -24.8515   22.5945 C   0  0  0  0  0  0  0  0  0  0  0  0
  -20.9877  -26.1394   22.5321 C   0  0  0  0  0  0  0  0  0  1  0  0
  -25.7971  -31.7534   23.9420 C   0  0  1  0  0  0  0  0  0  0  0  0
  -23.6219  -34.8271   23.5056 C   0  0  2  0  0  0  0  0  0  0  0  0
  -26.7363  -31.6124   25.1730 C   0  0  0  0  0  0  0  0  0  0  0  0
  -25.3400  -16.1851   20.8907 N   0  0  0  0  0  0  0  0  0  0  0  0
  -24.2429  -15.4980   20.5295 N   0  0  0  0  0  0  0  0  0  0  0  0
  -25.9111  -30.3118   21.9338 N   0  0  0  0  0  0  0  0  0  0  0  0
  -21.5557  -18.1810   20.9340 N   0  0  0  0  0  0  0  0  0  0  0  0
  -23.4485  -13.3149   20.0672 N   0  0  0  0  0  0  0  0  0  0  0  0
  -27.7957  -12.6464   21.0926 N   0  0  0  0  0  0  0  0  0  0  0  0
  -20.7797  -17.9200   23.1458 N   0  0  0  0  0  0  0  0  0  0  0  0
  -28.2221  -27.9973   20.3219 N   0  0  0  0  0  0  0  0  0  0  0  0
  -25.2689  -33.0989   23.7444 N   0  0  0  0  0  0  0  0  0  0  0  0
  -19.0190  -22.5454   25.4016 N   0  0  0  0  0  0  0  0  0  0  0  0
  -22.3702  -34.9977   22.7150 N   0  3  0  0  0  0  0  0  0  0  0  0
  -25.8517  -11.6092   20.4571 O   0  0  0  0  0  0  0  0  0  0  0  0
  -27.3174  -28.2412   22.4537 O   0  0  0  0  0  0  0  0  0  0  0  0
  -27.4782  -32.0017   22.2871 O   0  0  0  0  0  0  0  0  0  0  0  0
  -18.7062  -22.5763   23.1038 O   0  0  0  0  0  0  0  0  0  0  0  0
  -23.0284  -32.5114   23.8557 O   0  0  0  0  0  0  0  0  0  0  0  0
  -19.4952  -19.0221   21.5593 O   0  0  0  0  0  0  0  0  0  0  0  0
  -31.4881  -16.5722   22.5031 O   0  0  0  0  0  0  0  0  0  0  0  0
  -21.0668  -26.5691   21.1737 O   0  0  0  0  0  0  0  0  0  1  0  0
  -35.6310  -14.2503   19.7015 F   0  0  0  0  0  0  0  0  0  0  0  0
  -19.0023  -19.9525   27.9913 F   0  0  0  0  0  0  0  0  0  0  0  0
  -33.3153  -18.1247   21.1270 F   0  0  0  0  0  0  0  0  0  0  0  0
  1  2  1  0  0  0  0
  1  5  2  0  0  0  0
  2  6  2  0  0  0  0
  3  9  2  0  0  0  0
  3 18  1  0  0  0  0
  4 10  1  0  0  0  0
  4 18  2  0  0  0  0
  5 20  1  0  0  0  0
  6 22  1  0  0  0  0
  7 11  2  0  0  0  0
  7 21  1  0  0  0  0
  8 13  2  0  0  0  0
  8 25  1  0  0  0  0
  9 26  1  0  0  0  0
 10 26  2  0  0  0  0
 11 27  1  0  0  0  0
 12 14  2  0  0  0  0
 12 28  1  0  0  0  0
 13 30  1  0  0  0  0
 14 29  1  0  0  0  0
 15 23  1  0  0  0  0
 15 27  2  0  0  0  0
 16 24  1  0  0  0  0
 16 25  2  0  0  0  0
 17 29  2  0  0  0  0
 17 31  1  0  0  0  0
 18 32  1  0  0  0  0
 19 32  1  0  0  0  0
 19 33  2  0  0  0  0
 19 34  1  0  0  0  0
 20 22  2  0  0  0  0
 20 40  1  0  0  0  0
 21 23  2  0  0  0  0
 21 41  1  0  0  0  0
 22 49  1  0  0  0  0
 23 42  1  0  0  0  0
 24 30  2  0  0  0  0
 24 58  1  0  0  0  0
 25 71  1  0  0  0  0
 26 82  1  0  0  0  0
 27 83  1  0  0  0  0
 28 31  2  0  0  0  0
 28 82  1  0  0  0  0
 29 84  1  0  0  0  0
 30 85  1  0  0  0  0
 31 86  1  0  0  0  0
 32 65  2  0  0  0  0
 33 66  1  0  0  0  0
 33 69  1  0  0  0  0
 34 70  1  0  0  0  0
 34 76  2  0  0  0  0
 35 50  1  0  0  0  0
 35 72  1  0  0  0  0
 35 77  2  0  0  0  0
 36 62  1  0  0  0  0
 36 67  1  0  0  0  0
 36 78  2  0  0  0  0
 37 59  1  0  0  0  0
 37 74  1  0  0  0  0
 37 79  2  0  0  0  0
 38 63  1  0  0  0  0
 38 73  1  0  0  0  0
 38 80  2  0  0  0  0
 39 68  1  0  0  0  0
 39 71  1  0  0  0  0
 39 81  2  0  0  0  0
 40 43  1  0  0  0  0
 41 50  1  0  0  0  0
 42 67  1  0  0  0  0
 43 45  1  0  0  0  0
 44 46  1  0  0  0  0
 44 47  1  0  0  0  0
 45 49  1  0  0  0  0
 46 51  1  0  0  0  0
 47 68  1  0  0  0  0
 48 51  1  0  0  0  0
 48 68  1  0  0  0  0
 49 72  1  0  0  0  0
 50 67  1  0  0  0  0
 51 66  1  0  0  0  0
 52 63  1  0  0  0  0
 53 64  1  0  0  0  0
 54 64  1  0  0  0  0
 55 64  1  0  0  0  0
 56 74  1  0  0  0  0
 57 75  1  0  0  0  0
 58 74  1  0  0  0  0
 59 60  1  0  0  0  0
 60 61  1  0  0  0  0
 61 83  1  0  0  0  0
 62 64  1  0  0  0  0
 62 73  1  0  0  0  0
 63 75  1  0  0  0  0
 65 66  1  0  0  0  0
M  CHG  1  75   1
M  ISO  4  39 100  61 101  71 100  83 101
M  END
> <Batch ID>
0055

> <Smiles>
CNC(C)C(=O)NC(C(=O)N1Cc2cc([101O:1][101CH2:1]CCC(=O)N(C)Cc3cc([100NH:0][100C:0](=O)N4CCCC(n5nc(-c6ccc(Oc7ccc(F)cc7F)cc6)c(C(N)=O)c5N)C4)ccc3F)ccc2CC1C(=O)NC1CCCc2ccccc21)C(C)(C)C

> <Shape>
0.248

> <Color>
0.073

> <Negative vol penalty>
0.000

$$$$

  -OEChem-04042322493D

 90 99  0     1  0  0  0  0  0999 V2000
  -29.2612  -37.1816   21.6628 C   0  0  0  0  0  0  0  0  0  0  0  0
  -29.3171  -36.1019   20.7873 C   0  0  0  0  0  0  0  0  0  0  0  0
  -22.7425  -10.1655   20.1018 C   0  0  0  0  0  0  0  0  0  0  0  0
  -24.3515   -8.3652   20.0170 C   0  0  0  0  0  0  0  0  0  0  0  0
  -28.8861  -36.9821   22.9907 C   0  0  0  0  0  0  0  0  0  0  0  0
  -28.9990  -34.8218   21.2396 C   0  0  0  0  0  0  0  0  0  0  0  0
  -26.0564  -28.6833   19.0086 C   0  0  0  0  0  0  0  0  0  0  0  0
  -30.0441  -19.5377   19.3296 C   0  0  0  0  0  0  0  0  0  0  0  0
  -30.0556  -18.1474   19.4410 C   0  0  0  0  0  0  0  0  0  0  0  0
  -21.8318   -9.3216   20.7376 C   0  0  0  0  0  0  0  0  0  0  0  0
  -23.4408   -7.5213   20.6528 C   0  0  0  0  0  0  0  0  0  0  0  0
  -26.3234  -27.3158   18.9608 C   0  0  0  0  0  0  0  0  0  0  0  0
  -22.3279   -6.9766   23.7969 C   0  0  0  0  0  0  0  0  0  0  0  0
  -22.8030   -6.1802   24.8387 C   0  0  0  0  0  0  0  0  0  0  0  0
  -25.6123  -27.1029   21.2561 C   0  0  0  0  0  0  0  0  0  0  0  0
  -28.2206  -18.0068   17.8757 C   0  0  0  0  0  0  0  0  0  0  0  0
  -22.1487   -4.1982   23.6219 C   0  0  0  0  0  0  0  0  0  0  0  0
  -24.0023   -9.6872   19.7415 C   0  0  0  0  0  0  0  0  0  0  0  0
  -24.7741  -11.2173   17.8518 C   0  0  0  0  0  0  0  0  0  0  0  0
  -28.5540  -35.7004   23.4571 C   0  0  0  0  0  0  0  0  0  0  0  0
  -25.5748  -29.2738   20.1858 C   0  0  0  0  0  0  0  0  0  0  0  0
  -28.6205  -34.6047   22.5753 C   0  0  0  0  0  0  0  0  0  0  0  0
  -25.3375  -28.4777   21.3154 C   0  0  0  0  0  0  0  0  0  0  0  0
  -29.1208  -20.1627   18.4914 C   0  0  0  0  0  0  0  0  0  0  0  0
  -28.2091  -19.3972   17.7644 C   0  0  0  0  0  0  0  0  0  0  0  0
  -29.1439  -17.3819   18.7140 C   0  0  0  0  0  0  0  0  0  0  0  0
  -22.1809   -7.9996   21.0131 C   0  0  0  0  0  0  0  0  0  0  0  0
  -26.1041  -26.5258   20.0855 C   0  0  0  0  0  0  0  0  0  0  0  0
  -21.7631   -6.3839   22.6675 C   0  0  0  0  0  0  0  0  0  0  0  0
  -22.7134   -4.7910   24.7513 C   0  0  0  0  0  0  0  0  0  0  0  0
  -21.6736   -4.9947   22.5801 C   0  0  0  0  0  0  0  0  0  0  0  0
  -24.9433  -10.5583   19.0842 C   0  0  0  0  0  0  0  0  0  0  0  0
  -25.9434  -11.9151   17.6722 C   0  0  0  0  0  0  0  0  0  0  0  0
  -28.9919  -23.6985   19.6921 C   0  0  0  0  0  0  0  0  0  0  0  0
  -31.4351  -23.2585   22.3979 C   0  0  0  0  0  0  0  0  0  0  0  0
  -29.9243  -23.9775   20.6155 C   0  0  0  0  0  0  0  0  0  0  0  0
  -30.5055  -22.9796   21.4773 C   0  0  0  0  0  0  0  0  0  0  0  0
  -23.6596  -11.2004   16.9500 C   0  0  0  0  0  0  0  0  0  0  0  0
  -26.6503  -31.5040   22.1791 C   0  0  0  0  0  0  0  0  0  0  0  0
  -23.7309  -31.1379   23.5448 C   0  0  0  0  0  0  0  0  0  0  0  0
  -21.0085  -29.1489   24.0734 C   0  0  0  0  0  0  0  0  0  0  0  0
  -30.0072  -15.1914   19.6099 C   0  0  0  0  0  0  0  0  0  0  0  0
  -28.2001  -35.5268   24.9129 C   0  0  0  0  0  0  0  0  0  0  0  0
  -25.2665  -30.7457   20.2129 C   0  0  0  0  0  0  0  0  0  0  0  0
  -24.8022  -29.0594   22.5974 C   0  0  0  0  0  0  0  0  0  0  0  0
  -28.3874  -24.7462   18.7934 C   0  0  0  0  0  0  0  0  0  0  0  0
  -27.5163  -34.1967   25.2191 C   0  0  0  0  0  0  0  0  0  0  0  0
  -30.3312  -11.6928   20.1861 C   0  0  0  0  0  0  0  0  0  0  0  0
  -28.2605  -33.0469   24.5475 C   0  0  0  0  0  0  0  0  0  0  0  0
  -28.9444  -11.1400   19.8494 C   0  0  0  0  0  0  0  0  0  0  0  0
  -26.3695  -23.2268   18.6542 C   0  0  0  0  0  0  0  0  0  0  0  0
  -30.2478  -13.0594   20.8637 C   0  0  0  0  0  0  0  0  0  0  0  0
  -28.0700  -13.5107   19.8041 C   0  0  0  0  0  0  0  0  0  0  0  0
  -27.0242  -22.2808   19.6598 C   0  0  0  0  0  0  0  0  0  0  0  0
  -28.2588  -33.2048   23.0222 C   0  0  1  0  0  0  0  0  0  0  0  0
  -25.2657  -31.3302   21.6221 C   0  0  1  0  0  0  0  0  0  0  0  0
  -28.1052  -12.1649   19.0616 C   0  0  2  0  0  0  0  0  0  0  0  0
  -26.8608  -24.6658   18.8110 C   0  0  1  0  0  0  0  0  0  1  0  0
  -18.7988  -29.1093   25.2622 C   0  0  0  0  0  0  0  0  0  0  0  0
  -25.1680  -30.6693   26.1953 C   0  0  0  0  0  0  0  0  0  0  0  0
  -23.0375  -29.7171   27.1022 C   0  0  0  0  0  0  0  0  0  0  0  0
  -23.1205  -32.0962   26.3568 C   0  0  0  0  0  0  0  0  0  0  0  0
  -19.5179  -28.8318   21.5363 C   0  0  0  0  0  0  0  0  0  0  0  0
  -29.1273  -21.6595   18.3886 C   0  0  0  0  0  0  0  0  0  0  0  0
  -27.2130  -20.0443   16.8591 C   0  0  0  0  0  0  0  0  0  0  0  0
  -23.1600  -30.2531   24.6266 C   0  0  1  0  0  0  0  0  0  0  0  0
  -19.5204  -29.4278   23.9619 C   0  0  2  0  0  0  0  0  0  0  0  0
  -23.6334  -30.6730   26.0468 C   0  0  0  0  0  0  0  0  0  0  0  0
  -26.1269  -10.8143   19.6476 N   0  0  0  0  0  0  0  0  0  0  0  0
  -26.7121  -11.6420   18.7652 N   0  0  0  0  0  0  0  0  0  0  0  0
  -24.5222  -30.5047   22.5760 N   0  0  0  0  0  0  0  0  0  0  0  0
  -29.4413  -13.9792   20.0584 N   0  0  0  0  0  0  0  0  0  0  0  0
  -26.3788  -12.7295   16.6875 N   0  0  0  0  0  0  0  0  0  0  0  0
  -23.6282  -10.2241   15.9449 N   0  0  0  0  0  0  0  0  0  0  0  0
  -29.1565  -15.9694   18.8254 N   0  0  0  0  0  0  0  0  0  0  0  0
  -26.9775  -32.8136   22.4749 N   0  0  0  0  0  0  0  0  0  0  0  0
  -21.7121  -30.2737   24.4490 N   0  0  0  0  0  0  0  0  0  0  0  0
  -28.5325  -22.3352   19.5931 N   0  3  1  0  0  0  0  0  0  0  0  0
  -18.9188  -28.6029   22.8763 N   0  3  0  0  0  0  0  0  0  0  0  0
  -22.7275  -12.0367   17.0228 O   0  0  0  0  0  0  0  0  0  0  0  0
  -27.3682  -30.5225   22.3308 O   0  0  0  0  0  0  0  0  0  0  0  0
  -23.4779  -32.3452   23.5548 O   0  0  0  0  0  0  0  0  0  0  0  0
  -21.4973  -28.0430   23.8531 O   0  0  0  0  0  0  0  0  0  0  0  0
  -31.1705  -15.5028   19.8777 O   0  0  0  0  0  0  0  0  0  0  0  0
  -21.2926   -7.1760   21.6336 O   0  0  0  0  0  0  0  0  0  0  0  0
  -26.3645  -25.1908   20.0418 O   0  0  0  0  0  0  0  0  0  1  0  0
  -23.1711   -4.0262   25.7512 F   0  0  0  0  0  0  0  0  0  0  0  0
  -21.1331   -4.4194   21.4971 F   0  0  0  0  0  0  0  0  0  0  0  0
  -26.4479  -19.1094   16.2383 F   0  0  0  0  0  0  0  0  0  0  0  0
  -27.8386  -20.7454   15.8784 F   0  0  0  0  0  0  0  0  0  0  0  0
  1  2  1  0  0  0  0
  1  5  2  0  0  0  0
  2  6  2  0  0  0  0
  3 10  2  0  0  0  0
  3 18  1  0  0  0  0
  4 11  1  0  0  0  0
  4 18  2  0  0  0  0
  5 20  1  0  0  0  0
  6 22  1  0  0  0  0
  7 12  2  0  0  0  0
  7 21  1  0  0  0  0
  8  9  2  0  0  0  0
  8 24  1  0  0  0  0
  9 26  1  0  0  0  0
 10 27  1  0  0  0  0
 11 27  2  0  0  0  0
 12 28  1  0  0  0  0
 13 14  2  0  0  0  0
 13 29  1  0  0  0  0
 14 30  1  0  0  0  0
 15 23  1  0  0  0  0
 15 28  2  0  0  0  0
 16 25  1  0  0  0  0
 16 26  2  0  0  0  0
 17 30  2  0  0  0  0
 17 31  1  0  0  0  0
 18 32  1  0  0  0  0
 19 32  1  0  0  0  0
 19 33  2  0  0  0  0
 19 38  1  0  0  0  0
 20 22  2  0  0  0  0
 20 43  1  0  0  0  0
 21 23  2  0  0  0  0
 21 44  1  0  0  0  0
 22 55  1  0  0  0  0
 23 45  1  0  0  0  0
 24 25  2  0  0  0  0
 24 64  1  0  0  0  0
 25 65  1  0  0  0  0
 26 75  1  0  0  0  0
 27 85  1  0  0  0  0
 28 86  1  0  0  0  0
 29 31  2  0  0  0  0
 29 85  1  0  0  0  0
 30 87  1  0  0  0  0
 31 88  1  0  0  0  0
 32 69  2  0  0  0  0
 33 70  1  0  0  0  0
 33 73  1  0  0  0  0
 34 36  2  0  0  0  0
 34 46  1  0  0  0  0
 34 78  1  0  0  0  0
 35 37  2  0  0  0  0
 36 37  1  0  0  0  0
 38 74  1  0  0  0  0
 38 80  2  0  0  0  0
 39 56  1  0  0  0  0
 39 76  1  0  0  0  0
 39 81  2  0  0  0  0
 40 66  1  0  0  0  0
 40 71  1  0  0  0  0
 40 82  2  0  0  0  0
 41 67  1  0  0  0  0
 41 77  1  0  0  0  0
 41 83  2  0  0  0  0
 42 72  1  0  0  0  0
 42 75  1  0  0  0  0
 42 84  2  0  0  0  0
 43 47  1  0  0  0  0
 44 56  1  0  0  0  0
 45 71  1  0  0  0  0
 46 58  1  0  0  0  0
 47 49  1  0  0  0  0
 48 50  1  0  0  0  0
 48 52  1  0  0  0  0
 49 55  1  0  0  0  0
 50 57  1  0  0  0  0
 51 54  1  0  0  0  0
 51 58  1  0  0  0  0
 52 72  1  0  0  0  0
 53 57  1  0  0  0  0
 53 72  1  0  0  0  0
 54 78  1  0  0  0  0
 55 76  1  0  0  0  0
 56 71  1  0  0  0  0
 57 70  1  0  0  0  0
 58 86  1  0  0  0  0
 59 67  1  0  0  0  0
 60 68  1  0  0  0  0
 61 68  1  0  0  0  0
 62 68  1  0  0  0  0
 63 79  1  0  0  0  0
 64 78  1  0  0  0  0
 65 89  1  0  0  0  0
 65 90  1  0  0  0  0
 66 68  1  0  0  0  0
 66 77  1  0  0  0  0
 67 79  1  0  0  0  0
 69 70  1  0  0  0  0
M  CHG  2  78   1  79   1
M  ISO  4  42 100  58 101  75 100  86 101
M  END
> <Batch ID>
0055

> <Smiles>
C=CC=C1C[101CH:1]([101O:1]c2ccc3c(c2)CN(C(=O)C(NC(=O)C(C)NC)C(C)(C)C)C(C(=O)NC2CCCc4ccccc42)C3)CCN1Cc1ccc([100NH:0][100C:0](=O)N2CCCC(n3nc(-c4ccc(Oc5ccc(F)cc5F)cc4)c(C(N)=O)c3N)C2)cc1C(F)F

> <Shape>
0.294

> <Color>
0.107

> <Negative vol penalty>
0.000

$$$$

  -OEChem-04042322493D

 84 92  0     1  0  0  0  0  0999 V2000
  -22.6185  -25.8035   22.7914 C   0  0  0  0  0  0  0  0  0  0  0  0
  -23.8879  -25.3156   23.0847 C   0  0  0  0  0  0  0  0  0  0  0  0
  -23.0557   -9.7984   19.9687 C   0  0  0  0  0  0  0  0  0  0  0  0
  -23.7595   -9.8885   22.2781 C   0  0  0  0  0  0  0  0  0  0  0  0
  -22.4253  -26.6127   21.6726 C   0  0  0  0  0  0  0  0  0  0  0  0
  -24.9647  -25.6357   22.2586 C   0  0  0  0  0  0  0  0  0  0  0  0
  -29.0913  -26.9676   24.8743 C   0  0  0  0  0  0  0  0  0  0  0  0
  -31.9023  -16.7256   22.5699 C   0  0  0  0  0  0  0  0  0  0  0  0
  -22.3187   -8.6453   20.2382 C   0  0  0  0  0  0  0  0  0  0  0  0
  -23.0225   -8.7353   22.5477 C   0  0  0  0  0  0  0  0  0  0  0  0
  -29.8430  -25.9409   25.4440 C   0  0  0  0  0  0  0  0  0  0  0  0
  -23.3633   -5.4007   22.1061 C   0  0  0  0  0  0  0  0  0  0  0  0
  -23.9724   -4.4065   22.8717 C   0  0  0  0  0  0  0  0  0  0  0  0
  -32.4584  -17.6451   23.4592 C   0  0  0  0  0  0  0  0  0  0  0  0
  -31.4094  -26.0809   23.6148 C   0  0  0  0  0  0  0  0  0  0  0  0
  -29.6957  -17.5672   23.0794 C   0  0  0  0  0  0  0  0  0  0  0  0
  -22.2282   -4.6152   24.5304 C   0  0  0  0  0  0  0  0  0  0  0  0
  -23.7762  -10.4200   20.9886 C   0  0  0  0  0  0  0  0  0  0  0  0
  -24.0931  -12.9438   20.7945 C   0  0  0  0  0  0  0  0  0  0  0  0
  -23.5020  -26.9508   20.8378 C   0  0  0  0  0  0  0  0  0  0  0  0
  -29.4878  -27.5523   23.6629 C   0  0  0  0  0  0  0  0  0  0  0  0
  -24.7854  -26.4491   21.1268 C   0  0  0  0  0  0  0  0  0  0  0  0
  -30.6624  -27.1166   23.0331 C   0  0  0  0  0  0  0  0  0  0  0  0
  -30.2518  -18.4867   23.9688 C   0  0  0  0  0  0  0  0  0  0  0  0
  -30.5210  -16.6867   22.3799 C   0  0  0  0  0  0  0  0  0  0  0  0
  -22.3020   -8.1137   21.5277 C   0  0  0  0  0  0  0  0  0  0  0  0
  -31.0006  -25.4953   24.8127 C   0  0  0  0  0  0  0  0  0  0  0  0
  -22.1867   -6.0023   22.5527 C   0  0  0  0  0  0  0  0  0  0  0  0
  -23.4049   -4.0137   24.0838 C   0  0  0  0  0  0  0  0  0  0  0  0
  -21.6191   -5.6095   23.7649 C   0  0  0  0  0  0  0  0  0  0  0  0
  -31.6332  -18.5256   24.1587 C   0  0  0  0  0  0  0  0  0  0  0  0
  -24.5382  -11.6109   20.7106 C   0  0  0  0  0  0  0  0  0  0  0  0
  -25.1854  -13.6939   20.4332 C   0  0  0  0  0  0  0  0  0  0  0  0
  -32.5928  -22.2823   25.0654 C   0  0  0  0  0  0  0  0  0  0  0  0
  -32.1357  -21.1762   24.4679 C   0  0  0  0  0  0  0  0  0  0  0  0
  -22.8072  -13.4579   21.1658 C   0  0  0  0  0  0  0  0  0  0  0  0
  -28.2090  -27.7905   20.7627 C   0  0  0  0  0  0  0  0  0  0  0  0
  -30.7740  -29.6990   20.2140 C   0  0  0  0  0  0  0  0  0  0  0  0
  -33.9605  -30.5831   21.0573 C   0  0  0  0  0  0  0  0  0  0  0  0
  -30.6339  -14.8089   20.7044 C   0  0  0  0  0  0  0  0  0  0  0  0
  -23.2355  -27.7899   19.6132 C   0  0  0  0  0  0  0  0  0  0  0  0
  -28.6805  -28.6771   23.0752 C   0  0  0  0  0  0  0  0  0  0  0  0
  -31.1422  -27.7251   21.7416 C   0  0  0  0  0  0  0  0  0  0  0  0
  -24.4978  -28.3895   18.9991 C   0  0  0  0  0  0  0  0  0  0  0  0
  -29.6040  -12.3068   18.3902 C   0  0  0  0  0  0  0  0  0  0  0  0
  -25.5912  -27.3318   18.8868 C   0  0  0  0  0  0  0  0  0  0  0  0
  -28.1576  -12.0123   18.7945 C   0  0  0  0  0  0  0  0  0  0  0  0
  -30.4871  -12.5851   19.6053 C   0  0  0  0  0  0  0  0  0  0  0  0
  -28.5393  -13.3313   20.9161 C   0  0  0  0  0  0  0  0  0  0  0  0
  -25.9831  -26.7946   20.2686 C   0  0  1  0  0  0  0  0  0  0  0  0
  -28.8993  -28.8493   21.5752 C   0  0  1  0  0  0  0  0  0  0  0  0
  -27.5973  -13.1086   19.7217 C   0  0  2  0  0  0  0  0  0  0  0  0
  -29.3407  -19.4155   24.7027 C   0  0  0  0  0  0  0  0  0  0  0  0
  -35.8082  -32.1505   20.4041 C   0  0  0  0  0  0  0  0  0  0  0  0
  -31.4042  -27.9454   17.7978 C   0  0  0  0  0  0  0  0  0  0  0  0
  -33.7026  -28.9376   17.7649 C   0  0  0  0  0  0  0  0  0  0  0  0
  -31.7106  -30.3978   17.4153 C   0  0  0  0  0  0  0  0  0  0  0  0
  -33.9455  -31.8919   23.7117 C   0  0  0  0  0  0  0  0  0  0  0  0
  -32.4594  -23.6482   24.4722 C   0  0  0  0  0  0  0  0  0  1  0  0
  -32.1844  -29.4792   19.7226 C   0  0  1  0  0  0  0  0  0  0  0  0
  -34.5987  -31.9387   21.3013 C   0  0  2  0  0  0  0  0  0  0  0  0
  -32.2406  -29.1770   18.1985 C   0  0  0  0  0  0  0  0  0  0  0  0
  -25.8138  -11.5164   20.3261 N   0  0  0  0  0  0  0  0  0  0  0  0
  -26.1796  -12.7995   20.1650 N   0  0  0  0  0  0  0  0  0  0  0  0
  -30.3152  -28.8176   21.2032 N   0  0  0  0  0  0  0  0  0  0  0  0
  -29.8957  -13.6371   20.4349 N   0  0  0  0  0  0  0  0  0  0  0  0
  -25.3829  -15.0247   20.3219 N   0  0  0  0  0  0  0  0  0  0  0  0
  -21.7974  -12.5483   21.5083 N   0  0  0  0  0  0  0  0  0  0  0  0
  -29.9568  -15.7522   21.4765 N   0  0  0  0  0  0  0  0  0  0  0  0
  -26.8413  -27.7378   20.9528 N   0  0  0  0  0  0  0  0  0  0  0  0
  -32.9455  -30.6564   20.1269 N   0  0  0  0  0  0  0  0  0  0  0  0
  -35.0395  -32.0559   22.7200 N   0  3  0  0  0  0  0  0  0  0  0  0
  -22.5561  -14.6869   21.1774 O   0  0  0  0  0  0  0  0  0  0  0  0
  -28.8682  -27.0754   20.0172 O   0  0  0  0  0  0  0  0  0  0  0  0
  -30.1065  -30.6231   19.7428 O   0  0  0  0  0  0  0  0  0  0  0  0
  -34.3284  -29.5606   21.6316 O   0  0  0  0  0  0  0  0  0  0  0  0
  -31.7722  -14.9756   20.2587 O   0  0  0  0  0  0  0  0  0  0  0  0
  -31.5867  -19.6635   26.5026 O   0  0  0  0  0  0  0  0  0  0  0  0
  -33.7905  -19.3603   25.3317 O   0  0  0  0  0  0  0  0  0  0  0  0
  -21.5828   -6.9887   21.7912 O   0  0  0  0  0  0  0  0  0  0  0  0
  -31.7358  -24.4929   25.3663 O   0  0  0  0  0  0  0  0  0  1  0  0
  -23.9891   -3.0578   24.8181 F   0  0  0  0  0  0  0  0  0  0  0  0
  -20.4883   -6.1829   24.1986 F   0  0  0  0  0  0  0  0  0  0  0  0
  -32.3731  -19.6796   25.2801 S   0  0  0  0  0  0  0  0  0  0  0  0
  1  2  1  0  0  0  0
  1  5  2  0  0  0  0
  2  6  2  0  0  0  0
  3  9  2  0  0  0  0
  3 18  1  0  0  0  0
  4 10  1  0  0  0  0
  4 18  2  0  0  0  0
  5 20  1  0  0  0  0
  6 22  1  0  0  0  0
  7 11  2  0  0  0  0
  7 21  1  0  0  0  0
  8 14  2  0  0  0  0
  8 25  1  0  0  0  0
  9 26  1  0  0  0  0
 10 26  2  0  0  0  0
 11 27  1  0  0  0  0
 12 13  2  0  0  0  0
 12 28  1  0  0  0  0
 13 29  1  0  0  0  0
 14 31  1  0  0  0  0
 15 23  1  0  0  0  0
 15 27  2  0  0  0  0
 16 24  1  0  0  0  0
 16 25  2  0  0  0  0
 17 29  2  0  0  0  0
 17 30  1  0  0  0  0
 18 32  1  0  0  0  0
 19 32  1  0  0  0  0
 19 33  2  0  0  0  0
 19 36  1  0  0  0  0
 20 22  2  0  0  0  0
 20 41  1  0  0  0  0
 21 23  2  0  0  0  0
 21 42  1  0  0  0  0
 22 50  1  0  0  0  0
 23 43  1  0  0  0  0
 24 31  2  0  0  0  0
 24 53  1  0  0  0  0
 25 69  1  0  0  0  0
 26 80  1  0  0  0  0
 27 81  1  0  0  0  0
 28 30  2  0  0  0  0
 28 80  1  0  0  0  0
 29 82  1  0  0  0  0
 30 83  1  0  0  0  0
 31 84  1  0  0  0  0
 32 63  2  0  0  0  0
 33 64  1  0  0  0  0
 33 67  1  0  0  0  0
 34 35  2  0  0  0  0
 34 59  1  0  0  0  0
 35 84  1  0  0  0  0
 36 68  1  0  0  0  0
 36 73  2  0  0  0  0
 37 51  1  0  0  0  0
 37 70  1  0  0  0  0
 37 74  2  0  0  0  0
 38 60  1  0  0  0  0
 38 65  1  0  0  0  0
 38 75  2  0  0  0  0
 39 61  1  0  0  0  0
 39 71  1  0  0  0  0
 39 76  2  0  0  0  0
 40 66  1  0  0  0  0
 40 69  1  0  0  0  0
 40 77  2  0  0  0  0
 41 44  1  0  0  0  0
 42 51  1  0  0  0  0
 43 65  1  0  0  0  0
 44 46  1  0  0  0  0
 45 47  1  0  0  0  0
 45 48  1  0  0  0  0
 46 50  1  0  0  0  0
 47 52  1  0  0  0  0
 48 66  1  0  0  0  0
 49 52  1  0  0  0  0
 49 66  1  0  0  0  0
 50 70  1  0  0  0  0
 51 65  1  0  0  0  0
 52 64  1  0  0  0  0
 54 61  1  0  0  0  0
 55 62  1  0  0  0  0
 56 62  1  0  0  0  0
 57 62  1  0  0  0  0
 58 72  1  0  0  0  0
 59 81  1  0  0  0  0
 60 62  1  0  0  0  0
 60 71  1  0  0  0  0
 61 72  1  0  0  0  0
 63 64  1  0  0  0  0
 78 84  2  0  0  0  0
 79 84  2  0  0  0  0
M  CHG  1  72   1
M  ISO  4  40 100  59 101  69 100  81 101
M  END
> <Batch ID>
0055

> <Smiles>
CNC(C)C(=O)NC(C(=O)N1Cc2cc([101O:1][101CH2:1]C=CS(=O)(=O)c3ccc([100NH:0][100C:0](=O)N4CCCC(n5nc(-c6ccc(Oc7ccc(F)cc7F)cc6)c(C(N)=O)c5N)C4)cc3C)ccc2CC1C(=O)NC1CCCc2ccccc21)C(C)(C)C

> <Shape>
0.233

> <Color>
0.215

> <Negative vol penalty>
0.000

$$$$

  -OEChem-04042322493D

 85 94  0     1  0  0  0  0  0999 V2000
  -33.3204  -16.5088   23.6197 C   0  0  0  0  0  0  0  0  0  0  0  0
  -32.7097  -17.7587   23.6106 C   0  0  0  0  0  0  0  0  0  0  0  0
  -18.2126  -26.1885   20.3014 C   0  0  0  0  0  0  0  0  0  0  0  0
  -27.0574  -25.7244   18.3032 C   0  0  0  0  0  0  0  0  0  0  0  0
  -28.4467  -26.1698   20.2290 C   0  0  0  0  0  0  0  0  0  0  0  0
  -32.9623  -15.5523   22.6706 C   0  0  0  0  0  0  0  0  0  0  0  0
  -31.7412  -18.0533   22.6515 C   0  0  0  0  0  0  0  0  0  0  0  0
  -24.3696  -20.4718   23.5661 C   0  0  0  0  0  0  0  0  0  0  0  0
  -18.6528  -27.3982   20.8384 C   0  0  0  0  0  0  0  0  0  0  0  0
  -18.3411  -25.0107   21.0376 C   0  0  0  0  0  0  0  0  0  0  0  0
  -27.7016  -24.5007   18.1215 C   0  0  0  0  0  0  0  0  0  0  0  0
  -29.0909  -24.9460   20.0473 C   0  0  0  0  0  0  0  0  0  0  0  0
  -23.0030  -20.7497   23.6035 C   0  0  0  0  0  0  0  0  0  0  0  0
  -31.4980  -23.6709   18.0447 C   0  0  0  0  0  0  0  0  0  0  0  0
  -32.8895  -23.6506   18.1397 C   0  0  0  0  0  0  0  0  0  0  0  0
  -22.7144  -19.6719   21.4580 C   0  0  0  0  0  0  0  0  0  0  0  0
  -19.3504  -26.2523   22.8478 C   0  0  0  0  0  0  0  0  0  0  0  0
  -32.7414  -22.0815   19.9709 C   0  0  0  0  0  0  0  0  0  0  0  0
  -27.4300  -26.5590   19.3570 C   0  0  0  0  0  0  0  0  0  0  0  0
  -26.7070  -28.8967   18.6356 C   0  0  0  0  0  0  0  0  0  0  0  0
  -31.9820  -15.8319   21.7055 C   0  0  0  0  0  0  0  0  0  0  0  0
  -24.9118  -19.7785   22.4804 C   0  0  0  0  0  0  0  0  0  0  0  0
  -31.3707  -17.1001   21.6878 C   0  0  0  0  0  0  0  0  0  0  0  0
  -24.0804  -19.3798   21.4209 C   0  0  0  0  0  0  0  0  0  0  0  0
  -19.2218  -27.4301   22.1116 C   0  0  0  0  0  0  0  0  0  0  0  0
  -18.9101  -25.0426   22.3108 C   0  0  0  0  0  0  0  0  0  0  0  0
  -28.7183  -24.1114   18.9935 C   0  0  0  0  0  0  0  0  0  0  0  0
  -22.1775  -20.3510   22.5519 C   0  0  0  0  0  0  0  0  0  0  0  0
  -30.7282  -22.8966   18.9128 C   0  0  0  0  0  0  0  0  0  0  0  0
  -33.5112  -22.8559   19.1028 C   0  0  0  0  0  0  0  0  0  0  0  0
  -31.3500  -22.1019   19.8759 C   0  0  0  0  0  0  0  0  0  0  0  0
  -26.7653  -27.8236   19.5449 C   0  0  0  0  0  0  0  0  0  0  0  0
  -25.9648  -29.8546   19.2821 C   0  0  0  0  0  0  0  0  0  0  0  0
  -18.4380  -23.6442   24.3170 C   0  0  0  0  0  0  0  0  0  0  0  0
  -17.3358  -24.2719   24.7715 C   0  0  0  0  0  0  0  0  0  0  0  0
  -27.2731  -29.0169   17.3238 C   0  0  0  0  0  0  0  0  0  0  0  0
  -27.9693  -18.3003   20.8858 C   0  0  0  0  0  0  0  0  0  0  0  0
  -25.6742  -16.3193   20.4183 C   0  0  0  0  0  0  0  0  0  0  0  0
  -22.9872  -14.2185   20.4833 C   0  0  0  0  0  0  0  0  0  0  0  0
  -21.8322  -29.5803   23.6063 C   0  0  0  0  0  0  0  0  0  0  0  0
  -31.6621  -14.7826   20.6705 C   0  0  0  0  0  0  0  0  0  0  0  0
  -26.3884  -19.5116   22.3691 C   0  0  0  0  0  0  0  0  0  0  0  0
  -24.7133  -18.6669   20.2573 C   0  0  0  0  0  0  0  0  0  0  0  0
  -19.0770  -22.6066   25.2198 C   0  0  0  0  0  0  0  0  0  0  0  0
  -30.3582  -15.0439   19.9210 C   0  0  0  0  0  0  0  0  0  0  0  0
  -19.5399  -21.3762   24.4538 C   0  0  0  0  0  0  0  0  0  0  0  0
  -24.8795  -31.4206   23.6708 C   0  0  0  0  0  0  0  0  0  0  0  0
  -30.2821  -16.5003   19.4740 C   0  0  0  0  0  0  0  0  0  0  0  0
  -25.7031  -30.8042   22.5387 C   0  0  0  0  0  0  0  0  0  0  0  0
  -24.0431  -30.3695   24.3972 C   0  0  0  0  0  0  0  0  0  0  0  0
  -24.0021  -28.9378   22.3916 C   0  0  0  0  0  0  0  0  0  0  0  0
  -19.7155  -22.7387   22.3514 C   0  0  0  0  0  0  0  0  0  0  0  0
  -30.2980  -17.4488   20.6789 C   0  0  1  0  0  0  0  0  0  0  0  0
  -26.7092  -18.1682   21.6898 C   0  0  1  0  0  0  0  0  0  0  0  0
  -24.8195  -29.9679   21.5936 C   0  0  2  0  0  0  0  0  0  0  0  0
  -20.4440  -21.7916   23.3031 C   0  0  2  0  0  0  0  0  0  1  0  0
  -22.2447  -11.9460   19.7206 C   0  0  0  0  0  0  0  0  0  0  0  0
  -25.3685  -17.3778   17.5740 C   0  0  0  0  0  0  0  0  0  0  0  0
  -23.7985  -15.4828   17.1133 C   0  0  0  0  0  0  0  0  0  0  0  0
  -26.1704  -15.0139   17.7272 C   0  0  0  0  0  0  0  0  0  0  0  0
  -22.5161  -13.3125   23.2611 C   0  0  0  0  0  0  0  0  0  0  0  0
  -19.6930  -28.7235   22.6851 C   0  0  0  0  0  0  0  0  0  0  0  0
  -24.5738  -15.8522   19.4994 C   0  0  1  0  0  0  0  0  0  0  0  0
  -22.8643  -12.7511   20.8523 C   0  0  2  0  0  0  0  0  0  0  0  0
  -24.9727  -15.9498   17.9997 C   0  0  0  0  0  0  0  0  0  0  0  0
  -26.1123  -28.0755   20.6825 N   0  0  0  0  0  0  0  0  0  0  0  0
  -25.6367  -29.3180   20.4923 N   0  0  0  0  0  0  0  0  0  0  0  0
  -19.0410  -23.8399   23.0626 N   0  0  0  0  0  0  0  0  0  0  0  0
  -25.6911  -17.6810   20.7436 N   0  0  0  0  0  0  0  0  0  0  0  0
  -23.2272  -29.6126   23.4447 N   0  0  0  0  0  0  0  0  0  0  0  0
  -25.5673  -31.0951   18.9278 N   0  0  0  0  0  0  0  0  0  0  0  0
  -28.5667  -29.5418   17.1999 N   0  0  0  0  0  0  0  0  0  0  0  0
  -28.9976  -17.4820   21.3131 N   0  0  0  0  0  0  0  0  0  0  0  0
  -24.2202  -14.5062   19.9372 N   0  0  0  0  0  0  0  0  0  0  0  0
  -21.1335  -28.8454   22.6563 N   0  0  0  0  0  0  0  0  0  0  0  0
  -22.0117  -12.5914   22.0642 N   0  3  0  0  0  0  0  0  0  0  0  0
  -26.6440  -28.6844   16.2908 O   0  0  0  0  0  0  0  0  0  0  0  0
  -28.0066  -19.0854   19.9457 O   0  0  0  0  0  0  0  0  0  0  0  0
  -26.5009  -15.5022   20.8333 O   0  0  0  0  0  0  0  0  0  0  0  0
  -22.0789  -15.0277   20.6583 O   0  0  0  0  0  0  0  0  0  0  0  0
  -21.2520  -30.1676   24.5257 O   0  0  0  0  0  0  0  0  0  0  0  0
  -29.3469  -22.9173   18.8167 O   0  0  0  0  0  0  0  0  0  0  0  0
  -20.8436  -20.6215   22.5969 O   0  0  0  0  0  0  0  0  0  1  0  0
  -34.8475  -22.8353   19.1930 F   0  0  0  0  0  0  0  0  0  0  0  0
  -30.6158  -21.3550   20.7119 F   0  0  0  0  0  0  0  0  0  0  0  0
  1  2  1  0  0  0  0
  1  6  2  0  0  0  0
  2  7  2  0  0  0  0
  3  9  1  0  0  0  0
  3 10  2  0  0  0  0
  4 11  2  0  0  0  0
  4 19  1  0  0  0  0
  5 12  1  0  0  0  0
  5 19  2  0  0  0  0
  6 21  1  0  0  0  0
  7 23  1  0  0  0  0
  8 13  2  0  0  0  0
  8 22  1  0  0  0  0
  9 25  2  0  0  0  0
 10 26  1  0  0  0  0
 11 27  1  0  0  0  0
 12 27  2  0  0  0  0
 13 28  1  0  0  0  0
 14 15  2  0  0  0  0
 14 29  1  0  0  0  0
 15 30  1  0  0  0  0
 16 24  1  0  0  0  0
 16 28  2  0  0  0  0
 17 25  1  0  0  0  0
 17 26  2  0  0  0  0
 18 30  2  0  0  0  0
 18 31  1  0  0  0  0
 19 32  1  0  0  0  0
 20 32  1  0  0  0  0
 20 33  2  0  0  0  0
 20 36  1  0  0  0  0
 21 23  2  0  0  0  0
 21 41  1  0  0  0  0
 22 24  2  0  0  0  0
 22 42  1  0  0  0  0
 23 53  1  0  0  0  0
 24 43  1  0  0  0  0
 25 62  1  0  0  0  0
 26 68  1  0  0  0  0
 27 82  1  0  0  0  0
 28 83  1  0  0  0  0
 29 31  2  0  0  0  0
 29 82  1  0  0  0  0
 30 84  1  0  0  0  0
 31 85  1  0  0  0  0
 32 66  2  0  0  0  0
 33 67  1  0  0  0  0
 33 71  1  0  0  0  0
 34 35  2  0  0  0  0
 34 44  1  0  0  0  0
 34 68  1  0  0  0  0
 36 72  1  0  0  0  0
 36 77  2  0  0  0  0
 37 54  1  0  0  0  0
 37 73  1  0  0  0  0
 37 78  2  0  0  0  0
 38 63  1  0  0  0  0
 38 69  1  0  0  0  0
 38 79  2  0  0  0  0
 39 64  1  0  0  0  0
 39 74  1  0  0  0  0
 39 80  2  0  0  0  0
 40 70  1  0  0  0  0
 40 75  1  0  0  0  0
 40 81  2  0  0  0  0
 41 45  1  0  0  0  0
 42 54  1  0  0  0  0
 43 69  1  0  0  0  0
 44 46  1  0  0  0  0
 45 48  1  0  0  0  0
 46 56  1  0  0  0  0
 47 49  1  0  0  0  0
 47 50  1  0  0  0  0
 48 53  1  0  0  0  0
 49 55  1  0  0  0  0
 50 70  1  0  0  0  0
 51 55  1  0  0  0  0
 51 70  1  0  0  0  0
 52 56  1  0  0  0  0
 52 68  1  0  0  0  0
 53 73  1  0  0  0  0
 54 69  1  0  0  0  0
 55 67  1  0  0  0  0
 56 83  1  0  0  0  0
 57 64  1  0  0  0  0
 58 65  1  0  0  0  0
 59 65  1  0  0  0  0
 60 65  1  0  0  0  0
 61 76  1  0  0  0  0
 62 75  1  0  0  0  0
 63 65  1  0  0  0  0
 63 74  1  0  0  0  0
 64 76  1  0  0  0  0
 66 67  1  0  0  0  0
M  CHG  1  76   1
M  ISO  4  40 100  56 101  75 100  83 101
M  END
> <Batch ID>
0055

> <Smiles>
C=C1CC[101CH:1]([101O:1]c2ccc3c(c2)CN(C(=O)C(NC(=O)C(C)NC)C(C)(C)C)C(C(=O)NC2CCCc4ccccc42)C3)CN1c1cccc(C[100NH:0][100C:0](=O)N2CCCC(n3nc(-c4ccc(Oc5ccc(F)cc5F)cc4)c(C(N)=O)c3N)C2)c1

> <Shape>
0.220

> <Color>
0.084

> <Negative vol penalty>
0.000

$$$$

  -OEChem-04042322493D

 84 92  0     1  0  0  0  0  0999 V2000
  -17.6546  -25.9337   23.1325 C   0  0  0  0  0  0  0  0  0  0  0  0
  -18.8535  -25.6612   22.4815 C   0  0  0  0  0  0  0  0  0  0  0  0
  -28.8576  -21.4553   13.4594 C   0  0  0  0  0  0  0  0  0  0  0  0
  -29.3058  -13.7191   20.9485 C   0  0  0  0  0  0  0  0  0  0  0  0
  -29.2934  -13.8507   18.5361 C   0  0  0  0  0  0  0  0  0  0  0  0
  -17.2269  -27.2525   23.2801 C   0  0  0  0  0  0  0  0  0  0  0  0
  -19.6250  -26.7075   21.9768 C   0  0  0  0  0  0  0  0  0  0  0  0
  -25.7376  -26.9842   21.7227 C   0  0  0  0  0  0  0  0  0  0  0  0
  -28.1041  -22.6290   13.4422 C   0  0  0  0  0  0  0  0  0  0  0  0
  -29.4098  -20.9984   14.6561 C   0  0  0  0  0  0  0  0  0  0  0  0
  -28.4447  -12.6233   20.8932 C   0  0  0  0  0  0  0  0  0  0  0  0
  -28.4322  -12.7548   18.4808 C   0  0  0  0  0  0  0  0  0  0  0  0
  -26.6460  -26.7343   20.6950 C   0  0  0  0  0  0  0  0  0  0  0  0
  -28.6682   -9.3089   20.2625 C   0  0  0  0  0  0  0  0  0  0  0  0
  -28.9607   -8.2130   21.0743 C   0  0  0  0  0  0  0  0  0  0  0  0
  -26.6993  -29.0898   20.1774 C   0  0  0  0  0  0  0  0  0  0  0  0
  -28.4551  -22.8891   15.8184 C   0  0  0  0  0  0  0  0  0  0  0  0
  -26.8306   -8.4677   22.1856 C   0  0  0  0  0  0  0  0  0  0  0  0
  -29.7302  -14.3329   19.7700 C   0  0  0  0  0  0  0  0  0  0  0  0
  -32.0268  -15.4423   19.8177 C   0  0  0  0  0  0  0  0  0  0  0  0
  -17.9983  -28.3160   22.7855 C   0  0  0  0  0  0  0  0  0  0  0  0
  -25.2942  -28.2896   21.9788 C   0  0  0  0  0  0  0  0  0  0  0  0
  -19.2066  -28.0416   22.1168 C   0  0  0  0  0  0  0  0  0  0  0  0
  -25.7873  -29.3540   21.2106 C   0  0  0  0  0  0  0  0  0  0  0  0
  -27.9028  -23.3459   14.6217 C   0  0  0  0  0  0  0  0  0  0  0  0
  -29.2085  -21.7153   15.8356 C   0  0  0  0  0  0  0  0  0  0  0  0
  -28.0079  -12.1411   19.6594 C   0  0  0  0  0  0  0  0  0  0  0  0
  -27.1247  -27.7867   19.9203 C   0  0  0  0  0  0  0  0  0  0  0  0
  -27.4570   -9.9843   20.4123 C   0  0  0  0  0  0  0  0  0  0  0  0
  -28.0419   -7.7923   22.0358 C   0  0  0  0  0  0  0  0  0  0  0  0
  -26.5382   -9.5636   21.3738 C   0  0  0  0  0  0  0  0  0  0  0  0
  -30.6193  -15.4653   19.8265 C   0  0  0  0  0  0  0  0  0  0  0  0
  -32.3923  -16.7644   19.8871 C   0  0  0  0  0  0  0  0  0  0  0  0
  -32.9237  -14.3256   19.7526 C   0  0  0  0  0  0  0  0  0  0  0  0
  -22.4741  -29.7546   21.9110 C   0  0  0  0  0  0  0  0  0  0  0  0
  -24.1688  -32.2317   23.1413 C   0  0  0  0  0  0  0  0  0  0  0  0
  -27.5120  -26.4976   16.1974 C   0  0  0  0  0  0  0  0  0  0  0  0
  -27.1934  -33.7648   23.5269 C   0  0  0  0  0  0  0  0  0  0  0  0
  -29.6652  -21.8418   18.3098 C   0  0  0  0  0  0  0  0  0  0  0  0
  -17.4717  -29.7222   22.9273 C   0  0  0  0  0  0  0  0  0  0  0  0
  -24.3346  -28.5460   23.1084 C   0  0  0  0  0  0  0  0  0  0  0  0
  -25.3581  -30.7763   21.4582 C   0  0  0  0  0  0  0  0  0  0  0  0
  -18.5315  -30.7959   22.6941 C   0  0  0  0  0  0  0  0  0  0  0  0
  -30.8681  -20.9886   21.5505 C   0  0  0  0  0  0  0  0  0  0  0  0
  -19.3395  -30.4845   21.4383 C   0  0  0  0  0  0  0  0  0  0  0  0
  -31.0747  -19.4742   21.4735 C   0  0  0  0  0  0  0  0  0  0  0  0
  -29.6385  -21.4342   20.7610 C   0  0  0  0  0  0  0  0  0  0  0  0
  -29.8064  -19.4670   19.2875 C   0  0  0  0  0  0  0  0  0  0  0  0
  -20.0834  -29.1509   21.5775 C   0  0  1  0  0  0  0  0  0  0  0  0
  -23.5573  -29.8489   22.9480 C   0  0  1  0  0  0  0  0  0  0  0  0
  -31.0701  -18.9783   20.0141 C   0  0  2  0  0  0  0  0  0  0  0  0
  -28.2569  -35.7945   24.5499 C   0  0  0  0  0  0  0  0  0  0  0  0
  -23.0649  -33.9497   20.8741 C   0  0  0  0  0  0  0  0  0  0  0  0
  -24.8512  -35.6318   21.3724 C   0  0  0  0  0  0  0  0  0  0  0  0
  -23.1389  -35.0841   23.1017 C   0  0  0  0  0  0  0  0  0  0  0  0
  -29.0284  -26.0901   14.2467 C   0  0  0  0  0  0  0  0  0  0  0  0
  -28.9090  -32.1200   25.2905 C   0  0  0  0  0  0  0  0  0  0  0  0
  -27.0917  -24.6092   14.6027 C   0  0  0  0  0  0  0  0  0  0  0  0
  -28.4202  -27.6726   16.5449 C   0  0  0  0  0  0  0  0  0  0  0  0
  -27.9747  -28.4247   17.7927 C   0  0  0  0  0  0  0  0  0  1  0  0
  -24.9389  -33.3932   22.5607 C   0  0  1  0  0  0  0  0  0  0  0  0
  -27.8853  -34.3338   24.7525 C   0  0  2  0  0  0  0  0  0  0  0  0
  -24.0053  -34.4878   21.9711 C   0  0  0  0  0  0  0  0  0  0  0  0
  -30.1243  -16.7039   19.8961 N   0  0  0  0  0  0  0  0  0  0  0  0
  -31.2269  -17.4715   19.9319 N   0  0  0  0  0  0  0  0  0  0  0  0
  -24.4135  -30.9750   22.5699 N   0  0  0  0  0  0  0  0  0  0  0  0
  -29.7054  -20.9315   19.3871 N   0  0  0  0  0  0  0  0  0  0  0  0
  -33.5937  -17.3795   19.9138 N   0  0  0  0  0  0  0  0  0  0  0  0
  -32.3805  -13.0353   19.6858 N   0  0  0  0  0  0  0  0  0  0  0  0
  -29.7691  -21.2506   17.0511 N   0  0  0  0  0  0  0  0  0  0  0  0
  -21.2608  -29.3127   22.4033 N   0  0  0  0  0  0  0  0  0  0  0  0
  -25.8216  -33.8683   23.6206 N   0  0  0  0  0  0  0  0  0  0  0  0
  -27.8642  -25.7619   15.0603 N   0  0  0  0  0  0  0  0  0  0  0  0
  -29.1298  -33.5687   25.0467 N   0  3  0  0  0  0  0  0  0  0  0  0
  -34.1700  -14.4668   19.7702 O   0  0  0  0  0  0  0  0  0  0  0  0
  -22.7203  -30.0614   20.7504 O   0  0  0  0  0  0  0  0  0  0  0  0
  -23.3846  -32.4311   24.0723 O   0  0  0  0  0  0  0  0  0  0  0  0
  -26.5309  -26.2346   16.8978 O   0  0  0  0  0  0  0  0  0  0  0  0
  -27.8085  -33.2805   22.5795 O   0  0  0  0  0  0  0  0  0  0  0  0
  -29.5748  -23.0587   18.4915 O   0  0  0  0  0  0  0  0  0  0  0  0
  -27.1677  -11.0716   19.6050 O   0  0  0  0  0  0  0  0  0  0  0  0
  -28.0109  -27.5455   18.9161 O   0  0  0  0  0  0  0  0  0  1  0  0
  -28.3222   -6.7390   22.8143 F   0  0  0  0  0  0  0  0  0  0  0  0
  -25.3723  -10.2077   21.5215 F   0  0  0  0  0  0  0  0  0  0  0  0
  1  2  1  0  0  0  0
  1  6  2  0  0  0  0
  2  7  2  0  0  0  0
  3  9  2  0  0  0  0
  3 10  1  0  0  0  0
  4 11  2  0  0  0  0
  4 19  1  0  0  0  0
  5 12  1  0  0  0  0
  5 19  2  0  0  0  0
  6 21  1  0  0  0  0
  7 23  1  0  0  0  0
  8 13  2  0  0  0  0
  8 22  1  0  0  0  0
  9 25  1  0  0  0  0
 10 26  2  0  0  0  0
 11 27  1  0  0  0  0
 12 27  2  0  0  0  0
 13 28  1  0  0  0  0
 14 15  2  0  0  0  0
 14 29  1  0  0  0  0
 15 30  1  0  0  0  0
 16 24  1  0  0  0  0
 16 28  2  0  0  0  0
 17 25  2  0  0  0  0
 17 26  1  0  0  0  0
 18 30  2  0  0  0  0
 18 31  1  0  0  0  0
 19 32  1  0  0  0  0
 20 32  1  0  0  0  0
 20 33  2  0  0  0  0
 20 34  1  0  0  0  0
 21 23  2  0  0  0  0
 21 40  1  0  0  0  0
 22 24  2  0  0  0  0
 22 41  1  0  0  0  0
 23 49  1  0  0  0  0
 24 42  1  0  0  0  0
 25 58  1  0  0  0  0
 26 70  1  0  0  0  0
 27 81  1  0  0  0  0
 28 82  1  0  0  0  0
 29 31  2  0  0  0  0
 29 81  1  0  0  0  0
 30 83  1  0  0  0  0
 31 84  1  0  0  0  0
 32 64  2  0  0  0  0
 33 65  1  0  0  0  0
 33 68  1  0  0  0  0
 34 69  1  0  0  0  0
 34 75  2  0  0  0  0
 35 50  1  0  0  0  0
 35 71  1  0  0  0  0
 35 76  2  0  0  0  0
 36 61  1  0  0  0  0
 36 66  1  0  0  0  0
 36 77  2  0  0  0  0
 37 59  1  0  0  0  0
 37 73  1  0  0  0  0
 37 78  2  0  0  0  0
 38 62  1  0  0  0  0
 38 72  1  0  0  0  0
 38 79  2  0  0  0  0
 39 67  1  0  0  0  0
 39 70  1  0  0  0  0
 39 80  2  0  0  0  0
 40 43  1  0  0  0  0
 41 50  1  0  0  0  0
 42 66  1  0  0  0  0
 43 45  1  0  0  0  0
 44 46  1  0  0  0  0
 44 47  1  0  0  0  0
 45 49  1  0  0  0  0
 46 51  1  0  0  0  0
 47 67  1  0  0  0  0
 48 51  1  0  0  0  0
 48 67  1  0  0  0  0
 49 71  1  0  0  0  0
 50 66  1  0  0  0  0
 51 65  1  0  0  0  0
 52 62  1  0  0  0  0
 53 63  1  0  0  0  0
 54 63  1  0  0  0  0
 55 63  1  0  0  0  0
 56 73  1  0  0  0  0
 57 74  1  0  0  0  0
 58 73  1  0  0  0  0
 59 60  1  0  0  0  0
 60 82  1  0  0  0  0
 61 63  1  0  0  0  0
 61 72  1  0  0  0  0
 62 74  1  0  0  0  0
 64 65  1  0  0  0  0
M  CHG  1  74   1
M  ISO  4  39 100  60 101  70 100  82 101
M  END
> <Batch ID>
0055

> <Smiles>
CNC(C)C(=O)NC(C(=O)N1Cc2cc([101O:1][101CH2:1]CC(=O)N(C)Cc3cccc([100NH:0][100C:0](=O)N4CCCC(n5nc(-c6ccc(Oc7ccc(F)cc7F)cc6)c(C(N)=O)c5N)C4)c3)ccc2CC1C(=O)NC1CCCc2ccccc21)C(C)(C)C

> <Shape>
0.252

> <Color>
0.110

> <Negative vol penalty>
0.000

$$$$

  -OEChem-04042322493D

 90 99  0     1  0  0  0  0  0999 V2000
  -26.2843  -35.0588   24.2630 C   0  0  0  0  0  0  0  0  0  0  0  0
  -26.8019  -33.8321   23.8596 C   0  0  0  0  0  0  0  0  0  0  0  0
  -23.4844  -14.0690   20.7749 C   0  0  0  0  0  0  0  0  0  0  0  0
  -25.8032  -14.4114   21.3608 C   0  0  0  0  0  0  0  0  0  0  0  0
  -24.9694  -35.1433   24.7190 C   0  0  0  0  0  0  0  0  0  0  0  0
  -26.0052  -32.6889   23.9130 C   0  0  0  0  0  0  0  0  0  0  0  0
  -26.3854  -29.8588   19.7309 C   0  0  0  0  0  0  0  0  0  0  0  0
  -23.7622  -12.7408   20.4519 C   0  0  0  0  0  0  0  0  0  0  0  0
  -26.0809  -13.0831   21.0379 C   0  0  0  0  0  0  0  0  0  0  0  0
  -27.5178  -29.0550   19.6067 C   0  0  0  0  0  0  0  0  0  0  0  0
  -23.7883   -9.1616   19.8165 C   0  0  0  0  0  0  0  0  0  0  0  0
  -22.9055   -8.1843   20.2759 C   0  0  0  0  0  0  0  0  0  0  0  0
  -26.2355  -27.1462   20.3357 C   0  0  0  0  0  0  0  0  0  0  0  0
  -31.0714  -21.5634   19.9194 C   0  0  0  0  0  0  0  0  0  0  0  0
  -23.3582   -8.8466   22.5548 C   0  0  0  0  0  0  0  0  0  0  0  0
  -24.5050  -14.9043   21.2293 C   0  0  0  0  0  0  0  0  0  0  0  0
  -23.3187  -16.7444   22.5386 C   0  0  0  0  0  0  0  0  0  0  0  0
  -24.1532  -34.0023   24.7690 C   0  0  0  0  0  0  0  0  0  0  0  0
  -25.1702  -29.3136   20.1696 C   0  0  0  0  0  0  0  0  0  0  0  0
  -24.6786  -32.7580   24.3714 C   0  0  0  0  0  0  0  0  0  0  0  0
  -25.0885  -27.9447   20.4621 C   0  0  0  0  0  0  0  0  0  0  0  0
  -32.4656  -21.5977   19.8939 C   0  0  0  0  0  0  0  0  0  0  0  0
  -33.1975  -20.4572   20.2245 C   0  0  0  0  0  0  0  0  0  0  0  0
  -32.5351  -19.2824   20.5808 C   0  0  0  0  0  0  0  0  0  0  0  0
  -30.4090  -20.3886   20.2757 C   0  0  0  0  0  0  0  0  0  0  0  0
  -25.0604  -12.2478   20.5834 C   0  0  0  0  0  0  0  0  0  0  0  0
  -27.4437  -27.6991   19.9119 C   0  0  0  0  0  0  0  0  0  0  0  0
  -24.4561   -9.9814   20.7262 C   0  0  0  0  0  0  0  0  0  0  0  0
  -22.6904   -8.0267   21.6450 C   0  0  0  0  0  0  0  0  0  0  0  0
  -24.2411   -9.8239   22.0954 C   0  0  0  0  0  0  0  0  0  0  0  0
  -31.1409  -19.2481   20.6064 C   0  0  0  0  0  0  0  0  0  0  0  0
  -24.2188  -16.2766   21.5626 C   0  0  0  0  0  0  0  0  0  0  0  0
  -23.4121  -18.1127   22.4641 C   0  0  0  0  0  0  0  0  0  0  0  0
  -32.1311  -24.7764   20.6922 C   0  0  0  0  0  0  0  0  0  0  0  0
  -22.4738  -16.0080   23.4327 C   0  0  0  0  0  0  0  0  0  0  0  0
  -23.2653  -29.7998   22.6672 C   0  0  0  0  0  0  0  0  0  0  0  0
  -21.3222  -27.7334   21.0935 C   0  0  0  0  0  0  0  0  0  0  0  0
  -21.0146  -25.2020   18.8254 C   0  0  0  0  0  0  0  0  0  0  0  0
  -28.1097  -21.3972   20.0003 C   0  0  0  0  0  0  0  0  0  0  0  0
  -22.7531  -34.1346   25.3139 C   0  0  0  0  0  0  0  0  0  0  0  0
  -23.9511  -30.1886   20.2726 C   0  0  0  0  0  0  0  0  0  0  0  0
  -23.8026  -27.3065   20.9177 C   0  0  0  0  0  0  0  0  0  0  0  0
  -31.1116  -25.8997   20.6727 C   0  0  0  0  0  0  0  0  0  0  0  0
  -21.8568  -32.9432   24.9862 C   0  0  0  0  0  0  0  0  0  0  0  0
  -24.5238  -21.4262   19.1064 C   0  0  0  0  0  0  0  0  0  0  0  0
  -22.5862  -31.6332   25.2671 C   0  0  0  0  0  0  0  0  0  0  0  0
  -23.8776  -20.2966   19.9100 C   0  0  0  0  0  0  0  0  0  0  0  0
  -30.5183  -25.3763   18.3309 C   0  0  0  0  0  0  0  0  0  0  0  0
  -25.7204  -22.0469   19.8141 C   0  0  0  0  0  0  0  0  0  0  0  0
  -31.6832  -24.4065   18.2413 C   0  0  0  0  0  0  0  0  0  0  0  0
  -26.2686  -19.7203   20.5604 C   0  0  0  0  0  0  0  0  0  0  0  0
  -23.8379  -31.4999   24.3914 C   0  0  1  0  0  0  0  0  0  0  0  0
  -22.8941  -29.6314   21.2210 C   0  0  1  0  0  0  0  0  0  0  0  0
  -30.8652  -26.5023   19.2958 C   0  0  1  0  0  0  0  0  0  0  0  0
  -24.7977  -19.7322   21.0053 C   0  0  2  0  0  0  0  0  0  0  0  0
  -33.2990  -18.0497   20.9391 C   0  0  0  0  0  0  0  0  0  0  0  0
  -35.2920  -20.5956   21.5957 C   0  0  0  0  0  0  0  0  0  0  0  0
  -19.3053  -23.6929   17.7774 C   0  0  0  0  0  0  0  0  0  0  0  0
  -21.2194  -26.0761   23.6534 C   0  0  0  0  0  0  0  0  0  0  0  0
  -20.3265  -24.1685   22.2999 C   0  0  0  0  0  0  0  0  0  0  0  0
  -19.0308  -26.2939   22.4630 C   0  0  0  0  0  0  0  0  0  0  0  0
  -21.5919  -26.2387   16.1141 C   0  0  0  0  0  0  0  0  0  0  0  0
  -34.6929  -20.4945   20.1973 C   0  0  0  0  0  0  0  0  0  0  0  0
  -33.1543  -22.8743   19.5067 C   0  0  0  0  0  0  0  0  0  0  0  0
  -29.7489  -27.5422   19.3486 C   0  0  0  0  0  0  0  0  0  1  0  0
  -21.1447  -26.2343   21.0774 C   0  0  1  0  0  0  0  0  0  0  0  0
  -20.0643  -25.0054   17.6581 C   0  0  2  0  0  0  0  0  0  0  0  0
  -20.4552  -25.7053   22.3667 C   0  0  0  0  0  0  0  0  0  0  0  0
  -24.8384  -17.2672   20.9154 N   0  0  0  0  0  0  0  0  0  0  0  0
  -24.3267  -18.3712   21.4859 N   0  0  0  0  0  0  0  0  0  0  0  0
  -32.2461  -24.0133   19.5323 N   0  0  0  0  0  0  0  0  0  0  0  0
  -22.6399  -28.2050   21.0088 N   0  0  0  0  0  0  0  0  0  0  0  0
  -26.7437  -21.0431   20.1201 N   0  0  0  0  0  0  0  0  0  0  0  0
  -22.8004  -19.1080   23.1406 N   0  0  0  0  0  0  0  0  0  0  0  0
  -22.9819  -15.6491   24.6887 N   0  0  0  0  0  0  0  0  0  0  0  0
  -28.9925  -20.3566   20.3003 N   0  0  0  0  0  0  0  0  0  0  0  0
  -23.4740  -31.1124   23.0453 N   0  0  0  0  0  0  0  0  0  0  0  0
  -20.4287  -25.9212   19.8455 N   0  0  0  0  0  0  0  0  0  0  0  0
  -20.8177  -24.9973   16.3723 N   0  3  0  0  0  0  0  0  0  0  0  0
  -32.7426  -24.5421   21.7382 O   0  0  0  0  0  0  0  0  0  0  0  0
  -21.3086  -15.6639   23.1207 O   0  0  0  0  0  0  0  0  0  0  0  0
  -23.3542  -28.8121   23.3872 O   0  0  0  0  0  0  0  0  0  0  0  0
  -20.3279  -28.4593   21.1709 O   0  0  0  0  0  0  0  0  0  0  0  0
  -22.1609  -24.7585   18.8331 O   0  0  0  0  0  0  0  0  0  0  0  0
  -28.4575  -22.5257   19.6460 O   0  0  0  0  0  0  0  0  0  0  0  0
  -25.3317  -10.9518   20.2685 O   0  0  0  0  0  0  0  0  0  0  0  0
  -28.5477  -26.9125   19.7923 O   0  0  0  0  0  0  0  0  0  1  0  0
  -21.8415   -7.0892   22.0859 F   0  0  0  0  0  0  0  0  0  0  0  0
  -24.8788  -10.6093   22.9741 F   0  0  0  0  0  0  0  0  0  0  0  0
  -30.5045  -18.1179   20.9494 F   0  0  0  0  0  0  0  0  0  0  0  0
  1  2  1  0  0  0  0
  1  5  2  0  0  0  0
  2  6  2  0  0  0  0
  3  8  2  0  0  0  0
  3 16  1  0  0  0  0
  4  9  1  0  0  0  0
  4 16  2  0  0  0  0
  5 18  1  0  0  0  0
  6 20  1  0  0  0  0
  7 10  2  0  0  0  0
  7 19  1  0  0  0  0
  8 26  1  0  0  0  0
  9 26  2  0  0  0  0
 10 27  1  0  0  0  0
 11 12  2  0  0  0  0
 11 28  1  0  0  0  0
 12 29  1  0  0  0  0
 13 21  1  0  0  0  0
 13 27  2  0  0  0  0
 14 22  2  0  0  0  0
 14 25  1  0  0  0  0
 15 29  2  0  0  0  0
 15 30  1  0  0  0  0
 16 32  1  0  0  0  0
 17 32  1  0  0  0  0
 17 33  2  0  0  0  0
 17 35  1  0  0  0  0
 18 20  2  0  0  0  0
 18 40  1  0  0  0  0
 19 21  2  0  0  0  0
 19 41  1  0  0  0  0
 20 52  1  0  0  0  0
 21 42  1  0  0  0  0
 22 23  1  0  0  0  0
 22 64  1  0  0  0  0
 23 24  2  0  0  0  0
 23 63  1  0  0  0  0
 24 31  1  0  0  0  0
 24 56  1  0  0  0  0
 25 31  2  0  0  0  0
 25 76  1  0  0  0  0
 26 86  1  0  0  0  0
 27 87  1  0  0  0  0
 28 30  2  0  0  0  0
 28 86  1  0  0  0  0
 29 88  1  0  0  0  0
 30 89  1  0  0  0  0
 31 90  1  0  0  0  0
 32 69  2  0  0  0  0
 33 70  1  0  0  0  0
 33 74  1  0  0  0  0
 34 43  1  0  0  0  0
 34 71  1  0  0  0  0
 34 80  2  0  0  0  0
 35 75  1  0  0  0  0
 35 81  2  0  0  0  0
 36 53  1  0  0  0  0
 36 77  1  0  0  0  0
 36 82  2  0  0  0  0
 37 66  1  0  0  0  0
 37 72  1  0  0  0  0
 37 83  2  0  0  0  0
 38 67  1  0  0  0  0
 38 78  1  0  0  0  0
 38 84  2  0  0  0  0
 39 73  1  0  0  0  0
 39 76  1  0  0  0  0
 39 85  2  0  0  0  0
 40 44  1  0  0  0  0
 41 53  1  0  0  0  0
 42 72  1  0  0  0  0
 43 54  1  0  0  0  0
 44 46  1  0  0  0  0
 45 47  1  0  0  0  0
 45 49  1  0  0  0  0
 46 52  1  0  0  0  0
 47 55  1  0  0  0  0
 48 50  1  0  0  0  0
 48 54  1  0  0  0  0
 49 73  1  0  0  0  0
 50 71  1  0  0  0  0
 51 55  1  0  0  0  0
 51 73  1  0  0  0  0
 52 77  1  0  0  0  0
 53 72  1  0  0  0  0
 54 65  1  0  0  0  0
 55 70  1  0  0  0  0
 57 63  1  0  0  0  0
 58 67  1  0  0  0  0
 59 68  1  0  0  0  0
 60 68  1  0  0  0  0
 61 68  1  0  0  0  0
 62 79  1  0  0  0  0
 64 71  1  0  0  0  0
 65 87  1  0  0  0  0
 66 68  1  0  0  0  0
 66 78  1  0  0  0  0
 67 79  1  0  0  0  0
 69 70  1  0  0  0  0
M  CHG  1  79   1
M  ISO  4  39 100  65 101  76 100  87 101
M  END
> <Batch ID>
0055

> <Smiles>
CCc1c(CN2CCC([101CH2:1][101O:1]c3ccc4c(c3)CN(C(=O)C(NC(=O)C(C)NC)C(C)(C)C)C(C(=O)NC3CCCc5ccccc53)C4)CC2=O)cc([100NH:0][100C:0](=O)N2CCCC(n3nc(-c4ccc(Oc5ccc(F)cc5F)cc4)c(C(N)=O)c3N)C2)c(F)c1C

> <Shape>
0.268

> <Color>
0.090

> <Negative vol penalty>
0.000

$$$$

  -OEChem-04042322493D

 89 97  0     1  0  0  0  0  0999 V2000
  -19.5848  -14.2997   17.3547 C   0  0  0  0  0  0  0  0  0  0  0  0
  -20.3760  -15.4272   17.5505 C   0  0  0  0  0  0  0  0  0  0  0  0
  -25.2312  -30.9316   21.4636 C   0  0  0  0  0  0  0  0  0  0  0  0
  -18.4410  -21.1587   21.6277 C   0  0  0  0  0  0  0  0  0  0  0  0
  -20.7128  -21.2168   20.8077 C   0  0  0  0  0  0  0  0  0  0  0  0
  -19.9111  -13.1018   17.9891 C   0  0  0  0  0  0  0  0  0  0  0  0
  -21.4934  -15.3576   18.3817 C   0  0  0  0  0  0  0  0  0  0  0  0
  -26.7968  -18.3382   17.6777 C   0  0  0  0  0  0  0  0  0  0  0  0
  -26.3498  -30.1803   21.1033 C   0  0  0  0  0  0  0  0  0  0  0  0
  -23.9532  -30.3902   21.3248 C   0  0  0  0  0  0  0  0  0  0  0  0
  -18.1729  -20.0629   20.8075 C   0  0  0  0  0  0  0  0  0  0  0  0
  -20.4447  -20.1209   19.9875 C   0  0  0  0  0  0  0  0  0  0  0  0
  -27.3002  -19.5051   18.2510 C   0  0  0  0  0  0  0  0  0  0  0  0
  -18.7451  -16.7305   20.8366 C   0  0  0  0  0  0  0  0  0  0  0  0
  -18.0464  -15.6594   21.3935 C   0  0  0  0  0  0  0  0  0  0  0  0
  -28.4699  -18.1848   19.8966 C   0  0  0  0  0  0  0  0  0  0  0  0
  -16.2942  -15.9508   19.7557 C   0  0  0  0  0  0  0  0  0  0  0  0
  -19.7109  -21.7357   21.6278 C   0  0  0  0  0  0  0  0  0  0  0  0
  -20.4669  -22.8428   23.7982 C   0  0  0  0  0  0  0  0  0  0  0  0
  -21.0386  -13.0150   18.8209 C   0  0  0  0  0  0  0  0  0  0  0  0
  -27.1179  -17.0843   18.2171 C   0  0  0  0  0  0  0  0  0  0  0  0
  -21.8343  -14.1578   19.0289 C   0  0  0  0  0  0  0  0  0  0  0  0
  -27.9713  -17.0034   19.3267 C   0  0  0  0  0  0  0  0  0  0  0  0
  -26.1905  -28.8876   20.6041 C   0  0  0  0  0  0  0  0  0  0  0  0
  -24.9125  -28.3462   20.4652 C   0  0  0  0  0  0  0  0  0  0  0  0
  -23.7938  -29.0975   20.8256 C   0  0  0  0  0  0  0  0  0  0  0  0
  -19.1748  -19.5439   19.9873 C   0  0  0  0  0  0  0  0  0  0  0  0
  -28.1346  -19.4287   19.3624 C   0  0  0  0  0  0  0  0  0  0  0  0
  -18.2183  -17.4118   19.7392 C   0  0  0  0  0  0  0  0  0  0  0  0
  -16.8210  -15.2695   20.8531 C   0  0  0  0  0  0  0  0  0  0  0  0
  -16.9929  -17.0219   19.1988 C   0  0  0  0  0  0  0  0  0  0  0  0
  -19.9883  -22.8681   22.4745 C   0  0  0  0  0  0  0  0  0  0  0  0
  -20.5624  -24.1659   24.1541 C   0  0  0  0  0  0  0  0  0  0  0  0
  -20.7958  -21.7234   24.6315 C   0  0  0  0  0  0  0  0  0  0  0  0
  -25.4541  -14.7113   19.5227 C   0  0  0  0  0  0  0  0  0  0  0  0
  -28.3230  -13.1981   19.4831 C   0  0  0  0  0  0  0  0  0  0  0  0
  -27.7913  -27.0423   21.2441 C   0  0  0  0  0  0  0  0  0  0  0  0
  -28.8658  -23.6207   20.5014 C   0  0  0  0  0  0  0  0  0  0  0  0
  -31.7266  -13.4419   19.4305 C   0  0  0  0  0  0  0  0  0  0  0  0
  -21.2835  -29.1967   21.0114 C   0  0  0  0  0  0  0  0  0  0  0  0
  -21.3243  -11.7109   19.5226 C   0  0  0  0  0  0  0  0  0  0  0  0
  -26.5882  -15.8337   17.5707 C   0  0  0  0  0  0  0  0  0  0  0  0
  -28.3627  -15.6806   19.9313 C   0  0  0  0  0  0  0  0  0  0  0  0
  -22.7383  -11.6220   20.0908 C   0  0  0  0  0  0  0  0  0  0  0  0
  -18.6088  -28.4410   23.2367 C   0  0  0  0  0  0  0  0  0  0  0  0
  -23.0938  -12.9020   20.8407 C   0  0  0  0  0  0  0  0  0  0  0  0
  -18.7063  -26.9246   23.4191 C   0  0  0  0  0  0  0  0  0  0  0  0
  -18.9540  -28.8640   21.8100 C   0  0  0  0  0  0  0  0  0  0  0  0
  -20.3406  -26.8526   21.4926 C   0  0  0  0  0  0  0  0  0  0  0  0
  -23.0685  -14.1155   19.9036 C   0  0  1  0  0  0  0  0  0  0  0  0
  -26.5665  -14.6360   18.5154 C   0  0  1  0  0  0  0  0  0  0  0  0
  -20.0649  -26.3845   22.9309 C   0  0  2  0  0  0  0  0  0  0  0  0
  -24.7465  -26.9587   19.9293 C   0  0  0  0  0  0  0  0  0  0  0  0
  -26.9193  -23.9567   22.0461 C   0  0  0  0  0  0  0  0  0  0  0  0
  -33.8029  -12.0325   19.4420 C   0  0  0  0  0  0  0  0  0  0  0  0
  -27.9431  -12.6670   22.4637 C   0  0  0  0  0  0  0  0  0  0  0  0
  -30.3849  -12.1336   22.6088 C   0  0  0  0  0  0  0  0  0  0  0  0
  -28.8898  -10.7449   21.1739 C   0  0  0  0  0  0  0  0  0  0  0  0
  -32.5943  -14.4928   16.8034 C   0  0  0  0  0  0  0  0  0  0  0  0
  -27.4149  -28.0985   20.2228 C   0  0  0  0  0  0  0  0  0  0  0  0
  -30.5881  -21.8291   20.5064 C   0  0  0  0  0  0  0  0  0  0  0  0
  -29.9001  -20.4769   20.5624 C   0  0  0  0  0  0  0  0  0  1  0  0
  -29.4872  -13.0887   20.4379 C   0  0  1  0  0  0  0  0  0  0  0  0
  -28.1584  -24.5931   21.4360 C   0  0  2  0  0  0  0  0  0  0  0  0
  -32.7733  -12.7457   18.5795 C   0  0  2  0  0  0  0  0  0  0  0  0
  -29.1675  -12.1837   21.6611 C   0  0  0  0  0  0  0  0  0  0  0  0
  -19.7932  -24.1089   22.0204 N   0  0  0  0  0  0  0  0  0  0  0  0
  -20.1509  -24.8756   23.0645 N   0  0  0  0  0  0  0  0  0  0  0  0
  -27.8140  -14.4866   19.2674 N   0  0  0  0  0  0  0  0  0  0  0  0
  -20.2557  -28.3196   21.4177 N   0  0  0  0  0  0  0  0  0  0  0  0
  -20.9573  -24.7799   25.2896 N   0  0  0  0  0  0  0  0  0  0  0  0
  -20.6393  -20.4324   24.1087 N   0  0  0  0  0  0  0  0  0  0  0  0
  -22.4865  -28.5673   20.6934 N   0  0  0  0  0  0  0  0  0  0  0  0
  -24.2661  -14.1522   19.0918 N   0  0  0  0  0  0  0  0  0  0  0  0
  -29.8156  -22.8499   21.1633 N   0  0  0  0  0  0  0  0  0  0  0  0
  -30.6256  -12.6396   19.6437 N   0  0  0  0  0  0  0  0  0  0  0  0
  -27.8238  -25.7717   20.6807 N   0  0  0  0  0  0  0  0  0  0  0  0
  -33.4839  -13.7347   17.7204 N   0  3  0  0  0  0  0  0  0  0  0  0
  -21.2005  -21.8633   25.8106 O   0  0  0  0  0  0  0  0  0  0  0  0
  -25.6588  -15.2365   20.6108 O   0  0  0  0  0  0  0  0  0  0  0  0
  -27.8861  -12.1788   18.9430 O   0  0  0  0  0  0  0  0  0  0  0  0
  -28.0386  -27.2944   22.4206 O   0  0  0  0  0  0  0  0  0  0  0  0
  -28.5891  -23.5155   19.3083 O   0  0  0  0  0  0  0  0  0  0  0  0
  -31.8728  -14.5818   19.8660 O   0  0  0  0  0  0  0  0  0  0  0  0
  -21.1175  -30.4187   20.9762 O   0  0  0  0  0  0  0  0  0  0  0  0
  -18.9136  -18.4745   19.1870 O   0  0  0  0  0  0  0  0  0  0  0  0
  -28.6268  -20.5661   19.9243 O   0  0  0  0  0  0  0  0  0  1  0  0
  -16.1508  -14.2400   21.3870 F   0  0  0  0  0  0  0  0  0  0  0  0
  -16.4824  -17.6719   18.1439 F   0  0  0  0  0  0  0  0  0  0  0  0
  1  2  1  0  0  0  0
  1  6  2  0  0  0  0
  2  7  2  0  0  0  0
  3  9  2  0  0  0  0
  3 10  1  0  0  0  0
  4 11  2  0  0  0  0
  4 18  1  0  0  0  0
  5 12  1  0  0  0  0
  5 18  2  0  0  0  0
  6 20  1  0  0  0  0
  7 22  1  0  0  0  0
  8 13  2  0  0  0  0
  8 21  1  0  0  0  0
  9 24  1  0  0  0  0
 10 26  2  0  0  0  0
 11 27  1  0  0  0  0
 12 27  2  0  0  0  0
 13 28  1  0  0  0  0
 14 15  2  0  0  0  0
 14 29  1  0  0  0  0
 15 30  1  0  0  0  0
 16 23  1  0  0  0  0
 16 28  2  0  0  0  0
 17 30  2  0  0  0  0
 17 31  1  0  0  0  0
 18 32  1  0  0  0  0
 19 32  1  0  0  0  0
 19 33  2  0  0  0  0
 19 34  1  0  0  0  0
 20 22  2  0  0  0  0
 20 41  1  0  0  0  0
 21 23  2  0  0  0  0
 21 42  1  0  0  0  0
 22 50  1  0  0  0  0
 23 43  1  0  0  0  0
 24 25  2  0  0  0  0
 24 60  1  0  0  0  0
 25 26  1  0  0  0  0
 25 53  1  0  0  0  0
 26 73  1  0  0  0  0
 27 86  1  0  0  0  0
 28 87  1  0  0  0  0
 29 31  2  0  0  0  0
 29 86  1  0  0  0  0
 30 88  1  0  0  0  0
 31 89  1  0  0  0  0
 32 67  2  0  0  0  0
 33 68  1  0  0  0  0
 33 71  1  0  0  0  0
 34 72  1  0  0  0  0
 34 79  2  0  0  0  0
 35 51  1  0  0  0  0
 35 74  1  0  0  0  0
 35 80  2  0  0  0  0
 36 63  1  0  0  0  0
 36 69  1  0  0  0  0
 36 81  2  0  0  0  0
 37 60  1  0  0  0  0
 37 77  1  0  0  0  0
 37 82  2  0  0  0  0
 38 64  1  0  0  0  0
 38 75  1  0  0  0  0
 38 83  2  0  0  0  0
 39 65  1  0  0  0  0
 39 76  1  0  0  0  0
 39 84  2  0  0  0  0
 40 70  1  0  0  0  0
 40 73  1  0  0  0  0
 40 85  2  0  0  0  0
 41 44  1  0  0  0  0
 42 51  1  0  0  0  0
 43 69  1  0  0  0  0
 44 46  1  0  0  0  0
 45 47  1  0  0  0  0
 45 48  1  0  0  0  0
 46 50  1  0  0  0  0
 47 52  1  0  0  0  0
 48 70  1  0  0  0  0
 49 52  1  0  0  0  0
 49 70  1  0  0  0  0
 50 74  1  0  0  0  0
 51 69  1  0  0  0  0
 52 68  1  0  0  0  0
 54 64  1  0  0  0  0
 55 65  1  0  0  0  0
 56 66  1  0  0  0  0
 57 66  1  0  0  0  0
 58 66  1  0  0  0  0
 59 78  1  0  0  0  0
 61 62  1  0  0  0  0
 61 75  1  0  0  0  0
 62 87  1  0  0  0  0
 63 66  1  0  0  0  0
 63 76  1  0  0  0  0
 64 77  1  0  0  0  0
 65 78  1  0  0  0  0
 67 68  1  0  0  0  0
M  CHG  1  78   1
M  ISO  4  40 100  62 101  73 100  87 101
M  END
> <Batch ID>
0055

> <Smiles>
CNC(C)C(=O)NC(C(=O)N1Cc2cc([101O:1][101CH2:1]CNC(=O)C(C)NC(=O)Cc3cccc([100NH:0][100C:0](=O)N4CCCC(n5nc(-c6ccc(Oc7ccc(F)cc7F)cc6)c(C(N)=O)c5N)C4)c3C)ccc2CC1C(=O)NC1CCCc2ccccc21)C(C)(C)C

> <Shape>
0.227

> <Color>
0.087

> <Negative vol penalty>
0.000

$$$$

  -OEChem-04042322493D

 84 92  0     1  0  0  0  0  0999 V2000
  -33.2925  -33.7580   18.8931 C   0  0  0  0  0  0  0  0  0  0  0  0
  -33.5314  -32.7524   19.8243 C   0  0  0  0  0  0  0  0  0  0  0  0
  -23.0391   -9.9041   19.9376 C   0  0  0  0  0  0  0  0  0  0  0  0
  -23.7927   -9.8888   22.2330 C   0  0  0  0  0  0  0  0  0  0  0  0
  -32.1258  -33.7370   18.1300 C   0  0  0  0  0  0  0  0  0  0  0  0
  -32.6031  -31.7257   19.9937 C   0  0  0  0  0  0  0  0  0  0  0  0
  -33.7944  -25.8690   21.3300 C   0  0  0  0  0  0  0  0  0  0  0  0
  -32.0259  -16.5986   22.6203 C   0  0  0  0  0  0  0  0  0  0  0  0
  -22.2937   -8.7493   20.1745 C   0  0  0  0  0  0  0  0  0  0  0  0
  -23.0473   -8.7339   22.4700 C   0  0  0  0  0  0  0  0  0  0  0  0
  -33.7691  -25.1564   22.5280 C   0  0  0  0  0  0  0  0  0  0  0  0
  -23.3372   -5.4171   21.8819 C   0  0  0  0  0  0  0  0  0  0  0  0
  -23.9500   -4.3845   22.5918 C   0  0  0  0  0  0  0  0  0  0  0  0
  -32.6305  -17.4674   23.5287 C   0  0  0  0  0  0  0  0  0  0  0  0
  -31.5358  -24.3974   22.0225 C   0  0  0  0  0  0  0  0  0  0  0  0
  -30.4609  -18.3354   24.1424 C   0  0  0  0  0  0  0  0  0  0  0  0
  -22.2440   -4.5433   24.2952 C   0  0  0  0  0  0  0  0  0  0  0  0
  -23.7887  -10.4739   20.9668 C   0  0  0  0  0  0  0  0  0  0  0  0
  -24.1328  -12.9998   20.8717 C   0  0  0  0  0  0  0  0  0  0  0  0
  -31.1874  -32.7043   18.2833 C   0  0  0  0  0  0  0  0  0  0  0  0
  -32.6845  -25.8599   20.4729 C   0  0  0  0  0  0  0  0  0  0  0  0
  -31.4222  -31.6916   19.2328 C   0  0  0  0  0  0  0  0  0  0  0  0
  -31.5505  -25.1087   20.8129 C   0  0  0  0  0  0  0  0  0  0  0  0
  -29.8563  -17.4666   23.2339 C   0  0  0  0  0  0  0  0  0  0  0  0
  -30.6388  -16.5982   22.4728 C   0  0  0  0  0  0  0  0  0  0  0  0
  -22.2977   -8.1641   21.4407 C   0  0  0  0  0  0  0  0  0  0  0  0
  -32.6386  -24.4228   22.8758 C   0  0  0  0  0  0  0  0  0  0  0  0
  -22.1779   -6.0128   22.3787 C   0  0  0  0  0  0  0  0  0  0  0  0
  -23.4034   -3.9476   23.7984 C   0  0  0  0  0  0  0  0  0  0  0  0
  -21.6313   -5.5759   23.5853 C   0  0  0  0  0  0  0  0  0  0  0  0
  -31.8480  -18.3358   24.2898 C   0  0  0  0  0  0  0  0  0  0  0  0
  -24.5594  -11.6666   20.7225 C   0  0  0  0  0  0  0  0  0  0  0  0
  -25.2265  -13.7518   20.5186 C   0  0  0  0  0  0  0  0  0  0  0  0
  -22.8615  -13.5126   21.2920 C   0  0  0  0  0  0  0  0  0  0  0  0
  -30.6909  -28.0720   19.3610 C   0  0  0  0  0  0  0  0  0  0  0  0
  -29.5640  -25.6044   17.5824 C   0  0  0  0  0  0  0  0  0  0  0  0
  -29.1943  -22.2321   17.2112 C   0  0  0  0  0  0  0  0  0  0  0  0
  -30.6930  -14.7915   20.7181 C   0  0  0  0  0  0  0  0  0  0  0  0
  -29.9185  -32.7499   17.4693 C   0  0  0  0  0  0  0  0  0  0  0  0
  -32.7377  -26.6123   19.1715 C   0  0  0  0  0  0  0  0  0  0  0  0
  -30.3405  -25.0498   19.9179 C   0  0  0  0  0  0  0  0  0  0  0  0
  -29.1631  -31.4235   17.4441 C   0  0  0  0  0  0  0  0  0  0  0  0
  -29.5832  -12.4011   18.3240 C   0  0  0  0  0  0  0  0  0  0  0  0
  -29.0611  -30.8405   18.8499 C   0  0  0  0  0  0  0  0  0  0  0  0
  -28.1422  -12.1066   18.7468 C   0  0  0  0  0  0  0  0  0  0  0  0
  -30.4952  -12.6178   19.5303 C   0  0  0  0  0  0  0  0  0  0  0  0
  -28.5850  -13.3306   20.9131 C   0  0  0  0  0  0  0  0  0  0  0  0
  -30.4509  -30.5476   19.4279 C   0  0  1  0  0  0  0  0  0  0  0  0
  -31.3561  -26.9478   18.6184 C   0  0  1  0  0  0  0  0  0  0  0  0
  -27.6153  -13.1693   19.7311 C   0  0  2  0  0  0  0  0  0  0  0  0
  -28.3685  -17.4883   23.0961 C   0  0  0  0  0  0  0  0  0  0  0  0
  -28.1957  -20.5171   15.6754 C   0  0  0  0  0  0  0  0  0  0  0  0
  -26.7862  -26.2585   18.6622 C   0  0  0  0  0  0  0  0  0  0  0  0
  -26.0280  -24.0039   17.8812 C   0  0  0  0  0  0  0  0  0  0  0  0
  -26.8507  -25.6824   16.2295 C   0  0  0  0  0  0  0  0  0  0  0  0
  -31.8348  -21.0095   16.6707 C   0  0  0  0  0  0  0  0  0  0  0  0
  -33.5992  -21.9652   25.3387 C   0  0  0  0  0  0  0  0  0  0  0  0
  -33.8562  -23.2309   24.5350 C   0  0  0  0  0  0  0  0  0  1  0  0
  -32.9309  -20.8928   24.4963 C   0  0  0  0  0  0  0  0  0  0  0  0
  -28.5025  -24.5478   17.7711 C   0  0  1  0  0  0  0  0  0  0  0  0
  -29.4412  -21.3161   16.0261 C   0  0  2  0  0  0  0  0  0  0  0  0
  -27.0638  -25.1256   17.6540 C   0  0  0  0  0  0  0  0  0  0  0  0
  -25.8253  -11.5737   20.3068 N   0  0  0  0  0  0  0  0  0  0  0  0
  -26.2035  -12.8581   20.1917 N   0  0  0  0  0  0  0  0  0  0  0  0
  -30.4386  -25.8073   18.6593 N   0  0  0  0  0  0  0  0  0  0  0  0
  -29.9346  -13.6407   20.4159 N   0  0  0  0  0  0  0  0  0  0  0  0
  -25.4381  -15.0838   20.4588 N   0  0  0  0  0  0  0  0  0  0  0  0
  -21.8480  -12.6011   21.6179 N   0  0  0  0  0  0  0  0  0  0  0  0
  -30.0440  -15.7092   21.5435 N   0  0  0  0  0  0  0  0  0  0  0  0
  -30.9860  -29.3270   18.8638 N   0  0  0  0  0  0  0  0  0  0  0  0
  -28.8023  -23.4918   16.8102 N   0  0  0  0  0  0  0  0  0  0  0  0
  -30.5426  -20.3597   16.3313 N   0  3  0  0  0  0  0  0  0  0  0  0
  -22.6261  -14.7428   21.3604 O   0  0  0  0  0  0  0  0  0  0  0  0
  -29.9627  -27.8193   20.3137 O   0  0  0  0  0  0  0  0  0  0  0  0
  -29.6198  -26.2219   16.5160 O   0  0  0  0  0  0  0  0  0  0  0  0
  -29.3317  -21.8657   18.3763 O   0  0  0  0  0  0  0  0  0  0  0  0
  -31.8235  -14.9637   20.2552 O   0  0  0  0  0  0  0  0  0  0  0  0
  -31.6237  -19.7445   26.4577 O   0  0  0  0  0  0  0  0  0  0  0  0
  -33.8966  -18.8655   25.8197 O   0  0  0  0  0  0  0  0  0  0  0  0
  -21.5703   -7.0373   21.6724 O   0  0  0  0  0  0  0  0  0  0  0  0
  -32.6111  -23.7269   24.0449 O   0  0  0  0  0  0  0  0  0  1  0  0
  -23.9910   -2.9550   24.4792 F   0  0  0  0  0  0  0  0  0  0  0  0
  -20.5170   -6.1435   24.0671 F   0  0  0  0  0  0  0  0  0  0  0  0
  -32.6152  -19.4366   25.4414 S   0  0  0  0  0  0  0  0  0  0  0  0
  1  2  1  0  0  0  0
  1  5  2  0  0  0  0
  2  6  2  0  0  0  0
  3  9  2  0  0  0  0
  3 18  1  0  0  0  0
  4 10  1  0  0  0  0
  4 18  2  0  0  0  0
  5 20  1  0  0  0  0
  6 22  1  0  0  0  0
  7 11  2  0  0  0  0
  7 21  1  0  0  0  0
  8 14  2  0  0  0  0
  8 25  1  0  0  0  0
  9 26  1  0  0  0  0
 10 26  2  0  0  0  0
 11 27  1  0  0  0  0
 12 13  2  0  0  0  0
 12 28  1  0  0  0  0
 13 29  1  0  0  0  0
 14 31  1  0  0  0  0
 15 23  1  0  0  0  0
 15 27  2  0  0  0  0
 16 24  1  0  0  0  0
 16 31  2  0  0  0  0
 17 29  2  0  0  0  0
 17 30  1  0  0  0  0
 18 32  1  0  0  0  0
 19 32  1  0  0  0  0
 19 33  2  0  0  0  0
 19 34  1  0  0  0  0
 20 22  2  0  0  0  0
 20 39  1  0  0  0  0
 21 23  2  0  0  0  0
 21 40  1  0  0  0  0
 22 48  1  0  0  0  0
 23 41  1  0  0  0  0
 24 25  2  0  0  0  0
 24 51  1  0  0  0  0
 25 69  1  0  0  0  0
 26 80  1  0  0  0  0
 27 81  1  0  0  0  0
 28 30  2  0  0  0  0
 28 80  1  0  0  0  0
 29 82  1  0  0  0  0
 30 83  1  0  0  0  0
 31 84  1  0  0  0  0
 32 63  2  0  0  0  0
 33 64  1  0  0  0  0
 33 67  1  0  0  0  0
 34 68  1  0  0  0  0
 34 73  2  0  0  0  0
 35 49  1  0  0  0  0
 35 70  1  0  0  0  0
 35 74  2  0  0  0  0
 36 60  1  0  0  0  0
 36 65  1  0  0  0  0
 36 75  2  0  0  0  0
 37 61  1  0  0  0  0
 37 71  1  0  0  0  0
 37 76  2  0  0  0  0
 38 66  1  0  0  0  0
 38 69  1  0  0  0  0
 38 77  2  0  0  0  0
 39 42  1  0  0  0  0
 40 49  1  0  0  0  0
 41 65  1  0  0  0  0
 42 44  1  0  0  0  0
 43 45  1  0  0  0  0
 43 46  1  0  0  0  0
 44 48  1  0  0  0  0
 45 50  1  0  0  0  0
 46 66  1  0  0  0  0
 47 50  1  0  0  0  0
 47 66  1  0  0  0  0
 48 70  1  0  0  0  0
 49 65  1  0  0  0  0
 50 64  1  0  0  0  0
 52 61  1  0  0  0  0
 53 62  1  0  0  0  0
 54 62  1  0  0  0  0
 55 62  1  0  0  0  0
 56 72  1  0  0  0  0
 57 58  1  0  0  0  0
 57 59  1  0  0  0  0
 58 81  1  0  0  0  0
 59 84  1  0  0  0  0
 60 62  1  0  0  0  0
 60 71  1  0  0  0  0
 61 72  1  0  0  0  0
 63 64  1  0  0  0  0
 78 84  2  0  0  0  0
 79 84  2  0  0  0  0
M  CHG  1  72   1
M  ISO  4  38 100  58 101  69 100  81 101
M  END
> <Batch ID>
0055

> <Smiles>
CNC(C)C(=O)NC(C(=O)N1Cc2cc([101O:1][101CH2:1]CCS(=O)(=O)c3ccc([100NH:0][100C:0](=O)N4CCCC(n5nc(-c6ccc(Oc7ccc(F)cc7F)cc6)c(C(N)=O)c5N)C4)c(C)c3)ccc2CC1C(=O)NC1CCCc2ccccc21)C(C)(C)C

> <Shape>
0.237

> <Color>
0.201

> <Negative vol penalty>
0.000

$$$$

  -OEChem-04042322493D

 86 94  0     1  0  0  0  0  0999 V2000
  -29.9258  -24.2413   19.0838 C   0  0  0  0  0  0  0  0  0  0  0  0
  -28.5475  -24.4193   19.0208 C   0  0  0  0  0  0  0  0  0  0  0  0
  -28.1050  -14.6858   21.2104 C   0  0  0  0  0  0  0  0  0  0  0  0
  -26.1975  -15.4895   19.9643 C   0  0  0  0  0  0  0  0  0  0  0  0
  -21.9511  -24.2497   23.5229 C   0  0  0  0  0  0  0  0  0  0  0  0
  -30.6513  -24.7930   20.1389 C   0  0  0  0  0  0  0  0  0  0  0  0
  -27.8937  -25.1483   20.0136 C   0  0  0  0  0  0  0  0  0  0  0  0
  -23.0126  -28.7784   19.3046 C   0  0  0  0  0  0  0  0  0  0  0  0
  -23.2471  -23.7369   23.5779 C   0  0  0  0  0  0  0  0  0  0  0  0
  -27.5657  -13.3994   21.2062 C   0  0  0  0  0  0  0  0  0  0  0  0
  -25.6583  -14.2031   19.9600 C   0  0  0  0  0  0  0  0  0  0  0  0
  -21.6511  -28.5730   19.5238 C   0  0  0  0  0  0  0  0  0  0  0  0
  -23.9528  -11.0591   19.3087 C   0  0  0  0  0  0  0  0  0  0  0  0
  -23.4276  -10.5792   18.1089 C   0  0  0  0  0  0  0  0  0  0  0  0
  -21.8565  -29.5809   21.7058 C   0  0  0  0  0  0  0  0  0  0  0  0
  -22.9837  -22.8324   21.3531 C   0  0  0  0  0  0  0  0  0  0  0  0
  -25.5891  -10.8357   17.0603 C   0  0  0  0  0  0  0  0  0  0  0  0
  -27.4208  -15.7309   20.5896 C   0  0  0  0  0  0  0  0  0  0  0  0
  -21.1713  -24.0537   22.3831 C   0  0  0  0  0  0  0  0  0  0  0  0
  -28.8404  -17.6236   19.6356 C   0  0  0  0  0  0  0  0  0  0  0  0
  -30.0074  -25.5373   21.1399 C   0  0  0  0  0  0  0  0  0  0  0  0
  -23.8097  -29.3777   20.2904 C   0  0  0  0  0  0  0  0  0  0  0  0
  -28.6111  -25.7093   21.0838 C   0  0  0  0  0  0  0  0  0  0  0  0
  -23.2273  -29.7951   21.4957 C   0  0  0  0  0  0  0  0  0  0  0  0
  -21.6876  -23.3451   21.2982 C   0  0  0  0  0  0  0  0  0  0  0  0
  -23.7634  -23.0283   22.4930 C   0  0  0  0  0  0  0  0  0  0  0  0
  -26.3424  -13.1581   20.5810 C   0  0  0  0  0  0  0  0  0  0  0  0
  -21.0734  -28.9716   20.7256 C   0  0  0  0  0  0  0  0  0  0  0  0
  -25.2960  -11.4274   19.3843 C   0  0  0  0  0  0  0  0  0  0  0  0
  -24.2458  -10.4675   16.9847 C   0  0  0  0  0  0  0  0  0  0  0  0
  -26.1142  -11.3157   18.2601 C   0  0  0  0  0  0  0  0  0  0  0  0
  -27.9770  -17.0601   20.5941 C   0  0  0  0  0  0  0  0  0  0  0  0
  -29.0771  -18.8969   20.0930 C   0  0  0  0  0  0  0  0  0  0  0  0
  -19.7943  -24.6104   22.3523 C   0  0  0  0  0  0  0  0  0  0  0  0
  -29.3802  -17.0476   18.4387 C   0  0  0  0  0  0  0  0  0  0  0  0
  -26.3235  -28.4606   22.0060 C   0  0  0  0  0  0  0  0  0  0  0  0
  -26.2726  -31.5447   23.0100 C   0  0  0  0  0  0  0  0  0  0  0  0
  -24.4740  -34.4041   23.4959 C   0  0  0  0  0  0  0  0  0  0  0  0
  -25.9853  -22.6131   23.6053 C   0  0  0  0  0  0  0  0  0  0  0  0
  -30.8274  -26.0744   22.2861 C   0  0  0  0  0  0  0  0  0  0  0  0
  -25.2714  -29.6165   20.0279 C   0  0  0  0  0  0  0  0  0  0  0  0
  -24.0353  -30.4614   22.5780 C   0  0  0  0  0  0  0  0  0  0  0  0
  -30.1096  -27.1502   23.0970 C   0  0  0  0  0  0  0  0  0  0  0  0
  -29.3028  -21.4385   24.1456 C   0  0  0  0  0  0  0  0  0  0  0  0
  -28.6817  -26.7167   23.4132 C   0  0  0  0  0  0  0  0  0  0  0  0
  -29.4199  -20.2374   23.2045 C   0  0  0  0  0  0  0  0  0  0  0  0
  -27.9082  -21.5436   24.7602 C   0  0  0  0  0  0  0  0  0  0  0  0
  -26.9192  -20.3376   22.8532 C   0  0  0  0  0  0  0  0  0  0  0  0
  -27.8692  -26.5147   22.1284 C   0  0  1  0  0  0  0  0  0  0  0  0
  -26.0907  -29.7694   21.3057 C   0  0  1  0  0  0  0  0  0  0  0  0
  -28.2869  -20.2276   22.1596 C   0  0  2  0  0  0  0  0  0  0  0  0
  -20.8733  -23.1199   20.0660 C   0  0  0  0  0  0  0  0  0  0  0  0
  -24.6961  -36.7468   24.3673 C   0  0  0  0  0  0  0  0  0  0  0  0
  -26.2338  -30.4820   25.8699 C   0  0  0  0  0  0  0  0  0  0  0  0
  -25.5066  -32.7538   26.6302 C   0  0  0  0  0  0  0  0  0  0  0  0
  -27.7180  -32.4630   25.5132 C   0  0  0  0  0  0  0  0  0  0  0  0
  -16.8829  -28.2355   21.2480 C   0  0  0  0  0  0  0  0  0  0  0  0
  -17.3239  -25.9357   20.3453 C   0  0  0  0  0  0  0  0  0  0  0  0
  -23.7601  -35.5717   20.8718 C   0  0  0  0  0  0  0  0  0  0  0  0
  -18.4239  -26.6726   22.5107 C   0  0  0  0  0  0  0  0  0  0  0  0
  -19.1437  -27.6486   20.2994 C   0  0  0  0  0  0  0  0  0  1  0  0
  -25.6029  -32.2906   24.1388 C   0  0  1  0  0  0  0  0  0  0  0  0
  -24.7666  -35.8507   23.1407 C   0  0  2  0  0  0  0  0  0  0  0  0
  -26.2502  -31.9831   25.5186 C   0  0  0  0  0  0  0  0  0  0  0  0
  -17.9382  -27.1214   21.1117 C   0  0  0  0  0  0  0  0  0  0  0  0
  -27.6851  -17.9060   21.5857 N   0  0  0  0  0  0  0  0  0  0  0  0
  -28.3689  -19.0139   21.2527 N   0  0  0  0  0  0  0  0  0  0  0  0
  -25.4616  -30.6672   22.2765 N   0  0  0  0  0  0  0  0  0  0  0  0
  -26.8866  -21.5326   23.7109 N   0  0  0  0  0  0  0  0  0  0  0  0
  -29.8198  -19.9165   19.6124 N   0  0  0  0  0  0  0  0  0  0  0  0
  -29.0348  -15.7278   18.1177 N   0  0  0  0  0  0  0  0  0  0  0  0
  -25.0801  -22.5078   22.5498 N   0  0  0  0  0  0  0  0  0  0  0  0
  -19.6891  -25.9884   22.4955 N   0  0  0  0  0  0  0  0  0  0  0  0
  -27.4568  -27.7911   21.5853 N   0  0  0  0  0  0  0  0  0  0  0  0
  -25.6288  -33.7013   23.7678 N   0  0  0  0  0  0  0  0  0  0  0  0
  -23.7816  -36.3474   22.1386 N   0  3  0  0  0  0  0  0  0  0  0  0
  -18.8409  -23.8464   22.2261 O   0  0  0  0  0  0  0  0  0  0  0  0
  -30.1593  -17.6789   17.6850 O   0  0  0  0  0  0  0  0  0  0  0  0
  -25.5343  -28.0866   22.8656 O   0  0  0  0  0  0  0  0  0  0  0  0
  -27.4693  -31.7390   22.7828 O   0  0  0  0  0  0  0  0  0  0  0  0
  -23.3347  -33.9444   23.5324 O   0  0  0  0  0  0  0  0  0  0  0  0
  -26.0320  -23.5749   24.3765 O   0  0  0  0  0  0  0  0  0  0  0  0
  -25.8161  -11.9029   20.5764 O   0  0  0  0  0  0  0  0  0  0  0  0
  -19.7449  -28.7717   20.9424 O   0  0  0  0  0  0  0  0  0  1  0  0
  -23.7417  -10.0052   15.8330 F   0  0  0  0  0  0  0  0  0  0  0  0
  -27.4057  -11.6668   18.3270 F   0  0  0  0  0  0  0  0  0  0  0  0
  1  2  1  0  0  0  0
  1  6  2  0  0  0  0
  2  7  2  0  0  0  0
  3 10  2  0  0  0  0
  3 18  1  0  0  0  0
  4 11  1  0  0  0  0
  4 18  2  0  0  0  0
  5  9  2  0  0  0  0
  5 19  1  0  0  0  0
  6 21  1  0  0  0  0
  7 23  1  0  0  0  0
  8 12  2  0  0  0  0
  8 22  1  0  0  0  0
  9 26  1  0  0  0  0
 10 27  1  0  0  0  0
 11 27  2  0  0  0  0
 12 28  1  0  0  0  0
 13 14  2  0  0  0  0
 13 29  1  0  0  0  0
 14 30  1  0  0  0  0
 15 24  1  0  0  0  0
 15 28  2  0  0  0  0
 16 25  1  0  0  0  0
 16 26  2  0  0  0  0
 17 30  2  0  0  0  0
 17 31  1  0  0  0  0
 18 32  1  0  0  0  0
 19 25  2  0  0  0  0
 19 34  1  0  0  0  0
 20 32  1  0  0  0  0
 20 33  2  0  0  0  0
 20 35  1  0  0  0  0
 21 23  2  0  0  0  0
 21 40  1  0  0  0  0
 22 24  2  0  0  0  0
 22 41  1  0  0  0  0
 23 49  1  0  0  0  0
 24 42  1  0  0  0  0
 25 52  1  0  0  0  0
 26 72  1  0  0  0  0
 27 83  1  0  0  0  0
 28 84  1  0  0  0  0
 29 31  2  0  0  0  0
 29 83  1  0  0  0  0
 30 85  1  0  0  0  0
 31 86  1  0  0  0  0
 32 66  2  0  0  0  0
 33 67  1  0  0  0  0
 33 70  1  0  0  0  0
 34 73  1  0  0  0  0
 34 77  2  0  0  0  0
 35 71  1  0  0  0  0
 35 78  2  0  0  0  0
 36 50  1  0  0  0  0
 36 74  1  0  0  0  0
 36 79  2  0  0  0  0
 37 62  1  0  0  0  0
 37 68  1  0  0  0  0
 37 80  2  0  0  0  0
 38 63  1  0  0  0  0
 38 75  1  0  0  0  0
 38 81  2  0  0  0  0
 39 69  1  0  0  0  0
 39 72  1  0  0  0  0
 39 82  2  0  0  0  0
 40 43  1  0  0  0  0
 41 50  1  0  0  0  0
 42 68  1  0  0  0  0
 43 45  1  0  0  0  0
 44 46  1  0  0  0  0
 44 47  1  0  0  0  0
 45 49  1  0  0  0  0
 46 51  1  0  0  0  0
 47 69  1  0  0  0  0
 48 51  1  0  0  0  0
 48 69  1  0  0  0  0
 49 74  1  0  0  0  0
 50 68  1  0  0  0  0
 51 67  1  0  0  0  0
 53 63  1  0  0  0  0
 54 64  1  0  0  0  0
 55 64  1  0  0  0  0
 56 64  1  0  0  0  0
 57 65  1  0  0  0  0
 58 65  1  0  0  0  0
 59 76  1  0  0  0  0
 60 65  1  0  0  0  0
 60 73  1  0  0  0  0
 61 65  1  0  0  0  0
 61 84  1  0  0  0  0
 62 64  1  0  0  0  0
 62 75  1  0  0  0  0
 63 76  1  0  0  0  0
 66 67  1  0  0  0  0
M  CHG  1  76   1
M  ISO  4  39 100  61 101  72 100  84 101
M  END
> <Batch ID>
0055

> <Smiles>
CNC(C)C(=O)NC(C(=O)N1Cc2cc([101O:1][101CH2:1]C(C)(C)CNC(=O)c3ccc([100NH:0][100C:0](=O)N4CCCC(n5nc(-c6ccc(Oc7ccc(F)cc7F)cc6)c(C(N)=O)c5N)C4)cc3C)ccc2CC1C(=O)NC1CCCc2ccccc21)C(C)(C)C

> <Shape>
0.276

> <Color>
0.071

> <Negative vol penalty>
0.000

$$$$

  -OEChem-04042322493D

 87 96  0     1  0  0  0  0  0999 V2000
  -16.9059  -26.9995   23.0985 C   0  0  0  0  0  0  0  0  0  0  0  0
  -18.0626  -26.3740   22.6443 C   0  0  0  0  0  0  0  0  0  0  0  0
  -23.6903  -10.5411   22.4854 C   0  0  0  0  0  0  0  0  0  0  0  0
  -23.0187  -12.7997   21.9520 C   0  0  0  0  0  0  0  0  0  0  0  0
  -16.7874  -28.3864   23.0184 C   0  0  0  0  0  0  0  0  0  0  0  0
  -19.1010  -27.1350   22.1086 C   0  0  0  0  0  0  0  0  0  0  0  0
  -25.1049  -26.0272   22.5901 C   0  0  0  0  0  0  0  0  0  0  0  0
  -30.3798  -19.5887   19.6474 C   0  0  0  0  0  0  0  0  0  0  0  0
  -30.3197  -18.2098   19.8660 C   0  0  0  0  0  0  0  0  0  0  0  0
  -22.8303  -10.5446   23.5835 C   0  0  0  0  0  0  0  0  0  0  0  0
  -22.1586  -12.8033   23.0502 C   0  0  0  0  0  0  0  0  0  0  0  0
  -26.0205  -25.4283   21.7259 C   0  0  0  0  0  0  0  0  0  0  0  0
  -19.5183  -10.1738   24.1547 C   0  0  0  0  0  0  0  0  0  0  0  0
  -18.7166   -9.0499   24.3538 C   0  0  0  0  0  0  0  0  0  0  0  0
  -29.1980  -19.3483   17.5400 C   0  0  0  0  0  0  0  0  0  0  0  0
  -26.6719  -27.6056   20.9169 C   0  0  0  0  0  0  0  0  0  0  0  0
  -19.7385   -8.7039   26.5156 C   0  0  0  0  0  0  0  0  0  0  0  0
  -23.7846  -11.6687   21.6696 C   0  0  0  0  0  0  0  0  0  0  0  0
  -29.1405  -17.9790   17.7631 C   0  0  0  0  0  0  0  0  0  0  0  0
  -24.3714  -11.2657   19.2200 C   0  0  0  0  0  0  0  0  0  0  0  0
  -17.8288  -29.1656   22.4903 C   0  0  0  0  0  0  0  0  0  0  0  0
  -24.9579  -27.4215   22.6164 C   0  0  0  0  0  0  0  0  0  0  0  0
  -18.9957  -28.5335   22.0201 C   0  0  0  0  0  0  0  0  0  0  0  0
  -25.7555  -28.2198   21.7842 C   0  0  0  0  0  0  0  0  0  0  0  0
  -29.8242  -20.1541   18.4922 C   0  0  0  0  0  0  0  0  0  0  0  0
  -29.6991  -17.4132   18.9121 C   0  0  0  0  0  0  0  0  0  0  0  0
  -22.0644  -11.6757   23.8659 C   0  0  0  0  0  0  0  0  0  0  0  0
  -26.8021  -26.2173   20.8871 C   0  0  0  0  0  0  0  0  0  0  0  0
  -20.4302  -10.5628   25.1360 C   0  0  0  0  0  0  0  0  0  0  0  0
  -18.8267   -8.3150   25.5343 C   0  0  0  0  0  0  0  0  0  0  0  0
  -20.5403   -9.8279   26.3165 C   0  0  0  0  0  0  0  0  0  0  0  0
  -24.6732  -11.6659   20.5355 C   0  0  0  0  0  0  0  0  0  0  0  0
  -25.5428  -11.4514   18.5273 C   0  0  0  0  0  0  0  0  0  0  0  0
  -28.5693  -16.9111   16.9500 C   0  0  0  0  0  0  0  0  0  0  0  0
  -26.8947  -16.0302   13.8029 C   0  0  0  0  0  0  0  0  0  0  0  0
  -28.0032  -17.0290   15.7450 C   0  0  0  0  0  0  0  0  0  0  0  0
  -27.4612  -15.9115   15.0090 C   0  0  0  0  0  0  0  0  0  0  0  0
  -23.1420  -10.7705   18.6730 C   0  0  0  0  0  0  0  0  0  0  0  0
  -22.5782  -29.4382   22.0049 C   0  0  0  0  0  0  0  0  0  0  0  0
  -24.6849  -31.6458   23.1052 C   0  0  0  0  0  0  0  0  0  0  0  0
  -28.8483  -23.7327   19.0892 C   0  0  0  0  0  0  0  0  0  0  0  0
  -27.9354  -32.5221   23.6646 C   0  0  0  0  0  0  0  0  0  0  0  0
  -30.2123  -15.1289   19.7632 C   0  0  0  0  0  0  0  0  0  0  0  0
  -17.6356  -30.6573   22.3806 C   0  0  0  0  0  0  0  0  0  0  0  0
  -23.9848  -28.0536   23.5735 C   0  0  0  0  0  0  0  0  0  0  0  0
  -25.6505  -29.7223   21.7886 C   0  0  0  0  0  0  0  0  0  0  0  0
  -28.7440  -15.6260   17.7151 C   0  0  0  0  0  0  0  0  0  0  0  0
  -18.9343  -31.4241   22.1445 C   0  0  0  0  0  0  0  0  0  0  0  0
  -30.2939  -11.5066   19.1315 C   0  0  0  0  0  0  0  0  0  0  0  0
  -19.7595  -30.7525   21.0514 C   0  0  0  0  0  0  0  0  0  0  0  0
  -28.8352  -11.1005   19.3526 C   0  0  0  0  0  0  0  0  0  0  0  0
  -30.6896  -12.7101   19.9843 C   0  0  0  0  0  0  0  0  0  0  0  0
  -28.3443  -13.4627   20.0815 C   0  0  0  0  0  0  0  0  0  0  0  0
  -20.1541  -29.3268   21.4553 C   0  0  1  0  0  0  0  0  0  0  0  0
  -23.5527  -29.4536   23.1485 C   0  0  1  0  0  0  0  0  0  0  0  0
  -27.8889  -12.3048   19.1837 C   0  0  2  0  0  0  0  0  0  0  0  0
  -29.3455  -34.4044   24.5400 C   0  0  0  0  0  0  0  0  0  0  0  0
  -24.2289  -33.1897   20.5132 C   0  0  0  0  0  0  0  0  0  0  0  0
  -26.3055  -34.4975   21.0085 C   0  0  0  0  0  0  0  0  0  0  0  0
  -24.3601  -34.6125   22.5656 C   0  0  0  0  0  0  0  0  0  0  0  0
  -29.0472  -30.8369   25.8287 C   0  0  0  0  0  0  0  0  0  0  0  0
  -29.9007  -21.6293   18.2807 C   0  0  0  0  0  0  0  0  0  0  0  0
  -27.7911  -24.2203   20.0567 C   0  0  0  0  0  0  0  0  0  1  0  0
  -25.7560  -32.5063   22.4796 C   0  0  1  0  0  0  0  0  0  0  0  0
  -28.6249  -33.1097   24.8827 C   0  0  2  0  0  0  0  0  0  0  0  0
  -25.1635  -33.6731   21.6400 C   0  0  0  0  0  0  0  0  0  0  0  0
  -25.9373  -12.0748   20.6728 N   0  0  0  0  0  0  0  0  0  0  0  0
  -26.4402  -11.9324   19.4347 N   0  0  0  0  0  0  0  0  0  0  0  0
  -29.5199  -16.0070   18.9222 N   0  0  0  0  0  0  0  0  0  0  0  0
  -24.6801  -30.2928   22.7375 N   0  0  0  0  0  0  0  0  0  0  0  0
  -29.7417  -13.8083   19.8045 N   0  0  0  0  0  0  0  0  0  0  0  0
  -25.8824  -11.2484   17.2366 N   0  0  0  0  0  0  0  0  0  0  0  0
  -22.0360  -10.6418   19.5242 N   0  0  0  0  0  0  0  0  0  0  0  0
  -21.2551  -29.3540   22.3942 N   0  0  0  0  0  0  0  0  0  0  0  0
  -28.9657  -22.3495   19.1068 N   0  0  0  0  0  0  0  0  0  0  0  0
  -26.6235  -32.9360   23.5711 N   0  0  0  0  0  0  0  0  0  0  0  0
  -29.6229  -32.1466   25.4280 N   0  3  0  0  0  0  0  0  0  0  0  0
  -23.0323  -10.4361   17.4690 O   0  0  0  0  0  0  0  0  0  0  0  0
  -22.9958  -29.4996   20.8544 O   0  0  0  0  0  0  0  0  0  0  0  0
  -23.8865  -32.1538   23.8964 O   0  0  0  0  0  0  0  0  0  0  0  0
  -29.5081  -24.4940   18.3870 O   0  0  0  0  0  0  0  0  0  0  0  0
  -28.5049  -31.7740   22.8731 O   0  0  0  0  0  0  0  0  0  0  0  0
  -31.2283  -15.4590   20.3857 O   0  0  0  0  0  0  0  0  0  0  0  0
  -21.2249  -11.6793   24.9372 O   0  0  0  0  0  0  0  0  0  0  0  0
  -27.7054  -25.6293   20.0334 O   0  0  0  0  0  0  0  0  0  1  0  0
  -18.0557   -7.2366   25.7260 F   0  0  0  0  0  0  0  0  0  0  0  0
  -21.4136  -10.1974   27.2633 F   0  0  0  0  0  0  0  0  0  0  0  0
  1  2  1  0  0  0  0
  1  5  2  0  0  0  0
  2  6  2  0  0  0  0
  3 10  2  0  0  0  0
  3 18  1  0  0  0  0
  4 11  1  0  0  0  0
  4 18  2  0  0  0  0
  5 21  1  0  0  0  0
  6 23  1  0  0  0  0
  7 12  2  0  0  0  0
  7 22  1  0  0  0  0
  8  9  2  0  0  0  0
  8 25  1  0  0  0  0
  9 26  1  0  0  0  0
 10 27  1  0  0  0  0
 11 27  2  0  0  0  0
 12 28  1  0  0  0  0
 13 14  2  0  0  0  0
 13 29  1  0  0  0  0
 14 30  1  0  0  0  0
 15 19  1  0  0  0  0
 15 25  2  0  0  0  0
 16 24  1  0  0  0  0
 16 28  2  0  0  0  0
 17 30  2  0  0  0  0
 17 31  1  0  0  0  0
 18 32  1  0  0  0  0
 19 26  2  0  0  0  0
 19 34  1  0  0  0  0
 20 32  1  0  0  0  0
 20 33  2  0  0  0  0
 20 38  1  0  0  0  0
 21 23  2  0  0  0  0
 21 44  1  0  0  0  0
 22 24  2  0  0  0  0
 22 45  1  0  0  0  0
 23 54  1  0  0  0  0
 24 46  1  0  0  0  0
 25 62  1  0  0  0  0
 26 69  1  0  0  0  0
 27 84  1  0  0  0  0
 28 85  1  0  0  0  0
 29 31  2  0  0  0  0
 29 84  1  0  0  0  0
 30 86  1  0  0  0  0
 31 87  1  0  0  0  0
 32 67  2  0  0  0  0
 33 68  1  0  0  0  0
 33 72  1  0  0  0  0
 34 36  2  0  0  0  0
 34 47  1  0  0  0  0
 35 37  2  0  0  0  0
 36 37  1  0  0  0  0
 38 73  1  0  0  0  0
 38 78  2  0  0  0  0
 39 55  1  0  0  0  0
 39 74  1  0  0  0  0
 39 79  2  0  0  0  0
 40 64  1  0  0  0  0
 40 70  1  0  0  0  0
 40 80  2  0  0  0  0
 41 63  1  0  0  0  0
 41 75  1  0  0  0  0
 41 81  2  0  0  0  0
 42 65  1  0  0  0  0
 42 76  1  0  0  0  0
 42 82  2  0  0  0  0
 43 69  1  0  0  0  0
 43 71  1  0  0  0  0
 43 83  2  0  0  0  0
 44 48  1  0  0  0  0
 45 55  1  0  0  0  0
 46 70  1  0  0  0  0
 47 69  1  0  0  0  0
 48 50  1  0  0  0  0
 49 51  1  0  0  0  0
 49 52  1  0  0  0  0
 50 54  1  0  0  0  0
 51 56  1  0  0  0  0
 52 71  1  0  0  0  0
 53 56  1  0  0  0  0
 53 71  1  0  0  0  0
 54 74  1  0  0  0  0
 55 70  1  0  0  0  0
 56 68  1  0  0  0  0
 57 65  1  0  0  0  0
 58 66  1  0  0  0  0
 59 66  1  0  0  0  0
 60 66  1  0  0  0  0
 61 77  1  0  0  0  0
 62 75  1  0  0  0  0
 63 85  1  0  0  0  0
 64 66  1  0  0  0  0
 64 76  1  0  0  0  0
 65 77  1  0  0  0  0
 67 68  1  0  0  0  0
M  CHG  1  77   1
M  ISO  4  43 100  63 101  69 100  85 101
M  END
> <Batch ID>
0055

> <Smiles>
C=CC=C1C[100N:0]([100C:0](=O)N2CCCC(n3nc(-c4ccc(Oc5ccc(F)cc5F)cc4)c(C(N)=O)c3N)C2)c2ccc(CNC(=O)[101CH2:1][101O:1]c3ccc4c(c3)CN(C(=O)C(NC(=O)C(C)NC)C(C)(C)C)C(C(=O)NC3CCCc5ccccc53)C4)cc21

> <Shape>
0.270

> <Color>
0.089

> <Negative vol penalty>
0.000

$$$$

  -OEChem-04042322493D

 89 98  0     1  0  0  0  0  0999 V2000
  -24.5200  -11.8044   17.1636 C   0  0  0  0  0  0  0  0  0  0  0  0
  -24.7898  -13.1479   16.9234 C   0  0  0  0  0  0  0  0  0  0  0  0
  -23.5900  -30.9169   21.8505 C   0  0  0  0  0  0  0  0  0  0  0  0
  -23.4619  -22.1745   27.4828 C   0  0  0  0  0  0  0  0  0  0  0  0
  -22.5513  -23.9514   26.1225 C   0  0  0  0  0  0  0  0  0  0  0  0
  -24.5914  -11.3016   18.4621 C   0  0  0  0  0  0  0  0  0  0  0  0
  -25.1302  -13.9896   17.9818 C   0  0  0  0  0  0  0  0  0  0  0  0
  -24.9245  -30.5723   22.0593 C   0  0  0  0  0  0  0  0  0  0  0  0
  -29.0429  -18.6984   17.8291 C   0  0  0  0  0  0  0  0  0  0  0  0
  -22.9122  -30.4065   20.7533 C   0  0  0  0  0  0  0  0  0  0  0  0
  -22.2403  -22.0557   28.1454 C   0  0  0  0  0  0  0  0  0  0  0  0
  -21.3296  -23.8325   26.7850 C   0  0  0  0  0  0  0  0  0  0  0  0
  -28.8512  -20.0735   17.7022 C   0  0  0  0  0  0  0  0  0  0  0  0
  -19.2140  -20.6658   27.5601 C   0  0  0  0  0  0  0  0  0  0  0  0
  -18.7112  -19.3813   27.7673 C   0  0  0  0  0  0  0  0  0  0  0  0
  -28.9524  -20.3028   20.1015 C   0  0  0  0  0  0  0  0  0  0  0  0
  -18.7470  -19.7524   30.1544 C   0  0  0  0  0  0  0  0  0  0  0  0
  -23.6175  -23.1224   26.4714 C   0  0  0  0  0  0  0  0  0  0  0  0
  -25.5431  -22.2531   25.0418 C   0  0  0  0  0  0  0  0  0  0  0  0
  -24.9422  -12.1354   19.5355 C   0  0  0  0  0  0  0  0  0  0  0  0
  -29.1802  -18.1127   19.0958 C   0  0  0  0  0  0  0  0  0  0  0  0
  -25.2050  -13.4977   19.2960 C   0  0  0  0  0  0  0  0  0  0  0  0
  -25.6138  -29.7092   21.1789 C   0  0  0  0  0  0  0  0  0  0  0  0
  -29.1483  -18.9204   20.2415 C   0  0  0  0  0  0  0  0  0  0  0  0
  -24.9172  -29.1871   20.0706 C   0  0  0  0  0  0  0  0  0  0  0  0
  -23.5712  -29.5536   19.8701 C   0  0  0  0  0  0  0  0  0  0  0  0
  -21.1741  -22.8846   27.7965 C   0  0  0  0  0  0  0  0  0  0  0  0
  -28.8030  -20.8755   18.8387 C   0  0  0  0  0  0  0  0  0  0  0  0
  -19.4834  -21.4935   28.6501 C   0  0  0  0  0  0  0  0  0  0  0  0
  -18.4777  -18.9246   29.0644 C   0  0  0  0  0  0  0  0  0  0  0  0
  -19.2499  -21.0368   29.9472 C   0  0  0  0  0  0  0  0  0  0  0  0
  -24.8794  -23.2461   25.7869 C   0  0  0  0  0  0  0  0  0  0  0  0
  -26.6911  -22.8648   24.6007 C   0  0  0  0  0  0  0  0  0  0  0  0
  -27.6468  -27.4268   20.0102 C   0  0  0  0  0  0  0  0  0  0  0  0
  -25.1565  -20.8990   24.7723 C   0  0  0  0  0  0  0  0  0  0  0  0
  -27.5392  -15.9591   20.7610 C   0  0  0  0  0  0  0  0  0  0  0  0
  -25.6507  -25.9423   19.7266 C   0  0  0  0  0  0  0  0  0  0  0  0
  -30.0182  -16.2456   22.8333 C   0  0  0  0  0  0  0  0  0  0  0  0
  -32.5872  -18.1454   24.0325 C   0  0  0  0  0  0  0  0  0  0  0  0
  -28.1387  -28.5897   23.6100 C   0  0  0  0  0  0  0  0  0  0  0  0
  -24.9603  -11.5569   20.9283 C   0  0  0  0  0  0  0  0  0  0  0  0
  -29.4130  -16.6314   19.2142 C   0  0  0  0  0  0  0  0  0  0  0  0
  -29.3107  -18.3434   21.6233 C   0  0  0  0  0  0  0  0  0  0  0  0
  -25.5578  -28.2957   19.0346 C   0  0  0  0  0  0  0  0  0  0  0  0
  -27.9504  -28.8690   20.3885 C   0  0  0  0  0  0  0  0  0  0  0  0
  -25.6937  -12.4318   21.9417 C   0  0  0  0  0  0  0  0  0  0  0  0
  -29.7920  -26.3094   25.7880 C   0  0  0  0  0  0  0  0  0  0  0  0
  -25.2585  -13.8873   21.8042 C   0  0  0  0  0  0  0  0  0  0  0  0
  -28.7803  -25.1762   25.9674 C   0  0  0  0  0  0  0  0  0  0  0  0
  -29.1049  -27.6702   25.6974 C   0  0  0  0  0  0  0  0  0  0  0  0
  -27.0367  -26.6303   24.8521 C   0  0  0  0  0  0  0  0  0  0  0  0
  -27.0596  -29.3909   21.5237 C   0  0  2  0  0  0  0  0  0  0  0  0
  -25.6018  -14.4368   20.4144 C   0  0  1  0  0  0  0  0  0  0  0  0
  -29.0265  -16.0731   20.5803 C   0  0  1  0  0  0  0  0  0  0  0  0
  -27.6783  -25.2328   24.8924 C   0  0  2  0  0  0  0  0  0  0  0  0
  -22.7716  -29.0631   18.7019 C   0  0  0  0  0  0  0  0  0  0  0  0
  -34.4141  -18.1278   25.7529 C   0  0  0  0  0  0  0  0  0  0  0  0
  -27.9641  -16.8136   25.0169 C   0  0  0  0  0  0  0  0  0  0  0  0
  -29.8233  -17.7055   26.4369 C   0  0  0  0  0  0  0  0  0  0  0  0
  -29.8427  -15.3177   25.7154 C   0  0  0  0  0  0  0  0  0  0  0  0
  -34.6944  -18.3627   21.9657 C   0  0  0  0  0  0  0  0  0  0  0  0
  -26.4405  -24.8082   20.3324 C   0  0  0  0  0  0  0  0  0  0  0  0
  -27.1667  -24.0649   19.2288 C   0  0  0  0  0  0  0  0  0  0  0  0
  -27.9418  -22.8801   19.7853 C   0  0  0  0  0  0  0  0  0  1  0  0
  -30.3242  -17.1291   24.0186 C   0  0  1  0  0  0  0  0  0  0  0  0
  -34.0413  -17.8116   24.3128 C   0  0  2  0  0  0  0  0  0  0  0  0
  -29.4835  -16.7524   25.2712 C   0  0  0  0  0  0  0  0  0  0  0  0
  -25.5499  -24.4007   25.8198 N   0  0  0  0  0  0  0  0  0  0  0  0
  -26.6470  -24.1372   25.0897 N   0  0  0  0  0  0  0  0  0  0  0  0
  -26.3179  -27.1834   19.6123 N   0  0  0  0  0  0  0  0  0  0  0  0
  -29.5298  -16.8889   21.6873 N   0  0  0  0  0  0  0  0  0  0  0  0
  -28.0722  -27.6574   24.6586 N   0  0  0  0  0  0  0  0  0  0  0  0
  -27.7239  -22.4329   23.8462 N   0  0  0  0  0  0  0  0  0  0  0  0
  -24.3883  -20.6384   23.6294 N   0  0  0  0  0  0  0  0  0  0  0  0
  -27.0108  -14.7568   20.3313 N   0  0  0  0  0  0  0  0  0  0  0  0
  -31.7668  -17.0536   24.2224 N   0  0  0  0  0  0  0  0  0  0  0  0
  -27.1242  -28.5046   22.6643 N   0  0  0  0  0  0  0  0  0  0  0  0
  -34.9352  -18.5945   23.4133 N   0  3  0  0  0  0  0  0  0  0  0  0
  -28.5457  -26.5853   20.0370 O   0  0  0  0  0  0  0  0  0  0  0  0
  -25.4688  -19.9506   25.5315 O   0  0  0  0  0  0  0  0  0  0  0  0
  -26.9173  -16.8922   21.2551 O   0  0  0  0  0  0  0  0  0  0  0  0
  -24.4853  -25.7434   19.3736 O   0  0  0  0  0  0  0  0  0  0  0  0
  -30.2124  -15.0305   22.9187 O   0  0  0  0  0  0  0  0  0  0  0  0
  -32.2157  -19.2639   23.6839 O   0  0  0  0  0  0  0  0  0  0  0  0
  -29.0385  -29.4318   23.5202 O   0  0  0  0  0  0  0  0  0  0  0  0
  -19.9818  -22.7688   28.4427 O   0  0  0  0  0  0  0  0  0  0  0  0
  -28.6140  -22.2278   18.7169 O   0  0  0  0  0  0  0  0  0  1  0  0
  -17.9934  -17.6917   29.2632 F   0  0  0  0  0  0  0  0  0  0  0  0
  -19.5056  -21.8279   30.9982 F   0  0  0  0  0  0  0  0  0  0  0  0
  1  2  1  0  0  0  0
  1  6  2  0  0  0  0
  2  7  2  0  0  0  0
  3  8  2  0  0  0  0
  3 10  1  0  0  0  0
  4 11  2  0  0  0  0
  4 18  1  0  0  0  0
  5 12  1  0  0  0  0
  5 18  2  0  0  0  0
  6 20  1  0  0  0  0
  7 22  1  0  0  0  0
  8 23  1  0  0  0  0
  9 13  2  0  0  0  0
  9 21  1  0  0  0  0
 10 26  2  0  0  0  0
 11 27  1  0  0  0  0
 12 27  2  0  0  0  0
 13 28  1  0  0  0  0
 14 15  2  0  0  0  0
 14 29  1  0  0  0  0
 15 30  1  0  0  0  0
 16 24  1  0  0  0  0
 16 28  2  0  0  0  0
 17 30  2  0  0  0  0
 17 31  1  0  0  0  0
 18 32  1  0  0  0  0
 19 32  1  0  0  0  0
 19 33  2  0  0  0  0
 19 35  1  0  0  0  0
 20 22  2  0  0  0  0
 20 41  1  0  0  0  0
 21 24  2  0  0  0  0
 21 42  1  0  0  0  0
 22 53  1  0  0  0  0
 23 25  2  0  0  0  0
 23 52  1  0  0  0  0
 24 43  1  0  0  0  0
 25 26  1  0  0  0  0
 25 44  1  0  0  0  0
 26 56  1  0  0  0  0
 27 86  1  0  0  0  0
 28 87  1  0  0  0  0
 29 31  2  0  0  0  0
 29 86  1  0  0  0  0
 30 88  1  0  0  0  0
 31 89  1  0  0  0  0
 32 68  2  0  0  0  0
 33 69  1  0  0  0  0
 33 73  1  0  0  0  0
 34 45  1  0  0  0  0
 34 70  1  0  0  0  0
 34 79  2  0  0  0  0
 35 74  1  0  0  0  0
 35 80  2  0  0  0  0
 36 54  1  0  0  0  0
 36 75  1  0  0  0  0
 36 81  2  0  0  0  0
 37 62  1  0  0  0  0
 37 70  1  0  0  0  0
 37 82  2  0  0  0  0
 38 65  1  0  0  0  0
 38 71  1  0  0  0  0
 38 83  2  0  0  0  0
 39 66  1  0  0  0  0
 39 76  1  0  0  0  0
 39 84  2  0  0  0  0
 40 72  1  0  0  0  0
 40 77  1  0  0  0  0
 40 85  2  0  0  0  0
 41 46  1  0  0  0  0
 42 54  1  0  0  0  0
 43 71  1  0  0  0  0
 44 70  1  0  0  0  0
 45 52  1  0  0  0  0
 46 48  1  0  0  0  0
 47 49  1  0  0  0  0
 47 50  1  0  0  0  0
 48 53  1  0  0  0  0
 49 55  1  0  0  0  0
 50 72  1  0  0  0  0
 51 55  1  0  0  0  0
 51 72  1  0  0  0  0
 52 77  1  0  0  0  0
 53 75  1  0  0  0  0
 54 71  1  0  0  0  0
 55 69  1  0  0  0  0
 57 66  1  0  0  0  0
 58 67  1  0  0  0  0
 59 67  1  0  0  0  0
 60 67  1  0  0  0  0
 61 78  1  0  0  0  0
 62 63  1  0  0  0  0
 63 64  1  0  0  0  0
 64 87  1  0  0  0  0
 65 67  1  0  0  0  0
 65 76  1  0  0  0  0
 66 78  1  0  0  0  0
 68 69  1  0  0  0  0
M  CHG  1  78   1
M  ISO  4  40 100  64 101  77 100  87 101
M  END
> <Batch ID>
0055

> <Smiles>
CNC(C)C(=O)NC(C(=O)N1Cc2cc([101O:1][101CH2:1]CCC(=O)N3Cc4c(C)cccc4C([100NH:0][100C:0](=O)N4CCCC(n5nc(-c6ccc(Oc7ccc(F)cc7F)cc6)c(C(N)=O)c5N)C4)CC3=O)ccc2CC1C(=O)NC1CCCc2ccccc21)C(C)(C)C

> <Shape>
0.171

> <Color>
0.074

> <Negative vol penalty>
0.000

$$$$

  -OEChem-04042322493D

 87 95  0     1  0  0  0  0  0999 V2000
  -19.0114  -24.7866   19.9839 C   0  0  0  0  0  0  0  0  0  0  0  0
  -20.3133  -25.1919   19.7078 C   0  0  0  0  0  0  0  0  0  0  0  0
  -24.2481  -12.6882   19.8463 C   0  0  0  0  0  0  0  0  0  0  0  0
  -25.5416  -12.8127   21.8830 C   0  0  0  0  0  0  0  0  0  0  0  0
  -18.3025  -25.3842   21.0253 C   0  0  0  0  0  0  0  0  0  0  0  0
  -20.9067  -26.1959   20.4722 C   0  0  0  0  0  0  0  0  0  0  0  0
  -25.6571  -25.0651   21.8137 C   0  0  0  0  0  0  0  0  0  0  0  0
  -28.4285  -23.9801   24.6027 C   0  0  0  0  0  0  0  0  0  0  0  0
  -27.2590  -23.2279   24.7116 C   0  0  0  0  0  0  0  0  0  0  0  0
  -24.2944  -11.2952   19.9019 C   0  0  0  0  0  0  0  0  0  0  0  0
  -25.5879  -11.4197   21.9388 C   0  0  0  0  0  0  0  0  0  0  0  0
  -26.6476  -25.2265   20.8459 C   0  0  0  0  0  0  0  0  0  0  0  0
  -23.7646   -7.7043   19.7033 C   0  0  0  0  0  0  0  0  0  0  0  0
  -22.5821   -7.0058   19.4598 C   0  0  0  0  0  0  0  0  0  0  0  0
  -27.2632  -27.3380   21.8367 C   0  0  0  0  0  0  0  0  0  0  0  0
  -28.9591  -22.8557   22.5312 C   0  0  0  0  0  0  0  0  0  0  0  0
  -21.5403   -8.1158   21.3359 C   0  0  0  0  0  0  0  0  0  0  0  0
  -24.8717  -13.4469   20.8368 C   0  0  0  0  0  0  0  0  0  0  0  0
  -23.8497  -15.7278   21.3474 C   0  0  0  0  0  0  0  0  0  0  0  0
  -18.8910  -26.3892   21.8090 C   0  0  0  0  0  0  0  0  0  0  0  0
  -25.4547  -26.0457   22.7954 C   0  0  0  0  0  0  0  0  0  0  0  0
  -20.2045  -26.8084   21.5241 C   0  0  0  0  0  0  0  0  0  0  0  0
  -26.2712  -27.1854   22.8174 C   0  0  0  0  0  0  0  0  0  0  0  0
  -29.2786  -23.7941   23.5125 C   0  0  0  0  0  0  0  0  0  0  0  0
  -26.9395  -22.2894   23.7303 C   0  0  0  0  0  0  0  0  0  0  0  0
  -27.7896  -22.1034   22.6401 C   0  0  0  0  0  0  0  0  0  0  0  0
  -24.9643  -10.6610   20.9482 C   0  0  0  0  0  0  0  0  0  0  0  0
  -27.4489  -26.3645   20.8555 C   0  0  0  0  0  0  0  0  0  0  0  0
  -23.8350   -8.6085   20.7631 C   0  0  0  0  0  0  0  0  0  0  0  0
  -21.4699   -7.2116   20.2761 C   0  0  0  0  0  0  0  0  0  0  0  0
  -22.7229   -8.8142   21.5794 C   0  0  0  0  0  0  0  0  0  0  0  0
  -24.8246  -14.8859   20.7795 C   0  0  0  0  0  0  0  0  0  0  0  0
  -24.2552  -16.9968   21.0133 C   0  0  0  0  0  0  0  0  0  0  0  0
  -22.6820  -15.3928   22.1089 C   0  0  0  0  0  0  0  0  0  0  0  0
  -23.0413  -27.9529   23.5967 C   0  0  0  0  0  0  0  0  0  0  0  0
  -24.9876  -28.7280   26.0734 C   0  0  0  0  0  0  0  0  0  0  0  0
  -31.5454  -25.2466   21.2198 C   0  0  0  0  0  0  0  0  0  0  0  0
  -28.1602  -28.9112   27.3176 C   0  0  0  0  0  0  0  0  0  0  0  0
  -28.2295  -20.8617   20.4927 C   0  0  0  0  0  0  0  0  0  0  0  0
  -18.0686  -27.0387   22.8937 C   0  0  0  0  0  0  0  0  0  0  0  0
  -24.3997  -25.8440   23.8484 C   0  0  0  0  0  0  0  0  0  0  0  0
  -26.1077  -28.2580   23.8621 C   0  0  0  0  0  0  0  0  0  0  0  0
  -18.9015  -27.8338   23.8959 C   0  0  0  0  0  0  0  0  0  0  0  0
  -27.8307  -18.5722   17.7953 C   0  0  0  0  0  0  0  0  0  0  0  0
  -19.9089  -28.7193   23.1694 C   0  0  0  0  0  0  0  0  0  0  0  0
  -26.9329  -17.4783   18.3779 C   0  0  0  0  0  0  0  0  0  0  0  0
  -28.8162  -19.1089   18.8319 C   0  0  0  0  0  0  0  0  0  0  0  0
  -27.3112  -18.4659   20.6733 C   0  0  0  0  0  0  0  0  0  0  0  0
  -20.8913  -27.8770   22.3467 C   0  0  1  0  0  0  0  0  0  0  0  0
  -23.9409  -27.1488   24.4922 C   0  0  1  0  0  0  0  0  0  0  0  0
  -26.2580  -17.9397   19.6845 C   0  0  2  0  0  0  0  0  0  0  0  0
  -25.6807  -21.4971   23.8733 C   0  0  0  0  0  0  0  0  0  0  0  0
  -29.9829  -29.2822   29.0020 C   0  0  0  0  0  0  0  0  0  0  0  0
  -24.6350  -31.6510   25.2724 C   0  0  0  0  0  0  0  0  0  0  0  0
  -26.6242  -32.2063   26.6877 C   0  0  0  0  0  0  0  0  0  0  0  0
  -24.5821  -31.2311   27.7372 C   0  0  0  0  0  0  0  0  0  0  0  0
  -31.0456  -24.3116   18.3375 C   0  0  0  0  0  0  0  0  0  0  0  0
  -30.4190  -26.6626   17.7741 C   0  0  0  0  0  0  0  0  0  0  0  0
  -28.0111  -26.1122   28.2676 C   0  0  0  0  0  0  0  0  0  0  0  0
  -30.5371  -24.6045   23.3961 C   0  0  0  0  0  0  0  0  0  0  0  0
  -31.3579  -26.1790   20.0345 C   0  0  0  0  0  0  0  0  0  0  0  0
  -29.0148  -25.3403   19.3875 C   0  0  0  0  0  0  0  0  0  1  0  0
  -26.0614  -29.7633   26.3058 C   0  0  1  0  0  0  0  0  0  0  0  0
  -28.7487  -28.4686   28.6450 C   0  0  2  0  0  0  0  0  0  0  0  0
  -25.4777  -31.1938   26.4798 C   0  0  0  0  0  0  0  0  0  0  0  0
  -30.4562  -25.6145   18.9074 C   0  0  0  0  0  0  0  0  0  0  0  0
  -25.7776  -15.5630   20.1335 N   0  0  0  0  0  0  0  0  0  0  0  0
  -25.4034  -16.8438   20.2934 N   0  0  0  0  0  0  0  0  0  0  0  0
  -25.0584  -28.0179   24.8665 N   0  0  0  0  0  0  0  0  0  0  0  0
  -28.1051  -19.5309   20.0406 N   0  0  0  0  0  0  0  0  0  0  0  0
  -23.7380  -18.2175   21.2680 N   0  0  0  0  0  0  0  0  0  0  0  0
  -22.4140  -14.0403   22.3609 N   0  0  0  0  0  0  0  0  0  0  0  0
  -27.4820  -21.1556   21.6327 N   0  0  0  0  0  0  0  0  0  0  0  0
  -21.8949  -27.2873   23.2067 N   0  0  0  0  0  0  0  0  0  0  0  0
  -30.5636  -25.3908   22.1849 N   0  0  0  0  0  0  0  0  0  0  0  0
  -26.8415  -29.2935   27.4455 N   0  0  0  0  0  0  0  0  0  0  0  0
  -29.1346  -27.0303   28.5867 N   0  3  0  0  0  0  0  0  0  0  0  0
  -21.8906  -16.2659   22.5388 O   0  0  0  0  0  0  0  0  0  0  0  0
  -23.3628  -29.0933   23.2841 O   0  0  0  0  0  0  0  0  0  0  0  0
  -24.1221  -28.5507   26.9342 O   0  0  0  0  0  0  0  0  0  0  0  0
  -32.4849  -24.4556   21.2758 O   0  0  0  0  0  0  0  0  0  0  0  0
  -28.8067  -28.9207   26.2724 O   0  0  0  0  0  0  0  0  0  0  0  0
  -28.9250  -21.6875   19.8959 O   0  0  0  0  0  0  0  0  0  0  0  0
  -25.0096   -9.3017   21.0030 O   0  0  0  0  0  0  0  0  0  0  0  0
  -28.4160  -26.5248   19.9117 O   0  0  0  0  0  0  0  0  0  1  0  0
  -20.3338   -6.5419   20.0413 F   0  0  0  0  0  0  0  0  0  0  0  0
  -22.7841   -9.6825   22.5983 F   0  0  0  0  0  0  0  0  0  0  0  0
  1  2  1  0  0  0  0
  1  5  2  0  0  0  0
  2  6  2  0  0  0  0
  3 10  2  0  0  0  0
  3 18  1  0  0  0  0
  4 11  1  0  0  0  0
  4 18  2  0  0  0  0
  5 20  1  0  0  0  0
  6 22  1  0  0  0  0
  7 12  2  0  0  0  0
  7 21  1  0  0  0  0
  8  9  2  0  0  0  0
  8 24  1  0  0  0  0
  9 25  1  0  0  0  0
 10 27  1  0  0  0  0
 11 27  2  0  0  0  0
 12 28  1  0  0  0  0
 13 14  2  0  0  0  0
 13 29  1  0  0  0  0
 14 30  1  0  0  0  0
 15 23  1  0  0  0  0
 15 28  2  0  0  0  0
 16 24  2  0  0  0  0
 16 26  1  0  0  0  0
 17 30  2  0  0  0  0
 17 31  1  0  0  0  0
 18 32  1  0  0  0  0
 19 32  1  0  0  0  0
 19 33  2  0  0  0  0
 19 34  1  0  0  0  0
 20 22  2  0  0  0  0
 20 40  1  0  0  0  0
 21 23  2  0  0  0  0
 21 41  1  0  0  0  0
 22 49  1  0  0  0  0
 23 42  1  0  0  0  0
 24 60  1  0  0  0  0
 25 26  2  0  0  0  0
 25 52  1  0  0  0  0
 26 73  1  0  0  0  0
 27 84  1  0  0  0  0
 28 85  1  0  0  0  0
 29 31  2  0  0  0  0
 29 84  1  0  0  0  0
 30 86  1  0  0  0  0
 31 87  1  0  0  0  0
 32 67  2  0  0  0  0
 33 68  1  0  0  0  0
 33 71  1  0  0  0  0
 34 72  1  0  0  0  0
 34 78  2  0  0  0  0
 35 50  1  0  0  0  0
 35 74  1  0  0  0  0
 35 79  2  0  0  0  0
 36 63  1  0  0  0  0
 36 69  1  0  0  0  0
 36 80  2  0  0  0  0
 37 61  1  0  0  0  0
 37 75  1  0  0  0  0
 37 81  2  0  0  0  0
 38 64  1  0  0  0  0
 38 76  1  0  0  0  0
 38 82  2  0  0  0  0
 39 70  1  0  0  0  0
 39 73  1  0  0  0  0
 39 83  2  0  0  0  0
 40 43  1  0  0  0  0
 41 50  1  0  0  0  0
 42 69  1  0  0  0  0
 43 45  1  0  0  0  0
 44 46  1  0  0  0  0
 44 47  1  0  0  0  0
 45 49  1  0  0  0  0
 46 51  1  0  0  0  0
 47 70  1  0  0  0  0
 48 51  1  0  0  0  0
 48 70  1  0  0  0  0
 49 74  1  0  0  0  0
 50 69  1  0  0  0  0
 51 68  1  0  0  0  0
 53 64  1  0  0  0  0
 54 65  1  0  0  0  0
 55 65  1  0  0  0  0
 56 65  1  0  0  0  0
 57 66  1  0  0  0  0
 58 66  1  0  0  0  0
 59 77  1  0  0  0  0
 60 75  1  0  0  0  0
 61 66  1  0  0  0  0
 62 66  1  0  0  0  0
 62 85  1  0  0  0  0
 63 65  1  0  0  0  0
 63 76  1  0  0  0  0
 64 77  1  0  0  0  0
 67 68  1  0  0  0  0
M  CHG  1  77   1
M  ISO  4  39 100  62 101  73 100  85 101
M  END
> <Batch ID>
0055

> <Smiles>
CNC(C)C(=O)NC(C(=O)N1Cc2cc([101O:1][101CH2:1]C(C)(C)CC(=O)NCc3ccc(C)c([100NH:0][100C:0](=O)N4CCCC(n5nc(-c6ccc(Oc7ccc(F)cc7F)cc6)c(C(N)=O)c5N)C4)c3)ccc2CC1C(=O)NC1CCCc2ccccc21)C(C)(C)C

> <Shape>
0.234

> <Color>
0.089

> <Negative vol penalty>
0.000

$$$$

  -OEChem-04042322493D

 81 89  0     1  0  0  0  0  0999 V2000
  -18.1832  -24.7349   24.9738 C   0  0  0  0  0  0  0  0  0  0  0  0
  -19.5321  -24.5468   24.6898 C   0  0  0  0  0  0  0  0  0  0  0  0
  -30.0674  -20.9521   20.1262 C   0  0  0  0  0  0  0  0  0  0  0  0
  -24.2782   -9.6281   21.3231 C   0  0  0  0  0  0  0  0  0  0  0  0
  -24.5866  -10.6342   23.4979 C   0  0  0  0  0  0  0  0  0  0  0  0
  -29.3262  -21.7072   21.0351 C   0  0  0  0  0  0  0  0  0  0  0  0
  -17.5447  -25.9078   24.5734 C   0  0  0  0  0  0  0  0  0  0  0  0
  -20.2429  -25.5312   24.0042 C   0  0  0  0  0  0  0  0  0  0  0  0
  -24.7757  -26.4474   26.0681 C   0  0  0  0  0  0  0  0  0  0  0  0
  -29.9851  -19.5598   20.1456 C   0  0  0  0  0  0  0  0  0  0  0  0
  -23.8348   -8.4529   21.9297 C   0  0  0  0  0  0  0  0  0  0  0  0
  -24.1432   -9.4590   24.1044 C   0  0  0  0  0  0  0  0  0  0  0  0
  -25.7943  -25.5343   25.7986 C   0  0  0  0  0  0  0  0  0  0  0  0
  -20.9936   -7.3069   23.3606 C   0  0  0  0  0  0  0  0  0  0  0  0
  -19.8544   -6.6965   22.8360 C   0  0  0  0  0  0  0  0  0  0  0  0
  -26.6726  -27.0207   24.1138 C   0  0  0  0  0  0  0  0  0  0  0  0
  -21.1365   -4.7021   22.3719 C   0  0  0  0  0  0  0  0  0  0  0  0
  -24.6541  -10.7187   22.1072 C   0  0  0  0  0  0  0  0  0  0  0  0
  -28.5029  -21.0701   21.9634 C   0  0  0  0  0  0  0  0  0  0  0  0
  -24.3293  -13.0327   21.0837 C   0  0  0  0  0  0  0  0  0  0  0  0
  -18.2504  -26.9113   23.8911 C   0  0  0  0  0  0  0  0  0  0  0  0
  -24.6914  -27.6511   25.3537 C   0  0  0  0  0  0  0  0  0  0  0  0
  -19.6129  -26.7181   23.5931 C   0  0  0  0  0  0  0  0  0  0  0  0
  -25.6535  -27.9484   24.3779 C   0  0  0  0  0  0  0  0  0  0  0  0
  -28.4207  -19.6777   21.9829 C   0  0  0  0  0  0  0  0  0  0  0  0
  -29.1618  -18.9226   21.0739 C   0  0  0  0  0  0  0  0  0  0  0  0
  -23.7673   -8.3684   23.3203 C   0  0  0  0  0  0  0  0  0  0  0  0
  -26.7413  -25.8196   24.8193 C   0  0  0  0  0  0  0  0  0  0  0  0
  -22.2044   -6.6148   23.3907 C   0  0  0  0  0  0  0  0  0  0  0  0
  -19.9258   -5.3942   22.3417 C   0  0  0  0  0  0  0  0  0  0  0  0
  -22.2758   -5.3125   22.8964 C   0  0  0  0  0  0  0  0  0  0  0  0
  -25.1128  -11.9328   21.4812 C   0  0  0  0  0  0  0  0  0  0  0  0
  -25.2300  -13.9196   20.5465 C   0  0  0  0  0  0  0  0  0  0  0  0
  -27.7349  -21.8986   22.9079 C   0  0  0  0  0  0  0  0  0  0  0  0
  -28.2662  -22.7366   23.8117 C   0  0  0  0  0  0  0  0  0  0  0  0
  -22.9138  -13.2347   21.1905 C   0  0  0  0  0  0  0  0  0  0  0  0
  -22.5443  -28.9600   23.4093 C   0  0  0  0  0  0  0  0  0  0  0  0
  -24.5373  -31.5147   23.5631 C   0  0  0  0  0  0  0  0  0  0  0  0
  -27.6852  -32.7034   24.1324 C   0  0  0  0  0  0  0  0  0  0  0  0
  -30.1003  -16.6137   20.7069 C   0  0  0  0  0  0  0  0  0  0  0  0
  -17.5058  -28.1417   23.4368 C   0  0  0  0  0  0  0  0  0  0  0  0
  -23.6022  -28.6374   25.6749 C   0  0  0  0  0  0  0  0  0  0  0  0
  -25.6193  -29.2358   23.5969 C   0  0  0  0  0  0  0  0  0  0  0  0
  -18.4219  -29.2979   23.0443 C   0  0  0  0  0  0  0  0  0  0  0  0
  -30.1081  -13.3301   19.3304 C   0  0  0  0  0  0  0  0  0  0  0  0
  -19.5509  -28.8031   22.1457 C   0  0  0  0  0  0  0  0  0  0  0  0
  -28.7447  -12.7643   19.7345 C   0  0  0  0  0  0  0  0  0  0  0  0
  -30.6997  -14.2189   20.4229 C   0  0  0  0  0  0  0  0  0  0  0  0
  -28.4540  -14.7282   21.2984 C   0  0  0  0  0  0  0  0  0  0  0  0
  -20.4240  -27.7735   22.8732 C   0  0  1  0  0  0  0  0  0  0  0  0
  -23.3130  -29.6023   24.5292 C   0  0  1  0  0  0  0  0  0  0  0  0
  -27.7886  -13.8787   20.2033 C   0  0  2  0  0  0  0  0  0  0  0  0
  -27.5384  -18.9863   22.9772 C   0  0  0  0  0  0  0  0  0  0  0  0
  -29.0147  -34.8317   24.1459 C   0  0  0  0  0  0  0  0  0  0  0  0
  -24.5944  -31.4956   20.5125 C   0  0  0  0  0  0  0  0  0  0  0  0
  -26.6172  -32.9675   20.6105 C   0  0  0  0  0  0  0  0  0  0  0  0
  -24.4458  -33.7713   21.5388 C   0  0  0  0  0  0  0  0  0  0  0  0
  -28.3390  -32.4131   27.0042 C   0  0  0  0  0  0  0  0  0  0  0  0
  -27.4444  -23.5485   24.7609 C   0  0  0  0  0  0  0  0  0  1  0  0
  -25.7369  -31.9838   22.7758 C   0  0  1  0  0  0  0  0  0  0  0  0
  -28.1874  -33.8618   24.9752 C   0  0  2  0  0  0  0  0  0  0  0  0
  -25.3484  -32.5294   21.3726 C   0  0  0  0  0  0  0  0  0  0  0  0
  -26.4113  -12.1030   21.2188 N   0  0  0  0  0  0  0  0  0  0  0  0
  -26.4507  -13.3202   20.6506 N   0  0  0  0  0  0  0  0  0  0  0  0
  -24.5312  -30.1652   23.9432 N   0  0  0  0  0  0  0  0  0  0  0  0
  -29.7398  -15.2538   20.8135 N   0  0  0  0  0  0  0  0  0  0  0  0
  -25.0891  -15.1459   19.9999 N   0  0  0  0  0  0  0  0  0  0  0  0
  -22.1362  -12.2221   21.7684 N   0  0  0  0  0  0  0  0  0  0  0  0
  -29.0952  -17.5072   21.0758 N   0  0  0  0  0  0  0  0  0  0  0  0
  -21.3251  -28.4346   23.7926 N   0  0  0  0  0  0  0  0  0  0  0  0
  -26.4282  -32.9502   23.6222 N   0  0  0  0  0  0  0  0  0  0  0  0
  -29.0340  -33.3596   26.0941 N   0  3  0  0  0  0  0  0  0  0  0  0
  -22.3532  -14.2753   20.7704 O   0  0  0  0  0  0  0  0  0  0  0  0
  -23.0214  -28.9435   22.2807 O   0  0  0  0  0  0  0  0  0  0  0  0
  -23.6421  -32.3180   23.8372 O   0  0  0  0  0  0  0  0  0  0  0  0
  -28.3439  -31.6833   23.9423 O   0  0  0  0  0  0  0  0  0  0  0  0
  -31.2088  -16.9606   20.2911 O   0  0  0  0  0  0  0  0  0  0  0  0
  -23.3344   -7.2218   23.9125 O   0  0  0  0  0  0  0  0  0  0  0  0
  -27.7361  -24.9299   24.5538 O   0  0  0  0  0  0  0  0  0  1  0  0
  -18.8313   -4.8077   21.8394 F   0  0  0  0  0  0  0  0  0  0  0  0
  -23.4359   -4.6422   22.9238 F   0  0  0  0  0  0  0  0  0  0  0  0
  1  2  1  0  0  0  0
  1  7  2  0  0  0  0
  2  8  2  0  0  0  0
  3  6  2  0  0  0  0
  3 10  1  0  0  0  0
  4 11  2  0  0  0  0
  4 18  1  0  0  0  0
  5 12  1  0  0  0  0
  5 18  2  0  0  0  0
  6 19  1  0  0  0  0
  7 21  1  0  0  0  0
  8 23  1  0  0  0  0
  9 13  2  0  0  0  0
  9 22  1  0  0  0  0
 10 26  2  0  0  0  0
 11 27  1  0  0  0  0
 12 27  2  0  0  0  0
 13 28  1  0  0  0  0
 14 15  2  0  0  0  0
 14 29  1  0  0  0  0
 15 30  1  0  0  0  0
 16 24  1  0  0  0  0
 16 28  2  0  0  0  0
 17 30  2  0  0  0  0
 17 31  1  0  0  0  0
 18 32  1  0  0  0  0
 19 25  2  0  0  0  0
 19 34  1  0  0  0  0
 20 32  1  0  0  0  0
 20 33  2  0  0  0  0
 20 36  1  0  0  0  0
 21 23  2  0  0  0  0
 21 41  1  0  0  0  0
 22 24  2  0  0  0  0
 22 42  1  0  0  0  0
 23 50  1  0  0  0  0
 24 43  1  0  0  0  0
 25 26  1  0  0  0  0
 25 53  1  0  0  0  0
 26 69  1  0  0  0  0
 27 78  1  0  0  0  0
 28 79  1  0  0  0  0
 29 31  2  0  0  0  0
 29 78  1  0  0  0  0
 30 80  1  0  0  0  0
 31 81  1  0  0  0  0
 32 63  2  0  0  0  0
 33 64  1  0  0  0  0
 33 67  1  0  0  0  0
 34 35  2  0  0  0  0
 35 59  1  0  0  0  0
 36 68  1  0  0  0  0
 36 73  2  0  0  0  0
 37 51  1  0  0  0  0
 37 70  1  0  0  0  0
 37 74  2  0  0  0  0
 38 60  1  0  0  0  0
 38 65  1  0  0  0  0
 38 75  2  0  0  0  0
 39 61  1  0  0  0  0
 39 71  1  0  0  0  0
 39 76  2  0  0  0  0
 40 66  1  0  0  0  0
 40 69  1  0  0  0  0
 40 77  2  0  0  0  0
 41 44  1  0  0  0  0
 42 51  1  0  0  0  0
 43 65  1  0  0  0  0
 44 46  1  0  0  0  0
 45 47  1  0  0  0  0
 45 48  1  0  0  0  0
 46 50  1  0  0  0  0
 47 52  1  0  0  0  0
 48 66  1  0  0  0  0
 49 52  1  0  0  0  0
 49 66  1  0  0  0  0
 50 70  1  0  0  0  0
 51 65  1  0  0  0  0
 52 64  1  0  0  0  0
 54 61  1  0  0  0  0
 55 62  1  0  0  0  0
 56 62  1  0  0  0  0
 57 62  1  0  0  0  0
 58 72  1  0  0  0  0
 59 79  1  0  0  0  0
 60 62  1  0  0  0  0
 60 71  1  0  0  0  0
 61 72  1  0  0  0  0
 63 64  1  0  0  0  0
M  CHG  1  72   1
M  ISO  4  40 100  59 101  69 100  79 101
M  END
> <Batch ID>
0055

> <Smiles>
CNC(C)C(=O)NC(C(=O)N1Cc2cc([101O:1][101CH2:1]C=Cc3cccc([100NH:0][100C:0](=O)N4CCCC(n5nc(-c6ccc(Oc7ccc(F)cc7F)cc6)c(C(N)=O)c5N)C4)c3C)ccc2CC1C(=O)NC1CCCc2ccccc21)C(C)(C)C

> <Shape>
0.296

> <Color>
0.149

> <Negative vol penalty>
0.000

$$$$

  -OEChem-04042322493D

 88 97  0     1  0  0  0  0  0999 V2000
  -28.0462  -33.8725   26.3799 C   0  0  0  0  0  0  0  0  0  0  0  0
  -28.1697  -32.6453   25.7363 C   0  0  0  0  0  0  0  0  0  0  0  0
  -27.4558  -19.9051   19.1254 C   0  0  0  0  0  0  0  0  0  0  0  0
  -23.0354   -9.0777   19.5525 C   0  0  0  0  0  0  0  0  0  0  0  0
  -24.6299   -8.5630   21.2931 C   0  0  0  0  0  0  0  0  0  0  0  0
  -26.7819  -34.4119   26.6131 C   0  0  0  0  0  0  0  0  0  0  0  0
  -27.0288  -31.9563   25.3265 C   0  0  0  0  0  0  0  0  0  0  0  0
  -27.4627  -30.0953   20.6368 C   0  0  0  0  0  0  0  0  0  0  0  0
  -28.5706  -20.7360   19.2358 C   0  0  0  0  0  0  0  0  0  0  0  0
  -27.6029  -18.5223   19.2354 C   0  0  0  0  0  0  0  0  0  0  0  0
  -22.0081   -8.5577   20.3398 C   0  0  0  0  0  0  0  0  0  0  0  0
  -23.6026   -8.0430   22.0804 C   0  0  0  0  0  0  0  0  0  0  0  0
  -28.2132  -28.9308   20.4808 C   0  0  0  0  0  0  0  0  0  0  0  0
  -21.8052   -5.1851   22.2613 C   0  0  0  0  0  0  0  0  0  0  0  0
  -22.0332   -3.9679   22.9030 C   0  0  0  0  0  0  0  0  0  0  0  0
  -26.1787  -27.6366   20.4083 C   0  0  0  0  0  0  0  0  0  0  0  0
  -21.6835   -5.0311   25.0441 C   0  0  0  0  0  0  0  0  0  0  0  0
  -24.3463   -9.0803   20.0291 C   0  0  0  0  0  0  0  0  0  0  0  0
  -25.8084   -9.1751   17.9408 C   0  0  0  0  0  0  0  0  0  0  0  0
  -25.6253  -33.7337   26.1974 C   0  0  0  0  0  0  0  0  0  0  0  0
  -26.0626  -30.0379   20.6907 C   0  0  0  0  0  0  0  0  0  0  0  0
  -25.7477  -32.4865   25.5556 C   0  0  0  0  0  0  0  0  0  0  0  0
  -25.4127  -28.8021   20.5625 C   0  0  0  0  0  0  0  0  0  0  0  0
  -29.8326  -20.1842   19.4560 C   0  0  0  0  0  0  0  0  0  0  0  0
  -29.9798  -18.8015   19.5660 C   0  0  0  0  0  0  0  0  0  0  0  0
  -28.8649  -17.9705   19.4556 C   0  0  0  0  0  0  0  0  0  0  0  0
  -22.2917   -8.0404   21.6037 C   0  0  0  0  0  0  0  0  0  0  0  0
  -27.5714  -27.7008   20.3694 C   0  0  0  0  0  0  0  0  0  0  0  0
  -21.5164   -6.3255   23.0109 C   0  0  0  0  0  0  0  0  0  0  0  0
  -21.9724   -3.8908   24.2944 C   0  0  0  0  0  0  0  0  0  0  0  0
  -21.4555   -6.2484   24.4023 C   0  0  0  0  0  0  0  0  0  0  0  0
  -25.4080   -9.6169   19.2161 C   0  0  0  0  0  0  0  0  0  0  0  0
  -26.8488  -10.0049   17.6010 C   0  0  0  0  0  0  0  0  0  0  0  0
  -30.4769  -22.9887   21.0601 C   0  0  0  0  0  0  0  0  0  0  0  0
  -25.2864   -8.1100   17.1353 C   0  0  0  0  0  0  0  0  0  0  0  0
  -23.8690  -30.7871   22.8657 C   0  0  0  0  0  0  0  0  0  0  0  0
  -21.8076  -30.0757   20.4643 C   0  0  0  0  0  0  0  0  0  0  0  0
  -21.2221  -28.3990   17.5502 C   0  0  0  0  0  0  0  0  0  0  0  0
  -27.9778  -15.6047   19.4780 C   0  0  0  0  0  0  0  0  0  0  0  0
  -24.2784  -34.3342   26.5138 C   0  0  0  0  0  0  0  0  0  0  0  0
  -25.2665  -31.3062   20.8326 C   0  0  0  0  0  0  0  0  0  0  0  0
  -23.9111  -28.6888   20.5938 C   0  0  0  0  0  0  0  0  0  0  0  0
  -29.9820  -24.4169   21.1907 C   0  0  0  0  0  0  0  0  0  0  0  0
  -23.1336  -33.7179   25.7138 C   0  0  0  0  0  0  0  0  0  0  0  0
  -30.0061  -12.4595   20.3251 C   0  0  0  0  0  0  0  0  0  0  0  0
  -23.2315  -32.1957   25.7278 C   0  0  0  0  0  0  0  0  0  0  0  0
  -29.3567  -11.4712   19.3591 C   0  0  0  0  0  0  0  0  0  0  0  0
  -29.8926  -24.6546   18.7320 C   0  0  0  0  0  0  0  0  0  0  0  0
  -29.8362  -13.9046   19.8738 C   0  0  0  0  0  0  0  0  0  0  0  0
  -30.6023  -23.3225   18.5667 C   0  0  0  0  0  0  0  0  0  0  0  0
  -27.4629  -13.1733   19.5758 C   0  0  0  0  0  0  0  0  0  0  0  0
  -24.5347  -31.7206   25.0740 C   0  0  1  0  0  0  0  0  0  0  0  0
  -23.8659  -31.0732   21.3907 C   0  0  1  0  0  0  0  0  0  0  0  0
  -30.3522  -25.3208   20.0221 C   0  0  1  0  0  0  0  0  0  0  0  0
  -28.0192  -11.9790   18.7849 C   0  0  2  0  0  0  0  0  0  0  0  0
  -31.5316  -17.7832   21.2516 C   0  0  0  0  0  0  0  0  0  0  0  0
  -19.4305  -27.9819   15.8432 C   0  0  0  0  0  0  0  0  0  0  0  0
  -20.4238  -28.1551   22.3895 C   0  0  0  0  0  0  0  0  0  0  0  0
  -19.2973  -27.1007   20.4178 C   0  0  0  0  0  0  0  0  0  0  0  0
  -18.8719  -29.4980   20.9603 C   0  0  0  0  0  0  0  0  0  0  0  0
  -22.8437  -29.5993   15.3849 C   0  0  0  0  0  0  0  0  0  0  0  0
  -31.3359  -18.2141   19.8024 C   0  0  0  0  0  0  0  0  0  0  0  0
  -31.0157  -21.1014   19.5709 C   0  0  0  0  0  0  0  0  0  0  0  0
  -29.7213  -26.7017   20.1809 C   0  0  0  0  0  0  0  0  0  1  0  0
  -21.1079  -28.8244   19.9915 C   0  0  1  0  0  0  0  0  0  0  0  0
  -20.6171  -28.8496   16.2328 C   0  0  2  0  0  0  0  0  0  0  0  0
  -19.9536  -28.3961   20.9411 C   0  0  0  0  0  0  0  0  0  0  0  0
  -26.1350  -10.6471   19.6566 N   0  0  0  0  0  0  0  0  0  0  0  0
  -27.0027  -10.8596   18.6526 N   0  0  0  0  0  0  0  0  0  0  0  0
  -30.6137  -22.4879   19.7672 N   0  0  0  0  0  0  0  0  0  0  0  0
  -23.1770  -29.9564   20.7406 N   0  0  0  0  0  0  0  0  0  0  0  0
  -28.4338  -14.2724   19.6305 N   0  0  0  0  0  0  0  0  0  0  0  0
  -27.6380  -10.0793   16.5082 N   0  0  0  0  0  0  0  0  0  0  0  0
  -25.8382   -6.8300   17.2810 N   0  0  0  0  0  0  0  0  0  0  0  0
  -28.9911  -16.5630   19.5647 N   0  0  0  0  0  0  0  0  0  0  0  0
  -24.4313  -31.7901   23.6321 N   0  0  0  0  0  0  0  0  0  0  0  0
  -20.6869  -29.0858   18.6193 N   0  0  0  0  0  0  0  0  0  0  0  0
  -21.6320  -28.7742   15.1441 N   0  3  0  0  0  0  0  0  0  0  0  0
  -30.6554  -22.3219   22.0831 O   0  0  0  0  0  0  0  0  0  0  0  0
  -24.3692   -8.2916   16.2990 O   0  0  0  0  0  0  0  0  0  0  0  0
  -23.3950  -29.7350   23.2782 O   0  0  0  0  0  0  0  0  0  0  0  0
  -21.1645  -31.1223   20.5772 O   0  0  0  0  0  0  0  0  0  0  0  0
  -22.0806  -27.5225   17.6237 O   0  0  0  0  0  0  0  0  0  0  0  0
  -26.7897  -15.8636   19.2751 O   0  0  0  0  0  0  0  0  0  0  0  0
  -21.2894   -7.5331   22.3723 O   0  0  0  0  0  0  0  0  0  0  0  0
  -28.3016  -26.5625   20.2177 O   0  0  0  0  0  0  0  0  0  1  0  0
  -22.1899   -2.7215   24.9104 F   0  0  0  0  0  0  0  0  0  0  0  0
  -21.1773   -7.3402   25.1279 F   0  0  0  0  0  0  0  0  0  0  0  0
  1  2  1  0  0  0  0
  1  6  2  0  0  0  0
  2  7  2  0  0  0  0
  3  9  1  0  0  0  0
  3 10  2  0  0  0  0
  4 11  2  0  0  0  0
  4 18  1  0  0  0  0
  5 12  1  0  0  0  0
  5 18  2  0  0  0  0
  6 20  1  0  0  0  0
  7 22  1  0  0  0  0
  8 13  2  0  0  0  0
  8 21  1  0  0  0  0
  9 24  2  0  0  0  0
 10 26  1  0  0  0  0
 11 27  1  0  0  0  0
 12 27  2  0  0  0  0
 13 28  1  0  0  0  0
 14 15  2  0  0  0  0
 14 29  1  0  0  0  0
 15 30  1  0  0  0  0
 16 23  1  0  0  0  0
 16 28  2  0  0  0  0
 17 30  2  0  0  0  0
 17 31  1  0  0  0  0
 18 32  1  0  0  0  0
 19 32  1  0  0  0  0
 19 33  2  0  0  0  0
 19 35  1  0  0  0  0
 20 22  2  0  0  0  0
 20 40  1  0  0  0  0
 21 23  2  0  0  0  0
 21 41  1  0  0  0  0
 22 52  1  0  0  0  0
 23 42  1  0  0  0  0
 24 25  1  0  0  0  0
 24 63  1  0  0  0  0
 25 26  2  0  0  0  0
 25 62  1  0  0  0  0
 26 75  1  0  0  0  0
 27 85  1  0  0  0  0
 28 86  1  0  0  0  0
 29 31  2  0  0  0  0
 29 85  1  0  0  0  0
 30 87  1  0  0  0  0
 31 88  1  0  0  0  0
 32 68  2  0  0  0  0
 33 69  1  0  0  0  0
 33 73  1  0  0  0  0
 34 43  1  0  0  0  0
 34 70  1  0  0  0  0
 34 79  2  0  0  0  0
 35 74  1  0  0  0  0
 35 80  2  0  0  0  0
 36 53  1  0  0  0  0
 36 76  1  0  0  0  0
 36 81  2  0  0  0  0
 37 65  1  0  0  0  0
 37 71  1  0  0  0  0
 37 82  2  0  0  0  0
 38 66  1  0  0  0  0
 38 77  1  0  0  0  0
 38 83  2  0  0  0  0
 39 72  1  0  0  0  0
 39 75  1  0  0  0  0
 39 84  2  0  0  0  0
 40 44  1  0  0  0  0
 41 53  1  0  0  0  0
 42 71  1  0  0  0  0
 43 54  1  0  0  0  0
 44 46  1  0  0  0  0
 45 47  1  0  0  0  0
 45 49  1  0  0  0  0
 46 52  1  0  0  0  0
 47 55  1  0  0  0  0
 48 50  1  0  0  0  0
 48 54  1  0  0  0  0
 49 72  1  0  0  0  0
 50 70  1  0  0  0  0
 51 55  1  0  0  0  0
 51 72  1  0  0  0  0
 52 76  1  0  0  0  0
 53 71  1  0  0  0  0
 54 64  1  0  0  0  0
 55 69  1  0  0  0  0
 56 62  1  0  0  0  0
 57 66  1  0  0  0  0
 58 67  1  0  0  0  0
 59 67  1  0  0  0  0
 60 67  1  0  0  0  0
 61 78  1  0  0  0  0
 63 70  1  0  0  0  0
 64 86  1  0  0  0  0
 65 67  1  0  0  0  0
 65 77  1  0  0  0  0
 66 78  1  0  0  0  0
 68 69  1  0  0  0  0
M  CHG  1  78   1
M  ISO  4  39 100  64 101  75 100  86 101
M  END
> <Batch ID>
0055

> <Smiles>
CCc1c(CN2CCC([101CH2:1][101O:1]c3ccc4c(c3)CN(C(=O)C(NC(=O)C(C)NC)C(C)(C)C)C(C(=O)NC3CCCc5ccccc53)C4)CC2=O)cccc1[100NH:0][100C:0](=O)N1CCCC(n2nc(-c3ccc(Oc4ccc(F)cc4F)cc3)c(C(N)=O)c2N)C1

> <Shape>
0.354

> <Color>
0.107

> <Negative vol penalty>
0.000

$$$$

  -OEChem-04042322493D

 85 93  0     1  0  0  0  0  0999 V2000
  -21.8118  -29.3931   16.7313 C   0  0  0  0  0  0  0  0  0  0  0  0
  -22.2532  -28.3301   17.5128 C   0  0  0  0  0  0  0  0  0  0  0  0
  -23.0360   -9.8890   19.9248 C   0  0  0  0  0  0  0  0  0  0  0  0
  -23.8752   -9.7835   22.1879 C   0  0  0  0  0  0  0  0  0  0  0  0
  -21.7406  -30.6746   17.2758 C   0  0  0  0  0  0  0  0  0  0  0  0
  -22.6247  -28.5483   18.8390 C   0  0  0  0  0  0  0  0  0  0  0  0
  -20.7560  -25.0444   21.9816 C   0  0  0  0  0  0  0  0  0  0  0  0
  -31.4270  -18.4856   20.1906 C   0  0  0  0  0  0  0  0  0  0  0  0
  -31.1337  -19.5793   19.3763 C   0  0  0  0  0  0  0  0  0  0  0  0
  -22.3074   -8.7193   20.1405 C   0  0  0  0  0  0  0  0  0  0  0  0
  -23.1465   -8.6138   22.4036 C   0  0  0  0  0  0  0  0  0  0  0  0
  -21.3999  -23.8082   22.0121 C   0  0  0  0  0  0  0  0  0  0  0  0
  -23.4355   -5.3270   21.6660 C   0  0  0  0  0  0  0  0  0  0  0  0
  -24.0810   -4.2705   22.3085 C   0  0  0  0  0  0  0  0  0  0  0  0
  -22.5541  -24.4660   24.0257 C   0  0  0  0  0  0  0  0  0  0  0  0
  -29.2463  -18.6633   21.2152 C   0  0  0  0  0  0  0  0  0  0  0  0
  -22.4392   -4.3442   24.0793 C   0  0  0  0  0  0  0  0  0  0  0  0
  -23.8199  -10.4211   20.9486 C   0  0  0  0  0  0  0  0  0  0  0  0
  -24.1440  -12.9514   20.9472 C   0  0  0  0  0  0  0  0  0  0  0  0
  -22.1023  -30.9069   18.6122 C   0  0  0  0  0  0  0  0  0  0  0  0
  -21.0150  -26.0064   22.9684 C   0  0  0  0  0  0  0  0  0  0  0  0
  -22.5595  -29.8344   19.4015 C   0  0  0  0  0  0  0  0  0  0  0  0
  -21.9103  -25.7127   24.0068 C   0  0  0  0  0  0  0  0  0  0  0  0
  -30.4833  -18.0275   21.1101 C   0  0  0  0  0  0  0  0  0  0  0  0
  -29.8966  -20.2152   19.4815 C   0  0  0  0  0  0  0  0  0  0  0  0
  -28.9529  -19.7572   20.4009 C   0  0  0  0  0  0  0  0  0  0  0  0
  -22.3626   -8.0817   21.3799 C   0  0  0  0  0  0  0  0  0  0  0  0
  -22.3013  -23.5199   23.0327 C   0  0  0  0  0  0  0  0  0  0  0  0
  -22.2918   -5.8921   22.2302 C   0  0  0  0  0  0  0  0  0  0  0  0
  -23.5829   -3.7791   23.5151 C   0  0  0  0  0  0  0  0  0  0  0  0
  -21.7936   -5.4007   23.4369 C   0  0  0  0  0  0  0  0  0  0  0  0
  -24.5733  -11.6291   20.7262 C   0  0  0  0  0  0  0  0  0  0  0  0
  -25.2188  -13.7263   20.5856 C   0  0  0  0  0  0  0  0  0  0  0  0
  -25.4893  -20.9607   21.2055 C   0  0  0  0  0  0  0  0  0  0  0  0
  -24.3828  -20.8029   21.9450 C   0  0  0  0  0  0  0  0  0  0  0  0
  -22.8861  -13.4360   21.4358 C   0  0  0  0  0  0  0  0  0  0  0  0
  -26.6575  -20.0481   21.3848 C   0  0  0  0  0  0  0  0  0  0  0  0
  -22.2218  -28.9471   22.9724 C   0  0  0  0  0  0  0  0  0  0  0  0
  -21.3844  -28.8667   26.1053 C   0  0  0  0  0  0  0  0  0  0  0  0
  -20.7118  -26.9932   28.8773 C   0  0  0  0  0  0  0  0  0  0  0  0
  -30.7003  -14.7732   20.6371 C   0  0  0  0  0  0  0  0  0  0  0  0
  -22.0535  -32.3179   19.1427 C   0  0  0  0  0  0  0  0  0  0  0  0
  -20.2921  -27.3251   22.9361 C   0  0  0  0  0  0  0  0  0  0  0  0
  -22.2078  -26.7035   25.1014 C   0  0  0  0  0  0  0  0  0  0  0  0
  -22.1093  -32.3982   20.6661 C   0  0  0  0  0  0  0  0  0  0  0  0
  -29.4930  -12.5064   18.1711 C   0  0  0  0  0  0  0  0  0  0  0  0
  -23.2121  -31.4944   21.2082 C   0  0  0  0  0  0  0  0  0  0  0  0
  -28.0731  -12.1806   18.6377 C   0  0  0  0  0  0  0  0  0  0  0  0
  -30.4502  -12.6717   19.3495 C   0  0  0  0  0  0  0  0  0  0  0  0
  -28.5940  -13.3171   20.8367 C   0  0  0  0  0  0  0  0  0  0  0  0
  -22.9477  -30.0266   20.8515 C   0  0  1  0  0  0  0  0  0  0  0  0
  -21.0189  -28.4239   23.7053 C   0  0  1  0  0  0  0  0  0  0  0  0
  -27.5804  -13.1964   19.6859 C   0  0  2  0  0  0  0  0  0  0  0  0
  -29.6101  -21.3851   18.5970 C   0  0  0  0  0  0  0  0  0  0  0  0
  -20.0944  -27.2109   31.2998 C   0  0  0  0  0  0  0  0  0  0  0  0
  -24.2579  -29.6534   26.7644 C   0  0  0  0  0  0  0  0  0  0  0  0
  -23.8390  -28.9355   29.1260 C   0  0  0  0  0  0  0  0  0  0  0  0
  -22.5182  -30.8083   28.1408 C   0  0  0  0  0  0  0  0  0  0  0  0
  -18.1690  -25.5319   28.4803 C   0  0  0  0  0  0  0  0  0  0  0  0
  -30.7978  -16.8578   21.9802 C   0  0  0  0  0  0  0  0  0  0  0  0
  -23.1772  -21.6765   21.8118 C   0  0  0  0  0  0  0  0  0  1  0  0
  -22.0650  -28.4392   27.3832 C   0  0  1  0  0  0  0  0  0  0  0  0
  -19.5736  -27.0506   29.8800 C   0  0  2  0  0  0  0  0  0  0  0  0
  -23.1661  -29.4409   27.8320 C   0  0  0  0  0  0  0  0  0  0  0  0
  -25.8233  -11.5638   20.2602 N   0  0  0  0  0  0  0  0  0  0  0  0
  -26.1887  -12.8549   20.1853 N   0  0  0  0  0  0  0  0  0  0  0  0
  -21.4807  -27.9812   25.0225 N   0  0  0  0  0  0  0  0  0  0  0  0
  -29.9254  -13.6495   20.3058 N   0  0  0  0  0  0  0  0  0  0  0  0
  -25.4195  -15.0612   20.5742 N   0  0  0  0  0  0  0  0  0  0  0  0
  -21.8914  -12.5036   21.7604 N   0  0  0  0  0  0  0  0  0  0  0  0
  -27.6909  -20.3891   20.5220 N   0  0  0  0  0  0  0  0  0  0  0  0
  -21.9376  -29.4684   21.7246 N   0  0  0  0  0  0  0  0  0  0  0  0
  -21.0035  -28.2391   28.3638 N   0  0  0  0  0  0  0  0  0  0  0  0
  -30.1260  -15.6532   21.5461 N   0  0  0  0  0  0  0  0  0  0  0  0
  -18.7625  -25.8020   29.8151 N   0  3  0  0  0  0  0  0  0  0  0  0
  -22.6455  -14.6604   21.5646 O   0  0  0  0  0  0  0  0  0  0  0  0
  -26.6347  -19.1390   22.2060 O   0  0  0  0  0  0  0  0  0  0  0  0
  -23.3258  -28.8839   23.5005 O   0  0  0  0  0  0  0  0  0  0  0  0
  -20.7833  -29.9434   26.0712 O   0  0  0  0  0  0  0  0  0  0  0  0
  -21.2873  -25.9481   28.5820 O   0  0  0  0  0  0  0  0  0  0  0  0
  -31.8189  -14.9797   20.1542 O   0  0  0  0  0  0  0  0  0  0  0  0
  -21.6516   -6.9404   21.5908 O   0  0  0  0  0  0  0  0  0  0  0  0
  -22.9316  -22.3143   23.0645 O   0  0  0  0  0  0  0  0  0  1  0  0
  -24.2020   -2.7636   24.1312 F   0  0  0  0  0  0  0  0  0  0  0  0
  -20.6946   -5.9388   23.9832 F   0  0  0  0  0  0  0  0  0  0  0  0
  1  2  1  0  0  0  0
  1  5  2  0  0  0  0
  2  6  2  0  0  0  0
  3 10  2  0  0  0  0
  3 18  1  0  0  0  0
  4 11  1  0  0  0  0
  4 18  2  0  0  0  0
  5 20  1  0  0  0  0
  6 22  1  0  0  0  0
  7 12  2  0  0  0  0
  7 21  1  0  0  0  0
  8  9  2  0  0  0  0
  8 24  1  0  0  0  0
  9 25  1  0  0  0  0
 10 27  1  0  0  0  0
 11 27  2  0  0  0  0
 12 28  1  0  0  0  0
 13 14  2  0  0  0  0
 13 29  1  0  0  0  0
 14 30  1  0  0  0  0
 15 23  1  0  0  0  0
 15 28  2  0  0  0  0
 16 24  2  0  0  0  0
 16 26  1  0  0  0  0
 17 30  2  0  0  0  0
 17 31  1  0  0  0  0
 18 32  1  0  0  0  0
 19 32  1  0  0  0  0
 19 33  2  0  0  0  0
 19 36  1  0  0  0  0
 20 22  2  0  0  0  0
 20 42  1  0  0  0  0
 21 23  2  0  0  0  0
 21 43  1  0  0  0  0
 22 51  1  0  0  0  0
 23 44  1  0  0  0  0
 24 60  1  0  0  0  0
 25 26  2  0  0  0  0
 25 54  1  0  0  0  0
 26 71  1  0  0  0  0
 27 82  1  0  0  0  0
 28 83  1  0  0  0  0
 29 31  2  0  0  0  0
 29 82  1  0  0  0  0
 30 84  1  0  0  0  0
 31 85  1  0  0  0  0
 32 65  2  0  0  0  0
 33 66  1  0  0  0  0
 33 69  1  0  0  0  0
 34 35  2  0  0  0  0
 34 37  1  0  0  0  0
 35 61  1  0  0  0  0
 36 70  1  0  0  0  0
 36 76  2  0  0  0  0
 37 71  1  0  0  0  0
 37 77  2  0  0  0  0
 38 52  1  0  0  0  0
 38 72  1  0  0  0  0
 38 78  2  0  0  0  0
 39 62  1  0  0  0  0
 39 67  1  0  0  0  0
 39 79  2  0  0  0  0
 40 63  1  0  0  0  0
 40 73  1  0  0  0  0
 40 80  2  0  0  0  0
 41 68  1  0  0  0  0
 41 74  1  0  0  0  0
 41 81  2  0  0  0  0
 42 45  1  0  0  0  0
 43 52  1  0  0  0  0
 44 67  1  0  0  0  0
 45 47  1  0  0  0  0
 46 48  1  0  0  0  0
 46 49  1  0  0  0  0
 47 51  1  0  0  0  0
 48 53  1  0  0  0  0
 49 68  1  0  0  0  0
 50 53  1  0  0  0  0
 50 68  1  0  0  0  0
 51 72  1  0  0  0  0
 52 67  1  0  0  0  0
 53 66  1  0  0  0  0
 55 63  1  0  0  0  0
 56 64  1  0  0  0  0
 57 64  1  0  0  0  0
 58 64  1  0  0  0  0
 59 75  1  0  0  0  0
 60 74  1  0  0  0  0
 61 83  1  0  0  0  0
 62 64  1  0  0  0  0
 62 73  1  0  0  0  0
 63 75  1  0  0  0  0
 65 66  1  0  0  0  0
M  CHG  1  75   1
M  ISO  4  41 100  61 101  74 100  83 101
M  END
> <Batch ID>
0055

> <Smiles>
CNC(C)C(=O)NC(C(=O)N1Cc2cc([101O:1][101CH2:1]C=CC(=O)Nc3cc(C[100NH:0][100C:0](=O)N4CCCC(n5nc(-c6ccc(Oc7ccc(F)cc7F)cc6)c(C(N)=O)c5N)C4)ccc3C)ccc2CC1C(=O)NC1CCCc2ccccc21)C(C)(C)C

> <Shape>
0.277

> <Color>
0.228

> <Negative vol penalty>
0.000

$$$$

  -OEChem-04042322493D

 86 95  0     1  0  0  0  0  0999 V2000
  -16.3539  -29.6346   23.6760 C   0  0  0  0  0  0  0  0  0  0  0  0
  -16.9505  -29.2248   22.4889 C   0  0  0  0  0  0  0  0  0  0  0  0
  -28.8759  -23.8938   16.6618 C   0  0  0  0  0  0  0  0  0  0  0  0
  -27.0911  -12.3974   18.4900 C   0  0  0  0  0  0  0  0  0  0  0  0
  -26.3757  -13.0293   20.7094 C   0  0  0  0  0  0  0  0  0  0  0  0
  -17.1441  -30.1060   24.7222 C   0  0  0  0  0  0  0  0  0  0  0  0
  -18.3382  -29.2750   22.3521 C   0  0  0  0  0  0  0  0  0  0  0  0
  -25.4134  -28.4907   18.8095 C   0  0  0  0  0  0  0  0  0  0  0  0
  -29.8096  -24.9131   16.8483 C   0  0  0  0  0  0  0  0  0  0  0  0
  -28.8940  -22.7713   17.4896 C   0  0  0  0  0  0  0  0  0  0  0  0
  -25.9118  -11.6732   18.3160 C   0  0  0  0  0  0  0  0  0  0  0  0
  -25.1963  -12.3051   20.5354 C   0  0  0  0  0  0  0  0  0  0  0  0
  -26.7412  -28.9112   18.8711 C   0  0  0  0  0  0  0  0  0  0  0  0
  -24.2182   -9.0709   20.6542 C   0  0  0  0  0  0  0  0  0  0  0  0
  -23.8006   -8.2509   21.7024 C   0  0  0  0  0  0  0  0  0  0  0  0
  -26.8708  -28.1470   21.1555 C   0  0  0  0  0  0  0  0  0  0  0  0
  -21.7418   -9.5049   21.8630 C   0  0  0  0  0  0  0  0  0  0  0  0
  -27.3231  -13.0754   19.6867 C   0  0  0  0  0  0  0  0  0  0  0  0
  -29.8580  -13.3269   19.8230 C   0  0  0  0  0  0  0  0  0  0  0  0
  -18.5411  -30.1734   24.5927 C   0  0  0  0  0  0  0  0  0  0  0  0
  -24.7999  -27.9041   19.9258 C   0  0  0  0  0  0  0  0  0  0  0  0
  -19.1547  -29.7251   23.4053 C   0  0  0  0  0  0  0  0  0  0  0  0
  -25.5359  -27.7176   21.1046 C   0  0  0  0  0  0  0  0  0  0  0  0
  -30.7617  -24.8098   17.8625 C   0  0  0  0  0  0  0  0  0  0  0  0
  -30.7799  -23.6872   18.6903 C   0  0  0  0  0  0  0  0  0  0  0  0
  -29.8460  -22.6680   18.5039 C   0  0  0  0  0  0  0  0  0  0  0  0
  -24.9644  -11.6271   19.3386 C   0  0  0  0  0  0  0  0  0  0  0  0
  -27.4693  -28.7420   20.0452 C   0  0  0  0  0  0  0  0  0  0  0  0
  -23.3977  -10.1080   20.2104 C   0  0  0  0  0  0  0  0  0  0  0  0
  -22.5624   -8.4679   22.3068 C   0  0  0  0  0  0  0  0  0  0  0  0
  -22.1594  -10.3249   20.8148 C   0  0  0  0  0  0  0  0  0  0  0  0
  -28.5414  -13.8232   19.8673 C   0  0  0  0  0  0  0  0  0  0  0  0
  -30.6476  -14.4270   20.0528 C   0  0  0  0  0  0  0  0  0  0  0  0
  -32.3773  -26.9048   20.2138 C   0  0  0  0  0  0  0  0  0  0  0  0
  -30.3255  -11.9909   19.5943 C   0  0  0  0  0  0  0  0  0  0  0  0
  -22.3253  -28.6504   21.7759 C   0  0  0  0  0  0  0  0  0  0  0  0
  -22.9259  -25.7437   23.0846 C   0  0  0  0  0  0  0  0  0  0  0  0
  -25.8352  -23.8411   24.0507 C   0  0  0  0  0  0  0  0  0  0  0  0
  -29.4434  -20.2232   18.9991 C   0  0  0  0  0  0  0  0  0  0  0  0
  -19.3489  -30.6846   25.7596 C   0  0  0  0  0  0  0  0  0  0  0  0
  -23.3749  -27.4316   19.8346 C   0  0  0  0  0  0  0  0  0  0  0  0
  -24.9298  -27.0749   22.3245 C   0  0  0  0  0  0  0  0  0  0  0  0
  -31.9522  -27.7238   21.4180 C   0  0  0  0  0  0  0  0  0  0  0  0
  -20.7573  -31.1161   25.3641 C   0  0  0  0  0  0  0  0  0  0  0  0
  -30.9197  -28.7895   21.1172 C   0  0  0  0  0  0  0  0  0  0  0  0
  -29.7793  -18.5484   22.4351 C   0  0  0  0  0  0  0  0  0  0  0  0
  -21.4210  -30.0269   24.5347 C   0  0  0  0  0  0  0  0  0  0  0  0
  -30.3218  -17.1883   22.0022 C   0  0  0  0  0  0  0  0  0  0  0  0
  -30.0548  -19.6349   21.4034 C   0  0  0  0  0  0  0  0  0  0  0  0
  -29.1603  -17.8995   19.8399 C   0  0  0  0  0  0  0  0  0  0  0  0
  -30.2258  -27.5620   19.0817 C   0  0  0  0  0  0  0  0  0  0  0  0
  -20.6598  -29.7995   23.2225 C   0  0  1  0  0  0  0  0  0  0  0  0
  -22.6958  -27.3149   21.1957 C   0  0  1  0  0  0  0  0  0  0  0  0
  -30.1499  -16.9223   20.4936 C   0  0  2  0  0  0  0  0  0  0  0  0
  -29.7451  -28.1606   20.3920 C   0  0  2  0  0  0  0  0  0  1  0  0
  -31.8031  -23.5810   19.7773 C   0  0  0  0  0  0  0  0  0  0  0  0
  -26.1801  -21.3613   24.2215 C   0  0  0  0  0  0  0  0  0  0  0  0
  -22.1744  -26.1332   26.0161 C   0  0  0  0  0  0  0  0  0  0  0  0
  -23.9114  -24.4324   26.6150 C   0  0  0  0  0  0  0  0  0  0  0  0
  -21.9700  -23.7814   25.1903 C   0  0  0  0  0  0  0  0  0  0  0  0
  -28.1756  -23.9250   22.2413 C   0  0  0  0  0  0  0  0  0  0  0  0
  -31.7551  -25.9212   18.0413 C   0  0  0  0  0  0  0  0  0  0  0  0
  -23.7913  -25.2376   24.2133 C   0  0  1  0  0  0  0  0  0  0  0  0
  -26.3795  -22.6015   23.3641 C   0  0  2  0  0  0  0  0  0  0  0  0
  -22.9688  -24.9194   25.4938 C   0  0  0  0  0  0  0  0  0  0  0  0
  -28.4932  -15.1364   20.1068 N   0  0  0  0  0  0  0  0  0  0  0  0
  -29.7894  -15.4745   20.2150 N   0  0  0  0  0  0  0  0  0  0  0  0
  -31.4392  -26.7545   19.1938 N   0  0  0  0  0  0  0  0  0  0  0  0
  -23.5314  -26.6353   22.1878 N   0  0  0  0  0  0  0  0  0  0  0  0
  -29.5663  -19.2925   20.0597 N   0  0  0  0  0  0  0  0  0  0  0  0
  -31.9854  -14.5908   20.1302 N   0  0  0  0  0  0  0  0  0  0  0  0
  -30.5004  -11.1460   20.6988 N   0  0  0  0  0  0  0  0  0  0  0  0
  -29.8458  -21.5189   19.3336 N   0  0  0  0  0  0  0  0  0  0  0  0
  -21.1917  -28.6258   22.5656 N   0  0  0  0  0  0  0  0  0  0  0  0
  -24.5322  -24.0993   23.6808 N   0  0  0  0  0  0  0  0  0  0  0  0
  -27.8369  -22.7567   23.0940 N   0  3  0  0  0  0  0  0  0  0  0  0
  -33.4814  -26.3536   20.2254 O   0  0  0  0  0  0  0  0  0  0  0  0
  -30.5963  -11.5644   18.4461 O   0  0  0  0  0  0  0  0  0  0  0  0
  -23.0176  -29.6304   21.5268 O   0  0  0  0  0  0  0  0  0  0  0  0
  -21.7579  -25.3565   22.9976 O   0  0  0  0  0  0  0  0  0  0  0  0
  -26.4982  -24.5111   24.8394 O   0  0  0  0  0  0  0  0  0  0  0  0
  -29.0280  -19.8878   17.8878 O   0  0  0  0  0  0  0  0  0  0  0  0
  -23.8134  -10.9207   19.1691 O   0  0  0  0  0  0  0  0  0  0  0  0
  -28.7653  -29.1521   20.1082 O   0  0  0  0  0  0  0  0  0  1  0  0
  -22.1608   -7.6794   23.3124 F   0  0  0  0  0  0  0  0  0  0  0  0
  -21.3662  -11.3189   20.3921 F   0  0  0  0  0  0  0  0  0  0  0  0
  1  2  1  0  0  0  0
  1  6  2  0  0  0  0
  2  7  2  0  0  0  0
  3  9  2  0  0  0  0
  3 10  1  0  0  0  0
  4 11  2  0  0  0  0
  4 18  1  0  0  0  0
  5 12  1  0  0  0  0
  5 18  2  0  0  0  0
  6 20  1  0  0  0  0
  7 22  1  0  0  0  0
  8 13  2  0  0  0  0
  8 21  1  0  0  0  0
  9 24  1  0  0  0  0
 10 26  2  0  0  0  0
 11 27  1  0  0  0  0
 12 27  2  0  0  0  0
 13 28  1  0  0  0  0
 14 15  2  0  0  0  0
 14 29  1  0  0  0  0
 15 30  1  0  0  0  0
 16 23  1  0  0  0  0
 16 28  2  0  0  0  0
 17 30  2  0  0  0  0
 17 31  1  0  0  0  0
 18 32  1  0  0  0  0
 19 32  1  0  0  0  0
 19 33  2  0  0  0  0
 19 35  1  0  0  0  0
 20 22  2  0  0  0  0
 20 40  1  0  0  0  0
 21 23  2  0  0  0  0
 21 41  1  0  0  0  0
 22 52  1  0  0  0  0
 23 42  1  0  0  0  0
 24 25  2  0  0  0  0
 24 62  1  0  0  0  0
 25 26  1  0  0  0  0
 25 56  1  0  0  0  0
 26 73  1  0  0  0  0
 27 83  1  0  0  0  0
 28 84  1  0  0  0  0
 29 31  2  0  0  0  0
 29 83  1  0  0  0  0
 30 85  1  0  0  0  0
 31 86  1  0  0  0  0
 32 66  2  0  0  0  0
 33 67  1  0  0  0  0
 33 71  1  0  0  0  0
 34 43  1  0  0  0  0
 34 68  1  0  0  0  0
 34 77  2  0  0  0  0
 35 72  1  0  0  0  0
 35 78  2  0  0  0  0
 36 53  1  0  0  0  0
 36 74  1  0  0  0  0
 36 79  2  0  0  0  0
 37 63  1  0  0  0  0
 37 69  1  0  0  0  0
 37 80  2  0  0  0  0
 38 64  1  0  0  0  0
 38 75  1  0  0  0  0
 38 81  2  0  0  0  0
 39 70  1  0  0  0  0
 39 73  1  0  0  0  0
 39 82  2  0  0  0  0
 40 44  1  0  0  0  0
 41 53  1  0  0  0  0
 42 69  1  0  0  0  0
 43 45  1  0  0  0  0
 44 47  1  0  0  0  0
 45 55  1  0  0  0  0
 46 48  1  0  0  0  0
 46 49  1  0  0  0  0
 47 52  1  0  0  0  0
 48 54  1  0  0  0  0
 49 70  1  0  0  0  0
 50 54  1  0  0  0  0
 50 70  1  0  0  0  0
 51 55  1  0  0  0  0
 51 68  1  0  0  0  0
 52 74  1  0  0  0  0
 53 69  1  0  0  0  0
 54 67  1  0  0  0  0
 55 84  1  0  0  0  0
 57 64  1  0  0  0  0
 58 65  1  0  0  0  0
 59 65  1  0  0  0  0
 60 65  1  0  0  0  0
 61 76  1  0  0  0  0
 62 68  1  0  0  0  0
 63 65  1  0  0  0  0
 63 75  1  0  0  0  0
 64 76  1  0  0  0  0
 66 67  1  0  0  0  0
M  CHG  1  76   1
M  ISO  4  39 100  55 101  73 100  84 101
M  END
> <Batch ID>
0055

> <Smiles>
CNC(C)C(=O)NC(C(=O)N1Cc2cc([101O:1][101CH:1]3CCC(=O)N(Cc4cccc([100NH:0][100C:0](=O)N5CCCC(n6nc(-c7ccc(Oc8ccc(F)cc8F)cc7)c(C(N)=O)c6N)C5)c4C)C3)ccc2CC1C(=O)NC1CCCc2ccccc21)C(C)(C)C

> <Shape>
0.313

> <Color>
0.088

> <Negative vol penalty>
0.000

$$$$

  -OEChem-04042322493D

 83 91  0     1  0  0  0  0  0999 V2000
  -17.0696  -26.1661   22.1411 C   0  0  0  0  0  0  0  0  0  0  0  0
  -18.2361  -25.6254   22.6725 C   0  0  0  0  0  0  0  0  0  0  0  0
  -30.9203  -19.3600   24.2839 C   0  0  0  0  0  0  0  0  0  0  0  0
  -23.8746   -9.7548   19.7941 C   0  0  0  0  0  0  0  0  0  0  0  0
  -24.4331   -9.8459   22.1429 C   0  0  0  0  0  0  0  0  0  0  0  0
  -29.8893  -19.9724   24.9963 C   0  0  0  0  0  0  0  0  0  0  0  0
  -17.1271  -27.3329   21.3801 C   0  0  0  0  0  0  0  0  0  0  0  0
  -19.4610  -26.2508   22.4424 C   0  0  0  0  0  0  0  0  0  0  0  0
  -22.2947  -26.5723   26.6271 C   0  0  0  0  0  0  0  0  0  0  0  0
  -30.6247  -18.4030   23.3131 C   0  0  0  0  0  0  0  0  0  0  0  0
  -23.4338   -8.4407   19.9498 C   0  0  0  0  0  0  0  0  0  0  0  0
  -23.9922   -8.5317   22.2986 C   0  0  0  0  0  0  0  0  0  0  0  0
  -22.9672  -25.4197   27.0307 C   0  0  0  0  0  0  0  0  0  0  0  0
  -21.0395   -6.9167   22.6048 C   0  0  0  0  0  0  0  0  0  0  0  0
  -20.2322   -6.6318   23.7060 C   0  0  0  0  0  0  0  0  0  0  0  0
  -24.9970  -26.2634   26.0372 C   0  0  0  0  0  0  0  0  0  0  0  0
  -21.8689   -5.0385   24.4936 C   0  0  0  0  0  0  0  0  0  0  0  0
  -24.3744  -10.4574   20.8906 C   0  0  0  0  0  0  0  0  0  0  0  0
  -28.5626  -19.6279   24.7380 C   0  0  0  0  0  0  0  0  0  0  0  0
  -24.0672  -12.9898   20.8664 C   0  0  0  0  0  0  0  0  0  0  0  0
  -18.3521  -27.9782   21.1486 C   0  0  0  0  0  0  0  0  0  0  0  0
  -22.9668  -27.5759   25.9147 C   0  0  0  0  0  0  0  0  0  0  0  0
  -19.5351  -27.4266   21.6765 C   0  0  0  0  0  0  0  0  0  0  0  0
  -24.3314  -27.4289   25.6279 C   0  0  0  0  0  0  0  0  0  0  0  0
  -28.2669  -18.6708   23.7672 C   0  0  0  0  0  0  0  0  0  0  0  0
  -29.2979  -18.0584   23.0548 C   0  0  0  0  0  0  0  0  0  0  0  0
  -23.4925   -7.8292   21.2021 C   0  0  0  0  0  0  0  0  0  0  0  0
  -24.3178  -25.2638   26.7333 C   0  0  0  0  0  0  0  0  0  0  0  0
  -22.2614   -6.2624   22.4479 C   0  0  0  0  0  0  0  0  0  0  0  0
  -20.6469   -5.6927   24.6505 C   0  0  0  0  0  0  0  0  0  0  0  0
  -22.6761   -5.3234   23.3923 C   0  0  0  0  0  0  0  0  0  0  0  0
  -24.8305  -11.8148   20.7302 C   0  0  0  0  0  0  0  0  0  0  0  0
  -24.9555  -14.0071   20.6166 C   0  0  0  0  0  0  0  0  0  0  0  0
  -27.4990  -20.2949   25.5096 C   0  0  0  0  0  0  0  0  0  0  0  0
  -27.2949  -21.6193   25.5367 C   0  0  0  0  0  0  0  0  0  0  0  0
  -22.6793  -13.1475   21.1898 C   0  0  0  0  0  0  0  0  0  0  0  0
  -26.1933  -22.1973   26.3601 C   0  0  0  0  0  0  0  0  0  0  0  0
  -22.6601  -28.8646   23.0253 C   0  0  0  0  0  0  0  0  0  0  0  0
  -24.9570  -30.8827   24.1087 C   0  0  0  0  0  0  0  0  0  0  0  0
  -27.5418  -31.4393   26.2664 C   0  0  0  0  0  0  0  0  0  0  0  0
  -29.9435  -16.3908   21.2804 C   0  0  0  0  0  0  0  0  0  0  0  0
  -18.3703  -29.2112   20.2802 C   0  0  0  0  0  0  0  0  0  0  0  0
  -22.2336  -28.8252   25.5097 C   0  0  0  0  0  0  0  0  0  0  0  0
  -25.1037  -28.4861   24.8833 C   0  0  0  0  0  0  0  0  0  0  0  0
  -19.6604  -30.0191   20.3965 C   0  0  0  0  0  0  0  0  0  0  0  0
  -29.6644  -13.8877   18.7637 C   0  0  0  0  0  0  0  0  0  0  0  0
  -20.8750  -29.0998   20.3160 C   0  0  0  0  0  0  0  0  0  0  0  0
  -28.3192  -13.2219   19.0621 C   0  0  0  0  0  0  0  0  0  0  0  0
  -30.3977  -14.2836   20.0440 C   0  0  0  0  0  0  0  0  0  0  0  0
  -28.2708  -14.4369   21.2776 C   0  0  0  0  0  0  0  0  0  0  0  0
  -20.8797  -28.0896   21.4696 C   0  0  1  0  0  0  0  0  0  0  0  0
  -22.8919  -29.5521   24.3411 C   0  0  1  0  0  0  0  0  0  0  0  0
  -27.4659  -14.0790   20.0176 C   0  0  2  0  0  0  0  0  0  0  0  0
  -26.8441  -18.2956   23.4843 C   0  0  0  0  0  0  0  0  0  0  0  0
  -29.2505  -33.1685   26.8892 C   0  0  0  0  0  0  0  0  0  0  0  0
  -26.5753  -30.1765   21.6203 C   0  0  0  0  0  0  0  0  0  0  0  0
  -28.5923  -31.1473   22.7415 C   0  0  0  0  0  0  0  0  0  0  0  0
  -26.6247  -32.5977   22.2443 C   0  0  0  0  0  0  0  0  0  0  0  0
  -26.4888  -31.6544   29.0239 C   0  0  0  0  0  0  0  0  0  0  0  0
  -26.0632  -23.7050   26.3091 C   0  0  0  0  0  0  0  0  0  1  0  0
  -26.4666  -30.8878   24.0998 C   0  0  1  0  0  0  0  0  0  0  0  0
  -27.8627  -32.6146   27.1721 C   0  0  2  0  0  0  0  0  0  0  0  0
  -27.0500  -31.1813   22.6888 C   0  0  0  0  0  0  0  0  0  0  0  0
  -26.1055  -12.0614   20.4180 N   0  0  0  0  0  0  0  0  0  0  0  0
  -26.1502  -13.4032   20.3558 N   0  0  0  0  0  0  0  0  0  0  0  0
  -24.3410  -29.6866   24.5032 N   0  0  0  0  0  0  0  0  0  0  0  0
  -29.5295  -15.0973   20.8978 N   0  0  0  0  0  0  0  0  0  0  0  0
  -24.8233  -15.3505   20.5967 N   0  0  0  0  0  0  0  0  0  0  0  0
  -21.9111  -11.9973   21.4162 N   0  0  0  0  0  0  0  0  0  0  0  0
  -29.0216  -17.0827   22.0651 N   0  0  0  0  0  0  0  0  0  0  0  0
  -21.3266  -28.7211   22.6927 N   0  0  0  0  0  0  0  0  0  0  0  0
  -26.8777  -31.8395   25.1263 N   0  0  0  0  0  0  0  0  0  0  0  0
  -27.8055  -32.1976   28.6017 N   0  3  0  0  0  0  0  0  0  0  0  0
  -22.1326  -14.2744   21.2593 O   0  0  0  0  0  0  0  0  0  0  0  0
  -25.4438  -21.4945   27.0327 O   0  0  0  0  0  0  0  0  0  0  0  0
  -23.6201  -28.4933   22.3603 O   0  0  0  0  0  0  0  0  0  0  0  0
  -24.3470  -31.9047   23.7846 O   0  0  0  0  0  0  0  0  0  0  0  0
  -27.8528  -30.2824   26.5410 O   0  0  0  0  0  0  0  0  0  0  0  0
  -31.0238  -16.8611   20.9145 O   0  0  0  0  0  0  0  0  0  0  0  0
  -23.0621   -6.5469   21.3545 O   0  0  0  0  0  0  0  0  0  0  0  0
  -24.9765  -24.1394   27.1256 O   0  0  0  0  0  0  0  0  0  1  0  0
  -19.8723   -5.4204   25.7087 F   0  0  0  0  0  0  0  0  0  0  0  0
  -23.8495   -4.6926   23.2476 F   0  0  0  0  0  0  0  0  0  0  0  0
  1  2  1  0  0  0  0
  1  7  2  0  0  0  0
  2  8  2  0  0  0  0
  3  6  2  0  0  0  0
  3 10  1  0  0  0  0
  4 11  2  0  0  0  0
  4 18  1  0  0  0  0
  5 12  1  0  0  0  0
  5 18  2  0  0  0  0
  6 19  1  0  0  0  0
  7 21  1  0  0  0  0
  8 23  1  0  0  0  0
  9 13  2  0  0  0  0
  9 22  1  0  0  0  0
 10 26  2  0  0  0  0
 11 27  1  0  0  0  0
 12 27  2  0  0  0  0
 13 28  1  0  0  0  0
 14 15  2  0  0  0  0
 14 29  1  0  0  0  0
 15 30  1  0  0  0  0
 16 24  1  0  0  0  0
 16 28  2  0  0  0  0
 17 30  2  0  0  0  0
 17 31  1  0  0  0  0
 18 32  1  0  0  0  0
 19 25  2  0  0  0  0
 19 34  1  0  0  0  0
 20 32  1  0  0  0  0
 20 33  2  0  0  0  0
 20 36  1  0  0  0  0
 21 23  2  0  0  0  0
 21 42  1  0  0  0  0
 22 24  2  0  0  0  0
 22 43  1  0  0  0  0
 23 51  1  0  0  0  0
 24 44  1  0  0  0  0
 25 26  1  0  0  0  0
 25 54  1  0  0  0  0
 26 70  1  0  0  0  0
 27 80  1  0  0  0  0
 28 81  1  0  0  0  0
 29 31  2  0  0  0  0
 29 80  1  0  0  0  0
 30 82  1  0  0  0  0
 31 83  1  0  0  0  0
 32 64  2  0  0  0  0
 33 65  1  0  0  0  0
 33 68  1  0  0  0  0
 34 35  2  0  0  0  0
 35 37  1  0  0  0  0
 36 69  1  0  0  0  0
 36 74  2  0  0  0  0
 37 60  1  0  0  0  0
 37 75  2  0  0  0  0
 38 52  1  0  0  0  0
 38 71  1  0  0  0  0
 38 76  2  0  0  0  0
 39 61  1  0  0  0  0
 39 66  1  0  0  0  0
 39 77  2  0  0  0  0
 40 62  1  0  0  0  0
 40 72  1  0  0  0  0
 40 78  2  0  0  0  0
 41 67  1  0  0  0  0
 41 70  1  0  0  0  0
 41 79  2  0  0  0  0
 42 45  1  0  0  0  0
 43 52  1  0  0  0  0
 44 66  1  0  0  0  0
 45 47  1  0  0  0  0
 46 48  1  0  0  0  0
 46 49  1  0  0  0  0
 47 51  1  0  0  0  0
 48 53  1  0  0  0  0
 49 67  1  0  0  0  0
 50 53  1  0  0  0  0
 50 67  1  0  0  0  0
 51 71  1  0  0  0  0
 52 66  1  0  0  0  0
 53 65  1  0  0  0  0
 55 62  1  0  0  0  0
 56 63  1  0  0  0  0
 57 63  1  0  0  0  0
 58 63  1  0  0  0  0
 59 73  1  0  0  0  0
 60 81  1  0  0  0  0
 61 63  1  0  0  0  0
 61 72  1  0  0  0  0
 62 73  1  0  0  0  0
 64 65  1  0  0  0  0
M  CHG  1  73   1
M  ISO  4  41 100  60 101  70 100  81 101
M  END
> <Batch ID>
0055

> <Smiles>
CNC(C)C(=O)NC(C(=O)N1Cc2cc([101O:1][101CH2:1]C(=O)C=Cc3cccc([100NH:0][100C:0](=O)N4CCCC(n5nc(-c6ccc(Oc7ccc(F)cc7F)cc6)c(C(N)=O)c5N)C4)c3C)ccc2CC1C(=O)NC1CCCc2ccccc21)C(C)(C)C

> <Shape>
0.286

> <Color>
0.148

> <Negative vol penalty>
0.000

$$$$

  -OEChem-04042322493D

 85 93  0     1  0  0  0  0  0999 V2000
  -16.5491  -29.7119   23.8975 C   0  0  0  0  0  0  0  0  0  0  0  0
  -16.9101  -28.4120   24.2370 C   0  0  0  0  0  0  0  0  0  0  0  0
  -23.8808  -18.3320   26.9441 C   0  0  0  0  0  0  0  0  0  0  0  0
  -28.9612  -23.2510   18.6906 C   0  0  0  0  0  0  0  0  0  0  0  0
  -28.7007  -23.2300   21.0925 C   0  0  0  0  0  0  0  0  0  0  0  0
  -17.3786  -30.4721   23.0742 C   0  0  0  0  0  0  0  0  0  0  0  0
  -18.1005  -27.8711   23.7524 C   0  0  0  0  0  0  0  0  0  0  0  0
  -23.3247  -23.3280   25.5920 C   0  0  0  0  0  0  0  0  0  0  0  0
  -23.4444  -17.7247   25.7667 C   0  0  0  0  0  0  0  0  0  0  0  0
  -25.2377  -18.3319   27.2676 C   0  0  0  0  0  0  0  0  0  0  0  0
  -28.9184  -24.6452   18.6982 C   0  0  0  0  0  0  0  0  0  0  0  0
  -28.6579  -24.6242   21.1000 C   0  0  0  0  0  0  0  0  0  0  0  0
  -23.9995  -22.2089   25.1061 C   0  0  0  0  0  0  0  0  0  0  0  0
  -29.2399  -28.2204   18.1244 C   0  0  0  0  0  0  0  0  0  0  0  0
  -30.1809  -28.9023   17.3529 C   0  0  0  0  0  0  0  0  0  0  0  0
  -25.3924  -23.6427   23.7558 C   0  0  0  0  0  0  0  0  0  0  0  0
  -25.7218  -17.1169   25.2362 C   0  0  0  0  0  0  0  0  0  0  0  0
  -31.9634  -27.8814   18.6248 C   0  0  0  0  0  0  0  0  0  0  0  0
  -28.8522  -22.5434   19.8878 C   0  0  0  0  0  0  0  0  0  0  0  0
  -30.0366  -20.2866   19.9973 C   0  0  0  0  0  0  0  0  0  0  0  0
  -18.5845  -29.9436   22.5871 C   0  0  0  0  0  0  0  0  0  0  0  0
  -23.6720  -24.6142   25.1544 C   0  0  0  0  0  0  0  0  0  0  0  0
  -18.9463  -28.6245   22.9207 C   0  0  0  0  0  0  0  0  0  0  0  0
  -24.7222  -24.7766   24.2396 C   0  0  0  0  0  0  0  0  0  0  0  0
  -24.3649  -17.1171   24.9128 C   0  0  0  0  0  0  0  0  0  0  0  0
  -26.1582  -17.7242   26.4137 C   0  0  0  0  0  0  0  0  0  0  0  0
  -28.7668  -25.3318   19.9029 C   0  0  0  0  0  0  0  0  0  0  0  0
  -25.0316  -22.3659   24.1856 C   0  0  0  0  0  0  0  0  0  0  0  0
  -29.6607  -27.3691   19.1461 C   0  0  0  0  0  0  0  0  0  0  0  0
  -31.5427  -28.7328   17.6031 C   0  0  0  0  0  0  0  0  0  0  0  0
  -31.0224  -27.1995   19.3963 C   0  0  0  0  0  0  0  0  0  0  0  0
  -28.8958  -21.1032   19.8806 C   0  0  0  0  0  0  0  0  0  0  0  0
  -29.5488  -19.0042   19.9340 C   0  0  0  0  0  0  0  0  0  0  0  0
  -26.7968  -20.8447   24.3881 C   0  0  0  0  0  0  0  0  0  1  0  0
  -27.5121  -19.7877   24.0040 C   0  0  0  0  0  0  0  0  0  0  0  0
  -31.4140  -20.6544   20.1495 C   0  0  0  0  0  0  0  0  0  0  0  0
  -22.1634  -26.9361   23.5936 C   0  0  0  0  0  0  0  0  0  0  0  0
  -24.8736  -28.5983   24.2375 C   0  0  0  0  0  0  0  0  0  0  0  0
  -28.2076  -28.5350   24.9636 C   0  0  0  0  0  0  0  0  0  0  0  0
  -24.2094  -16.6058   21.1950 C   0  0  0  0  0  0  0  0  0  0  0  0
  -19.4254  -30.7869   21.6617 C   0  0  0  0  0  0  0  0  0  0  0  0
  -22.9521  -25.8130   25.7084 C   0  0  0  0  0  0  0  0  0  0  0  0
  -25.1472  -26.1374   23.7535 C   0  0  0  0  0  0  0  0  0  0  0  0
  -20.8522  -30.2705   21.4950 C   0  0  0  0  0  0  0  0  0  0  0  0
  -25.9441  -16.4560   18.0893 C   0  0  0  0  0  0  0  0  0  0  0  0
  -20.8496  -28.7656   21.2464 C   0  0  0  0  0  0  0  0  0  0  0  0
  -27.0002  -17.5563   18.2067 C   0  0  0  0  0  0  0  0  0  0  0  0
  -24.6353  -16.8551   18.7675 C   0  0  0  0  0  0  0  0  0  0  0  0
  -25.8273  -18.3833   20.2898 C   0  0  0  0  0  0  0  0  0  0  0  0
  -20.2417  -28.0111   22.4350 C   0  0  1  0  0  0  0  0  0  0  0  0
  -23.0477  -27.0380   24.8041 C   0  0  1  0  0  0  0  0  0  0  0  0
  -27.1829  -18.0043   19.6693 C   0  0  2  0  0  0  0  0  0  0  0  0
  -30.1584  -30.0529   25.3970 C   0  0  0  0  0  0  0  0  0  0  0  0
  -25.0613  -29.2051   21.2531 C   0  0  0  0  0  0  0  0  0  0  0  0
  -27.4478  -29.8726   21.6099 C   0  0  0  0  0  0  0  0  0  0  0  0
  -25.6190  -31.1320   22.7465 C   0  0  0  0  0  0  0  0  0  0  0  0
  -28.5976  -27.4470   27.6881 C   0  0  0  0  0  0  0  0  0  0  0  0
  -23.8977  -16.4692   23.6533 C   0  0  0  0  0  0  0  0  0  0  0  0
  -27.6185  -17.7235   26.7623 C   0  0  0  0  0  0  0  0  0  0  0  0
  -26.1954  -28.8008   23.5370 C   0  0  1  0  0  0  0  0  0  0  0  0
  -29.0220  -29.2580   26.0212 C   0  0  2  0  0  0  0  0  0  0  0  0
  -26.0718  -29.7267   22.2941 C   0  0  0  0  0  0  0  0  0  0  0  0
  -27.7683  -20.3987   19.7526 N   0  0  0  0  0  0  0  0  0  0  0  0
  -28.1982  -19.1259   19.7885 N   0  0  0  0  0  0  0  0  0  0  0  0
  -24.4086  -27.2781   24.3198 N   0  0  0  0  0  0  0  0  0  0  0  0
  -24.8779  -17.2678   20.1519 N   0  0  0  0  0  0  0  0  0  0  0  0
  -30.1478  -17.7957   19.9891 N   0  0  0  0  0  0  0  0  0  0  0  0
  -31.7406  -22.0166   20.1961 N   0  0  0  0  0  0  0  0  0  0  0  0
  -21.1970  -27.9210   23.5184 N   0  0  0  0  0  0  0  0  0  0  0  0
  -27.1254  -29.2839   24.5520 N   0  0  0  0  0  0  0  0  0  0  0  0
  -24.5013  -17.0549   22.4771 N   0  0  0  0  0  0  0  0  0  0  0  0
  -28.2421  -19.0416   26.5320 N   0  0  0  0  0  0  0  0  0  0  0  0
  -29.6052  -28.2809   26.9836 N   0  3  0  0  0  0  0  0  0  0  0  0
  -32.3298  -19.8006   20.2249 O   0  0  0  0  0  0  0  0  0  0  0  0
  -22.3454  -26.0320   22.7867 O   0  0  0  0  0  0  0  0  0  0  0  0
  -24.2791  -29.5747   24.7011 O   0  0  0  0  0  0  0  0  0  0  0  0
  -28.5039  -27.4193   24.5420 O   0  0  0  0  0  0  0  0  0  0  0  0
  -23.4157  -15.6794   20.9985 O   0  0  0  0  0  0  0  0  0  0  0  0
  -29.4522  -18.1337   24.4477 O   0  0  0  0  0  0  0  0  0  0  0  0
  -29.7258  -20.5465   25.0858 O   0  0  0  0  0  0  0  0  0  0  0  0
  -28.7252  -26.6922   19.9106 O   0  0  0  0  0  0  0  0  0  0  0  0
  -25.6915  -21.2753   23.7093 O   0  0  0  0  0  0  0  0  0  1  0  0
  -32.4462  -29.3864   16.8612 F   0  0  0  0  0  0  0  0  0  0  0  0
  -31.4327  -26.3820   20.3757 F   0  0  0  0  0  0  0  0  0  0  0  0
  -28.8761  -19.3695   24.9616 S   0  0  0  0  0  0  0  0  0  0  0  0
  1  2  1  0  0  0  0
  1  6  2  0  0  0  0
  2  7  2  0  0  0  0
  3  9  1  0  0  0  0
  3 10  2  0  0  0  0
  4 11  2  0  0  0  0
  4 19  1  0  0  0  0
  5 12  1  0  0  0  0
  5 19  2  0  0  0  0
  6 21  1  0  0  0  0
  7 23  1  0  0  0  0
  8 13  2  0  0  0  0
  8 22  1  0  0  0  0
  9 25  2  0  0  0  0
 10 26  1  0  0  0  0
 11 27  1  0  0  0  0
 12 27  2  0  0  0  0
 13 28  1  0  0  0  0
 14 15  2  0  0  0  0
 14 29  1  0  0  0  0
 15 30  1  0  0  0  0
 16 24  1  0  0  0  0
 16 28  2  0  0  0  0
 17 25  1  0  0  0  0
 17 26  2  0  0  0  0
 18 30  2  0  0  0  0
 18 31  1  0  0  0  0
 19 32  1  0  0  0  0
 20 32  1  0  0  0  0
 20 33  2  0  0  0  0
 20 36  1  0  0  0  0
 21 23  2  0  0  0  0
 21 41  1  0  0  0  0
 22 24  2  0  0  0  0
 22 42  1  0  0  0  0
 23 50  1  0  0  0  0
 24 43  1  0  0  0  0
 25 58  1  0  0  0  0
 26 59  1  0  0  0  0
 27 81  1  0  0  0  0
 28 82  1  0  0  0  0
 29 31  2  0  0  0  0
 29 81  1  0  0  0  0
 30 83  1  0  0  0  0
 31 84  1  0  0  0  0
 32 63  2  0  0  0  0
 33 64  1  0  0  0  0
 33 67  1  0  0  0  0
 34 35  2  0  0  0  0
 34 82  1  0  0  0  0
 35 85  1  0  0  0  0
 36 68  1  0  0  0  0
 36 74  2  0  0  0  0
 37 51  1  0  0  0  0
 37 69  1  0  0  0  0
 37 75  2  0  0  0  0
 38 60  1  0  0  0  0
 38 65  1  0  0  0  0
 38 76  2  0  0  0  0
 39 61  1  0  0  0  0
 39 70  1  0  0  0  0
 39 77  2  0  0  0  0
 40 66  1  0  0  0  0
 40 71  1  0  0  0  0
 40 78  2  0  0  0  0
 41 44  1  0  0  0  0
 42 51  1  0  0  0  0
 43 65  1  0  0  0  0
 44 46  1  0  0  0  0
 45 47  1  0  0  0  0
 45 48  1  0  0  0  0
 46 50  1  0  0  0  0
 47 52  1  0  0  0  0
 48 66  1  0  0  0  0
 49 52  1  0  0  0  0
 49 66  1  0  0  0  0
 50 69  1  0  0  0  0
 51 65  1  0  0  0  0
 52 64  1  0  0  0  0
 53 61  1  0  0  0  0
 54 62  1  0  0  0  0
 55 62  1  0  0  0  0
 56 62  1  0  0  0  0
 57 73  1  0  0  0  0
 58 71  1  0  0  0  0
 59 72  1  0  0  0  0
 60 62  1  0  0  0  0
 60 70  1  0  0  0  0
 61 73  1  0  0  0  0
 63 64  1  0  0  0  0
 72 85  1  0  0  0  0
 79 85  2  0  0  0  0
 80 85  2  0  0  0  0
M  CHG  1  73   1
M  ISO  4  34 101  40 100  71 100  82 101
M  END
> <Batch ID>
0055

> <Smiles>
CNC(C)C(=O)NC(C(=O)N1Cc2cc([101O:1][101CH:1]=CS(=O)(=O)NCc3cccc(C[100NH:0][100C:0](=O)N4CCCC(n5nc(-c6ccc(Oc7ccc(F)cc7F)cc6)c(C(N)=O)c5N)C4)c3)ccc2CC1C(=O)NC1CCCc2ccccc21)C(C)(C)C

> <Shape>
0.180

> <Color>
0.057

> <Negative vol penalty>
0.000

$$$$

  -OEChem-04042322493D

 87 95  0     1  0  0  0  0  0999 V2000
  -27.6260  -23.3064   18.9566 C   0  0  0  0  0  0  0  0  0  0  0  0
  -26.4128  -23.8022   19.4232 C   0  0  0  0  0  0  0  0  0  0  0  0
  -28.1761  -14.5960   21.1129 C   0  0  0  0  0  0  0  0  0  0  0  0
  -26.1867  -15.4623   20.0504 C   0  0  0  0  0  0  0  0  0  0  0  0
  -28.8222  -23.7569   19.5134 C   0  0  0  0  0  0  0  0  0  0  0  0
  -26.3951  -24.7479   20.4478 C   0  0  0  0  0  0  0  0  0  0  0  0
  -23.1801  -28.5505   19.5262 C   0  0  0  0  0  0  0  0  0  0  0  0
  -27.6236  -13.3152   21.1032 C   0  0  0  0  0  0  0  0  0  0  0  0
  -25.6342  -14.1815   20.0405 C   0  0  0  0  0  0  0  0  0  0  0  0
  -21.8246  -28.3042   19.7399 C   0  0  0  0  0  0  0  0  0  0  0  0
  -25.9263  -11.3587   18.2057 C   0  0  0  0  0  0  0  0  0  0  0  0
  -25.3065  -10.9308   17.0316 C   0  0  0  0  0  0  0  0  0  0  0  0
  -21.8829  -23.3017   22.0252 C   0  0  0  0  0  0  0  0  0  0  0  0
  -21.9625  -29.4277   21.8701 C   0  0  0  0  0  0  0  0  0  0  0  0
  -23.6218  -23.5913   24.1874 C   0  0  0  0  0  0  0  0  0  0  0  0
  -23.2278  -10.6512   18.2308 C   0  0  0  0  0  0  0  0  0  0  0  0
  -27.4576  -15.6695   20.5866 C   0  0  0  0  0  0  0  0  0  0  0  0
  -21.4623  -23.9727   23.1734 C   0  0  0  0  0  0  0  0  0  0  0  0
  -28.8201  -17.5849   19.5954 C   0  0  0  0  0  0  0  0  0  0  0  0
  -28.8196  -24.7158   20.5386 C   0  0  0  0  0  0  0  0  0  0  0  0
  -23.9407  -29.2289   20.4893 C   0  0  0  0  0  0  0  0  0  0  0  0
  -27.5924  -25.2106   21.0197 C   0  0  0  0  0  0  0  0  0  0  0  0
  -23.3269  -29.6837   21.6650 C   0  0  0  0  0  0  0  0  0  0  0  0
  -22.3317  -24.1175   24.2545 C   0  0  0  0  0  0  0  0  0  0  0  0
  -24.0424  -22.9202   23.0392 C   0  0  0  0  0  0  0  0  0  0  0  0
  -26.3527  -13.1080   20.5669 C   0  0  0  0  0  0  0  0  0  0  0  0
  -21.2162  -28.7403   20.9133 C   0  0  0  0  0  0  0  0  0  0  0  0
  -25.1968  -11.4327   19.3924 C   0  0  0  0  0  0  0  0  0  0  0  0
  -23.9573  -10.5772   17.0442 C   0  0  0  0  0  0  0  0  0  0  0  0
  -23.1729  -22.7753   21.9581 C   0  0  0  0  0  0  0  0  0  0  0  0
  -23.8476  -11.0790   19.4049 C   0  0  0  0  0  0  0  0  0  0  0  0
  -28.0275  -16.9928   20.5969 C   0  0  0  0  0  0  0  0  0  0  0  0
  -29.1060  -18.8379   20.0798 C   0  0  0  0  0  0  0  0  0  0  0  0
  -20.0920  -24.5208   23.2237 C   0  0  0  0  0  0  0  0  0  0  0  0
  -29.2586  -17.0501   18.3394 C   0  0  0  0  0  0  0  0  0  0  0  0
  -26.4643  -28.4966   22.2779 C   0  0  0  0  0  0  0  0  0  0  0  0
  -26.2833  -31.6231   23.1232 C   0  0  0  0  0  0  0  0  0  0  0  0
  -24.3716  -34.4320   23.4426 C   0  0  0  0  0  0  0  0  0  0  0  0
  -26.3392  -22.4445   23.9582 C   0  0  0  0  0  0  0  0  0  0  0  0
  -30.1361  -25.1373   21.1418 C   0  0  0  0  0  0  0  0  0  0  0  0
  -25.3957  -29.5101   20.2317 C   0  0  0  0  0  0  0  0  0  0  0  0
  -24.0946  -30.4342   22.7213 C   0  0  0  0  0  0  0  0  0  0  0  0
  -30.0457  -26.4184   21.9669 C   0  0  0  0  0  0  0  0  0  0  0  0
  -29.6751  -21.2225   24.1937 C   0  0  0  0  0  0  0  0  0  0  0  0
  -28.8424  -26.3668   22.9029 C   0  0  0  0  0  0  0  0  0  0  0  0
  -29.7050  -20.0569   23.2025 C   0  0  0  0  0  0  0  0  0  0  0  0
  -28.3338  -21.3159   24.9189 C   0  0  0  0  0  0  0  0  0  0  0  0
  -27.1859  -20.1913   23.0516 C   0  0  0  0  0  0  0  0  0  0  0  0
  -27.5330  -26.2557   22.1126 C   0  0  1  0  0  0  0  0  0  0  0  0
  -26.1916  -29.7586   21.5093 C   0  0  1  0  0  0  0  0  0  0  0  0
  -28.4941  -20.0961   22.2497 C   0  0  2  0  0  0  0  0  0  0  0  0
  -21.9044  -24.8326   25.4944 C   0  0  0  0  0  0  0  0  0  0  0  0
  -24.4933  -36.8225   24.1964 C   0  0  0  0  0  0  0  0  0  0  0  0
  -26.2466  -30.7049   26.0328 C   0  0  0  0  0  0  0  0  0  0  0  0
  -25.4239  -32.9825   26.6684 C   0  0  0  0  0  0  0  0  0  0  0  0
  -27.6594  -32.7211   25.5928 C   0  0  0  0  0  0  0  0  0  0  0  0
  -17.5881  -25.5236   20.6938 C   0  0  0  0  0  0  0  0  0  0  0  0
  -17.0492  -27.8650   21.3895 C   0  0  0  0  0  0  0  0  0  0  0  0
  -23.6491  -35.4377   20.7546 C   0  0  0  0  0  0  0  0  0  0  0  0
  -18.5805  -26.4258   22.7963 C   0  0  0  0  0  0  0  0  0  0  0  0
  -19.3438  -27.3242   20.5329 C   0  0  0  0  0  0  0  0  0  1  0  0
  -25.5710  -32.3986   24.2049 C   0  0  1  0  0  0  0  0  0  0  0  0
  -24.6139  -35.8691   23.0178 C   0  0  2  0  0  0  0  0  0  0  0  0
  -26.2109  -32.1860   25.6059 C   0  0  0  0  0  0  0  0  0  0  0  0
  -18.1533  -26.7932   21.3604 C   0  0  0  0  0  0  0  0  0  0  0  0
  -27.8232  -17.8030   21.6390 N   0  0  0  0  0  0  0  0  0  0  0  0
  -28.4916  -18.9170   21.2949 N   0  0  0  0  0  0  0  0  0  0  0  0
  -25.5160  -30.6792   22.4260 N   0  0  0  0  0  0  0  0  0  0  0  0
  -27.2336  -21.3533   23.9530 N   0  0  0  0  0  0  0  0  0  0  0  0
  -29.8206  -19.8688   19.5807 N   0  0  0  0  0  0  0  0  0  0  0  0
  -19.1200  -23.7398   23.6953 N   0  0  0  0  0  0  0  0  0  0  0  0
  -28.8742  -15.7463   17.9977 N   0  0  0  0  0  0  0  0  0  0  0  0
  -25.3535  -22.3868   22.9736 N   0  0  0  0  0  0  0  0  0  0  0  0
  -27.1635  -27.5427   21.5633 N   0  0  0  0  0  0  0  0  0  0  0  0
  -25.5484  -33.7888   23.7631 N   0  0  0  0  0  0  0  0  0  0  0  0
  -19.8918  -25.7715   22.7924 N   0  3  0  0  0  0  0  0  0  0  0  0
  -23.6244  -36.2765   21.9806 N   0  3  0  0  0  0  0  0  0  0  0  0
  -29.9838  -17.7029   17.5511 O   0  0  0  0  0  0  0  0  0  0  0  0
  -26.0709  -28.3963   23.4341 O   0  0  0  0  0  0  0  0  0  0  0  0
  -27.4748  -31.8516   22.9001 O   0  0  0  0  0  0  0  0  0  0  0  0
  -23.2501  -33.9313   23.4894 O   0  0  0  0  0  0  0  0  0  0  0  0
  -26.4566  -23.3760   24.7586 O   0  0  0  0  0  0  0  0  0  0  0  0
  -25.8134  -11.8584   20.5570 O   0  0  0  0  0  0  0  0  0  0  0  0
  -19.8934  -28.5006   21.1247 O   0  0  0  0  0  0  0  0  0  1  0  0
  -23.3619  -10.1678   15.9163 F   0  0  0  0  0  0  0  0  0  0  0  0
  -23.5663  -22.1316   20.8499 F   0  0  0  0  0  0  0  0  0  0  0  0
  -23.1414  -11.1492   20.5416 F   0  0  0  0  0  0  0  0  0  0  0  0
  1  2  1  0  0  0  0
  1  5  2  0  0  0  0
  2  6  2  0  0  0  0
  3  8  2  0  0  0  0
  3 17  1  0  0  0  0
  4  9  1  0  0  0  0
  4 17  2  0  0  0  0
  5 20  1  0  0  0  0
  6 22  1  0  0  0  0
  7 10  2  0  0  0  0
  7 21  1  0  0  0  0
  8 26  1  0  0  0  0
  9 26  2  0  0  0  0
 10 27  1  0  0  0  0
 11 12  2  0  0  0  0
 11 28  1  0  0  0  0
 12 29  1  0  0  0  0
 13 18  1  0  0  0  0
 13 30  2  0  0  0  0
 14 23  1  0  0  0  0
 14 27  2  0  0  0  0
 15 24  1  0  0  0  0
 15 25  2  0  0  0  0
 16 29  2  0  0  0  0
 16 31  1  0  0  0  0
 17 32  1  0  0  0  0
 18 24  2  0  0  0  0
 18 34  1  0  0  0  0
 19 32  1  0  0  0  0
 19 33  2  0  0  0  0
 19 35  1  0  0  0  0
 20 22  2  0  0  0  0
 20 40  1  0  0  0  0
 21 23  2  0  0  0  0
 21 41  1  0  0  0  0
 22 49  1  0  0  0  0
 23 42  1  0  0  0  0
 24 52  1  0  0  0  0
 25 30  1  0  0  0  0
 25 73  1  0  0  0  0
 26 83  1  0  0  0  0
 27 84  1  0  0  0  0
 28 31  2  0  0  0  0
 28 83  1  0  0  0  0
 29 85  1  0  0  0  0
 30 86  1  0  0  0  0
 31 87  1  0  0  0  0
 32 66  2  0  0  0  0
 33 67  1  0  0  0  0
 33 70  1  0  0  0  0
 34 71  1  0  0  0  0
 34 76  2  0  0  0  0
 35 72  1  0  0  0  0
 35 78  2  0  0  0  0
 36 50  1  0  0  0  0
 36 74  1  0  0  0  0
 36 79  2  0  0  0  0
 37 62  1  0  0  0  0
 37 68  1  0  0  0  0
 37 80  2  0  0  0  0
 38 63  1  0  0  0  0
 38 75  1  0  0  0  0
 38 81  2  0  0  0  0
 39 69  1  0  0  0  0
 39 73  1  0  0  0  0
 39 82  2  0  0  0  0
 40 43  1  0  0  0  0
 41 50  1  0  0  0  0
 42 68  1  0  0  0  0
 43 45  1  0  0  0  0
 44 46  1  0  0  0  0
 44 47  1  0  0  0  0
 45 49  1  0  0  0  0
 46 51  1  0  0  0  0
 47 69  1  0  0  0  0
 48 51  1  0  0  0  0
 48 69  1  0  0  0  0
 49 74  1  0  0  0  0
 50 68  1  0  0  0  0
 51 67  1  0  0  0  0
 53 63  1  0  0  0  0
 54 64  1  0  0  0  0
 55 64  1  0  0  0  0
 56 64  1  0  0  0  0
 57 65  1  0  0  0  0
 58 65  1  0  0  0  0
 59 77  1  0  0  0  0
 60 65  1  0  0  0  0
 60 76  1  0  0  0  0
 61 65  1  0  0  0  0
 61 84  1  0  0  0  0
 62 64  1  0  0  0  0
 62 75  1  0  0  0  0
 63 77  1  0  0  0  0
 66 67  1  0  0  0  0
M  CHG  2  76   1  77   1
M  ISO  4  39 100  61 101  73 100  84 101
M  END
> <Batch ID>
0055

> <Smiles>
CNC(C)C(=O)NC(C(=O)N1Cc2cc([101O:1][101CH2:1]C(C)(C)CNC(=N)c3cc(F)c([100NH:0][100C:0](=O)N4CCCC(n5nc(-c6ccc(Oc7ccc(F)cc7F)cc6)c(C(N)=O)c5N)C4)cc3C)ccc2CC1C(=O)NC1CCCc2ccccc21)C(C)(C)C

> <Shape>
0.267

> <Color>
0.063

> <Negative vol penalty>
0.000

$$$$

  -OEChem-04042322493D

 87 95  0     1  0  0  0  0  0999 V2000
  -18.4109  -25.0881   24.7442 C   0  0  0  0  0  0  0  0  0  0  0  0
  -19.6572  -24.7752   24.2110 C   0  0  0  0  0  0  0  0  0  0  0  0
  -26.5553   -8.9397   20.9050 C   0  0  0  0  0  0  0  0  0  0  0  0
  -27.8055  -10.4999   22.2614 C   0  0  0  0  0  0  0  0  0  0  0  0
  -29.0246  -19.4261   20.6410 C   0  0  0  0  0  0  0  0  0  0  0  0
  -17.8184  -26.3165   24.4544 C   0  0  0  0  0  0  0  0  0  0  0  0
  -20.3112  -25.6901   23.3866 C   0  0  0  0  0  0  0  0  0  0  0  0
  -26.3479  -26.6532   23.0178 C   0  0  0  0  0  0  0  0  0  0  0  0
  -28.0520  -18.4365   20.4983 C   0  0  0  0  0  0  0  0  0  0  0  0
  -27.5481   -7.9787   21.0954 C   0  0  0  0  0  0  0  0  0  0  0  0
  -28.7984   -9.5388   22.4518 C   0  0  0  0  0  0  0  0  0  0  0  0
  -27.3169  -26.2014   22.1230 C   0  0  0  0  0  0  0  0  0  0  0  0
  -28.4881   -5.8141   23.5169 C   0  0  0  0  0  0  0  0  0  0  0  0
  -28.0828   -4.5166   23.8300 C   0  0  0  0  0  0  0  0  0  0  0  0
  -27.0974  -28.2461   20.8620 C   0  0  0  0  0  0  0  0  0  0  0  0
  -27.7678  -19.0503   18.1789 C   0  0  0  0  0  0  0  0  0  0  0  0
  -29.1740   -3.6949   21.8372 C   0  0  0  0  0  0  0  0  0  0  0  0
  -26.6840  -10.2004   21.4880 C   0  0  0  0  0  0  0  0  0  0  0  0
  -29.3687  -20.2279   19.5526 C   0  0  0  0  0  0  0  0  0  0  0  0
  -24.5210  -11.4109   22.0909 C   0  0  0  0  0  0  0  0  0  0  0  0
  -18.4699  -27.2508   23.6339 C   0  0  0  0  0  0  0  0  0  0  0  0
  -25.7375  -27.9024   22.8349 C   0  0  0  0  0  0  0  0  0  0  0  0
  -19.7263  -26.9316   23.0844 C   0  0  0  0  0  0  0  0  0  0  0  0
  -26.1228  -28.7126   21.7573 C   0  0  0  0  0  0  0  0  0  0  0  0
  -28.7403  -20.0399   18.3216 C   0  0  0  0  0  0  0  0  0  0  0  0
  -27.4236  -18.2486   19.2673 C   0  0  0  0  0  0  0  0  0  0  0  0
  -28.6696   -8.2782   21.8688 C   0  0  0  0  0  0  0  0  0  0  0  0
  -27.6897  -26.9966   21.0433 C   0  0  0  0  0  0  0  0  0  0  0  0
  -29.2362   -6.0520   22.3639 C   0  0  0  0  0  0  0  0  0  0  0  0
  -28.4258   -3.4571   22.9902 C   0  0  0  0  0  0  0  0  0  0  0  0
  -29.5793   -4.9924   21.5241 C   0  0  0  0  0  0  0  0  0  0  0  0
  -25.6591  -11.1938   21.2913 C   0  0  0  0  0  0  0  0  0  0  0  0
  -23.8711  -12.4589   21.4859 C   0  0  0  0  0  0  0  0  0  0  0  0
  -30.4015  -21.2692   19.7251 C   0  0  0  0  0  0  0  0  0  0  0  0
  -24.0898  -10.7266   23.2747 C   0  0  0  0  0  0  0  0  0  0  0  0
  -22.7623  -28.8895   22.3085 C   0  0  0  0  0  0  0  0  0  0  0  0
  -29.7002  -24.9935   17.9498 C   0  0  0  0  0  0  0  0  0  0  0  0
  -24.0920  -31.8286   22.6488 C   0  0  0  0  0  0  0  0  0  0  0  0
  -26.8878  -33.7794   22.4921 C   0  0  0  0  0  0  0  0  0  0  0  0
  -25.7170  -16.9246   17.9709 C   0  0  0  0  0  0  0  0  0  0  0  0
  -17.7687  -28.5464   23.3105 C   0  0  0  0  0  0  0  0  0  0  0  0
  -24.7132  -28.3868   23.8241 C   0  0  0  0  0  0  0  0  0  0  0  0
  -25.5124  -30.0703   21.5280 C   0  0  0  0  0  0  0  0  0  0  0  0
  -18.6953  -29.6125   22.7318 C   0  0  0  0  0  0  0  0  0  0  0  0
  -23.2311  -14.4952   17.1990 C   0  0  0  0  0  0  0  0  0  0  0  0
  -19.5807  -29.0160   21.6423 C   0  0  0  0  0  0  0  0  0  0  0  0
  -23.4641  -13.3955   18.2374 C   0  0  0  0  0  0  0  0  0  0  0  0
  -24.5440  -15.1195   16.7296 C   0  0  0  0  0  0  0  0  0  0  0  0
  -25.6525  -14.5055   18.8423 C   0  0  0  0  0  0  0  0  0  0  0  0
  -20.4783  -27.9078   22.2061 C   0  0  1  0  0  0  0  0  0  0  0  0
  -23.7871  -29.4550   23.2506 C   0  0  1  0  0  0  0  0  0  0  0  0
  -24.3552  -13.8914   19.3932 C   0  0  2  0  0  0  0  0  0  0  0  0
  -29.0936  -20.8839   17.1409 C   0  0  0  0  0  0  0  0  0  0  0  0
  -30.6709  -24.7885   16.8137 C   0  0  0  0  0  0  0  0  0  0  0  0
  -27.6544  -36.1507   22.7870 C   0  0  0  0  0  0  0  0  0  0  0  0
  -22.8672  -32.5576   19.9509 C   0  0  0  0  0  0  0  0  0  0  0  0
  -24.4126  -34.5252   19.8595 C   0  0  0  0  0  0  0  0  0  0  0  0
  -22.7194  -34.3550   21.6835 C   0  0  0  0  0  0  0  0  0  0  0  0
  -28.7284  -33.0338   24.6865 C   0  0  0  0  0  0  0  0  0  0  0  0
  -30.9974  -23.6637   19.6377 C   0  0  0  0  0  0  0  0  0  0  0  0
  -29.2031  -25.2724   20.4164 C   0  0  0  0  0  0  0  0  0  1  0  0
  -30.2811  -24.9854   19.3666 C   0  0  2  0  0  0  0  0  0  0  0  0
  -24.7331  -32.8266   21.7150 C   0  0  1  0  0  0  0  0  0  0  0  0
  -27.4591  -34.8006   23.4592 C   0  0  2  0  0  0  0  0  0  0  0  0
  -23.6934  -33.5397   20.8052 C   0  0  0  0  0  0  0  0  0  0  0  0
  -25.7309  -12.0360   20.2571 N   0  0  0  0  0  0  0  0  0  0  0  0
  -24.6297  -12.7925   20.4027 N   0  0  0  0  0  0  0  0  0  0  0  0
  -24.5107  -30.4968   22.5191 N   0  0  0  0  0  0  0  0  0  0  0  0
  -25.3334  -15.5699   17.8780 N   0  0  0  0  0  0  0  0  0  0  0  0
  -22.7305  -13.1182   21.7802 N   0  0  0  0  0  0  0  0  0  0  0  0
  -31.6234  -20.8866   20.0960 N   0  0  0  0  0  0  0  0  0  0  0  0
  -24.8757   -9.6729   23.7611 N   0  0  0  0  0  0  0  0  0  0  0  0
  -26.4365  -17.2424   19.1223 N   0  0  0  0  0  0  0  0  0  0  0  0
  -21.5959  -28.4799   22.9259 N   0  0  0  0  0  0  0  0  0  0  0  0
  -25.5113  -33.7304   22.5553 N   0  0  0  0  0  0  0  0  0  0  0  0
  -30.0613  -22.5443   19.5035 N   0  3  0  0  0  0  0  0  0  0  0  0
  -28.7771  -34.3399   23.9802 N   0  3  0  0  0  0  0  0  0  0  0  0
  -23.0302  -11.0295   23.8740 O   0  0  0  0  0  0  0  0  0  0  0  0
  -23.0107  -28.8307   21.1099 O   0  0  0  0  0  0  0  0  0  0  0  0
  -28.4969  -25.1320   17.7295 O   0  0  0  0  0  0  0  0  0  0  0  0
  -23.2559  -32.2176   23.4680 O   0  0  0  0  0  0  0  0  0  0  0  0
  -27.5921  -33.0964   21.7518 O   0  0  0  0  0  0  0  0  0  0  0  0
  -25.4049  -17.7481   17.1069 O   0  0  0  0  0  0  0  0  0  0  0  0
  -29.6385   -7.3405   22.0549 O   0  0  0  0  0  0  0  0  0  0  0  0
  -28.6348  -26.5576   20.1681 O   0  0  0  0  0  0  0  0  0  1  0  0
  -28.0379   -2.2110   23.2918 F   0  0  0  0  0  0  0  0  0  0  0  0
  -30.2989   -5.2146   20.4157 F   0  0  0  0  0  0  0  0  0  0  0  0
  1  2  1  0  0  0  0
  1  6  2  0  0  0  0
  2  7  2  0  0  0  0
  3 10  2  0  0  0  0
  3 18  1  0  0  0  0
  4 11  1  0  0  0  0
  4 18  2  0  0  0  0
  5  9  2  0  0  0  0
  5 19  1  0  0  0  0
  6 21  1  0  0  0  0
  7 23  1  0  0  0  0
  8 12  2  0  0  0  0
  8 22  1  0  0  0  0
  9 26  1  0  0  0  0
 10 27  1  0  0  0  0
 11 27  2  0  0  0  0
 12 28  1  0  0  0  0
 13 14  2  0  0  0  0
 13 29  1  0  0  0  0
 14 30  1  0  0  0  0
 15 24  1  0  0  0  0
 15 28  2  0  0  0  0
 16 25  1  0  0  0  0
 16 26  2  0  0  0  0
 17 30  2  0  0  0  0
 17 31  1  0  0  0  0
 18 32  1  0  0  0  0
 19 25  2  0  0  0  0
 19 34  1  0  0  0  0
 20 32  1  0  0  0  0
 20 33  2  0  0  0  0
 20 35  1  0  0  0  0
 21 23  2  0  0  0  0
 21 41  1  0  0  0  0
 22 24  2  0  0  0  0
 22 42  1  0  0  0  0
 23 50  1  0  0  0  0
 24 43  1  0  0  0  0
 25 53  1  0  0  0  0
 26 73  1  0  0  0  0
 27 84  1  0  0  0  0
 28 85  1  0  0  0  0
 29 31  2  0  0  0  0
 29 84  1  0  0  0  0
 30 86  1  0  0  0  0
 31 87  1  0  0  0  0
 32 66  2  0  0  0  0
 33 67  1  0  0  0  0
 33 70  1  0  0  0  0
 34 71  1  0  0  0  0
 34 76  2  0  0  0  0
 35 72  1  0  0  0  0
 35 78  2  0  0  0  0
 36 51  1  0  0  0  0
 36 74  1  0  0  0  0
 36 79  2  0  0  0  0
 37 54  1  0  0  0  0
 37 62  1  0  0  0  0
 37 80  2  0  0  0  0
 38 63  1  0  0  0  0
 38 68  1  0  0  0  0
 38 81  2  0  0  0  0
 39 64  1  0  0  0  0
 39 75  1  0  0  0  0
 39 82  2  0  0  0  0
 40 69  1  0  0  0  0
 40 73  1  0  0  0  0
 40 83  2  0  0  0  0
 41 44  1  0  0  0  0
 42 51  1  0  0  0  0
 43 68  1  0  0  0  0
 44 46  1  0  0  0  0
 45 47  1  0  0  0  0
 45 48  1  0  0  0  0
 46 50  1  0  0  0  0
 47 52  1  0  0  0  0
 48 69  1  0  0  0  0
 49 52  1  0  0  0  0
 49 69  1  0  0  0  0
 50 74  1  0  0  0  0
 51 68  1  0  0  0  0
 52 67  1  0  0  0  0
 55 64  1  0  0  0  0
 56 65  1  0  0  0  0
 57 65  1  0  0  0  0
 58 65  1  0  0  0  0
 59 77  1  0  0  0  0
 60 62  1  0  0  0  0
 60 76  1  0  0  0  0
 61 62  1  0  0  0  0
 61 85  1  0  0  0  0
 63 65  1  0  0  0  0
 63 75  1  0  0  0  0
 64 77  1  0  0  0  0
 66 67  1  0  0  0  0
M  CHG  2  76   1  77   1
M  ISO  4  40 100  61 101  73 100  85 101
M  END
> <Batch ID>
0055

> <Smiles>
CNC(C)C(=O)NC(C(=O)N1Cc2cc([101O:1][101CH2:1]C(CNC(=N)c3ccc([100NH:0][100C:0](=O)N4CCCC(n5nc(-c6ccc(Oc7ccc(F)cc7F)cc6)c(C(N)=O)c5N)C4)cc3C)C(C)=O)ccc2CC1C(=O)NC1CCCc2ccccc21)C(C)(C)C

> <Shape>
0.226

> <Color>
0.088

> <Negative vol penalty>
0.000

$$$$

  -OEChem-04042322493D

 90 98  0     1  0  0  0  0  0999 V2000
  -29.1946  -18.1944   18.1999 C   0  0  0  0  0  0  0  0  0  0  0  0
  -28.5281  -19.2311   18.8434 C   0  0  0  0  0  0  0  0  0  0  0  0
  -23.0088   -9.8785   19.9797 C   0  0  0  0  0  0  0  0  0  0  0  0
  -23.7308   -9.9365   22.2845 C   0  0  0  0  0  0  0  0  0  0  0  0
  -30.5856  -18.1306   18.2459 C   0  0  0  0  0  0  0  0  0  0  0  0
  -29.2529  -20.2107   19.5230 C   0  0  0  0  0  0  0  0  0  0  0  0
  -27.3549  -24.9143   22.8996 C   0  0  0  0  0  0  0  0  0  0  0  0
  -22.2471   -8.7409   20.2469 C   0  0  0  0  0  0  0  0  0  0  0  0
  -22.9691   -8.7989   22.5518 C   0  0  0  0  0  0  0  0  0  0  0  0
  -27.0755  -25.1717   24.2410 C   0  0  0  0  0  0  0  0  0  0  0  0
  -23.2293   -5.4603   22.0856 C   0  0  0  0  0  0  0  0  0  0  0  0
  -23.8206   -4.4471   22.8400 C   0  0  0  0  0  0  0  0  0  0  0  0
  -31.8581  -18.3585   24.1550 C   0  0  0  0  0  0  0  0  0  0  0  0
  -29.2856  -26.0981   24.5175 C   0  0  0  0  0  0  0  0  0  0  0  0
  -32.0338  -16.5635   22.5474 C   0  0  0  0  0  0  0  0  0  0  0  0
  -22.0935   -4.6848   24.5127 C   0  0  0  0  0  0  0  0  0  0  0  0
  -23.7507  -10.4762   20.9985 C   0  0  0  0  0  0  0  0  0  0  0  0
  -30.4731  -18.3704   23.9904 C   0  0  0  0  0  0  0  0  0  0  0  0
  -24.1247  -12.9933   20.8189 C   0  0  0  0  0  0  0  0  0  0  0  0
  -31.3264  -19.1035   18.9371 C   0  0  0  0  0  0  0  0  0  0  0  0
  -28.6077  -25.2375   22.3588 C   0  0  0  0  0  0  0  0  0  0  0  0
  -30.6586  -20.1770   19.5607 C   0  0  0  0  0  0  0  0  0  0  0  0
  -29.5775  -25.8461   23.1682 C   0  0  0  0  0  0  0  0  0  0  0  0
  -29.8684  -17.4789   23.1043 C   0  0  0  0  0  0  0  0  0  0  0  0
  -30.6487  -16.5754   22.3828 C   0  0  0  0  0  0  0  0  0  0  0  0
  -22.2273   -8.2011   21.5329 C   0  0  0  0  0  0  0  0  0  0  0  0
  -28.0419  -25.7610   25.0509 C   0  0  0  0  0  0  0  0  0  0  0  0
  -22.0702   -6.0859   22.5447 C   0  0  0  0  0  0  0  0  0  0  0  0
  -23.2526   -4.0593   24.0536 C   0  0  0  0  0  0  0  0  0  0  0  0
  -32.6385  -17.4551   23.4335 C   0  0  0  0  0  0  0  0  0  0  0  0
  -21.5023   -5.6981   23.7582 C   0  0  0  0  0  0  0  0  0  0  0  0
  -24.5381  -11.6510   20.7230 C   0  0  0  0  0  0  0  0  0  0  0  0
  -25.2316  -13.7204   20.4548 C   0  0  0  0  0  0  0  0  0  0  0  0
  -29.6843  -19.3343   24.7641 C   0  0  0  0  0  0  0  0  0  0  0  0
  -28.7965  -20.4418   26.7212 C   0  0  0  0  0  0  0  0  0  0  0  0
  -28.6214  -20.6616   28.0345 C   0  0  0  0  0  0  0  0  0  0  0  0
  -22.8537  -13.5345   21.2030 C   0  0  0  0  0  0  0  0  0  0  0  0
  -29.6290  -19.4052   26.1104 C   0  0  0  0  0  0  0  0  0  0  0  0
  -30.9771  -23.5789   21.0400 C   0  0  0  0  0  0  0  0  0  0  0  0
  -32.2049  -26.5275   20.4736 C   0  0  0  0  0  0  0  0  0  0  0  0
  -28.5698  -23.0187   28.7116 C   0  0  0  0  0  0  0  0  0  0  0  0
  -32.3306  -29.8277   21.3336 C   0  0  0  0  0  0  0  0  0  0  0  0
  -30.7063  -14.7069   20.6941 C   0  0  0  0  0  0  0  0  0  0  0  0
  -32.8305  -18.9903   18.9483 C   0  0  0  0  0  0  0  0  0  0  0  0
  -28.8842  -24.9779   20.9033 C   0  0  0  0  0  0  0  0  0  0  0  0
  -30.9310  -26.2309   22.6311 C   0  0  0  0  0  0  0  0  0  0  0  0
  -33.4805  -19.8138   20.0554 C   0  0  0  0  0  0  0  0  0  0  0  0
  -29.6022  -12.2452   18.3707 C   0  0  0  0  0  0  0  0  0  0  0  0
  -32.9302  -21.2321   20.0395 C   0  0  0  0  0  0  0  0  0  0  0  0
  -28.1523  -11.9816   18.7834 C   0  0  0  0  0  0  0  0  0  0  0  0
  -30.5001  -12.4947   19.5812 C   0  0  0  0  0  0  0  0  0  0  0  0
  -28.5794  -13.2769   20.9110 C   0  0  0  0  0  0  0  0  0  0  0  0
  -31.4244  -21.2369   20.3318 C   0  0  1  0  0  0  0  0  0  0  0  0
  -30.3731  -24.8779   20.5864 C   0  0  1  0  0  0  0  0  0  0  0  0
  -27.6241  -13.0843   19.7219 C   0  0  2  0  0  0  0  0  0  0  0  0
  -28.3812  -17.4864   22.9220 C   0  0  0  0  0  0  0  0  0  0  0  0
  -30.3735  -18.4680   27.0285 C   0  0  0  0  0  0  0  0  0  0  0  0
  -33.4539  -31.9839   20.7122 C   0  0  0  0  0  0  0  0  0  0  0  0
  -34.7597  -25.5917   21.8547 C   0  0  0  0  0  0  0  0  0  0  0  0
  -35.4486  -27.9906   22.0524 C   0  0  0  0  0  0  0  0  0  0  0  0
  -35.1289  -26.9682   19.7996 C   0  0  0  0  0  0  0  0  0  0  0  0
  -29.7502  -31.1142   20.6663 C   0  0  0  0  0  0  0  0  0  0  0  0
  -27.7469  -21.7505   28.5789 C   0  0  0  0  0  0  0  0  0  0  0  0
  -28.3918  -25.4918   28.6246 C   0  0  0  0  0  0  0  0  0  0  0  0
  -28.8721  -25.9781   27.2689 C   0  0  0  0  0  0  0  0  0  1  0  0
  -33.1062  -27.4736   21.2297 C   0  0  1  0  0  0  0  0  0  0  0  0
  -32.2420  -31.0909   20.4964 C   0  0  2  0  0  0  0  0  0  0  0  0
  -34.5861  -26.9971   21.2450 C   0  0  0  0  0  0  0  0  0  0  0  0
  -25.8085  -11.5297   20.3286 N   0  0  0  0  0  0  0  0  0  0  0  0
  -26.2028  -12.8051   20.1734 N   0  0  0  0  0  0  0  0  0  0  0  0
  -31.1556  -25.9510   21.2032 N   0  0  0  0  0  0  0  0  0  0  0  0
  -29.9391  -13.5544   20.4221 N   0  0  0  0  0  0  0  0  0  0  0  0
  -25.4591  -15.0469   20.3508 N   0  0  0  0  0  0  0  0  0  0  0  0
  -21.8256  -12.6462   21.5466 N   0  0  0  0  0  0  0  0  0  0  0  0
  -30.0566  -15.6604   21.4773 N   0  0  0  0  0  0  0  0  0  0  0  0
  -30.9033  -22.5665   20.1025 N   0  0  0  0  0  0  0  0  0  0  0  0
  -27.8181  -24.1746   28.5478 N   0  0  0  0  0  0  0  0  0  0  0  0
  -32.9084  -28.7901   20.6331 N   0  0  0  0  0  0  0  0  0  0  0  0
  -31.0189  -31.8641   20.8531 N   0  3  0  0  0  0  0  0  0  0  0  0
  -22.6313  -14.7688   21.2245 O   0  0  0  0  0  0  0  0  0  0  0  0
  -31.4746  -23.5015   22.1573 O   0  0  0  0  0  0  0  0  0  0  0  0
  -32.4196  -26.3136   19.2779 O   0  0  0  0  0  0  0  0  0  0  0  0
  -29.7791  -22.9934   28.9348 O   0  0  0  0  0  0  0  0  0  0  0  0
  -31.9308  -29.7685   22.4943 O   0  0  0  0  0  0  0  0  0  0  0  0
  -31.8449  -14.8504   20.2413 O   0  0  0  0  0  0  0  0  0  0  0  0
  -21.4840   -7.0912   21.7941 O   0  0  0  0  0  0  0  0  0  0  0  0
  -27.7719  -26.0127   26.3607 O   0  0  0  0  0  0  0  0  0  1  0  0
  -23.8197   -3.0851   24.7773 F   0  0  0  0  0  0  0  0  0  0  0  0
  -33.9685  -17.4431   23.5922 F   0  0  0  0  0  0  0  0  0  0  0  0
  -20.3881   -6.2946   24.2039 F   0  0  0  0  0  0  0  0  0  0  0  0
  1  2  1  0  0  0  0
  1  5  2  0  0  0  0
  2  6  2  0  0  0  0
  3  8  2  0  0  0  0
  3 17  1  0  0  0  0
  4  9  1  0  0  0  0
  4 17  2  0  0  0  0
  5 20  1  0  0  0  0
  6 22  1  0  0  0  0
  7 10  2  0  0  0  0
  7 21  1  0  0  0  0
  8 26  1  0  0  0  0
  9 26  2  0  0  0  0
 10 27  1  0  0  0  0
 11 12  2  0  0  0  0
 11 28  1  0  0  0  0
 12 29  1  0  0  0  0
 13 18  1  0  0  0  0
 13 30  2  0  0  0  0
 14 23  1  0  0  0  0
 14 27  2  0  0  0  0
 15 25  2  0  0  0  0
 15 30  1  0  0  0  0
 16 29  2  0  0  0  0
 16 31  1  0  0  0  0
 17 32  1  0  0  0  0
 18 24  2  0  0  0  0
 18 34  1  0  0  0  0
 19 32  1  0  0  0  0
 19 33  2  0  0  0  0
 19 37  1  0  0  0  0
 20 22  2  0  0  0  0
 20 44  1  0  0  0  0
 21 23  2  0  0  0  0
 21 45  1  0  0  0  0
 22 53  1  0  0  0  0
 23 46  1  0  0  0  0
 24 25  1  0  0  0  0
 24 56  1  0  0  0  0
 25 75  1  0  0  0  0
 26 86  1  0  0  0  0
 27 87  1  0  0  0  0
 28 31  2  0  0  0  0
 28 86  1  0  0  0  0
 29 88  1  0  0  0  0
 30 89  1  0  0  0  0
 31 90  1  0  0  0  0
 32 69  2  0  0  0  0
 33 70  1  0  0  0  0
 33 73  1  0  0  0  0
 34 38  2  0  0  0  0
 35 36  2  0  0  0  0
 35 38  1  0  0  0  0
 36 63  1  0  0  0  0
 37 74  1  0  0  0  0
 37 80  2  0  0  0  0
 38 57  1  0  0  0  0
 39 54  1  0  0  0  0
 39 76  1  0  0  0  0
 39 81  2  0  0  0  0
 40 66  1  0  0  0  0
 40 71  1  0  0  0  0
 40 82  2  0  0  0  0
 41 63  1  0  0  0  0
 41 77  1  0  0  0  0
 41 83  2  0  0  0  0
 42 67  1  0  0  0  0
 42 78  1  0  0  0  0
 42 84  2  0  0  0  0
 43 72  1  0  0  0  0
 43 75  1  0  0  0  0
 43 85  2  0  0  0  0
 44 47  1  0  0  0  0
 45 54  1  0  0  0  0
 46 71  1  0  0  0  0
 47 49  1  0  0  0  0
 48 50  1  0  0  0  0
 48 51  1  0  0  0  0
 49 53  1  0  0  0  0
 50 55  1  0  0  0  0
 51 72  1  0  0  0  0
 52 55  1  0  0  0  0
 52 72  1  0  0  0  0
 53 76  1  0  0  0  0
 54 71  1  0  0  0  0
 55 70  1  0  0  0  0
 58 67  1  0  0  0  0
 59 68  1  0  0  0  0
 60 68  1  0  0  0  0
 61 68  1  0  0  0  0
 62 79  1  0  0  0  0
 64 65  1  0  0  0  0
 64 77  1  0  0  0  0
 65 87  1  0  0  0  0
 66 68  1  0  0  0  0
 66 78  1  0  0  0  0
 67 79  1  0  0  0  0
 69 70  1  0  0  0  0
M  CHG  1  79   1
M  ISO  4  43 100  65 101  75 100  87 101
M  END
> <Batch ID>
0055

> <Smiles>
CNC(C)C(=O)NC(C(=O)N1Cc2cc([101O:1][101CH2:1]CNC(=O)CC=CC(C)=Cc3cc(F)cc([100NH:0][100C:0](=O)N4CCCC(n5nc(-c6ccc(Oc7ccc(F)cc7F)cc6)c(C(N)=O)c5N)C4)c3C)ccc2CC1C(=O)NC1CCCc2ccccc21)C(C)(C)C

> <Shape>
0.226

> <Color>
0.194

> <Negative vol penalty>
0.000

$$$$

  -OEChem-04042322493D

 84 92  0     1  0  0  0  0  0999 V2000
  -28.1520  -36.4036   22.4265 C   0  0  0  0  0  0  0  0  0  0  0  0
  -28.4305  -35.0424   22.3557 C   0  0  0  0  0  0  0  0  0  0  0  0
  -24.6608  -12.2869   19.7735 C   0  0  0  0  0  0  0  0  0  0  0  0
  -25.6667  -12.9810   21.8576 C   0  0  0  0  0  0  0  0  0  0  0  0
  -26.9183  -36.8373   22.9101 C   0  0  0  0  0  0  0  0  0  0  0  0
  -27.4759  -34.1141   22.7695 C   0  0  0  0  0  0  0  0  0  0  0  0
  -26.9936  -30.2493   19.5329 C   0  0  0  0  0  0  0  0  0  0  0  0
  -30.8886  -21.7078   22.8875 C   0  0  0  0  0  0  0  0  0  0  0  0
  -25.1772  -11.0036   19.9516 C   0  0  0  0  0  0  0  0  0  0  0  0
  -26.1831  -11.6976   22.0358 C   0  0  0  0  0  0  0  0  0  0  0  0
  -27.9698  -29.2550   19.5785 C   0  0  0  0  0  0  0  0  0  0  0  0
  -25.9280   -7.4477   20.0360 C   0  0  0  0  0  0  0  0  0  0  0  0
  -29.9312  -20.9130   23.5178 C   0  0  0  0  0  0  0  0  0  0  0  0
  -25.0799   -6.3676   19.7914 C   0  0  0  0  0  0  0  0  0  0  0  0
  -26.4868  -27.8672   20.8801 C   0  0  0  0  0  0  0  0  0  0  0  0
  -29.6921  -21.4931   20.7996 C   0  0  0  0  0  0  0  0  0  0  0  0
  -23.5748   -7.1611   21.5068 C   0  0  0  0  0  0  0  0  0  0  0  0
  -24.9055  -13.2757   20.7265 C   0  0  0  0  0  0  0  0  0  0  0  0
  -23.1265  -15.0858   20.9834 C   0  0  0  0  0  0  0  0  0  0  0  0
  -25.9444  -35.9135   23.3210 C   0  0  0  0  0  0  0  0  0  0  0  0
  -25.7586  -30.0641   20.1708 C   0  0  0  0  0  0  0  0  0  0  0  0
  -26.2285  -34.5358   23.2603 C   0  0  0  0  0  0  0  0  0  0  0  0
  -25.4957  -28.8597   20.8389 C   0  0  0  0  0  0  0  0  0  0  0  0
  -30.7690  -21.9979   21.5283 C   0  0  0  0  0  0  0  0  0  0  0  0
  -28.7348  -20.6982   21.4299 C   0  0  0  0  0  0  0  0  0  0  0  0
  -25.9383  -10.7088   21.0828 C   0  0  0  0  0  0  0  0  0  0  0  0
  -27.7176  -28.0649   20.2546 C   0  0  0  0  0  0  0  0  0  0  0  0
  -25.5996   -8.3844   21.0160 C   0  0  0  0  0  0  0  0  0  0  0  0
  -23.9033   -6.2243   20.5268 C   0  0  0  0  0  0  0  0  0  0  0  0
  -28.8543  -20.4082   22.7891 C   0  0  0  0  0  0  0  0  0  0  0  0
  -24.4230   -8.2411   21.7513 C   0  0  0  0  0  0  0  0  0  0  0  0
  -24.3728  -14.6018   20.5428 C   0  0  0  0  0  0  0  0  0  0  0  0
  -23.0977  -16.3931   20.5629 C   0  0  0  0  0  0  0  0  0  0  0  0
  -22.0877  -14.4139   21.7080 C   0  0  0  0  0  0  0  0  0  0  0  0
  -24.2111  -31.5275   22.5304 C   0  0  0  0  0  0  0  0  0  0  0  0
  -21.8242  -29.4922   21.7041 C   0  0  0  0  0  0  0  0  0  0  0  0
  -30.8565  -25.1247   20.4529 C   0  0  0  0  0  0  0  0  0  0  0  0
  -20.9035  -26.5427   20.2551 C   0  0  0  0  0  0  0  0  0  0  0  0
  -27.3744  -20.3809   19.3335 C   0  0  0  0  0  0  0  0  0  0  0  0
  -24.6432  -36.4312   23.8809 C   0  0  0  0  0  0  0  0  0  0  0  0
  -24.7062  -31.1357   20.0896 C   0  0  0  0  0  0  0  0  0  0  0  0
  -24.1785  -28.6034   21.5228 C   0  0  0  0  0  0  0  0  0  0  0  0
  -23.5451  -35.3730   23.9482 C   0  0  0  0  0  0  0  0  0  0  0  0
  -24.8099  -19.2617   17.1317 C   0  0  0  0  0  0  0  0  0  0  0  0
  -24.0872  -34.0783   24.5454 C   0  0  0  0  0  0  0  0  0  0  0  0
  -24.2892  -17.9871   17.7998 C   0  0  0  0  0  0  0  0  0  0  0  0
  -26.3204  -19.4145   17.3012 C   0  0  0  0  0  0  0  0  0  0  0  0
  -26.2810  -18.0529   19.3539 C   0  0  0  0  0  0  0  0  0  0  0  0
  -25.2094  -33.4974   23.6765 C   0  0  1  0  0  0  0  0  0  0  0  0
  -23.6757  -31.0473   21.2111 C   0  0  1  0  0  0  0  0  0  0  0  0
  -24.7550  -17.8886   19.2657 C   0  0  2  0  0  0  0  0  0  0  0  0
  -18.8851  -25.1346   19.7643 C   0  0  0  0  0  0  0  0  0  0  0  0
  -21.7224  -28.6235   24.6273 C   0  0  0  0  0  0  0  0  0  0  0  0
  -20.4142  -26.6123   23.9116 C   0  0  0  0  0  0  0  0  0  0  0  0
  -19.4860  -28.8981   23.5420 C   0  0  0  0  0  0  0  0  0  0  0  0
  -21.3605  -26.6994   17.3353 C   0  0  0  0  0  0  0  0  0  0  0  0
  -31.8002  -22.8529   20.8503 C   0  0  0  0  0  0  0  0  0  0  0  0
  -30.8889  -26.5280   21.0381 C   0  0  0  0  0  0  0  0  0  0  0  0
  -30.0314  -27.5153   20.2615 C   0  0  0  0  0  0  0  0  0  1  0  0
  -21.4161  -28.0989   22.1179 C   0  0  1  0  0  0  0  0  0  0  0  0
  -19.8223  -26.2124   19.2420 C   0  0  2  0  0  0  0  0  0  0  0  0
  -20.7853  -28.0635   23.5385 C   0  0  0  0  0  0  0  0  0  0  0  0
  -25.0842  -15.5263   19.8921 N   0  0  0  0  0  0  0  0  0  0  0  0
  -24.2822  -16.6043   19.9207 N   0  0  0  0  0  0  0  0  0  0  0  0
  -23.1839  -29.6841   21.4206 N   0  0  0  0  0  0  0  0  0  0  0  0
  -26.6873  -19.3147   18.7155 N   0  0  0  0  0  0  0  0  0  0  0  0
  -22.1748  -17.3710   20.6835 N   0  0  0  0  0  0  0  0  0  0  0  0
  -22.2803  -13.0713   22.0612 N   0  0  0  0  0  0  0  0  0  0  0  0
  -27.6410  -20.1868   20.6884 N   0  0  0  0  0  0  0  0  0  0  0  0
  -24.6572  -32.8352   22.5141 N   0  0  0  0  0  0  0  0  0  0  0  0
  -31.6480  -24.2508   21.1842 N   0  0  0  0  0  0  0  0  0  0  0  0
  -20.5408  -27.5997   21.0629 N   0  0  0  0  0  0  0  0  0  0  0  0
  -20.4332  -25.7288   17.9716 N   0  3  0  0  0  0  0  0  0  0  0  0
  -21.0133  -14.9823   22.0183 O   0  0  0  0  0  0  0  0  0  0  0  0
  -24.2175  -30.7682   23.4922 O   0  0  0  0  0  0  0  0  0  0  0  0
  -20.9670  -30.3760   21.6281 O   0  0  0  0  0  0  0  0  0  0  0  0
  -30.2040  -24.8253   19.4566 O   0  0  0  0  0  0  0  0  0  0  0  0
  -21.9622  -25.9225   20.3256 O   0  0  0  0  0  0  0  0  0  0  0  0
  -27.6782  -21.4033   18.7134 O   0  0  0  0  0  0  0  0  0  0  0  0
  -26.4422   -9.4565   21.2570 O   0  0  0  0  0  0  0  0  0  0  0  0
  -28.6689  -27.0930   20.3013 O   0  0  0  0  0  0  0  0  0  1  0  0
  -23.0882   -5.1880   20.2908 F   0  0  0  0  0  0  0  0  0  0  0  0
  -27.9406  -19.6449   23.4053 F   0  0  0  0  0  0  0  0  0  0  0  0
  -24.1016   -9.1384   22.6933 F   0  0  0  0  0  0  0  0  0  0  0  0
  1  2  1  0  0  0  0
  1  5  2  0  0  0  0
  2  6  2  0  0  0  0
  3  9  2  0  0  0  0
  3 18  1  0  0  0  0
  4 10  1  0  0  0  0
  4 18  2  0  0  0  0
  5 20  1  0  0  0  0
  6 22  1  0  0  0  0
  7 11  2  0  0  0  0
  7 21  1  0  0  0  0
  8 13  2  0  0  0  0
  8 24  1  0  0  0  0
  9 26  1  0  0  0  0
 10 26  2  0  0  0  0
 11 27  1  0  0  0  0
 12 14  2  0  0  0  0
 12 28  1  0  0  0  0
 13 30  1  0  0  0  0
 14 29  1  0  0  0  0
 15 23  1  0  0  0  0
 15 27  2  0  0  0  0
 16 24  2  0  0  0  0
 16 25  1  0  0  0  0
 17 29  2  0  0  0  0
 17 31  1  0  0  0  0
 18 32  1  0  0  0  0
 19 32  1  0  0  0  0
 19 33  2  0  0  0  0
 19 34  1  0  0  0  0
 20 22  2  0  0  0  0
 20 40  1  0  0  0  0
 21 23  2  0  0  0  0
 21 41  1  0  0  0  0
 22 49  1  0  0  0  0
 23 42  1  0  0  0  0
 24 57  1  0  0  0  0
 25 30  2  0  0  0  0
 25 69  1  0  0  0  0
 26 80  1  0  0  0  0
 27 81  1  0  0  0  0
 28 31  2  0  0  0  0
 28 80  1  0  0  0  0
 29 82  1  0  0  0  0
 30 83  1  0  0  0  0
 31 84  1  0  0  0  0
 32 63  2  0  0  0  0
 33 64  1  0  0  0  0
 33 67  1  0  0  0  0
 34 68  1  0  0  0  0
 34 74  2  0  0  0  0
 35 50  1  0  0  0  0
 35 70  1  0  0  0  0
 35 75  2  0  0  0  0
 36 60  1  0  0  0  0
 36 65  1  0  0  0  0
 36 76  2  0  0  0  0
 37 58  1  0  0  0  0
 37 71  1  0  0  0  0
 37 77  2  0  0  0  0
 38 61  1  0  0  0  0
 38 72  1  0  0  0  0
 38 78  2  0  0  0  0
 39 66  1  0  0  0  0
 39 69  1  0  0  0  0
 39 79  2  0  0  0  0
 40 43  1  0  0  0  0
 41 50  1  0  0  0  0
 42 65  1  0  0  0  0
 43 45  1  0  0  0  0
 44 46  1  0  0  0  0
 44 47  1  0  0  0  0
 45 49  1  0  0  0  0
 46 51  1  0  0  0  0
 47 66  1  0  0  0  0
 48 51  1  0  0  0  0
 48 66  1  0  0  0  0
 49 70  1  0  0  0  0
 50 65  1  0  0  0  0
 51 64  1  0  0  0  0
 52 61  1  0  0  0  0
 53 62  1  0  0  0  0
 54 62  1  0  0  0  0
 55 62  1  0  0  0  0
 56 73  1  0  0  0  0
 57 71  1  0  0  0  0
 58 59  1  0  0  0  0
 59 81  1  0  0  0  0
 60 62  1  0  0  0  0
 60 72  1  0  0  0  0
 61 73  1  0  0  0  0
 63 64  1  0  0  0  0
M  CHG  1  73   1
M  ISO  4  39 100  59 101  69 100  81 101
M  END
> <Batch ID>
0055

> <Smiles>
CNC(C)C(=O)NC(C(=O)N1Cc2cc([101O:1][101CH2:1]CC(=O)NCc3ccc(F)c([100NH:0][100C:0](=O)N4CCCC(n5nc(-c6ccc(Oc7ccc(F)cc7F)cc6)c(C(N)=O)c5N)C4)c3)ccc2CC1C(=O)NC1CCCc2ccccc21)C(C)(C)C

> <Shape>
0.279

> <Color>
0.094

> <Negative vol penalty>
0.000

$$$$

  -OEChem-04042322493D

 87 96  0     1  0  0  0  0  0999 V2000
  -21.7711  -12.7720   18.9937 C   0  0  0  0  0  0  0  0  0  0  0  0
  -21.7708  -14.1320   19.2866 C   0  0  0  0  0  0  0  0  0  0  0  0
  -17.9341  -28.2752   22.1965 C   0  0  0  0  0  0  0  0  0  0  0  0
  -29.8503  -27.3033   20.6046 C   0  0  0  0  0  0  0  0  0  0  0  0
  -29.7284  -28.8876   18.7846 C   0  0  0  0  0  0  0  0  0  0  0  0
  -22.8491  -11.9770   19.3808 C   0  0  0  0  0  0  0  0  0  0  0  0
  -22.8481  -14.6976   19.9677 C   0  0  0  0  0  0  0  0  0  0  0  0
  -24.3577  -19.0766   17.9207 C   0  0  0  0  0  0  0  0  0  0  0  0
  -17.8837  -26.9293   22.5593 C   0  0  0  0  0  0  0  0  0  0  0  0
  -19.1468  -28.9633   22.2360 C   0  0  0  0  0  0  0  0  0  0  0  0
  -31.2431  -27.3690   20.5685 C   0  0  0  0  0  0  0  0  0  0  0  0
  -31.1212  -28.9533   18.7485 C   0  0  0  0  0  0  0  0  0  0  0  0
  -23.5941  -20.2083   18.2033 C   0  0  0  0  0  0  0  0  0  0  0  0
  -33.6664  -29.4696   21.6399 C   0  0  0  0  0  0  0  0  0  0  0  0
  -34.3415  -29.5877   22.8547 C   0  0  0  0  0  0  0  0  0  0  0  0
  -25.1990  -20.8650   19.8803 C   0  0  0  0  0  0  0  0  0  0  0  0
  -35.5003  -27.5143   22.4123 C   0  0  0  0  0  0  0  0  0  0  0  0
  -29.0929  -28.0626   19.7126 C   0  0  0  0  0  0  0  0  0  0  0  0
  -26.8516  -26.8546   19.5544 C   0  0  0  0  0  0  0  0  0  0  0  0
  -23.9445  -12.5350   20.0585 C   0  0  0  0  0  0  0  0  0  0  0  0
  -25.5441  -18.8245   18.6245 C   0  0  0  0  0  0  0  0  0  0  0  0
  -23.9411  -13.9091   20.3654 C   0  0  0  0  0  0  0  0  0  0  0  0
  -25.9772  -19.7308   19.6029 C   0  0  0  0  0  0  0  0  0  0  0  0
  -19.0460  -26.2715   22.9618 C   0  0  0  0  0  0  0  0  0  0  0  0
  -20.2588  -26.9596   23.0014 C   0  0  0  0  0  0  0  0  0  0  0  0
  -20.3091  -28.3055   22.6386 C   0  0  0  0  0  0  0  0  0  0  0  0
  -31.8786  -28.1940   19.6405 C   0  0  0  0  0  0  0  0  0  0  0  0
  -24.0132  -21.1012   19.1853 C   0  0  0  0  0  0  0  0  0  0  0  0
  -33.9082  -28.3738   20.8112 C   0  0  0  0  0  0  0  0  0  0  0  0
  -35.2585  -28.6100   23.2409 C   0  0  0  0  0  0  0  0  0  0  0  0
  -34.8251  -27.3962   21.1974 C   0  0  0  0  0  0  0  0  0  0  0  0
  -27.6541  -27.9948   19.7490 C   0  0  0  0  0  0  0  0  0  0  0  0
  -25.5641  -27.3140   19.6885 C   0  0  0  0  0  0  0  0  0  0  0  0
  -18.9811  -23.9693   21.0190 C   0  0  0  0  0  0  0  0  0  0  0  0
  -27.2356  -25.5014   19.2771 C   0  0  0  0  0  0  0  0  0  0  0  0
  -26.5629  -16.5066   20.5462 C   0  0  0  0  0  0  0  0  0  0  0  0
  -29.3642  -18.1338   20.3817 C   0  0  0  0  0  0  0  0  0  0  0  0
  -30.9664  -21.0941   19.8195 C   0  0  0  0  0  0  0  0  0  0  0  0
  -21.7316  -30.3629   22.3378 C   0  0  0  0  0  0  0  0  0  0  0  0
  -25.0654  -11.6267   20.4984 C   0  0  0  0  0  0  0  0  0  0  0  0
  -26.3703  -17.6132   18.2891 C   0  0  0  0  0  0  0  0  0  0  0  0
  -27.2538  -19.5164   20.3729 C   0  0  0  0  0  0  0  0  0  0  0  0
  -19.6352  -22.9630   20.0931 C   0  0  0  0  0  0  0  0  0  0  0  0
  -26.3386  -12.3743   20.8862 C   0  0  0  0  0  0  0  0  0  0  0  0
  -23.7612  -32.0371   19.9390 C   0  0  0  0  0  0  0  0  0  0  0  0
  -26.0091  -13.5543   21.7949 C   0  0  0  0  0  0  0  0  0  0  0  0
  -24.8889  -31.0409   19.6597 C   0  0  0  0  0  0  0  0  0  0  0  0
  -21.5598  -22.6876   21.7081 C   0  0  0  0  0  0  0  0  0  0  0  0
  -23.3361  -32.0159   21.4061 C   0  0  0  0  0  0  0  0  0  0  0  0
  -20.4384  -22.9145   22.7206 C   0  0  0  0  0  0  0  0  0  0  0  0
  -24.1190  -29.6932   21.6541 C   0  0  0  0  0  0  0  0  0  0  0  0
  -25.1026  -14.5642   21.0809 C   0  0  1  0  0  0  0  0  0  0  0  0
  -27.2955  -17.1878   19.4251 C   0  0  1  0  0  0  0  0  0  0  0  0
  -21.1526  -23.0196   20.2645 C   0  0  1  0  0  0  0  0  0  0  0  0
  -24.5369  -29.6320   20.1759 C   0  0  2  0  0  0  0  0  0  0  0  0
  -21.5032  -26.2496   23.4338 C   0  0  0  0  0  0  0  0  0  0  0  0
  -33.2559  -22.1213   19.7953 C   0  0  0  0  0  0  0  0  0  0  0  0
  -29.3761  -18.1732   23.4326 C   0  0  0  0  0  0  0  0  0  0  0  0
  -31.1093  -19.9772   23.3331 C   0  0  0  0  0  0  0  0  0  0  0  0
  -31.6025  -17.7226   22.3865 C   0  0  0  0  0  0  0  0  0  0  0  0
  -30.7462  -21.7999   16.9538 C   0  0  0  0  0  0  0  0  0  0  0  0
  -18.9637  -24.8227   23.3470 C   0  0  0  0  0  0  0  0  0  0  0  0
  -21.8596  -22.1068   19.2666 C   0  0  0  0  0  0  0  0  0  1  0  0
  -29.9983  -19.2532   21.1715 C   0  0  1  0  0  0  0  0  0  0  0  0
  -32.1761  -21.4392   18.9697 C   0  0  2  0  0  0  0  0  0  0  0  0
  -30.4964  -18.7849   22.5680 C   0  0  0  0  0  0  0  0  0  0  0  0
  -26.9365  -29.0956   19.9885 N   0  0  0  0  0  0  0  0  0  0  0  0
  -25.6696  -28.6493   19.9451 N   0  0  0  0  0  0  0  0  0  0  0  0
  -19.5011  -23.9538   22.3134 N   0  0  0  0  0  0  0  0  0  0  0  0
  -28.0235  -18.3141   20.0130 N   0  0  0  0  0  0  0  0  0  0  0  0
  -23.0138  -30.6496   21.8236 N   0  0  0  0  0  0  0  0  0  0  0  0
  -24.3635  -26.7018   19.6108 N   0  0  0  0  0  0  0  0  0  0  0  0
  -27.3728  -25.1065   17.9394 N   0  0  0  0  0  0  0  0  0  0  0  0
  -21.5301  -29.0238   22.6708 N   0  0  0  0  0  0  0  0  0  0  0  0
  -25.8734  -15.3728   20.1607 N   0  0  0  0  0  0  0  0  0  0  0  0
  -31.0435  -19.8119   20.3208 N   0  0  0  0  0  0  0  0  0  0  0  0
  -31.7854  -22.3535   17.8596 N   0  3  0  0  0  0  0  0  0  0  0  0
  -18.0683  -24.6937   20.6260 O   0  0  0  0  0  0  0  0  0  0  0  0
  -27.4347  -24.6626   20.1883 O   0  0  0  0  0  0  0  0  0  0  0  0
  -26.6202  -16.9741   21.6775 O   0  0  0  0  0  0  0  0  0  0  0  0
  -30.0358  -17.1393   20.0961 O   0  0  0  0  0  0  0  0  0  0  0  0
  -30.0471  -21.8843   20.0216 O   0  0  0  0  0  0  0  0  0  0  0  0
  -20.8663  -31.2353   22.4473 O   0  0  0  0  0  0  0  0  0  0  0  0
  -33.2377  -28.2585   19.6051 O   0  0  0  0  0  0  0  0  0  0  0  0
  -23.2694  -22.2063   19.4636 O   0  0  0  0  0  0  0  0  0  1  0  0
  -35.9078  -28.7243   24.4069 F   0  0  0  0  0  0  0  0  0  0  0  0
  -35.0624  -26.3419   20.4050 F   0  0  0  0  0  0  0  0  0  0  0  0
  1  2  1  0  0  0  0
  1  6  2  0  0  0  0
  2  7  2  0  0  0  0
  3  9  2  0  0  0  0
  3 10  1  0  0  0  0
  4 11  2  0  0  0  0
  4 18  1  0  0  0  0
  5 12  1  0  0  0  0
  5 18  2  0  0  0  0
  6 20  1  0  0  0  0
  7 22  1  0  0  0  0
  8 13  2  0  0  0  0
  8 21  1  0  0  0  0
  9 24  1  0  0  0  0
 10 26  2  0  0  0  0
 11 27  1  0  0  0  0
 12 27  2  0  0  0  0
 13 28  1  0  0  0  0
 14 15  2  0  0  0  0
 14 29  1  0  0  0  0
 15 30  1  0  0  0  0
 16 23  1  0  0  0  0
 16 28  2  0  0  0  0
 17 30  2  0  0  0  0
 17 31  1  0  0  0  0
 18 32  1  0  0  0  0
 19 32  1  0  0  0  0
 19 33  2  0  0  0  0
 19 35  1  0  0  0  0
 20 22  2  0  0  0  0
 20 40  1  0  0  0  0
 21 23  2  0  0  0  0
 21 41  1  0  0  0  0
 22 52  1  0  0  0  0
 23 42  1  0  0  0  0
 24 25  2  0  0  0  0
 24 62  1  0  0  0  0
 25 26  1  0  0  0  0
 25 56  1  0  0  0  0
 26 74  1  0  0  0  0
 27 84  1  0  0  0  0
 28 85  1  0  0  0  0
 29 31  2  0  0  0  0
 29 84  1  0  0  0  0
 30 86  1  0  0  0  0
 31 87  1  0  0  0  0
 32 67  2  0  0  0  0
 33 68  1  0  0  0  0
 33 72  1  0  0  0  0
 34 43  1  0  0  0  0
 34 69  1  0  0  0  0
 34 78  2  0  0  0  0
 35 73  1  0  0  0  0
 35 79  2  0  0  0  0
 36 53  1  0  0  0  0
 36 75  1  0  0  0  0
 36 80  2  0  0  0  0
 37 64  1  0  0  0  0
 37 70  1  0  0  0  0
 37 81  2  0  0  0  0
 38 65  1  0  0  0  0
 38 76  1  0  0  0  0
 38 82  2  0  0  0  0
 39 71  1  0  0  0  0
 39 74  1  0  0  0  0
 39 83  2  0  0  0  0
 40 44  1  0  0  0  0
 41 53  1  0  0  0  0
 42 70  1  0  0  0  0
 43 54  1  0  0  0  0
 44 46  1  0  0  0  0
 45 47  1  0  0  0  0
 45 49  1  0  0  0  0
 46 52  1  0  0  0  0
 47 55  1  0  0  0  0
 48 50  1  0  0  0  0
 48 54  1  0  0  0  0
 49 71  1  0  0  0  0
 50 69  1  0  0  0  0
 51 55  1  0  0  0  0
 51 71  1  0  0  0  0
 52 75  1  0  0  0  0
 53 70  1  0  0  0  0
 54 63  1  0  0  0  0
 55 68  1  0  0  0  0
 57 65  1  0  0  0  0
 58 66  1  0  0  0  0
 59 66  1  0  0  0  0
 60 66  1  0  0  0  0
 61 77  1  0  0  0  0
 62 69  1  0  0  0  0
 63 85  1  0  0  0  0
 64 66  1  0  0  0  0
 64 76  1  0  0  0  0
 65 77  1  0  0  0  0
 67 68  1  0  0  0  0
M  CHG  1  77   1
M  ISO  4  39 100  63 101  74 100  85 101
M  END
> <Batch ID>
0055

> <Smiles>
CNC(C)C(=O)NC(C(=O)N1Cc2cc([101O:1][101CH2:1]C3CCN(Cc4cccc([100NH:0][100C:0](=O)N5CCCC(n6nc(-c7ccc(Oc8ccc(F)cc8F)cc7)c(C(N)=O)c6N)C5)c4C)C(=O)C3)ccc2CC1C(=O)NC1CCCc2ccccc21)C(C)(C)C

> <Shape>
0.229

> <Color>
0.098

> <Negative vol penalty>
0.000

$$$$

  -OEChem-04042322493D

 90 98  0     1  0  0  0  0  0999 V2000
  -17.4879  -26.0077   22.6182 C   0  0  0  0  0  0  0  0  0  0  0  0
  -18.7693  -25.5907   22.2727 C   0  0  0  0  0  0  0  0  0  0  0  0
  -23.2847  -15.0811   22.3974 C   0  0  0  0  0  0  0  0  0  0  0  0
  -25.0116  -15.6342   20.8009 C   0  0  0  0  0  0  0  0  0  0  0  0
  -17.1446  -27.3555   22.5204 C   0  0  0  0  0  0  0  0  0  0  0  0
  -19.7079  -26.5211   21.8280 C   0  0  0  0  0  0  0  0  0  0  0  0
  -25.7455  -26.4367   22.8508 C   0  0  0  0  0  0  0  0  0  0  0  0
  -24.4668  -24.8189   18.5363 C   0  0  0  0  0  0  0  0  0  0  0  0
  -23.0105  -13.9080   21.6945 C   0  0  0  0  0  0  0  0  0  0  0  0
  -24.7375  -14.4610   20.0979 C   0  0  0  0  0  0  0  0  0  0  0  0
  -26.8224  -26.0093   22.0752 C   0  0  0  0  0  0  0  0  0  0  0  0
  -22.1005  -10.5891   20.5232 C   0  0  0  0  0  0  0  0  0  0  0  0
  -24.8845  -25.4040   17.3410 C   0  0  0  0  0  0  0  0  0  0  0  0
  -21.9334   -9.4160   21.2592 C   0  0  0  0  0  0  0  0  0  0  0  0
  -26.3497  -23.3072   18.4543 C   0  0  0  0  0  0  0  0  0  0  0  0
  -27.1663  -28.2731   21.3161 C   0  0  0  0  0  0  0  0  0  0  0  0
  -24.1766   -9.6414   22.1278 C   0  0  0  0  0  0  0  0  0  0  0  0
  -24.2852  -15.9443   21.9506 C   0  0  0  0  0  0  0  0  0  0  0  0
  -26.7674  -23.8923   17.2590 C   0  0  0  0  0  0  0  0  0  0  0  0
  -25.4887  -17.3221   23.7284 C   0  0  0  0  0  0  0  0  0  0  0  0
  -18.0824  -28.3043   22.0834 C   0  0  0  0  0  0  0  0  0  0  0  0
  -25.3635  -27.7860   22.8564 C   0  0  0  0  0  0  0  0  0  0  0  0
  -19.3764  -27.8826   21.7229 C   0  0  0  0  0  0  0  0  0  0  0  0
  -26.0859  -28.7155   22.0946 C   0  0  0  0  0  0  0  0  0  0  0  0
  -25.1994  -23.7705   19.0930 C   0  0  0  0  0  0  0  0  0  0  0  0
  -23.7369  -13.5979   20.5448 C   0  0  0  0  0  0  0  0  0  0  0  0
  -27.5311  -26.9270   21.3055 C   0  0  0  0  0  0  0  0  0  0  0  0
  -23.3057  -11.2882   20.5894 C   0  0  0  0  0  0  0  0  0  0  0  0
  -22.9714   -8.9422   22.0615 C   0  0  0  0  0  0  0  0  0  0  0  0
  -26.0347  -24.9407   16.7023 C   0  0  0  0  0  0  0  0  0  0  0  0
  -24.3437  -10.8145   21.3917 C   0  0  0  0  0  0  0  0  0  0  0  0
  -24.5685  -17.1565   22.6760 C   0  0  0  0  0  0  0  0  0  0  0  0
  -25.3828  -18.6478   24.0718 C   0  0  0  0  0  0  0  0  0  0  0  0
  -27.9928  -23.3966   16.5811 C   0  0  0  0  0  0  0  0  0  0  0  0
  -26.3613  -16.3634   24.3408 C   0  0  0  0  0  0  0  0  0  0  0  0
  -22.7417  -29.3785   22.0235 C   0  0  0  0  0  0  0  0  0  0  0  0
  -24.3389  -31.8987   23.2961 C   0  0  0  0  0  0  0  0  0  0  0  0
  -30.1102  -24.8278   19.7215 C   0  0  0  0  0  0  0  0  0  0  0  0
  -27.3319  -33.3050   24.1395 C   0  0  0  0  0  0  0  0  0  0  0  0
  -23.6572  -23.5171   21.0688 C   0  0  0  0  0  0  0  0  0  0  0  0
  -17.6506  -29.7431   21.9489 C   0  0  0  0  0  0  0  0  0  0  0  0
  -24.2163  -28.2355   23.7191 C   0  0  0  0  0  0  0  0  0  0  0  0
  -25.7288  -30.1786   22.0816 C   0  0  0  0  0  0  0  0  0  0  0  0
  -18.8171  -30.7201   21.8259 C   0  0  0  0  0  0  0  0  0  0  0  0
  -22.2521  -22.2717   24.0940 C   0  0  0  0  0  0  0  0  0  0  0  0
  -19.8378  -30.2081   20.8146 C   0  0  0  0  0  0  0  0  0  0  0  0
  -22.7753  -20.8356   24.1725 C   0  0  0  0  0  0  0  0  0  0  0  0
  -21.9375  -22.6828   22.6567 C   0  0  0  0  0  0  0  0  0  0  0  0
  -23.5565  -21.0469   21.7783 C   0  0  0  0  0  0  0  0  0  0  0  0
  -20.4299  -28.8654   21.2599 C   0  0  1  0  0  0  0  0  0  0  0  0
  -23.5937  -29.5467   23.2497 C   0  0  1  0  0  0  0  0  0  0  0  0
  -23.9486  -20.6094   23.1991 C   0  0  2  0  0  0  0  0  0  0  0  0
  -28.3204  -35.3893   25.1274 C   0  0  0  0  0  0  0  0  0  0  0  0
  -23.8617  -33.3690   20.6655 C   0  0  0  0  0  0  0  0  0  0  0  0
  -25.6352  -35.0033   21.3376 C   0  0  0  0  0  0  0  0  0  0  0  0
  -23.5674  -34.7734   22.7138 C   0  0  0  0  0  0  0  0  0  0  0  0
  -30.4950  -20.6899   18.7712 C   0  0  0  0  0  0  0  0  0  0  0  0
  -32.4402  -21.2728   17.3241 C   0  0  0  0  0  0  0  0  0  0  0  0
  -28.5149  -31.8101   26.4033 C   0  0  0  0  0  0  0  0  0  0  0  0
  -28.9040  -25.1227   20.5873 C   0  0  0  0  0  0  0  0  0  1  0  0
  -30.2314  -22.3763   16.9037 C   0  0  0  0  0  0  0  0  0  0  0  0
  -31.5683  -22.9376   19.0237 C   0  0  0  0  0  0  0  0  0  0  0  0
  -25.3008  -32.9336   22.7643 C   0  0  1  0  0  0  0  0  0  0  0  0
  -27.8010  -33.9884   25.4112 C   0  0  2  0  0  0  0  0  0  0  0  0
  -24.5970  -33.9920   21.8688 C   0  0  0  0  0  0  0  0  0  0  0  0
  -31.1779  -21.8409   18.0039 C   0  0  0  0  0  0  0  0  0  0  0  0
  -23.9253  -18.2866   22.3709 N   0  0  0  0  0  0  0  0  0  0  0  0
  -24.4419  -19.1750   23.2369 N   0  0  0  0  0  0  0  0  0  0  0  0
  -24.5954  -30.5679   22.9368 N   0  0  0  0  0  0  0  0  0  0  0  0
  -23.0959  -22.4442   21.7931 N   0  0  0  0  0  0  0  0  0  0  0  0
  -26.0035  -19.4022   25.0034 N   0  0  0  0  0  0  0  0  0  0  0  0
  -26.3437  -15.0448   23.8661 N   0  0  0  0  0  0  0  0  0  0  0  0
  -24.7748  -23.1767   20.3075 N   0  0  0  0  0  0  0  0  0  0  0  0
  -28.9794  -22.8730   17.4079 N   0  0  0  0  0  0  0  0  0  0  0  0
  -21.4224  -29.0686   22.2934 N   0  0  0  0  0  0  0  0  0  0  0  0
  -30.4527  -23.4852   19.7603 N   0  0  0  0  0  0  0  0  0  0  0  0
  -25.9826  -33.4927   23.9267 N   0  0  0  0  0  0  0  0  0  0  0  0
  -28.8946  -33.2019   26.0488 N   0  3  0  0  0  0  0  0  0  0  0  0
  -28.0820  -23.4892   15.3596 O   0  0  0  0  0  0  0  0  0  0  0  0
  -27.1220  -16.6632   25.2922 O   0  0  0  0  0  0  0  0  0  0  0  0
  -23.2437  -29.5208   20.9148 O   0  0  0  0  0  0  0  0  0  0  0  0
  -23.3990  -32.2570   24.0100 O   0  0  0  0  0  0  0  0  0  0  0  0
  -30.6930  -25.6950   19.0765 O   0  0  0  0  0  0  0  0  0  0  0  0
  -28.0877  -32.6714   23.4061 O   0  0  0  0  0  0  0  0  0  0  0  0
  -23.1980  -24.6598   21.1414 O   0  0  0  0  0  0  0  0  0  0  0  0
  -23.4698  -12.4531   19.8587 O   0  0  0  0  0  0  0  0  0  0  0  0
  -28.5822  -26.5124   20.5471 O   0  0  0  0  0  0  0  0  0  1  0  0
  -22.8102   -7.8166   22.7695 F   0  0  0  0  0  0  0  0  0  0  0  0
  -26.4271  -25.5103   15.5542 F   0  0  0  0  0  0  0  0  0  0  0  0
  -25.5034  -11.4825   21.4603 F   0  0  0  0  0  0  0  0  0  0  0  0
  1  2  1  0  0  0  0
  1  5  2  0  0  0  0
  2  6  2  0  0  0  0
  3  9  2  0  0  0  0
  3 18  1  0  0  0  0
  4 10  1  0  0  0  0
  4 18  2  0  0  0  0
  5 21  1  0  0  0  0
  6 23  1  0  0  0  0
  7 11  2  0  0  0  0
  7 22  1  0  0  0  0
  8 13  2  0  0  0  0
  8 25  1  0  0  0  0
  9 26  1  0  0  0  0
 10 26  2  0  0  0  0
 11 27  1  0  0  0  0
 12 14  2  0  0  0  0
 12 28  1  0  0  0  0
 13 30  1  0  0  0  0
 14 29  1  0  0  0  0
 15 19  1  0  0  0  0
 15 25  2  0  0  0  0
 16 24  1  0  0  0  0
 16 27  2  0  0  0  0
 17 29  2  0  0  0  0
 17 31  1  0  0  0  0
 18 32  1  0  0  0  0
 19 30  2  0  0  0  0
 19 34  1  0  0  0  0
 20 32  1  0  0  0  0
 20 33  2  0  0  0  0
 20 35  1  0  0  0  0
 21 23  2  0  0  0  0
 21 41  1  0  0  0  0
 22 24  2  0  0  0  0
 22 42  1  0  0  0  0
 23 50  1  0  0  0  0
 24 43  1  0  0  0  0
 25 73  1  0  0  0  0
 26 86  1  0  0  0  0
 27 87  1  0  0  0  0
 28 31  2  0  0  0  0
 28 86  1  0  0  0  0
 29 88  1  0  0  0  0
 30 89  1  0  0  0  0
 31 90  1  0  0  0  0
 32 67  2  0  0  0  0
 33 68  1  0  0  0  0
 33 71  1  0  0  0  0
 34 74  1  0  0  0  0
 34 79  2  0  0  0  0
 35 72  1  0  0  0  0
 35 80  2  0  0  0  0
 36 51  1  0  0  0  0
 36 75  1  0  0  0  0
 36 81  2  0  0  0  0
 37 63  1  0  0  0  0
 37 69  1  0  0  0  0
 37 82  2  0  0  0  0
 38 60  1  0  0  0  0
 38 76  1  0  0  0  0
 38 83  2  0  0  0  0
 39 64  1  0  0  0  0
 39 77  1  0  0  0  0
 39 84  2  0  0  0  0
 40 70  1  0  0  0  0
 40 73  1  0  0  0  0
 40 85  2  0  0  0  0
 41 44  1  0  0  0  0
 42 51  1  0  0  0  0
 43 69  1  0  0  0  0
 44 46  1  0  0  0  0
 45 47  1  0  0  0  0
 45 48  1  0  0  0  0
 46 50  1  0  0  0  0
 47 52  1  0  0  0  0
 48 70  1  0  0  0  0
 49 52  1  0  0  0  0
 49 70  1  0  0  0  0
 50 75  1  0  0  0  0
 51 69  1  0  0  0  0
 52 68  1  0  0  0  0
 53 64  1  0  0  0  0
 54 65  1  0  0  0  0
 55 65  1  0  0  0  0
 56 65  1  0  0  0  0
 57 66  1  0  0  0  0
 58 66  1  0  0  0  0
 59 78  1  0  0  0  0
 60 87  1  0  0  0  0
 61 66  1  0  0  0  0
 61 74  1  0  0  0  0
 62 66  1  0  0  0  0
 62 76  1  0  0  0  0
 63 65  1  0  0  0  0
 63 77  1  0  0  0  0
 64 78  1  0  0  0  0
 67 68  1  0  0  0  0
M  CHG  1  78   1
M  ISO  4  40 100  60 101  73 100  87 101
M  END
> <Batch ID>
0055

> <Smiles>
CNC(C)C(=O)NC(C(=O)N1Cc2cc([101O:1][101CH2:1]C(=O)NCC(C)(C)CNC(=O)c3cc([100NH:0][100C:0](=O)N4CCCC(n5nc(-c6ccc(Oc7ccc(F)cc7F)cc6)c(C(N)=O)c5N)C4)ccc3F)ccc2CC1C(=O)NC1CCCc2ccccc21)C(C)(C)C

> <Shape>
0.236

> <Color>
0.086

> <Negative vol penalty>
0.000

$$$$

  -OEChem-04042322493D

 85 93  0     1  0  0  0  0  0999 V2000
  -26.3740  -37.5943   19.6405 C   0  0  0  0  0  0  0  0  0  0  0  0
  -26.9475  -36.3590   19.3569 C   0  0  0  0  0  0  0  0  0  0  0  0
  -28.0688  -20.9841   23.7162 C   0  0  0  0  0  0  0  0  0  0  0  0
  -24.5149   -9.0339   21.1400 C   0  0  0  0  0  0  0  0  0  0  0  0
  -22.8413  -10.7367   21.5095 C   0  0  0  0  0  0  0  0  0  0  0  0
  -25.6331  -37.7659   20.8091 C   0  0  0  0  0  0  0  0  0  0  0  0
  -26.7814  -35.2947   20.2423 C   0  0  0  0  0  0  0  0  0  0  0  0
  -26.2366  -29.3652   18.8105 C   0  0  0  0  0  0  0  0  0  0  0  0
  -27.6591  -21.5209   22.4957 C   0  0  0  0  0  0  0  0  0  0  0  0
  -28.2072  -19.6036   23.8597 C   0  0  0  0  0  0  0  0  0  0  0  0
  -23.5325   -8.0481   21.2332 C   0  0  0  0  0  0  0  0  0  0  0  0
  -21.8588   -9.7509   21.6027 C   0  0  0  0  0  0  0  0  0  0  0  0
  -27.1529  -28.3144   18.8013 C   0  0  0  0  0  0  0  0  0  0  0  0
  -21.8169   -6.4651   23.6777 C   0  0  0  0  0  0  0  0  0  0  0  0
  -22.1013   -5.3387   24.4495 C   0  0  0  0  0  0  0  0  0  0  0  0
  -26.4185  -27.6628   21.0047 C   0  0  0  0  0  0  0  0  0  0  0  0
  -21.8061   -3.9330   22.5068 C   0  0  0  0  0  0  0  0  0  0  0  0
  -24.1693  -10.3782   21.2782 C   0  0  0  0  0  0  0  0  0  0  0  0
  -25.6086  -12.0671   20.0198 C   0  0  0  0  0  0  0  0  0  0  0  0
  -25.4497  -36.7004   21.7045 C   0  0  0  0  0  0  0  0  0  0  0  0
  -25.4106  -29.5796   19.9232 C   0  0  0  0  0  0  0  0  0  0  0  0
  -26.0385  -35.4525   21.4247 C   0  0  0  0  0  0  0  0  0  0  0  0
  -25.4908  -28.7154   21.0245 C   0  0  0  0  0  0  0  0  0  0  0  0
  -27.3877  -20.6770   21.4187 C   0  0  0  0  0  0  0  0  0  0  0  0
  -27.5260  -19.2964   21.5622 C   0  0  0  0  0  0  0  0  0  0  0  0
  -27.9357  -18.7597   22.7827 C   0  0  0  0  0  0  0  0  0  0  0  0
  -22.2045   -8.4066   21.4645 C   0  0  0  0  0  0  0  0  0  0  0  0
  -27.2460  -27.4648   19.8997 C   0  0  0  0  0  0  0  0  0  0  0  0
  -21.5270   -6.3255   22.3204 C   0  0  0  0  0  0  0  0  0  0  0  0
  -22.0960   -4.0726   23.8641 C   0  0  0  0  0  0  0  0  0  0  0  0
  -21.5216   -5.0595   21.7350 C   0  0  0  0  0  0  0  0  0  0  0  0
  -25.1838  -11.3969   21.1826 C   0  0  0  0  0  0  0  0  0  0  0  0
  -26.5827  -12.9307   20.4577 C   0  0  0  0  0  0  0  0  0  0  0  0
  -25.1625  -11.9220   18.6649 C   0  0  0  0  0  0  0  0  0  0  0  0
  -25.0272  -31.9470   22.0094 C   0  0  0  0  0  0  0  0  0  0  0  0
  -22.5597  -30.1136   23.0449 C   0  0  0  0  0  0  0  0  0  0  0  0
  -27.6792  -23.5641   19.3819 C   0  0  0  0  0  0  0  0  0  0  0  0
  -21.1538  -27.0128   23.2807 C   0  0  0  0  0  0  0  0  0  0  0  0
  -28.4827  -16.6856   24.1038 C   0  0  0  0  0  0  0  0  0  0  0  0
  -24.6804  -36.9469   22.9782 C   0  0  0  0  0  0  0  0  0  0  0  0
  -24.4087  -30.7013   19.9066 C   0  0  0  0  0  0  0  0  0  0  0  0
  -24.6124  -28.8903   22.2354 C   0  0  0  0  0  0  0  0  0  0  0  0
  -24.2374  -35.6656   23.6798 C   0  0  0  0  0  0  0  0  0  0  0  0
  -28.9323  -13.2515   24.9296 C   0  0  0  0  0  0  0  0  0  0  0  0
  -25.3909  -34.6700   23.7515 C   0  0  0  0  0  0  0  0  0  0  0  0
  -28.0321  -12.5180   23.9328 C   0  0  0  0  0  0  0  0  0  0  0  0
  -28.3110  -14.5680   25.3927 C   0  0  0  0  0  0  0  0  0  0  0  0
  -26.9969  -14.7395   23.3160 C   0  0  0  0  0  0  0  0  0  0  0  0
  -25.8599  -34.2670   22.3482 C   0  0  1  0  0  0  0  0  0  0  0  0
  -23.9767  -31.1374   21.3032 C   0  0  1  0  0  0  0  0  0  0  0  0
  -27.6099  -13.4390   22.7713 C   0  0  2  0  0  0  0  0  0  0  0  0
  -27.2337  -18.3951   20.4038 C   0  0  0  0  0  0  0  0  0  0  0  0
  -19.1525  -25.8234   24.2171 C   0  0  0  0  0  0  0  0  0  0  0  0
  -23.7676  -30.2880   25.8414 C   0  0  0  0  0  0  0  0  0  0  0  0
  -22.3172  -28.3607   26.5123 C   0  0  0  0  0  0  0  0  0  0  0  0
  -21.2770  -30.5015   25.7657 C   0  0  0  0  0  0  0  0  0  0  0  0
  -29.2356  -21.6061   19.2600 C   0  0  0  0  0  0  0  0  0  0  0  0
  -20.2803  -26.1251   20.5960 C   0  0  0  0  0  0  0  0  0  0  0  0
  -26.9483  -21.2810   20.1163 C   0  0  0  0  0  0  0  0  0  0  0  0
  -28.8236  -24.3965   18.8129 C   0  0  0  0  0  0  0  0  0  0  0  0
  -28.4610  -25.8646   18.6273 C   0  0  0  0  0  0  0  0  0  1  0  0
  -22.4015  -29.0096   24.0623 C   0  0  1  0  0  0  0  0  0  0  0  0
  -19.7444  -26.5221   23.0030 C   0  0  2  0  0  0  0  0  0  0  0  0
  -22.4589  -29.5375   25.5235 C   0  0  0  0  0  0  0  0  0  0  0  0
  -25.8348  -11.8000   22.2770 N   0  0  0  0  0  0  0  0  0  0  0  0
  -26.6787  -12.7327   21.8037 N   0  0  0  0  0  0  0  0  0  0  0  0
  -23.6531  -30.0054   22.1739 N   0  0  0  0  0  0  0  0  0  0  0  0
  -27.9400  -15.3902   24.2390 N   0  0  0  0  0  0  0  0  0  0  0  0
  -27.3581  -13.8324   19.8188 N   0  0  0  0  0  0  0  0  0  0  0  0
  -24.1535  -10.9890   18.3900 N   0  0  0  0  0  0  0  0  0  0  0  0
  -28.0834  -17.3605   22.9507 N   0  0  0  0  0  0  0  0  0  0  0  0
  -24.9479  -33.3052   21.7673 N   0  0  0  0  0  0  0  0  0  0  0  0
  -21.1619  -28.3182   23.7249 N   0  0  0  0  0  0  0  0  0  0  0  0
  -27.9448  -22.2042   19.5780 N   0  0  0  0  0  0  0  0  0  0  0  0
  -19.7452  -25.5627   21.8626 N   0  3  0  0  0  0  0  0  0  0  0  0
  -25.6559  -12.5881   17.7234 O   0  0  0  0  0  0  0  0  0  0  0  0
  -25.8480  -31.3815   22.7223 O   0  0  0  0  0  0  0  0  0  0  0  0
  -21.7391  -31.0343   23.0191 O   0  0  0  0  0  0  0  0  0  0  0  0
  -26.5934  -24.0874   19.6451 O   0  0  0  0  0  0  0  0  0  0  0  0
  -22.1479  -26.3075   23.1231 O   0  0  0  0  0  0  0  0  0  0  0  0
  -29.2668  -17.1506   24.9349 O   0  0  0  0  0  0  0  0  0  0  0  0
  -21.2455   -7.4449   21.5553 O   0  0  0  0  0  0  0  0  0  0  0  0
  -28.1399  -26.4388   19.8936 O   0  0  0  0  0  0  0  0  0  1  0  0
  -22.3707   -2.9911   24.6051 F   0  0  0  0  0  0  0  0  0  0  0  0
  -21.2450   -4.9192   20.4313 F   0  0  0  0  0  0  0  0  0  0  0  0
  1  2  1  0  0  0  0
  1  6  2  0  0  0  0
  2  7  2  0  0  0  0
  3  9  2  0  0  0  0
  3 10  1  0  0  0  0
  4 11  2  0  0  0  0
  4 18  1  0  0  0  0
  5 12  1  0  0  0  0
  5 18  2  0  0  0  0
  6 20  1  0  0  0  0
  7 22  1  0  0  0  0
  8 13  2  0  0  0  0
  8 21  1  0  0  0  0
  9 24  1  0  0  0  0
 10 26  2  0  0  0  0
 11 27  1  0  0  0  0
 12 27  2  0  0  0  0
 13 28  1  0  0  0  0
 14 15  2  0  0  0  0
 14 29  1  0  0  0  0
 15 30  1  0  0  0  0
 16 23  1  0  0  0  0
 16 28  2  0  0  0  0
 17 30  2  0  0  0  0
 17 31  1  0  0  0  0
 18 32  1  0  0  0  0
 19 32  1  0  0  0  0
 19 33  2  0  0  0  0
 19 34  1  0  0  0  0
 20 22  2  0  0  0  0
 20 40  1  0  0  0  0
 21 23  2  0  0  0  0
 21 41  1  0  0  0  0
 22 49  1  0  0  0  0
 23 42  1  0  0  0  0
 24 25  2  0  0  0  0
 24 59  1  0  0  0  0
 25 26  1  0  0  0  0
 25 52  1  0  0  0  0
 26 71  1  0  0  0  0
 27 82  1  0  0  0  0
 28 83  1  0  0  0  0
 29 31  2  0  0  0  0
 29 82  1  0  0  0  0
 30 84  1  0  0  0  0
 31 85  1  0  0  0  0
 32 65  2  0  0  0  0
 33 66  1  0  0  0  0
 33 69  1  0  0  0  0
 34 70  1  0  0  0  0
 34 76  2  0  0  0  0
 35 50  1  0  0  0  0
 35 72  1  0  0  0  0
 35 77  2  0  0  0  0
 36 62  1  0  0  0  0
 36 67  1  0  0  0  0
 36 78  2  0  0  0  0
 37 60  1  0  0  0  0
 37 74  1  0  0  0  0
 37 79  2  0  0  0  0
 38 63  1  0  0  0  0
 38 73  1  0  0  0  0
 38 80  2  0  0  0  0
 39 68  1  0  0  0  0
 39 71  1  0  0  0  0
 39 81  2  0  0  0  0
 40 43  1  0  0  0  0
 41 50  1  0  0  0  0
 42 67  1  0  0  0  0
 43 45  1  0  0  0  0
 44 46  1  0  0  0  0
 44 47  1  0  0  0  0
 45 49  1  0  0  0  0
 46 51  1  0  0  0  0
 47 68  1  0  0  0  0
 48 51  1  0  0  0  0
 48 68  1  0  0  0  0
 49 72  1  0  0  0  0
 50 67  1  0  0  0  0
 51 66  1  0  0  0  0
 53 63  1  0  0  0  0
 54 64  1  0  0  0  0
 55 64  1  0  0  0  0
 56 64  1  0  0  0  0
 57 74  1  0  0  0  0
 58 75  1  0  0  0  0
 59 74  1  0  0  0  0
 60 61  1  0  0  0  0
 61 83  1  0  0  0  0
 62 64  1  0  0  0  0
 62 73  1  0  0  0  0
 63 75  1  0  0  0  0
 65 66  1  0  0  0  0
M  CHG  1  75   1
M  ISO  4  39 100  61 101  71 100  83 101
M  END
> <Batch ID>
0055

> <Smiles>
CNC(C)C(=O)NC(C(=O)N1Cc2cc([101O:1][101CH2:1]CC(=O)N(C)Cc3cccc([100NH:0][100C:0](=O)N4CCCC(n5nc(-c6ccc(Oc7ccc(F)cc7F)cc6)c(C(N)=O)c5N)C4)c3C)ccc2CC1C(=O)NC1CCCc2ccccc21)C(C)(C)C

> <Shape>
0.280

> <Color>
0.108

> <Negative vol penalty>
0.000

$$$$

  -OEChem-04042322493D

 84 92  0     1  0  0  0  0  0999 V2000
  -21.9304  -11.4599   20.0279 C   0  0  0  0  0  0  0  0  0  0  0  0
  -21.6504  -12.7938   20.3066 C   0  0  0  0  0  0  0  0  0  0  0  0
  -18.1961  -28.0673   23.4188 C   0  0  0  0  0  0  0  0  0  0  0  0
  -30.2034  -28.2057   21.2631 C   0  0  0  0  0  0  0  0  0  0  0  0
  -28.5093  -26.7751   22.2225 C   0  0  0  0  0  0  0  0  0  0  0  0
  -23.2370  -10.9855   20.1370 C   0  0  0  0  0  0  0  0  0  0  0  0
  -22.6767  -13.6540   20.6955 C   0  0  0  0  0  0  0  0  0  0  0  0
  -22.4717  -18.1219   18.3206 C   0  0  0  0  0  0  0  0  0  0  0  0
  -19.3994  -28.7705   23.3624 C   0  0  0  0  0  0  0  0  0  0  0  0
  -31.1936  -27.4684   21.9122 C   0  0  0  0  0  0  0  0  0  0  0  0
  -29.4996  -26.0377   22.8716 C   0  0  0  0  0  0  0  0  0  0  0  0
  -21.5335  -19.0450   18.7805 C   0  0  0  0  0  0  0  0  0  0  0  0
  -34.1915  -25.7414   23.0282 C   0  0  0  0  0  0  0  0  0  0  0  0
  -35.3222  -25.3859   22.2930 C   0  0  0  0  0  0  0  0  0  0  0  0
  -17.9838  -26.9794   22.5720 C   0  0  0  0  0  0  0  0  0  0  0  0
  -23.2693  -20.1915   20.0020 C   0  0  0  0  0  0  0  0  0  0  0  0
  -33.9291  -24.1681   20.7395 C   0  0  0  0  0  0  0  0  0  0  0  0
  -28.8612  -27.8590   21.4183 C   0  0  0  0  0  0  0  0  0  0  0  0
  -27.6908  -28.8116   19.3615 C   0  0  0  0  0  0  0  0  0  0  0  0
  -24.2814  -11.8426   20.5182 C   0  0  0  0  0  0  0  0  0  0  0  0
  -23.8160  -18.2205   18.7074 C   0  0  0  0  0  0  0  0  0  0  0  0
  -23.9982  -13.1903   20.8111 C   0  0  0  0  0  0  0  0  0  0  0  0
  -24.2230  -19.2699   19.5436 C   0  0  0  0  0  0  0  0  0  0  0  0
  -20.1781  -27.2980   21.6124 C   0  0  0  0  0  0  0  0  0  0  0  0
  -20.3904  -28.3859   22.4593 C   0  0  0  0  0  0  0  0  0  0  0  0
  -30.8418  -26.3844   22.7165 C   0  0  0  0  0  0  0  0  0  0  0  0
  -21.9317  -20.0783   19.6236 C   0  0  0  0  0  0  0  0  0  0  0  0
  -32.9296  -25.3102   22.6192 C   0  0  0  0  0  0  0  0  0  0  0  0
  -35.1911  -24.5993   21.1486 C   0  0  0  0  0  0  0  0  0  0  0  0
  -32.7984  -24.5235   21.4748 C   0  0  0  0  0  0  0  0  0  0  0  0
  -18.9748  -26.5947   21.6688 C   0  0  0  0  0  0  0  0  0  0  0  0
  -27.8377  -28.6206   20.7485 C   0  0  0  0  0  0  0  0  0  0  0  0
  -26.5749  -29.6032   19.2402 C   0  0  0  0  0  0  0  0  0  0  0  0
  -20.3884  -23.2856   20.1017 C   0  0  0  0  0  0  0  0  0  0  0  0
  -19.9299  -24.1180   21.0431 C   0  0  0  0  0  0  0  0  0  0  0  0
  -28.4913  -28.3175   18.2795 C   0  0  0  0  0  0  0  0  0  0  0  0
  -25.8273  -16.3635   20.3230 C   0  0  0  0  0  0  0  0  0  0  0  0
  -27.9912  -18.6204   19.4593 C   0  0  0  0  0  0  0  0  0  0  0  0
  -28.5943  -21.8409   18.5045 C   0  0  0  0  0  0  0  0  0  0  0  0
  -21.7867  -30.4679   22.7087 C   0  0  0  0  0  0  0  0  0  0  0  0
  -25.6698  -11.2730   20.6681 C   0  0  0  0  0  0  0  0  0  0  0  0
  -24.8206  -17.2324   18.1811 C   0  0  0  0  0  0  0  0  0  0  0  0
  -25.6579  -19.4318   19.9718 C   0  0  0  0  0  0  0  0  0  0  0  0
  -26.7623  -12.3377   20.7234 C   0  0  0  0  0  0  0  0  0  0  0  0
  -24.0835  -32.9490   21.5925 C   0  0  0  0  0  0  0  0  0  0  0  0
  -26.3683  -13.4576   21.6813 C   0  0  0  0  0  0  0  0  0  0  0  0
  -25.2911  -32.1376   21.1175 C   0  0  0  0  0  0  0  0  0  0  0  0
  -23.4318  -32.3266   22.8260 C   0  0  0  0  0  0  0  0  0  0  0  0
  -24.2838  -30.0969   22.2164 C   0  0  0  0  0  0  0  0  0  0  0  0
  -25.0886  -14.1602   21.2120 C   0  0  1  0  0  0  0  0  0  0  0  0
  -26.0687  -17.1279   19.0521 C   0  0  1  0  0  0  0  0  0  0  0  0
  -24.9344  -30.6490   20.9375 C   0  0  2  0  0  0  0  0  0  0  0  0
  -21.2437  -26.8895   20.6437 C   0  0  0  0  0  0  0  0  0  0  0  0
  -30.4672  -23.4004   17.9065 C   0  0  0  0  0  0  0  0  0  0  0  0
  -28.7244  -18.8678   22.4108 C   0  0  0  0  0  0  0  0  0  0  0  0
  -29.8586  -21.0347   21.8757 C   0  0  0  0  0  0  0  0  0  0  0  0
  -30.6733  -18.9145   20.8443 C   0  0  0  0  0  0  0  0  0  0  0  0
  -27.5188  -22.2745   15.7816 C   0  0  0  0  0  0  0  0  0  0  0  0
  -21.4870  -22.3008   20.3438 C   0  0  0  0  0  0  0  0  0  1  0  0
  -28.4863  -19.9130   20.0620 C   0  0  1  0  0  0  0  0  0  0  0  0
  -29.4339  -22.4173   17.3787 C   0  0  2  0  0  0  0  0  0  0  0  0
  -29.4082  -19.6786   21.2919 C   0  0  0  0  0  0  0  0  0  0  0  0
  -26.8910  -29.2411   21.4576 N   0  0  0  0  0  0  0  0  0  0  0  0
  -18.7771  -25.8171   19.1778 N   0  0  0  0  0  0  0  0  0  0  0  0
  -26.1385  -29.8297   20.5124 N   0  0  0  0  0  0  0  0  0  0  0  0
  -26.6014  -18.4368   19.4358 N   0  0  0  0  0  0  0  0  0  0  0  0
  -23.1179  -30.9173   22.5804 N   0  0  0  0  0  0  0  0  0  0  0  0
  -25.9343  -30.1208   18.1706 N   0  0  0  0  0  0  0  0  0  0  0  0
  -28.1569  -27.0806   17.7116 N   0  0  0  0  0  0  0  0  0  0  0  0
  -21.6040  -29.1161   22.4187 N   0  0  0  0  0  0  0  0  0  0  0  0
  -25.3811  -15.0707   20.1258 N   0  0  0  0  0  0  0  0  0  0  0  0
  -29.1167  -20.6549   18.9755 N   0  0  0  0  0  0  0  0  0  0  0  0
  -28.5665  -23.1288   16.3977 N   0  3  0  0  0  0  0  0  0  0  0  0
  -29.4839  -28.9464   17.8404 O   0  0  0  0  0  0  0  0  0  0  0  0
  -26.0321  -16.9060   21.4026 O   0  0  0  0  0  0  0  0  0  0  0  0
  -28.8073  -17.8069   19.0190 O   0  0  0  0  0  0  0  0  0  0  0  0
  -27.5789  -22.3899   18.9265 O   0  0  0  0  0  0  0  0  0  0  0  0
  -20.8712  -31.2323   23.0241 O   0  0  0  0  0  0  0  0  0  0  0  0
  -17.4257  -24.6023   21.1008 O   0  0  0  0  0  0  0  0  0  0  0  0
  -31.8078  -25.6646   23.3498 O   0  0  0  0  0  0  0  0  0  0  0  0
  -21.0179  -20.9803   20.0745 O   0  0  0  0  0  0  0  0  0  1  0  0
  -36.2768  -24.2592   20.4417 F   0  0  0  0  0  0  0  0  0  0  0  0
  -31.5886  -24.1072   21.0763 F   0  0  0  0  0  0  0  0  0  0  0  0
  -18.6644  -25.1950   20.6021 S   0  0  2  0  0  0  0  0  0  0  0  0
  1  2  1  0  0  0  0
  1  6  2  0  0  0  0
  2  7  2  0  0  0  0
  3  9  1  0  0  0  0
  3 15  2  0  0  0  0
  4 10  2  0  0  0  0
  4 18  1  0  0  0  0
  5 11  1  0  0  0  0
  5 18  2  0  0  0  0
  6 20  1  0  0  0  0
  7 22  1  0  0  0  0
  8 12  2  0  0  0  0
  8 21  1  0  0  0  0
  9 25  2  0  0  0  0
 10 26  1  0  0  0  0
 11 26  2  0  0  0  0
 12 27  1  0  0  0  0
 13 14  2  0  0  0  0
 13 28  1  0  0  0  0
 14 29  1  0  0  0  0
 15 31  1  0  0  0  0
 16 23  1  0  0  0  0
 16 27  2  0  0  0  0
 17 29  2  0  0  0  0
 17 30  1  0  0  0  0
 18 32  1  0  0  0  0
 19 32  1  0  0  0  0
 19 33  2  0  0  0  0
 19 36  1  0  0  0  0
 20 22  2  0  0  0  0
 20 41  1  0  0  0  0
 21 23  2  0  0  0  0
 21 42  1  0  0  0  0
 22 50  1  0  0  0  0
 23 43  1  0  0  0  0
 24 25  1  0  0  0  0
 24 31  2  0  0  0  0
 24 53  1  0  0  0  0
 25 70  1  0  0  0  0
 26 80  1  0  0  0  0
 27 81  1  0  0  0  0
 28 30  2  0  0  0  0
 28 80  1  0  0  0  0
 29 82  1  0  0  0  0
 30 83  1  0  0  0  0
 31 84  1  0  0  0  0
 32 63  2  0  0  0  0
 33 65  1  0  0  0  0
 33 68  1  0  0  0  0
 34 35  2  0  0  0  0
 34 59  1  0  0  0  0
 35 84  1  0  0  0  0
 36 69  1  0  0  0  0
 36 74  2  0  0  0  0
 37 51  1  0  0  0  0
 37 71  1  0  0  0  0
 37 75  2  0  0  0  0
 38 60  1  0  0  0  0
 38 66  1  0  0  0  0
 38 76  2  0  0  0  0
 39 61  1  0  0  0  0
 39 72  1  0  0  0  0
 39 77  2  0  0  0  0
 40 67  1  0  0  0  0
 40 70  1  0  0  0  0
 40 78  2  0  0  0  0
 41 44  1  0  0  0  0
 42 51  1  0  0  0  0
 43 66  1  0  0  0  0
 44 46  1  0  0  0  0
 45 47  1  0  0  0  0
 45 48  1  0  0  0  0
 46 50  1  0  0  0  0
 47 52  1  0  0  0  0
 48 67  1  0  0  0  0
 49 52  1  0  0  0  0
 49 67  1  0  0  0  0
 50 71  1  0  0  0  0
 51 66  1  0  0  0  0
 52 65  1  0  0  0  0
 54 61  1  0  0  0  0
 55 62  1  0  0  0  0
 56 62  1  0  0  0  0
 57 62  1  0  0  0  0
 58 73  1  0  0  0  0
 59 81  1  0  0  0  0
 60 62  1  0  0  0  0
 60 72  1  0  0  0  0
 61 73  1  0  0  0  0
 63 65  1  0  0  0  0
 64 84  2  0  0  0  0
 79 84  2  0  0  0  0
M  CHG  1  73   1
M  ISO  4  40 100  59 101  70 100  81 101
M  END
> <Batch ID>
0055

> <Smiles>
CNC(C)C(=O)NC(C(=O)N1Cc2cc([101O:1][101CH2:1]C=CS(=N)(=O)c3cccc([100NH:0][100C:0](=O)N4CCCC(n5nc(-c6ccc(Oc7ccc(F)cc7F)cc6)c(C(N)=O)c5N)C4)c3C)ccc2CC1C(=O)NC1CCCc2ccccc21)C(C)(C)C

> <Shape>
0.238

> <Color>
0.080

> <Negative vol penalty>
0.000

$$$$

  -OEChem-04042322493D

 85 93  0     1  0  0  0  0  0999 V2000
  -17.9715  -24.5761   22.3098 C   0  0  0  0  0  0  0  0  0  0  0  0
  -19.3314  -24.3526   22.1199 C   0  0  0  0  0  0  0  0  0  0  0  0
  -33.1066  -16.7746   24.4261 C   0  0  0  0  0  0  0  0  0  0  0  0
  -22.6971  -15.7615   22.5407 C   0  0  0  0  0  0  0  0  0  0  0  0
  -21.9340  -15.5645   20.2568 C   0  0  0  0  0  0  0  0  0  0  0  0
  -17.5168  -25.8484   22.6539 C   0  0  0  0  0  0  0  0  0  0  0  0
  -20.2374  -25.4015   22.2728 C   0  0  0  0  0  0  0  0  0  0  0  0
  -24.3280  -24.0622   24.9407 C   0  0  0  0  0  0  0  0  0  0  0  0
  -32.6765  -18.0303   24.8548 C   0  0  0  0  0  0  0  0  0  0  0  0
  -32.3861  -16.0864   23.4498 C   0  0  0  0  0  0  0  0  0  0  0  0
  -21.5817  -16.5414   22.8461 C   0  0  0  0  0  0  0  0  0  0  0  0
  -20.8186  -16.3444   20.5622 C   0  0  0  0  0  0  0  0  0  0  0  0
  -25.3068  -23.3232   24.2776 C   0  0  0  0  0  0  0  0  0  0  0  0
  -20.1124  -19.6232   20.9884 C   0  0  0  0  0  0  0  0  0  0  0  0
  -19.7654  -20.6361   20.0944 C   0  0  0  0  0  0  0  0  0  0  0  0
  -26.6128  -25.3297   23.9817 C   0  0  0  0  0  0  0  0  0  0  0  0
  -17.6098  -19.5988   19.7560 C   0  0  0  0  0  0  0  0  0  0  0  0
  -22.8733  -15.2731   21.2460 C   0  0  0  0  0  0  0  0  0  0  0  0
  -24.1327  -13.0668   21.0146 C   0  0  0  0  0  0  0  0  0  0  0  0
  -18.4185  -26.9113   22.8206 C   0  0  0  0  0  0  0  0  0  0  0  0
  -24.4795  -25.4448   25.1199 C   0  0  0  0  0  0  0  0  0  0  0  0
  -19.7941  -26.6896   22.6181 C   0  0  0  0  0  0  0  0  0  0  0  0
  -25.6357  -26.0836   24.6496 C   0  0  0  0  0  0  0  0  0  0  0  0
  -31.5259  -18.5978   24.3074 C   0  0  0  0  0  0  0  0  0  0  0  0
  -30.8054  -17.9096   23.3311 C   0  0  0  0  0  0  0  0  0  0  0  0
  -31.2355  -16.6539   22.9024 C   0  0  0  0  0  0  0  0  0  0  0  0
  -20.6425  -16.8329   21.8569 C   0  0  0  0  0  0  0  0  0  0  0  0
  -26.4480  -23.9574   23.7954 C   0  0  0  0  0  0  0  0  0  0  0  0
  -19.2081  -18.5981   21.2662 C   0  0  0  0  0  0  0  0  0  0  0  0
  -18.5141  -20.6239   19.4782 C   0  0  0  0  0  0  0  0  0  0  0  0
  -17.9568  -18.5859   20.6500 C   0  0  0  0  0  0  0  0  0  0  0  0
  -24.0255  -14.4679   20.9298 C   0  0  0  0  0  0  0  0  0  0  0  0
  -25.4163  -12.7953   20.6083 C   0  0  0  0  0  0  0  0  0  0  0  0
  -29.6732  -22.5380   23.1064 C   0  0  0  0  0  0  0  0  0  0  0  0
  -30.5434  -22.1626   24.0524 C   0  0  0  0  0  0  0  0  0  0  0  0
  -23.1590  -12.0973   21.4240 C   0  0  0  0  0  0  0  0  0  0  0  0
  -22.8670  -28.0183   24.1817 C   0  0  0  0  0  0  0  0  0  0  0  0
  -24.9798  -29.5616   26.0991 C   0  0  0  0  0  0  0  0  0  0  0  0
  -28.0343  -29.5785   27.6212 C   0  0  0  0  0  0  0  0  0  0  0  0
  -30.3126  -16.4555   20.5993 C   0  0  0  0  0  0  0  0  0  0  0  0
  -17.8752  -28.2799   23.1466 C   0  0  0  0  0  0  0  0  0  0  0  0
  -23.4271  -26.2231   25.8609 C   0  0  0  0  0  0  0  0  0  0  0  0
  -25.8557  -27.5621   24.8343 C   0  0  0  0  0  0  0  0  0  0  0  0
  -18.9369  -29.2512   23.6563 C   0  0  0  0  0  0  0  0  0  0  0  0
  -28.9082  -14.4823   17.8165 C   0  0  0  0  0  0  0  0  0  0  0  0
  -20.1801  -29.1940   22.7744 C   0  0  0  0  0  0  0  0  0  0  0  0
  -27.4837  -14.1948   18.2879 C   0  0  0  0  0  0  0  0  0  0  0  0
  -29.4358  -15.7996   18.3772 C   0  0  0  0  0  0  0  0  0  0  0  0
  -27.9330  -15.6058   20.3354 C   0  0  0  0  0  0  0  0  0  0  0  0
  -20.8103  -27.7963   22.7991 C   0  0  1  0  0  0  0  0  0  0  0  0
  -23.4455  -27.7133   25.5345 C   0  0  1  0  0  0  0  0  0  0  0  0
  -27.3889  -14.2642   19.8219 C   0  0  1  0  0  0  0  0  0  0  0  0
  -29.5715  -18.5227   22.7466 C   0  0  0  0  0  0  0  0  0  0  0  0
  -29.4940  -30.9928   29.0931 C   0  0  0  0  0  0  0  0  0  0  0  0
  -25.6385  -31.3543   23.7195 C   0  0  0  0  0  0  0  0  0  0  0  0
  -27.7086  -32.0785   24.9272 C   0  0  0  0  0  0  0  0  0  0  0  0
  -25.4645  -32.5495   25.9094 C   0  0  0  0  0  0  0  0  0  0  0  0
  -30.1757  -14.5178   22.1473 C   0  0  0  0  0  0  0  0  0  0  0  0
  -28.0819  -27.5209   29.7479 C   0  0  0  0  0  0  0  0  0  0  0  0
  -32.8164  -21.4582   23.7923 C   0  0  0  0  0  0  0  0  0  0  0  0
  -31.0855  -19.9497   24.7865 C   0  0  0  0  0  0  0  0  0  0  0  0
  -28.7497  -23.7030   23.2536 C   0  0  0  0  0  0  0  0  0  1  0  0
  -26.3440  -30.1791   25.9076 C   0  0  1  0  0  0  0  0  0  0  0  0
  -28.4469  -29.8908   29.0483 C   0  0  2  0  0  0  0  0  0  0  0  0
  -26.2842  -31.5128   25.1106 C   0  0  0  0  0  0  0  0  0  0  0  0
  -25.1514  -15.0462   20.5032 N   0  0  0  0  0  0  0  0  0  0  0  0
  -25.9782  -14.0034   20.3164 N   0  0  0  0  0  0  0  0  0  0  0  0
  -24.7951  -28.2808   25.5596 N   0  0  0  0  0  0  0  0  0  0  0  0
  -29.2922  -15.8581   19.8324 N   0  0  0  0  0  0  0  0  0  0  0  0
  -26.1080  -11.6436   20.4758 N   0  0  0  0  0  0  0  0  0  0  0  0
  -21.8892  -12.5476   21.8102 N   0  0  0  0  0  0  0  0  0  0  0  0
  -21.5593  -27.6011   24.0220 N   0  0  0  0  0  0  0  0  0  0  0  0
  -26.9260  -30.3046   27.2395 N   0  0  0  0  0  0  0  0  0  0  0  0
  -30.5058  -15.9238   21.8927 N   0  0  0  0  0  0  0  0  0  0  0  0
  -29.0139  -28.6769   29.7009 N   0  3  0  0  0  0  0  0  0  0  0  0
  -31.3710  -21.0462   23.7990 N   0  3  1  0  0  0  0  0  0  0  0  0
  -23.4128  -10.8694   21.4624 O   0  0  0  0  0  0  0  0  0  0  0  0
  -23.5555  -28.5912   23.3454 O   0  0  0  0  0  0  0  0  0  0  0  0
  -24.1123  -30.1896   26.7114 O   0  0  0  0  0  0  0  0  0  0  0  0
  -28.6373  -28.7740   26.9143 O   0  0  0  0  0  0  0  0  0  0  0  0
  -31.0142  -17.3706   20.1521 O   0  0  0  0  0  0  0  0  0  0  0  0
  -19.5539  -17.5937   22.1546 O   0  0  0  0  0  0  0  0  0  0  0  0
  -27.4046  -23.2386   23.1472 O   0  0  0  0  0  0  0  0  0  1  0  0
  -18.1804  -21.5975   18.6208 F   0  0  0  0  0  0  0  0  0  0  0  0
  -17.0834  -17.6044   20.9138 F   0  0  0  0  0  0  0  0  0  0  0  0
  1  2  1  0  0  0  0
  1  6  2  0  0  0  0
  2  7  2  0  0  0  0
  3  9  2  0  0  0  0
  3 10  1  0  0  0  0
  4 11  2  0  0  0  0
  4 18  1  0  0  0  0
  5 12  1  0  0  0  0
  5 18  2  0  0  0  0
  6 20  1  0  0  0  0
  7 22  1  0  0  0  0
  8 13  2  0  0  0  0
  8 21  1  0  0  0  0
  9 24  1  0  0  0  0
 10 26  2  0  0  0  0
 11 27  1  0  0  0  0
 12 27  2  0  0  0  0
 13 28  1  0  0  0  0
 14 15  2  0  0  0  0
 14 29  1  0  0  0  0
 15 30  1  0  0  0  0
 16 23  1  0  0  0  0
 16 28  2  0  0  0  0
 17 30  2  0  0  0  0
 17 31  1  0  0  0  0
 18 32  1  0  0  0  0
 19 32  1  0  0  0  0
 19 33  2  0  0  0  0
 19 36  1  0  0  0  0
 20 22  2  0  0  0  0
 20 41  1  0  0  0  0
 21 23  2  0  0  0  0
 21 42  1  0  0  0  0
 22 50  1  0  0  0  0
 23 43  1  0  0  0  0
 24 25  2  0  0  0  0
 24 61  1  0  0  0  0
 25 26  1  0  0  0  0
 25 53  1  0  0  0  0
 26 74  1  0  0  0  0
 27 82  1  0  0  0  0
 28 83  1  0  0  0  0
 29 31  2  0  0  0  0
 29 82  1  0  0  0  0
 30 84  1  0  0  0  0
 31 85  1  0  0  0  0
 32 66  2  0  0  0  0
 33 67  1  0  0  0  0
 33 70  1  0  0  0  0
 34 35  2  0  0  0  0
 34 62  1  0  0  0  0
 35 76  1  0  0  0  0
 36 71  1  0  0  0  0
 36 77  2  0  0  0  0
 37 51  1  0  0  0  0
 37 72  1  0  0  0  0
 37 78  2  0  0  0  0
 38 63  1  0  0  0  0
 38 68  1  0  0  0  0
 38 79  2  0  0  0  0
 39 64  1  0  0  0  0
 39 73  1  0  0  0  0
 39 80  2  0  0  0  0
 40 69  1  0  0  0  0
 40 74  1  0  0  0  0
 40 81  2  0  0  0  0
 41 44  1  0  0  0  0
 42 51  1  0  0  0  0
 43 68  1  0  0  0  0
 44 46  1  0  0  0  0
 45 47  1  0  0  0  0
 45 48  1  0  0  0  0
 46 50  1  0  0  0  0
 47 52  1  0  0  0  0
 48 69  1  0  0  0  0
 49 52  1  0  0  0  0
 49 69  1  0  0  0  0
 50 72  1  0  0  0  0
 51 68  1  0  0  0  0
 52 67  1  0  0  0  0
 54 64  1  0  0  0  0
 55 65  1  0  0  0  0
 56 65  1  0  0  0  0
 57 65  1  0  0  0  0
 58 74  1  0  0  0  0
 59 75  1  0  0  0  0
 60 76  1  0  0  0  0
 61 76  1  0  0  0  0
 62 83  1  0  0  0  0
 63 65  1  0  0  0  0
 63 73  1  0  0  0  0
 64 75  1  0  0  0  0
 66 67  1  0  0  0  0
M  CHG  2  75   1  76   1
M  ISO  4  40 100  62 101  74 100  83 101
M  END
> <Batch ID>
0055

> <Smiles>
CNC(C)C(=O)NC(C(=O)N1Cc2cc([101O:1][101CH2:1]C=CN(C)Cc3cccc([100N:0](C)[100C:0](=O)N4CCCC(n5nc(-c6ccc(Oc7ccc(F)cc7F)cc6)c(C(N)=O)c5N)C4)c3C)ccc2CC1C(=O)NC1CCCc2ccccc21)C(C)(C)C

> <Shape>
0.195

> <Color>
0.117

> <Negative vol penalty>
0.000

$$$$

  -OEChem-04042322493D

 84 92  0     1  0  0  0  0  0999 V2000
  -26.9729  -37.5240   23.4331 C   0  0  0  0  0  0  0  0  0  0  0  0
  -27.6030  -36.4047   22.8986 C   0  0  0  0  0  0  0  0  0  0  0  0
  -24.2967  -12.9039   24.2109 C   0  0  0  0  0  0  0  0  0  0  0  0
  -23.4357  -14.7837   22.9611 C   0  0  0  0  0  0  0  0  0  0  0  0
  -25.8732  -37.3675   24.2758 C   0  0  0  0  0  0  0  0  0  0  0  0
  -27.1343  -35.1282   23.2073 C   0  0  0  0  0  0  0  0  0  0  0  0
  -27.0908  -30.2329   19.5277 C   0  0  0  0  0  0  0  0  0  0  0  0
  -30.1546  -19.2188   16.4331 C   0  0  0  0  0  0  0  0  0  0  0  0
  -27.7478  -19.4082   16.3412 C   0  0  0  0  0  0  0  0  0  0  0  0
  -30.0336  -17.9197   16.9262 C   0  0  0  0  0  0  0  0  0  0  0  0
  -27.6267  -18.1090   16.8343 C   0  0  0  0  0  0  0  0  0  0  0  0
  -23.7472  -13.4296   25.3802 C   0  0  0  0  0  0  0  0  0  0  0  0
  -22.8861  -15.3094   24.1304 C   0  0  0  0  0  0  0  0  0  0  0  0
  -27.9480  -29.1395   19.4110 C   0  0  0  0  0  0  0  0  0  0  0  0
  -20.7066  -13.5903   26.8505 C   0  0  0  0  0  0  0  0  0  0  0  0
  -20.0207  -12.7166   27.6942 C   0  0  0  0  0  0  0  0  0  0  0  0
  -26.4908  -27.8525   20.8391 C   0  0  0  0  0  0  0  0  0  0  0  0
  -21.5735  -13.2183   29.4759 C   0  0  0  0  0  0  0  0  0  0  0  0
  -24.1410  -13.5810   23.0013 C   0  0  0  0  0  0  0  0  0  0  0  0
  -24.0935  -12.1545   20.8869 C   0  0  0  0  0  0  0  0  0  0  0  0
  -25.3848  -36.0888   24.5872 C   0  0  0  0  0  0  0  0  0  0  0  0
  -25.9309  -30.1476   20.3111 C   0  0  0  0  0  0  0  0  0  0  0  0
  -26.0278  -34.9544   24.0559 C   0  0  0  0  0  0  0  0  0  0  0  0
  -25.6192  -28.9453   20.9620 C   0  0  0  0  0  0  0  0  0  0  0  0
  -29.0117  -19.9631   16.1406 C   0  0  0  0  0  0  0  0  0  0  0  0
  -28.7696  -17.3648   17.1268 C   0  0  0  0  0  0  0  0  0  0  0  0
  -23.0419  -14.6323   25.3400 C   0  0  0  0  0  0  0  0  0  0  0  0
  -27.6495  -27.9500   20.0691 C   0  0  0  0  0  0  0  0  0  0  0  0
  -21.8260  -14.2779   27.3194 C   0  0  0  0  0  0  0  0  0  0  0  0
  -20.4542  -12.5307   29.0069 C   0  0  0  0  0  0  0  0  0  0  0  0
  -22.2594  -14.0920   28.6321 C   0  0  0  0  0  0  0  0  0  0  0  0
  -24.7089  -13.0387   21.7932 C   0  0  0  0  0  0  0  0  0  0  0  0
  -25.0414  -11.9439   19.9155 C   0  0  0  0  0  0  0  0  0  0  0  0
  -28.2707  -23.9123   18.2351 C   0  0  0  0  0  0  0  0  0  0  0  0
  -28.7352  -24.6207   19.2735 C   0  0  0  0  0  0  0  0  0  0  0  0
  -22.7823  -11.5755   20.9202 C   0  0  0  0  0  0  0  0  0  0  0  0
  -29.1628  -22.9652   17.5113 C   0  0  0  0  0  0  0  0  0  0  0  0
  -24.8588  -31.6446   22.9020 C   0  0  0  0  0  0  0  0  0  0  0  0
  -22.1760  -29.9190   22.3127 C   0  0  0  0  0  0  0  0  0  0  0  0
  -20.7602  -27.1617   20.8847 C   0  0  0  0  0  0  0  0  0  0  0  0
  -29.6781  -15.1709   17.9682 C   0  0  0  0  0  0  0  0  0  0  0  0
  -24.2223  -35.9680   25.5405 C   0  0  0  0  0  0  0  0  0  0  0  0
  -25.0028  -31.3275   20.4051 C   0  0  0  0  0  0  0  0  0  0  0  0
  -24.3759  -28.7958   21.7988 C   0  0  0  0  0  0  0  0  0  0  0  0
  -23.5568  -34.5943   25.5185 C   0  0  0  0  0  0  0  0  0  0  0  0
  -29.7857  -11.8581   19.2686 C   0  0  0  0  0  0  0  0  0  0  0  0
  -24.6085  -33.4907   25.5688 C   0  0  0  0  0  0  0  0  0  0  0  0
  -28.4375  -11.7023   19.9759 C   0  0  0  0  0  0  0  0  0  0  0  0
  -30.3471  -13.2705   19.4228 C   0  0  0  0  0  0  0  0  0  0  0  0
  -28.0842  -14.1931   19.7343 C   0  0  0  0  0  0  0  0  0  0  0  0
  -25.5337  -33.5541   24.3475 C   0  0  1  0  0  0  0  0  0  0  0  0
  -24.1148  -31.2919   21.6451 C   0  0  1  0  0  0  0  0  0  0  0  0
  -27.4479  -12.8054   19.5521 C   0  0  2  0  0  0  0  0  0  0  0  0
  -18.5522  -26.0027   20.6041 C   0  0  0  0  0  0  0  0  0  0  0  0
  -22.3384  -28.9181   25.1905 C   0  0  0  0  0  0  0  0  0  0  0  0
  -20.7356  -27.0963   24.5737 C   0  0  0  0  0  0  0  0  0  0  0  0
  -20.0302  -29.4835   24.4113 C   0  0  0  0  0  0  0  0  0  0  0  0
  -20.8689  -27.4177   17.9383 C   0  0  0  0  0  0  0  0  0  0  0  0
  -29.1421  -21.3615   15.6098 C   0  0  0  0  0  0  0  0  0  0  0  0
  -27.8962  -25.5847   20.0489 C   0  0  0  0  0  0  0  0  0  1  0  0
  -21.6688  -28.5577   22.7232 C   0  0  1  0  0  0  0  0  0  0  0  0
  -19.5324  -27.0001   20.0066 C   0  0  2  0  0  0  0  0  0  0  0  0
  -21.2178  -28.5170   24.2106 C   0  0  0  0  0  0  0  0  0  0  0  0
  -25.9516  -13.3671   21.4300 N   0  0  0  0  0  0  0  0  0  0  0  0
  -26.1248  -12.6855   20.2848 N   0  0  0  0  0  0  0  0  0  0  0  0
  -23.5033  -29.9797   21.8649 N   0  0  0  0  0  0  0  0  0  0  0  0
  -29.3564  -14.2620   18.9983 N   0  0  0  0  0  0  0  0  0  0  0  0
  -25.0455  -11.1984   18.7901 N   0  0  0  0  0  0  0  0  0  0  0  0
  -21.9363  -11.8982   21.9900 N   0  0  0  0  0  0  0  0  0  0  0  0
  -28.6464  -16.0450   17.6275 N   0  0  0  0  0  0  0  0  0  0  0  0
  -28.5034  -22.3296   16.4730 N   0  0  0  0  0  0  0  0  0  0  0  0
  -24.8753  -32.9970   23.1853 N   0  0  0  0  0  0  0  0  0  0  0  0
  -20.6201  -28.2087   21.7710 N   0  0  0  0  0  0  0  0  0  0  0  0
  -19.9244  -26.5198   18.6514 N   0  3  0  0  0  0  0  0  0  0  0  0
  -22.3789  -10.7820   20.0363 O   0  0  0  0  0  0  0  0  0  0  0  0
  -30.3367  -22.7957   17.8244 O   0  0  0  0  0  0  0  0  0  0  0  0
  -25.3780  -30.7555   23.5665 O   0  0  0  0  0  0  0  0  0  0  0  0
  -21.4201  -30.8915   22.3799 O   0  0  0  0  0  0  0  0  0  0  0  0
  -21.7435  -26.4298   20.7960 O   0  0  0  0  0  0  0  0  0  0  0  0
  -30.7779  -15.1557   17.4095 O   0  0  0  0  0  0  0  0  0  0  0  0
  -22.5053  -15.1455   26.4807 O   0  0  0  0  0  0  0  0  0  0  0  0
  -28.4848  -26.8815   19.9575 O   0  0  0  0  0  0  0  0  0  1  0  0
  -19.7945  -11.6928   29.8176 F   0  0  0  0  0  0  0  0  0  0  0  0
  -23.3334  -14.7507   29.0886 F   0  0  0  0  0  0  0  0  0  0  0  0
  1  2  1  0  0  0  0
  1  5  2  0  0  0  0
  2  6  2  0  0  0  0
  3 12  2  0  0  0  0
  3 19  1  0  0  0  0
  4 13  1  0  0  0  0
  4 19  2  0  0  0  0
  5 21  1  0  0  0  0
  6 23  1  0  0  0  0
  7 14  2  0  0  0  0
  7 22  1  0  0  0  0
  8 10  2  0  0  0  0
  8 25  1  0  0  0  0
  9 11  1  0  0  0  0
  9 25  2  0  0  0  0
 10 26  1  0  0  0  0
 11 26  2  0  0  0  0
 12 27  1  0  0  0  0
 13 27  2  0  0  0  0
 14 28  1  0  0  0  0
 15 16  2  0  0  0  0
 15 29  1  0  0  0  0
 16 30  1  0  0  0  0
 17 24  1  0  0  0  0
 17 28  2  0  0  0  0
 18 30  2  0  0  0  0
 18 31  1  0  0  0  0
 19 32  1  0  0  0  0
 20 32  1  0  0  0  0
 20 33  2  0  0  0  0
 20 36  1  0  0  0  0
 21 23  2  0  0  0  0
 21 42  1  0  0  0  0
 22 24  2  0  0  0  0
 22 43  1  0  0  0  0
 23 51  1  0  0  0  0
 24 44  1  0  0  0  0
 25 59  1  0  0  0  0
 26 70  1  0  0  0  0
 27 81  1  0  0  0  0
 28 82  1  0  0  0  0
 29 31  2  0  0  0  0
 29 81  1  0  0  0  0
 30 83  1  0  0  0  0
 31 84  1  0  0  0  0
 32 64  2  0  0  0  0
 33 65  1  0  0  0  0
 33 68  1  0  0  0  0
 34 35  2  0  0  0  0
 34 37  1  0  0  0  0
 35 60  1  0  0  0  0
 36 69  1  0  0  0  0
 36 75  2  0  0  0  0
 37 71  1  0  0  0  0
 37 76  2  0  0  0  0
 38 52  1  0  0  0  0
 38 72  1  0  0  0  0
 38 77  2  0  0  0  0
 39 61  1  0  0  0  0
 39 66  1  0  0  0  0
 39 78  2  0  0  0  0
 40 62  1  0  0  0  0
 40 73  1  0  0  0  0
 40 79  2  0  0  0  0
 41 67  1  0  0  0  0
 41 70  1  0  0  0  0
 41 80  2  0  0  0  0
 42 45  1  0  0  0  0
 43 52  1  0  0  0  0
 44 66  1  0  0  0  0
 45 47  1  0  0  0  0
 46 48  1  0  0  0  0
 46 49  1  0  0  0  0
 47 51  1  0  0  0  0
 48 53  1  0  0  0  0
 49 67  1  0  0  0  0
 50 53  1  0  0  0  0
 50 67  1  0  0  0  0
 51 72  1  0  0  0  0
 52 66  1  0  0  0  0
 53 65  1  0  0  0  0
 54 62  1  0  0  0  0
 55 63  1  0  0  0  0
 56 63  1  0  0  0  0
 57 63  1  0  0  0  0
 58 74  1  0  0  0  0
 59 71  1  0  0  0  0
 60 82  1  0  0  0  0
 61 63  1  0  0  0  0
 61 73  1  0  0  0  0
 62 74  1  0  0  0  0
 64 65  1  0  0  0  0
M  CHG  1  74   1
M  ISO  4  41 100  60 101  70 100  82 101
M  END
> <Batch ID>
0055

> <Smiles>
CNC(C)C(=O)NC(C(=O)N1Cc2cc([101O:1][101CH2:1]C=CC(=O)NCc3ccc([100NH:0][100C:0](=O)N4CCCC(n5nc(-c6ccc(Oc7ccc(F)cc7F)cc6)c(C(N)=O)c5N)C4)cc3)ccc2CC1C(=O)NC1CCCc2ccccc21)C(C)(C)C

> <Shape>
0.272

> <Color>
0.095

> <Negative vol penalty>
0.000

$$$$

  -OEChem-04042322493D

 85 93  0     1  0  0  0  0  0999 V2000
  -28.3858  -37.4837   21.7965 C   0  0  0  0  0  0  0  0  0  0  0  0
  -28.7866  -36.2190   21.3775 C   0  0  0  0  0  0  0  0  0  0  0  0
  -30.9061  -18.0838   18.3094 C   0  0  0  0  0  0  0  0  0  0  0  0
  -22.3632  -14.7763   24.0716 C   0  0  0  0  0  0  0  0  0  0  0  0
  -23.0735  -16.5097   22.5458 C   0  0  0  0  0  0  0  0  0  0  0  0
  -27.4203  -37.6128   22.7940 C   0  0  0  0  0  0  0  0  0  0  0  0
  -28.2228  -35.0827   21.9568 C   0  0  0  0  0  0  0  0  0  0  0  0
  -27.0215  -29.7517   19.1922 C   0  0  0  0  0  0  0  0  0  0  0  0
  -31.3616  -17.1983   19.2860 C   0  0  0  0  0  0  0  0  0  0  0  0
  -30.3002  -19.2833   18.6835 C   0  0  0  0  0  0  0  0  0  0  0  0
  -21.3418  -15.6043   24.5369 C   0  0  0  0  0  0  0  0  0  0  0  0
  -22.0520  -17.3377   23.0111 C   0  0  0  0  0  0  0  0  0  0  0  0
  -27.7133  -28.5421   19.1464 C   0  0  0  0  0  0  0  0  0  0  0  0
  -21.0260  -18.2199   26.6543 C   0  0  0  0  0  0  0  0  0  0  0  0
  -20.8324  -18.2965   28.0335 C   0  0  0  0  0  0  0  0  0  0  0  0
  -26.3537  -27.7030   20.9538 C   0  0  0  0  0  0  0  0  0  0  0  0
  -18.5776  -17.4722   27.7628 C   0  0  0  0  0  0  0  0  0  0  0  0
  -23.2291  -15.2289   23.0761 C   0  0  0  0  0  0  0  0  0  0  0  0
  -24.2187  -13.4606   21.5264 C   0  0  0  0  0  0  0  0  0  0  0  0
  -26.8375  -36.4776   23.3790 C   0  0  0  0  0  0  0  0  0  0  0  0
  -25.9963  -29.9503   20.1281 C   0  0  0  0  0  0  0  0  0  0  0  0
  -27.2496  -35.1969   22.9640 C   0  0  0  0  0  0  0  0  0  0  0  0
  -25.6488  -28.9152   21.0078 C   0  0  0  0  0  0  0  0  0  0  0  0
  -31.2112  -17.5120   20.6368 C   0  0  0  0  0  0  0  0  0  0  0  0
  -30.6053  -18.7115   21.0109 C   0  0  0  0  0  0  0  0  0  0  0  0
  -30.1498  -19.5971   20.0343 C   0  0  0  0  0  0  0  0  0  0  0  0
  -21.1861  -16.8850   24.0067 C   0  0  0  0  0  0  0  0  0  0  0  0
  -27.3814  -27.5186   20.0291 C   0  0  0  0  0  0  0  0  0  0  0  0
  -19.9953  -17.7695   25.8293 C   0  0  0  0  0  0  0  0  0  0  0  0
  -19.6082  -17.9226   28.5878 C   0  0  0  0  0  0  0  0  0  0  0  0
  -18.7711  -17.3956   26.3836 C   0  0  0  0  0  0  0  0  0  0  0  0
  -24.2849  -14.3742   22.5954 C   0  0  0  0  0  0  0  0  0  0  0  0
  -25.4724  -12.9021   21.4741 C   0  0  0  0  0  0  0  0  0  0  0  0
  -28.4592  -22.9379   20.3045 C   0  0  0  0  0  0  0  0  0  0  0  0
  -27.9236  -23.9871   19.6653 C   0  0  0  0  0  0  0  0  0  0  0  0
  -23.1221  -13.1452   20.6583 C   0  0  0  0  0  0  0  0  0  0  0  0
  -29.0337  -21.7942   19.5355 C   0  0  0  0  0  0  0  0  0  0  0  0
  -25.5282  -31.9535   22.5513 C   0  0  0  0  0  0  0  0  0  0  0  0
  -22.5998  -30.5604   22.6279 C   0  0  0  0  0  0  0  0  0  0  0  0
  -20.6595  -27.8522   21.8880 C   0  0  0  0  0  0  0  0  0  0  0  0
  -30.8663  -14.8175   23.2315 C   0  0  0  0  0  0  0  0  0  0  0  0
  -25.8320  -36.6671   24.4870 C   0  0  0  0  0  0  0  0  0  0  0  0
  -25.2418  -31.2514   20.1469 C   0  0  0  0  0  0  0  0  0  0  0  0
  -24.5425  -29.0708   22.0179 C   0  0  0  0  0  0  0  0  0  0  0  0
  -25.0121  -35.4148   24.7862 C   0  0  0  0  0  0  0  0  0  0  0  0
  -29.2151  -11.8343   24.2567 C   0  0  0  0  0  0  0  0  0  0  0  0
  -25.9194  -34.1921   24.8789 C   0  0  0  0  0  0  0  0  0  0  0  0
  -27.7583  -12.0646   23.8507 C   0  0  0  0  0  0  0  0  0  0  0  0
  -29.8760  -13.1225   24.7424 C   0  0  0  0  0  0  0  0  0  0  0  0
  -28.3247  -14.4884   23.4001 C   0  0  0  0  0  0  0  0  0  0  0  0
  -26.6435  -33.9405   23.5507 C   0  0  1  0  0  0  0  0  0  0  0  0
  -24.5605  -31.5277   21.4836 C   0  0  1  0  0  0  0  0  0  0  0  0
  -27.6324  -13.2294   22.8505 C   0  0  2  0  0  0  0  0  0  0  0  0
  -30.4463  -19.0439   22.4615 C   0  0  0  0  0  0  0  0  0  0  0  0
  -18.3124  -26.9916   22.1067 C   0  0  0  0  0  0  0  0  0  0  0  0
  -23.0887  -29.9857   25.5844 C   0  0  0  0  0  0  0  0  0  0  0  0
  -21.2034  -28.3401   25.5046 C   0  0  0  0  0  0  0  0  0  0  0  0
  -20.7714  -30.7526   25.0400 C   0  0  0  0  0  0  0  0  0  0  0  0
  -20.3368  -27.6491   18.9531 C   0  0  0  0  0  0  0  0  0  0  0  0
  -31.7078  -16.5460   21.6621 C   0  0  0  0  0  0  0  0  0  0  0  0
  -27.3378  -25.1658   20.3736 C   0  0  0  0  0  0  0  0  0  1  0  0
  -22.0040  -29.3618   23.3260 C   0  0  1  0  0  0  0  0  0  0  0  0
  -19.2994  -27.7388   21.2234 C   0  0  2  0  0  0  0  0  0  0  0  0
  -21.7891  -29.6075   24.8461 C   0  0  0  0  0  0  0  0  0  0  0  0
  -25.4855  -14.3976   23.1802 N   0  0  0  0  0  0  0  0  0  0  0  0
  -26.1854  -13.4918   22.4761 N   0  0  0  0  0  0  0  0  0  0  0  0
  -23.8385  -30.3637   22.0013 N   0  0  0  0  0  0  0  0  0  0  0  0
  -29.7222  -14.1867   23.7475 N   0  0  0  0  0  0  0  0  0  0  0  0
  -26.0234  -11.9688   20.6692 N   0  0  0  0  0  0  0  0  0  0  0  0
  -21.9046  -13.8122   20.8504 N   0  0  0  0  0  0  0  0  0  0  0  0
  -29.5322  -20.8208   20.3915 N   0  0  0  0  0  0  0  0  0  0  0  0
  -25.7501  -33.3166   22.5984 N   0  0  0  0  0  0  0  0  0  0  0  0
  -20.7854  -29.0284   22.5964 N   0  0  0  0  0  0  0  0  0  0  0  0
  -30.6319  -15.8108   22.2886 N   0  0  0  0  0  0  0  0  0  0  0  0
  -19.4149  -27.0114   19.9279 N   0  3  0  0  0  0  0  0  0  0  0  0
  -23.2142  -12.2851   19.7498 O   0  0  0  0  0  0  0  0  0  0  0  0
  -29.0303  -21.7855   18.3102 O   0  0  0  0  0  0  0  0  0  0  0  0
  -26.0349  -31.1081   23.2794 O   0  0  0  0  0  0  0  0  0  0  0  0
  -21.9852  -31.6300   22.6322 O   0  0  0  0  0  0  0  0  0  0  0  0
  -21.5225  -26.9824   21.7916 O   0  0  0  0  0  0  0  0  0  0  0  0
  -32.0120  -14.5139   23.5809 O   0  0  0  0  0  0  0  0  0  0  0  0
  -20.1894  -17.6933   24.4603 O   0  0  0  0  0  0  0  0  0  0  0  0
  -28.0554  -26.3371   19.9869 O   0  0  0  0  0  0  0  0  0  1  0  0
  -19.4230  -17.9948   29.9124 F   0  0  0  0  0  0  0  0  0  0  0  0
  -17.7777  -16.9610   25.5962 F   0  0  0  0  0  0  0  0  0  0  0  0
  1  2  1  0  0  0  0
  1  6  2  0  0  0  0
  2  7  2  0  0  0  0
  3  9  1  0  0  0  0
  3 10  2  0  0  0  0
  4 11  2  0  0  0  0
  4 18  1  0  0  0  0
  5 12  1  0  0  0  0
  5 18  2  0  0  0  0
  6 20  1  0  0  0  0
  7 22  1  0  0  0  0
  8 13  2  0  0  0  0
  8 21  1  0  0  0  0
  9 24  2  0  0  0  0
 10 26  1  0  0  0  0
 11 27  1  0  0  0  0
 12 27  2  0  0  0  0
 13 28  1  0  0  0  0
 14 15  2  0  0  0  0
 14 29  1  0  0  0  0
 15 30  1  0  0  0  0
 16 23  1  0  0  0  0
 16 28  2  0  0  0  0
 17 30  2  0  0  0  0
 17 31  1  0  0  0  0
 18 32  1  0  0  0  0
 19 32  1  0  0  0  0
 19 33  2  0  0  0  0
 19 36  1  0  0  0  0
 20 22  2  0  0  0  0
 20 42  1  0  0  0  0
 21 23  2  0  0  0  0
 21 43  1  0  0  0  0
 22 51  1  0  0  0  0
 23 44  1  0  0  0  0
 24 25  1  0  0  0  0
 24 60  1  0  0  0  0
 25 26  2  0  0  0  0
 25 54  1  0  0  0  0
 26 71  1  0  0  0  0
 27 82  1  0  0  0  0
 28 83  1  0  0  0  0
 29 31  2  0  0  0  0
 29 82  1  0  0  0  0
 30 84  1  0  0  0  0
 31 85  1  0  0  0  0
 32 65  2  0  0  0  0
 33 66  1  0  0  0  0
 33 69  1  0  0  0  0
 34 35  2  0  0  0  0
 34 37  1  0  0  0  0
 35 61  1  0  0  0  0
 36 70  1  0  0  0  0
 36 76  2  0  0  0  0
 37 71  1  0  0  0  0
 37 77  2  0  0  0  0
 38 52  1  0  0  0  0
 38 72  1  0  0  0  0
 38 78  2  0  0  0  0
 39 62  1  0  0  0  0
 39 67  1  0  0  0  0
 39 79  2  0  0  0  0
 40 63  1  0  0  0  0
 40 73  1  0  0  0  0
 40 80  2  0  0  0  0
 41 68  1  0  0  0  0
 41 74  1  0  0  0  0
 41 81  2  0  0  0  0
 42 45  1  0  0  0  0
 43 52  1  0  0  0  0
 44 67  1  0  0  0  0
 45 47  1  0  0  0  0
 46 48  1  0  0  0  0
 46 49  1  0  0  0  0
 47 51  1  0  0  0  0
 48 53  1  0  0  0  0
 49 68  1  0  0  0  0
 50 53  1  0  0  0  0
 50 68  1  0  0  0  0
 51 72  1  0  0  0  0
 52 67  1  0  0  0  0
 53 66  1  0  0  0  0
 55 63  1  0  0  0  0
 56 64  1  0  0  0  0
 57 64  1  0  0  0  0
 58 64  1  0  0  0  0
 59 75  1  0  0  0  0
 60 74  1  0  0  0  0
 61 83  1  0  0  0  0
 62 64  1  0  0  0  0
 62 73  1  0  0  0  0
 63 75  1  0  0  0  0
 65 66  1  0  0  0  0
M  CHG  1  75   1
M  ISO  4  41 100  61 101  74 100  83 101
M  END
> <Batch ID>
0055

> <Smiles>
CNC(C)C(=O)NC(C(=O)N1Cc2cc([101O:1][101CH2:1]C=CC(=O)Nc3cccc(C[100NH:0][100C:0](=O)N4CCCC(n5nc(-c6ccc(Oc7ccc(F)cc7F)cc6)c(C(N)=O)c5N)C4)c3C)ccc2CC1C(=O)NC1CCCc2ccccc21)C(C)(C)C

> <Shape>
0.248

> <Color>
0.078

> <Negative vol penalty>
0.000

$$$$

  -OEChem-04042322493D

 85 93  0     1  0  0  0  0  0999 V2000
  -32.6060  -23.7959   17.3753 C   0  0  0  0  0  0  0  0  0  0  0  0
  -31.6393  -23.3680   18.2797 C   0  0  0  0  0  0  0  0  0  0  0  0
  -30.5060  -17.0192   22.8241 C   0  0  0  0  0  0  0  0  0  0  0  0
  -28.2272  -16.7153   22.0811 C   0  0  0  0  0  0  0  0  0  0  0  0
  -33.1174  -25.0900   17.4636 C   0  0  0  0  0  0  0  0  0  0  0  0
  -31.1842  -24.2336   19.2736 C   0  0  0  0  0  0  0  0  0  0  0  0
  -26.1451  -24.1463   19.7679 C   0  0  0  0  0  0  0  0  0  0  0  0
  -22.2784  -20.9458   28.6146 C   0  0  0  0  0  0  0  0  0  0  0  0
  -30.7461  -15.6570   22.6449 C   0  0  0  0  0  0  0  0  0  0  0  0
  -28.4674  -15.3530   21.9018 C   0  0  0  0  0  0  0  0  0  0  0  0
  -25.5919  -23.0707   20.4614 C   0  0  0  0  0  0  0  0  0  0  0  0
  -29.9535  -13.3685   19.6053 C   0  0  0  0  0  0  0  0  0  0  0  0
  -21.6220  -20.0087   29.4124 C   0  0  0  0  0  0  0  0  0  0  0  0
  -29.4897  -12.7795   18.4290 C   0  0  0  0  0  0  0  0  0  0  0  0
  -25.3908  -24.4510   22.4296 C   0  0  0  0  0  0  0  0  0  0  0  0
  -20.6060  -19.0444   27.4439 C   0  0  0  0  0  0  0  0  0  0  0  0
  -28.1192  -11.2700   19.7253 C   0  0  0  0  0  0  0  0  0  0  0  0
  -29.2465  -17.5484   22.5423 C   0  0  0  0  0  0  0  0  0  0  0  0
  -29.1697  -19.9815   21.7794 C   0  0  0  0  0  0  0  0  0  0  0  0
  -32.6613  -25.9751   18.4532 C   0  0  0  0  0  0  0  0  0  0  0  0
  -26.3357  -25.3812   20.4043 C   0  0  0  0  0  0  0  0  0  0  0  0
  -31.6910  -25.5403   19.3761 C   0  0  0  0  0  0  0  0  0  0  0  0
  -25.9442  -25.5414   21.7412 C   0  0  0  0  0  0  0  0  0  0  0  0
  -22.0986  -20.9323   27.2314 C   0  0  0  0  0  0  0  0  0  0  0  0
  -21.2624  -19.9816   26.6461 C   0  0  0  0  0  0  0  0  0  0  0  0
  -29.7269  -14.8239   22.1837 C   0  0  0  0  0  0  0  0  0  0  0  0
  -25.2173  -23.2222   21.7933 C   0  0  0  0  0  0  0  0  0  0  0  0
  -29.5002  -12.9082   20.8416 C   0  0  0  0  0  0  0  0  0  0  0  0
  -20.7858  -19.0580   28.8271 C   0  0  0  0  0  0  0  0  0  0  0  0
  -28.5725  -11.7303   18.4890 C   0  0  0  0  0  0  0  0  0  0  0  0
  -28.5830  -11.8590   20.9016 C   0  0  0  0  0  0  0  0  0  0  0  0
  -28.9976  -18.9554   22.7278 C   0  0  0  0  0  0  0  0  0  0  0  0
  -28.8002  -21.1266   22.4416 C   0  0  0  0  0  0  0  0  0  0  0  0
  -29.6231  -19.9061   20.4213 C   0  0  0  0  0  0  0  0  0  0  0  0
  -28.8617  -27.1835   21.0932 C   0  0  0  0  0  0  0  0  0  0  0  0
  -26.6007  -29.2951   22.0684 C   0  0  0  0  0  0  0  0  0  0  0  0
  -22.5364  -20.2796   23.1862 C   0  0  0  0  0  0  0  0  0  0  0  0
  -23.4205  -29.8233   23.1882 C   0  0  0  0  0  0  0  0  0  0  0  0
  -25.1823  -22.1557   27.1003 C   0  0  0  0  0  0  0  0  0  0  0  0
  -33.2780  -27.3488   18.5385 C   0  0  0  0  0  0  0  0  0  0  0  0
  -26.9090  -26.5393   19.6345 C   0  0  0  0  0  0  0  0  0  0  0  0
  -26.1090  -26.8524   22.4642 C   0  0  0  0  0  0  0  0  0  0  0  0
  -32.4709  -28.3272   19.3880 C   0  0  0  0  0  0  0  0  0  0  0  0
  -28.6249  -23.0232   26.8306 C   0  0  0  0  0  0  0  0  0  0  0  0
  -32.0536  -27.6748   20.7022 C   0  0  0  0  0  0  0  0  0  0  0  0
  -29.1263  -22.1716   25.6629 C   0  0  0  0  0  0  0  0  0  0  0  0
  -27.5901  -22.2769   27.6698 C   0  0  0  0  0  0  0  0  0  0  0  0
  -26.9509  -20.8831   25.7404 C   0  0  0  0  0  0  0  0  0  0  0  0
  -31.1540  -26.4581   20.4529 C   0  0  1  0  0  0  0  0  0  0  0  0
  -27.5326  -27.6035   20.5324 C   0  0  1  0  0  0  0  0  0  0  0  0
  -27.9550  -21.6135   24.8324 C   0  0  2  0  0  0  0  0  0  0  0  0
  -21.8738  -31.6523   23.9365 C   0  0  0  0  0  0  0  0  0  0  0  0
  -28.0622  -29.4334   24.7432 C   0  0  0  0  0  0  0  0  0  0  0  0
  -26.0134  -30.4814   25.7293 C   0  0  0  0  0  0  0  0  0  0  0  0
  -27.2397  -31.6352   23.8888 C   0  0  0  0  0  0  0  0  0  0  0  0
  -21.5047  -29.2550   21.0052 C   0  0  0  0  0  0  0  0  0  0  0  0
  -22.8112  -21.9463   26.3981 C   0  0  0  0  0  0  0  0  0  0  0  0
  -21.0517  -19.9485   25.1599 C   0  0  0  0  0  0  0  0  0  0  0  0
  -23.9195  -19.8996   22.6810 C   0  0  0  0  0  0  0  0  0  0  0  0
  -24.5238  -20.9475   21.7593 C   0  0  0  0  0  0  0  0  0  1  0  0
  -25.8815  -29.5675   23.3675 C   0  0  1  0  0  0  0  0  0  0  0  0
  -22.3538  -30.8154   22.7610 C   0  0  2  0  0  0  0  0  0  0  0  0
  -26.7978  -30.2539   24.4195 C   0  0  0  0  0  0  0  0  0  0  0  0
  -28.5534  -19.4088   23.9030 N   0  0  0  0  0  0  0  0  0  0  0  0
  -28.4434  -20.7323   23.6975 N   0  0  0  0  0  0  0  0  0  0  0  0
  -26.6801  -27.9530   21.6705 N   0  0  0  0  0  0  0  0  0  0  0  0
  -26.5056  -21.7748   26.8227 N   0  0  0  0  0  0  0  0  0  0  0  0
  -28.7490  -22.4224   22.0662 N   0  0  0  0  0  0  0  0  0  0  0  0
  -29.9618  -18.6505   19.8987 N   0  0  0  0  0  0  0  0  0  0  0  0
  -29.8079  -26.8820   20.1324 N   0  0  0  0  0  0  0  0  0  0  0  0
  -22.2897  -19.7451   24.4426 N   0  0  0  0  0  0  0  0  0  0  0  0
  -24.6900  -30.3348   23.0214 N   0  0  0  0  0  0  0  0  0  0  0  0
  -24.2161  -21.6403   26.2450 N   0  0  0  0  0  0  0  0  0  0  0  0
  -21.1812  -30.0989   22.1842 N   0  3  0  0  0  0  0  0  0  0  0  0
  -29.7405  -20.9242   19.6979 O   0  0  0  0  0  0  0  0  0  0  0  0
  -29.0178  -27.1378   22.3078 O   0  0  0  0  0  0  0  0  0  0  0  0
  -27.0683  -30.2391   21.4266 O   0  0  0  0  0  0  0  0  0  0  0  0
  -21.7524  -20.9741   22.5450 O   0  0  0  0  0  0  0  0  0  0  0  0
  -23.1540  -28.7076   23.6296 O   0  0  0  0  0  0  0  0  0  0  0  0
  -24.8847  -22.9042   28.0373 O   0  0  0  0  0  0  0  0  0  0  0  0
  -29.9610  -13.4946   22.0084 O   0  0  0  0  0  0  0  0  0  0  0  0
  -24.6777  -22.1738   22.4727 O   0  0  0  0  0  0  0  0  0  1  0  0
  -20.1559  -18.1576   29.5930 F   0  0  0  0  0  0  0  0  0  0  0  0
  -28.1260  -11.1658   17.3594 F   0  0  0  0  0  0  0  0  0  0  0  0
  -28.1430  -11.4133   22.0863 F   0  0  0  0  0  0  0  0  0  0  0  0
  1  2  1  0  0  0  0
  1  5  2  0  0  0  0
  2  6  2  0  0  0  0
  3  9  2  0  0  0  0
  3 18  1  0  0  0  0
  4 10  1  0  0  0  0
  4 18  2  0  0  0  0
  5 20  1  0  0  0  0
  6 22  1  0  0  0  0
  7 11  2  0  0  0  0
  7 21  1  0  0  0  0
  8 13  2  0  0  0  0
  8 24  1  0  0  0  0
  9 26  1  0  0  0  0
 10 26  2  0  0  0  0
 11 27  1  0  0  0  0
 12 14  2  0  0  0  0
 12 28  1  0  0  0  0
 13 29  1  0  0  0  0
 14 30  1  0  0  0  0
 15 23  1  0  0  0  0
 15 27  2  0  0  0  0
 16 25  1  0  0  0  0
 16 29  2  0  0  0  0
 17 30  2  0  0  0  0
 17 31  1  0  0  0  0
 18 32  1  0  0  0  0
 19 32  1  0  0  0  0
 19 33  2  0  0  0  0
 19 34  1  0  0  0  0
 20 22  2  0  0  0  0
 20 40  1  0  0  0  0
 21 23  2  0  0  0  0
 21 41  1  0  0  0  0
 22 49  1  0  0  0  0
 23 42  1  0  0  0  0
 24 25  2  0  0  0  0
 24 57  1  0  0  0  0
 25 58  1  0  0  0  0
 26 81  1  0  0  0  0
 27 82  1  0  0  0  0
 28 31  2  0  0  0  0
 28 81  1  0  0  0  0
 29 83  1  0  0  0  0
 30 84  1  0  0  0  0
 31 85  1  0  0  0  0
 32 64  2  0  0  0  0
 33 65  1  0  0  0  0
 33 68  1  0  0  0  0
 34 69  1  0  0  0  0
 34 75  2  0  0  0  0
 35 50  1  0  0  0  0
 35 70  1  0  0  0  0
 35 76  2  0  0  0  0
 36 61  1  0  0  0  0
 36 66  1  0  0  0  0
 36 77  2  0  0  0  0
 37 59  1  0  0  0  0
 37 71  1  0  0  0  0
 37 78  2  0  0  0  0
 38 62  1  0  0  0  0
 38 72  1  0  0  0  0
 38 79  2  0  0  0  0
 39 67  1  0  0  0  0
 39 73  1  0  0  0  0
 39 80  2  0  0  0  0
 40 43  1  0  0  0  0
 41 50  1  0  0  0  0
 42 66  1  0  0  0  0
 43 45  1  0  0  0  0
 44 46  1  0  0  0  0
 44 47  1  0  0  0  0
 45 49  1  0  0  0  0
 46 51  1  0  0  0  0
 47 67  1  0  0  0  0
 48 51  1  0  0  0  0
 48 67  1  0  0  0  0
 49 70  1  0  0  0  0
 50 66  1  0  0  0  0
 51 65  1  0  0  0  0
 52 62  1  0  0  0  0
 53 63  1  0  0  0  0
 54 63  1  0  0  0  0
 55 63  1  0  0  0  0
 56 74  1  0  0  0  0
 57 73  1  0  0  0  0
 58 71  1  0  0  0  0
 59 60  1  0  0  0  0
 60 82  1  0  0  0  0
 61 63  1  0  0  0  0
 61 72  1  0  0  0  0
 62 74  1  0  0  0  0
 64 65  1  0  0  0  0
M  CHG  1  74   1
M  ISO  4  39 100  60 101  73 100  82 101
M  END
> <Batch ID>
0055

> <Smiles>
CNC(C)C(=O)NC(C(=O)N1Cc2cc([101O:1][101CH2:1]CC(=O)NCc3cc(F)ccc3C[100NH:0][100C:0](=O)N3CCCC(n4nc(-c5ccc(Oc6ccc(F)cc6F)cc5)c(C(N)=O)c4N)C3)ccc2CC1C(=O)NC1CCCc2ccccc21)C(C)(C)C

> <Shape>
0.205

> <Color>
0.057

> <Negative vol penalty>
0.000

$$$$

  -OEChem-04042322493D

 84 92  0     1  0  0  0  0  0999 V2000
  -33.0622  -29.4957   12.1285 C   0  0  0  0  0  0  0  0  0  0  0  0
  -32.8411  -29.0280   13.4200 C   0  0  0  0  0  0  0  0  0  0  0  0
  -32.7272  -17.4555   23.2442 C   0  0  0  0  0  0  0  0  0  0  0  0
  -22.9616   -9.9263   20.0637 C   0  0  0  0  0  0  0  0  0  0  0  0
  -23.6716  -10.0752   22.3681 C   0  0  0  0  0  0  0  0  0  0  0  0
  -32.0822  -30.2495   11.4840 C   0  0  0  0  0  0  0  0  0  0  0  0
  -31.6403  -29.3150   14.0682 C   0  0  0  0  0  0  0  0  0  0  0  0
  -29.6882  -25.2765   16.4187 C   0  0  0  0  0  0  0  0  0  0  0  0
  -31.9450  -18.4017   23.9064 C   0  0  0  0  0  0  0  0  0  0  0  0
  -32.1276  -16.5277   22.3925 C   0  0  0  0  0  0  0  0  0  0  0  0
  -22.1714   -8.8208   20.3785 C   0  0  0  0  0  0  0  0  0  0  0  0
  -22.8814   -8.9698   22.6831 C   0  0  0  0  0  0  0  0  0  0  0  0
  -30.2536  -24.9162   17.6411 C   0  0  0  0  0  0  0  0  0  0  0  0
  -23.0643   -5.6079   22.3752 C   0  0  0  0  0  0  0  0  0  0  0  0
  -23.6269   -4.6174   23.1803 C   0  0  0  0  0  0  0  0  0  0  0  0
  -28.4363  -26.0045   18.7954 C   0  0  0  0  0  0  0  0  0  0  0  0
  -29.9636  -17.4923   22.8653 C   0  0  0  0  0  0  0  0  0  0  0  0
  -21.8964   -4.9740   24.8282 C   0  0  0  0  0  0  0  0  0  0  0  0
  -23.7118  -10.5535   21.0585 C   0  0  0  0  0  0  0  0  0  0  0  0
  -24.1469  -13.0498   20.7639 C   0  0  0  0  0  0  0  0  0  0  0  0
  -30.8649  -30.5376   12.1210 C   0  0  0  0  0  0  0  0  0  0  0  0
  -28.4963  -26.0141   16.3755 C   0  0  0  0  0  0  0  0  0  0  0  0
  -30.6437  -30.0745   13.4321 C   0  0  0  0  0  0  0  0  0  0  0  0
  -27.8565  -26.3706   17.5712 C   0  0  0  0  0  0  0  0  0  0  0  0
  -30.5632  -18.4201   23.7169 C   0  0  0  0  0  0  0  0  0  0  0  0
  -30.7458  -16.5461   22.2031 C   0  0  0  0  0  0  0  0  0  0  0  0
  -22.1313   -8.3426   21.6882 C   0  0  0  0  0  0  0  0  0  0  0  0
  -29.6292  -25.2827   18.8298 C   0  0  0  0  0  0  0  0  0  0  0  0
  -21.9179   -6.2815   22.7967 C   0  0  0  0  0  0  0  0  0  0  0  0
  -23.0429   -4.3004   24.4067 C   0  0  0  0  0  0  0  0  0  0  0  0
  -21.3339   -5.9646   24.0231 C   0  0  0  0  0  0  0  0  0  0  0  0
  -24.5287  -11.6951   20.7337 C   0  0  0  0  0  0  0  0  0  0  0  0
  -25.2730  -13.7326   20.3737 C   0  0  0  0  0  0  0  0  0  0  0  0
  -29.3456  -22.5749   22.3849 C   0  0  0  0  0  0  0  0  0  0  0  0
  -29.9047  -23.7501   22.0657 C   0  0  0  0  0  0  0  0  0  0  0  0
  -22.8871  -13.6383   21.1136 C   0  0  0  0  0  0  0  0  0  0  0  0
  -30.0192  -21.6573   23.3448 C   0  0  0  0  0  0  0  0  0  0  0  0
  -27.6675  -28.8742   15.2637 C   0  0  0  0  0  0  0  0  0  0  0  0
  -24.6836  -27.8927   16.0731 C   0  0  0  0  0  0  0  0  0  0  0  0
  -22.7219  -25.8641   17.9924 C   0  0  0  0  0  0  0  0  0  0  0  0
  -30.7683  -14.5996   20.6040 C   0  0  0  0  0  0  0  0  0  0  0  0
  -29.8547  -31.3962   11.4019 C   0  0  0  0  0  0  0  0  0  0  0  0
  -27.8852  -26.3718   15.0485 C   0  0  0  0  0  0  0  0  0  0  0  0
  -26.5648  -27.1451   17.5789 C   0  0  0  0  0  0  0  0  0  0  0  0
  -28.4588  -31.3390   12.0171 C   0  0  0  0  0  0  0  0  0  0  0  0
  -29.6188  -12.0584   18.3908 C   0  0  0  0  0  0  0  0  0  0  0  0
  -28.5371  -31.4879   13.5331 C   0  0  0  0  0  0  0  0  0  0  0  0
  -28.1607  -11.8488   18.8055 C   0  0  0  0  0  0  0  0  0  0  0  0
  -30.5155  -12.3431   19.5944 C   0  0  0  0  0  0  0  0  0  0  0  0
  -28.6066  -13.2320   20.8731 C   0  0  0  0  0  0  0  0  0  0  0  0
  -29.3440  -30.3439   14.1589 C   0  0  1  0  0  0  0  0  0  0  0  0
  -26.9399  -27.5665   15.1286 C   0  0  1  0  0  0  0  0  0  0  0  0
  -27.6537  -13.0064   19.6878 C   0  0  2  0  0  0  0  0  0  0  0  0
  -20.3179  -25.3151   18.4577 C   0  0  0  0  0  0  0  0  0  0  0  0
  -24.4118  -30.4651   17.6913 C   0  0  0  0  0  0  0  0  0  0  0  0
  -22.4500  -29.4398   18.8610 C   0  0  0  0  0  0  0  0  0  0  0  0
  -22.3692  -29.8256   16.3978 C   0  0  0  0  0  0  0  0  0  0  0  0
  -23.0757  -23.0553   17.1295 C   0  0  0  0  0  0  0  0  0  0  0  0
  -29.7217  -19.4388   24.4299 C   0  0  0  0  0  0  0  0  0  0  0  0
  -29.2835  -24.7220   21.1149 C   0  0  0  0  0  0  0  0  0  1  0  0
  -23.8304  -27.9778   17.3156 C   0  0  1  0  0  0  0  0  0  0  0  0
  -21.5501  -24.9667   17.6373 C   0  0  2  0  0  0  0  0  0  0  0  0
  -23.2907  -29.4142   17.5666 C   0  0  0  0  0  0  0  0  0  0  0  0
  -25.7980  -11.5254   20.3541 N   0  0  0  0  0  0  0  0  0  0  0  0
  -26.2236  -12.7824   20.1421 N   0  0  0  0  0  0  0  0  0  0  0  0
  -26.0100  -27.4769   16.2562 N   0  0  0  0  0  0  0  0  0  0  0  0
  -29.9753  -13.4541   20.3810 N   0  0  0  0  0  0  0  0  0  0  0  0
  -25.5328  -15.0471   20.2095 N   0  0  0  0  0  0  0  0  0  0  0  0
  -21.8361  -12.7916   21.4914 N   0  0  0  0  0  0  0  0  0  0  0  0
  -30.1372  -15.6039   21.3373 N   0  0  0  0  0  0  0  0  0  0  0  0
  -29.2896  -20.4980   23.5458 N   0  0  0  0  0  0  0  0  0  0  0  0
  -28.5436  -29.1401   14.2287 N   0  0  0  0  0  0  0  0  0  0  0  0
  -22.7899  -26.9661   17.1664 N   0  0  0  0  0  0  0  0  0  0  0  0
  -21.8954  -23.5393   17.8908 N   0  3  0  0  0  0  0  0  0  0  0  0
  -22.6942  -14.8772   21.0758 O   0  0  0  0  0  0  0  0  0  0  0  0
  -31.0925  -21.9287   23.8731 O   0  0  0  0  0  0  0  0  0  0  0  0
  -27.4490  -29.5898   16.2342 O   0  0  0  0  0  0  0  0  0  0  0  0
  -24.1893  -28.1775   14.9794 O   0  0  0  0  0  0  0  0  0  0  0  0
  -23.4971  -25.6145   18.9129 O   0  0  0  0  0  0  0  0  0  0  0  0
  -31.9125  -14.6947   20.1527 O   0  0  0  0  0  0  0  0  0  0  0  0
  -21.3602   -7.2641   21.9959 O   0  0  0  0  0  0  0  0  0  0  0  0
  -30.1793  -24.9330   20.0243 O   0  0  0  0  0  0  0  0  0  1  0  0
  -23.5823   -3.3482   25.1790 F   0  0  0  0  0  0  0  0  0  0  0  0
  -20.2318   -6.6074   24.4328 F   0  0  0  0  0  0  0  0  0  0  0  0
  1  2  1  0  0  0  0
  1  6  2  0  0  0  0
  2  7  2  0  0  0  0
  3  9  2  0  0  0  0
  3 10  1  0  0  0  0
  4 11  2  0  0  0  0
  4 19  1  0  0  0  0
  5 12  1  0  0  0  0
  5 19  2  0  0  0  0
  6 21  1  0  0  0  0
  7 23  1  0  0  0  0
  8 13  2  0  0  0  0
  8 22  1  0  0  0  0
  9 25  1  0  0  0  0
 10 26  2  0  0  0  0
 11 27  1  0  0  0  0
 12 27  2  0  0  0  0
 13 28  1  0  0  0  0
 14 15  2  0  0  0  0
 14 29  1  0  0  0  0
 15 30  1  0  0  0  0
 16 24  1  0  0  0  0
 16 28  2  0  0  0  0
 17 25  2  0  0  0  0
 17 26  1  0  0  0  0
 18 30  2  0  0  0  0
 18 31  1  0  0  0  0
 19 32  1  0  0  0  0
 20 32  1  0  0  0  0
 20 33  2  0  0  0  0
 20 36  1  0  0  0  0
 21 23  2  0  0  0  0
 21 42  1  0  0  0  0
 22 24  2  0  0  0  0
 22 43  1  0  0  0  0
 23 51  1  0  0  0  0
 24 44  1  0  0  0  0
 25 59  1  0  0  0  0
 26 70  1  0  0  0  0
 27 81  1  0  0  0  0
 28 82  1  0  0  0  0
 29 31  2  0  0  0  0
 29 81  1  0  0  0  0
 30 83  1  0  0  0  0
 31 84  1  0  0  0  0
 32 64  2  0  0  0  0
 33 65  1  0  0  0  0
 33 68  1  0  0  0  0
 34 35  2  0  0  0  0
 34 37  1  0  0  0  0
 35 60  1  0  0  0  0
 36 69  1  0  0  0  0
 36 75  2  0  0  0  0
 37 71  1  0  0  0  0
 37 76  2  0  0  0  0
 38 52  1  0  0  0  0
 38 72  1  0  0  0  0
 38 77  2  0  0  0  0
 39 61  1  0  0  0  0
 39 66  1  0  0  0  0
 39 78  2  0  0  0  0
 40 62  1  0  0  0  0
 40 73  1  0  0  0  0
 40 79  2  0  0  0  0
 41 67  1  0  0  0  0
 41 70  1  0  0  0  0
 41 80  2  0  0  0  0
 42 45  1  0  0  0  0
 43 52  1  0  0  0  0
 44 66  1  0  0  0  0
 45 47  1  0  0  0  0
 46 48  1  0  0  0  0
 46 49  1  0  0  0  0
 47 51  1  0  0  0  0
 48 53  1  0  0  0  0
 49 67  1  0  0  0  0
 50 53  1  0  0  0  0
 50 67  1  0  0  0  0
 51 72  1  0  0  0  0
 52 66  1  0  0  0  0
 53 65  1  0  0  0  0
 54 62  1  0  0  0  0
 55 63  1  0  0  0  0
 56 63  1  0  0  0  0
 57 63  1  0  0  0  0
 58 74  1  0  0  0  0
 59 71  1  0  0  0  0
 60 82  1  0  0  0  0
 61 63  1  0  0  0  0
 61 73  1  0  0  0  0
 62 74  1  0  0  0  0
 64 65  1  0  0  0  0
M  CHG  1  74   1
M  ISO  4  41 100  60 101  70 100  82 101
M  END
> <Batch ID>
0055

> <Smiles>
CNC(C)C(=O)NC(C(=O)N1Cc2cc([101O:1][101CH2:1]C=CC(=O)NCc3cccc([100NH:0][100C:0](=O)N4CCCC(n5nc(-c6ccc(Oc7ccc(F)cc7F)cc6)c(C(N)=O)c5N)C4)c3)ccc2CC1C(=O)NC1CCCc2ccccc21)C(C)(C)C

> <Shape>
0.218

> <Color>
0.204

> <Negative vol penalty>
0.000

$$$$

  -OEChem-04042322493D

 85 93  0     1  0  0  0  0  0999 V2000
  -28.7139  -25.0059   16.5176 C   0  0  0  0  0  0  0  0  0  0  0  0
  -27.4962  -25.1100   17.1824 C   0  0  0  0  0  0  0  0  0  0  0  0
  -24.1835  -13.8621   19.9232 C   0  0  0  0  0  0  0  0  0  0  0  0
  -26.5883  -13.6362   19.9765 C   0  0  0  0  0  0  0  0  0  0  0  0
  -29.8655  -25.5490   17.0856 C   0  0  0  0  0  0  0  0  0  0  0  0
  -27.4297  -25.7564   18.4161 C   0  0  0  0  0  0  0  0  0  0  0  0
  -23.4814  -28.9103   18.7465 C   0  0  0  0  0  0  0  0  0  0  0  0
  -24.0532  -12.4734   19.9158 C   0  0  0  0  0  0  0  0  0  0  0  0
  -26.4580  -12.2475   19.9692 C   0  0  0  0  0  0  0  0  0  0  0  0
  -22.2308  -28.3420   18.9850 C   0  0  0  0  0  0  0  0  0  0  0  0
  -24.2160   -9.9443   22.1541 C   0  0  0  0  0  0  0  0  0  0  0  0
  -23.2681   -9.3777   23.0060 C   0  0  0  0  0  0  0  0  0  0  0  0
  -21.7006  -23.8864   22.4088 C   0  0  0  0  0  0  0  0  0  0  0  0
  -23.5551  -23.2807   20.9837 C   0  0  0  0  0  0  0  0  0  0  0  0
  -22.4182  -28.9237   21.3186 C   0  0  0  0  0  0  0  0  0  0  0  0
  -22.1305   -8.4189   21.1024 C   0  0  0  0  0  0  0  0  0  0  0  0
  -25.4511  -14.4436   19.9535 C   0  0  0  0  0  0  0  0  0  0  0  0
  -20.9686  -24.2807   21.2889 C   0  0  0  0  0  0  0  0  0  0  0  0
  -22.8231  -23.6750   19.8637 C   0  0  0  0  0  0  0  0  0  0  0  0
  -25.6408  -16.7213   21.0865 C   0  0  0  0  0  0  0  0  0  0  0  0
  -29.8113  -26.2109   18.3224 C   0  0  0  0  0  0  0  0  0  0  0  0
  -24.2159  -29.4807   19.7961 C   0  0  0  0  0  0  0  0  0  0  0  0
  -28.5820  -26.3077   19.0018 C   0  0  0  0  0  0  0  0  0  0  0  0
  -23.6768  -29.5008   21.0904 C   0  0  0  0  0  0  0  0  0  0  0  0
  -21.5299  -24.1750   20.0163 C   0  0  0  0  0  0  0  0  0  0  0  0
  -25.1904  -11.6661   19.9388 C   0  0  0  0  0  0  0  0  0  0  0  0
  -21.7003  -28.3461   20.2717 C   0  0  0  0  0  0  0  0  0  0  0  0
  -24.1212   -9.7483   20.7763 C   0  0  0  0  0  0  0  0  0  0  0  0
  -22.2253   -8.6149   22.4802 C   0  0  0  0  0  0  0  0  0  0  0  0
  -22.9939  -23.3864   22.2563 C   0  0  0  0  0  0  0  0  0  0  0  0
  -23.0785   -8.9856   20.2505 C   0  0  0  0  0  0  0  0  0  0  0  0
  -25.5863  -15.8780   19.9605 C   0  0  0  0  0  0  0  0  0  0  0  0
  -25.7719  -17.9845   20.5635 C   0  0  0  0  0  0  0  0  0  0  0  0
  -19.6122  -24.8022   21.4866 C   0  0  0  0  0  0  0  0  0  0  0  0
  -23.4493  -23.5499   18.5224 C   0  0  0  0  0  0  0  0  0  0  0  0
  -25.5785  -16.3921   22.4806 C   0  0  0  0  0  0  0  0  0  0  0  0
  -19.2799  -26.0918   21.6906 C   0  0  0  0  0  0  0  0  0  0  0  0
  -27.0301  -28.8841   21.1482 C   0  0  0  0  0  0  0  0  0  0  0  0
  -26.3809  -31.6066   22.7880 C   0  0  0  0  0  0  0  0  0  0  0  0
  -24.0380  -33.7926   23.9622 C   0  0  0  0  0  0  0  0  0  0  0  0
  -24.3864  -21.9178   16.9156 C   0  0  0  0  0  0  0  0  0  0  0  0
  -31.0913  -26.7406   18.9189 C   0  0  0  0  0  0  0  0  0  0  0  0
  -25.5517  -30.1134   19.5175 C   0  0  0  0  0  0  0  0  0  0  0  0
  -24.4161  -30.1188   22.2479 C   0  0  0  0  0  0  0  0  0  0  0  0
  -30.8678  -27.7377   20.0530 C   0  0  0  0  0  0  0  0  0  0  0  0
  -26.7362  -19.5098   15.8308 C   0  0  0  0  0  0  0  0  0  0  0  0
  -29.8179  -27.2121   21.0268 C   0  0  0  0  0  0  0  0  0  0  0  0
  -26.6591  -18.4208   16.9044 C   0  0  0  0  0  0  0  0  0  0  0  0
  -25.3629  -20.1085   15.5303 C   0  0  0  0  0  0  0  0  0  0  0  0
  -24.5460  -19.5012   17.7713 C   0  0  0  0  0  0  0  0  0  0  0  0
  -28.4649  -27.0232   20.3302 C   0  0  1  0  0  0  0  0  0  0  0  0
  -26.4379  -30.2081   20.7557 C   0  0  1  0  0  0  0  0  0  0  0  0
  -25.9133  -18.9160   18.1598 C   0  0  1  0  0  0  0  0  0  0  0  0
  -20.7509  -24.5962   18.8082 C   0  0  0  0  0  0  0  0  0  0  0  0
  -17.8340  -26.4782   21.8657 C   0  0  0  0  0  0  0  0  0  0  0  0
  -23.8084  -35.9027   25.3010 C   0  0  0  0  0  0  0  0  0  0  0  0
  -26.8690  -30.0290   25.3538 C   0  0  0  0  0  0  0  0  0  0  0  0
  -25.7246  -31.8631   26.6166 C   0  0  0  0  0  0  0  0  0  0  0  0
  -27.8219  -32.3412   25.3536 C   0  0  0  0  0  0  0  0  0  0  0  0
  -22.8204  -35.2413   21.6868 C   0  0  0  0  0  0  0  0  0  0  0  0
  -20.2607  -27.2300   21.8007 C   0  0  0  0  0  0  0  0  0  1  0  0
  -25.6752  -31.9326   24.0821 C   0  0  1  0  0  0  0  0  0  0  0  0
  -23.9579  -35.3076   23.9095 C   0  0  2  0  0  0  0  0  0  0  0  0
  -26.5093  -31.5280   25.3303 C   0  0  0  0  0  0  0  0  0  0  0  0
  -25.6754  -16.5490   18.8091 N   0  0  0  0  0  0  0  0  0  0  0  0
  -25.7871  -17.8273   19.2087 N   0  0  0  0  0  0  0  0  0  0  0  0
  -25.7213  -30.7191   21.9259 N   0  0  0  0  0  0  0  0  0  0  0  0
  -24.7273  -20.5619   16.7688 N   0  0  0  0  0  0  0  0  0  0  0  0
  -25.8744  -19.2033   21.1348 N   0  0  0  0  0  0  0  0  0  0  0  0
  -25.4431  -15.0452   22.8436 N   0  0  0  0  0  0  0  0  0  0  0  0
  -23.8236  -22.2583   18.1506 N   0  0  0  0  0  0  0  0  0  0  0  0
  -27.8005  -28.2979   20.1622 N   0  0  0  0  0  0  0  0  0  0  0  0
  -25.3432  -33.3519   24.0197 N   0  0  0  0  0  0  0  0  0  0  0  0
  -22.7913  -35.7363   23.0871 N   0  3  0  0  0  0  0  0  0  0  0  0
  -23.5636  -24.5506   17.8200 O   0  0  0  0  0  0  0  0  0  0  0  0
  -25.6245  -17.2680   23.3773 O   0  0  0  0  0  0  0  0  0  0  0  0
  -26.8058  -28.4288   22.2636 O   0  0  0  0  0  0  0  0  0  0  0  0
  -27.4736  -32.1259   22.5476 O   0  0  0  0  0  0  0  0  0  0  0  0
  -23.0421  -33.0723   23.9571 O   0  0  0  0  0  0  0  0  0  0  0  0
  -24.5995  -22.7600   16.0377 O   0  0  0  0  0  0  0  0  0  0  0  0
  -25.0636  -10.3109   19.9319 O   0  0  0  0  0  0  0  0  0  0  0  0
  -20.4801  -27.7916   20.5073 O   0  0  0  0  0  0  0  0  0  1  0  0
  -21.3159   -8.0695   23.2986 F   0  0  0  0  0  0  0  0  0  0  0  0
  -23.6967  -23.0072   23.3317 F   0  0  0  0  0  0  0  0  0  0  0  0
  -22.9828   -8.7928   18.9278 F   0  0  0  0  0  0  0  0  0  0  0  0
  1  2  1  0  0  0  0
  1  5  2  0  0  0  0
  2  6  2  0  0  0  0
  3  8  2  0  0  0  0
  3 17  1  0  0  0  0
  4  9  1  0  0  0  0
  4 17  2  0  0  0  0
  5 21  1  0  0  0  0
  6 23  1  0  0  0  0
  7 10  2  0  0  0  0
  7 22  1  0  0  0  0
  8 26  1  0  0  0  0
  9 26  2  0  0  0  0
 10 27  1  0  0  0  0
 11 12  2  0  0  0  0
 11 28  1  0  0  0  0
 12 29  1  0  0  0  0
 13 18  1  0  0  0  0
 13 30  2  0  0  0  0
 14 19  2  0  0  0  0
 14 30  1  0  0  0  0
 15 24  1  0  0  0  0
 15 27  2  0  0  0  0
 16 29  2  0  0  0  0
 16 31  1  0  0  0  0
 17 32  1  0  0  0  0
 18 25  2  0  0  0  0
 18 34  1  0  0  0  0
 19 25  1  0  0  0  0
 19 35  1  0  0  0  0
 20 32  1  0  0  0  0
 20 33  2  0  0  0  0
 20 36  1  0  0  0  0
 21 23  2  0  0  0  0
 21 42  1  0  0  0  0
 22 24  2  0  0  0  0
 22 43  1  0  0  0  0
 23 51  1  0  0  0  0
 24 44  1  0  0  0  0
 25 54  1  0  0  0  0
 26 81  1  0  0  0  0
 27 82  1  0  0  0  0
 28 31  2  0  0  0  0
 28 81  1  0  0  0  0
 29 83  1  0  0  0  0
 30 84  1  0  0  0  0
 31 85  1  0  0  0  0
 32 65  2  0  0  0  0
 33 66  1  0  0  0  0
 33 69  1  0  0  0  0
 34 37  2  0  0  0  0
 35 71  1  0  0  0  0
 35 75  2  0  0  0  0
 36 70  1  0  0  0  0
 36 76  2  0  0  0  0
 37 55  1  0  0  0  0
 37 61  1  0  0  0  0
 38 52  1  0  0  0  0
 38 72  1  0  0  0  0
 38 77  2  0  0  0  0
 39 62  1  0  0  0  0
 39 67  1  0  0  0  0
 39 78  2  0  0  0  0
 40 63  1  0  0  0  0
 40 73  1  0  0  0  0
 40 79  2  0  0  0  0
 41 68  1  0  0  0  0
 41 71  1  0  0  0  0
 41 80  2  0  0  0  0
 42 45  1  0  0  0  0
 43 52  1  0  0  0  0
 44 67  1  0  0  0  0
 45 47  1  0  0  0  0
 46 48  1  0  0  0  0
 46 49  1  0  0  0  0
 47 51  1  0  0  0  0
 48 53  1  0  0  0  0
 49 68  1  0  0  0  0
 50 53  1  0  0  0  0
 50 68  1  0  0  0  0
 51 72  1  0  0  0  0
 52 67  1  0  0  0  0
 53 66  1  0  0  0  0
 56 63  1  0  0  0  0
 57 64  1  0  0  0  0
 58 64  1  0  0  0  0
 59 64  1  0  0  0  0
 60 74  1  0  0  0  0
 61 82  1  0  0  0  0
 62 64  1  0  0  0  0
 62 73  1  0  0  0  0
 63 74  1  0  0  0  0
 65 66  1  0  0  0  0
M  CHG  1  74   1
M  ISO  4  41 100  61 101  71 100  82 101
M  END
> <Batch ID>
0055

> <Smiles>
CNC(C)C(=O)NC(C(=O)N1Cc2cc([101O:1][101CH2:1]C(C)=Cc3cc(F)cc(C(=O)[100NH:0][100C:0](=O)N4CCCC(n5nc(-c6ccc(Oc7ccc(F)cc7F)cc6)c(C(N)=O)c5N)C4)c3C)ccc2CC1C(=O)NC1CCCc2ccccc21)C(C)(C)C

> <Shape>
0.273

> <Color>
0.082

> <Negative vol penalty>
0.000

$$$$

  -OEChem-04042322493D

 90 98  0     1  0  0  0  0  0999 V2000
  -32.4967  -13.3734   21.1978 C   0  0  0  0  0  0  0  0  0  0  0  0
  -31.7921  -14.5493   21.4349 C   0  0  0  0  0  0  0  0  0  0  0  0
  -30.5588  -24.7958   19.2692 C   0  0  0  0  0  0  0  0  0  0  0  0
  -28.4665  -23.9547   18.4020 C   0  0  0  0  0  0  0  0  0  0  0  0
  -31.8851  -12.3205   20.5186 C   0  0  0  0  0  0  0  0  0  0  0  0
  -30.4758  -14.6735   20.9918 C   0  0  0  0  0  0  0  0  0  0  0  0
  -25.9287  -17.6992   23.7621 C   0  0  0  0  0  0  0  0  0  0  0  0
  -19.9809  -27.1969   23.3952 C   0  0  0  0  0  0  0  0  0  0  0  0
  -21.2419  -27.7623   23.2059 C   0  0  0  0  0  0  0  0  0  0  0  0
  -31.0972  -23.5101   19.2173 C   0  0  0  0  0  0  0  0  0  0  0  0
  -29.0049  -22.6689   18.3500 C   0  0  0  0  0  0  0  0  0  0  0  0
  -25.3881  -18.9686   23.5619 C   0  0  0  0  0  0  0  0  0  0  0  0
  -29.7112  -19.1038   18.3275 C   0  0  0  0  0  0  0  0  0  0  0  0
  -28.9268  -18.0527   18.8025 C   0  0  0  0  0  0  0  0  0  0  0  0
  -23.6616  -18.0083   22.1775 C   0  0  0  0  0  0  0  0  0  0  0  0
  -28.8545  -19.0919   20.9824 C   0  0  0  0  0  0  0  0  0  0  0  0
  -29.2434  -25.0181   18.8616 C   0  0  0  0  0  0  0  0  0  0  0  0
  -28.7146  -27.3214   17.9009 C   0  0  0  0  0  0  0  0  0  0  0  0
  -30.5574  -12.4282   20.0754 C   0  0  0  0  0  0  0  0  0  0  0  0
  -25.3453  -16.5742   23.1617 C   0  0  0  0  0  0  0  0  0  0  0  0
  -29.8463  -13.6216   20.3048 C   0  0  0  0  0  0  0  0  0  0  0  0
  -24.1953  -16.7254   22.3737 C   0  0  0  0  0  0  0  0  0  0  0  0
  -19.3849  -26.4623   22.3701 C   0  0  0  0  0  0  0  0  0  0  0  0
  -21.9069  -27.5931   21.9915 C   0  0  0  0  0  0  0  0  0  0  0  0
  -30.3203  -22.4467   18.7577 C   0  0  0  0  0  0  0  0  0  0  0  0
  -24.2561  -19.1237   22.7671 C   0  0  0  0  0  0  0  0  0  0  0  0
  -30.0673  -20.1489   19.1800 C   0  0  0  0  0  0  0  0  0  0  0  0
  -28.4985  -18.0468   20.1300 C   0  0  0  0  0  0  0  0  0  0  0  0
  -29.6389  -20.1430   20.5074 C   0  0  0  0  0  0  0  0  0  0  0  0
  -21.3109  -26.8585   20.9664 C   0  0  0  0  0  0  0  0  0  0  0  0
  -20.0499  -26.2931   21.1557 C   0  0  0  0  0  0  0  0  0  0  0  0
  -28.6865  -26.3459   18.9155 C   0  0  0  0  0  0  0  0  0  0  0  0
  -28.0563  -28.3986   18.4420 C   0  0  0  0  0  0  0  0  0  0  0  0
  -29.2847  -27.2593   16.5868 C   0  0  0  0  0  0  0  0  0  0  0  0
  -26.3129  -14.4021   21.0524 C   0  0  0  0  0  0  0  0  0  0  0  0
  -23.4590  -13.0251   21.7462 C   0  0  0  0  0  0  0  0  0  0  0  0
  -22.5560  -22.0177   21.2499 C   0  0  0  0  0  0  0  0  0  0  0  0
  -20.2655  -13.3958   22.8909 C   0  0  0  0  0  0  0  0  0  0  0  0
  -23.9171  -28.9257   22.7192 C   0  0  0  0  0  0  0  0  0  0  0  0
  -29.9544  -11.2812   19.3039 C   0  0  0  0  0  0  0  0  0  0  0  0
  -25.9248  -15.2085   23.4093 C   0  0  0  0  0  0  0  0  0  0  0  0
  -23.5192  -15.5472   21.7232 C   0  0  0  0  0  0  0  0  0  0  0  0
  -28.4333  -11.3522   19.1966 C   0  0  0  0  0  0  0  0  0  0  0  0
  -27.1166  -30.4864   22.6482 C   0  0  0  0  0  0  0  0  0  0  0  0
  -27.9910  -12.7578   18.8024 C   0  0  0  0  0  0  0  0  0  0  0  0
  -27.8828  -29.6943   21.5863 C   0  0  0  0  0  0  0  0  0  0  0  0
  -26.1920  -29.5883   23.4682 C   0  0  0  0  0  0  0  0  0  0  0  0
  -26.0356  -27.9698   21.6175 C   0  0  0  0  0  0  0  0  0  0  0  0
  -28.4086  -13.7850   19.8615 C   0  0  1  0  0  0  0  0  0  0  0  0
  -25.5509  -14.1963   22.3309 C   0  0  1  0  0  0  0  0  0  0  0  0
  -26.9316  -28.8423   20.7232 C   0  0  2  0  0  0  0  0  0  0  0  0
  -18.0337  -25.8705   22.6063 C   0  0  0  0  0  0  0  0  0  0  0  0
  -18.9780  -22.7761   17.9362 C   0  0  0  0  0  0  0  0  0  0  0  0
  -18.1587  -12.0973   23.3067 C   0  0  0  0  0  0  0  0  0  0  0  0
  -22.8785  -13.0126   18.7508 C   0  0  0  0  0  0  0  0  0  0  0  0
  -20.4664  -12.6141   19.2906 C   0  0  0  0  0  0  0  0  0  0  0  0
  -22.1858  -10.9338   19.9563 C   0  0  0  0  0  0  0  0  0  0  0  0
  -20.3257  -14.0020   25.7871 C   0  0  0  0  0  0  0  0  0  0  0  0
  -23.0572  -20.5915   21.3305 C   0  0  0  0  0  0  0  0  0  1  0  0
  -18.9731  -22.6745   19.4561 C   0  0  0  0  0  0  0  0  0  0  0  0
  -21.3479  -23.5540   19.7119 C   0  0  0  0  0  0  0  0  0  0  0  0
  -22.0576  -13.1338   21.1956 C   0  0  1  0  0  0  0  0  0  0  0  0
  -19.4611  -12.6042   23.9063 C   0  0  2  0  0  0  0  0  0  0  0  0
  -19.8828  -23.7083   20.1335 C   0  0  1  0  0  0  0  0  0  0  0  0
  -21.9107  -12.4462   19.8089 C   0  0  0  0  0  0  0  0  0  0  0  0
  -28.0600  -26.7662   20.0177 N   0  0  0  0  0  0  0  0  0  0  0  0
  -27.6885  -28.0178   19.6989 N   0  0  0  0  0  0  0  0  0  0  0  0
  -24.1273  -14.2333   21.9902 N   0  0  0  0  0  0  0  0  0  0  0  0
  -25.3172  -28.8148   22.5843 N   0  0  0  0  0  0  0  0  0  0  0  0
  -27.7620  -29.6249   17.9604 N   0  0  0  0  0  0  0  0  0  0  0  0
  -29.9249  -26.0768   16.1914 N   0  0  0  0  0  0  0  0  0  0  0  0
  -23.1878  -28.1688   21.8028 N   0  0  0  0  0  0  0  0  0  0  0  0
  -27.5177  -13.7273   21.0005 N   0  0  0  0  0  0  0  0  0  0  0  0
  -21.9180  -22.2692   20.0454 N   0  0  0  0  0  0  0  0  0  0  0  0
  -21.1722  -12.5990   22.2245 N   0  0  0  0  0  0  0  0  0  0  0  0
  -19.1358  -13.4547   25.0860 N   0  3  0  0  0  0  0  0  0  0  0  0
  -29.2425  -28.2296   15.7930 O   0  0  0  0  0  0  0  0  0  0  0  0
  -25.8420  -15.1189   20.1770 O   0  0  0  0  0  0  0  0  0  0  0  0
  -23.9404  -11.9094   21.9589 O   0  0  0  0  0  0  0  0  0  0  0  0
  -22.7129  -22.8293   22.1580 O   0  0  0  0  0  0  0  0  0  0  0  0
  -20.1028  -14.5997   22.7048 O   0  0  0  0  0  0  0  0  0  0  0  0
  -23.4030  -29.6606   23.5662 O   0  0  0  0  0  0  0  0  0  0  0  0
  -17.8844  -25.4029   20.0366 O   0  0  0  0  0  0  0  0  0  0  0  0
  -19.9083  -25.8110   18.5934 O   0  0  0  0  0  0  0  0  0  0  0  0
  -30.8454  -21.1920   18.7066 O   0  0  0  0  0  0  0  0  0  0  0  0
  -23.7267  -20.3617   22.5695 O   0  0  0  0  0  0  0  0  0  1  0  0
  -27.7439  -17.0382   20.5856 F   0  0  0  0  0  0  0  0  0  0  0  0
  -29.9769  -21.1448   21.3307 F   0  0  0  0  0  0  0  0  0  0  0  0
  -21.9527  -26.6967   19.7993 F   0  0  0  0  0  0  0  0  0  0  0  0
  -19.3195  -25.3686   19.8413 S   0  0  0  0  0  0  0  0  0  0  0  0
  1  2  1  0  0  0  0
  1  5  2  0  0  0  0
  2  6  2  0  0  0  0
  3 10  2  0  0  0  0
  3 17  1  0  0  0  0
  4 11  1  0  0  0  0
  4 17  2  0  0  0  0
  5 19  1  0  0  0  0
  6 21  1  0  0  0  0
  7 12  2  0  0  0  0
  7 20  1  0  0  0  0
  8  9  1  0  0  0  0
  8 23  2  0  0  0  0
  9 24  2  0  0  0  0
 10 25  1  0  0  0  0
 11 25  2  0  0  0  0
 12 26  1  0  0  0  0
 13 14  2  0  0  0  0
 13 27  1  0  0  0  0
 14 28  1  0  0  0  0
 15 22  1  0  0  0  0
 15 26  2  0  0  0  0
 16 28  2  0  0  0  0
 16 29  1  0  0  0  0
 17 32  1  0  0  0  0
 18 32  1  0  0  0  0
 18 33  2  0  0  0  0
 18 34  1  0  0  0  0
 19 21  2  0  0  0  0
 19 40  1  0  0  0  0
 20 22  2  0  0  0  0
 20 41  1  0  0  0  0
 21 49  1  0  0  0  0
 22 42  1  0  0  0  0
 23 31  1  0  0  0  0
 23 52  1  0  0  0  0
 24 30  1  0  0  0  0
 24 72  1  0  0  0  0
 25 85  1  0  0  0  0
 26 86  1  0  0  0  0
 27 29  2  0  0  0  0
 27 85  1  0  0  0  0
 28 87  1  0  0  0  0
 29 88  1  0  0  0  0
 30 31  2  0  0  0  0
 30 89  1  0  0  0  0
 31 90  1  0  0  0  0
 32 66  2  0  0  0  0
 33 67  1  0  0  0  0
 33 70  1  0  0  0  0
 34 71  1  0  0  0  0
 34 77  2  0  0  0  0
 35 50  1  0  0  0  0
 35 73  1  0  0  0  0
 35 78  2  0  0  0  0
 36 62  1  0  0  0  0
 36 68  1  0  0  0  0
 36 79  2  0  0  0  0
 37 59  1  0  0  0  0
 37 74  1  0  0  0  0
 37 80  2  0  0  0  0
 38 63  1  0  0  0  0
 38 75  1  0  0  0  0
 38 81  2  0  0  0  0
 39 69  1  0  0  0  0
 39 72  1  0  0  0  0
 39 82  2  0  0  0  0
 40 43  1  0  0  0  0
 41 50  1  0  0  0  0
 42 68  1  0  0  0  0
 43 45  1  0  0  0  0
 44 46  1  0  0  0  0
 44 47  1  0  0  0  0
 45 49  1  0  0  0  0
 46 51  1  0  0  0  0
 47 69  1  0  0  0  0
 48 51  1  0  0  0  0
 48 69  1  0  0  0  0
 49 73  1  0  0  0  0
 50 68  1  0  0  0  0
 51 67  1  0  0  0  0
 53 60  1  0  0  0  0
 54 63  1  0  0  0  0
 55 65  1  0  0  0  0
 56 65  1  0  0  0  0
 57 65  1  0  0  0  0
 58 76  1  0  0  0  0
 59 86  1  0  0  0  0
 60 64  1  0  0  0  0
 61 64  1  0  0  0  0
 61 74  1  0  0  0  0
 62 65  1  0  0  0  0
 62 75  1  0  0  0  0
 63 76  1  0  0  0  0
 64 90  1  0  0  0  0
 66 67  1  0  0  0  0
 83 90  2  0  0  0  0
 84 90  2  0  0  0  0
M  CHG  1  76   1
M  ISO  4  39 100  59 101  72 100  86 101
M  END
> <Batch ID>
0055

> <Smiles>
CCC(CNC(=O)[101CH2:1][101O:1]c1ccc2c(c1)CN(C(=O)C(NC(=O)C(C)NC)C(C)(C)C)C(C(=O)NC1CCCc3ccccc31)C2)S(=O)(=O)c1c(C)ccc([100NH:0][100C:0](=O)N2CCCC(n3nc(-c4ccc(Oc5ccc(F)cc5F)cc4)c(C(N)=O)c3N)C2)c1F

> <Shape>
0.260

> <Color>
0.065

> <Negative vol penalty>
0.000

$$$$

  -OEChem-04042322493D

 83 91  0     1  0  0  0  0  0999 V2000
  -18.1538  -28.5106   22.4773 C   0  0  0  0  0  0  0  0  0  0  0  0
  -17.9724  -27.2107   22.0160 C   0  0  0  0  0  0  0  0  0  0  0  0
  -27.8328  -11.0709   21.1044 C   0  0  0  0  0  0  0  0  0  0  0  0
  -26.8058  -11.4267   21.9786 C   0  0  0  0  0  0  0  0  0  0  0  0
  -28.1354  -23.8172   21.3270 C   0  0  0  0  0  0  0  0  0  0  0  0
  -28.4167  -23.3752   18.9685 C   0  0  0  0  0  0  0  0  0  0  0  0
  -19.3680  -28.8815   23.0535 C   0  0  0  0  0  0  0  0  0  0  0  0
  -19.0055  -26.2811   22.1298 C   0  0  0  0  0  0  0  0  0  0  0  0
  -20.1297  -19.2824   23.1644 C   0  0  0  0  0  0  0  0  0  0  0  0
  -28.0183  -11.7832   19.9195 C   0  0  0  0  0  0  0  0  0  0  0  0
  -25.9642  -12.4948   21.6678 C   0  0  0  0  0  0  0  0  0  0  0  0
  -28.3004  -25.1820   21.0910 C   0  0  0  0  0  0  0  0  0  0  0  0
  -28.5817  -24.7401   18.7325 C   0  0  0  0  0  0  0  0  0  0  0  0
  -20.8153  -18.2069   22.6014 C   0  0  0  0  0  0  0  0  0  0  0  0
  -26.4362  -27.7520   19.9282 C   0  0  0  0  0  0  0  0  0  0  0  0
  -25.5487  -28.6295   20.5510 C   0  0  0  0  0  0  0  0  0  0  0  0
  -22.8418  -18.9387   23.6863 C   0  0  0  0  0  0  0  0  0  0  0  0
  -27.3975  -29.6963   21.6827 C   0  0  0  0  0  0  0  0  0  0  0  0
  -28.1936  -22.9138   20.2658 C   0  0  0  0  0  0  0  0  0  0  0  0
  -26.9000  -20.8670   21.0688 C   0  0  0  0  0  0  0  0  0  0  0  0
  -20.4132  -27.9534   23.1832 C   0  0  0  0  0  0  0  0  0  0  0  0
  -20.7985  -20.2018   23.9852 C   0  0  0  0  0  0  0  0  0  0  0  0
  -20.2353  -26.6403   22.7071 C   0  0  0  0  0  0  0  0  0  0  0  0
  -22.1618  -20.0236   24.2606 C   0  0  0  0  0  0  0  0  0  0  0  0
  -27.1767  -12.8512   19.6088 C   0  0  0  0  0  0  0  0  0  0  0  0
  -26.1496  -13.2071   20.4829 C   0  0  0  0  0  0  0  0  0  0  0  0
  -28.5235  -25.6434   19.7937 C   0  0  0  0  0  0  0  0  0  0  0  0
  -22.1722  -18.0365   22.8600 C   0  0  0  0  0  0  0  0  0  0  0  0
  -27.8044  -27.8466   20.1827 C   0  0  0  0  0  0  0  0  0  0  0  0
  -26.0293  -29.6017   21.4282 C   0  0  0  0  0  0  0  0  0  0  0  0
  -28.2851  -28.8187   21.0600 C   0  0  0  0  0  0  0  0  0  0  0  0
  -28.0238  -21.5038   20.5090 C   0  0  0  0  0  0  0  0  0  0  0  0
  -27.2335  -19.5347   21.0863 C   0  0  0  0  0  0  0  0  0  0  0  0
  -25.6651  -21.4295   21.5316 C   0  0  0  0  0  0  0  0  0  0  0  0
  -21.3984  -23.3198   23.8359 C   0  0  0  0  0  0  0  0  0  0  0  0
  -22.5871  -22.8379   26.8153 C   0  0  0  0  0  0  0  0  0  0  0  0
  -24.2227  -14.7599   20.9514 C   0  0  0  0  0  0  0  0  0  0  0  0
  -23.9175  -20.6669   29.0877 C   0  0  0  0  0  0  0  0  0  0  0  0
  -29.4060  -15.0289   18.6118 C   0  0  0  0  0  0  0  0  0  0  0  0
  -21.7241  -28.4136   23.7700 C   0  0  0  0  0  0  0  0  0  0  0  0
  -20.0386  -21.3416   24.6064 C   0  0  0  0  0  0  0  0  0  0  0  0
  -22.9214  -20.9711   25.1514 C   0  0  0  0  0  0  0  0  0  0  0  0
  -22.6380  -27.2666   24.1937 C   0  0  0  0  0  0  0  0  0  0  0  0
  -31.6633  -17.2386   20.2545 C   0  0  0  0  0  0  0  0  0  0  0  0
  -22.7058  -26.2061   23.0994 C   0  0  0  0  0  0  0  0  0  0  0  0
  -30.8270  -18.4942   20.5075 C   0  0  0  0  0  0  0  0  0  0  0  0
  -31.3093  -16.5839   18.9211 C   0  0  0  0  0  0  0  0  0  0  0  0
  -29.0400  -17.5426   18.9909 C   0  0  0  0  0  0  0  0  0  0  0  0
  -21.3236  -25.5966   22.8353 C   0  0  1  0  0  0  0  0  0  0  0  0
  -20.9356  -22.5071   25.0119 C   0  0  1  0  0  0  0  0  0  0  0  0
  -29.3218  -18.2066   20.3496 C   0  0  2  0  0  0  0  0  0  0  0  0
  -24.8259  -20.5736   31.4251 C   0  0  0  0  0  0  0  0  0  0  0  0
  -25.1712  -24.1500   25.8609 C   0  0  0  0  0  0  0  0  0  0  0  0
  -26.3185  -23.1892   27.8681 C   0  0  0  0  0  0  0  0  0  0  0  0
  -24.4506  -24.8164   28.1612 C   0  0  0  0  0  0  0  0  0  0  0  0
  -21.8357  -18.7456   29.9441 C   0  0  0  0  0  0  0  0  0  0  0  0
  -27.3988  -13.5962   18.3326 C   0  0  0  0  0  0  0  0  0  0  0  0
  -23.5532  -15.9435   20.2622 C   0  0  0  0  0  0  0  0  0  0  0  0
  -22.3808  -16.5086   21.0496 C   0  0  0  0  0  0  0  0  0  1  0  0
  -23.9368  -22.4671   27.3809 C   0  0  1  0  0  0  0  0  0  0  0  0
  -23.5931  -20.4142   30.5490 C   0  0  2  0  0  0  0  0  0  0  0  0
  -24.9557  -23.6388   27.2994 C   0  0  0  0  0  0  0  0  0  0  0  0
  -28.9984  -20.6466   20.1938 N   0  0  0  0  0  0  0  0  0  0  0  0
  -28.4881  -19.4576   20.5568 N   0  0  0  0  0  0  0  0  0  0  0  0
  -22.1357  -22.0735   25.7301 N   0  0  0  0  0  0  0  0  0  0  0  0
  -29.8680  -16.3363   18.8356 N   0  0  0  0  0  0  0  0  0  0  0  0
  -26.5731  -18.4334   21.5028 N   0  0  0  0  0  0  0  0  0  0  0  0
  -24.6061  -21.5557   20.6222 N   0  0  0  0  0  0  0  0  0  0  0  0
  -25.2852  -14.2874   20.1856 N   0  0  0  0  0  0  0  0  0  0  0  0
  -20.9880  -24.6389   23.8671 N   0  0  0  0  0  0  0  0  0  0  0  0
  -23.6926  -21.9807   28.7344 N   0  0  0  0  0  0  0  0  0  0  0  0
  -28.0258  -14.8808   18.5508 N   0  0  0  0  0  0  0  0  0  0  0  0
  -23.0628  -19.0334   30.7306 N   0  3  0  0  0  0  0  0  0  0  0  0
  -25.5107  -21.8240   22.7123 O   0  0  0  0  0  0  0  0  0  0  0  0
  -22.0789  -22.7897   22.9654 O   0  0  0  0  0  0  0  0  0  0  0  0
  -21.9534  -23.7668   27.3225 O   0  0  0  0  0  0  0  0  0  0  0  0
  -23.8334  -14.3278   22.0312 O   0  0  0  0  0  0  0  0  0  0  0  0
  -24.3327  -19.7878   28.3359 O   0  0  0  0  0  0  0  0  0  0  0  0
  -30.1670  -14.0641   18.4817 O   0  0  0  0  0  0  0  0  0  0  0  0
  -28.6843  -26.9751   19.5630 O   0  0  0  0  0  0  0  0  0  0  0  0
  -22.8440  -16.9880   22.3113 O   0  0  0  0  0  0  0  0  0  1  0  0
  -25.1771  -30.4453   22.0250 F   0  0  0  0  0  0  0  0  0  0  0  0
  -29.5986  -28.9151   21.3075 F   0  0  0  0  0  0  0  0  0  0  0  0
  1  2  1  0  0  0  0
  1  7  2  0  0  0  0
  2  8  2  0  0  0  0
  3  4  1  0  0  0  0
  3 10  2  0  0  0  0
  4 11  2  0  0  0  0
  5 12  2  0  0  0  0
  5 19  1  0  0  0  0
  6 13  1  0  0  0  0
  6 19  2  0  0  0  0
  7 21  1  0  0  0  0
  8 23  1  0  0  0  0
  9 14  2  0  0  0  0
  9 22  1  0  0  0  0
 10 25  1  0  0  0  0
 11 26  1  0  0  0  0
 12 27  1  0  0  0  0
 13 27  2  0  0  0  0
 14 28  1  0  0  0  0
 15 16  2  0  0  0  0
 15 29  1  0  0  0  0
 16 30  1  0  0  0  0
 17 24  1  0  0  0  0
 17 28  2  0  0  0  0
 18 30  2  0  0  0  0
 18 31  1  0  0  0  0
 19 32  1  0  0  0  0
 20 32  1  0  0  0  0
 20 33  2  0  0  0  0
 20 34  1  0  0  0  0
 21 23  2  0  0  0  0
 21 40  1  0  0  0  0
 22 24  2  0  0  0  0
 22 41  1  0  0  0  0
 23 49  1  0  0  0  0
 24 42  1  0  0  0  0
 25 26  2  0  0  0  0
 25 57  1  0  0  0  0
 26 69  1  0  0  0  0
 27 80  1  0  0  0  0
 28 81  1  0  0  0  0
 29 31  2  0  0  0  0
 29 80  1  0  0  0  0
 30 82  1  0  0  0  0
 31 83  1  0  0  0  0
 32 63  2  0  0  0  0
 33 64  1  0  0  0  0
 33 67  1  0  0  0  0
 34 68  1  0  0  0  0
 34 74  2  0  0  0  0
 35 50  1  0  0  0  0
 35 70  1  0  0  0  0
 35 75  2  0  0  0  0
 36 60  1  0  0  0  0
 36 65  1  0  0  0  0
 36 76  2  0  0  0  0
 37 58  1  0  0  0  0
 37 69  1  0  0  0  0
 37 77  2  0  0  0  0
 38 61  1  0  0  0  0
 38 71  1  0  0  0  0
 38 78  2  0  0  0  0
 39 66  1  0  0  0  0
 39 72  1  0  0  0  0
 39 79  2  0  0  0  0
 40 43  1  0  0  0  0
 41 50  1  0  0  0  0
 42 65  1  0  0  0  0
 43 45  1  0  0  0  0
 44 46  1  0  0  0  0
 44 47  1  0  0  0  0
 45 49  1  0  0  0  0
 46 51  1  0  0  0  0
 47 66  1  0  0  0  0
 48 51  1  0  0  0  0
 48 66  1  0  0  0  0
 49 70  1  0  0  0  0
 50 65  1  0  0  0  0
 51 64  1  0  0  0  0
 52 61  1  0  0  0  0
 53 62  1  0  0  0  0
 54 62  1  0  0  0  0
 55 62  1  0  0  0  0
 56 73  1  0  0  0  0
 57 72  1  0  0  0  0
 58 59  1  0  0  0  0
 59 81  1  0  0  0  0
 60 62  1  0  0  0  0
 60 71  1  0  0  0  0
 61 73  1  0  0  0  0
 63 64  1  0  0  0  0
M  CHG  1  73   1
M  ISO  4  39 100  59 101  72 100  81 101
M  END
> <Batch ID>
0055

> <Smiles>
CNC(C)C(=O)NC(C(=O)N1Cc2cc([101O:1][101CH2:1]CC(=O)Nc3ccccc3C[100NH:0][100C:0](=O)N3CCCC(n4nc(-c5ccc(Oc6ccc(F)cc6F)cc5)c(C(N)=O)c4N)C3)ccc2CC1C(=O)NC1CCCc2ccccc21)C(C)(C)C

> <Shape>
0.215

> <Color>
0.061

> <Negative vol penalty>
0.000

$$$$

  -OEChem-04042322493D

 87 95  0     1  0  0  0  0  0999 V2000
  -29.9720  -35.2317   25.5884 C   0  0  0  0  0  0  0  0  0  0  0  0
  -30.3073  -33.9228   25.2567 C   0  0  0  0  0  0  0  0  0  0  0  0
  -24.8494   -8.6030   21.5945 C   0  0  0  0  0  0  0  0  0  0  0  0
  -23.3105   -9.9636   20.3226 C   0  0  0  0  0  0  0  0  0  0  0  0
  -28.6390  -35.5730   25.8129 C   0  0  0  0  0  0  0  0  0  0  0  0
  -29.3098  -32.9543   25.1504 C   0  0  0  0  0  0  0  0  0  0  0  0
  -29.1600  -28.2366   21.2482 C   0  0  0  0  0  0  0  0  0  0  0  0
  -23.8016   -8.1845   22.4145 C   0  0  0  0  0  0  0  0  0  0  0  0
  -22.2627   -9.5451   21.1426 C   0  0  0  0  0  0  0  0  0  0  0  0
  -29.4918  -26.8901   21.3914 C   0  0  0  0  0  0  0  0  0  0  0  0
  -21.2568   -5.9630   22.2660 C   0  0  0  0  0  0  0  0  0  0  0  0
  -21.1736   -4.6040   22.5688 C   0  0  0  0  0  0  0  0  0  0  0  0
  -27.1758  -26.3715   21.8230 C   0  0  0  0  0  0  0  0  0  0  0  0
  -25.4735  -17.2338   17.3846 C   0  0  0  0  0  0  0  0  0  0  0  0
  -27.1915  -18.4317   18.5890 C   0  0  0  0  0  0  0  0  0  0  0  0
  -21.3846   -5.1150   24.9207 C   0  0  0  0  0  0  0  0  0  0  0  0
  -24.6039   -9.4927   20.5485 C   0  0  0  0  0  0  0  0  0  0  0  0
  -26.1306   -9.3175   18.5123 C   0  0  0  0  0  0  0  0  0  0  0  0
  -27.6236  -34.6103   25.6998 C   0  0  0  0  0  0  0  0  0  0  0  0
  -27.8330  -28.6630   21.4025 C   0  0  0  0  0  0  0  0  0  0  0  0
  -27.9621  -33.2828   25.3749 C   0  0  0  0  0  0  0  0  0  0  0  0
  -26.8293  -27.7236   21.6788 C   0  0  0  0  0  0  0  0  0  0  0  0
  -24.7891  -18.4303   17.1709 C   0  0  0  0  0  0  0  0  0  0  0  0
  -25.3059  -19.6275   17.6661 C   0  0  0  0  0  0  0  0  0  0  0  0
  -26.6747  -17.2345   18.0937 C   0  0  0  0  0  0  0  0  0  0  0  0
  -26.5071  -19.6282   18.3752 C   0  0  0  0  0  0  0  0  0  0  0  0
  -22.5082   -8.6555   22.1886 C   0  0  0  0  0  0  0  0  0  0  0  0
  -28.5001  -25.9577   21.6816 C   0  0  0  0  0  0  0  0  0  0  0  0
  -21.4039   -6.8981   23.2906 C   0  0  0  0  0  0  0  0  0  0  0  0
  -21.2375   -4.1800   23.8961 C   0  0  0  0  0  0  0  0  0  0  0  0
  -21.4677   -6.4741   24.6179 C   0  0  0  0  0  0  0  0  0  0  0  0
  -25.6860   -9.9258   19.7014 C   0  0  0  0  0  0  0  0  0  0  0  0
  -27.1737  -10.1061   18.0924 C   0  0  0  0  0  0  0  0  0  0  0  0
  -25.6441   -8.1444   17.8468 C   0  0  0  0  0  0  0  0  0  0  0  0
  -26.3250  -30.6258   23.3967 C   0  0  0  0  0  0  0  0  0  0  0  0
  -23.8047  -30.0520   21.4368 C   0  0  0  0  0  0  0  0  0  0  0  0
  -28.2275  -20.9911   19.6103 C   0  0  0  0  0  0  0  0  0  0  0  0
  -22.3047  -27.9808   19.1770 C   0  0  0  0  0  0  0  0  0  0  0  0
  -28.5730  -15.8449   18.9945 C   0  0  0  0  0  0  0  0  0  0  0  0
  -26.2020  -35.0162   25.9981 C   0  0  0  0  0  0  0  0  0  0  0  0
  -27.4873  -30.1153   21.2185 C   0  0  0  0  0  0  0  0  0  0  0  0
  -25.3865  -28.1271   21.8340 C   0  0  0  0  0  0  0  0  0  0  0  0
  -25.1647  -34.0139   25.4983 C   0  0  0  0  0  0  0  0  0  0  0  0
  -30.5849  -13.0138   19.7786 C   0  0  0  0  0  0  0  0  0  0  0  0
  -25.5707  -32.5927   25.8755 C   0  0  0  0  0  0  0  0  0  0  0  0
  -29.5986  -11.8445   19.7336 C   0  0  0  0  0  0  0  0  0  0  0  0
  -29.9423  -14.2761   20.3507 C   0  0  0  0  0  0  0  0  0  0  0  0
  -27.7045  -13.5158   19.6554 C   0  0  0  0  0  0  0  0  0  0  0  0
  -26.9058  -32.2094   25.2258 C   0  0  1  0  0  0  0  0  0  0  0  0
  -26.1837  -30.5108   21.9052 C   0  0  1  0  0  0  0  0  0  0  0  0
  -28.2876  -12.2400   19.0262 C   0  0  2  0  0  0  0  0  0  0  0  0
  -24.5674  -20.9086   17.4338 C   0  0  0  0  0  0  0  0  0  0  0  0
  -20.2328  -27.7617   17.7782 C   0  0  0  0  0  0  0  0  0  0  0  0
  -22.2165  -29.2576   23.9180 C   0  0  0  0  0  0  0  0  0  0  0  0
  -20.5383  -28.1714   22.4107 C   0  0  0  0  0  0  0  0  0  0  0  0
  -20.9427  -30.6282   22.2587 C   0  0  0  0  0  0  0  0  0  0  0  0
  -23.8632  -27.9809   16.6610 C   0  0  0  0  0  0  0  0  0  0  0  0
  -28.4390  -22.4554   19.9691 C   0  0  0  0  0  0  0  0  0  0  0  0
  -29.7199  -22.6863   20.7635 C   0  0  0  0  0  0  0  0  0  0  0  0
  -29.9336  -24.1617   21.0691 C   0  0  0  0  0  0  0  0  0  1  0  0
  -23.5049  -18.4019   16.4078 C   0  0  0  0  0  0  0  0  0  0  0  0
  -22.6970  -29.0273   21.3918 C   0  0  1  0  0  0  0  0  0  0  0  0
  -21.6705  -28.2552   17.8253 C   0  0  2  0  0  0  0  0  0  0  0  0
  -21.6260  -29.2635   22.4939 C   0  0  0  0  0  0  0  0  0  0  0  0
  -26.3892  -11.0167   20.0167 N   0  0  0  0  0  0  0  0  0  0  0  0
  -27.2863  -11.1000   19.0195 N   0  0  0  0  0  0  0  0  0  0  0  0
  -25.0998  -29.5595   21.6512 N   0  0  0  0  0  0  0  0  0  0  0  0
  -28.7077  -14.5917   19.6288 N   0  0  0  0  0  0  0  0  0  0  0  0
  -27.9965  -10.0394   17.0242 N   0  0  0  0  0  0  0  0  0  0  0  0
  -24.5650   -7.4532   18.4145 N   0  0  0  0  0  0  0  0  0  0  0  0
  -27.0486  -20.8312   18.8875 N   0  0  0  0  0  0  0  0  0  0  0  0
  -27.3697  -16.0191   18.3118 N   0  0  0  0  0  0  0  0  0  0  0  0
  -26.7123  -31.8795   23.8301 N   0  0  0  0  0  0  0  0  0  0  0  0
  -22.1707  -29.0547   20.0314 N   0  0  0  0  0  0  0  0  0  0  0  0
  -22.4374  -27.5724   16.7452 N   0  3  0  0  0  0  0  0  0  0  0  0
  -26.1619   -7.7123   16.7891 O   0  0  0  0  0  0  0  0  0  0  0  0
  -26.0979  -29.6499   24.1022 O   0  0  0  0  0  0  0  0  0  0  0  0
  -23.5318  -31.2448   21.2802 O   0  0  0  0  0  0  0  0  0  0  0  0
  -29.0226  -20.1180   19.9416 O   0  0  0  0  0  0  0  0  0  0  0  0
  -22.8599  -26.9186   19.4490 O   0  0  0  0  0  0  0  0  0  0  0  0
  -29.4711  -16.6900   19.0299 O   0  0  0  0  0  0  0  0  0  0  0  0
  -21.4855   -8.2471   22.9885 O   0  0  0  0  0  0  0  0  0  0  0  0
  -28.8213  -24.6428   21.8225 O   0  0  0  0  0  0  0  0  0  1  0  0
  -21.1561   -2.8750   24.1868 F   0  0  0  0  0  0  0  0  0  0  0  0
  -21.6078   -7.3678   25.6066 F   0  0  0  0  0  0  0  0  0  0  0  0
  -22.4790  -18.8513   17.1758 F   0  0  0  0  0  0  0  0  0  0  0  0
  -23.1896  -17.1318   16.0451 F   0  0  0  0  0  0  0  0  0  0  0  0
  1  2  1  0  0  0  0
  1  5  2  0  0  0  0
  2  6  2  0  0  0  0
  3  8  2  0  0  0  0
  3 17  1  0  0  0  0
  4  9  1  0  0  0  0
  4 17  2  0  0  0  0
  5 19  1  0  0  0  0
  6 21  1  0  0  0  0
  7 10  2  0  0  0  0
  7 20  1  0  0  0  0
  8 27  1  0  0  0  0
  9 27  2  0  0  0  0
 10 28  1  0  0  0  0
 11 12  2  0  0  0  0
 11 29  1  0  0  0  0
 12 30  1  0  0  0  0
 13 22  1  0  0  0  0
 13 28  2  0  0  0  0
 14 23  2  0  0  0  0
 14 25  1  0  0  0  0
 15 25  2  0  0  0  0
 15 26  1  0  0  0  0
 16 30  2  0  0  0  0
 16 31  1  0  0  0  0
 17 32  1  0  0  0  0
 18 32  1  0  0  0  0
 18 33  2  0  0  0  0
 18 34  1  0  0  0  0
 19 21  2  0  0  0  0
 19 40  1  0  0  0  0
 20 22  2  0  0  0  0
 20 41  1  0  0  0  0
 21 49  1  0  0  0  0
 22 42  1  0  0  0  0
 23 24  1  0  0  0  0
 23 61  1  0  0  0  0
 24 26  2  0  0  0  0
 24 52  1  0  0  0  0
 25 72  1  0  0  0  0
 26 71  1  0  0  0  0
 27 82  1  0  0  0  0
 28 83  1  0  0  0  0
 29 31  2  0  0  0  0
 29 82  1  0  0  0  0
 30 84  1  0  0  0  0
 31 85  1  0  0  0  0
 32 65  2  0  0  0  0
 33 66  1  0  0  0  0
 33 69  1  0  0  0  0
 34 70  1  0  0  0  0
 34 76  2  0  0  0  0
 35 50  1  0  0  0  0
 35 73  1  0  0  0  0
 35 77  2  0  0  0  0
 36 62  1  0  0  0  0
 36 67  1  0  0  0  0
 36 78  2  0  0  0  0
 37 58  1  0  0  0  0
 37 71  1  0  0  0  0
 37 79  2  0  0  0  0
 38 63  1  0  0  0  0
 38 74  1  0  0  0  0
 38 80  2  0  0  0  0
 39 68  1  0  0  0  0
 39 72  1  0  0  0  0
 39 81  2  0  0  0  0
 40 43  1  0  0  0  0
 41 50  1  0  0  0  0
 42 67  1  0  0  0  0
 43 45  1  0  0  0  0
 44 46  1  0  0  0  0
 44 47  1  0  0  0  0
 45 49  1  0  0  0  0
 46 51  1  0  0  0  0
 47 68  1  0  0  0  0
 48 51  1  0  0  0  0
 48 68  1  0  0  0  0
 49 73  1  0  0  0  0
 50 67  1  0  0  0  0
 51 66  1  0  0  0  0
 53 63  1  0  0  0  0
 54 64  1  0  0  0  0
 55 64  1  0  0  0  0
 56 64  1  0  0  0  0
 57 75  1  0  0  0  0
 58 59  1  0  0  0  0
 59 60  1  0  0  0  0
 60 83  1  0  0  0  0
 61 86  1  0  0  0  0
 61 87  1  0  0  0  0
 62 64  1  0  0  0  0
 62 74  1  0  0  0  0
 63 75  1  0  0  0  0
 65 66  1  0  0  0  0
M  CHG  1  75   1
M  ISO  4  39 100  60 101  72 100  83 101
M  END
> <Batch ID>
0055

> <Smiles>
CNC(C)C(=O)NC(C(=O)N1Cc2cc([101O:1][101CH2:1]CCC(=O)Nc3cc([100NH:0][100C:0](=O)N4CCCC(n5nc(-c6ccc(Oc7ccc(F)cc7F)cc6)c(C(N)=O)c5N)C4)cc(C(F)F)c3C)ccc2CC1C(=O)NC1CCCc2ccccc21)C(C)(C)C

> <Shape>
0.299

> <Color>
0.072

> <Negative vol penalty>
0.000

$$$$

  -OEChem-04042322493D

 87 96  0     1  0  0  0  0  0999 V2000
  -32.3502  -14.4626   20.9916 C   0  0  0  0  0  0  0  0  0  0  0  0
  -31.5151  -15.5492   21.2310 C   0  0  0  0  0  0  0  0  0  0  0  0
  -29.0075  -23.1663   18.5310 C   0  0  0  0  0  0  0  0  0  0  0  0
  -26.9671  -22.6219   19.7047 C   0  0  0  0  0  0  0  0  0  0  0  0
  -31.8483  -13.3247   20.3614 C   0  0  0  0  0  0  0  0  0  0  0  0
  -30.1778  -15.4989   20.8394 C   0  0  0  0  0  0  0  0  0  0  0  0
  -25.3995  -18.0180   23.7253 C   0  0  0  0  0  0  0  0  0  0  0  0
  -19.4038  -27.9752   23.6035 C   0  0  0  0  0  0  0  0  0  0  0  0
  -20.5811  -28.3270   22.9434 C   0  0  0  0  0  0  0  0  0  0  0  0
  -29.5794  -21.9728   18.9717 C   0  0  0  0  0  0  0  0  0  0  0  0
  -27.5390  -21.4284   20.1453 C   0  0  0  0  0  0  0  0  0  0  0  0
  -24.6989  -19.2057   23.5191 C   0  0  0  0  0  0  0  0  0  0  0  0
  -29.4499  -18.6957   18.1490 C   0  0  0  0  0  0  0  0  0  0  0  0
  -30.1506  -17.9299   17.2173 C   0  0  0  0  0  0  0  0  0  0  0  0
  -23.0534  -18.0037   22.2281 C   0  0  0  0  0  0  0  0  0  0  0  0
  -20.2582  -26.5013   21.3944 C   0  0  0  0  0  0  0  0  0  0  0  0
  -32.1514  -18.1314   18.5564 C   0  0  0  0  0  0  0  0  0  0  0  0
  -27.7014  -23.4909   18.8976 C   0  0  0  0  0  0  0  0  0  0  0  0
  -26.9005  -25.1255   17.1103 C   0  0  0  0  0  0  0  0  0  0  0  0
  -30.5017  -13.2567   19.9706 C   0  0  0  0  0  0  0  0  0  0  0  0
  -24.9374  -16.8142   23.1743 C   0  0  0  0  0  0  0  0  0  0  0  0
  -29.6577  -14.3595   20.2023 C   0  0  0  0  0  0  0  0  0  0  0  0
  -23.7486  -16.8018   22.4309 C   0  0  0  0  0  0  0  0  0  0  0  0
  -18.6537  -26.8864   23.1591 C   0  0  0  0  0  0  0  0  0  0  0  0
  -19.0809  -26.1495   22.0546 C   0  0  0  0  0  0  0  0  0  0  0  0
  -21.0083  -27.5901   21.8389 C   0  0  0  0  0  0  0  0  0  0  0  0
  -28.8451  -21.1039   19.7788 C   0  0  0  0  0  0  0  0  0  0  0  0
  -23.5272  -19.1991   22.7680 C   0  0  0  0  0  0  0  0  0  0  0  0
  -30.1000  -19.1795   19.2844 C   0  0  0  0  0  0  0  0  0  0  0  0
  -31.5013  -17.6477   17.4210 C   0  0  0  0  0  0  0  0  0  0  0  0
  -31.4507  -18.8974   19.4881 C   0  0  0  0  0  0  0  0  0  0  0  0
  -27.1103  -24.7238   18.4431 C   0  0  0  0  0  0  0  0  0  0  0  0
  -26.3149  -26.3636   17.2129 C   0  0  0  0  0  0  0  0  0  0  0  0
  -19.3265  -23.0688   20.3911 C   0  0  0  0  0  0  0  0  0  0  0  0
  -27.2075  -24.4406   15.8887 C   0  0  0  0  0  0  0  0  0  0  0  0
  -26.0857  -14.7208   21.0761 C   0  0  0  0  0  0  0  0  0  0  0  0
  -23.4522  -13.0234   21.9164 C   0  0  0  0  0  0  0  0  0  0  0  0
  -20.2829  -13.0305   23.1822 C   0  0  0  0  0  0  0  0  0  0  0  0
  -23.0638  -29.0009   21.4767 C   0  0  0  0  0  0  0  0  0  0  0  0
  -30.0163  -12.0238   19.2501 C   0  0  0  0  0  0  0  0  0  0  0  0
  -25.6903  -15.5371   23.4284 C   0  0  0  0  0  0  0  0  0  0  0  0
  -23.1992  -15.5323   21.8349 C   0  0  0  0  0  0  0  0  0  0  0  0
  -20.0758  -21.7542   20.4999 C   0  0  0  0  0  0  0  0  0  0  0  0
  -28.4951  -11.9048   19.2036 C   0  0  0  0  0  0  0  0  0  0  0  0
  -26.1206  -30.1875   20.0895 C   0  0  0  0  0  0  0  0  0  0  0  0
  -27.8678  -13.2343   18.7965 C   0  0  0  0  0  0  0  0  0  0  0  0
  -26.6993  -28.9592   19.3834 C   0  0  0  0  0  0  0  0  0  0  0  0
  -20.2488  -22.0083   22.9526 C   0  0  0  0  0  0  0  0  0  0  0  0
  -25.4108  -29.8126   21.3892 C   0  0  0  0  0  0  0  0  0  0  0  0
  -19.7137  -23.4259   22.8542 C   0  0  0  0  0  0  0  0  0  0  0  0
  -24.9670  -27.5383   20.5527 C   0  0  0  0  0  0  0  0  0  0  0  0
  -28.1951  -14.3333   19.8146 C   0  0  1  0  0  0  0  0  0  0  0  0
  -25.4039  -14.4578   22.3889 C   0  0  1  0  0  0  0  0  0  0  0  0
  -21.0253  -21.6673   21.6876 C   0  0  1  0  0  0  0  0  0  0  0  0
  -25.6355  -27.8581   19.2057 C   0  0  2  0  0  0  0  0  0  0  0  0
  -17.3971  -26.5284   23.8825 C   0  0  0  0  0  0  0  0  0  0  0  0
  -18.3701  -11.4951   23.7125 C   0  0  0  0  0  0  0  0  0  0  0  0
  -22.7648  -12.8586   18.9482 C   0  0  0  0  0  0  0  0  0  0  0  0
  -20.4427  -12.1820   19.5949 C   0  0  0  0  0  0  0  0  0  0  0  0
  -22.3805  -10.7440   20.2270 C   0  0  0  0  0  0  0  0  0  0  0  0
  -20.3772  -13.7178   26.0593 C   0  0  0  0  0  0  0  0  0  0  0  0
  -18.2888  -24.9750   21.5571 C   0  0  0  0  0  0  0  0  0  0  0  0
  -21.6491  -20.2775   21.7853 C   0  0  0  0  0  0  0  0  0  1  0  0
  -22.0283  -12.9444   21.4213 C   0  0  1  0  0  0  0  0  0  0  0  0
  -19.6216  -12.1740   24.2469 C   0  0  2  0  0  0  0  0  0  0  0  0
  -21.9152  -12.2067   20.0574 C   0  0  0  0  0  0  0  0  0  0  0  0
  -26.6920  -25.6332   19.3276 N   0  0  0  0  0  0  0  0  0  0  0  0
  -26.2137  -26.6185   18.5489 N   0  0  0  0  0  0  0  0  0  0  0  0
  -19.0662  -23.7431   21.5821 N   0  0  0  0  0  0  0  0  0  0  0  0
  -23.9747  -14.3106   22.1059 N   0  0  0  0  0  0  0  0  0  0  0  0
  -24.4146  -28.7677   21.1428 N   0  0  0  0  0  0  0  0  0  0  0  0
  -25.8818  -27.2483   16.2897 N   0  0  0  0  0  0  0  0  0  0  0  0
  -27.8080  -23.1764   15.9642 N   0  0  0  0  0  0  0  0  0  0  0  0
  -22.2032  -27.9483   21.1668 N   0  0  0  0  0  0  0  0  0  0  0  0
  -27.3618  -14.1977   20.9901 N   0  0  0  0  0  0  0  0  0  0  0  0
  -21.2554  -12.3331   22.4971 N   0  0  0  0  0  0  0  0  0  0  0  0
  -19.2384  -13.0099   25.4197 N   0  3  0  0  0  0  0  0  0  0  0  0
  -18.9190  -23.4349   19.2852 O   0  0  0  0  0  0  0  0  0  0  0  0
  -26.9718  -24.9421   14.7633 O   0  0  0  0  0  0  0  0  0  0  0  0
  -25.4970  -15.3504   20.2050 O   0  0  0  0  0  0  0  0  0  0  0  0
  -24.0755  -11.9814   22.1341 O   0  0  0  0  0  0  0  0  0  0  0  0
  -19.9658  -14.1999   22.9761 O   0  0  0  0  0  0  0  0  0  0  0  0
  -22.6930  -30.0672   21.9742 O   0  0  0  0  0  0  0  0  0  0  0  0
  -29.4028  -19.9391   20.2088 O   0  0  0  0  0  0  0  0  0  0  0  0
  -22.8418  -20.3570   22.5647 O   0  0  0  0  0  0  0  0  0  1  0  0
  -32.1737  -16.9109   16.5270 F   0  0  0  0  0  0  0  0  0  0  0  0
  -32.0804  -19.3584   20.5775 F   0  0  0  0  0  0  0  0  0  0  0  0
  1  2  1  0  0  0  0
  1  5  2  0  0  0  0
  2  6  2  0  0  0  0
  3 10  2  0  0  0  0
  3 18  1  0  0  0  0
  4 11  1  0  0  0  0
  4 18  2  0  0  0  0
  5 20  1  0  0  0  0
  6 22  1  0  0  0  0
  7 12  2  0  0  0  0
  7 21  1  0  0  0  0
  8  9  2  0  0  0  0
  8 24  1  0  0  0  0
  9 26  1  0  0  0  0
 10 27  1  0  0  0  0
 11 27  2  0  0  0  0
 12 28  1  0  0  0  0
 13 14  2  0  0  0  0
 13 29  1  0  0  0  0
 14 30  1  0  0  0  0
 15 23  1  0  0  0  0
 15 28  2  0  0  0  0
 16 25  1  0  0  0  0
 16 26  2  0  0  0  0
 17 30  2  0  0  0  0
 17 31  1  0  0  0  0
 18 32  1  0  0  0  0
 19 32  1  0  0  0  0
 19 33  2  0  0  0  0
 19 35  1  0  0  0  0
 20 22  2  0  0  0  0
 20 40  1  0  0  0  0
 21 23  2  0  0  0  0
 21 41  1  0  0  0  0
 22 52  1  0  0  0  0
 23 42  1  0  0  0  0
 24 25  2  0  0  0  0
 24 56  1  0  0  0  0
 25 62  1  0  0  0  0
 26 74  1  0  0  0  0
 27 84  1  0  0  0  0
 28 85  1  0  0  0  0
 29 31  2  0  0  0  0
 29 84  1  0  0  0  0
 30 86  1  0  0  0  0
 31 87  1  0  0  0  0
 32 67  2  0  0  0  0
 33 68  1  0  0  0  0
 33 72  1  0  0  0  0
 34 43  1  0  0  0  0
 34 69  1  0  0  0  0
 34 78  2  0  0  0  0
 35 73  1  0  0  0  0
 35 79  2  0  0  0  0
 36 53  1  0  0  0  0
 36 75  1  0  0  0  0
 36 80  2  0  0  0  0
 37 64  1  0  0  0  0
 37 70  1  0  0  0  0
 37 81  2  0  0  0  0
 38 65  1  0  0  0  0
 38 76  1  0  0  0  0
 38 82  2  0  0  0  0
 39 71  1  0  0  0  0
 39 74  1  0  0  0  0
 39 83  2  0  0  0  0
 40 44  1  0  0  0  0
 41 53  1  0  0  0  0
 42 70  1  0  0  0  0
 43 54  1  0  0  0  0
 44 46  1  0  0  0  0
 45 47  1  0  0  0  0
 45 49  1  0  0  0  0
 46 52  1  0  0  0  0
 47 55  1  0  0  0  0
 48 50  1  0  0  0  0
 48 54  1  0  0  0  0
 49 71  1  0  0  0  0
 50 69  1  0  0  0  0
 51 55  1  0  0  0  0
 51 71  1  0  0  0  0
 52 75  1  0  0  0  0
 53 70  1  0  0  0  0
 54 63  1  0  0  0  0
 55 68  1  0  0  0  0
 57 65  1  0  0  0  0
 58 66  1  0  0  0  0
 59 66  1  0  0  0  0
 60 66  1  0  0  0  0
 61 77  1  0  0  0  0
 62 69  1  0  0  0  0
 63 85  1  0  0  0  0
 64 66  1  0  0  0  0
 64 76  1  0  0  0  0
 65 77  1  0  0  0  0
 67 68  1  0  0  0  0
M  CHG  1  77   1
M  ISO  4  39 100  63 101  74 100  85 101
M  END
> <Batch ID>
0055

> <Smiles>
CNC(C)C(=O)NC(C(=O)N1Cc2cc([101O:1][101CH2:1]C3CCN(Cc4cc([100NH:0][100C:0](=O)N5CCCC(n6nc(-c7ccc(Oc8ccc(F)cc8F)cc7)c(C(N)=O)c6N)C5)ccc4C)C(=O)C3)ccc2CC1C(=O)NC1CCCc2ccccc21)C(C)(C)C

> <Shape>
0.238

> <Color>
0.080

> <Negative vol penalty>
0.000

$$$$

  -OEChem-04042322493D

 96106  0     1  0  0  0  0  0999 V2000
  -23.6833  -20.1836   18.6939 C   0  0  0  0  0  0  0  0  0  0  0  0
  -24.6193  -21.1901   18.9090 C   0  0  0  0  0  0  0  0  0  0  0  0
  -23.1837   -9.9679   19.8566 C   0  0  0  0  0  0  0  0  0  0  0  0
  -23.7788   -9.8698   22.1961 C   0  0  0  0  0  0  0  0  0  0  0  0
  -22.8261  -20.2532   17.5965 C   0  0  0  0  0  0  0  0  0  0  0  0
  -24.6994  -22.2664   18.0260 C   0  0  0  0  0  0  0  0  0  0  0  0
  -25.0890  -26.7144   20.4153 C   0  0  0  0  0  0  0  0  0  0  0  0
  -22.4281   -8.8043   20.0000 C   0  0  0  0  0  0  0  0  0  0  0  0
  -23.0231   -8.7062   22.3395 C   0  0  0  0  0  0  0  0  0  0  0  0
  -26.3396  -27.0531   20.9302 C   0  0  0  0  0  0  0  0  0  0  0  0
  -19.3871   -7.9411   21.2000 C   0  0  0  0  0  0  0  0  0  0  0  0
  -18.1181   -7.9169   20.6215 C   0  0  0  0  0  0  0  0  0  0  0  0
  -32.1286  -23.7616   20.6606 C   0  0  0  0  0  0  0  0  0  0  0  0
  -26.7385  -28.4659   19.0160 C   0  0  0  0  0  0  0  0  0  0  0  0
  -30.9200  -21.6755   20.8164 C   0  0  0  0  0  0  0  0  0  0  0  0
  -18.7771   -6.0367   19.2548 C   0  0  0  0  0  0  0  0  0  0  0  0
  -23.8592  -10.5006   20.9547 C   0  0  0  0  0  0  0  0  0  0  0  0
  -31.0116  -24.3657   20.0836 C   0  0  0  0  0  0  0  0  0  0  0  0
  -24.1998  -13.0287   20.9750 C   0  0  0  0  0  0  0  0  0  0  0  0
  -22.8892  -21.3358   16.7050 C   0  0  0  0  0  0  0  0  0  0  0  0
  -24.6576  -27.2412   19.1894 C   0  0  0  0  0  0  0  0  0  0  0  0
  -23.8431  -22.3499   16.9149 C   0  0  0  0  0  0  0  0  0  0  0  0
  -25.4810  -28.1343   18.4889 C   0  0  0  0  0  0  0  0  0  0  0  0
  -29.8029  -22.2796   20.2395 C   0  0  0  0  0  0  0  0  0  0  0  0
  -29.8487  -23.6248   19.8731 C   0  0  0  0  0  0  0  0  0  0  0  0
  -22.3477   -8.1734   21.2415 C   0  0  0  0  0  0  0  0  0  0  0  0
  -27.1657  -27.9267   20.2292 C   0  0  0  0  0  0  0  0  0  0  0  0
  -20.3511   -7.0132   20.8059 C   0  0  0  0  0  0  0  0  0  0  0  0
  -17.8131   -6.9647   19.6489 C   0  0  0  0  0  0  0  0  0  0  0  0
  -32.0828  -22.4165   21.0269 C   0  0  0  0  0  0  0  0  0  0  0  0
  -20.0461   -6.0610   19.8333 C   0  0  0  0  0  0  0  0  0  0  0  0
  -24.6404  -11.7023   20.8071 C   0  0  0  0  0  0  0  0  0  0  0  0
  -25.3123  -13.7944   20.7250 C   0  0  0  0  0  0  0  0  0  0  0  0
  -27.3864  -17.6682   17.6075 C   0  0  0  0  0  0  0  0  0  0  0  0
  -27.6363  -18.9330   17.2498 C   0  0  0  0  0  0  0  0  0  0  0  0
  -30.7937  -18.7068   18.7012 C   0  0  0  0  0  0  0  0  0  0  0  0
  -30.5597  -17.4354   19.0445 C   0  0  0  0  0  0  0  0  0  0  0  0
  -28.3358  -19.0576   20.5286 C   0  0  0  0  0  0  0  0  0  0  0  0
  -28.8628  -20.0107   19.7361 C   0  0  0  0  0  0  0  0  0  0  0  0
  -28.4612  -16.7262   17.9775 C   0  0  0  0  0  0  0  0  0  0  0  0
  -31.0838  -25.7912   19.7049 C   0  0  0  0  0  0  0  0  0  0  0  0
  -22.9009  -13.5244   21.3257 C   0  0  0  0  0  0  0  0  0  0  0  0
  -23.8683  -26.0044   16.3696 C   0  0  0  0  0  0  0  0  0  0  0  0
  -23.0412  -29.0676   15.6952 C   0  0  0  0  0  0  0  0  0  0  0  0
  -23.4393  -32.3904   16.3641 C   0  0  0  0  0  0  0  0  0  0  0  0
  -29.7667  -14.8956   17.5278 C   0  0  0  0  0  0  0  0  0  0  0  0
  -21.9737  -21.3436   15.5065 C   0  0  0  0  0  0  0  0  0  0  0  0
  -23.2948  -26.8869   18.6606 C   0  0  0  0  0  0  0  0  0  0  0  0
  -25.0561  -28.7432   17.1785 C   0  0  0  0  0  0  0  0  0  0  0  0
  -28.9639  -19.6390   17.1958 C   0  0  0  0  0  0  0  0  0  0  0  0
  -28.4361  -17.5574   20.4524 C   0  0  0  0  0  0  0  0  0  0  0  0
  -21.8707  -22.7069   14.8276 C   0  0  0  0  0  0  0  0  0  0  0  0
  -30.1647  -12.4977   20.1997 C   0  0  0  0  0  0  0  0  0  0  0  0
  -23.2564  -23.3169   14.6419 C   0  0  0  0  0  0  0  0  0  0  0  0
  -28.7238  -12.1602   20.5815 C   0  0  0  0  0  0  0  0  0  0  0  0
  -30.2997  -12.7614   18.7033 C   0  0  0  0  0  0  0  0  0  0  0  0
  -27.9319  -13.4887   18.5740 C   0  0  0  0  0  0  0  0  0  0  0  0
  -23.9439  -23.5460   15.9933 C   0  0  1  0  0  0  0  0  0  0  0  0
  -29.7481  -19.7774   18.5223 C   0  0  2  0  0  0  0  0  0  0  0  0
  -29.2013  -16.8698   19.3108 C   0  0  2  0  0  0  0  0  0  0  0  0
  -23.1703  -27.0803   17.1524 C   0  0  1  0  0  0  0  0  0  0  0  0
  -27.7518  -13.2437   20.0820 C   0  0  1  0  0  0  0  0  0  0  0  0
  -28.6503  -24.2718   19.2542 C   0  0  0  0  0  0  0  0  0  0  0  0
  -22.6568  -34.6566   15.6228 C   0  0  0  0  0  0  0  0  0  0  0  0
  -24.8271  -28.8748   13.2287 C   0  0  0  0  0  0  0  0  0  0  0  0
  -24.7656  -31.3729   13.0748 C   0  0  0  0  0  0  0  0  0  0  0  0
  -22.6564  -30.0593   12.8550 C   0  0  0  0  0  0  0  0  0  0  0  0
  -22.3032  -32.9977   19.0285 C   0  0  0  0  0  0  0  0  0  0  0  0
  -28.5703  -21.4633   20.0255 C   0  0  0  0  0  0  0  0  0  0  0  0
  -30.7544  -28.1507   20.3538 C   0  0  0  0  0  0  0  0  0  0  0  0
  -29.4127  -28.5677   19.7865 C   0  0  0  0  0  0  0  0  0  1  0  0
  -23.7569  -30.2667   15.1217 C   0  0  1  0  0  0  0  0  0  0  0  0
  -22.4289  -33.5015   16.5854 C   0  0  2  0  0  0  0  0  0  0  0  0
  -24.0106  -30.1306   13.5938 C   0  0  0  0  0  0  0  0  0  0  0  0
  -25.9321  -11.6261   20.4758 N   0  0  0  0  0  0  0  0  0  0  0  0
  -28.7580  -15.7693   17.1670 N   0  0  0  0  0  0  0  0  0  0  0  0
  -26.3127  -12.9143   20.4335 N   0  0  0  0  0  0  0  0  0  0  0  0
  -23.7174  -28.3609   16.6998 N   0  0  0  0  0  0  0  0  0  0  0  0
  -29.3382  -13.7704   18.2564 N   0  0  0  0  0  0  0  0  0  0  0  0
  -25.5227  -15.1279   20.7282 N   0  0  0  0  0  0  0  0  0  0  0  0
  -31.5020  -26.0942   18.4760 N   0  0  0  0  0  0  0  0  0  0  0  0
  -21.8708  -12.6005   21.5482 N   0  0  0  0  0  0  0  0  0  0  0  0
  -23.4118  -24.7279   16.6371 N   0  0  0  0  0  0  0  0  0  0  0  0
  -22.9629  -31.4326   15.4941 N   0  0  0  0  0  0  0  0  0  0  0  0
  -30.7290  -26.7088   20.6123 N   0  3  0  0  0  0  0  0  0  0  0  0
  -22.5292  -34.0232   17.9777 N   0  3  0  0  0  0  0  0  0  0  0  0
  -22.6569  -14.7510   21.4224 O   0  0  0  0  0  0  0  0  0  0  0  0
  -24.7545  -26.3099   15.5803 O   0  0  0  0  0  0  0  0  0  0  0  0
  -21.9203  -28.7732   15.2726 O   0  0  0  0  0  0  0  0  0  0  0  0
  -24.5425  -32.3757   16.9057 O   0  0  0  0  0  0  0  0  0  0  0  0
  -30.9556  -15.0648   17.2458 O   0  0  0  0  0  0  0  0  0  0  0  0
  -21.6103   -7.0381   21.3818 O   0  0  0  0  0  0  0  0  0  0  0  0
  -28.3871  -28.2585   20.7293 O   0  0  0  0  0  0  0  0  0  1  0  0
  -16.5940   -6.9405   19.0945 F   0  0  0  0  0  0  0  0  0  0  0  0
  -33.1566  -21.8363   21.5791 F   0  0  0  0  0  0  0  0  0  0  0  0
  -20.9678   -5.1663   19.4515 F   0  0  0  0  0  0  0  0  0  0  0  0
  1  2  1  0  0  0  0
  1  5  2  0  0  0  0
  2  6  2  0  0  0  0
  3  8  2  0  0  0  0
  3 17  1  0  0  0  0
  4  9  1  0  0  0  0
  4 17  2  0  0  0  0
  5 20  1  0  0  0  0
  6 22  1  0  0  0  0
  7 10  2  0  0  0  0
  7 21  1  0  0  0  0
  8 26  1  0  0  0  0
  9 26  2  0  0  0  0
 10 27  1  0  0  0  0
 11 12  2  0  0  0  0
 11 28  1  0  0  0  0
 12 29  1  0  0  0  0
 13 18  1  0  0  0  0
 13 30  2  0  0  0  0
 14 23  1  0  0  0  0
 14 27  2  0  0  0  0
 15 24  2  0  0  0  0
 15 30  1  0  0  0  0
 16 29  2  0  0  0  0
 16 31  1  0  0  0  0
 17 32  1  0  0  0  0
 18 25  2  0  0  0  0
 18 41  1  0  0  0  0
 19 32  1  0  0  0  0
 19 33  2  0  0  0  0
 19 42  1  0  0  0  0
 20 22  2  0  0  0  0
 20 47  1  0  0  0  0
 21 23  2  0  0  0  0
 21 48  1  0  0  0  0
 22 58  1  0  0  0  0
 23 49  1  0  0  0  0
 24 25  1  0  0  0  0
 24 69  1  0  0  0  0
 25 63  1  0  0  0  0
 26 92  1  0  0  0  0
 27 93  1  0  0  0  0
 28 31  2  0  0  0  0
 28 92  1  0  0  0  0
 29 94  1  0  0  0  0
 30 95  1  0  0  0  0
 31 96  1  0  0  0  0
 32 75  2  0  0  0  0
 33 77  1  0  0  0  0
 33 80  1  0  0  0  0
 34 35  2  0  0  0  0
 34 40  1  0  0  0  0
 35 50  1  0  0  0  0
 36 37  2  0  0  0  0
 36 59  1  0  0  0  0
 37 60  1  0  0  0  0
 38 39  2  0  0  0  0
 38 51  1  0  0  0  0
 39 59  1  0  0  0  0
 39 69  1  0  0  0  0
 40 60  1  0  0  0  0
 40 76  2  0  0  0  0
 41 81  1  0  0  0  0
 41 85  2  0  0  0  0
 42 82  1  0  0  0  0
 42 87  2  0  0  0  0
 43 61  1  0  0  0  0
 43 83  1  0  0  0  0
 43 88  2  0  0  0  0
 44 72  1  0  0  0  0
 44 78  1  0  0  0  0
 44 89  2  0  0  0  0
 45 73  1  0  0  0  0
 45 84  1  0  0  0  0
 45 90  2  0  0  0  0
 46 76  1  0  0  0  0
 46 79  1  0  0  0  0
 46 91  2  0  0  0  0
 47 52  1  0  0  0  0
 48 61  1  0  0  0  0
 49 78  1  0  0  0  0
 50 59  1  0  0  0  0
 51 60  1  0  0  0  0
 52 54  1  0  0  0  0
 53 55  1  0  0  0  0
 53 56  1  0  0  0  0
 54 58  1  0  0  0  0
 55 62  1  0  0  0  0
 56 79  1  0  0  0  0
 57 62  1  0  0  0  0
 57 79  1  0  0  0  0
 58 83  1  0  0  0  0
 61 78  1  0  0  0  0
 62 77  1  0  0  0  0
 64 73  1  0  0  0  0
 65 74  1  0  0  0  0
 66 74  1  0  0  0  0
 67 74  1  0  0  0  0
 68 86  1  0  0  0  0
 70 71  1  0  0  0  0
 70 85  1  0  0  0  0
 71 93  1  0  0  0  0
 72 74  1  0  0  0  0
 72 84  1  0  0  0  0
 73 86  1  0  0  0  0
 75 77  1  0  0  0  0
M  CHG  2  85   1  86   1
M  ISO  4  46 100  71 101  76 100  93 101
M  END
> <Batch ID>
0055

> <Smiles>
CNC(C)C(=O)NC(C(=O)N1Cc2cc([101O:1][101CH2:1]CNC(=N)c3cc(F)cc(CC4=CCC5C=CC4CC=CC5=[100N:0][100C:0](=O)N4CCCC(n5nc(-c6ccc(Oc7ccc(F)cc7F)cc6)c(C(N)=O)c5N)C4)c3C)ccc2CC1C(=O)NC1CCCc2ccccc21)C(C)(C)C

> <Shape>
0.238

> <Color>
0.168

> <Negative vol penalty>
0.000

$$$$

  -OEChem-04042322493D

 85 93  0     1  0  0  0  0  0999 V2000
  -28.3858  -37.4837   21.7965 C   0  0  0  0  0  0  0  0  0  0  0  0
  -28.7866  -36.2190   21.3775 C   0  0  0  0  0  0  0  0  0  0  0  0
  -30.9061  -18.0838   18.3094 C   0  0  0  0  0  0  0  0  0  0  0  0
  -22.3632  -14.7763   24.0716 C   0  0  0  0  0  0  0  0  0  0  0  0
  -23.0735  -16.5097   22.5458 C   0  0  0  0  0  0  0  0  0  0  0  0
  -27.4203  -37.6128   22.7940 C   0  0  0  0  0  0  0  0  0  0  0  0
  -28.2228  -35.0827   21.9568 C   0  0  0  0  0  0  0  0  0  0  0  0
  -27.0215  -29.7517   19.1922 C   0  0  0  0  0  0  0  0  0  0  0  0
  -31.3616  -17.1983   19.2860 C   0  0  0  0  0  0  0  0  0  0  0  0
  -30.3002  -19.2833   18.6835 C   0  0  0  0  0  0  0  0  0  0  0  0
  -21.3418  -15.6043   24.5369 C   0  0  0  0  0  0  0  0  0  0  0  0
  -22.0520  -17.3377   23.0111 C   0  0  0  0  0  0  0  0  0  0  0  0
  -27.7133  -28.5421   19.1464 C   0  0  0  0  0  0  0  0  0  0  0  0
  -21.0260  -18.2199   26.6543 C   0  0  0  0  0  0  0  0  0  0  0  0
  -20.8324  -18.2965   28.0335 C   0  0  0  0  0  0  0  0  0  0  0  0
  -26.3537  -27.7030   20.9538 C   0  0  0  0  0  0  0  0  0  0  0  0
  -18.5776  -17.4722   27.7628 C   0  0  0  0  0  0  0  0  0  0  0  0
  -23.2291  -15.2289   23.0761 C   0  0  0  0  0  0  0  0  0  0  0  0
  -24.2187  -13.4606   21.5264 C   0  0  0  0  0  0  0  0  0  0  0  0
  -26.8375  -36.4776   23.3790 C   0  0  0  0  0  0  0  0  0  0  0  0
  -25.9963  -29.9503   20.1281 C   0  0  0  0  0  0  0  0  0  0  0  0
  -27.2496  -35.1969   22.9640 C   0  0  0  0  0  0  0  0  0  0  0  0
  -25.6488  -28.9152   21.0078 C   0  0  0  0  0  0  0  0  0  0  0  0
  -31.2112  -17.5120   20.6368 C   0  0  0  0  0  0  0  0  0  0  0  0
  -30.6053  -18.7115   21.0109 C   0  0  0  0  0  0  0  0  0  0  0  0
  -30.1498  -19.5971   20.0343 C   0  0  0  0  0  0  0  0  0  0  0  0
  -21.1861  -16.8850   24.0067 C   0  0  0  0  0  0  0  0  0  0  0  0
  -27.3814  -27.5186   20.0291 C   0  0  0  0  0  0  0  0  0  0  0  0
  -19.9953  -17.7695   25.8293 C   0  0  0  0  0  0  0  0  0  0  0  0
  -19.6082  -17.9226   28.5878 C   0  0  0  0  0  0  0  0  0  0  0  0
  -18.7711  -17.3956   26.3836 C   0  0  0  0  0  0  0  0  0  0  0  0
  -24.2849  -14.3742   22.5954 C   0  0  0  0  0  0  0  0  0  0  0  0
  -25.4724  -12.9021   21.4741 C   0  0  0  0  0  0  0  0  0  0  0  0
  -28.4592  -22.9379   20.3045 C   0  0  0  0  0  0  0  0  0  0  0  0
  -27.9236  -23.9871   19.6653 C   0  0  0  0  0  0  0  0  0  0  0  0
  -23.1221  -13.1452   20.6583 C   0  0  0  0  0  0  0  0  0  0  0  0
  -29.0337  -21.7942   19.5355 C   0  0  0  0  0  0  0  0  0  0  0  0
  -25.5282  -31.9535   22.5513 C   0  0  0  0  0  0  0  0  0  0  0  0
  -22.5998  -30.5604   22.6279 C   0  0  0  0  0  0  0  0  0  0  0  0
  -20.6595  -27.8522   21.8880 C   0  0  0  0  0  0  0  0  0  0  0  0
  -30.8663  -14.8175   23.2315 C   0  0  0  0  0  0  0  0  0  0  0  0
  -25.8320  -36.6671   24.4870 C   0  0  0  0  0  0  0  0  0  0  0  0
  -25.2418  -31.2514   20.1469 C   0  0  0  0  0  0  0  0  0  0  0  0
  -24.5425  -29.0708   22.0179 C   0  0  0  0  0  0  0  0  0  0  0  0
  -25.0121  -35.4148   24.7862 C   0  0  0  0  0  0  0  0  0  0  0  0
  -29.2151  -11.8343   24.2567 C   0  0  0  0  0  0  0  0  0  0  0  0
  -25.9194  -34.1921   24.8789 C   0  0  0  0  0  0  0  0  0  0  0  0
  -27.7583  -12.0646   23.8507 C   0  0  0  0  0  0  0  0  0  0  0  0
  -29.8760  -13.1225   24.7424 C   0  0  0  0  0  0  0  0  0  0  0  0
  -28.3247  -14.4884   23.4001 C   0  0  0  0  0  0  0  0  0  0  0  0
  -26.6435  -33.9405   23.5507 C   0  0  1  0  0  0  0  0  0  0  0  0
  -24.5605  -31.5277   21.4836 C   0  0  1  0  0  0  0  0  0  0  0  0
  -27.6324  -13.2294   22.8505 C   0  0  2  0  0  0  0  0  0  0  0  0
  -30.4463  -19.0439   22.4615 C   0  0  0  0  0  0  0  0  0  0  0  0
  -18.3124  -26.9916   22.1067 C   0  0  0  0  0  0  0  0  0  0  0  0
  -23.0887  -29.9857   25.5844 C   0  0  0  0  0  0  0  0  0  0  0  0
  -21.2034  -28.3401   25.5046 C   0  0  0  0  0  0  0  0  0  0  0  0
  -20.7714  -30.7526   25.0400 C   0  0  0  0  0  0  0  0  0  0  0  0
  -20.3368  -27.6491   18.9531 C   0  0  0  0  0  0  0  0  0  0  0  0
  -31.7078  -16.5460   21.6621 C   0  0  0  0  0  0  0  0  0  0  0  0
  -27.3378  -25.1658   20.3736 C   0  0  0  0  0  0  0  0  0  1  0  0
  -22.0040  -29.3618   23.3260 C   0  0  1  0  0  0  0  0  0  0  0  0
  -19.2994  -27.7388   21.2234 C   0  0  2  0  0  0  0  0  0  0  0  0
  -21.7891  -29.6075   24.8461 C   0  0  0  0  0  0  0  0  0  0  0  0
  -25.4855  -14.3976   23.1802 N   0  0  0  0  0  0  0  0  0  0  0  0
  -26.1854  -13.4918   22.4761 N   0  0  0  0  0  0  0  0  0  0  0  0
  -23.8385  -30.3637   22.0013 N   0  0  0  0  0  0  0  0  0  0  0  0
  -29.7222  -14.1867   23.7475 N   0  0  0  0  0  0  0  0  0  0  0  0
  -26.0234  -11.9688   20.6692 N   0  0  0  0  0  0  0  0  0  0  0  0
  -21.9046  -13.8122   20.8504 N   0  0  0  0  0  0  0  0  0  0  0  0
  -29.5322  -20.8208   20.3915 N   0  0  0  0  0  0  0  0  0  0  0  0
  -25.7501  -33.3166   22.5984 N   0  0  0  0  0  0  0  0  0  0  0  0
  -20.7854  -29.0284   22.5964 N   0  0  0  0  0  0  0  0  0  0  0  0
  -30.6319  -15.8108   22.2886 N   0  0  0  0  0  0  0  0  0  0  0  0
  -19.4149  -27.0114   19.9279 N   0  3  0  0  0  0  0  0  0  0  0  0
  -23.2142  -12.2851   19.7498 O   0  0  0  0  0  0  0  0  0  0  0  0
  -29.0303  -21.7855   18.3102 O   0  0  0  0  0  0  0  0  0  0  0  0
  -26.0349  -31.1081   23.2794 O   0  0  0  0  0  0  0  0  0  0  0  0
  -21.9852  -31.6300   22.6322 O   0  0  0  0  0  0  0  0  0  0  0  0
  -21.5225  -26.9824   21.7916 O   0  0  0  0  0  0  0  0  0  0  0  0
  -32.0120  -14.5139   23.5809 O   0  0  0  0  0  0  0  0  0  0  0  0
  -20.1894  -17.6933   24.4603 O   0  0  0  0  0  0  0  0  0  0  0  0
  -28.0554  -26.3371   19.9869 O   0  0  0  0  0  0  0  0  0  1  0  0
  -19.4230  -17.9948   29.9124 F   0  0  0  0  0  0  0  0  0  0  0  0
  -17.7777  -16.9610   25.5962 F   0  0  0  0  0  0  0  0  0  0  0  0
  1  2  1  0  0  0  0
  1  6  2  0  0  0  0
  2  7  2  0  0  0  0
  3  9  1  0  0  0  0
  3 10  2  0  0  0  0
  4 11  2  0  0  0  0
  4 18  1  0  0  0  0
  5 12  1  0  0  0  0
  5 18  2  0  0  0  0
  6 20  1  0  0  0  0
  7 22  1  0  0  0  0
  8 13  2  0  0  0  0
  8 21  1  0  0  0  0
  9 24  2  0  0  0  0
 10 26  1  0  0  0  0
 11 27  1  0  0  0  0
 12 27  2  0  0  0  0
 13 28  1  0  0  0  0
 14 15  2  0  0  0  0
 14 29  1  0  0  0  0
 15 30  1  0  0  0  0
 16 23  1  0  0  0  0
 16 28  2  0  0  0  0
 17 30  2  0  0  0  0
 17 31  1  0  0  0  0
 18 32  1  0  0  0  0
 19 32  1  0  0  0  0
 19 33  2  0  0  0  0
 19 36  1  0  0  0  0
 20 22  2  0  0  0  0
 20 42  1  0  0  0  0
 21 23  2  0  0  0  0
 21 43  1  0  0  0  0
 22 51  1  0  0  0  0
 23 44  1  0  0  0  0
 24 25  1  0  0  0  0
 24 60  1  0  0  0  0
 25 26  2  0  0  0  0
 25 54  1  0  0  0  0
 26 71  1  0  0  0  0
 27 82  1  0  0  0  0
 28 83  1  0  0  0  0
 29 31  2  0  0  0  0
 29 82  1  0  0  0  0
 30 84  1  0  0  0  0
 31 85  1  0  0  0  0
 32 65  2  0  0  0  0
 33 66  1  0  0  0  0
 33 69  1  0  0  0  0
 34 35  2  0  0  0  0
 34 37  1  0  0  0  0
 35 61  1  0  0  0  0
 36 70  1  0  0  0  0
 36 76  2  0  0  0  0
 37 71  1  0  0  0  0
 37 77  2  0  0  0  0
 38 52  1  0  0  0  0
 38 72  1  0  0  0  0
 38 78  2  0  0  0  0
 39 62  1  0  0  0  0
 39 67  1  0  0  0  0
 39 79  2  0  0  0  0
 40 63  1  0  0  0  0
 40 73  1  0  0  0  0
 40 80  2  0  0  0  0
 41 68  1  0  0  0  0
 41 74  1  0  0  0  0
 41 81  2  0  0  0  0
 42 45  1  0  0  0  0
 43 52  1  0  0  0  0
 44 67  1  0  0  0  0
 45 47  1  0  0  0  0
 46 48  1  0  0  0  0
 46 49  1  0  0  0  0
 47 51  1  0  0  0  0
 48 53  1  0  0  0  0
 49 68  1  0  0  0  0
 50 53  1  0  0  0  0
 50 68  1  0  0  0  0
 51 72  1  0  0  0  0
 52 67  1  0  0  0  0
 53 66  1  0  0  0  0
 55 63  1  0  0  0  0
 56 64  1  0  0  0  0
 57 64  1  0  0  0  0
 58 64  1  0  0  0  0
 59 75  1  0  0  0  0
 60 74  1  0  0  0  0
 61 83  1  0  0  0  0
 62 64  1  0  0  0  0
 62 73  1  0  0  0  0
 63 75  1  0  0  0  0
 65 66  1  0  0  0  0
M  CHG  1  75   1
M  ISO  4  41 100  61 101  74 100  83 101
M  END
> <Batch ID>
0055

> <Smiles>
CNC(C)C(=O)NC(C(=O)N1Cc2cc([101O:1][101CH2:1]C=CC(=O)Nc3cccc(C[100NH:0][100C:0](=O)N4CCCC(n5nc(-c6ccc(Oc7ccc(F)cc7F)cc6)c(C(N)=O)c5N)C4)c3C)ccc2CC1C(=O)NC1CCCc2ccccc21)C(C)(C)C

> <Shape>
0.248

> <Color>
0.078

> <Negative vol penalty>
0.000

$$$$

  -OEChem-04042322493D

 87 96  0     1  0  0  0  0  0999 V2000
  -32.3502  -14.4626   20.9916 C   0  0  0  0  0  0  0  0  0  0  0  0
  -31.5151  -15.5492   21.2310 C   0  0  0  0  0  0  0  0  0  0  0  0
  -29.0075  -23.1663   18.5310 C   0  0  0  0  0  0  0  0  0  0  0  0
  -26.9671  -22.6219   19.7047 C   0  0  0  0  0  0  0  0  0  0  0  0
  -31.8483  -13.3247   20.3614 C   0  0  0  0  0  0  0  0  0  0  0  0
  -30.1778  -15.4989   20.8394 C   0  0  0  0  0  0  0  0  0  0  0  0
  -25.3995  -18.0180   23.7253 C   0  0  0  0  0  0  0  0  0  0  0  0
  -19.4038  -27.9752   23.6035 C   0  0  0  0  0  0  0  0  0  0  0  0
  -20.5811  -28.3270   22.9434 C   0  0  0  0  0  0  0  0  0  0  0  0
  -29.5794  -21.9728   18.9717 C   0  0  0  0  0  0  0  0  0  0  0  0
  -27.5390  -21.4284   20.1453 C   0  0  0  0  0  0  0  0  0  0  0  0
  -24.6989  -19.2057   23.5191 C   0  0  0  0  0  0  0  0  0  0  0  0
  -29.4499  -18.6957   18.1490 C   0  0  0  0  0  0  0  0  0  0  0  0
  -30.1506  -17.9299   17.2173 C   0  0  0  0  0  0  0  0  0  0  0  0
  -23.0534  -18.0037   22.2281 C   0  0  0  0  0  0  0  0  0  0  0  0
  -20.2582  -26.5013   21.3944 C   0  0  0  0  0  0  0  0  0  0  0  0
  -32.1514  -18.1314   18.5564 C   0  0  0  0  0  0  0  0  0  0  0  0
  -27.7014  -23.4909   18.8976 C   0  0  0  0  0  0  0  0  0  0  0  0
  -26.9005  -25.1255   17.1103 C   0  0  0  0  0  0  0  0  0  0  0  0
  -30.5017  -13.2567   19.9706 C   0  0  0  0  0  0  0  0  0  0  0  0
  -24.9374  -16.8142   23.1743 C   0  0  0  0  0  0  0  0  0  0  0  0
  -29.6577  -14.3595   20.2023 C   0  0  0  0  0  0  0  0  0  0  0  0
  -23.7486  -16.8018   22.4309 C   0  0  0  0  0  0  0  0  0  0  0  0
  -18.6537  -26.8864   23.1591 C   0  0  0  0  0  0  0  0  0  0  0  0
  -19.0809  -26.1495   22.0546 C   0  0  0  0  0  0  0  0  0  0  0  0
  -21.0083  -27.5901   21.8389 C   0  0  0  0  0  0  0  0  0  0  0  0
  -28.8451  -21.1039   19.7788 C   0  0  0  0  0  0  0  0  0  0  0  0
  -23.5272  -19.1991   22.7680 C   0  0  0  0  0  0  0  0  0  0  0  0
  -30.1000  -19.1795   19.2844 C   0  0  0  0  0  0  0  0  0  0  0  0
  -31.5013  -17.6477   17.4210 C   0  0  0  0  0  0  0  0  0  0  0  0
  -31.4507  -18.8974   19.4881 C   0  0  0  0  0  0  0  0  0  0  0  0
  -27.1103  -24.7238   18.4431 C   0  0  0  0  0  0  0  0  0  0  0  0
  -26.3149  -26.3636   17.2129 C   0  0  0  0  0  0  0  0  0  0  0  0
  -19.3265  -23.0688   20.3911 C   0  0  0  0  0  0  0  0  0  0  0  0
  -27.2075  -24.4406   15.8887 C   0  0  0  0  0  0  0  0  0  0  0  0
  -26.0857  -14.7208   21.0761 C   0  0  0  0  0  0  0  0  0  0  0  0
  -23.4522  -13.0234   21.9164 C   0  0  0  0  0  0  0  0  0  0  0  0
  -20.2829  -13.0305   23.1822 C   0  0  0  0  0  0  0  0  0  0  0  0
  -23.0638  -29.0009   21.4767 C   0  0  0  0  0  0  0  0  0  0  0  0
  -30.0163  -12.0238   19.2501 C   0  0  0  0  0  0  0  0  0  0  0  0
  -25.6903  -15.5371   23.4284 C   0  0  0  0  0  0  0  0  0  0  0  0
  -23.1992  -15.5323   21.8349 C   0  0  0  0  0  0  0  0  0  0  0  0
  -20.0758  -21.7542   20.4999 C   0  0  0  0  0  0  0  0  0  0  0  0
  -28.4951  -11.9048   19.2036 C   0  0  0  0  0  0  0  0  0  0  0  0
  -26.1206  -30.1875   20.0895 C   0  0  0  0  0  0  0  0  0  0  0  0
  -27.8678  -13.2343   18.7965 C   0  0  0  0  0  0  0  0  0  0  0  0
  -26.6993  -28.9592   19.3834 C   0  0  0  0  0  0  0  0  0  0  0  0
  -20.2488  -22.0083   22.9526 C   0  0  0  0  0  0  0  0  0  0  0  0
  -25.4108  -29.8126   21.3892 C   0  0  0  0  0  0  0  0  0  0  0  0
  -19.7137  -23.4259   22.8542 C   0  0  0  0  0  0  0  0  0  0  0  0
  -24.9670  -27.5383   20.5527 C   0  0  0  0  0  0  0  0  0  0  0  0
  -28.1951  -14.3333   19.8146 C   0  0  1  0  0  0  0  0  0  0  0  0
  -25.4039  -14.4578   22.3889 C   0  0  1  0  0  0  0  0  0  0  0  0
  -21.0253  -21.6673   21.6876 C   0  0  1  0  0  0  0  0  0  0  0  0
  -25.6355  -27.8581   19.2057 C   0  0  2  0  0  0  0  0  0  0  0  0
  -17.3971  -26.5284   23.8825 C   0  0  0  0  0  0  0  0  0  0  0  0
  -18.3701  -11.4951   23.7125 C   0  0  0  0  0  0  0  0  0  0  0  0
  -22.7648  -12.8586   18.9482 C   0  0  0  0  0  0  0  0  0  0  0  0
  -20.4427  -12.1820   19.5949 C   0  0  0  0  0  0  0  0  0  0  0  0
  -22.3805  -10.7440   20.2270 C   0  0  0  0  0  0  0  0  0  0  0  0
  -20.3772  -13.7178   26.0593 C   0  0  0  0  0  0  0  0  0  0  0  0
  -18.2888  -24.9750   21.5571 C   0  0  0  0  0  0  0  0  0  0  0  0
  -21.6491  -20.2775   21.7853 C   0  0  0  0  0  0  0  0  0  1  0  0
  -22.0283  -12.9444   21.4213 C   0  0  1  0  0  0  0  0  0  0  0  0
  -19.6216  -12.1740   24.2469 C   0  0  2  0  0  0  0  0  0  0  0  0
  -21.9152  -12.2067   20.0574 C   0  0  0  0  0  0  0  0  0  0  0  0
  -26.6920  -25.6332   19.3276 N   0  0  0  0  0  0  0  0  0  0  0  0
  -26.2137  -26.6185   18.5489 N   0  0  0  0  0  0  0  0  0  0  0  0
  -19.0662  -23.7431   21.5821 N   0  0  0  0  0  0  0  0  0  0  0  0
  -23.9747  -14.3106   22.1059 N   0  0  0  0  0  0  0  0  0  0  0  0
  -24.4146  -28.7677   21.1428 N   0  0  0  0  0  0  0  0  0  0  0  0
  -25.8818  -27.2483   16.2897 N   0  0  0  0  0  0  0  0  0  0  0  0
  -27.8080  -23.1764   15.9642 N   0  0  0  0  0  0  0  0  0  0  0  0
  -22.2032  -27.9483   21.1668 N   0  0  0  0  0  0  0  0  0  0  0  0
  -27.3618  -14.1977   20.9901 N   0  0  0  0  0  0  0  0  0  0  0  0
  -21.2554  -12.3331   22.4971 N   0  0  0  0  0  0  0  0  0  0  0  0
  -19.2384  -13.0099   25.4197 N   0  3  0  0  0  0  0  0  0  0  0  0
  -18.9190  -23.4349   19.2852 O   0  0  0  0  0  0  0  0  0  0  0  0
  -26.9718  -24.9421   14.7633 O   0  0  0  0  0  0  0  0  0  0  0  0
  -25.4970  -15.3504   20.2050 O   0  0  0  0  0  0  0  0  0  0  0  0
  -24.0755  -11.9814   22.1341 O   0  0  0  0  0  0  0  0  0  0  0  0
  -19.9658  -14.1999   22.9761 O   0  0  0  0  0  0  0  0  0  0  0  0
  -22.6930  -30.0672   21.9742 O   0  0  0  0  0  0  0  0  0  0  0  0
  -29.4028  -19.9391   20.2088 O   0  0  0  0  0  0  0  0  0  0  0  0
  -22.8418  -20.3570   22.5647 O   0  0  0  0  0  0  0  0  0  1  0  0
  -32.1737  -16.9109   16.5270 F   0  0  0  0  0  0  0  0  0  0  0  0
  -32.0804  -19.3584   20.5775 F   0  0  0  0  0  0  0  0  0  0  0  0
  1  2  1  0  0  0  0
  1  5  2  0  0  0  0
  2  6  2  0  0  0  0
  3 10  2  0  0  0  0
  3 18  1  0  0  0  0
  4 11  1  0  0  0  0
  4 18  2  0  0  0  0
  5 20  1  0  0  0  0
  6 22  1  0  0  0  0
  7 12  2  0  0  0  0
  7 21  1  0  0  0  0
  8  9  2  0  0  0  0
  8 24  1  0  0  0  0
  9 26  1  0  0  0  0
 10 27  1  0  0  0  0
 11 27  2  0  0  0  0
 12 28  1  0  0  0  0
 13 14  2  0  0  0  0
 13 29  1  0  0  0  0
 14 30  1  0  0  0  0
 15 23  1  0  0  0  0
 15 28  2  0  0  0  0
 16 25  1  0  0  0  0
 16 26  2  0  0  0  0
 17 30  2  0  0  0  0
 17 31  1  0  0  0  0
 18 32  1  0  0  0  0
 19 32  1  0  0  0  0
 19 33  2  0  0  0  0
 19 35  1  0  0  0  0
 20 22  2  0  0  0  0
 20 40  1  0  0  0  0
 21 23  2  0  0  0  0
 21 41  1  0  0  0  0
 22 52  1  0  0  0  0
 23 42  1  0  0  0  0
 24 25  2  0  0  0  0
 24 56  1  0  0  0  0
 25 62  1  0  0  0  0
 26 74  1  0  0  0  0
 27 84  1  0  0  0  0
 28 85  1  0  0  0  0
 29 31  2  0  0  0  0
 29 84  1  0  0  0  0
 30 86  1  0  0  0  0
 31 87  1  0  0  0  0
 32 67  2  0  0  0  0
 33 68  1  0  0  0  0
 33 72  1  0  0  0  0
 34 43  1  0  0  0  0
 34 69  1  0  0  0  0
 34 78  2  0  0  0  0
 35 73  1  0  0  0  0
 35 79  2  0  0  0  0
 36 53  1  0  0  0  0
 36 75  1  0  0  0  0
 36 80  2  0  0  0  0
 37 64  1  0  0  0  0
 37 70  1  0  0  0  0
 37 81  2  0  0  0  0
 38 65  1  0  0  0  0
 38 76  1  0  0  0  0
 38 82  2  0  0  0  0
 39 71  1  0  0  0  0
 39 74  1  0  0  0  0
 39 83  2  0  0  0  0
 40 44  1  0  0  0  0
 41 53  1  0  0  0  0
 42 70  1  0  0  0  0
 43 54  1  0  0  0  0
 44 46  1  0  0  0  0
 45 47  1  0  0  0  0
 45 49  1  0  0  0  0
 46 52  1  0  0  0  0
 47 55  1  0  0  0  0
 48 50  1  0  0  0  0
 48 54  1  0  0  0  0
 49 71  1  0  0  0  0
 50 69  1  0  0  0  0
 51 55  1  0  0  0  0
 51 71  1  0  0  0  0
 52 75  1  0  0  0  0
 53 70  1  0  0  0  0
 54 63  1  0  0  0  0
 55 68  1  0  0  0  0
 57 65  1  0  0  0  0
 58 66  1  0  0  0  0
 59 66  1  0  0  0  0
 60 66  1  0  0  0  0
 61 77  1  0  0  0  0
 62 69  1  0  0  0  0
 63 85  1  0  0  0  0
 64 66  1  0  0  0  0
 64 76  1  0  0  0  0
 65 77  1  0  0  0  0
 67 68  1  0  0  0  0
M  CHG  1  77   1
M  ISO  4  39 100  63 101  74 100  85 101
M  END
> <Batch ID>
0055

> <Smiles>
CNC(C)C(=O)NC(C(=O)N1Cc2cc([101O:1][101CH2:1]C3CCN(Cc4cc([100NH:0][100C:0](=O)N5CCCC(n6nc(-c7ccc(Oc8ccc(F)cc8F)cc7)c(C(N)=O)c6N)C5)ccc4C)C(=O)C3)ccc2CC1C(=O)NC1CCCc2ccccc21)C(C)(C)C

> <Shape>
0.238

> <Color>
0.080

> <Negative vol penalty>
0.000

$$$$

  -OEChem-04042322493D

 86 94  0     1  0  0  0  0  0999 V2000
  -31.1347  -31.6707   23.7777 C   0  0  0  0  0  0  0  0  0  0  0  0
  -31.2995  -30.3424   23.3986 C   0  0  0  0  0  0  0  0  0  0  0  0
  -30.9612  -16.4020   25.6061 C   0  0  0  0  0  0  0  0  0  0  0  0
  -23.1684   -9.8537   19.9475 C   0  0  0  0  0  0  0  0  0  0  0  0
  -23.5653  -10.0347   22.3238 C   0  0  0  0  0  0  0  0  0  0  0  0
  -31.6135  -17.3201   24.7832 C   0  0  0  0  0  0  0  0  0  0  0  0
  -30.0384  -32.0418   24.5551 C   0  0  0  0  0  0  0  0  0  0  0  0
  -30.3685  -29.3840   23.7977 C   0  0  0  0  0  0  0  0  0  0  0  0
  -28.5399  -24.4799   20.6178 C   0  0  0  0  0  0  0  0  0  0  0  0
  -30.4062  -15.2455   25.0582 C   0  0  0  0  0  0  0  0  0  0  0  0
  -22.3962   -8.7124   20.1634 C   0  0  0  0  0  0  0  0  0  0  0  0
  -22.7930   -8.8934   22.5397 C   0  0  0  0  0  0  0  0  0  0  0  0
  -28.9135  -23.1376   20.6665 C   0  0  0  0  0  0  0  0  0  0  0  0
  -23.1701   -5.5438   22.2772 C   0  0  0  0  0  0  0  0  0  0  0  0
  -23.6686   -4.5804   23.1541 C   0  0  0  0  0  0  0  0  0  0  0  0
  -27.0380  -22.6742   22.1110 C   0  0  0  0  0  0  0  0  0  0  0  0
  -21.7240   -4.8550   24.5613 C   0  0  0  0  0  0  0  0  0  0  0  0
  -23.7531  -10.5149   21.0277 C   0  0  0  0  0  0  0  0  0  0  0  0
  -31.7106  -17.0818   23.4123 C   0  0  0  0  0  0  0  0  0  0  0  0
  -24.1065  -13.0289   20.7781 C   0  0  0  0  0  0  0  0  0  0  0  0
  -29.0883  -31.0891   24.9558 C   0  0  0  0  0  0  0  0  0  0  0  0
  -27.4168  -24.9322   21.3253 C   0  0  0  0  0  0  0  0  0  0  0  0
  -29.2592  -29.7424   24.5823 C   0  0  0  0  0  0  0  0  0  0  0  0
  -26.6507  -24.0222   22.0676 C   0  0  0  0  0  0  0  0  0  0  0  0
  -30.5033  -15.0073   23.6873 C   0  0  0  0  0  0  0  0  0  0  0  0
  -31.1556  -15.9254   22.8643 C   0  0  0  0  0  0  0  0  0  0  0  0
  -22.2084   -8.2322   21.4594 C   0  0  0  0  0  0  0  0  0  0  0  0
  -28.1643  -22.2351   21.4155 C   0  0  0  0  0  0  0  0  0  0  0  0
  -21.9486   -6.1630   22.5424 C   0  0  0  0  0  0  0  0  0  0  0  0
  -22.9455   -4.2359   24.2961 C   0  0  0  0  0  0  0  0  0  0  0  0
  -21.2256   -5.8185   23.6844 C   0  0  0  0  0  0  0  0  0  0  0  0
  -24.5514  -11.6936   20.8053 C   0  0  0  0  0  0  0  0  0  0  0  0
  -25.2408  -13.7638   20.5336 C   0  0  0  0  0  0  0  0  0  0  0  0
  -22.7860  -13.5577   20.9579 C   0  0  0  0  0  0  0  0  0  0  0  0
  -32.4052  -18.0672   22.5707 C   0  0  0  0  0  0  0  0  0  0  0  0
  -26.9373  -27.0135   23.6795 C   0  0  0  0  0  0  0  0  0  0  0  0
  -23.8132  -26.3783   23.0805 C   0  0  0  0  0  0  0  0  0  0  0  0
  -30.2779  -19.3876   22.1247 C   0  0  0  0  0  0  0  0  0  0  0  0
  -21.4829  -24.2183   21.8351 C   0  0  0  0  0  0  0  0  0  0  0  0
  -31.0803  -12.1959   21.5235 C   0  0  0  0  0  0  0  0  0  0  0  0
  -27.9450  -31.5295   25.8353 C   0  0  0  0  0  0  0  0  0  0  0  0
  -27.0115  -26.3783   21.2409 C   0  0  0  0  0  0  0  0  0  0  0  0
  -25.4246  -24.4533   22.8287 C   0  0  0  0  0  0  0  0  0  0  0  0
  -26.8034  -30.5183   25.9020 C   0  0  0  0  0  0  0  0  0  0  0  0
  -29.5184  -13.4793   18.4227 C   0  0  0  0  0  0  0  0  0  0  0  0
  -27.3485  -29.1122   26.1308 C   0  0  0  0  0  0  0  0  0  0  0  0
  -28.0338  -13.2093   18.6612 C   0  0  0  0  0  0  0  0  0  0  0  0
  -30.4027  -12.4840   19.1678 C   0  0  0  0  0  0  0  0  0  0  0  0
  -28.6396  -12.1361   20.8661 C   0  0  0  0  0  0  0  0  0  0  0  0
  -28.2575  -28.6780   24.9746 C   0  0  1  0  0  0  0  0  0  0  0  0
  -26.1470  -26.8261   22.4154 C   0  0  1  0  0  0  0  0  0  0  0  0
  -27.7218  -13.1500   20.1666 C   0  0  2  0  0  0  0  0  0  0  0  0
  -31.2583  -15.6663   21.3941 C   0  0  0  0  0  0  0  0  0  0  0  0
  -19.0069  -23.9591   21.5197 C   0  0  0  0  0  0  0  0  0  0  0  0
  -23.5055  -25.7314   26.0465 C   0  0  0  0  0  0  0  0  0  0  0  0
  -21.3418  -24.5952   25.5028 C   0  0  0  0  0  0  0  0  0  0  0  0
  -21.6125  -27.0354   25.0613 C   0  0  0  0  0  0  0  0  0  0  0  0
  -31.9531  -12.5664   23.7996 C   0  0  0  0  0  0  0  0  0  0  0  0
  -21.7562  -24.0706   18.8919 C   0  0  0  0  0  0  0  0  0  0  0  0
  -29.9022  -13.7603   23.1258 C   0  0  0  0  0  0  0  0  0  0  0  0
  -29.9175  -20.6301   21.3357 C   0  0  0  0  0  0  0  0  0  1  0  0
  -22.8115  -25.3684   23.5863 C   0  0  1  0  0  0  0  0  0  0  0  0
  -20.3101  -24.4338   20.8958 C   0  0  2  0  0  0  0  0  0  0  0  0
  -22.3420  -25.6746   25.0365 C   0  0  0  0  0  0  0  0  0  0  0  0
  -25.8657  -11.5836   20.5947 N   0  0  0  0  0  0  0  0  0  0  0  0
  -26.2565  -12.8592   20.4327 N   0  0  0  0  0  0  0  0  0  0  0  0
  -25.0727  -25.8788   22.7200 N   0  0  0  0  0  0  0  0  0  0  0  0
  -30.0562  -12.4160   20.5878 N   0  0  0  0  0  0  0  0  0  0  0  0
  -25.4585  -15.0891   20.3970 N   0  0  0  0  0  0  0  0  0  0  0  0
  -21.7352  -12.6627   21.2008 N   0  0  0  0  0  0  0  0  0  0  0  0
  -31.6518  -19.1049   22.0151 N   0  0  0  0  0  0  0  0  0  0  0  0
  -27.4653  -28.2815   23.8302 N   0  0  0  0  0  0  0  0  0  0  0  0
  -21.7336  -25.3353   22.6037 N   0  0  0  0  0  0  0  0  0  0  0  0
  -30.9132  -12.7572   22.7985 N   0  0  0  0  0  0  0  0  0  0  0  0
  -20.5214  -23.6871   19.6235 N   0  3  0  0  0  0  0  0  0  0  0  0
  -22.5424  -14.7863   20.8884 O   0  0  0  0  0  0  0  0  0  0  0  0
  -27.0580  -26.0773   24.4611 O   0  0  0  0  0  0  0  0  0  0  0  0
  -23.4878  -27.5655   23.0014 O   0  0  0  0  0  0  0  0  0  0  0  0
  -29.4465  -18.7454   22.7584 O   0  0  0  0  0  0  0  0  0  0  0  0
  -22.1113  -23.1633   21.8850 O   0  0  0  0  0  0  0  0  0  0  0  0
  -32.0910  -11.5433   21.2327 O   0  0  0  0  0  0  0  0  0  0  0  0
  -21.4547   -7.1187   21.6705 O   0  0  0  0  0  0  0  0  0  0  0  0
  -28.5272  -20.9245   21.4653 O   0  0  0  0  0  0  0  0  0  1  0  0
  -23.4236   -3.3096   25.1372 F   0  0  0  0  0  0  0  0  0  0  0  0
  -20.0509   -6.4090   23.9439 F   0  0  0  0  0  0  0  0  0  0  0  0
  -34.0563  -17.9627   22.2799 S   0  0  0  0  0  0  0  0  0  0  0  0
  1  2  1  0  0  0  0
  1  7  2  0  0  0  0
  2  8  2  0  0  0  0
  3  6  2  0  0  0  0
  3 10  1  0  0  0  0
  4 11  2  0  0  0  0
  4 18  1  0  0  0  0
  5 12  1  0  0  0  0
  5 18  2  0  0  0  0
  6 19  1  0  0  0  0
  7 21  1  0  0  0  0
  8 23  1  0  0  0  0
  9 13  2  0  0  0  0
  9 22  1  0  0  0  0
 10 25  2  0  0  0  0
 11 27  1  0  0  0  0
 12 27  2  0  0  0  0
 13 28  1  0  0  0  0
 14 15  2  0  0  0  0
 14 29  1  0  0  0  0
 15 30  1  0  0  0  0
 16 24  1  0  0  0  0
 16 28  2  0  0  0  0
 17 30  2  0  0  0  0
 17 31  1  0  0  0  0
 18 32  1  0  0  0  0
 19 26  2  0  0  0  0
 19 35  1  0  0  0  0
 20 32  1  0  0  0  0
 20 33  2  0  0  0  0
 20 34  1  0  0  0  0
 21 23  2  0  0  0  0
 21 41  1  0  0  0  0
 22 24  2  0  0  0  0
 22 42  1  0  0  0  0
 23 50  1  0  0  0  0
 24 43  1  0  0  0  0
 25 26  1  0  0  0  0
 25 60  1  0  0  0  0
 26 53  1  0  0  0  0
 27 82  1  0  0  0  0
 28 83  1  0  0  0  0
 29 31  2  0  0  0  0
 29 82  1  0  0  0  0
 30 84  1  0  0  0  0
 31 85  1  0  0  0  0
 32 65  2  0  0  0  0
 33 66  1  0  0  0  0
 33 69  1  0  0  0  0
 34 70  1  0  0  0  0
 34 76  2  0  0  0  0
 35 71  1  0  0  0  0
 35 86  2  0  0  0  0
 36 51  1  0  0  0  0
 36 72  1  0  0  0  0
 36 77  2  0  0  0  0
 37 62  1  0  0  0  0
 37 67  1  0  0  0  0
 37 78  2  0  0  0  0
 38 61  1  0  0  0  0
 38 71  1  0  0  0  0
 38 79  2  0  0  0  0
 39 63  1  0  0  0  0
 39 73  1  0  0  0  0
 39 80  2  0  0  0  0
 40 68  1  0  0  0  0
 40 74  1  0  0  0  0
 40 81  2  0  0  0  0
 41 44  1  0  0  0  0
 42 51  1  0  0  0  0
 43 67  1  0  0  0  0
 44 46  1  0  0  0  0
 45 47  1  0  0  0  0
 45 48  1  0  0  0  0
 46 50  1  0  0  0  0
 47 52  1  0  0  0  0
 48 68  1  0  0  0  0
 49 52  1  0  0  0  0
 49 68  1  0  0  0  0
 50 72  1  0  0  0  0
 51 67  1  0  0  0  0
 52 66  1  0  0  0  0
 54 63  1  0  0  0  0
 55 64  1  0  0  0  0
 56 64  1  0  0  0  0
 57 64  1  0  0  0  0
 58 74  1  0  0  0  0
 59 75  1  0  0  0  0
 60 74  1  0  0  0  0
 61 83  1  0  0  0  0
 62 64  1  0  0  0  0
 62 73  1  0  0  0  0
 63 75  1  0  0  0  0
 65 66  1  0  0  0  0
M  CHG  1  75   1
M  ISO  4  40 100  61 101  74 100  83 101
M  END
> <Batch ID>
0055

> <Smiles>
CNC(C)C(=O)NC(C(=O)N1Cc2cc([101O:1][101CH2:1]C(=O)NC(=S)c3cccc(C[100N:0](C)[100C:0](=O)N4CCCC(n5nc(-c6ccc(Oc7ccc(F)cc7F)cc6)c(C(N)=O)c5N)C4)c3C)ccc2CC1C(=O)NC1CCCc2ccccc21)C(C)(C)C

> <Shape>
0.228

> <Color>
0.187

> <Negative vol penalty>
0.000

$$$$

  -OEChem-04042322493D

 90 99  0     1  0  0  0  0  0999 V2000
  -19.0216  -34.0246   23.6243 C   0  0  0  0  0  0  0  0  0  0  0  0
  -20.3045  -33.9418   23.0925 C   0  0  0  0  0  0  0  0  0  0  0  0
  -21.8118  -14.9775   21.3307 C   0  0  0  0  0  0  0  0  0  0  0  0
  -24.0197  -14.2478   20.6751 C   0  0  0  0  0  0  0  0  0  0  0  0
  -18.4559  -32.9161   24.2528 C   0  0  0  0  0  0  0  0  0  0  0  0
  -21.0228  -32.7506   23.1899 C   0  0  0  0  0  0  0  0  0  0  0  0
  -25.8563  -28.8392   19.6325 C   0  0  0  0  0  0  0  0  0  0  0  0
  -21.6022  -13.7605   21.9793 C   0  0  0  0  0  0  0  0  0  0  0  0
  -23.8101  -13.0308   21.3238 C   0  0  0  0  0  0  0  0  0  0  0  0
  -27.0902  -28.2187   19.8225 C   0  0  0  0  0  0  0  0  0  0  0  0
  -22.1816  -10.1311   20.7148 C   0  0  0  0  0  0  0  0  0  0  0  0
  -22.5514   -8.9663   20.0425 C   0  0  0  0  0  0  0  0  0  0  0  0
  -25.9812  -26.3445   20.8601 C   0  0  0  0  0  0  0  0  0  0  0  0
  -28.7804  -21.0145   15.4753 C   0  0  0  0  0  0  0  0  0  0  0  0
  -27.5445  -23.0235   15.9978 C   0  0  0  0  0  0  0  0  0  0  0  0
  -24.0896   -8.4256   21.8254 C   0  0  0  0  0  0  0  0  0  0  0  0
  -23.0205  -15.2211   20.6785 C   0  0  0  0  0  0  0  0  0  0  0  0
  -23.7886  -17.6507   20.5575 C   0  0  0  0  0  0  0  0  0  0  0  0
  -19.1640  -31.7078   24.3495 C   0  0  0  0  0  0  0  0  0  0  0  0
  -24.6745  -28.2208   20.0655 C   0  0  0  0  0  0  0  0  0  0  0  0
  -20.4666  -31.6253   23.8215 C   0  0  0  0  0  0  0  0  0  0  0  0
  -24.7333  -26.9581   20.6722 C   0  0  0  0  0  0  0  0  0  0  0  0
  -27.6604  -21.8255   15.2928 C   0  0  0  0  0  0  0  0  0  0  0  0
  -29.7846  -21.4014   16.3628 C   0  0  0  0  0  0  0  0  0  0  0  0
  -29.6687  -22.5994   17.0678 C   0  0  0  0  0  0  0  0  0  0  0  0
  -22.6013  -12.7872   21.9759 C   0  0  0  0  0  0  0  0  0  0  0  0
  -27.1531  -26.9724   20.4390 C   0  0  0  0  0  0  0  0  0  0  0  0
  -22.7659  -10.4433   21.9424 C   0  0  0  0  0  0  0  0  0  0  0  0
  -23.5053   -8.1135   20.5978 C   0  0  0  0  0  0  0  0  0  0  0  0
  -23.7199   -9.5905   22.4976 C   0  0  0  0  0  0  0  0  0  0  0  0
  -28.5486  -23.4104   16.8853 C   0  0  0  0  0  0  0  0  0  0  0  0
  -23.2375  -16.4777   20.0078 C   0  0  0  0  0  0  0  0  0  0  0  0
  -23.7799  -18.5524   19.5215 C   0  0  0  0  0  0  0  0  0  0  0  0
  -29.7249  -21.9963   19.9753 C   0  0  0  0  0  0  0  0  0  0  0  0
  -30.3691  -24.4335   19.9741 C   0  0  0  0  0  0  0  0  0  0  0  0
  -24.2658  -17.9027   21.8859 C   0  0  0  0  0  0  0  0  0  0  0  0
  -22.4011  -28.9486   22.1645 C   0  0  0  0  0  0  0  0  0  0  0  0
  -20.9763  -26.2986   20.9522 C   0  0  0  0  0  0  0  0  0  0  0  0
  -21.3127  -23.3051   19.3481 C   0  0  0  0  0  0  0  0  0  0  0  0
  -24.6934  -19.8181   14.1635 C   0  0  0  0  0  0  0  0  0  0  0  0
  -18.5292  -30.5508   25.0798 C   0  0  0  0  0  0  0  0  0  0  0  0
  -23.3490  -28.8913   19.8291 C   0  0  0  0  0  0  0  0  0  0  0  0
  -23.4919  -26.2429   21.1369 C   0  0  0  0  0  0  0  0  0  0  0  0
  -29.2166  -22.1392   21.3898 C   0  0  0  0  0  0  0  0  0  0  0  0
  -19.2118  -29.2123   24.8104 C   0  0  0  0  0  0  0  0  0  0  0  0
  -29.9020  -23.2650   22.1324 C   0  0  0  0  0  0  0  0  0  0  0  0
  -21.5648  -18.3273   14.9796 C   0  0  0  0  0  0  0  0  0  0  0  0
  -20.7265  -29.3530   24.9239 C   0  0  0  0  0  0  0  0  0  0  0  0
  -21.7687  -17.8049   16.4027 C   0  0  0  0  0  0  0  0  0  0  0  0
  -22.8316  -18.1842   14.1389 C   0  0  0  0  0  0  0  0  0  0  0  0
  -24.2445  -18.2619   16.1567 C   0  0  0  0  0  0  0  0  0  0  0  0
  -21.2679  -30.3431   23.8855 C   0  0  1  0  0  0  0  0  0  0  0  0
  -29.7805  -24.5730   21.3660 C   0  0  2  0  0  0  0  0  0  0  0  0
  -22.2549  -28.4015   20.7727 C   0  0  1  0  0  0  0  0  0  0  0  0
  -23.0111  -18.4364   17.0592 C   0  0  2  0  0  0  0  0  0  0  0  0
  -30.9723  -20.5124   16.5393 C   0  0  0  0  0  0  0  0  0  0  0  0
  -19.9733  -21.3466   18.5311 C   0  0  0  0  0  0  0  0  0  0  0  0
  -20.7443  -25.2665   23.8141 C   0  0  0  0  0  0  0  0  0  0  0  0
  -20.3002  -22.9858   22.8817 C   0  0  0  0  0  0  0  0  0  0  0  0
  -18.7280  -24.8595   22.3918 C   0  0  0  0  0  0  0  0  0  0  0  0
  -22.1123  -23.7820   16.5388 C   0  0  0  0  0  0  0  0  0  0  0  0
  -30.7582  -23.0008   18.0196 C   0  0  0  0  0  0  0  0  0  0  0  0
  -26.5876  -21.4116   14.3429 C   0  0  0  0  0  0  0  0  0  0  0  0
  -28.3471  -25.0887   21.2647 C   0  0  0  0  0  0  0  0  0  1  0  0
  -20.9999  -24.8258   21.2830 C   0  0  1  0  0  0  0  0  0  0  0  0
  -20.5635  -22.7018   18.1737 C   0  0  2  0  0  0  0  0  0  0  0  0
  -20.2169  -24.4985   22.5858 C   0  0  0  0  0  0  0  0  0  0  0  0
  -22.9028  -16.6185   18.7224 N   0  0  0  0  0  0  0  0  0  0  0  0
  -23.2446  -17.8906   18.4558 N   0  0  0  0  0  0  0  0  0  0  0  0
  -30.2618  -23.1581   19.3830 N   0  0  0  0  0  0  0  0  0  0  0  0
  -22.2203  -26.9423   20.8889 N   0  0  0  0  0  0  0  0  0  0  0  0
  -23.9722  -18.8052   14.8168 N   0  0  0  0  0  0  0  0  0  0  0  0
  -24.1779  -19.8389   19.4273 N   0  0  0  0  0  0  0  0  0  0  0  0
  -24.2017  -16.8658   22.8267 N   0  0  0  0  0  0  0  0  0  0  0  0
  -21.3336  -29.7212   22.5804 N   0  0  0  0  0  0  0  0  0  0  0  0
  -20.5049  -24.1333   20.0983 N   0  0  0  0  0  0  0  0  0  0  0  0
  -25.7555  -20.3575   14.8789 N   0  0  0  0  0  0  0  0  0  0  0  0
  -21.4790  -22.5240   17.0114 N   0  3  0  0  0  0  0  0  0  0  0  0
  -29.6133  -20.9131   19.3952 O   0  0  0  0  0  0  0  0  0  0  0  0
  -30.8535  -25.4227   19.4187 O   0  0  0  0  0  0  0  0  0  0  0  0
  -24.7200  -19.0193   22.2328 O   0  0  0  0  0  0  0  0  0  0  0  0
  -23.4073  -28.6877   22.8136 O   0  0  0  0  0  0  0  0  0  0  0  0
  -19.8945  -26.8557   20.7500 O   0  0  0  0  0  0  0  0  0  0  0  0
  -22.4953  -23.0628   19.5791 O   0  0  0  0  0  0  0  0  0  0  0  0
  -24.4085  -20.2163   13.0289 O   0  0  0  0  0  0  0  0  0  0  0  0
  -22.3972  -11.5997   22.6090 O   0  0  0  0  0  0  0  0  0  0  0  0
  -28.3563  -26.3648   20.6262 O   0  0  0  0  0  0  0  0  0  1  0  0
  -23.8592   -6.9941   19.9528 F   0  0  0  0  0  0  0  0  0  0  0  0
  -24.2839   -9.8844   23.6772 F   0  0  0  0  0  0  0  0  0  0  0  0
  -28.3689  -24.9012   17.7378 Cl  0  0  0  0  0  0  0  0  0  0  0  0
  1  2  1  0  0  0  0
  1  5  2  0  0  0  0
  2  6  2  0  0  0  0
  3  8  2  0  0  0  0
  3 17  1  0  0  0  0
  4  9  1  0  0  0  0
  4 17  2  0  0  0  0
  5 19  1  0  0  0  0
  6 21  1  0  0  0  0
  7 10  2  0  0  0  0
  7 20  1  0  0  0  0
  8 26  1  0  0  0  0
  9 26  2  0  0  0  0
 10 27  1  0  0  0  0
 11 12  2  0  0  0  0
 11 28  1  0  0  0  0
 12 29  1  0  0  0  0
 13 22  1  0  0  0  0
 13 27  2  0  0  0  0
 14 23  1  0  0  0  0
 14 24  2  0  0  0  0
 15 23  2  0  0  0  0
 15 31  1  0  0  0  0
 16 29  2  0  0  0  0
 16 30  1  0  0  0  0
 17 32  1  0  0  0  0
 18 32  1  0  0  0  0
 18 33  2  0  0  0  0
 18 36  1  0  0  0  0
 19 21  2  0  0  0  0
 19 41  1  0  0  0  0
 20 22  2  0  0  0  0
 20 42  1  0  0  0  0
 21 52  1  0  0  0  0
 22 43  1  0  0  0  0
 23 63  1  0  0  0  0
 24 25  1  0  0  0  0
 24 56  1  0  0  0  0
 25 31  2  0  0  0  0
 25 62  1  0  0  0  0
 26 86  1  0  0  0  0
 27 87  1  0  0  0  0
 28 30  2  0  0  0  0
 28 86  1  0  0  0  0
 29 88  1  0  0  0  0
 30 89  1  0  0  0  0
 31 90  1  0  0  0  0
 32 68  2  0  0  0  0
 33 69  1  0  0  0  0
 33 73  1  0  0  0  0
 34 44  1  0  0  0  0
 34 70  1  0  0  0  0
 34 79  2  0  0  0  0
 35 53  1  0  0  0  0
 35 70  1  0  0  0  0
 35 80  2  0  0  0  0
 36 74  1  0  0  0  0
 36 81  2  0  0  0  0
 37 54  1  0  0  0  0
 37 75  1  0  0  0  0
 37 82  2  0  0  0  0
 38 65  1  0  0  0  0
 38 71  1  0  0  0  0
 38 83  2  0  0  0  0
 39 66  1  0  0  0  0
 39 76  1  0  0  0  0
 39 84  2  0  0  0  0
 40 72  1  0  0  0  0
 40 77  1  0  0  0  0
 40 85  2  0  0  0  0
 41 45  1  0  0  0  0
 42 54  1  0  0  0  0
 43 71  1  0  0  0  0
 44 46  1  0  0  0  0
 45 48  1  0  0  0  0
 46 53  1  0  0  0  0
 47 49  1  0  0  0  0
 47 50  1  0  0  0  0
 48 52  1  0  0  0  0
 49 55  1  0  0  0  0
 50 72  1  0  0  0  0
 51 55  1  0  0  0  0
 51 72  1  0  0  0  0
 52 75  1  0  0  0  0
 53 64  1  0  0  0  0
 54 71  1  0  0  0  0
 55 69  1  0  0  0  0
 57 66  1  0  0  0  0
 58 67  1  0  0  0  0
 59 67  1  0  0  0  0
 60 67  1  0  0  0  0
 61 78  1  0  0  0  0
 62 70  1  0  0  0  0
 63 77  1  0  0  0  0
 64 87  1  0  0  0  0
 65 67  1  0  0  0  0
 65 76  1  0  0  0  0
 66 78  1  0  0  0  0
 68 69  1  0  0  0  0
M  CHG  1  78   1
M  ISO  4  40 100  64 101  77 100  87 101
M  END
> <Batch ID>
0055

> <Smiles>
CNC(C)C(=O)NC(C(=O)N1Cc2cc([101O:1][101CH2:1]C3CCC(=O)N(Cc4c(C)cc(C[100NH:0][100C:0](=O)N5CCCC(n6nc(-c7ccc(Oc8ccc(F)cc8F)cc7)c(C(N)=O)c6N)C5)cc4Cl)C3=O)ccc2CC1C(=O)NC1CCCc2ccccc21)C(C)(C)C

> <Shape>
0.195

> <Color>
0.104

> <Negative vol penalty>
0.000

$$$$

  -OEChem-04042322493D

 95105  0     1  0  0  0  0  0999 V2000
  -30.5913  -32.5889   24.2460 C   0  0  0  0  0  0  0  0  0  0  0  0
  -30.2814  -31.4238   23.5517 C   0  0  0  0  0  0  0  0  0  0  0  0
  -26.7304  -12.8698   21.5358 C   0  0  0  0  0  0  0  0  0  0  0  0
  -26.0599  -14.1988   19.6329 C   0  0  0  0  0  0  0  0  0  0  0  0
  -29.7509  -33.0367   25.2643 C   0  0  0  0  0  0  0  0  0  0  0  0
  -29.1313  -30.7052   23.8762 C   0  0  0  0  0  0  0  0  0  0  0  0
  -26.5372  -29.2383   19.7818 C   0  0  0  0  0  0  0  0  0  0  0  0
  -25.4399  -12.3481   21.6262 C   0  0  0  0  0  0  0  0  0  0  0  0
  -24.7694  -13.6770   19.7232 C   0  0  0  0  0  0  0  0  0  0  0  0
  -27.0218  -28.1334   19.0831 C   0  0  0  0  0  0  0  0  0  0  0  0
  -23.5917   -9.9887   20.0609 C   0  0  0  0  0  0  0  0  0  0  0  0
  -23.4605   -8.6135   20.2536 C   0  0  0  0  0  0  0  0  0  0  0  0
  -24.9956  -22.7548   17.8104 C   0  0  0  0  0  0  0  0  0  0  0  0
  -25.3814  -26.7360   20.1674 C   0  0  0  0  0  0  0  0  0  0  0  0
  -22.6027  -20.7309   21.6855 C   0  0  0  0  0  0  0  0  0  0  0  0
  -24.5009  -19.6929   20.6104 C   0  0  0  0  0  0  0  0  0  0  0  0
  -25.1051  -25.4418   17.0687 C   0  0  0  0  0  0  0  0  0  0  0  0
  -22.2853   -9.0160   22.3258 C   0  0  0  0  0  0  0  0  0  0  0  0
  -27.0404  -13.7952   20.5392 C   0  0  0  0  0  0  0  0  0  0  0  0
  -29.5673  -13.6193   20.2372 C   0  0  0  0  0  0  0  0  0  0  0  0
  -28.5848  -32.3284   25.5950 C   0  0  0  0  0  0  0  0  0  0  0  0
  -25.4765  -29.0982   20.6882 C   0  0  0  0  0  0  0  0  0  0  0  0
  -28.2752  -31.1432   24.9008 C   0  0  0  0  0  0  0  0  0  0  0  0
  -24.1103  -23.2508   16.8534 C   0  0  0  0  0  0  0  0  0  0  0  0
  -24.8835  -27.8412   20.8744 C   0  0  0  0  0  0  0  0  0  0  0  0
  -25.9357  -23.6022   18.3965 C   0  0  0  0  0  0  0  0  0  0  0  0
  -23.1421  -20.0078   20.6218 C   0  0  0  0  0  0  0  0  0  0  0  0
  -23.4221  -21.1393   22.7379 C   0  0  0  0  0  0  0  0  0  0  0  0
  -24.1651  -24.5944   16.4826 C   0  0  0  0  0  0  0  0  0  0  0  0
  -24.7809  -20.8244   22.7266 C   0  0  0  0  0  0  0  0  0  0  0  0
  -25.3203  -20.1012   21.6628 C   0  0  0  0  0  0  0  0  0  0  0  0
  -24.4595  -12.7517   20.7199 C   0  0  0  0  0  0  0  0  0  0  0  0
  -26.4458  -26.8815   19.2780 C   0  0  0  0  0  0  0  0  0  0  0  0
  -23.0698  -10.8776   21.0007 C   0  0  0  0  0  0  0  0  0  0  0  0
  -25.9905  -24.9458   18.0257 C   0  0  0  0  0  0  0  0  0  1  0  0
  -22.8073   -8.1271   21.3860 C   0  0  0  0  0  0  0  0  0  0  0  0
  -22.4166  -10.3912   22.1331 C   0  0  0  0  0  0  0  0  0  0  0  0
  -28.3731  -14.3349   20.4457 C   0  0  0  0  0  0  0  0  0  0  0  0
  -30.5470  -14.5818   20.2271 C   0  0  0  0  0  0  0  0  0  0  0  0
  -23.3880  -19.9798   17.3367 C   0  0  0  0  0  0  0  0  0  0  0  0
  -29.7727  -12.2105   20.0677 C   0  0  0  0  0  0  0  0  0  0  0  0
  -25.1220  -29.5528   23.8141 C   0  0  0  0  0  0  0  0  0  0  0  0
  -22.0099  -28.9135   23.1593 C   0  0  0  0  0  0  0  0  0  0  0  0
  -19.7276  -27.4358   21.0968 C   0  0  0  0  0  0  0  0  0  0  0  0
  -27.3846  -19.0552   20.6458 C   0  0  0  0  0  0  0  0  0  0  0  0
  -27.7320  -32.8259   26.7351 C   0  0  0  0  0  0  0  0  0  0  0  0
  -24.9478  -30.3048   21.4140 C   0  0  0  0  0  0  0  0  0  0  0  0
  -23.7291  -27.6414   21.8209 C   0  0  0  0  0  0  0  0  0  0  0  0
  -23.5121  -20.8409   16.0891 C   0  0  0  0  0  0  0  0  0  0  0  0
  -26.3358  -32.2095   26.7654 C   0  0  0  0  0  0  0  0  0  0  0  0
  -30.8985  -18.9625   22.2300 C   0  0  0  0  0  0  0  0  0  0  0  0
  -26.4149  -30.6987   26.5704 C   0  0  0  0  0  0  0  0  0  0  0  0
  -31.0226  -17.4757   21.9214 C   0  0  0  0  0  0  0  0  0  0  0  0
  -21.7409  -22.3509   16.9396 C   0  0  0  0  0  0  0  0  0  0  0  0
  -29.4439  -19.4083   22.1093 C   0  0  0  0  0  0  0  0  0  0  0  0
  -21.8299  -21.6981   18.3078 C   0  0  0  0  0  0  0  0  0  0  0  0
  -29.6169  -18.2451   19.9072 C   0  0  0  0  0  0  0  0  0  0  0  0
  -23.0936  -22.3063   16.2266 C   0  0  1  0  0  0  0  0  0  0  0  0
  -27.0236  -30.3495   25.2069 C   0  0  1  0  0  0  0  0  0  0  0  0
  -24.2004  -29.9510   22.6961 C   0  0  1  0  0  0  0  0  0  0  0  0
  -30.5314  -17.1516   20.4963 C   0  0  2  0  0  0  0  0  0  0  0  0
  -26.8762  -23.0547   19.4190 C   0  0  0  0  0  0  0  0  0  0  0  0
  -22.8196  -21.9143   23.8638 C   0  0  0  0  0  0  0  0  0  0  0  0
  -23.2267  -25.1490   15.4619 C   0  0  0  0  0  0  0  0  0  0  0  0
  -25.6559  -21.2658   23.8577 C   0  0  0  0  0  0  0  0  0  0  0  0
  -17.2608  -27.0511   20.8426 C   0  0  0  0  0  0  0  0  0  0  0  0
  -22.1217  -26.7754   25.3333 C   0  0  0  0  0  0  0  0  0  0  0  0
  -20.0071  -25.8141   24.3992 C   0  0  0  0  0  0  0  0  0  0  0  0
  -20.0227  -28.1348   25.3141 C   0  0  0  0  0  0  0  0  0  0  0  0
  -19.6490  -28.8887   18.5197 C   0  0  0  0  0  0  0  0  0  0  0  0
  -22.2605  -19.5695   19.4883 C   0  0  0  0  0  0  0  0  0  0  0  0
  -21.1631  -27.6648   23.1071 C   0  0  1  0  0  0  0  0  0  0  0  0
  -18.4347  -27.9517   20.4911 C   0  0  2  0  0  0  0  0  0  0  0  0
  -20.8517  -27.1004   24.5220 C   0  0  0  0  0  0  0  0  0  0  0  0
  -28.5735  -15.6505   20.5600 N   0  0  0  0  0  0  0  0  0  0  0  0
  -29.9051  -15.7692   20.4229 N   0  0  0  0  0  0  0  0  0  0  0  0
  -22.4619  -20.3814   18.2956 N   0  0  0  0  0  0  0  0  0  0  0  0
  -23.2520  -28.8506   22.5121 N   0  0  0  0  0  0  0  0  0  0  0  0
  -28.7670  -18.8901   20.9113 N   0  0  0  0  0  0  0  0  0  0  0  0
  -31.8864  -14.5199   20.0701 N   0  0  0  0  0  0  0  0  0  0  0  0
  -29.7316  -11.6806   18.7708 N   0  0  0  0  0  0  0  0  0  0  0  0
  -26.6984  -19.7694   21.6318 N   0  0  0  0  0  0  0  0  0  0  0  0
  -26.0436  -30.5239   24.1564 N   0  0  0  0  0  0  0  0  0  0  0  0
  -19.9791  -28.0069   22.3264 N   0  0  0  0  0  0  0  0  0  0  0  0
  -18.5484  -28.0177   19.0066 N   0  3  0  0  0  0  0  0  0  0  0  0
  -24.0507  -18.9408   17.4097 O   0  0  0  0  0  0  0  0  0  0  0  0
  -29.9700  -11.4417   21.0390 O   0  0  0  0  0  0  0  0  0  0  0  0
  -25.0046  -28.4471   24.3290 O   0  0  0  0  0  0  0  0  0  0  0  0
  -21.5819  -29.9103   23.7465 O   0  0  0  0  0  0  0  0  0  0  0  0
  -20.4409  -26.6060   20.5371 O   0  0  0  0  0  0  0  0  0  0  0  0
  -26.8623  -18.6016   19.6255 O   0  0  0  0  0  0  0  0  0  0  0  0
  -23.2002  -12.2426   20.8076 O   0  0  0  0  0  0  0  0  0  0  0  0
  -26.9172  -25.8012   18.5979 O   0  0  0  0  0  0  0  0  0  1  0  0
  -22.6800   -6.8065   21.5701 F   0  0  0  0  0  0  0  0  0  0  0  0
  -21.9121  -11.2403   23.0389 F   0  0  0  0  0  0  0  0  0  0  0  0
  1  2  1  0  0  0  0
  1  5  2  0  0  0  0
  2  6  2  0  0  0  0
  3  8  2  0  0  0  0
  3 19  1  0  0  0  0
  4  9  1  0  0  0  0
  4 19  2  0  0  0  0
  5 21  1  0  0  0  0
  6 23  1  0  0  0  0
  7 10  2  0  0  0  0
  7 22  1  0  0  0  0
  8 32  1  0  0  0  0
  9 32  2  0  0  0  0
 10 33  1  0  0  0  0
 11 12  2  0  0  0  0
 11 34  1  0  0  0  0
 12 36  1  0  0  0  0
 13 24  2  0  0  0  0
 13 26  1  0  0  0  0
 14 25  1  0  0  0  0
 14 33  2  0  0  0  0
 15 27  1  0  0  0  0
 15 28  2  0  0  0  0
 16 27  2  0  0  0  0
 16 31  1  0  0  0  0
 17 29  2  0  0  0  0
 17 35  1  0  0  0  0
 18 36  2  0  0  0  0
 18 37  1  0  0  0  0
 19 38  1  0  0  0  0
 20 38  1  0  0  0  0
 20 39  2  0  0  0  0
 20 41  1  0  0  0  0
 21 23  2  0  0  0  0
 21 46  1  0  0  0  0
 22 25  2  0  0  0  0
 22 47  1  0  0  0  0
 23 59  1  0  0  0  0
 24 29  1  0  0  0  0
 24 58  1  0  0  0  0
 25 48  1  0  0  0  0
 26 35  2  0  0  0  0
 26 62  1  0  0  0  0
 27 71  1  0  0  0  0
 28 30  1  0  0  0  0
 28 63  1  0  0  0  0
 29 64  1  0  0  0  0
 30 31  2  0  0  0  0
 30 65  1  0  0  0  0
 31 82  1  0  0  0  0
 32 92  1  0  0  0  0
 33 93  1  0  0  0  0
 34 37  2  0  0  0  0
 34 92  1  0  0  0  0
 35 93  1  0  0  0  0
 36 94  1  0  0  0  0
 37 95  1  0  0  0  0
 38 75  2  0  0  0  0
 39 76  1  0  0  0  0
 39 80  1  0  0  0  0
 40 49  1  0  0  0  0
 40 77  1  0  0  0  0
 40 86  2  0  0  0  0
 41 81  1  0  0  0  0
 41 87  2  0  0  0  0
 42 60  1  0  0  0  0
 42 83  1  0  0  0  0
 42 88  2  0  0  0  0
 43 72  1  0  0  0  0
 43 78  1  0  0  0  0
 43 89  2  0  0  0  0
 44 73  1  0  0  0  0
 44 84  1  0  0  0  0
 44 90  2  0  0  0  0
 45 79  1  0  0  0  0
 45 82  1  0  0  0  0
 45 91  2  0  0  0  0
 46 50  1  0  0  0  0
 47 60  1  0  0  0  0
 48 78  1  0  0  0  0
 49 58  1  0  0  0  0
 50 52  1  0  0  0  0
 51 53  1  0  0  0  0
 51 55  1  0  0  0  0
 52 59  1  0  0  0  0
 53 61  1  0  0  0  0
 54 56  1  0  0  0  0
 54 58  1  0  0  0  0
 55 79  1  0  0  0  0
 56 77  1  0  0  0  0
 57 61  1  0  0  0  0
 57 79  1  0  0  0  0
 59 83  1  0  0  0  0
 60 78  1  0  0  0  0
 61 76  1  0  0  0  0
 66 73  1  0  0  0  0
 67 74  1  0  0  0  0
 68 74  1  0  0  0  0
 69 74  1  0  0  0  0
 70 85  1  0  0  0  0
 71 77  1  0  0  0  0
 72 74  1  0  0  0  0
 72 84  1  0  0  0  0
 73 85  1  0  0  0  0
 75 76  1  0  0  0  0
M  CHG  1  85   1
M  ISO  4  35 101  45 100  82 100  93 101
M  END
> <Batch ID>
0055

> <Smiles>
CNC(C)C(=O)NC(C(=O)N1Cc2cc([101O:1][101c:1]3cc(C)c(C4CCN(Cc5cc(C)c(C)c([100NH:0][100C:0](=O)N6CCCC(n7nc(-c8ccc(Oc9ccc(F)cc9F)cc8)c(C(N)=O)c7N)C6)c5)C(=O)C4)cc3C)ccc2CC1C(=O)NC1CCCc2ccccc21)C(C)(C)C

> <Shape>
0.283

> <Color>
0.065

> <Negative vol penalty>
0.000

$$$$

  -OEChem-04042322493D

 90 98  0     1  0  0  0  0  0999 V2000
  -24.7123  -28.1487   20.4500 C   0  0  0  0  0  0  0  0  0  0  0  0
  -25.1304  -26.8505   20.1756 C   0  0  0  0  0  0  0  0  0  0  0  0
  -29.6098  -20.7564   27.8573 C   0  0  0  0  0  0  0  0  0  0  0  0
  -27.6852  -20.4521   26.4290 C   0  0  0  0  0  0  0  0  0  0  0  0
  -25.6281  -29.1990   20.4049 C   0  0  0  0  0  0  0  0  0  0  0  0
  -26.4645  -26.6020   19.8547 C   0  0  0  0  0  0  0  0  0  0  0  0
  -28.3259  -22.5637   22.2780 C   0  0  0  0  0  0  0  0  0  0  0  0
  -29.5506  -12.4043   18.3973 C   0  0  0  0  0  0  0  0  0  0  0  0
  -30.1474  -13.3740   19.2030 C   0  0  0  0  0  0  0  0  0  0  0  0
  -29.1291  -22.0091   28.2383 C   0  0  0  0  0  0  0  0  0  0  0  0
  -27.2044  -21.7049   26.8100 C   0  0  0  0  0  0  0  0  0  0  0  0
  -27.9800  -21.3078   21.7813 C   0  0  0  0  0  0  0  0  0  0  0  0
  -27.8148  -24.9431   26.0539 C   0  0  0  0  0  0  0  0  0  0  0  0
  -27.3310  -25.7839   25.0516 C   0  0  0  0  0  0  0  0  0  0  0  0
  -28.1040  -13.5733   20.4765 C   0  0  0  0  0  0  0  0  0  0  0  0
  -30.1171  -21.1649   20.6715 C   0  0  0  0  0  0  0  0  0  0  0  0
  -25.1667  -25.8178   26.1250 C   0  0  0  0  0  0  0  0  0  0  0  0
  -28.8879  -19.9779   26.9526 C   0  0  0  0  0  0  0  0  0  0  0  0
  -27.5072  -12.6037   19.6707 C   0  0  0  0  0  0  0  0  0  0  0  0
  -29.1203  -17.4475   27.1770 C   0  0  0  0  0  0  0  0  0  0  0  0
  -26.9761  -28.9619   20.0927 C   0  0  0  0  0  0  0  0  0  0  0  0
  -29.5677  -23.1354   21.9657 C   0  0  0  0  0  0  0  0  0  0  0  0
  -27.3989  -27.6503   19.8040 C   0  0  0  0  0  0  0  0  0  0  0  0
  -30.4773  -22.4271   21.1676 C   0  0  0  0  0  0  0  0  0  0  0  0
  -28.2305  -12.0192   18.6311 C   0  0  0  0  0  0  0  0  0  0  0  0
  -29.4241  -13.9585   20.2426 C   0  0  0  0  0  0  0  0  0  0  0  0
  -27.9263  -22.4833   27.7147 C   0  0  0  0  0  0  0  0  0  0  0  0
  -28.8745  -20.6094   20.9755 C   0  0  0  0  0  0  0  0  0  0  0  0
  -26.9747  -24.5397   27.0917 C   0  0  0  0  0  0  0  0  0  0  0  0
  -26.0069  -26.2212   25.0871 C   0  0  0  0  0  0  0  0  0  0  0  0
  -25.6506  -24.9770   27.1272 C   0  0  0  0  0  0  0  0  0  0  0  0
  -29.3843  -18.6840   26.5582 C   0  0  0  0  0  0  0  0  0  0  0  0
  -29.8195  -16.5326   26.4282 C   0  0  0  0  0  0  0  0  0  0  0  0
  -26.1136  -12.2154   19.9397 C   0  0  0  0  0  0  0  0  0  0  0  0
  -28.3150  -17.1521   28.3258 C   0  0  0  0  0  0  0  0  0  0  0  0
  -30.5088  -25.7573   20.4348 C   0  0  0  0  0  0  0  0  0  0  0  0
  -26.9727  -18.1458   19.1169 C   0  0  0  0  0  0  0  0  0  0  0  0
  -33.4459  -24.8226   21.4457 C   0  0  0  0  0  0  0  0  0  0  0  0
  -25.3044  -15.3317   19.1464 C   0  0  0  0  0  0  0  0  0  0  0  0
  -35.4837  -22.2867   22.4771 C   0  0  0  0  0  0  0  0  0  0  0  0
  -31.3293  -15.4419   20.9609 C   0  0  0  0  0  0  0  0  0  0  0  0
  -27.9193  -30.1358   20.0099 C   0  0  0  0  0  0  0  0  0  0  0  0
  -29.9364  -24.4795   22.5314 C   0  0  0  0  0  0  0  0  0  0  0  0
  -31.8312  -22.9879   20.8197 C   0  0  0  0  0  0  0  0  0  0  0  0
  -29.3925  -29.7360   20.0285 C   0  0  0  0  0  0  0  0  0  0  0  0
  -33.6491  -16.7838   23.3050 C   0  0  0  0  0  0  0  0  0  0  0  0
  -29.6439  -28.5791   19.0668 C   0  0  0  0  0  0  0  0  0  0  0  0
  -32.7615  -17.2901   24.4443 C   0  0  0  0  0  0  0  0  0  0  0  0
  -32.9986  -17.0007   21.9399 C   0  0  0  0  0  0  0  0  0  0  0  0
  -30.7507  -16.9701   22.9473 C   0  0  0  0  0  0  0  0  0  0  0  0
  -28.8428  -27.3373   19.4763 C   0  0  1  0  0  0  0  0  0  0  0  0
  -31.0219  -25.1887   21.7275 C   0  0  1  0  0  0  0  0  0  0  0  0
  -31.3353  -16.7143   24.3460 C   0  0  2  0  0  0  0  0  0  0  0  0
  -27.6157  -10.9783   17.7532 C   0  0  0  0  0  0  0  0  0  0  0  0
  -37.8427  -21.8242   23.1972 C   0  0  0  0  0  0  0  0  0  0  0  0
  -34.3651  -25.0031   18.5419 C   0  0  0  0  0  0  0  0  0  0  0  0
  -36.3777  -23.6518   19.1679 C   0  0  0  0  0  0  0  0  0  0  0  0
  -36.0040  -25.8864   20.2117 C   0  0  0  0  0  0  0  0  0  0  0  0
  -23.7054  -12.5427   19.5302 C   0  0  0  0  0  0  0  0  0  0  0  0
  -34.6085  -21.3480   25.1439 C   0  0  0  0  0  0  0  0  0  0  0  0
  -25.5420  -17.7856   18.7778 C   0  0  0  0  0  0  0  0  0  0  0  0
  -27.1543  -19.1365   20.2493 C   0  0  0  0  0  0  0  0  0  1  0  0
  -25.2964  -14.0369   18.3748 C   0  0  0  0  0  0  0  0  0  0  0  0
  -34.5378  -23.9413   20.8889 C   0  0  1  0  0  0  0  0  0  0  0  0
  -36.4353  -22.1747   23.6545 C   0  0  2  0  0  0  0  0  0  0  0  0
  -35.2950  -24.6106   19.7074 C   0  0  0  0  0  0  0  0  0  0  0  0
  -30.1886  -18.5688   25.4981 N   0  0  0  0  0  0  0  0  0  0  0  0
  -30.4361  -17.2490   25.4450 N   0  0  0  0  0  0  0  0  0  0  0  0
  -32.1427  -24.3083   21.3917 N   0  0  0  0  0  0  0  0  0  0  0  0
  -31.6520  -16.4254   21.9198 N   0  0  0  0  0  0  0  0  0  0  0  0
  -29.9610  -15.1933   26.5217 N   0  0  0  0  0  0  0  0  0  0  0  0
  -27.6657  -18.2102   28.9765 N   0  0  0  0  0  0  0  0  0  0  0  0
  -30.0301  -14.9450   21.0595 N   0  0  0  0  0  0  0  0  0  0  0  0
  -29.4813  -26.6683   20.5894 N   0  0  0  0  0  0  0  0  0  0  0  0
  -25.4947  -16.4320   18.3111 N   0  0  0  0  0  0  0  0  0  0  0  0
  -35.3893  -23.5836   22.0183 N   0  0  0  0  0  0  0  0  0  0  0  0
  -25.0907  -12.9127   19.2997 N   0  0  0  0  0  0  0  0  0  0  0  0
  -35.9707  -21.1182   24.5974 N   0  3  0  0  0  0  0  0  0  0  0  0
  -25.9507  -11.2745   20.7159 O   0  0  0  0  0  0  0  0  0  0  0  0
  -28.1884  -15.9867   28.7723 O   0  0  0  0  0  0  0  0  0  0  0  0
  -31.0091  -25.3974   19.3757 O   0  0  0  0  0  0  0  0  0  0  0  0
  -27.9300  -17.7054   18.4810 O   0  0  0  0  0  0  0  0  0  0  0  0
  -33.7394  -25.9238   21.9179 O   0  0  0  0  0  0  0  0  0  0  0  0
  -25.1570  -15.3936   20.3642 O   0  0  0  0  0  0  0  0  0  0  0  0
  -34.8868  -21.3198   22.0087 O   0  0  0  0  0  0  0  0  0  0  0  0
  -32.1539  -15.0486   20.1319 O   0  0  0  0  0  0  0  0  0  0  0  0
  -27.4568  -23.7056   28.0865 O   0  0  0  0  0  0  0  0  0  0  0  0
  -28.5392  -19.3836   20.4889 O   0  0  0  0  0  0  0  0  0  1  0  0
  -25.5428  -27.0299   24.1254 F   0  0  0  0  0  0  0  0  0  0  0  0
  -24.8390  -24.5937   28.1223 F   0  0  0  0  0  0  0  0  0  0  0  0
  1  2  1  0  0  0  0
  1  5  2  0  0  0  0
  2  6  2  0  0  0  0
  3 10  2  0  0  0  0
  3 18  1  0  0  0  0
  4 11  1  0  0  0  0
  4 18  2  0  0  0  0
  5 21  1  0  0  0  0
  6 23  1  0  0  0  0
  7 12  2  0  0  0  0
  7 22  1  0  0  0  0
  8  9  2  0  0  0  0
  8 25  1  0  0  0  0
  9 26  1  0  0  0  0
 10 27  1  0  0  0  0
 11 27  2  0  0  0  0
 12 28  1  0  0  0  0
 13 14  2  0  0  0  0
 13 29  1  0  0  0  0
 14 30  1  0  0  0  0
 15 19  1  0  0  0  0
 15 26  2  0  0  0  0
 16 24  1  0  0  0  0
 16 28  2  0  0  0  0
 17 30  2  0  0  0  0
 17 31  1  0  0  0  0
 18 32  1  0  0  0  0
 19 25  2  0  0  0  0
 19 34  1  0  0  0  0
 20 32  1  0  0  0  0
 20 33  2  0  0  0  0
 20 35  1  0  0  0  0
 21 23  2  0  0  0  0
 21 42  1  0  0  0  0
 22 24  2  0  0  0  0
 22 43  1  0  0  0  0
 23 51  1  0  0  0  0
 24 44  1  0  0  0  0
 25 54  1  0  0  0  0
 26 73  1  0  0  0  0
 27 87  1  0  0  0  0
 28 88  1  0  0  0  0
 29 31  2  0  0  0  0
 29 87  1  0  0  0  0
 30 89  1  0  0  0  0
 31 90  1  0  0  0  0
 32 67  2  0  0  0  0
 33 68  1  0  0  0  0
 33 71  1  0  0  0  0
 34 77  1  0  0  0  0
 34 79  2  0  0  0  0
 35 72  1  0  0  0  0
 35 80  2  0  0  0  0
 36 52  1  0  0  0  0
 36 74  1  0  0  0  0
 36 81  2  0  0  0  0
 37 61  1  0  0  0  0
 37 62  1  0  0  0  0
 37 82  2  0  0  0  0
 38 64  1  0  0  0  0
 38 69  1  0  0  0  0
 38 83  2  0  0  0  0
 39 63  1  0  0  0  0
 39 75  1  0  0  0  0
 39 84  2  0  0  0  0
 40 65  1  0  0  0  0
 40 76  1  0  0  0  0
 40 85  2  0  0  0  0
 41 70  1  0  0  0  0
 41 73  1  0  0  0  0
 41 86  2  0  0  0  0
 42 45  1  0  0  0  0
 43 52  1  0  0  0  0
 44 69  1  0  0  0  0
 45 47  1  0  0  0  0
 46 48  1  0  0  0  0
 46 49  1  0  0  0  0
 47 51  1  0  0  0  0
 48 53  1  0  0  0  0
 49 70  1  0  0  0  0
 50 53  1  0  0  0  0
 50 70  1  0  0  0  0
 51 74  1  0  0  0  0
 52 69  1  0  0  0  0
 53 68  1  0  0  0  0
 55 65  1  0  0  0  0
 56 66  1  0  0  0  0
 57 66  1  0  0  0  0
 58 66  1  0  0  0  0
 59 77  1  0  0  0  0
 60 78  1  0  0  0  0
 61 75  1  0  0  0  0
 62 88  1  0  0  0  0
 63 77  1  0  0  0  0
 64 66  1  0  0  0  0
 64 76  1  0  0  0  0
 65 78  1  0  0  0  0
 67 68  1  0  0  0  0
M  CHG  1  78   1
M  ISO  4  41 100  62 101  73 100  88 101
M  END
> <Batch ID>
0055

> <Smiles>
CNC(C)C(=O)NC(C(=O)N1Cc2cc([101O:1][101CH2:1]C(=O)CNC(=O)CN(C)C(=O)c3cc([100NH:0][100C:0](=O)N4CCCC(n5nc(-c6ccc(Oc7ccc(F)cc7F)cc6)c(C(N)=O)c5N)C4)ccc3C)ccc2CC1C(=O)NC1CCCc2ccccc21)C(C)(C)C

> <Shape>
0.180

> <Color>
0.101

> <Negative vol penalty>
0.000

$$$$

  -OEChem-04042322493D

 84 92  0     1  0  0  0  0  0999 V2000
  -28.8514  -32.4805   26.7758 C   0  0  0  0  0  0  0  0  0  0  0  0
  -29.4582  -31.2331   26.6697 C   0  0  0  0  0  0  0  0  0  0  0  0
  -23.0867   -9.8484   19.9468 C   0  0  0  0  0  0  0  0  0  0  0  0
  -23.8342   -9.8786   22.2441 C   0  0  0  0  0  0  0  0  0  0  0  0
  -32.6098  -17.5454   23.4442 C   0  0  0  0  0  0  0  0  0  0  0  0
  -28.0434  -32.9516   25.7419 C   0  0  0  0  0  0  0  0  0  0  0  0
  -29.2562  -30.4555   25.5300 C   0  0  0  0  0  0  0  0  0  0  0  0
  -33.2982  -26.7005   22.8714 C   0  0  0  0  0  0  0  0  0  0  0  0
  -32.0304  -16.6511   22.5442 C   0  0  0  0  0  0  0  0  0  0  0  0
  -22.3465   -8.6942   20.2028 C   0  0  0  0  0  0  0  0  0  0  0  0
  -23.0940   -8.7244   22.5001 C   0  0  0  0  0  0  0  0  0  0  0  0
  -33.4822  -25.3202   22.9400 C   0  0  0  0  0  0  0  0  0  0  0  0
  -19.8661   -7.9177   23.0923 C   0  0  0  0  0  0  0  0  0  0  0  0
  -19.1030   -7.8846   24.2594 C   0  0  0  0  0  0  0  0  0  0  0  0
  -32.1831  -25.0530   20.9250 C   0  0  0  0  0  0  0  0  0  0  0  0
  -29.8400  -17.4958   23.1150 C   0  0  0  0  0  0  0  0  0  0  0  0
  -20.3488   -5.9591   25.0193 C   0  0  0  0  0  0  0  0  0  0  0  0
  -23.8306  -10.4406   20.9675 C   0  0  0  0  0  0  0  0  0  0  0  0
  -31.8044  -18.4149   24.1797 C   0  0  0  0  0  0  0  0  0  0  0  0
  -24.1621  -12.9660   20.8273 C   0  0  0  0  0  0  0  0  0  0  0  0
  -27.8392  -32.1836   24.5848 C   0  0  0  0  0  0  0  0  0  0  0  0
  -32.5449  -27.2675   21.8334 C   0  0  0  0  0  0  0  0  0  0  0  0
  -28.4435  -30.9162   24.4802 C   0  0  0  0  0  0  0  0  0  0  0  0
  -31.9932  -26.4410   20.8441 C   0  0  0  0  0  0  0  0  0  0  0  0
  -30.4195  -18.3901   24.0151 C   0  0  0  0  0  0  0  0  0  0  0  0
  -30.6455  -16.6263   22.3796 C   0  0  0  0  0  0  0  0  0  0  0  0
  -22.3501   -8.1322   21.4795 C   0  0  0  0  0  0  0  0  0  0  0  0
  -32.9222  -24.4960   21.9683 C   0  0  0  0  0  0  0  0  0  0  0  0
  -20.8705   -6.9714   22.8886 C   0  0  0  0  0  0  0  0  0  0  0  0
  -19.3444   -6.9054   25.2230 C   0  0  0  0  0  0  0  0  0  0  0  0
  -21.1119   -5.9922   23.8522 C   0  0  0  0  0  0  0  0  0  0  0  0
  -24.5959  -11.6325   20.7035 C   0  0  0  0  0  0  0  0  0  0  0  0
  -25.2530  -13.7171   20.4634 C   0  0  0  0  0  0  0  0  0  0  0  0
  -22.8872  -13.4799   21.2349 C   0  0  0  0  0  0  0  0  0  0  0  0
  -32.4418  -19.3466   25.1217 C   0  0  0  0  0  0  0  0  0  0  0  0
  -29.8673  -28.9734   21.6782 C   0  0  0  0  0  0  0  0  0  0  0  0
  -30.6351  -29.1688   18.5326 C   0  0  0  0  0  0  0  0  0  0  0  0
  -32.6890  -21.1679   23.3641 C   0  0  0  0  0  0  0  0  0  0  0  0
  -32.2946  -27.8319   15.8669 C   0  0  0  0  0  0  0  0  0  0  0  0
  -30.7135  -14.7882   20.6582 C   0  0  0  0  0  0  0  0  0  0  0  0
  -26.9192  -32.7145   23.5140 C   0  0  0  0  0  0  0  0  0  0  0  0
  -32.3781  -28.7605   21.7588 C   0  0  0  0  0  0  0  0  0  0  0  0
  -31.1930  -27.0017   19.6979 C   0  0  0  0  0  0  0  0  0  0  0  0
  -27.0579  -31.9900   22.1776 C   0  0  0  0  0  0  0  0  0  0  0  0
  -29.6224  -12.3490   18.3051 C   0  0  0  0  0  0  0  0  0  0  0  0
  -27.0727  -30.4793   22.3884 C   0  0  0  0  0  0  0  0  0  0  0  0
  -28.1818  -12.0549   18.7295 C   0  0  0  0  0  0  0  0  0  0  0  0
  -30.5300  -12.5923   19.5096 C   0  0  0  0  0  0  0  0  0  0  0  0
  -28.6125  -13.3203   20.8743 C   0  0  0  0  0  0  0  0  0  0  0  0
  -28.2686  -30.0540   23.2489 C   0  0  1  0  0  0  0  0  0  0  0  0
  -31.1608  -29.1857   20.9436 C   0  0  1  0  0  0  0  0  0  0  0  0
  -27.6468  -13.1326   19.6928 C   0  0  2  0  0  0  0  0  0  0  0  0
  -29.5339  -19.3096   24.7912 C   0  0  0  0  0  0  0  0  0  0  0  0
  -32.7029  -28.1940   13.4175 C   0  0  0  0  0  0  0  0  0  0  0  0
  -27.8395  -28.1149   17.9133 C   0  0  0  0  0  0  0  0  0  0  0  0
  -28.6224  -27.6039   15.5907 C   0  0  0  0  0  0  0  0  0  0  0  0
  -28.6152  -29.9591   16.4128 C   0  0  0  0  0  0  0  0  0  0  0  0
  -35.2105  -28.1273   16.2782 C   0  0  0  0  0  0  0  0  0  0  0  0
  -33.2508  -22.5749   23.3312 C   0  0  0  0  0  0  0  0  0  1  0  0
  -30.3389  -28.3397   17.3063 C   0  0  1  0  0  0  0  0  0  0  0  0
  -33.2046  -28.4618   14.8279 C   0  0  2  0  0  0  0  0  0  0  0  0
  -28.8674  -28.4934   16.8283 C   0  0  0  0  0  0  0  0  0  0  0  0
  -25.8634  -11.5386   20.2928 N   0  0  0  0  0  0  0  0  0  0  0  0
  -26.2354  -12.8227   20.1554 N   0  0  0  0  0  0  0  0  0  0  0  0
  -31.0528  -28.4671   19.6723 N   0  0  0  0  0  0  0  0  0  0  0  0
  -29.9619  -13.6282   20.3750 N   0  0  0  0  0  0  0  0  0  0  0  0
  -25.4580  -15.0488   20.3799 N   0  0  0  0  0  0  0  0  0  0  0  0
  -21.8774  -12.5693   21.5746 N   0  0  0  0  0  0  0  0  0  0  0  0
  -30.0578  -15.7174   21.4651 N   0  0  0  0  0  0  0  0  0  0  0  0
  -32.8187  -20.6060   24.6473 N   0  0  0  0  0  0  0  0  0  0  0  0
  -29.4816  -30.0458   22.4597 N   0  0  0  0  0  0  0  0  0  0  0  0
  -31.3339  -28.7170   16.3083 N   0  0  0  0  0  0  0  0  0  0  0  0
  -34.5851  -27.9133   14.9477 N   0  3  0  0  0  0  0  0  0  0  0  0
  -22.6453  -14.7099   21.2802 O   0  0  0  0  0  0  0  0  0  0  0  0
  -29.2632  -27.9157   21.5446 O   0  0  0  0  0  0  0  0  0  0  0  0
  -30.5078  -30.3946   18.4790 O   0  0  0  0  0  0  0  0  0  0  0  0
  -32.1977  -20.6316   22.3761 O   0  0  0  0  0  0  0  0  0  0  0  0
  -32.4209  -26.6697   16.2461 O   0  0  0  0  0  0  0  0  0  0  0  0
  -31.8444  -14.9578   20.1952 O   0  0  0  0  0  0  0  0  0  0  0  0
  -21.6278   -7.0061   21.7297 O   0  0  0  0  0  0  0  0  0  0  0  0
  -33.0997  -23.1483   22.0333 O   0  0  0  0  0  0  0  0  0  1  0  0
  -18.6126   -6.8747   26.3444 F   0  0  0  0  0  0  0  0  0  0  0  0
  -22.0763   -5.0812   23.6626 F   0  0  0  0  0  0  0  0  0  0  0  0
  -32.7120  -18.9239   26.7247 S   0  0  0  0  0  0  0  0  0  0  0  0
  1  2  1  0  0  0  0
  1  6  2  0  0  0  0
  2  7  2  0  0  0  0
  3 10  2  0  0  0  0
  3 18  1  0  0  0  0
  4 11  1  0  0  0  0
  4 18  2  0  0  0  0
  5  9  2  0  0  0  0
  5 19  1  0  0  0  0
  6 21  1  0  0  0  0
  7 23  1  0  0  0  0
  8 12  2  0  0  0  0
  8 22  1  0  0  0  0
  9 26  1  0  0  0  0
 10 27  1  0  0  0  0
 11 27  2  0  0  0  0
 12 28  1  0  0  0  0
 13 14  2  0  0  0  0
 13 29  1  0  0  0  0
 14 30  1  0  0  0  0
 15 24  1  0  0  0  0
 15 28  2  0  0  0  0
 16 25  1  0  0  0  0
 16 26  2  0  0  0  0
 17 30  2  0  0  0  0
 17 31  1  0  0  0  0
 18 32  1  0  0  0  0
 19 25  2  0  0  0  0
 19 35  1  0  0  0  0
 20 32  1  0  0  0  0
 20 33  2  0  0  0  0
 20 34  1  0  0  0  0
 21 23  2  0  0  0  0
 21 41  1  0  0  0  0
 22 24  2  0  0  0  0
 22 42  1  0  0  0  0
 23 50  1  0  0  0  0
 24 43  1  0  0  0  0
 25 53  1  0  0  0  0
 26 69  1  0  0  0  0
 27 80  1  0  0  0  0
 28 81  1  0  0  0  0
 29 31  2  0  0  0  0
 29 80  1  0  0  0  0
 30 82  1  0  0  0  0
 31 83  1  0  0  0  0
 32 63  2  0  0  0  0
 33 64  1  0  0  0  0
 33 67  1  0  0  0  0
 34 68  1  0  0  0  0
 34 74  2  0  0  0  0
 35 70  1  0  0  0  0
 35 84  2  0  0  0  0
 36 51  1  0  0  0  0
 36 71  1  0  0  0  0
 36 75  2  0  0  0  0
 37 60  1  0  0  0  0
 37 65  1  0  0  0  0
 37 76  2  0  0  0  0
 38 59  1  0  0  0  0
 38 70  1  0  0  0  0
 38 77  2  0  0  0  0
 39 61  1  0  0  0  0
 39 72  1  0  0  0  0
 39 78  2  0  0  0  0
 40 66  1  0  0  0  0
 40 69  1  0  0  0  0
 40 79  2  0  0  0  0
 41 44  1  0  0  0  0
 42 51  1  0  0  0  0
 43 65  1  0  0  0  0
 44 46  1  0  0  0  0
 45 47  1  0  0  0  0
 45 48  1  0  0  0  0
 46 50  1  0  0  0  0
 47 52  1  0  0  0  0
 48 66  1  0  0  0  0
 49 52  1  0  0  0  0
 49 66  1  0  0  0  0
 50 71  1  0  0  0  0
 51 65  1  0  0  0  0
 52 64  1  0  0  0  0
 54 61  1  0  0  0  0
 55 62  1  0  0  0  0
 56 62  1  0  0  0  0
 57 62  1  0  0  0  0
 58 73  1  0  0  0  0
 59 81  1  0  0  0  0
 60 62  1  0  0  0  0
 60 72  1  0  0  0  0
 61 73  1  0  0  0  0
 63 64  1  0  0  0  0
M  CHG  1  73   1
M  ISO  4  40 100  59 101  69 100  81 101
M  END
> <Batch ID>
0055

> <Smiles>
CNC(C)C(=O)NC(C(=O)N1Cc2cc([101O:1][101CH2:1]C(=O)NC(=S)c3ccc([100NH:0][100C:0](=O)N4CCCC(n5nc(-c6ccc(Oc7ccc(F)cc7F)cc6)c(C(N)=O)c5N)C4)cc3C)ccc2CC1C(=O)NC1CCCc2ccccc21)C(C)(C)C

> <Shape>
0.241

> <Color>
0.188

> <Negative vol penalty>
0.000

$$$$

  -OEChem-04042322493D

 87 95  0     1  0  0  0  0  0999 V2000
  -29.9278  -17.4570   21.3678 C   0  0  0  0  0  0  0  0  0  0  0  0
  -28.9857  -17.9579   22.2606 C   0  0  0  0  0  0  0  0  0  0  0  0
  -18.1095  -28.2904   22.3216 C   0  0  0  0  0  0  0  0  0  0  0  0
  -22.5240  -14.4638   21.8546 C   0  0  0  0  0  0  0  0  0  0  0  0
  -22.0624  -14.9090   19.5252 C   0  0  0  0  0  0  0  0  0  0  0  0
  -18.7829  -28.4728   23.5294 C   0  0  0  0  0  0  0  0  0  0  0  0
  -30.9291  -18.2910   20.8720 C   0  0  0  0  0  0  0  0  0  0  0  0
  -29.0450  -19.2929   22.6589 C   0  0  0  0  0  0  0  0  0  0  0  0
  -24.3140  -22.9748   23.9105 C   0  0  0  0  0  0  0  0  0  0  0  0
  -18.5907  -27.3741   21.3863 C   0  0  0  0  0  0  0  0  0  0  0  0
  -22.2331  -13.1144   21.6543 C   0  0  0  0  0  0  0  0  0  0  0  0
  -21.7715  -13.5595   19.3250 C   0  0  0  0  0  0  0  0  0  0  0  0
  -23.7176  -23.3609   25.1101 C   0  0  0  0  0  0  0  0  0  0  0  0
  -21.9618   -9.4893   21.6752 C   0  0  0  0  0  0  0  0  0  0  0  0
  -22.8301   -8.5494   22.2303 C   0  0  0  0  0  0  0  0  0  0  0  0
  -25.0502  -25.3717   25.1184 C   0  0  0  0  0  0  0  0  0  0  0  0
  -24.6477   -9.4559   20.9220 C   0  0  0  0  0  0  0  0  0  0  0  0
  -22.4386  -15.3611   20.7900 C   0  0  0  0  0  0  0  0  0  0  0  0
  -19.9375  -27.7392   23.8020 C   0  0  0  0  0  0  0  0  0  0  0  0
  -23.9917  -17.3833   20.8678 C   0  0  0  0  0  0  0  0  0  0  0  0
  -30.9949  -19.6394   21.2570 C   0  0  0  0  0  0  0  0  0  0  0  0
  -25.2925  -23.7803   23.3104 C   0  0  0  0  0  0  0  0  0  0  0  0
  -30.0489  -20.1454   22.1688 C   0  0  0  0  0  0  0  0  0  0  0  0
  -25.6556  -24.9948   23.9098 C   0  0  0  0  0  0  0  0  0  0  0  0
  -19.7453  -26.6405   21.6588 C   0  0  0  0  0  0  0  0  0  0  0  0
  -20.4187  -26.8230   22.8667 C   0  0  0  0  0  0  0  0  0  0  0  0
  -21.8569  -12.6622   20.3896 C   0  0  0  0  0  0  0  0  0  0  0  0
  -24.0878  -24.5581   25.7157 C   0  0  0  0  0  0  0  0  0  0  0  0
  -22.4364  -10.4125   20.7434 C   0  0  0  0  0  0  0  0  0  0  0  0
  -24.1730   -8.5327   21.8538 C   0  0  0  0  0  0  0  0  0  0  0  0
  -23.7794  -10.3958   20.3669 C   0  0  0  0  0  0  0  0  0  0  0  0
  -22.7384  -16.7552   20.9964 C   0  0  0  0  0  0  0  0  0  0  0  0
  -23.7476  -18.7014   21.1672 C   0  0  0  0  0  0  0  0  0  0  0  0
  -20.6319  -27.9546   25.0975 C   0  0  0  0  0  0  0  0  0  0  0  0
  -25.2629  -16.8253   20.5097 C   0  0  0  0  0  0  0  0  0  0  0  0
  -28.3620  -23.4078   22.5738 C   0  0  0  0  0  0  0  0  0  0  0  0
  -27.9723  -26.3020   21.1617 C   0  0  0  0  0  0  0  0  0  0  0  0
  -26.2320  -29.2329   20.9936 C   0  0  0  0  0  0  0  0  0  0  0  0
  -20.7399  -23.2349   20.5778 C   0  0  0  0  0  0  0  0  0  0  0  0
  -32.1236  -20.4903   20.7310 C   0  0  0  0  0  0  0  0  0  0  0  0
  -25.9069  -23.3626   22.0026 C   0  0  0  0  0  0  0  0  0  0  0  0
  -26.6863  -25.9053   23.2957 C   0  0  0  0  0  0  0  0  0  0  0  0
  -31.8930  -21.9883   20.9128 C   0  0  0  0  0  0  0  0  0  0  0  0
  -19.6594  -20.9273   23.1478 C   0  0  0  0  0  0  0  0  0  0  0  0
  -31.4054  -22.2856   22.3272 C   0  0  0  0  0  0  0  0  0  0  0  0
  -20.4757  -19.6812   22.8004 C   0  0  0  0  0  0  0  0  0  0  0  0
  -19.1978  -21.6547   21.8884 C   0  0  0  0  0  0  0  0  0  0  0  0
  -21.1148  -20.7852   20.6067 C   0  0  0  0  0  0  0  0  0  0  0  0
  -30.0652  -21.5942   22.6055 C   0  0  1  0  0  0  0  0  0  0  0  0
  -27.2634  -24.0116   21.7454 C   0  0  1  0  0  0  0  0  0  0  0  0
  -21.6300  -20.0178   21.8378 C   0  0  2  0  0  0  0  0  0  0  0  0
  -21.6568  -26.0339   23.1559 C   0  0  0  0  0  0  0  0  0  0  0  0
  -26.1718  -31.4205   19.7655 C   0  0  0  0  0  0  0  0  0  0  0  0
  -30.3646  -27.2767   22.7856 C   0  0  0  0  0  0  0  0  0  0  0  0
  -29.6746  -29.6257   22.2618 C   0  0  0  0  0  0  0  0  0  0  0  0
  -30.3171  -28.0754   20.4161 C   0  0  0  0  0  0  0  0  0  0  0  0
  -19.9469  -25.0398   28.1854 C   0  0  0  0  0  0  0  0  0  0  0  0
  -22.0907  -25.6781   29.3235 C   0  0  0  0  0  0  0  0  0  0  0  0
  -23.5158  -28.7021   19.9451 C   0  0  0  0  0  0  0  0  0  0  0  0
  -20.2386  -25.6643   20.6414 C   0  0  0  0  0  0  0  0  0  0  0  0
  -21.3702  -26.8964   27.2168 C   0  0  0  0  0  0  0  0  0  0  0  0
  -22.1671  -24.5058   27.1172 C   0  0  0  0  0  0  0  0  0  1  0  0
  -28.1133  -27.7372   21.6083 C   0  0  1  0  0  0  0  0  0  0  0  0
  -25.6503  -29.9928   19.8152 C   0  0  2  0  0  0  0  0  0  0  0  0
  -29.5993  -28.1609   21.7808 C   0  0  0  0  0  0  0  0  0  0  0  0
  -21.3867  -25.5400   27.9612 C   0  0  0  0  0  0  0  0  0  0  0  0
  -21.7700  -17.6044   21.3501 N   0  0  0  0  0  0  0  0  0  0  0  0
  -22.4149  -18.7795   21.4464 N   0  0  0  0  0  0  0  0  0  0  0  0
  -27.2630  -25.4499   22.0199 N   0  0  0  0  0  0  0  0  0  0  0  0
  -20.3461  -21.9625   21.0242 N   0  0  0  0  0  0  0  0  0  0  0  0
  -24.5451  -19.7895   21.2164 N   0  0  0  0  0  0  0  0  0  0  0  0
  -25.3364  -15.4531   20.2336 N   0  0  0  0  0  0  0  0  0  0  0  0
  -20.7462  -26.8420   25.9218 N   0  0  0  0  0  0  0  0  0  0  0  0
  -28.9814  -22.3233   21.9824 N   0  0  0  0  0  0  0  0  0  0  0  0
  -27.3713  -28.5401   20.6424 N   0  0  0  0  0  0  0  0  0  0  0  0
  -19.9549  -24.2958   21.0127 N   0  0  0  0  0  0  0  0  0  0  0  0
  -24.1638  -30.0385   19.9112 N   0  3  0  0  0  0  0  0  0  0  0  0
  -21.0416  -29.0777   25.3792 O   0  0  0  0  0  0  0  0  0  0  0  0
  -26.3061  -17.5197   20.4526 O   0  0  0  0  0  0  0  0  0  0  0  0
  -28.6291  -23.8910   23.6678 O   0  0  0  0  0  0  0  0  0  0  0  0
  -28.4670  -25.9516   20.0874 O   0  0  0  0  0  0  0  0  0  0  0  0
  -25.7284  -29.2549   22.1145 O   0  0  0  0  0  0  0  0  0  0  0  0
  -21.7221  -23.4133   19.8495 O   0  0  0  0  0  0  0  0  0  0  0  0
  -21.5732  -11.3455   20.1937 O   0  0  0  0  0  0  0  0  0  0  0  0
  -23.5078  -24.9370   26.8870 O   0  0  0  0  0  0  0  0  0  1  0  0
  -25.0071   -7.6311   22.3881 F   0  0  0  0  0  0  0  0  0  0  0  0
  -24.2414  -11.2810   19.4731 F   0  0  0  0  0  0  0  0  0  0  0  0
  1  2  1  0  0  0  0
  1  7  2  0  0  0  0
  2  8  2  0  0  0  0
  3  6  2  0  0  0  0
  3 10  1  0  0  0  0
  4 11  2  0  0  0  0
  4 18  1  0  0  0  0
  5 12  1  0  0  0  0
  5 18  2  0  0  0  0
  6 19  1  0  0  0  0
  7 21  1  0  0  0  0
  8 23  1  0  0  0  0
  9 13  2  0  0  0  0
  9 22  1  0  0  0  0
 10 25  2  0  0  0  0
 11 27  1  0  0  0  0
 12 27  2  0  0  0  0
 13 28  1  0  0  0  0
 14 15  2  0  0  0  0
 14 29  1  0  0  0  0
 15 30  1  0  0  0  0
 16 24  1  0  0  0  0
 16 28  2  0  0  0  0
 17 30  2  0  0  0  0
 17 31  1  0  0  0  0
 18 32  1  0  0  0  0
 19 26  2  0  0  0  0
 19 34  1  0  0  0  0
 20 32  1  0  0  0  0
 20 33  2  0  0  0  0
 20 35  1  0  0  0  0
 21 23  2  0  0  0  0
 21 40  1  0  0  0  0
 22 24  2  0  0  0  0
 22 41  1  0  0  0  0
 23 49  1  0  0  0  0
 24 42  1  0  0  0  0
 25 26  1  0  0  0  0
 25 60  1  0  0  0  0
 26 52  1  0  0  0  0
 27 84  1  0  0  0  0
 28 85  1  0  0  0  0
 29 31  2  0  0  0  0
 29 84  1  0  0  0  0
 30 86  1  0  0  0  0
 31 87  1  0  0  0  0
 32 67  2  0  0  0  0
 33 68  1  0  0  0  0
 33 71  1  0  0  0  0
 34 73  1  0  0  0  0
 34 78  2  0  0  0  0
 35 72  1  0  0  0  0
 35 79  2  0  0  0  0
 36 50  1  0  0  0  0
 36 74  1  0  0  0  0
 36 80  2  0  0  0  0
 37 63  1  0  0  0  0
 37 69  1  0  0  0  0
 37 81  2  0  0  0  0
 38 64  1  0  0  0  0
 38 75  1  0  0  0  0
 38 82  2  0  0  0  0
 39 70  1  0  0  0  0
 39 76  1  0  0  0  0
 39 83  2  0  0  0  0
 40 43  1  0  0  0  0
 41 50  1  0  0  0  0
 42 69  1  0  0  0  0
 43 45  1  0  0  0  0
 44 46  1  0  0  0  0
 44 47  1  0  0  0  0
 45 49  1  0  0  0  0
 46 51  1  0  0  0  0
 47 70  1  0  0  0  0
 48 51  1  0  0  0  0
 48 70  1  0  0  0  0
 49 74  1  0  0  0  0
 50 69  1  0  0  0  0
 51 68  1  0  0  0  0
 53 64  1  0  0  0  0
 54 65  1  0  0  0  0
 55 65  1  0  0  0  0
 56 65  1  0  0  0  0
 57 66  1  0  0  0  0
 58 66  1  0  0  0  0
 59 77  1  0  0  0  0
 60 76  1  0  0  0  0
 61 66  1  0  0  0  0
 61 73  1  0  0  0  0
 62 66  1  0  0  0  0
 62 85  1  0  0  0  0
 63 65  1  0  0  0  0
 63 75  1  0  0  0  0
 64 77  1  0  0  0  0
 67 68  1  0  0  0  0
M  CHG  1  77   1
M  ISO  4  39 100  62 101  76 100  85 101
M  END
> <Batch ID>
0055

> <Smiles>
CNC(C)C(=O)NC(C(=O)N1Cc2cc([101O:1][101CH2:1]C(C)(C)CNC(=O)c3cccc(C[100NH:0][100C:0](=O)N4CCCC(n5nc(-c6ccc(Oc7ccc(F)cc7F)cc6)c(C(N)=O)c5N)C4)c3C)ccc2CC1C(=O)NC1CCCc2ccccc21)C(C)(C)C

> <Shape>
0.187

> <Color>
0.062

> <Negative vol penalty>
0.000

$$$$

  -OEChem-04042322493D

 85 93  0     1  0  0  0  0  0999 V2000
  -26.3532  -22.6194   18.4647 C   0  0  0  0  0  0  0  0  0  0  0  0
  -25.5013  -23.7181   18.4769 C   0  0  0  0  0  0  0  0  0  0  0  0
  -26.6070  -15.7659   20.7112 C   0  0  0  0  0  0  0  0  0  0  0  0
  -24.5427  -15.2987   21.8762 C   0  0  0  0  0  0  0  0  0  0  0  0
  -27.3138  -22.4759   19.4635 C   0  0  0  0  0  0  0  0  0  0  0  0
  -25.6176  -24.6797   19.4812 C   0  0  0  0  0  0  0  0  0  0  0  0
  -22.8612  -28.7294   19.0278 C   0  0  0  0  0  0  0  0  0  0  0  0
  -23.1785  -26.5643   25.7047 C   0  0  0  0  0  0  0  0  0  0  0  0
  -23.6899  -25.2939   25.9694 C   0  0  0  0  0  0  0  0  0  0  0  0
  -26.7502  -14.4092   20.4209 C   0  0  0  0  0  0  0  0  0  0  0  0
  -24.6859  -13.9419   21.5859 C   0  0  0  0  0  0  0  0  0  0  0  0
  -21.4802  -28.7264   19.2189 C   0  0  0  0  0  0  0  0  0  0  0  0
  -24.3222  -10.4018   20.8417 C   0  0  0  0  0  0  0  0  0  0  0  0
  -23.1981   -9.7132   20.3858 C   0  0  0  0  0  0  0  0  0  0  0  0
  -21.8563  -24.3014   24.7486 C   0  0  0  0  0  0  0  0  0  0  0  0
  -21.7839  -29.7418   21.3859 C   0  0  0  0  0  0  0  0  0  0  0  0
  -23.0548  -11.2029   18.4891 C   0  0  0  0  0  0  0  0  0  0  0  0
  -25.5032  -16.2107   21.4389 C   0  0  0  0  0  0  0  0  0  0  0  0
  -21.3449  -25.5719   24.4839 C   0  0  0  0  0  0  0  0  0  0  0  0
  -24.6961  -18.5832   20.9621 C   0  0  0  0  0  0  0  0  0  0  0  0
  -27.4331  -23.4303   20.4872 C   0  0  0  0  0  0  0  0  0  0  0  0
  -23.7160  -29.2294   20.0206 C   0  0  0  0  0  0  0  0  0  0  0  0
  -26.5967  -24.5651   20.4847 C   0  0  0  0  0  0  0  0  0  0  0  0
  -23.1753  -29.7523   21.2039 C   0  0  0  0  0  0  0  0  0  0  0  0
  -22.0060  -26.7033   24.9620 C   0  0  0  0  0  0  0  0  0  0  0  0
  -23.0288  -24.1624   25.4914 C   0  0  0  0  0  0  0  0  0  0  0  0
  -25.7897  -13.4972   20.8582 C   0  0  0  0  0  0  0  0  0  0  0  0
  -20.9415  -29.2300   20.3993 C   0  0  0  0  0  0  0  0  0  0  0  0
  -24.8125  -11.4911   20.1214 C   0  0  0  0  0  0  0  0  0  0  0  0
  -22.5644  -10.1137   19.2095 C   0  0  0  0  0  0  0  0  0  0  0  0
  -24.1788  -11.8916   18.9451 C   0  0  0  0  0  0  0  0  0  0  0  0
  -25.3549  -17.6120   21.7396 C   0  0  0  0  0  0  0  0  0  0  0  0
  -24.8351  -19.7476   21.6772 C   0  0  0  0  0  0  0  0  0  0  0  0
  -20.1026  -25.6976   23.6957 C   0  0  0  0  0  0  0  0  0  0  0  0
  -24.0189  -18.4452   19.7059 C   0  0  0  0  0  0  0  0  0  0  0  0
  -26.0360  -27.9986   21.8113 C   0  0  0  0  0  0  0  0  0  0  0  0
  -26.4092  -31.0792   22.7561 C   0  0  0  0  0  0  0  0  0  0  0  0
  -25.0317  -34.1771   23.1464 C   0  0  0  0  0  0  0  0  0  0  0  0
  -24.7006  -22.5589   26.4815 C   0  0  0  0  0  0  0  0  0  0  0  0
  -28.4955  -23.2296   21.5389 C   0  0  0  0  0  0  0  0  0  0  0  0
  -25.2019  -29.2501   19.7879 C   0  0  0  0  0  0  0  0  0  0  0  0
  -24.0486  -30.3192   22.2922 C   0  0  0  0  0  0  0  0  0  0  0  0
  -28.2507  -24.0569   22.7967 C   0  0  0  0  0  0  0  0  0  0  0  0
  -27.7069  -20.8160   25.7062 C   0  0  0  0  0  0  0  0  0  0  0  0
  -27.9663  -25.5032   22.4203 C   0  0  0  0  0  0  0  0  0  0  0  0
  -27.3088  -19.9070   24.5412 C   0  0  0  0  0  0  0  0  0  0  0  0
  -26.5806  -20.9530   26.7292 C   0  0  0  0  0  0  0  0  0  0  0  0
  -24.8873  -20.4578   25.0097 C   0  0  0  0  0  0  0  0  0  0  0  0
  -26.6845  -25.6080   21.5842 C   0  0  1  0  0  0  0  0  0  0  0  0
  -26.0085  -29.3116   21.0814 C   0  0  1  0  0  0  0  0  0  0  0  0
  -25.9664  -20.3411   23.9209 C   0  0  2  0  0  0  0  0  0  0  0  0
  -21.4788  -28.0743   24.6910 C   0  0  0  0  0  0  0  0  0  0  0  0
  -25.5710  -36.4822   23.9789 C   0  0  0  0  0  0  0  0  0  0  0  0
  -18.3492  -30.3707   22.2892 C   0  0  0  0  0  0  0  0  0  0  0  0
  -26.1594  -30.0957   25.6336 C   0  0  0  0  0  0  0  0  0  0  0  0
  -25.7516  -32.4645   26.3342 C   0  0  0  0  0  0  0  0  0  0  0  0
  -27.9204  -31.8349   25.2747 C   0  0  0  0  0  0  0  0  0  0  0  0
  -24.5471  -35.3776   20.4850 C   0  0  0  0  0  0  0  0  0  0  0  0
  -18.2592  -27.8551   22.0815 C   0  0  0  0  0  0  0  0  0  0  0  0
  -18.9811  -26.5744   21.6782 C   0  0  0  0  0  0  0  0  0  0  0  0
  -25.8311  -31.9380   23.8548 C   0  0  1  0  0  0  0  0  0  0  0  0
  -25.5367  -35.5586   22.7712 C   0  0  2  0  0  0  0  0  0  0  0  0
  -19.1270  -29.1107   21.9320 C   0  0  1  0  0  0  0  0  0  1  0  0
  -26.3990  -31.5709   25.2549 C   0  0  0  0  0  0  0  0  0  0  0  0
  -25.8741  -18.1157   22.8625 N   0  0  0  0  0  0  0  0  0  0  0  0
  -25.5416  -19.4161   22.7957 N   0  0  0  0  0  0  0  0  0  0  0  0
  -25.4955  -30.3114   22.0203 N   0  0  0  0  0  0  0  0  0  0  0  0
  -25.3415  -21.3712   26.0700 N   0  0  0  0  0  0  0  0  0  0  0  0
  -24.4209  -21.0126   21.4519 N   0  0  0  0  0  0  0  0  0  0  0  0
  -18.9969  -25.1239   24.1702 N   0  0  0  0  0  0  0  0  0  0  0  0
  -23.9697  -17.1780   19.1091 N   0  0  0  0  0  0  0  0  0  0  0  0
  -23.5487  -22.8721   25.7605 N   0  0  0  0  0  0  0  0  0  0  0  0
  -26.5629  -26.9557   21.0735 N   0  0  0  0  0  0  0  0  0  0  0  0
  -26.0674  -33.3220   23.4583 N   0  0  0  0  0  0  0  0  0  0  0  0
  -20.1451  -26.3784   22.5431 N   0  3  0  0  0  0  0  0  0  0  0  0
  -24.6543  -36.1696   21.7372 N   0  3  0  0  0  0  0  0  0  0  0  0
  -23.4877  -19.4199   19.1218 O   0  0  0  0  0  0  0  0  0  0  0  0
  -25.6120  -27.9365   22.9594 O   0  0  0  0  0  0  0  0  0  0  0  0
  -27.6259  -31.0947   22.5533 O   0  0  0  0  0  0  0  0  0  0  0  0
  -23.8376  -33.8867   23.1648 O   0  0  0  0  0  0  0  0  0  0  0  0
  -25.1560  -23.2618   27.3873 O   0  0  0  0  0  0  0  0  0  0  0  0
  -25.9291  -12.1732   20.5749 O   0  0  0  0  0  0  0  0  0  0  0  0
  -19.5939  -29.2277   20.5887 O   0  0  0  0  0  0  0  0  0  1  0  0
  -21.4859   -9.4514   18.7710 F   0  0  0  0  0  0  0  0  0  0  0  0
  -24.6460  -12.9365   18.2481 F   0  0  0  0  0  0  0  0  0  0  0  0
  1  2  1  0  0  0  0
  1  5  2  0  0  0  0
  2  6  2  0  0  0  0
  3 10  2  0  0  0  0
  3 18  1  0  0  0  0
  4 11  1  0  0  0  0
  4 18  2  0  0  0  0
  5 21  1  0  0  0  0
  6 23  1  0  0  0  0
  7 12  2  0  0  0  0
  7 22  1  0  0  0  0
  8  9  2  0  0  0  0
  8 25  1  0  0  0  0
  9 26  1  0  0  0  0
 10 27  1  0  0  0  0
 11 27  2  0  0  0  0
 12 28  1  0  0  0  0
 13 14  2  0  0  0  0
 13 29  1  0  0  0  0
 14 30  1  0  0  0  0
 15 19  1  0  0  0  0
 15 26  2  0  0  0  0
 16 24  1  0  0  0  0
 16 28  2  0  0  0  0
 17 30  2  0  0  0  0
 17 31  1  0  0  0  0
 18 32  1  0  0  0  0
 19 25  2  0  0  0  0
 19 34  1  0  0  0  0
 20 32  1  0  0  0  0
 20 33  2  0  0  0  0
 20 35  1  0  0  0  0
 21 23  2  0  0  0  0
 21 40  1  0  0  0  0
 22 24  2  0  0  0  0
 22 41  1  0  0  0  0
 23 49  1  0  0  0  0
 24 42  1  0  0  0  0
 25 52  1  0  0  0  0
 26 72  1  0  0  0  0
 27 82  1  0  0  0  0
 28 83  1  0  0  0  0
 29 31  2  0  0  0  0
 29 82  1  0  0  0  0
 30 84  1  0  0  0  0
 31 85  1  0  0  0  0
 32 65  2  0  0  0  0
 33 66  1  0  0  0  0
 33 69  1  0  0  0  0
 34 70  1  0  0  0  0
 34 75  2  0  0  0  0
 35 71  1  0  0  0  0
 35 77  2  0  0  0  0
 36 50  1  0  0  0  0
 36 73  1  0  0  0  0
 36 78  2  0  0  0  0
 37 61  1  0  0  0  0
 37 67  1  0  0  0  0
 37 79  2  0  0  0  0
 38 62  1  0  0  0  0
 38 74  1  0  0  0  0
 38 80  2  0  0  0  0
 39 68  1  0  0  0  0
 39 72  1  0  0  0  0
 39 81  2  0  0  0  0
 40 43  1  0  0  0  0
 41 50  1  0  0  0  0
 42 67  1  0  0  0  0
 43 45  1  0  0  0  0
 44 46  1  0  0  0  0
 44 47  1  0  0  0  0
 45 49  1  0  0  0  0
 46 51  1  0  0  0  0
 47 68  1  0  0  0  0
 48 51  1  0  0  0  0
 48 68  1  0  0  0  0
 49 73  1  0  0  0  0
 50 67  1  0  0  0  0
 51 66  1  0  0  0  0
 53 62  1  0  0  0  0
 54 63  1  0  0  0  0
 55 64  1  0  0  0  0
 56 64  1  0  0  0  0
 57 64  1  0  0  0  0
 58 76  1  0  0  0  0
 59 60  1  0  0  0  0
 59 63  1  0  0  0  0
 60 75  1  0  0  0  0
 61 64  1  0  0  0  0
 61 74  1  0  0  0  0
 62 76  1  0  0  0  0
 63 83  1  0  0  0  0
 65 66  1  0  0  0  0
M  CHG  2  75   1  76   1
M  ISO  4  39 100  63 101  72 100  83 101
M  END
> <Batch ID>
0055

> <Smiles>
CNC(C)C(=O)NC(C(=O)N1Cc2cc([101O:1][101CH:1](C)CCNC(=N)c3cc([100NH:0][100C:0](=O)N4CCCC(n5nc(-c6ccc(Oc7ccc(F)cc7F)cc6)c(C(N)=O)c5N)C4)ccc3C)ccc2CC1C(=O)NC1CCCc2ccccc21)C(C)(C)C

> <Shape>
0.224

> <Color>
0.054

> <Negative vol penalty>
0.000

$$$$

  -OEChem-04042322493D

 90 99  0     1  0  0  0  0  0999 V2000
  -17.1695  -13.5927   22.1415 C   0  0  0  0  0  0  0  0  0  0  0  0
  -18.1660  -14.5487   21.9728 C   0  0  0  0  0  0  0  0  0  0  0  0
  -23.6686  -28.3704   23.9083 C   0  0  0  0  0  0  0  0  0  0  0  0
  -22.8072  -29.7947   22.1572 C   0  0  0  0  0  0  0  0  0  0  0  0
  -17.4847  -12.3467   22.6820 C   0  0  0  0  0  0  0  0  0  0  0  0
  -19.4782  -14.2596   22.3456 C   0  0  0  0  0  0  0  0  0  0  0  0
  -24.5975  -16.1990   19.6001 C   0  0  0  0  0  0  0  0  0  0  0  0
  -22.4151  -27.7729   24.0391 C   0  0  0  0  0  0  0  0  0  0  0  0
  -21.5536  -29.1972   22.2879 C   0  0  0  0  0  0  0  0  0  0  0  0
  -25.4767  -17.2429   19.8846 C   0  0  0  0  0  0  0  0  0  0  0  0
  -18.9019  -29.4014   24.3754 C   0  0  0  0  0  0  0  0  0  0  0  0
  -17.7853  -30.2369   24.4010 C   0  0  0  0  0  0  0  0  0  0  0  0
  -26.9103  -15.7052   21.0675 C   0  0  0  0  0  0  0  0  0  0  0  0
  -30.7819  -25.5516   20.1076 C   0  0  0  0  0  0  0  0  0  0  0  0
  -31.2537  -26.2710   17.8499 C   0  0  0  0  0  0  0  0  0  0  0  0
  -16.9155  -29.1345   22.4349 C   0  0  0  0  0  0  0  0  0  0  0  0
  -23.8647  -29.3814   22.9674 C   0  0  0  0  0  0  0  0  0  0  0  0
  -25.8749  -30.6988   23.8225 C   0  0  0  0  0  0  0  0  0  0  0  0
  -18.8032  -12.0388   23.0526 C   0  0  0  0  0  0  0  0  0  0  0  0
  -24.8631  -14.9002   20.0573 C   0  0  0  0  0  0  0  0  0  0  0  0
  -19.8111  -13.0088   22.8928 C   0  0  0  0  0  0  0  0  0  0  0  0
  -26.0342  -14.6460   20.7853 C   0  0  0  0  0  0  0  0  0  0  0  0
  -31.3208  -24.2975   19.8206 C   0  0  0  0  0  0  0  0  0  0  0  0
  -31.7927  -25.0169   17.5630 C   0  0  0  0  0  0  0  0  0  0  0  0
  -31.8262  -24.0301   18.5483 C   0  0  0  0  0  0  0  0  0  0  0  0
  -30.7483  -26.5383   19.1222 C   0  0  0  0  0  0  0  0  0  0  0  0
  -21.3575  -28.1863   23.2289 C   0  0  0  0  0  0  0  0  0  0  0  0
  -26.6318  -16.9967   20.6209 C   0  0  0  0  0  0  0  0  0  0  0  0
  -19.0254  -28.4325   23.3796 C   0  0  0  0  0  0  0  0  0  0  0  0
  -16.7920  -30.1034   23.4308 C   0  0  0  0  0  0  0  0  0  0  0  0
  -18.0322  -28.2990   22.4094 C   0  0  0  0  0  0  0  0  0  0  0  0
  -25.1593  -29.9994   22.8323 C   0  0  0  0  0  0  0  0  0  0  0  0
  -27.0364  -31.0843   23.1989 C   0  0  0  0  0  0  0  0  0  0  0  0
  -30.6935  -20.8982   20.5781 C   0  0  0  0  0  0  0  0  0  0  0  0
  -25.5214  -30.9753   25.1842 C   0  0  0  0  0  0  0  0  0  0  0  0
  -23.3962  -12.8657   22.0099 C   0  0  0  0  0  0  0  0  0  0  0  0
  -25.7294  -10.8407   21.0208 C   0  0  0  0  0  0  0  0  0  0  0  0
  -28.8614  -10.4410   19.7255 C   0  0  0  0  0  0  0  0  0  0  0  0
  -30.0923  -28.9025   18.5506 C   0  0  0  0  0  0  0  0  0  0  0  0
  -19.0870  -10.6953   23.6765 C   0  0  0  0  0  0  0  0  0  0  0  0
  -23.9181  -13.7799   19.7191 C   0  0  0  0  0  0  0  0  0  0  0  0
  -26.3755  -13.2656   21.2816 C   0  0  0  0  0  0  0  0  0  0  0  0
  -29.5849  -19.9030   20.2913 C   0  0  0  0  0  0  0  0  0  0  0  0
  -20.5702  -10.3349   23.6982 C   0  0  0  0  0  0  0  0  0  0  0  0
  -28.7761  -32.1946   18.8775 C   0  0  0  0  0  0  0  0  0  0  0  0
  -21.3992  -11.5154   24.1941 C   0  0  0  0  0  0  0  0  0  0  0  0
  -27.7688  -32.0703   20.0229 C   0  0  0  0  0  0  0  0  0  0  0  0
  -27.8962  -21.7074   20.3407 C   0  0  0  0  0  0  0  0  0  0  0  0
  -28.7911  -30.9460   17.9974 C   0  0  0  0  0  0  0  0  0  0  0  0
  -28.9389  -22.6838   20.8553 C   0  0  0  0  0  0  0  0  0  0  0  0
  -27.9791  -29.5569   19.8629 C   0  0  0  0  0  0  0  0  0  0  0  0
  -21.2508  -12.7240   23.2621 C   0  0  1  0  0  0  0  0  0  0  0  0
  -24.0293  -12.5955   20.6743 C   0  0  1  0  0  0  0  0  0  0  0  0
  -28.2213  -20.3050   20.8379 C   0  0  1  0  0  0  0  0  0  0  0  0
  -27.9744  -30.7641   20.8149 C   0  0  2  0  0  0  0  0  0  0  0  0
  -32.4047  -22.6854   18.2409 C   0  0  0  0  0  0  0  0  0  0  0  0
  -30.5082   -8.6664   19.0650 C   0  0  0  0  0  0  0  0  0  0  0  0
  -26.3789  -10.3522   23.9617 C   0  0  0  0  0  0  0  0  0  0  0  0
  -28.5657   -9.3674   23.2431 C   0  0  0  0  0  0  0  0  0  0  0  0
  -26.4257   -8.3031   22.5287 C   0  0  0  0  0  0  0  0  0  0  0  0
  -28.8799  -11.3439   16.9071 C   0  0  0  0  0  0  0  0  0  0  0  0
  -31.3446  -23.2526   20.8985 C   0  0  0  0  0  0  0  0  0  0  0  0
  -27.1475  -19.3086   20.4085 C   0  0  0  0  0  0  0  0  0  1  0  0
  -32.3273  -24.7563   16.1928 C   0  0  0  0  0  0  0  0  0  0  0  0
  -27.1224  -10.5021   21.4938 C   0  0  1  0  0  0  0  0  0  0  0  0
  -29.3802   -9.5715   18.5945 C   0  0  2  0  0  0  0  0  0  0  0  0
  -27.1161   -9.6577   22.7993 C   0  0  0  0  0  0  0  0  0  0  0  0
  -25.8115  -29.9424   21.6681 N   0  0  0  0  0  0  0  0  0  0  0  0
  -26.9491  -30.6110   21.9228 N   0  0  0  0  0  0  0  0  0  0  0  0
  -30.3214  -22.2357   20.6947 N   0  0  0  0  0  0  0  0  0  0  0  0
  -25.4170  -12.2046   20.9308 N   0  0  0  0  0  0  0  0  0  0  0  0
  -28.9944  -29.7483   18.8154 N   0  0  0  0  0  0  0  0  0  0  0  0
  -28.1136  -31.7786   23.6232 N   0  0  0  0  0  0  0  0  0  0  0  0
  -24.2909  -30.5058   25.6635 N   0  0  0  0  0  0  0  0  0  0  0  0
  -30.2018  -27.8127   19.4138 N   0  0  0  0  0  0  0  0  0  0  0  0
  -22.0534  -12.5454   22.0711 N   0  0  0  0  0  0  0  0  0  0  0  0
  -27.7902   -9.8573   20.3683 N   0  0  0  0  0  0  0  0  0  0  0  0
  -29.8919  -10.4203   17.4815 N   0  3  0  0  0  0  0  0  0  0  0  0
  -31.8607  -20.4988   20.6146 O   0  0  0  0  0  0  0  0  0  0  0  0
  -26.2671  -31.6337   25.9483 O   0  0  0  0  0  0  0  0  0  0  0  0
  -24.0761  -13.3289   22.9182 O   0  0  0  0  0  0  0  0  0  0  0  0
  -24.9495   -9.9288   20.7346 O   0  0  0  0  0  0  0  0  0  0  0  0
  -29.3590  -11.5275   20.0126 O   0  0  0  0  0  0  0  0  0  0  0  0
  -30.8930  -29.1431   17.6435 O   0  0  0  0  0  0  0  0  0  0  0  0
  -20.1342  -27.6033   23.3560 O   0  0  0  0  0  0  0  0  0  0  0  0
  -27.4914  -18.0140   20.9005 O   0  0  0  0  0  0  0  0  0  1  0  0
  -15.7190  -30.9048   23.4564 F   0  0  0  0  0  0  0  0  0  0  0  0
  -18.1447  -27.3693   21.4508 F   0  0  0  0  0  0  0  0  0  0  0  0
  -32.1698  -25.8471   15.3991 F   0  0  0  0  0  0  0  0  0  0  0  0
  -31.6480  -23.7426   15.5965 F   0  0  0  0  0  0  0  0  0  0  0  0
  1  2  1  0  0  0  0
  1  5  2  0  0  0  0
  2  6  2  0  0  0  0
  3  8  2  0  0  0  0
  3 17  1  0  0  0  0
  4  9  1  0  0  0  0
  4 17  2  0  0  0  0
  5 19  1  0  0  0  0
  6 21  1  0  0  0  0
  7 10  2  0  0  0  0
  7 20  1  0  0  0  0
  8 27  1  0  0  0  0
  9 27  2  0  0  0  0
 10 28  1  0  0  0  0
 11 12  2  0  0  0  0
 11 29  1  0  0  0  0
 12 30  1  0  0  0  0
 13 22  1  0  0  0  0
 13 28  2  0  0  0  0
 14 23  1  0  0  0  0
 14 26  2  0  0  0  0
 15 24  2  0  0  0  0
 15 26  1  0  0  0  0
 16 30  2  0  0  0  0
 16 31  1  0  0  0  0
 17 32  1  0  0  0  0
 18 32  1  0  0  0  0
 18 33  2  0  0  0  0
 18 35  1  0  0  0  0
 19 21  2  0  0  0  0
 19 40  1  0  0  0  0
 20 22  2  0  0  0  0
 20 41  1  0  0  0  0
 21 52  1  0  0  0  0
 22 42  1  0  0  0  0
 23 25  2  0  0  0  0
 23 62  1  0  0  0  0
 24 25  1  0  0  0  0
 24 64  1  0  0  0  0
 25 56  1  0  0  0  0
 26 75  1  0  0  0  0
 27 85  1  0  0  0  0
 28 86  1  0  0  0  0
 29 31  2  0  0  0  0
 29 85  1  0  0  0  0
 30 87  1  0  0  0  0
 31 88  1  0  0  0  0
 32 68  2  0  0  0  0
 33 69  1  0  0  0  0
 33 73  1  0  0  0  0
 34 43  1  0  0  0  0
 34 70  1  0  0  0  0
 34 79  2  0  0  0  0
 35 74  1  0  0  0  0
 35 80  2  0  0  0  0
 36 53  1  0  0  0  0
 36 76  1  0  0  0  0
 36 81  2  0  0  0  0
 37 65  1  0  0  0  0
 37 71  1  0  0  0  0
 37 82  2  0  0  0  0
 38 66  1  0  0  0  0
 38 77  1  0  0  0  0
 38 83  2  0  0  0  0
 39 72  1  0  0  0  0
 39 75  1  0  0  0  0
 39 84  2  0  0  0  0
 40 44  1  0  0  0  0
 41 53  1  0  0  0  0
 42 71  1  0  0  0  0
 43 54  1  0  0  0  0
 44 46  1  0  0  0  0
 45 47  1  0  0  0  0
 45 49  1  0  0  0  0
 46 52  1  0  0  0  0
 47 55  1  0  0  0  0
 48 50  1  0  0  0  0
 48 54  1  0  0  0  0
 49 72  1  0  0  0  0
 50 70  1  0  0  0  0
 51 55  1  0  0  0  0
 51 72  1  0  0  0  0
 52 76  1  0  0  0  0
 53 71  1  0  0  0  0
 54 63  1  0  0  0  0
 55 69  1  0  0  0  0
 57 66  1  0  0  0  0
 58 67  1  0  0  0  0
 59 67  1  0  0  0  0
 60 67  1  0  0  0  0
 61 78  1  0  0  0  0
 62 70  1  0  0  0  0
 63 86  1  0  0  0  0
 64 89  1  0  0  0  0
 64 90  1  0  0  0  0
 65 67  1  0  0  0  0
 65 77  1  0  0  0  0
 66 78  1  0  0  0  0
 68 69  1  0  0  0  0
M  CHG  1  78   1
M  ISO  4  39 100  63 101  75 100  86 101
M  END
> <Batch ID>
0055

> <Smiles>
CNC(C)C(=O)NC(C(=O)N1Cc2cc([101O:1][101CH2:1]C3CCN(Cc4cc([100NH:0][100C:0](=O)N5CCCC(n6nc(-c7ccc(Oc8ccc(F)cc8F)cc7)c(C(N)=O)c6N)C5)cc(C(F)F)c4C)C(=O)C3)ccc2CC1C(=O)NC1CCCc2ccccc21)C(C)(C)C

> <Shape>
0.282

> <Color>
0.044

> <Negative vol penalty>
0.000

$$$$

  -OEChem-04042322493D

 88 97  0     1  0  0  0  0  0999 V2000
  -29.0493  -37.2179   23.3613 C   0  0  0  0  0  0  0  0  0  0  0  0
  -29.2572  -36.2080   22.4273 C   0  0  0  0  0  0  0  0  0  0  0  0
  -24.2425   -8.8981   22.8733 C   0  0  0  0  0  0  0  0  0  0  0  0
  -24.0212   -9.4803   20.5390 C   0  0  0  0  0  0  0  0  0  0  0  0
  -28.3366  -36.9498   24.5293 C   0  0  0  0  0  0  0  0  0  0  0  0
  -28.7533  -34.9291   22.6612 C   0  0  0  0  0  0  0  0  0  0  0  0
  -26.5982  -31.0007   18.4863 C   0  0  0  0  0  0  0  0  0  0  0  0
  -23.1101   -8.0892   22.7789 C   0  0  0  0  0  0  0  0  0  0  0  0
  -22.8888   -8.6713   20.4445 C   0  0  0  0  0  0  0  0  0  0  0  0
  -27.1746  -29.9069   17.8421 C   0  0  0  0  0  0  0  0  0  0  0  0
  -22.3397   -5.0077   21.6197 C   0  0  0  0  0  0  0  0  0  0  0  0
  -22.3978   -3.7409   22.2006 C   0  0  0  0  0  0  0  0  0  0  0  0
  -26.1856  -28.4319   19.4748 C   0  0  0  0  0  0  0  0  0  0  0  0
  -20.5468   -4.3172   23.6424 C   0  0  0  0  0  0  0  0  0  0  0  0
  -24.6980   -9.5937   21.7533 C   0  0  0  0  0  0  0  0  0  0  0  0
  -27.2048  -10.0503   21.6287 C   0  0  0  0  0  0  0  0  0  0  0  0
  -27.8155  -35.6693   24.7731 C   0  0  0  0  0  0  0  0  0  0  0  0
  -25.8188  -30.8191   19.6379 C   0  0  0  0  0  0  0  0  0  0  0  0
  -28.0341  -34.6432   23.8342 C   0  0  0  0  0  0  0  0  0  0  0  0
  -25.5983  -29.5249   20.1303 C   0  0  0  0  0  0  0  0  0  0  0  0
  -22.4333   -7.9758   21.5645 C   0  0  0  0  0  0  0  0  0  0  0  0
  -26.9707  -28.6225   18.3380 C   0  0  0  0  0  0  0  0  0  0  0  0
  -21.3852   -5.9293   22.0502 C   0  0  0  0  0  0  0  0  0  0  0  0
  -21.5013   -3.3956   23.2119 C   0  0  0  0  0  0  0  0  0  0  0  0
  -20.4888   -5.5840   23.0615 C   0  0  0  0  0  0  0  0  0  0  0  0
  -25.8674  -10.4299   21.8503 C   0  0  0  0  0  0  0  0  0  0  0  0
  -27.9279  -11.1977   21.8455 C   0  0  0  0  0  0  0  0  0  0  0  0
  -25.5072  -22.4763   22.0316 C   0  0  0  0  0  0  0  0  0  0  0  0
  -25.9974  -23.5538   21.2155 C   0  0  0  0  0  0  0  0  0  0  0  0
  -25.8023  -21.1743   21.9605 C   0  0  0  0  0  0  0  0  0  0  0  0
  -28.2330  -20.0298   19.3031 C   0  0  0  0  0  0  0  0  0  0  0  0
  -26.8588  -23.5320   20.1908 C   0  0  0  0  0  0  0  0  0  0  0  0
  -27.9030  -18.9012   19.9426 C   0  0  0  0  0  0  0  0  0  0  0  0
  -27.5050  -21.1270   19.9365 C   0  0  0  0  0  0  0  0  0  0  0  0
  -26.6997  -20.5402   21.0269 C   0  0  0  0  0  0  0  0  0  0  0  0
  -27.5787  -22.4242   19.5678 C   0  0  0  0  0  0  0  0  0  0  0  0
  -26.9653  -19.2151   20.9964 C   0  0  0  0  0  0  0  0  0  0  0  0
  -29.0262  -25.6969   17.9358 C   0  0  0  0  0  0  0  0  0  0  0  0
  -28.4025  -26.7749   18.4226 C   0  0  0  0  0  0  0  0  0  1  0  0
  -27.7451   -8.7745   21.2598 C   0  0  0  0  0  0  0  0  0  0  0  0
  -29.9339  -24.9123   18.8210 C   0  0  0  0  0  0  0  0  0  0  0  0
  -26.0358  -31.7634   22.6652 C   0  0  0  0  0  0  0  0  0  0  0  0
  -23.1024  -30.3977   22.8938 C   0  0  0  0  0  0  0  0  0  0  0  0
  -20.8581  -28.1330   21.6766 C   0  0  0  0  0  0  0  0  0  0  0  0
  -26.2926  -16.9133   21.3907 C   0  0  0  0  0  0  0  0  0  0  0  0
  -27.0923  -35.4152   26.0720 C   0  0  0  0  0  0  0  0  0  0  0  0
  -25.1821  -32.0070   20.3056 C   0  0  0  0  0  0  0  0  0  0  0  0
  -24.7531  -29.2744   21.3515 C   0  0  0  0  0  0  0  0  0  0  0  0
  -26.2696  -34.1293   26.0696 C   0  0  0  0  0  0  0  0  0  0  0  0
  -27.8508  -15.2740   24.3136 C   0  0  0  0  0  0  0  0  0  0  0  0
  -27.0851  -32.9748   25.4960 C   0  0  0  0  0  0  0  0  0  0  0  0
  -27.5822  -13.8046   24.0031 C   0  0  0  0  0  0  0  0  0  0  0  0
  -26.7255  -16.1805   23.8164 C   0  0  0  0  0  0  0  0  0  0  0  0
  -26.1477  -14.5328   22.0574 C   0  0  0  0  0  0  0  0  0  0  0  0
  -27.4819  -33.2494   24.0405 C   0  0  1  0  0  0  0  0  0  0  0  0
  -24.8304  -31.7528   21.7682 C   0  0  1  0  0  0  0  0  0  0  0  0
  -27.2921  -13.6115   22.5071 C   0  0  2  0  0  0  0  0  0  0  0  0
  -18.5597  -27.2170   22.0956 C   0  0  0  0  0  0  0  0  0  0  0  0
  -24.1820  -28.7666   25.2356 C   0  0  0  0  0  0  0  0  0  0  0  0
  -22.2116  -27.2415   24.9913 C   0  0  0  0  0  0  0  0  0  0  0  0
  -21.8629  -29.6457   25.5577 C   0  0  0  0  0  0  0  0  0  0  0  0
  -30.4185  -22.7491   19.8991 C   0  0  0  0  0  0  0  0  0  0  0  0
  -19.8891  -29.0372   19.0304 C   0  0  0  0  0  0  0  0  0  0  0  0
  -28.4282  -22.9050   18.4465 C   0  0  0  0  0  0  0  0  0  0  0  0
  -22.5888  -29.0159   23.2192 C   0  0  1  0  0  0  0  0  0  0  0  0
  -19.3812  -28.2555   21.3477 C   0  0  2  0  0  0  0  0  0  0  0  0
  -22.7289  -28.6720   24.7290 C   0  0  0  0  0  0  0  0  0  0  0  0
  -25.7453  -11.7178   22.1826 N   0  0  0  0  0  0  0  0  0  0  0  0
  -27.0153  -12.1574   22.1714 N   0  0  0  0  0  0  0  0  0  0  0  0
  -24.1572  -30.4687   21.9728 N   0  0  0  0  0  0  0  0  0  0  0  0
  -26.4189  -15.9354   22.3978 N   0  0  0  0  0  0  0  0  0  0  0  0
  -29.2490  -11.4692   21.7872 N   0  0  0  0  0  0  0  0  0  0  0  0
  -26.8613   -7.7022   21.0769 N   0  0  0  0  0  0  0  0  0  0  0  0
  -26.4700  -18.2307   21.8047 N   0  0  0  0  0  0  0  0  0  0  0  0
  -26.3598  -33.0132   23.1575 N   0  0  0  0  0  0  0  0  0  0  0  0
  -21.2197  -28.9608   22.7184 N   0  0  0  0  0  0  0  0  0  0  0  0
  -29.5948  -23.5713   19.0218 N   0  0  0  0  0  0  0  0  0  0  0  0
  -19.1587  -28.0671   19.8862 N   0  3  0  0  0  0  0  0  0  0  0  0
  -28.9767   -8.5868   21.1131 O   0  0  0  0  0  0  0  0  0  0  0  0
  -30.9029  -25.4638   19.3452 O   0  0  0  0  0  0  0  0  0  0  0  0
  -26.6271  -30.7149   22.8950 O   0  0  0  0  0  0  0  0  0  0  0  0
  -22.5819  -31.3784   23.4313 O   0  0  0  0  0  0  0  0  0  0  0  0
  -21.6146  -27.3758   21.0725 O   0  0  0  0  0  0  0  0  0  0  0  0
  -26.0321  -16.6250   20.2170 O   0  0  0  0  0  0  0  0  0  0  0  0
  -21.3284   -7.1863   21.4720 O   0  0  0  0  0  0  0  0  0  0  0  0
  -27.5327  -27.5531   17.7115 O   0  0  0  0  0  0  0  0  0  1  0  0
  -21.5562   -2.1785   23.7685 F   0  0  0  0  0  0  0  0  0  0  0  0
  -19.5688   -6.4648   23.4785 F   0  0  0  0  0  0  0  0  0  0  0  0
  1  2  1  0  0  0  0
  1  5  2  0  0  0  0
  2  6  2  0  0  0  0
  3  8  2  0  0  0  0
  3 15  1  0  0  0  0
  4  9  1  0  0  0  0
  4 15  2  0  0  0  0
  5 17  1  0  0  0  0
  6 19  1  0  0  0  0
  7 10  2  0  0  0  0
  7 18  1  0  0  0  0
  8 21  1  0  0  0  0
  9 21  2  0  0  0  0
 10 22  1  0  0  0  0
 11 12  2  0  0  0  0
 11 23  1  0  0  0  0
 12 24  1  0  0  0  0
 13 20  1  0  0  0  0
 13 22  2  0  0  0  0
 14 24  2  0  0  0  0
 14 25  1  0  0  0  0
 15 26  1  0  0  0  0
 16 26  1  0  0  0  0
 16 27  2  0  0  0  0
 16 40  1  0  0  0  0
 17 19  2  0  0  0  0
 17 46  1  0  0  0  0
 18 20  2  0  0  0  0
 18 47  1  0  0  0  0
 19 55  1  0  0  0  0
 20 48  1  0  0  0  0
 21 85  1  0  0  0  0
 22 86  1  0  0  0  0
 23 25  2  0  0  0  0
 23 85  1  0  0  0  0
 24 87  1  0  0  0  0
 25 88  1  0  0  0  0
 26 68  2  0  0  0  0
 27 69  1  0  0  0  0
 27 72  1  0  0  0  0
 28 29  1  0  0  0  0
 28 30  2  0  0  0  0
 29 32  2  0  0  0  0
 30 35  1  0  0  0  0
 31 33  2  0  0  0  0
 31 34  1  0  0  0  0
 32 36  1  0  0  0  0
 33 37  1  0  0  0  0
 34 35  1  0  0  0  0
 34 36  2  0  0  0  0
 35 37  2  0  0  0  0
 36 64  1  0  0  0  0
 37 74  1  0  0  0  0
 38 39  2  0  0  0  0
 38 41  1  0  0  0  0
 39 86  1  0  0  0  0
 40 73  1  0  0  0  0
 40 79  2  0  0  0  0
 41 77  1  0  0  0  0
 41 80  2  0  0  0  0
 42 56  1  0  0  0  0
 42 75  1  0  0  0  0
 42 81  2  0  0  0  0
 43 65  1  0  0  0  0
 43 70  1  0  0  0  0
 43 82  2  0  0  0  0
 44 66  1  0  0  0  0
 44 76  1  0  0  0  0
 44 83  2  0  0  0  0
 45 71  1  0  0  0  0
 45 74  1  0  0  0  0
 45 84  2  0  0  0  0
 46 49  1  0  0  0  0
 47 56  1  0  0  0  0
 48 70  1  0  0  0  0
 49 51  1  0  0  0  0
 50 52  1  0  0  0  0
 50 53  1  0  0  0  0
 51 55  1  0  0  0  0
 52 57  1  0  0  0  0
 53 71  1  0  0  0  0
 54 57  1  0  0  0  0
 54 71  1  0  0  0  0
 55 75  1  0  0  0  0
 56 70  1  0  0  0  0
 57 69  1  0  0  0  0
 58 66  1  0  0  0  0
 59 67  1  0  0  0  0
 60 67  1  0  0  0  0
 61 67  1  0  0  0  0
 62 77  1  0  0  0  0
 63 78  1  0  0  0  0
 64 77  1  0  0  0  0
 65 67  1  0  0  0  0
 65 76  1  0  0  0  0
 66 78  1  0  0  0  0
 68 69  1  0  0  0  0
M  CHG  1  78   1
M  ISO  4  39 101  45 100  74 100  86 101
M  END
> <Batch ID>
0055

> <Smiles>
CNC(C)C(=O)NC(C(=O)N1Cc2cc([101O:1][101CH:1]=CC(=O)N(C)Cc3ccccc4c([100NH:0][100C:0](=O)N5CCCC(n6nc(-c7ccc(Oc8ccc(F)cc8F)cc7)c(C(N)=O)c6N)C5)ccc3-4)ccc2CC1C(=O)NC1CCCc2ccccc21)C(C)(C)C

> <Shape>
0.277

> <Color>
0.087

> <Negative vol penalty>
0.000

$$$$

  -OEChem-04042322493D

 94103  0     1  0  0  0  0  0999 V2000
  -15.6417  -13.2447   20.1058 C   0  0  0  0  0  0  0  0  0  0  0  0
  -16.8116  -12.4924   20.1367 C   0  0  0  0  0  0  0  0  0  0  0  0
  -24.7950  -28.0179   22.2358 C   0  0  0  0  0  0  0  0  0  0  0  0
  -24.9050  -28.5454   19.8807 C   0  0  0  0  0  0  0  0  0  0  0  0
  -28.5541  -18.0276   21.7931 C   0  0  0  0  0  0  0  0  0  0  0  0
  -15.7101  -14.6369   20.0737 C   0  0  0  0  0  0  0  0  0  0  0  0
  -18.0507  -13.1321   20.1344 C   0  0  0  0  0  0  0  0  0  0  0  0
  -24.7121  -12.4074   22.6676 C   0  0  0  0  0  0  0  0  0  0  0  0
  -23.4381  -28.3410   22.2448 C   0  0  0  0  0  0  0  0  0  0  0  0
  -23.5481  -28.8685   19.8896 C   0  0  0  0  0  0  0  0  0  0  0  0
  -26.0364  -12.4107   22.2318 C   0  0  0  0  0  0  0  0  0  0  0  0
  -20.5259  -26.8903   21.3242 C   0  0  0  0  0  0  0  0  0  0  0  0
  -28.3497  -19.1241   22.6306 C   0  0  0  0  0  0  0  0  0  0  0  0
  -19.6569  -26.0207   21.9831 C   0  0  0  0  0  0  0  0  0  0  0  0
  -29.4178  -19.4967   20.0805 C   0  0  0  0  0  0  0  0  0  0  0  0
  -26.0316  -14.8229   22.2550 C   0  0  0  0  0  0  0  0  0  0  0  0
  -18.9916  -27.8089   23.4653 C   0  0  0  0  0  0  0  0  0  0  0  0
  -25.5285  -28.1201   21.0537 C   0  0  0  0  0  0  0  0  0  0  0  0
  -29.0882  -18.2139   20.5180 C   0  0  0  0  0  0  0  0  0  0  0  0
  -27.9525  -28.3895   21.8016 C   0  0  0  0  0  0  0  0  0  0  0  0
  -16.9505  -15.2941   20.0808 C   0  0  0  0  0  0  0  0  0  0  0  0
  -24.0330  -13.6139   22.8902 C   0  0  0  0  0  0  0  0  0  0  0  0
  -18.1357  -14.5343   20.1010 C   0  0  0  0  0  0  0  0  0  0  0  0
  -24.6995  -14.8321   22.6960 C   0  0  0  0  0  0  0  0  0  0  0  0
  -29.2134  -20.5932   20.9181 C   0  0  0  0  0  0  0  0  0  0  0  0
  -22.8146  -28.7662   21.0717 C   0  0  0  0  0  0  0  0  0  0  0  0
  -26.6955  -13.6186   22.0226 C   0  0  0  0  0  0  0  0  0  0  0  0
  -20.6279  -28.2191   21.7358 C   0  0  0  0  0  0  0  0  0  0  0  0
  -18.8897  -26.4800   23.0537 C   0  0  0  0  0  0  0  0  0  0  0  0
  -28.6793  -20.4069   22.1931 C   0  0  0  0  0  0  0  0  0  0  0  0
  -19.8607  -28.6785   22.8064 C   0  0  0  0  0  0  0  0  0  0  0  0
  -26.9303  -27.7871   21.0439 C   0  0  0  0  0  0  0  0  0  0  0  0
  -29.0934  -27.7195   21.4329 C   0  0  0  0  0  0  0  0  0  0  0  0
  -29.4675  -13.0550   18.0695 C   0  0  0  0  0  0  0  0  0  0  0  0
  -29.3048  -17.0527   19.6318 C   0  0  0  0  0  0  0  0  0  0  0  0
  -27.8774  -29.4589   22.7536 C   0  0  0  0  0  0  0  0  0  0  0  0
  -21.4608  -15.0035   21.6426 C   0  0  0  0  0  0  0  0  0  0  0  0
  -31.0551  -14.5452   19.3386 C   0  0  0  0  0  0  0  0  0  0  0  0
  -21.9708  -17.1744   23.9984 C   0  0  0  0  0  0  0  0  0  0  0  0
  -24.1653  -18.6390   26.1631 C   0  0  0  0  0  0  0  0  0  0  0  0
  -30.0874  -22.2523   19.2358 C   0  0  0  0  0  0  0  0  0  0  0  0
  -16.9748  -16.7998   19.9976 C   0  0  0  0  0  0  0  0  0  0  0  0
  -22.6130  -13.5931   23.3859 C   0  0  0  0  0  0  0  0  0  0  0  0
  -24.0216  -16.1547   22.9402 C   0  0  0  0  0  0  0  0  0  0  0  0
  -28.3603  -12.0460   18.3190 C   0  0  0  0  0  0  0  0  0  0  0  0
  -18.3223  -17.4091   20.3759 C   0  0  0  0  0  0  0  0  0  0  0  0
  -27.5415  -12.4713   19.5263 C   0  0  0  0  0  0  0  0  0  0  0  0
  -31.0169  -25.3484   17.7434 C   0  0  0  0  0  0  0  0  0  0  0  0
  -19.4589  -16.6611   19.6864 C   0  0  0  0  0  0  0  0  0  0  0  0
  -30.1719  -26.3806   18.4935 C   0  0  0  0  0  0  0  0  0  0  0  0
  -30.2537  -24.0438   17.5218 C   0  0  0  0  0  0  0  0  0  0  0  0
  -28.8294  -24.4821   19.4836 C   0  0  0  0  0  0  0  0  0  0  0  0
  -29.8946  -12.6906   20.4642 C   0  0  0  0  0  0  0  0  0  0  0  0
  -19.4984  -15.1921   20.1247 C   0  0  1  0  0  0  0  0  0  0  0  0
  -21.8569  -14.8839   23.0871 C   0  0  1  0  0  0  0  0  0  0  0  0
  -29.5783  -25.7899   19.7875 C   0  0  2  0  0  0  0  0  0  0  0  0
  -28.4078  -12.5328   20.7829 C   0  0  1  0  0  0  0  0  0  1  0  0
  -24.2974  -20.4082   27.9378 C   0  0  0  0  0  0  0  0  0  0  0  0
  -32.5666  -14.6331   16.7540 C   0  0  0  0  0  0  0  0  0  0  0  0
  -31.9879  -17.0543   16.5427 C   0  0  0  0  0  0  0  0  0  0  0  0
  -21.9344  -19.3347   21.8440 C   0  0  0  0  0  0  0  0  0  0  0  0
  -22.9932  -20.8960   23.4900 C   0  0  0  0  0  0  0  0  0  0  0  0
  -20.7345  -19.9434   23.9521 C   0  0  0  0  0  0  0  0  0  0  0  0
  -24.9676  -16.6741   28.2257 C   0  0  0  0  0  0  0  0  0  0  0  0
  -30.8920  -15.6673   18.3439 C   0  0  2  0  0  0  0  0  0  0  0  0
  -22.7678  -18.4505   24.1221 C   0  0  1  0  0  0  0  0  0  0  0  0
  -24.0698  -18.9325   27.6494 C   0  0  2  0  0  0  0  0  0  0  0  0
  -32.1688  -15.8946   17.5285 C   0  0  0  0  0  0  0  0  0  0  0  0
  -22.1199  -19.6314   23.3455 C   0  0  0  0  0  0  0  0  0  0  0  0
  -27.3820  -26.8097   20.2535 N   0  0  0  0  0  0  0  0  0  0  0  0
  -28.7006  -26.7929   20.5124 N   0  0  0  0  0  0  0  0  0  0  0  0
  -30.1252  -13.4860   19.2498 N   0  0  0  0  0  0  0  0  0  0  0  0
  -22.6310  -16.0820   23.4182 N   0  0  0  0  0  0  0  0  0  0  0  0
  -29.7240  -23.5412   18.7913 N   0  0  0  0  0  0  0  0  0  0  0  0
  -30.3843  -27.8386   21.8094 N   0  0  0  0  0  0  0  0  0  0  0  0
  -26.6265  -30.0347   23.0143 N   0  0  0  0  0  0  0  0  0  0  0  0
  -29.5488  -21.8955   20.4716 N   0  0  0  0  0  0  0  0  0  0  0  0
  -30.5559  -16.7760   19.1930 N   0  0  0  0  0  0  0  0  0  0  0  0
  -20.0961  -15.0722   21.4373 N   0  0  0  0  0  0  0  0  0  0  0  0
  -22.9308  -18.6931   25.5514 N   0  0  0  0  0  0  0  0  0  0  0  0
  -28.2472  -16.3155   19.2924 N   0  3  0  0  0  0  0  0  0  0  0  0
  -25.0882  -18.1445   28.3996 N   0  3  0  0  0  0  0  0  0  0  0  0
  -29.7494  -13.3858   16.9190 O   0  0  0  0  0  0  0  0  0  0  0  0
  -28.8921  -29.9021   23.3430 O   0  0  0  0  0  0  0  0  0  0  0  0
  -22.3292  -15.0329   20.7785 O   0  0  0  0  0  0  0  0  0  0  0  0
  -31.9787  -14.5946   20.1549 O   0  0  0  0  0  0  0  0  0  0  0  0
  -20.8077  -17.1457   24.4083 O   0  0  0  0  0  0  0  0  0  0  0  0
  -25.2293  -18.3904   25.6002 O   0  0  0  0  0  0  0  0  0  0  0  0
  -30.8441  -21.5298   18.5822 O   0  0  0  0  0  0  0  0  0  0  0  0
  -21.4906  -29.0814   21.0801 O   0  0  0  0  0  0  0  0  0  0  0  0
  -27.9879  -13.6247   21.5967 O   0  0  0  0  0  0  0  0  0  1  0  0
  -18.0540  -25.6453   23.6854 F   0  0  0  0  0  0  0  0  0  0  0  0
  -28.4781  -21.4534   23.0067 F   0  0  0  0  0  0  0  0  0  0  0  0
  -19.9535  -29.9543   23.2056 F   0  0  0  0  0  0  0  0  0  0  0  0
  1  2  1  0  0  0  0
  1  6  2  0  0  0  0
  2  7  2  0  0  0  0
  3  9  2  0  0  0  0
  3 18  1  0  0  0  0
  4 10  1  0  0  0  0
  4 18  2  0  0  0  0
  5 13  2  0  0  0  0
  5 19  1  0  0  0  0
  6 21  1  0  0  0  0
  7 23  1  0  0  0  0
  8 11  2  0  0  0  0
  8 22  1  0  0  0  0
  9 26  1  0  0  0  0
 10 26  2  0  0  0  0
 11 27  1  0  0  0  0
 12 14  2  0  0  0  0
 12 28  1  0  0  0  0
 13 30  1  0  0  0  0
 14 29  1  0  0  0  0
 15 19  2  0  0  0  0
 15 25  1  0  0  0  0
 16 24  1  0  0  0  0
 16 27  2  0  0  0  0
 17 29  2  0  0  0  0
 17 31  1  0  0  0  0
 18 32  1  0  0  0  0
 19 35  1  0  0  0  0
 20 32  1  0  0  0  0
 20 33  2  0  0  0  0
 20 36  1  0  0  0  0
 21 23  2  0  0  0  0
 21 42  1  0  0  0  0
 22 24  2  0  0  0  0
 22 43  1  0  0  0  0
 23 54  1  0  0  0  0
 24 44  1  0  0  0  0
 25 30  2  0  0  0  0
 25 77  1  0  0  0  0
 26 90  1  0  0  0  0
 27 91  1  0  0  0  0
 28 31  2  0  0  0  0
 28 90  1  0  0  0  0
 29 92  1  0  0  0  0
 30 93  1  0  0  0  0
 31 94  1  0  0  0  0
 32 70  2  0  0  0  0
 33 71  1  0  0  0  0
 33 75  1  0  0  0  0
 34 45  1  0  0  0  0
 34 72  1  0  0  0  0
 34 83  2  0  0  0  0
 35 78  1  0  0  0  0
 35 81  2  0  0  0  0
 36 76  1  0  0  0  0
 36 84  2  0  0  0  0
 37 55  1  0  0  0  0
 37 79  1  0  0  0  0
 37 85  2  0  0  0  0
 38 65  1  0  0  0  0
 38 72  1  0  0  0  0
 38 86  2  0  0  0  0
 39 66  1  0  0  0  0
 39 73  1  0  0  0  0
 39 87  2  0  0  0  0
 40 67  1  0  0  0  0
 40 80  1  0  0  0  0
 40 88  2  0  0  0  0
 41 74  1  0  0  0  0
 41 77  1  0  0  0  0
 41 89  2  0  0  0  0
 42 46  1  0  0  0  0
 43 55  1  0  0  0  0
 44 73  1  0  0  0  0
 45 47  1  0  0  0  0
 46 49  1  0  0  0  0
 47 57  1  0  0  0  0
 48 50  1  0  0  0  0
 48 51  1  0  0  0  0
 49 54  1  0  0  0  0
 50 56  1  0  0  0  0
 51 74  1  0  0  0  0
 52 56  1  0  0  0  0
 52 74  1  0  0  0  0
 53 57  1  0  0  0  0
 53 72  1  0  0  0  0
 54 79  1  0  0  0  0
 55 73  1  0  0  0  0
 56 71  1  0  0  0  0
 57 91  1  0  0  0  0
 58 67  1  0  0  0  0
 59 68  1  0  0  0  0
 60 68  1  0  0  0  0
 61 69  1  0  0  0  0
 62 69  1  0  0  0  0
 63 69  1  0  0  0  0
 64 82  1  0  0  0  0
 65 68  1  0  0  0  0
 65 78  1  0  0  0  0
 66 69  1  0  0  0  0
 66 80  1  0  0  0  0
 67 82  1  0  0  0  0
 70 71  1  0  0  0  0
M  CHG  2  81   1  82   1
M  ISO  4  41 100  57 101  77 100  91 101
M  END
> <Batch ID>
0055

> <Smiles>
CNC(C)C(=O)NC(C(=O)N1Cc2cc([101O:1][101CH:1]3CCC(=O)N(C(=O)C(NC(=N)c4ccc(F)c([100NH:0][100C:0](=O)N5CCCC(n6nc(-c7ccc(Oc8ccc(F)cc8F)cc7)c(C(N)=O)c6N)C5)c4)C(C)C)C3)ccc2CC1C(=O)NC1CCCc2ccccc21)C(C)(C)C

> <Shape>
0.260

> <Color>
0.068

> <Negative vol penalty>
0.000

$$$$

  -OEChem-04042322493D

 86 94  0     1  0  0  0  0  0999 V2000
  -22.9682  -29.0504   32.8284 C   0  0  0  0  0  0  0  0  0  0  0  0
  -23.2600  -28.0057   31.9572 C   0  0  0  0  0  0  0  0  0  0  0  0
  -23.1290   -9.8487   21.4568 C   0  0  0  0  0  0  0  0  0  0  0  0
  -23.8362  -10.7680   23.5762 C   0  0  0  0  0  0  0  0  0  0  0  0
  -22.3629  -30.2102   32.3463 C   0  0  0  0  0  0  0  0  0  0  0  0
  -22.9455  -28.1199   30.6035 C   0  0  0  0  0  0  0  0  0  0  0  0
  -26.7061  -26.5512   27.5965 C   0  0  0  0  0  0  0  0  0  0  0  0
  -32.3950  -18.5768   21.8378 C   0  0  0  0  0  0  0  0  0  0  0  0
  -31.8547  -17.3905   21.3416 C   0  0  0  0  0  0  0  0  0  0  0  0
  -22.4135   -8.8559   22.1261 C   0  0  0  0  0  0  0  0  0  0  0  0
  -23.1207   -9.7751   24.2455 C   0  0  0  0  0  0  0  0  0  0  0  0
  -26.8618  -25.1749   27.4369 C   0  0  0  0  0  0  0  0  0  0  0  0
  -23.0754   -5.9299   23.6834 C   0  0  0  0  0  0  0  0  0  0  0  0
  -23.1934   -4.6208   23.2167 C   0  0  0  0  0  0  0  0  0  0  0  0
  -25.7148  -25.2970   25.3182 C   0  0  0  0  0  0  0  0  0  0  0  0
  -29.6337  -18.3219   21.5334 C   0  0  0  0  0  0  0  0  0  0  0  0
  -20.8137   -4.5529   22.8053 C   0  0  0  0  0  0  0  0  0  0  0  0
  -23.8404  -10.8047   22.1818 C   0  0  0  0  0  0  0  0  0  0  0  0
  -24.1112  -13.0980   21.0978 C   0  0  0  0  0  0  0  0  0  0  0  0
  -22.0497  -30.3425   30.9843 C   0  0  0  0  0  0  0  0  0  0  0  0
  -26.0428  -27.3102   26.6216 C   0  0  0  0  0  0  0  0  0  0  0  0
  -22.3342  -29.2820   30.1030 C   0  0  0  0  0  0  0  0  0  0  0  0
  -25.5542  -26.6831   25.4666 C   0  0  0  0  0  0  0  0  0  0  0  0
  -31.5547  -19.6357   22.1819 C   0  0  0  0  0  0  0  0  0  0  0  0
  -30.1741  -19.5082   22.0297 C   0  0  0  0  0  0  0  0  0  0  0  0
  -30.4740  -17.2630   21.1893 C   0  0  0  0  0  0  0  0  0  0  0  0
  -22.4093   -8.8191   23.5205 C   0  0  0  0  0  0  0  0  0  0  0  0
  -26.3636  -24.5471   26.2990 C   0  0  0  0  0  0  0  0  0  0  0  0
  -21.8265   -6.5506   23.7111 C   0  0  0  0  0  0  0  0  0  0  0  0
  -22.0626   -3.9323   22.7776 C   0  0  0  0  0  0  0  0  0  0  0  0
  -20.6957   -5.8621   23.2720 C   0  0  0  0  0  0  0  0  0  0  0  0
  -24.5801  -11.8302   21.4909 C   0  0  0  0  0  0  0  0  0  0  0  0
  -25.1890  -13.6874   20.4834 C   0  0  0  0  0  0  0  0  0  0  0  0
  -27.9825  -20.6169   21.5776 C   0  0  0  0  0  0  0  0  0  0  0  0
  -22.8171  -13.6900   21.2723 C   0  0  0  0  0  0  0  0  0  0  0  0
  -23.4130  -29.0949   26.5739 C   0  0  0  0  0  0  0  0  0  0  0  0
  -24.4198  -29.8068   23.5736 C   0  0  0  0  0  0  0  0  0  0  0  0
  -28.4621  -21.7333   24.4910 C   0  0  0  0  0  0  0  0  0  0  0  0
  -26.2542  -28.9013   20.8420 C   0  0  0  0  0  0  0  0  0  0  0  0
  -30.6171  -14.9132   20.2928 C   0  0  0  0  0  0  0  0  0  0  0  0
  -21.3527  -31.5961   30.5182 C   0  0  0  0  0  0  0  0  0  0  0  0
  -25.9066  -28.7980   26.7962 C   0  0  0  0  0  0  0  0  0  0  0  0
  -24.8524  -27.4560   24.3811 C   0  0  0  0  0  0  0  0  0  0  0  0
  -21.3930  -31.7883   29.0043 C   0  0  0  0  0  0  0  0  0  0  0  0
  -29.6274  -11.7339   19.0318 C   0  0  0  0  0  0  0  0  0  0  0  0
  -21.0284  -30.4900   28.2915 C   0  0  0  0  0  0  0  0  0  0  0  0
  -28.1874  -11.5799   19.5268 C   0  0  0  0  0  0  0  0  0  0  0  0
  -30.5080  -12.4415   20.0602 C   0  0  0  0  0  0  0  0  0  0  0  0
  -28.5500  -13.5749   21.0353 C   0  0  0  0  0  0  0  0  0  0  0  0
  -22.0309  -29.3781   28.6235 C   0  0  1  0  0  0  0  0  0  0  0  0
  -24.7616  -29.3927   25.9822 C   0  0  1  0  0  0  0  0  0  0  0  0
  -27.6095  -12.9256   20.0068 C   0  0  2  0  0  0  0  0  0  0  0  0
  -32.1564  -20.8957   22.7119 C   0  0  0  0  0  0  0  0  0  0  0  0
  -26.8526  -29.6679   18.5286 C   0  0  0  0  0  0  0  0  0  0  0  0
  -21.6622  -28.9575   22.5815 C   0  0  0  0  0  0  0  0  0  0  0  0
  -22.6101  -28.8317   20.2677 C   0  0  0  0  0  0  0  0  0  0  0  0
  -22.5793  -31.0092   21.4843 C   0  0  0  0  0  0  0  0  0  0  0  0
  -29.1350  -29.0361   21.5064 C   0  0  0  0  0  0  0  0  0  0  0  0
  -28.0772  -21.3880   25.9211 C   0  0  0  0  0  0  0  0  0  0  0  0
  -27.6643  -22.6045   26.7352 C   0  0  0  0  0  0  0  0  0  1  0  0
  -29.2460  -20.6405   22.3931 C   0  0  1  0  0  0  0  0  0  0  0  0
  -24.2037  -29.2104   22.2037 C   0  0  1  0  0  0  0  0  0  0  0  0
  -27.2504  -29.6740   19.9964 C   0  0  2  0  0  0  0  0  0  0  0  0
  -22.7753  -29.4871   21.6555 C   0  0  0  0  0  0  0  0  0  0  0  0
  -25.8564  -11.6253   21.1545 N   0  0  0  0  0  0  0  0  0  0  0  0
  -27.8828  -21.2837   20.4768 N   0  0  0  0  0  0  0  0  0  0  0  0
  -26.1986  -12.7723   20.5433 N   0  0  0  0  0  0  0  0  0  0  0  0
  -24.7384  -28.9073   24.6008 N   0  0  0  0  0  0  0  0  0  0  0  0
  -29.8995  -13.7106   20.4651 N   0  0  0  0  0  0  0  0  0  0  0  0
  -25.3622  -14.8939   19.9031 N   0  0  0  0  0  0  0  0  0  0  0  0
  -21.8247  -12.9463   21.9252 N   0  0  0  0  0  0  0  0  0  0  0  0
  -29.9247  -16.0588   20.6834 N   0  0  0  0  0  0  0  0  0  0  0  0
  -23.2516  -29.5557   27.8667 N   0  0  0  0  0  0  0  0  0  0  0  0
  -28.8328  -20.6025   23.7775 N   0  0  0  0  0  0  0  0  0  0  0  0
  -25.2774  -29.7248   21.3606 N   0  0  0  0  0  0  0  0  0  0  0  0
  -28.6087  -29.0729   20.1177 N   0  3  0  0  0  0  0  0  0  0  0  0
  -22.5439  -14.8380   20.8469 O   0  0  0  0  0  0  0  0  0  0  0  0
  -22.5799  -28.4931   25.9065 O   0  0  0  0  0  0  0  0  0  0  0  0
  -24.3169  -31.0267   23.7251 O   0  0  0  0  0  0  0  0  0  0  0  0
  -28.4401  -22.8771   24.0449 O   0  0  0  0  0  0  0  0  0  0  0  0
  -26.3324  -27.6879   21.0213 O   0  0  0  0  0  0  0  0  0  0  0  0
  -31.7511  -14.9283   19.8072 O   0  0  0  0  0  0  0  0  0  0  0  0
  -21.7111   -7.8506   24.1739 O   0  0  0  0  0  0  0  0  0  0  0  0
  -26.5136  -23.2039   26.1410 O   0  0  0  0  0  0  0  0  0  1  0  0
  -22.1763   -2.6757   22.3281 F   0  0  0  0  0  0  0  0  0  0  0  0
  -19.4934   -6.4535   23.2951 F   0  0  0  0  0  0  0  0  0  0  0  0
  1  2  1  0  0  0  0
  1  5  2  0  0  0  0
  2  6  2  0  0  0  0
  3 10  2  0  0  0  0
  3 18  1  0  0  0  0
  4 11  1  0  0  0  0
  4 18  2  0  0  0  0
  5 20  1  0  0  0  0
  6 22  1  0  0  0  0
  7 12  2  0  0  0  0
  7 21  1  0  0  0  0
  8  9  2  0  0  0  0
  8 24  1  0  0  0  0
  9 26  1  0  0  0  0
 10 27  1  0  0  0  0
 11 27  2  0  0  0  0
 12 28  1  0  0  0  0
 13 14  2  0  0  0  0
 13 29  1  0  0  0  0
 14 30  1  0  0  0  0
 15 23  1  0  0  0  0
 15 28  2  0  0  0  0
 16 25  1  0  0  0  0
 16 26  2  0  0  0  0
 17 30  2  0  0  0  0
 17 31  1  0  0  0  0
 18 32  1  0  0  0  0
 19 32  1  0  0  0  0
 19 33  2  0  0  0  0
 19 35  1  0  0  0  0
 20 22  2  0  0  0  0
 20 41  1  0  0  0  0
 21 23  2  0  0  0  0
 21 42  1  0  0  0  0
 22 50  1  0  0  0  0
 23 43  1  0  0  0  0
 24 25  2  0  0  0  0
 24 53  1  0  0  0  0
 25 61  1  0  0  0  0
 26 72  1  0  0  0  0
 27 83  1  0  0  0  0
 28 84  1  0  0  0  0
 29 31  2  0  0  0  0
 29 83  1  0  0  0  0
 30 85  1  0  0  0  0
 31 86  1  0  0  0  0
 32 65  2  0  0  0  0
 33 67  1  0  0  0  0
 33 70  1  0  0  0  0
 34 61  1  0  0  0  0
 34 66  2  0  0  0  0
 35 71  1  0  0  0  0
 35 77  2  0  0  0  0
 36 51  1  0  0  0  0
 36 73  1  0  0  0  0
 36 78  2  0  0  0  0
 37 62  1  0  0  0  0
 37 68  1  0  0  0  0
 37 79  2  0  0  0  0
 38 59  1  0  0  0  0
 38 74  1  0  0  0  0
 38 80  2  0  0  0  0
 39 63  1  0  0  0  0
 39 75  1  0  0  0  0
 39 81  2  0  0  0  0
 40 69  1  0  0  0  0
 40 72  1  0  0  0  0
 40 82  2  0  0  0  0
 41 44  1  0  0  0  0
 42 51  1  0  0  0  0
 43 68  1  0  0  0  0
 44 46  1  0  0  0  0
 45 47  1  0  0  0  0
 45 48  1  0  0  0  0
 46 50  1  0  0  0  0
 47 52  1  0  0  0  0
 48 69  1  0  0  0  0
 49 52  1  0  0  0  0
 49 69  1  0  0  0  0
 50 73  1  0  0  0  0
 51 68  1  0  0  0  0
 52 67  1  0  0  0  0
 54 63  1  0  0  0  0
 55 64  1  0  0  0  0
 56 64  1  0  0  0  0
 57 64  1  0  0  0  0
 58 76  1  0  0  0  0
 59 60  1  0  0  0  0
 60 84  1  0  0  0  0
 61 74  1  0  0  0  0
 62 64  1  0  0  0  0
 62 75  1  0  0  0  0
 63 76  1  0  0  0  0
 65 67  1  0  0  0  0
M  CHG  1  76   1
M  ISO  4  40 100  60 101  72 100  84 101
M  END
> <Batch ID>
0055

> <Smiles>
CNC(C)C(=O)NC(C(=O)N1Cc2cc([101O:1][101CH2:1]CC(=O)NC(C=N)c3cc([100NH:0][100C:0](=O)N4CCCC(n5nc(-c6ccc(Oc7ccc(F)cc7F)cc6)c(C(N)=O)c5N)C4)ccc3C)ccc2CC1C(=O)NC1CCCc2ccccc21)C(C)(C)C

> <Shape>
0.244

> <Color>
0.150

> <Negative vol penalty>
0.000

$$$$

  -OEChem-04042322493D

 86 95  0     1  0  0  0  0  0999 V2000
  -16.5127  -29.0535   22.7652 C   0  0  0  0  0  0  0  0  0  0  0  0
  -17.2866  -29.8409   21.9187 C   0  0  0  0  0  0  0  0  0  0  0  0
  -25.3947  -12.5817   21.8179 C   0  0  0  0  0  0  0  0  0  0  0  0
  -25.0143  -13.0946   19.4878 C   0  0  0  0  0  0  0  0  0  0  0  0
  -16.9814  -28.7318   24.0383 C   0  0  0  0  0  0  0  0  0  0  0  0
  -18.5293  -30.3079   22.3453 C   0  0  0  0  0  0  0  0  0  0  0  0
  -24.5412  -28.6941   18.7199 C   0  0  0  0  0  0  0  0  0  0  0  0
  -29.2542  -24.5966   21.0031 C   0  0  0  0  0  0  0  0  0  0  0  0
  -31.3213  -23.7383   20.0934 C   0  0  0  0  0  0  0  0  0  0  0  0
  -29.5190  -25.8408   20.4309 C   0  0  0  0  0  0  0  0  0  0  0  0
  -31.5860  -24.9825   19.5210 C   0  0  0  0  0  0  0  0  0  0  0  0
  -25.7034  -11.2647   21.4776 C   0  0  0  0  0  0  0  0  0  0  0  0
  -25.3231  -11.7776   19.1475 C   0  0  0  0  0  0  0  0  0  0  0  0
  -25.7100  -28.6044   17.9635 C   0  0  0  0  0  0  0  0  0  0  0  0
  -26.2422   -7.6751   21.2580 C   0  0  0  0  0  0  0  0  0  0  0  0
  -25.6845   -6.6563   22.0304 C   0  0  0  0  0  0  0  0  0  0  0  0
  -26.9269  -29.7912   19.6835 C   0  0  0  0  0  0  0  0  0  0  0  0
  -23.4700   -7.4216   21.4408 C   0  0  0  0  0  0  0  0  0  0  0  0
  -25.0501  -13.4966   20.8229 C   0  0  0  0  0  0  0  0  0  0  0  0
  -23.6949  -15.2957   22.0206 C   0  0  0  0  0  0  0  0  0  0  0  0
  -18.2348  -29.1871   24.4771 C   0  0  0  0  0  0  0  0  0  0  0  0
  -24.5644  -29.3199   19.9693 C   0  0  0  0  0  0  0  0  0  0  0  0
  -19.0147  -29.9931   23.6259 C   0  0  0  0  0  0  0  0  0  0  0  0
  -25.7621  -29.8731   20.4512 C   0  0  0  0  0  0  0  0  0  0  0  0
  -30.1554  -23.5453   20.8344 C   0  0  0  0  0  0  0  0  0  0  0  0
  -30.6848  -26.0338   19.6898 C   0  0  0  0  0  0  0  0  0  0  0  0
  -25.6676  -10.8626   20.1424 C   0  0  0  0  0  0  0  0  0  0  0  0
  -26.8998  -29.1518   18.4440 C   0  0  0  0  0  0  0  0  0  0  0  0
  -25.4138   -8.5672   20.5770 C   0  0  0  0  0  0  0  0  0  0  0  0
  -24.2984   -6.5295   22.1218 C   0  0  0  0  0  0  0  0  0  0  0  0
  -24.0277   -8.4404   20.6684 C   0  0  0  0  0  0  0  0  0  0  0  0
  -24.7305  -14.8571   21.1739 C   0  0  0  0  0  0  0  0  0  0  0  0
  -23.8135  -16.6641   22.0276 C   0  0  0  0  0  0  0  0  0  0  0  0
  -32.0915  -28.0682   19.4093 C   0  0  0  0  0  0  0  0  0  0  0  0
  -32.9232  -27.8619   20.4511 C   0  0  0  0  0  0  0  0  0  0  0  0
  -22.7136  -14.5344   22.7369 C   0  0  0  0  0  0  0  0  0  0  0  0
  -22.6449  -30.3357   23.0287 C   0  0  0  0  0  0  0  0  0  0  0  0
  -25.3852  -29.3424   23.9851 C   0  0  0  0  0  0  0  0  0  0  0  0
  -28.3435  -27.7815   24.6553 C   0  0  0  0  0  0  0  0  0  0  0  0
  -28.4408  -20.2158   21.1171 C   0  0  0  0  0  0  0  0  0  0  0  0
  -18.6784  -28.8528   25.8792 C   0  0  0  0  0  0  0  0  0  0  0  0
  -23.3160  -29.4938   20.7910 C   0  0  0  0  0  0  0  0  0  0  0  0
  -25.7321  -30.5675   21.7853 C   0  0  0  0  0  0  0  0  0  0  0  0
  -32.3936  -29.2587   18.5146 C   0  0  0  0  0  0  0  0  0  0  0  0
  -20.1699  -29.0759   26.1156 C   0  0  0  0  0  0  0  0  0  0  0  0
  -31.4131  -30.4148   18.7173 C   0  0  0  0  0  0  0  0  0  0  0  0
  -25.3081  -20.3073   19.3073 C   0  0  0  0  0  0  0  0  0  0  0  0
  -20.6022  -30.4286   25.5587 C   0  0  0  0  0  0  0  0  0  0  0  0
  -24.7077  -18.9478   19.6695 C   0  0  0  0  0  0  0  0  0  0  0  0
  -30.0795  -30.2336   17.9996 C   0  0  0  0  0  0  0  0  0  0  0  0
  -26.8201  -20.2132   19.1255 C   0  0  0  0  0  0  0  0  0  0  0  0
  -26.9492  -18.2898   20.6610 C   0  0  0  0  0  0  0  0  0  0  0  0
  -29.9724  -27.6814   18.0738 C   0  0  0  0  0  0  0  0  0  0  0  0
  -20.3788  -30.4981   24.0432 C   0  0  1  0  0  0  0  0  0  0  0  0
  -23.5733  -29.4045   22.3059 C   0  0  1  0  0  0  0  0  0  0  0  0
  -25.4257  -18.3229   20.8804 C   0  0  2  0  0  0  0  0  0  0  0  0
  -29.2772  -29.0022   18.4169 C   0  0  2  0  0  0  0  0  0  1  0  0
  -30.1714  -26.7466   26.0283 C   0  0  0  0  0  0  0  0  0  0  0  0
  -26.3102  -32.2349   24.2706 C   0  0  0  0  0  0  0  0  0  0  0  0
  -28.3639  -31.3896   25.4264 C   0  0  0  0  0  0  0  0  0  0  0  0
  -26.1153  -30.9839   26.4273 C   0  0  0  0  0  0  0  0  0  0  0  0
  -27.0193  -25.1348   24.6348 C   0  0  0  0  0  0  0  0  0  0  0  0
  -29.8735  -22.2149   21.4463 C   0  0  0  0  0  0  0  0  0  0  0  0
  -26.8010  -29.7017   24.3590 C   0  0  1  0  0  0  0  0  0  0  0  0
  -28.7027  -26.6827   25.6392 C   0  0  2  0  0  0  0  0  0  0  0  0
  -26.8910  -31.0685   25.0947 C   0  0  0  0  0  0  0  0  0  0  0  0
  -25.4536  -15.8651   20.6787 N   0  0  0  0  0  0  0  0  0  0  0  0
  -24.8715  -16.9507   21.2160 N   0  0  0  0  0  0  0  0  0  0  0  0
  -30.9545  -27.3030   19.1040 N   0  0  0  0  0  0  0  0  0  0  0  0
  -24.9275  -29.7883   22.7392 N   0  0  0  0  0  0  0  0  0  0  0  0
  -27.4446  -19.6276   20.3202 N   0  0  0  0  0  0  0  0  0  0  0  0
  -23.1149  -17.6381   22.6487 N   0  0  0  0  0  0  0  0  0  0  0  0
  -21.4958  -14.2504   22.1039 N   0  0  0  0  0  0  0  0  0  0  0  0
  -21.4214  -29.7769   23.3450 N   0  0  0  0  0  0  0  0  0  0  0  0
  -27.3189  -28.5746   25.1269 N   0  0  0  0  0  0  0  0  0  0  0  0
  -28.8597  -21.4805   20.7223 N   0  0  0  0  0  0  0  0  0  0  0  0
  -28.4325  -25.3442   25.0423 N   0  3  0  0  0  0  0  0  0  0  0  0
  -22.9043  -14.1323   23.9097 O   0  0  0  0  0  0  0  0  0  0  0  0
  -23.0113  -31.4772   23.2829 O   0  0  0  0  0  0  0  0  0  0  0  0
  -24.6997  -28.6891   24.7765 O   0  0  0  0  0  0  0  0  0  0  0  0
  -28.9172  -27.9244   23.5778 O   0  0  0  0  0  0  0  0  0  0  0  0
  -28.9180  -19.6574   22.1108 O   0  0  0  0  0  0  0  0  0  0  0  0
  -25.9690   -9.5776   19.8100 O   0  0  0  0  0  0  0  0  0  0  0  0
  -28.0381  -29.0567   17.7025 O   0  0  0  0  0  0  0  0  0  1  0  0
  -23.7630   -5.5502   22.8624 F   0  0  0  0  0  0  0  0  0  0  0  0
  -23.2268   -9.2937   20.0156 F   0  0  0  0  0  0  0  0  0  0  0  0
  1  2  1  0  0  0  0
  1  5  2  0  0  0  0
  2  6  2  0  0  0  0
  3 12  2  0  0  0  0
  3 19  1  0  0  0  0
  4 13  1  0  0  0  0
  4 19  2  0  0  0  0
  5 21  1  0  0  0  0
  6 23  1  0  0  0  0
  7 14  2  0  0  0  0
  7 22  1  0  0  0  0
  8 10  2  0  0  0  0
  8 25  1  0  0  0  0
  9 11  1  0  0  0  0
  9 25  2  0  0  0  0
 10 26  1  0  0  0  0
 11 26  2  0  0  0  0
 12 27  1  0  0  0  0
 13 27  2  0  0  0  0
 14 28  1  0  0  0  0
 15 16  2  0  0  0  0
 15 29  1  0  0  0  0
 16 30  1  0  0  0  0
 17 24  1  0  0  0  0
 17 28  2  0  0  0  0
 18 30  2  0  0  0  0
 18 31  1  0  0  0  0
 19 32  1  0  0  0  0
 20 32  1  0  0  0  0
 20 33  2  0  0  0  0
 20 36  1  0  0  0  0
 21 23  2  0  0  0  0
 21 41  1  0  0  0  0
 22 24  2  0  0  0  0
 22 42  1  0  0  0  0
 23 54  1  0  0  0  0
 24 43  1  0  0  0  0
 25 63  1  0  0  0  0
 26 69  1  0  0  0  0
 27 83  1  0  0  0  0
 28 84  1  0  0  0  0
 29 31  2  0  0  0  0
 29 83  1  0  0  0  0
 30 85  1  0  0  0  0
 31 86  1  0  0  0  0
 32 67  2  0  0  0  0
 33 68  1  0  0  0  0
 33 72  1  0  0  0  0
 34 35  2  0  0  0  0
 34 44  1  0  0  0  0
 34 69  1  0  0  0  0
 36 73  1  0  0  0  0
 36 78  2  0  0  0  0
 37 55  1  0  0  0  0
 37 74  1  0  0  0  0
 37 79  2  0  0  0  0
 38 64  1  0  0  0  0
 38 70  1  0  0  0  0
 38 80  2  0  0  0  0
 39 65  1  0  0  0  0
 39 75  1  0  0  0  0
 39 81  2  0  0  0  0
 40 71  1  0  0  0  0
 40 76  1  0  0  0  0
 40 82  2  0  0  0  0
 41 45  1  0  0  0  0
 42 55  1  0  0  0  0
 43 70  1  0  0  0  0
 44 46  1  0  0  0  0
 45 48  1  0  0  0  0
 46 50  1  0  0  0  0
 47 49  1  0  0  0  0
 47 51  1  0  0  0  0
 48 54  1  0  0  0  0
 49 56  1  0  0  0  0
 50 57  1  0  0  0  0
 51 71  1  0  0  0  0
 52 56  1  0  0  0  0
 52 71  1  0  0  0  0
 53 57  1  0  0  0  0
 53 69  1  0  0  0  0
 54 74  1  0  0  0  0
 55 70  1  0  0  0  0
 56 68  1  0  0  0  0
 57 84  1  0  0  0  0
 58 65  1  0  0  0  0
 59 66  1  0  0  0  0
 60 66  1  0  0  0  0
 61 66  1  0  0  0  0
 62 77  1  0  0  0  0
 63 76  1  0  0  0  0
 64 66  1  0  0  0  0
 64 75  1  0  0  0  0
 65 77  1  0  0  0  0
 67 68  1  0  0  0  0
M  CHG  1  77   1
M  ISO  4  40 100  57 101  76 100  84 101
M  END
> <Batch ID>
0055

> <Smiles>
C=C1CCC[101CH:1]([101O:1]c2ccc3c(c2)CN(C(=O)C(NC(=O)C(C)NC)C(C)(C)C)C(C(=O)NC2CCCc4ccccc42)C3)CN1c1ccc(C[100NH:0][100C:0](=O)N2CCCC(n3nc(-c4ccc(Oc5ccc(F)cc5F)cc4)c(C(N)=O)c3N)C2)cc1

> <Shape>
0.250

> <Color>
0.099

> <Negative vol penalty>
0.000

$$$$

  -OEChem-04042322493D

 86 94  0     1  0  0  0  0  0999 V2000
  -29.9069  -36.1081   18.5754 C   0  0  0  0  0  0  0  0  0  0  0  0
  -29.9578  -34.7804   18.9878 C   0  0  0  0  0  0  0  0  0  0  0  0
  -24.3979   -8.4513   21.3662 C   0  0  0  0  0  0  0  0  0  0  0  0
  -23.8563  -10.1609   22.9852 C   0  0  0  0  0  0  0  0  0  0  0  0
  -28.9475  -36.9667   19.1103 C   0  0  0  0  0  0  0  0  0  0  0  0
  -29.0500  -34.3108   19.9363 C   0  0  0  0  0  0  0  0  0  0  0  0
  -27.0863  -29.8134   18.6863 C   0  0  0  0  0  0  0  0  0  0  0  0
  -28.9632  -21.0618   17.6720 C   0  0  0  0  0  0  0  0  0  0  0  0
  -28.9553  -20.0394   16.7232 C   0  0  0  0  0  0  0  0  0  0  0  0
  -24.0804   -7.4657   22.3007 C   0  0  0  0  0  0  0  0  0  0  0  0
  -23.5387   -9.1752   23.9197 C   0  0  0  0  0  0  0  0  0  0  0  0
  -27.8821  -28.6891   18.9019 C   0  0  0  0  0  0  0  0  0  0  0  0
  -21.2883   -6.0278   23.5536 C   0  0  0  0  0  0  0  0  0  0  0  0
  -20.5072   -4.9549   23.1242 C   0  0  0  0  0  0  0  0  0  0  0  0
  -26.6761  -28.2340   20.9410 C   0  0  0  0  0  0  0  0  0  0  0  0
  -29.3865  -19.4420   19.4139 C   0  0  0  0  0  0  0  0  0  0  0  0
  -22.2829   -3.4263   23.7137 C   0  0  0  0  0  0  0  0  0  0  0  0
  -24.2859   -9.7989   21.7084 C   0  0  0  0  0  0  0  0  0  0  0  0
  -23.7448  -11.4213   19.8156 C   0  0  0  0  0  0  0  0  0  0  0  0
  -28.0212  -36.5049   20.0587 C   0  0  0  0  0  0  0  0  0  0  0  0
  -26.0850  -30.1632   19.6036 C   0  0  0  0  0  0  0  0  0  0  0  0
  -28.0781  -35.1644   20.4855 C   0  0  0  0  0  0  0  0  0  0  0  0
  -25.8673  -29.3618   20.7334 C   0  0  0  0  0  0  0  0  0  0  0  0
  -29.1789  -20.7631   19.0174 C   0  0  0  0  0  0  0  0  0  0  0  0
  -29.1629  -18.7183   17.1197 C   0  0  0  0  0  0  0  0  0  0  0  0
  -29.3785  -18.4196   18.4651 C   0  0  0  0  0  0  0  0  0  0  0  0
  -23.6508   -7.8276   23.5775 C   0  0  0  0  0  0  0  0  0  0  0  0
  -27.6790  -27.9008   20.0308 C   0  0  0  0  0  0  0  0  0  0  0  0
  -22.5667   -5.8000   24.0630 C   0  0  0  0  0  0  0  0  0  0  0  0
  -21.0045   -3.6542   23.2043 C   0  0  0  0  0  0  0  0  0  0  0  0
  -23.0640   -4.4992   24.1431 C   0  0  0  0  0  0  0  0  0  0  0  0
  -24.6142  -10.8175   20.7437 C   0  0  0  0  0  0  0  0  0  0  0  0
  -24.5352  -12.3160   19.1364 C   0  0  0  0  0  0  0  0  0  0  0  0
  -22.3477  -11.1937   19.5878 C   0  0  0  0  0  0  0  0  0  0  0  0
  -25.5338  -32.6738   21.4736 C   0  0  0  0  0  0  0  0  0  0  0  0
  -28.2969  -16.3307   19.2351 C   0  0  0  0  0  0  0  0  0  0  0  0
  -22.7484  -31.1235   22.0739 C   0  0  0  0  0  0  0  0  0  0  0  0
  -27.8284  -23.9536   19.7694 C   0  0  0  0  0  0  0  0  0  0  0  0
  -21.0329  -28.1743   22.1533 C   0  0  0  0  0  0  0  0  0  0  0  0
  -27.0326  -37.4823   20.6436 C   0  0  0  0  0  0  0  0  0  0  0  0
  -25.2175  -31.3640   19.3428 C   0  0  0  0  0  0  0  0  0  0  0  0
  -24.7921  -29.6827   21.7381 C   0  0  0  0  0  0  0  0  0  0  0  0
  -25.8677  -36.8113   21.3666 C   0  0  0  0  0  0  0  0  0  0  0  0
  -29.5491  -12.9193   19.0874 C   0  0  0  0  0  0  0  0  0  0  0  0
  -26.3762  -35.7081   22.2893 C   0  0  0  0  0  0  0  0  0  0  0  0
  -28.3018  -12.1195   19.4610 C   0  0  0  0  0  0  0  0  0  0  0  0
  -29.6141  -14.2436   19.8439 C   0  0  0  0  0  0  0  0  0  0  0  0
  -27.1484  -14.2959   20.0489 C   0  0  0  0  0  0  0  0  0  0  0  0
  -27.0947  -34.6113   21.4940 C   0  0  1  0  0  0  0  0  0  0  0  0
  -24.5672  -31.9172   20.6071 C   0  0  1  0  0  0  0  0  0  0  0  0
  -27.0295  -12.9668   19.2847 C   0  0  2  0  0  0  0  0  0  0  0  0
  -29.1488  -17.6405   16.0859 C   0  0  0  0  0  0  0  0  0  0  0  0
  -18.7835  -27.2185   22.7226 C   0  0  0  0  0  0  0  0  0  0  0  0
  -23.4032  -31.3581   25.0448 C   0  0  0  0  0  0  0  0  0  0  0  0
  -21.6726  -29.6055   25.4934 C   0  0  0  0  0  0  0  0  0  0  0  0
  -21.0065  -31.7799   24.4683 C   0  0  0  0  0  0  0  0  0  0  0  0
  -26.7565  -21.7910   20.4365 C   0  0  0  0  0  0  0  0  0  0  0  0
  -20.6145  -27.2081   19.3874 C   0  0  0  0  0  0  0  0  0  0  0  0
  -29.1870  -21.8637   20.0386 C   0  0  0  0  0  0  0  0  0  0  0  0
  -29.1356  -24.6496   19.4048 C   0  0  0  0  0  0  0  0  0  0  0  0
  -28.9582  -26.1299   19.0911 C   0  0  0  0  0  0  0  0  0  1  0  0
  -29.6027  -17.0125   18.9130 C   0  0  2  0  0  0  0  0  0  0  0  0
  -22.2913  -30.0990   23.0841 C   0  0  1  0  0  0  0  0  0  0  0  0
  -19.6635  -27.7910   21.6222 C   0  0  2  0  0  0  0  0  0  0  0  0
  -22.1150  -30.7054   24.5049 C   0  0  0  0  0  0  0  0  0  0  0  0
  -25.8615  -11.2888   20.6640 N   0  0  0  0  0  0  0  0  0  0  0  0
  -25.7815  -12.1981   19.6777 N   0  0  0  0  0  0  0  0  0  0  0  0
  -23.9742  -30.8705   21.4421 N   0  0  0  0  0  0  0  0  0  0  0  0
  -28.3730  -15.0083   19.6730 N   0  0  0  0  0  0  0  0  0  0  0  0
  -24.2787  -13.1841   18.1350 N   0  0  0  0  0  0  0  0  0  0  0  0
  -21.6892  -10.2389   20.3747 N   0  0  0  0  0  0  0  0  0  0  0  0
  -26.1335  -33.7471   20.8430 N   0  0  0  0  0  0  0  0  0  0  0  0
  -21.0800  -29.4980   22.5365 N   0  0  0  0  0  0  0  0  0  0  0  0
  -27.9194  -22.5899   20.0698 N   0  0  0  0  0  0  0  0  0  0  0  0
  -19.7930  -26.7695   20.5449 N   0  3  0  0  0  0  0  0  0  0  0  0
  -21.7060  -11.8068   18.7013 O   0  0  0  0  0  0  0  0  0  0  0  0
  -25.7206  -32.3115   22.6293 O   0  0  0  0  0  0  0  0  0  0  0  0
  -27.2418  -16.9554   19.0984 O   0  0  0  0  0  0  0  0  0  0  0  0
  -22.0404  -32.1081   21.8484 O   0  0  0  0  0  0  0  0  0  0  0  0
  -26.7674  -24.5829   19.7906 O   0  0  0  0  0  0  0  0  0  0  0  0
  -21.9664  -27.3781   22.2248 O   0  0  0  0  0  0  0  0  0  0  0  0
  -23.3407   -6.8661   24.4896 O   0  0  0  0  0  0  0  0  0  0  0  0
  -28.4547  -26.8033   20.2440 O   0  0  0  0  0  0  0  0  0  1  0  0
  -20.2537   -2.6238   22.7934 F   0  0  0  0  0  0  0  0  0  0  0  0
  -24.2910   -4.2740   24.6326 F   0  0  0  0  0  0  0  0  0  0  0  0
  -30.4371  -16.9185   19.9949 F   0  0  0  0  0  0  0  0  0  0  0  0
  1  2  1  0  0  0  0
  1  5  2  0  0  0  0
  2  6  2  0  0  0  0
  3 10  2  0  0  0  0
  3 18  1  0  0  0  0
  4 11  1  0  0  0  0
  4 18  2  0  0  0  0
  5 20  1  0  0  0  0
  6 22  1  0  0  0  0
  7 12  2  0  0  0  0
  7 21  1  0  0  0  0
  8  9  2  0  0  0  0
  8 24  1  0  0  0  0
  9 25  1  0  0  0  0
 10 27  1  0  0  0  0
 11 27  2  0  0  0  0
 12 28  1  0  0  0  0
 13 14  2  0  0  0  0
 13 29  1  0  0  0  0
 14 30  1  0  0  0  0
 15 23  1  0  0  0  0
 15 28  2  0  0  0  0
 16 24  2  0  0  0  0
 16 26  1  0  0  0  0
 17 30  2  0  0  0  0
 17 31  1  0  0  0  0
 18 32  1  0  0  0  0
 19 32  1  0  0  0  0
 19 33  2  0  0  0  0
 19 34  1  0  0  0  0
 20 22  2  0  0  0  0
 20 40  1  0  0  0  0
 21 23  2  0  0  0  0
 21 41  1  0  0  0  0
 22 49  1  0  0  0  0
 23 42  1  0  0  0  0
 24 59  1  0  0  0  0
 25 26  2  0  0  0  0
 25 52  1  0  0  0  0
 26 62  1  0  0  0  0
 27 82  1  0  0  0  0
 28 83  1  0  0  0  0
 29 31  2  0  0  0  0
 29 82  1  0  0  0  0
 30 84  1  0  0  0  0
 31 85  1  0  0  0  0
 32 66  2  0  0  0  0
 33 67  1  0  0  0  0
 33 70  1  0  0  0  0
 34 71  1  0  0  0  0
 34 76  2  0  0  0  0
 35 50  1  0  0  0  0
 35 72  1  0  0  0  0
 35 77  2  0  0  0  0
 36 62  1  0  0  0  0
 36 69  1  0  0  0  0
 36 78  2  0  0  0  0
 37 63  1  0  0  0  0
 37 68  1  0  0  0  0
 37 79  2  0  0  0  0
 38 60  1  0  0  0  0
 38 74  1  0  0  0  0
 38 80  2  0  0  0  0
 39 64  1  0  0  0  0
 39 73  1  0  0  0  0
 39 81  2  0  0  0  0
 40 43  1  0  0  0  0
 41 50  1  0  0  0  0
 42 68  1  0  0  0  0
 43 45  1  0  0  0  0
 44 46  1  0  0  0  0
 44 47  1  0  0  0  0
 45 49  1  0  0  0  0
 46 51  1  0  0  0  0
 47 69  1  0  0  0  0
 48 51  1  0  0  0  0
 48 69  1  0  0  0  0
 49 72  1  0  0  0  0
 50 68  1  0  0  0  0
 51 67  1  0  0  0  0
 53 64  1  0  0  0  0
 54 65  1  0  0  0  0
 55 65  1  0  0  0  0
 56 65  1  0  0  0  0
 57 74  1  0  0  0  0
 58 75  1  0  0  0  0
 59 74  1  0  0  0  0
 60 61  1  0  0  0  0
 61 83  1  0  0  0  0
 62 86  1  0  0  0  0
 63 65  1  0  0  0  0
 63 73  1  0  0  0  0
 64 75  1  0  0  0  0
 66 67  1  0  0  0  0
M  CHG  1  75   1
M  ISO  4  36 100  61 101  62 100  83 101
M  END
> <Batch ID>
0055

> <Smiles>
CNC(C)C(=O)NC(C(=O)N1Cc2cc([101O:1][101CH2:1]CC(=O)N(C)Cc3ccc(C)c([100CH:0](F)[100C:0](=O)N4CCCC(n5nc(-c6ccc(Oc7ccc(F)cc7F)cc6)c(C(N)=O)c5N)C4)c3)ccc2CC1C(=O)NC1CCCc2ccccc21)C(C)(C)C

> <Shape>
0.295

> <Color>
0.099

> <Negative vol penalty>
0.000

$$$$

  -OEChem-04042322493D

 83 91  0     1  0  0  0  0  0999 V2000
  -19.9030  -20.1280   22.5449 C   0  0  0  0  0  0  0  0  0  0  0  0
  -20.7407  -20.3940   21.4665 C   0  0  0  0  0  0  0  0  0  0  0  0
  -26.0175  -14.1923   21.8716 C   0  0  0  0  0  0  0  0  0  0  0  0
  -24.8886  -15.4676   20.1580 C   0  0  0  0  0  0  0  0  0  0  0  0
  -19.2449  -21.1744   23.1897 C   0  0  0  0  0  0  0  0  0  0  0  0
  -20.9199  -21.7067   21.0316 C   0  0  0  0  0  0  0  0  0  0  0  0
  -26.0411  -24.1570   18.7348 C   0  0  0  0  0  0  0  0  0  0  0  0
  -30.3633  -25.7064   18.5985 C   0  0  0  0  0  0  0  0  0  0  0  0
  -30.9937  -23.9553   17.0579 C   0  0  0  0  0  0  0  0  0  0  0  0
  -30.0544  -24.7469   19.5626 C   0  0  0  0  0  0  0  0  0  0  0  0
  -30.6848  -22.9958   18.0221 C   0  0  0  0  0  0  0  0  0  0  0  0
  -24.9409  -13.3069   21.9219 C   0  0  0  0  0  0  0  0  0  0  0  0
  -23.8120  -14.5822   20.2083 C   0  0  0  0  0  0  0  0  0  0  0  0
  -26.4620  -24.3961   17.4274 C   0  0  0  0  0  0  0  0  0  0  0  0
  -23.7756  -10.6970   20.1155 C   0  0  0  0  0  0  0  0  0  0  0  0
  -24.0598   -9.3317   20.1413 C   0  0  0  0  0  0  0  0  0  0  0  0
  -25.6661  -26.6673   17.5929 C   0  0  0  0  0  0  0  0  0  0  0  0
  -22.9318   -9.1371   22.2690 C   0  0  0  0  0  0  0  0  0  0  0  0
  -25.9914  -15.2727   20.9896 C   0  0  0  0  0  0  0  0  0  0  0  0
  -28.2430  -16.0950   20.1170 C   0  0  0  0  0  0  0  0  0  0  0  0
  -19.4238  -22.5016   22.7686 C   0  0  0  0  0  0  0  0  0  0  0  0
  -25.4186  -25.1698   19.4786 C   0  0  0  0  0  0  0  0  0  0  0  0
  -20.2626  -22.7717   21.6705 C   0  0  0  0  0  0  0  0  0  0  0  0
  -25.2405  -26.4393   18.9104 C   0  0  0  0  0  0  0  0  0  0  0  0
  -30.8329  -25.3105   17.3460 C   0  0  0  0  0  0  0  0  0  0  0  0
  -30.2152  -23.3917   19.2745 C   0  0  0  0  0  0  0  0  0  0  0  0
  -23.8381  -13.5018   21.0903 C   0  0  0  0  0  0  0  0  0  0  0  0
  -26.2720  -25.6505   16.8552 C   0  0  0  0  0  0  0  0  0  0  0  0
  -23.0695  -11.2824   21.1665 C   0  0  0  0  0  0  0  0  0  0  0  0
  -23.6379   -8.5517   21.2181 C   0  0  0  0  0  0  0  0  0  0  0  0
  -22.6476  -10.5025   22.2432 C   0  0  0  0  0  0  0  0  0  0  0  0
  -27.1029  -16.1880   20.9376 C   0  0  0  0  0  0  0  0  0  0  0  0
  -28.9922  -17.1988   20.4437 C   0  0  0  0  0  0  0  0  0  0  0  0
  -28.5935  -15.0998   19.1462 C   0  0  0  0  0  0  0  0  0  0  0  0
  -22.5560  -25.5382   20.8103 C   0  0  0  0  0  0  0  0  0  0  0  0
  -23.8882  -28.2470   21.9977 C   0  0  0  0  0  0  0  0  0  0  0  0
  -29.3733  -26.3800   14.5770 C   0  0  0  0  0  0  0  0  0  0  0  0
  -26.2678  -30.6755   21.7028 C   0  0  0  0  0  0  0  0  0  0  0  0
  -29.4255  -22.6395   21.5454 C   0  0  0  0  0  0  0  0  0  0  0  0
  -18.6543  -23.5947   23.4669 C   0  0  0  0  0  0  0  0  0  0  0  0
  -24.9945  -24.9037   20.8969 C   0  0  0  0  0  0  0  0  0  0  0  0
  -24.5959  -27.5664   19.6737 C   0  0  0  0  0  0  0  0  0  0  0  0
  -19.1907  -24.9951   23.1813 C   0  0  0  0  0  0  0  0  0  0  0  0
  -28.4993  -20.5076   24.2425 C   0  0  0  0  0  0  0  0  0  0  0  0
  -19.4448  -25.1752   21.6881 C   0  0  0  0  0  0  0  0  0  0  0  0
  -28.1473  -19.1861   23.5556 C   0  0  0  0  0  0  0  0  0  0  0  0
  -28.0676  -21.7127   23.4088 C   0  0  0  0  0  0  0  0  0  0  0  0
  -28.1959  -20.3903   21.3342 C   0  0  0  0  0  0  0  0  0  0  0  0
  -20.5020  -24.1849   21.1849 C   0  0  1  0  0  0  0  0  0  0  0  0
  -23.9076  -25.8569   21.3843 C   0  0  1  0  0  0  0  0  0  0  0  0
  -28.6695  -19.1478   22.1060 C   0  0  2  0  0  0  0  0  0  0  0  0
  -27.0835  -32.7781   22.8033 C   0  0  0  0  0  0  0  0  0  0  0  0
  -21.5202  -29.7750   20.8281 C   0  0  0  0  0  0  0  0  0  0  0  0
  -22.8338  -31.8877   21.1096 C   0  0  0  0  0  0  0  0  0  0  0  0
  -22.2226  -30.5255   23.1080 C   0  0  0  0  0  0  0  0  0  0  0  0
  -28.9347  -29.5043   22.2272 C   0  0  0  0  0  0  0  0  0  0  0  0
  -31.1653  -26.3434   16.3083 C   0  0  0  0  0  0  0  0  0  0  0  0
  -28.1452  -27.1820   14.1759 C   0  0  0  0  0  0  0  0  0  0  0  0
  -27.0797  -27.2192   15.2605 C   0  0  0  0  0  0  0  0  0  1  0  0
  -24.0037  -29.6768   21.5271 C   0  0  1  0  0  0  0  0  0  0  0  0
  -27.2336  -31.2674   22.7135 C   0  0  2  0  0  0  0  0  0  0  0  0
  -22.6555  -30.4446   21.6279 C   0  0  0  0  0  0  0  0  0  0  0  0
  -27.1220  -17.2657   21.7264 N   0  0  0  0  0  0  0  0  0  0  0  0
  -28.2832  -17.8599   21.4030 N   0  0  0  0  0  0  0  0  0  0  0  0
  -24.1925  -27.2549   21.0549 N   0  0  0  0  0  0  0  0  0  0  0  0
  -28.6027  -21.6101   22.0494 N   0  0  0  0  0  0  0  0  0  0  0  0
  -30.1819  -17.6586   20.0012 N   0  0  0  0  0  0  0  0  0  0  0  0
  -27.7101  -14.0324   18.9347 N   0  0  0  0  0  0  0  0  0  0  0  0
  -29.9018  -22.4168   20.2538 N   0  0  0  0  0  0  0  0  0  0  0  0
  -21.8283  -24.6300   21.5554 N   0  0  0  0  0  0  0  0  0  0  0  0
  -29.9782  -26.9087   15.7083 N   0  0  0  0  0  0  0  0  0  0  0  0
  -25.0901  -30.2733   22.2966 N   0  0  0  0  0  0  0  0  0  0  0  0
  -28.6397  -30.9567   22.3298 N   0  3  0  0  0  0  0  0  0  0  0  0
  -29.6661  -15.1467   18.4975 O   0  0  0  0  0  0  0  0  0  0  0  0
  -22.1992  -26.0775   19.7694 O   0  0  0  0  0  0  0  0  0  0  0  0
  -23.5476  -28.0190   23.1612 O   0  0  0  0  0  0  0  0  0  0  0  0
  -29.7625  -25.3911   13.9617 O   0  0  0  0  0  0  0  0  0  0  0  0
  -26.5303  -30.5827   20.5058 O   0  0  0  0  0  0  0  0  0  0  0  0
  -29.7104  -23.6319   22.2207 O   0  0  0  0  0  0  0  0  0  0  0  0
  -22.7875  -12.6379   21.1390 O   0  0  0  0  0  0  0  0  0  0  0  0
  -26.6813  -25.8864   15.5790 O   0  0  0  0  0  0  0  0  0  1  0  0
  -23.9095   -7.2403   21.2420 F   0  0  0  0  0  0  0  0  0  0  0  0
  -21.9679  -11.0591   23.2551 F   0  0  0  0  0  0  0  0  0  0  0  0
  1  2  1  0  0  0  0
  1  5  2  0  0  0  0
  2  6  2  0  0  0  0
  3 12  2  0  0  0  0
  3 19  1  0  0  0  0
  4 13  1  0  0  0  0
  4 19  2  0  0  0  0
  5 21  1  0  0  0  0
  6 23  1  0  0  0  0
  7 14  2  0  0  0  0
  7 22  1  0  0  0  0
  8 10  2  0  0  0  0
  8 25  1  0  0  0  0
  9 11  1  0  0  0  0
  9 25  2  0  0  0  0
 10 26  1  0  0  0  0
 11 26  2  0  0  0  0
 12 27  1  0  0  0  0
 13 27  2  0  0  0  0
 14 28  1  0  0  0  0
 15 16  2  0  0  0  0
 15 29  1  0  0  0  0
 16 30  1  0  0  0  0
 17 24  1  0  0  0  0
 17 28  2  0  0  0  0
 18 30  2  0  0  0  0
 18 31  1  0  0  0  0
 19 32  1  0  0  0  0
 20 32  1  0  0  0  0
 20 33  2  0  0  0  0
 20 34  1  0  0  0  0
 21 23  2  0  0  0  0
 21 40  1  0  0  0  0
 22 24  2  0  0  0  0
 22 41  1  0  0  0  0
 23 49  1  0  0  0  0
 24 42  1  0  0  0  0
 25 57  1  0  0  0  0
 26 69  1  0  0  0  0
 27 80  1  0  0  0  0
 28 81  1  0  0  0  0
 29 31  2  0  0  0  0
 29 80  1  0  0  0  0
 30 82  1  0  0  0  0
 31 83  1  0  0  0  0
 32 63  2  0  0  0  0
 33 64  1  0  0  0  0
 33 67  1  0  0  0  0
 34 68  1  0  0  0  0
 34 74  2  0  0  0  0
 35 50  1  0  0  0  0
 35 70  1  0  0  0  0
 35 75  2  0  0  0  0
 36 60  1  0  0  0  0
 36 65  1  0  0  0  0
 36 76  2  0  0  0  0
 37 58  1  0  0  0  0
 37 71  1  0  0  0  0
 37 77  2  0  0  0  0
 38 61  1  0  0  0  0
 38 72  1  0  0  0  0
 38 78  2  0  0  0  0
 39 66  1  0  0  0  0
 39 69  1  0  0  0  0
 39 79  2  0  0  0  0
 40 43  1  0  0  0  0
 41 50  1  0  0  0  0
 42 65  1  0  0  0  0
 43 45  1  0  0  0  0
 44 46  1  0  0  0  0
 44 47  1  0  0  0  0
 45 49  1  0  0  0  0
 46 51  1  0  0  0  0
 47 66  1  0  0  0  0
 48 51  1  0  0  0  0
 48 66  1  0  0  0  0
 49 70  1  0  0  0  0
 50 65  1  0  0  0  0
 51 64  1  0  0  0  0
 52 61  1  0  0  0  0
 53 62  1  0  0  0  0
 54 62  1  0  0  0  0
 55 62  1  0  0  0  0
 56 73  1  0  0  0  0
 57 71  1  0  0  0  0
 58 59  1  0  0  0  0
 59 81  1  0  0  0  0
 60 62  1  0  0  0  0
 60 72  1  0  0  0  0
 61 73  1  0  0  0  0
 63 64  1  0  0  0  0
M  CHG  1  73   1
M  ISO  4  39 100  59 101  69 100  81 101
M  END
> <Batch ID>
0055

> <Smiles>
CNC(C)C(=O)NC(C(=O)N1Cc2cc([101O:1][101CH2:1]CC(=O)NCc3ccc([100NH:0][100C:0](=O)N4CCCC(n5nc(-c6ccc(Oc7ccc(F)cc7F)cc6)c(C(N)=O)c5N)C4)cc3)ccc2CC1C(=O)NC1CCCc2ccccc21)C(C)(C)C

> <Shape>
0.232

> <Color>
0.040

> <Negative vol penalty>
0.000

$$$$

  -OEChem-04042322493D

 87 96  0     1  0  0  0  0  0999 V2000
  -20.4026  -34.4827   21.3015 C   0  0  0  0  0  0  0  0  0  0  0  0
  -21.6108  -33.8652   20.9943 C   0  0  0  0  0  0  0  0  0  0  0  0
  -22.7272  -10.1516   20.2654 C   0  0  0  0  0  0  0  0  0  0  0  0
  -24.5453   -9.0956   21.4556 C   0  0  0  0  0  0  0  0  0  0  0  0
  -19.5616  -33.9263   22.2644 C   0  0  0  0  0  0  0  0  0  0  0  0
  -21.9792  -32.6914   21.6507 C   0  0  0  0  0  0  0  0  0  0  0  0
  -25.1173  -27.9877   19.2983 C   0  0  0  0  0  0  0  0  0  0  0  0
  -21.8180   -9.6114   21.1749 C   0  0  0  0  0  0  0  0  0  0  0  0
  -23.6361   -8.5554   22.3651 C   0  0  0  0  0  0  0  0  0  0  0  0
  -26.4636  -27.6314   19.3648 C   0  0  0  0  0  0  0  0  0  0  0  0
  -21.4646   -5.9664   22.4773 C   0  0  0  0  0  0  0  0  0  0  0  0
  -21.6160   -4.6242   22.8255 C   0  0  0  0  0  0  0  0  0  0  0  0
  -25.9742  -26.1493   21.2041 C   0  0  0  0  0  0  0  0  0  0  0  0
  -31.0573  -18.7078   20.2807 C   0  0  0  0  0  0  0  0  0  0  0  0
  -28.6543  -18.8388   20.4934 C   0  0  0  0  0  0  0  0  0  0  0  0
  -21.9121   -5.2575   25.1381 C   0  0  0  0  0  0  0  0  0  0  0  0
  -24.0908   -9.8937   20.4057 C   0  0  0  0  0  0  0  0  0  0  0  0
  -25.0711  -10.2360   18.0756 C   0  0  0  0  0  0  0  0  0  0  0  0
  -19.9155  -32.7398   22.9259 C   0  0  0  0  0  0  0  0  0  0  0  0
  -24.1897  -27.4348   20.1929 C   0  0  0  0  0  0  0  0  0  0  0  0
  -21.1429  -32.1193   22.6243 C   0  0  0  0  0  0  0  0  0  0  0  0
  -24.6164  -26.4983   21.1452 C   0  0  0  0  0  0  0  0  0  0  0  0
  -31.1473  -20.0899   20.4461 C   0  0  0  0  0  0  0  0  0  0  0  0
  -28.7443  -20.2209   20.6589 C   0  0  0  0  0  0  0  0  0  0  0  0
  -29.9908  -20.8464   20.6353 C   0  0  0  0  0  0  0  0  0  0  0  0
  -29.8108  -18.0823   20.3042 C   0  0  0  0  0  0  0  0  0  0  0  0
  -22.2724   -8.8133   22.2247 C   0  0  0  0  0  0  0  0  0  0  0  0
  -26.8927  -26.7142   20.3196 C   0  0  0  0  0  0  0  0  0  0  0  0
  -21.5369   -6.9542   23.4596 C   0  0  0  0  0  0  0  0  0  0  0  0
  -21.8398   -4.2697   24.1558 C   0  0  0  0  0  0  0  0  0  0  0  0
  -21.7607   -6.5997   24.7900 C   0  0  0  0  0  0  0  0  0  0  0  0
  -25.0305  -10.4510   19.4662 C   0  0  0  0  0  0  0  0  0  0  0  0
  -26.1399  -10.9828   17.6438 C   0  0  0  0  0  0  0  0  0  0  0  0
  -30.0317  -23.1432   19.6977 C   0  0  0  0  0  0  0  0  0  0  0  0
  -24.2189   -9.4330   17.2481 C   0  0  0  0  0  0  0  0  0  0  0  0
  -22.2654  -28.6040   22.4365 C   0  0  0  0  0  0  0  0  0  0  0  0
  -21.1939  -25.5448   22.5616 C   0  0  0  0  0  0  0  0  0  0  0  0
  -21.8073  -22.2349   22.0001 C   0  0  0  0  0  0  0  0  0  0  0  0
  -28.5646  -15.8910   20.1310 C   0  0  0  0  0  0  0  0  0  0  0  0
  -18.9958  -32.2017   23.9932 C   0  0  0  0  0  0  0  0  0  0  0  0
  -22.7365  -27.8094   20.0907 C   0  0  0  0  0  0  0  0  0  0  0  0
  -23.6570  -25.8605   22.1154 C   0  0  0  0  0  0  0  0  0  0  0  0
  -30.4649  -24.5793   19.9368 C   0  0  0  0  0  0  0  0  0  0  0  0
  -19.2871  -30.7525   24.3743 C   0  0  0  0  0  0  0  0  0  0  0  0
  -30.1693  -12.4125   19.9096 C   0  0  0  0  0  0  0  0  0  0  0  0
  -20.7838  -30.5464   24.5845 C   0  0  0  0  0  0  0  0  0  0  0  0
  -29.1734  -11.7331   18.9727 C   0  0  0  0  0  0  0  0  0  0  0  0
  -30.5834  -24.2027   22.3672 C   0  0  0  0  0  0  0  0  0  0  0  0
  -30.1524  -13.9294   19.7687 C   0  0  0  0  0  0  0  0  0  0  0  0
  -30.0263  -22.7995   22.1847 C   0  0  0  0  0  0  0  0  0  0  0  0
  -27.6817  -13.5746   19.9288 C   0  0  0  0  0  0  0  0  0  0  0  0
  -21.5662  -30.8315   23.2969 C   0  0  1  0  0  0  0  0  0  0  0  0
  -21.9660  -27.5724   21.3859 C   0  0  1  0  0  0  0  0  0  0  0  0
  -30.0790  -25.1510   21.2909 C   0  0  2  0  0  0  0  0  0  0  0  0
  -27.8491  -12.5098   18.8336 C   0  0  2  0  0  0  0  0  0  0  0  0
  -32.4968  -20.7316   20.4150 C   0  0  0  0  0  0  0  0  0  0  0  0
  -27.4877  -21.0049   20.8601 C   0  0  0  0  0  0  0  0  0  0  0  0
  -20.7556  -19.9688   22.2366 C   0  0  0  0  0  0  0  0  0  0  0  0
  -21.7304  -25.6119   25.5646 C   0  0  0  0  0  0  0  0  0  0  0  0
  -21.5809  -23.1128   25.5766 C   0  0  0  0  0  0  0  0  0  0  0  0
  -19.6007  -24.4758   24.9104 C   0  0  0  0  0  0  0  0  0  0  0  0
  -21.9374  -21.7423   19.0847 C   0  0  0  0  0  0  0  0  0  0  0  0
  -28.5764  -25.4198   21.3899 C   0  0  0  0  0  0  0  0  0  1  0  0
  -21.5756  -24.3094   23.3408 C   0  0  1  0  0  0  0  0  0  0  0  0
  -20.9818  -21.1592   21.3176 C   0  0  2  0  0  0  0  0  0  0  0  0
  -21.1405  -24.3908   24.8312 C   0  0  0  0  0  0  0  0  0  0  0  0
  -25.9967  -11.2701   19.8898 N   0  0  0  0  0  0  0  0  0  0  0  0
  -26.6546  -11.5764   18.7587 N   0  0  0  0  0  0  0  0  0  0  0  0
  -30.0835  -22.2814   20.8068 N   0  0  0  0  0  0  0  0  0  0  0  0
  -22.2476  -26.2639   21.9798 N   0  0  0  0  0  0  0  0  0  0  0  0
  -28.8124  -14.5100   19.9371 N   0  0  0  0  0  0  0  0  0  0  0  0
  -26.6802  -11.1831   16.4230 N   0  0  0  0  0  0  0  0  0  0  0  0
  -24.5664   -8.0922   17.0337 N   0  0  0  0  0  0  0  0  0  0  0  0
  -29.7193  -16.6780   20.1352 N   0  0  0  0  0  0  0  0  0  0  0  0
  -21.4510  -29.7188   22.3786 N   0  0  0  0  0  0  0  0  0  0  0  0
  -21.0102  -23.1777   22.6142 N   0  0  0  0  0  0  0  0  0  0  0  0
  -21.6725  -20.6787   20.0875 N   0  3  0  0  0  0  0  0  0  0  0  0
  -29.7227  -22.8152   18.5490 O   0  0  0  0  0  0  0  0  0  0  0  0
  -23.1890   -9.8953   16.7013 O   0  0  0  0  0  0  0  0  0  0  0  0
  -23.1676  -28.4027   23.2410 O   0  0  0  0  0  0  0  0  0  0  0  0
  -20.0041  -25.8563   22.4666 O   0  0  0  0  0  0  0  0  0  0  0  0
  -23.0363  -22.2366   21.9926 O   0  0  0  0  0  0  0  0  0  0  0  0
  -27.4212  -16.3311   20.2676 O   0  0  0  0  0  0  0  0  0  0  0  0
  -21.3856   -8.2862   23.1125 O   0  0  0  0  0  0  0  0  0  0  0  0
  -28.2063  -26.3652   20.3871 O   0  0  0  0  0  0  0  0  0  1  0  0
  -21.9837   -2.9807   24.4902 F   0  0  0  0  0  0  0  0  0  0  0  0
  -21.8300   -7.5441   25.7382 F   0  0  0  0  0  0  0  0  0  0  0  0
  1  2  1  0  0  0  0
  1  5  2  0  0  0  0
  2  6  2  0  0  0  0
  3  8  2  0  0  0  0
  3 17  1  0  0  0  0
  4  9  1  0  0  0  0
  4 17  2  0  0  0  0
  5 19  1  0  0  0  0
  6 21  1  0  0  0  0
  7 10  2  0  0  0  0
  7 20  1  0  0  0  0
  8 27  1  0  0  0  0
  9 27  2  0  0  0  0
 10 28  1  0  0  0  0
 11 12  2  0  0  0  0
 11 29  1  0  0  0  0
 12 30  1  0  0  0  0
 13 22  1  0  0  0  0
 13 28  2  0  0  0  0
 14 23  2  0  0  0  0
 14 26  1  0  0  0  0
 15 24  1  0  0  0  0
 15 26  2  0  0  0  0
 16 30  2  0  0  0  0
 16 31  1  0  0  0  0
 17 32  1  0  0  0  0
 18 32  1  0  0  0  0
 18 33  2  0  0  0  0
 18 35  1  0  0  0  0
 19 21  2  0  0  0  0
 19 40  1  0  0  0  0
 20 22  2  0  0  0  0
 20 41  1  0  0  0  0
 21 52  1  0  0  0  0
 22 42  1  0  0  0  0
 23 25  1  0  0  0  0
 23 56  1  0  0  0  0
 24 25  2  0  0  0  0
 24 57  1  0  0  0  0
 25 69  1  0  0  0  0
 26 74  1  0  0  0  0
 27 84  1  0  0  0  0
 28 85  1  0  0  0  0
 29 31  2  0  0  0  0
 29 84  1  0  0  0  0
 30 86  1  0  0  0  0
 31 87  1  0  0  0  0
 32 67  2  0  0  0  0
 33 68  1  0  0  0  0
 33 72  1  0  0  0  0
 34 43  1  0  0  0  0
 34 69  1  0  0  0  0
 34 78  2  0  0  0  0
 35 73  1  0  0  0  0
 35 79  2  0  0  0  0
 36 53  1  0  0  0  0
 36 75  1  0  0  0  0
 36 80  2  0  0  0  0
 37 64  1  0  0  0  0
 37 70  1  0  0  0  0
 37 81  2  0  0  0  0
 38 65  1  0  0  0  0
 38 76  1  0  0  0  0
 38 82  2  0  0  0  0
 39 71  1  0  0  0  0
 39 74  1  0  0  0  0
 39 83  2  0  0  0  0
 40 44  1  0  0  0  0
 41 53  1  0  0  0  0
 42 70  1  0  0  0  0
 43 54  1  0  0  0  0
 44 46  1  0  0  0  0
 45 47  1  0  0  0  0
 45 49  1  0  0  0  0
 46 52  1  0  0  0  0
 47 55  1  0  0  0  0
 48 50  1  0  0  0  0
 48 54  1  0  0  0  0
 49 71  1  0  0  0  0
 50 69  1  0  0  0  0
 51 55  1  0  0  0  0
 51 71  1  0  0  0  0
 52 75  1  0  0  0  0
 53 70  1  0  0  0  0
 54 63  1  0  0  0  0
 55 68  1  0  0  0  0
 58 65  1  0  0  0  0
 59 66  1  0  0  0  0
 60 66  1  0  0  0  0
 61 66  1  0  0  0  0
 62 77  1  0  0  0  0
 63 85  1  0  0  0  0
 64 66  1  0  0  0  0
 64 76  1  0  0  0  0
 65 77  1  0  0  0  0
 67 68  1  0  0  0  0
M  CHG  1  77   1
M  ISO  4  39 100  63 101  74 100  85 101
M  END
> <Batch ID>
0055

> <Smiles>
CNC(C)C(=O)NC(C(=O)N1Cc2cc([101O:1][101CH2:1]C3CCN(c4c(C)cc([100NH:0][100C:0](=O)N5CCCC(n6nc(-c7ccc(Oc8ccc(F)cc8F)cc7)c(C(N)=O)c6N)C5)cc4C)C(=O)C3)ccc2CC1C(=O)NC1CCCc2ccccc21)C(C)(C)C

> <Shape>
0.261

> <Color>
0.126

> <Negative vol penalty>
0.000

$$$$

  -OEChem-04042322493D

 84 92  0     1  0  0  0  0  0999 V2000
  -27.2139  -36.0288   22.8627 C   0  0  0  0  0  0  0  0  0  0  0  0
  -27.5953  -34.6928   22.7924 C   0  0  0  0  0  0  0  0  0  0  0  0
  -24.4921   -8.8571   20.9915 C   0  0  0  0  0  0  0  0  0  0  0  0
  -22.7601  -10.5136   21.2972 C   0  0  0  0  0  0  0  0  0  0  0  0
  -25.8900  -36.3606   23.1477 C   0  0  0  0  0  0  0  0  0  0  0  0
  -26.6532  -33.6876   23.0082 C   0  0  0  0  0  0  0  0  0  0  0  0
  -26.9834  -29.9523   19.6048 C   0  0  0  0  0  0  0  0  0  0  0  0
  -29.7055  -18.8116   21.7841 C   0  0  0  0  0  0  0  0  0  0  0  0
  -23.5521   -7.8417   21.1674 C   0  0  0  0  0  0  0  0  0  0  0  0
  -21.8201   -9.4982   21.4731 C   0  0  0  0  0  0  0  0  0  0  0  0
  -28.0062  -29.0210   19.7787 C   0  0  0  0  0  0  0  0  0  0  0  0
  -21.6715   -4.8152   21.8938 C   0  0  0  0  0  0  0  0  0  0  0  0
  -22.0153   -3.7477   22.7231 C   0  0  0  0  0  0  0  0  0  0  0  0
  -30.3657  -19.7467   20.9948 C   0  0  0  0  0  0  0  0  0  0  0  0
  -26.4304  -27.4837   20.7649 C   0  0  0  0  0  0  0  0  0  0  0  0
  -22.2971   -5.2757   24.5732 C   0  0  0  0  0  0  0  0  0  0  0  0
  -24.0962  -10.1930   21.0565 C   0  0  0  0  0  0  0  0  0  0  0  0
  -25.4396  -11.8559   19.6644 C   0  0  0  0  0  0  0  0  0  0  0  0
  -24.9291  -35.3589   23.3575 C   0  0  0  0  0  0  0  0  0  0  0  0
  -25.6764  -29.6600   20.0202 C   0  0  0  0  0  0  0  0  0  0  0  0
  -25.3155  -34.0063   23.2976 C   0  0  0  0  0  0  0  0  0  0  0  0
  -25.3923  -28.4120   20.5928 C   0  0  0  0  0  0  0  0  0  0  0  0
  -28.4431  -18.3633   21.4119 C   0  0  0  0  0  0  0  0  0  0  0  0
  -22.2160   -8.1623   21.4082 C   0  0  0  0  0  0  0  0  0  0  0  0
  -27.7304  -27.7876   20.3615 C   0  0  0  0  0  0  0  0  0  0  0  0
  -21.6407   -6.1131   22.4041 C   0  0  0  0  0  0  0  0  0  0  0  0
  -22.3280   -3.9779   24.0628 C   0  0  0  0  0  0  0  0  0  0  0  0
  -21.9534   -6.3433   23.7438 C   0  0  0  0  0  0  0  0  0  0  0  0
  -25.0668  -11.2424   20.8754 C   0  0  0  0  0  0  0  0  0  0  0  0
  -29.7255  -20.1986   19.8521 C   0  0  0  0  0  0  0  0  0  0  0  0
  -27.8888  -18.8772   20.2507 C   0  0  0  0  0  0  0  0  0  0  0  0
  -26.3876  -12.7816   20.0260 C   0  0  0  0  0  0  0  0  0  0  0  0
  -29.5234  -24.7028   20.0253 C   0  0  0  0  0  0  0  0  0  0  0  0
  -28.6017  -25.6625   19.9190 C   0  0  0  0  0  0  0  0  0  1  0  0
  -24.9707  -11.6109   18.3318 C   0  0  0  0  0  0  0  0  0  0  0  0
  -29.3244  -23.4035   19.3301 C   0  0  0  0  0  0  0  0  0  0  0  0
  -23.6624  -30.9124   22.1367 C   0  0  0  0  0  0  0  0  0  0  0  0
  -21.5932  -28.7695   20.8526 C   0  0  0  0  0  0  0  0  0  0  0  0
  -21.1333  -25.8369   19.1688 C   0  0  0  0  0  0  0  0  0  0  0  0
  -28.2137  -16.8233   23.3924 C   0  0  0  0  0  0  0  0  0  0  0  0
  -23.5204  -35.7667   23.7094 C   0  0  0  0  0  0  0  0  0  0  0  0
  -24.5790  -30.6651   19.8011 C   0  0  0  0  0  0  0  0  0  0  0  0
  -24.0018  -28.0414   21.0373 C   0  0  0  0  0  0  0  0  0  0  0  0
  -22.5033  -34.6388   23.5552 C   0  0  0  0  0  0  0  0  0  0  0  0
  -28.8177  -13.4662   24.4133 C   0  0  0  0  0  0  0  0  0  0  0  0
  -23.0294  -33.3552   24.1895 C   0  0  0  0  0  0  0  0  0  0  0  0
  -27.9264  -12.6389   23.4842 C   0  0  0  0  0  0  0  0  0  0  0  0
  -28.1544  -14.7837   24.8106 C   0  0  0  0  0  0  0  0  0  0  0  0
  -26.7903  -14.7768   22.7591 C   0  0  0  0  0  0  0  0  0  0  0  0
  -24.3173  -32.8872   23.5012 C   0  0  1  0  0  0  0  0  0  0  0  0
  -23.3867  -30.4601   20.7306 C   0  0  1  0  0  0  0  0  0  0  0  0
  -27.4429  -13.4700   22.2796 C   0  0  2  0  0  0  0  0  0  0  0  0
  -26.5351  -18.4345   19.7982 C   0  0  0  0  0  0  0  0  0  0  0  0
  -19.3274  -24.3273   18.2986 C   0  0  0  0  0  0  0  0  0  0  0  0
  -21.0728  -27.7631   23.6856 C   0  0  0  0  0  0  0  0  0  0  0  0
  -20.0450  -25.7077   22.6919 C   0  0  0  0  0  0  0  0  0  0  0  0
  -19.0319  -27.9444   22.2515 C   0  0  0  0  0  0  0  0  0  0  0  0
  -22.0527  -26.1560   16.3738 C   0  0  0  0  0  0  0  0  0  0  0  0
  -30.4089  -21.2086   18.9763 C   0  0  0  0  0  0  0  0  0  0  0  0
  -21.2215  -27.3356   21.1437 C   0  0  1  0  0  0  0  0  0  0  0  0
  -20.2597  -25.4853   17.9781 C   0  0  2  0  0  0  0  0  0  0  0  0
  -20.3695  -27.1951   22.4367 C   0  0  0  0  0  0  0  0  0  0  0  0
  -25.7246  -11.7366   21.9276 N   0  0  0  0  0  0  0  0  0  0  0  0
  -28.4997  -19.7864   19.4583 N   0  0  0  0  0  0  0  0  0  0  0  0
  -26.5202  -12.6703   21.3789 N   0  0  0  0  0  0  0  0  0  0  0  0
  -22.9641  -29.0602   20.8075 N   0  0  0  0  0  0  0  0  0  0  0  0
  -27.7262  -15.5187   23.6184 N   0  0  0  0  0  0  0  0  0  0  0  0
  -27.1125  -13.6716   19.3156 N   0  0  0  0  0  0  0  0  0  0  0  0
  -23.9941  -10.6246   18.1378 N   0  0  0  0  0  0  0  0  0  0  0  0
  -27.7633  -17.4105   22.2105 N   0  0  0  0  0  0  0  0  0  0  0  0
  -30.3772  -22.5325   19.5520 N   0  0  0  0  0  0  0  0  0  0  0  0
  -24.0121  -32.2452   22.2406 N   0  0  0  0  0  0  0  0  0  0  0  0
  -20.5692  -26.8306   19.9405 N   0  0  0  0  0  0  0  0  0  0  0  0
  -21.1039  -25.1002   16.8120 N   0  3  0  0  0  0  0  0  0  0  0  0
  -25.4168  -12.2365   17.3402 O   0  0  0  0  0  0  0  0  0  0  0  0
  -28.3342  -23.1641   18.6464 O   0  0  0  0  0  0  0  0  0  0  0  0
  -23.5637  -30.1118   23.0592 O   0  0  0  0  0  0  0  0  0  0  0  0
  -20.7003  -29.5995   20.6648 O   0  0  0  0  0  0  0  0  0  0  0  0
  -22.2069  -25.2827   19.3939 O   0  0  0  0  0  0  0  0  0  0  0  0
  -28.9963  -17.3684   24.1750 O   0  0  0  0  0  0  0  0  0  0  0  0
  -21.2984   -7.1718   21.5797 O   0  0  0  0  0  0  0  0  0  0  0  0
  -28.7270  -26.8770   20.5331 O   0  0  0  0  0  0  0  0  0  1  0  0
  -22.6566   -2.9524   24.8594 F   0  0  0  0  0  0  0  0  0  0  0  0
  -21.9243   -7.5877   24.2401 F   0  0  0  0  0  0  0  0  0  0  0  0
  1  2  1  0  0  0  0
  1  5  2  0  0  0  0
  2  6  2  0  0  0  0
  3  9  2  0  0  0  0
  3 17  1  0  0  0  0
  4 10  1  0  0  0  0
  4 17  2  0  0  0  0
  5 19  1  0  0  0  0
  6 21  1  0  0  0  0
  7 11  2  0  0  0  0
  7 20  1  0  0  0  0
  8 14  2  0  0  0  0
  8 23  1  0  0  0  0
  9 24  1  0  0  0  0
 10 24  2  0  0  0  0
 11 25  1  0  0  0  0
 12 13  2  0  0  0  0
 12 26  1  0  0  0  0
 13 27  1  0  0  0  0
 14 30  1  0  0  0  0
 15 22  1  0  0  0  0
 15 25  2  0  0  0  0
 16 27  2  0  0  0  0
 16 28  1  0  0  0  0
 17 29  1  0  0  0  0
 18 29  1  0  0  0  0
 18 32  2  0  0  0  0
 18 35  1  0  0  0  0
 19 21  2  0  0  0  0
 19 41  1  0  0  0  0
 20 22  2  0  0  0  0
 20 42  1  0  0  0  0
 21 50  1  0  0  0  0
 22 43  1  0  0  0  0
 23 31  2  0  0  0  0
 23 70  1  0  0  0  0
 24 81  1  0  0  0  0
 25 82  1  0  0  0  0
 26 28  2  0  0  0  0
 26 81  1  0  0  0  0
 27 83  1  0  0  0  0
 28 84  1  0  0  0  0
 29 63  2  0  0  0  0
 30 59  1  0  0  0  0
 30 64  2  0  0  0  0
 31 53  1  0  0  0  0
 31 64  1  0  0  0  0
 32 65  1  0  0  0  0
 32 68  1  0  0  0  0
 33 34  2  0  0  0  0
 33 36  1  0  0  0  0
 34 82  1  0  0  0  0
 35 69  1  0  0  0  0
 35 75  2  0  0  0  0
 36 71  1  0  0  0  0
 36 76  2  0  0  0  0
 37 51  1  0  0  0  0
 37 72  1  0  0  0  0
 37 77  2  0  0  0  0
 38 60  1  0  0  0  0
 38 66  1  0  0  0  0
 38 78  2  0  0  0  0
 39 61  1  0  0  0  0
 39 73  1  0  0  0  0
 39 79  2  0  0  0  0
 40 67  1  0  0  0  0
 40 70  1  0  0  0  0
 40 80  2  0  0  0  0
 41 44  1  0  0  0  0
 42 51  1  0  0  0  0
 43 66  1  0  0  0  0
 44 46  1  0  0  0  0
 45 47  1  0  0  0  0
 45 48  1  0  0  0  0
 46 50  1  0  0  0  0
 47 52  1  0  0  0  0
 48 67  1  0  0  0  0
 49 52  1  0  0  0  0
 49 67  1  0  0  0  0
 50 72  1  0  0  0  0
 51 66  1  0  0  0  0
 52 65  1  0  0  0  0
 54 61  1  0  0  0  0
 55 62  1  0  0  0  0
 56 62  1  0  0  0  0
 57 62  1  0  0  0  0
 58 74  1  0  0  0  0
 59 71  1  0  0  0  0
 60 62  1  0  0  0  0
 60 73  1  0  0  0  0
 61 74  1  0  0  0  0
 63 65  1  0  0  0  0
M  CHG  1  74   1
M  ISO  4  34 101  40 100  70 100  82 101
M  END
> <Batch ID>
0055

> <Smiles>
CNC(C)C(=O)NC(C(=O)N1Cc2cc([101O:1][101CH:1]=CC(=O)NCc3ccc([100NH:0][100C:0](=O)N4CCCC(n5nc(-c6ccc(Oc7ccc(F)cc7F)cc6)c(C(N)=O)c5N)C4)c(C)n3)ccc2CC1C(=O)NC1CCCc2ccccc21)C(C)(C)C

> <Shape>
0.326

> <Color>
0.114

> <Negative vol penalty>
0.000

$$$$

  -OEChem-04042322493D

 83 91  0     1  0  0  0  0  0999 V2000
  -26.9254  -20.0028   26.8032 C   0  0  0  0  0  0  0  0  0  0  0  0
  -27.1321  -20.7154   25.6264 C   0  0  0  0  0  0  0  0  0  0  0  0
  -28.3855  -10.8363   21.8645 C   0  0  0  0  0  0  0  0  0  0  0  0
  -27.0431  -11.5414   19.9836 C   0  0  0  0  0  0  0  0  0  0  0  0
  -25.7869  -20.2428   27.5714 C   0  0  0  0  0  0  0  0  0  0  0  0
  -26.1997  -21.6678   25.2165 C   0  0  0  0  0  0  0  0  0  0  0  0
  -28.3726  -25.9652   23.6495 C   0  0  0  0  0  0  0  0  0  0  0  0
  -30.9818  -19.8219   16.7056 C   0  0  0  0  0  0  0  0  0  0  0  0
  -27.5446   -9.7396   22.0535 C   0  0  0  0  0  0  0  0  0  0  0  0
  -26.2023  -10.4447   20.1725 C   0  0  0  0  0  0  0  0  0  0  0  0
  -28.9275  -25.9686   22.3705 C   0  0  0  0  0  0  0  0  0  0  0  0
  -23.6653   -9.5760   22.2318 C   0  0  0  0  0  0  0  0  0  0  0  0
  -22.2893   -9.7972   22.1765 C   0  0  0  0  0  0  0  0  0  0  0  0
  -31.0856  -20.6726   15.6051 C   0  0  0  0  0  0  0  0  0  0  0  0
  -26.9639  -27.0884   21.5280 C   0  0  0  0  0  0  0  0  0  0  0  0
  -29.9111  -21.5831   17.9661 C   0  0  0  0  0  0  0  0  0  0  0  0
  -22.1150   -8.2519   20.3275 C   0  0  0  0  0  0  0  0  0  0  0  0
  -28.1347  -11.7373   20.8296 C   0  0  0  0  0  0  0  0  0  0  0  0
  -30.1576  -12.9286   19.8314 C   0  0  0  0  0  0  0  0  0  0  0  0
  -24.8449  -21.2055   27.1757 C   0  0  0  0  0  0  0  0  0  0  0  0
  -27.1024  -26.5146   23.8757 C   0  0  0  0  0  0  0  0  0  0  0  0
  -25.0468  -21.9200   25.9794 C   0  0  0  0  0  0  0  0  0  0  0  0
  -26.3962  -27.0931   22.8113 C   0  0  0  0  0  0  0  0  0  0  0  0
  -30.3944  -20.2771   17.8861 C   0  0  0  0  0  0  0  0  0  0  0  0
  -30.0151  -22.4339   16.8656 C   0  0  0  0  0  0  0  0  0  0  0  0
  -26.4530   -9.5437   21.2075 C   0  0  0  0  0  0  0  0  0  0  0  0
  -28.2219  -26.5276   21.3090 C   0  0  0  0  0  0  0  0  0  0  0  0
  -24.2663   -8.6927   21.3348 C   0  0  0  0  0  0  0  0  0  0  0  0
  -21.5141   -9.1352   21.2245 C   0  0  0  0  0  0  0  0  0  0  0  0
  -23.4911   -8.0307   20.3828 C   0  0  0  0  0  0  0  0  0  0  0  0
  -30.6023  -21.9786   15.6851 C   0  0  0  0  0  0  0  0  0  0  0  0
  -29.0026  -12.8707   20.6342 C   0  0  0  0  0  0  0  0  0  0  0  0
  -30.6176  -14.2138   19.9838 C   0  0  0  0  0  0  0  0  0  0  0  0
  -30.7606  -11.9117   19.0204 C   0  0  0  0  0  0  0  0  0  0  0  0
  -24.3161  -25.3769   24.8984 C   0  0  0  0  0  0  0  0  0  0  0  0
  -23.4469  -28.5005   24.7985 C   0  0  0  0  0  0  0  0  0  0  0  0
  -28.9108  -24.3383   18.0894 C   0  0  0  0  0  0  0  0  0  0  0  0
  -23.9619  -31.6107   23.4915 C   0  0  0  0  0  0  0  0  0  0  0  0
  -29.7329  -19.7047   20.2485 C   0  0  0  0  0  0  0  0  0  0  0  0
  -23.6060  -21.3964   28.0143 C   0  0  0  0  0  0  0  0  0  0  0  0
  -26.5292  -26.5271   25.2662 C   0  0  0  0  0  0  0  0  0  0  0  0
  -25.0378  -27.7139   23.0053 C   0  0  0  0  0  0  0  0  0  0  0  0
  -22.8537  -22.6880   27.7043 C   0  0  0  0  0  0  0  0  0  0  0  0
  -29.2481  -17.8380   23.2414 C   0  0  0  0  0  0  0  0  0  0  0  0
  -22.7021  -22.8689   26.1973 C   0  0  0  0  0  0  0  0  0  0  0  0
  -29.2361  -16.3841   22.7639 C   0  0  0  0  0  0  0  0  0  0  0  0
  -28.5726  -18.7703   22.2374 C   0  0  0  0  0  0  0  0  0  0  0  0
  -29.0702  -17.2233   20.3858 C   0  0  0  0  0  0  0  0  0  0  0  0
  -24.0706  -22.9788   25.5144 C   0  0  1  0  0  0  0  0  0  0  0  0
  -25.0089  -26.6530   25.2848 C   0  0  1  0  0  0  0  0  0  0  0  0
  -29.7971  -16.2558   21.3341 C   0  0  2  0  0  0  0  0  0  0  0  0
  -23.0692  -33.9546   23.5737 C   0  0  0  0  0  0  0  0  0  0  0  0
  -21.0801  -27.6571   23.0674 C   0  0  0  0  0  0  0  0  0  0  0  0
  -20.7951  -30.0562   22.4105 C   0  0  0  0  0  0  0  0  0  0  0  0
  -20.5445  -29.3806   24.7987 C   0  0  0  0  0  0  0  0  0  0  0  0
  -26.5354  -32.6798   24.4881 C   0  0  0  0  0  0  0  0  0  0  0  0
  -28.5208  -25.7804   17.7855 C   0  0  0  0  0  0  0  0  0  0  0  0
  -27.8527  -26.4789   18.9601 C   0  0  0  0  0  0  0  0  0  1  0  0
  -22.8467  -29.4103   23.7540 C   0  0  1  0  0  0  0  0  0  0  0  0
  -24.0781  -32.9735   24.1501 C   0  0  2  0  0  0  0  0  0  0  0  0
  -21.3413  -29.1127   23.5033 C   0  0  0  0  0  0  0  0  0  0  0  0
  -28.7449  -14.0271   21.2510 N   0  0  0  0  0  0  0  0  0  0  0  0
  -29.7444  -14.8237   20.8358 N   0  0  0  0  0  0  0  0  0  0  0  0
  -24.5171  -27.6960   24.3822 N   0  0  0  0  0  0  0  0  0  0  0  0
  -29.1584  -18.5966   20.9064 N   0  0  0  0  0  0  0  0  0  0  0  0
  -31.6798  -14.8703   19.4710 N   0  0  0  0  0  0  0  0  0  0  0  0
  -30.1582  -10.6470   18.9771 N   0  0  0  0  0  0  0  0  0  0  0  0
  -29.5159  -23.7531   16.9804 N   0  0  0  0  0  0  0  0  0  0  0  0
  -30.2876  -19.4119   19.0031 N   0  0  0  0  0  0  0  0  0  0  0  0
  -24.6272  -24.3007   25.7073 N   0  0  0  0  0  0  0  0  0  0  0  0
  -23.1209  -30.7739   24.1942 N   0  0  0  0  0  0  0  0  0  0  0  0
  -25.4450  -33.5318   23.9477 N   0  3  0  0  0  0  0  0  0  0  0  0
  -31.8120  -12.1136   18.3667 O   0  0  0  0  0  0  0  0  0  0  0  0
  -23.5544  -25.3696   23.9385 O   0  0  0  0  0  0  0  0  0  0  0  0
  -22.9880  -28.5087   25.9435 O   0  0  0  0  0  0  0  0  0  0  0  0
  -28.6948  -23.8195   19.1796 O   0  0  0  0  0  0  0  0  0  0  0  0
  -24.5547  -31.3190   22.4552 O   0  0  0  0  0  0  0  0  0  0  0  0
  -29.7570  -20.8250   20.7647 O   0  0  0  0  0  0  0  0  0  0  0  0
  -25.6325   -8.4735   21.3915 O   0  0  0  0  0  0  0  0  0  0  0  0
  -28.7610  -26.5316   20.0595 O   0  0  0  0  0  0  0  0  0  1  0  0
  -20.1925   -9.3466   21.1725 F   0  0  0  0  0  0  0  0  0  0  0  0
  -24.0626   -7.1800   19.5192 F   0  0  0  0  0  0  0  0  0  0  0  0
  -30.7544  -22.9990   14.2993 Cl  0  0  0  0  0  0  0  0  0  0  0  0
  1  2  1  0  0  0  0
  1  5  2  0  0  0  0
  2  6  2  0  0  0  0
  3  9  2  0  0  0  0
  3 18  1  0  0  0  0
  4 10  1  0  0  0  0
  4 18  2  0  0  0  0
  5 20  1  0  0  0  0
  6 22  1  0  0  0  0
  7 11  2  0  0  0  0
  7 21  1  0  0  0  0
  8 14  2  0  0  0  0
  8 24  1  0  0  0  0
  9 26  1  0  0  0  0
 10 26  2  0  0  0  0
 11 27  1  0  0  0  0
 12 13  2  0  0  0  0
 12 28  1  0  0  0  0
 13 29  1  0  0  0  0
 14 31  1  0  0  0  0
 15 23  1  0  0  0  0
 15 27  2  0  0  0  0
 16 24  2  0  0  0  0
 16 25  1  0  0  0  0
 17 29  2  0  0  0  0
 17 30  1  0  0  0  0
 18 32  1  0  0  0  0
 19 32  1  0  0  0  0
 19 33  2  0  0  0  0
 19 34  1  0  0  0  0
 20 22  2  0  0  0  0
 20 40  1  0  0  0  0
 21 23  2  0  0  0  0
 21 41  1  0  0  0  0
 22 49  1  0  0  0  0
 23 42  1  0  0  0  0
 24 69  1  0  0  0  0
 25 31  2  0  0  0  0
 25 68  1  0  0  0  0
 26 79  1  0  0  0  0
 27 80  1  0  0  0  0
 28 30  2  0  0  0  0
 28 79  1  0  0  0  0
 29 81  1  0  0  0  0
 30 82  1  0  0  0  0
 31 83  1  0  0  0  0
 32 62  2  0  0  0  0
 33 63  1  0  0  0  0
 33 66  1  0  0  0  0
 34 67  1  0  0  0  0
 34 73  2  0  0  0  0
 35 50  1  0  0  0  0
 35 70  1  0  0  0  0
 35 74  2  0  0  0  0
 36 59  1  0  0  0  0
 36 64  1  0  0  0  0
 36 75  2  0  0  0  0
 37 57  1  0  0  0  0
 37 68  1  0  0  0  0
 37 76  2  0  0  0  0
 38 60  1  0  0  0  0
 38 71  1  0  0  0  0
 38 77  2  0  0  0  0
 39 65  1  0  0  0  0
 39 69  1  0  0  0  0
 39 78  2  0  0  0  0
 40 43  1  0  0  0  0
 41 50  1  0  0  0  0
 42 64  1  0  0  0  0
 43 45  1  0  0  0  0
 44 46  1  0  0  0  0
 44 47  1  0  0  0  0
 45 49  1  0  0  0  0
 46 51  1  0  0  0  0
 47 65  1  0  0  0  0
 48 51  1  0  0  0  0
 48 65  1  0  0  0  0
 49 70  1  0  0  0  0
 50 64  1  0  0  0  0
 51 63  1  0  0  0  0
 52 60  1  0  0  0  0
 53 61  1  0  0  0  0
 54 61  1  0  0  0  0
 55 61  1  0  0  0  0
 56 72  1  0  0  0  0
 57 58  1  0  0  0  0
 58 80  1  0  0  0  0
 59 61  1  0  0  0  0
 59 71  1  0  0  0  0
 60 72  1  0  0  0  0
 62 63  1  0  0  0  0
M  CHG  1  72   1
M  ISO  4  39 100  58 101  69 100  80 101
M  END
> <Batch ID>
0055

> <Smiles>
CNC(C)C(=O)NC(C(=O)N1Cc2cc([101O:1][101CH2:1]CC(=O)Nc3cc([100NH:0][100C:0](=O)N4CCCC(n5nc(-c6ccc(Oc7ccc(F)cc7F)cc6)c(C(N)=O)c5N)C4)ccc3Cl)ccc2CC1C(=O)NC1CCCc2ccccc21)C(C)(C)C

> <Shape>
0.222

> <Color>
0.079

> <Negative vol penalty>
0.000

$$$$

  -OEChem-04042322493D

 87 95  0     1  0  0  0  0  0999 V2000
  -32.3816  -14.0708   20.2315 C   0  0  0  0  0  0  0  0  0  0  0  0
  -31.6291  -15.2024   20.5294 C   0  0  0  0  0  0  0  0  0  0  0  0
  -18.0965  -29.5082   22.6251 C   0  0  0  0  0  0  0  0  0  0  0  0
  -28.6228  -25.6340   18.6448 C   0  0  0  0  0  0  0  0  0  0  0  0
  -26.7221  -24.2072   19.0790 C   0  0  0  0  0  0  0  0  0  0  0  0
  -31.7509  -12.9197   19.7612 C   0  0  0  0  0  0  0  0  0  0  0  0
  -30.2456  -15.1839   20.3560 C   0  0  0  0  0  0  0  0  0  0  0  0
  -26.0664  -18.0573   23.7887 C   0  0  0  0  0  0  0  0  0  0  0  0
  -17.5437  -28.2440   22.4209 C   0  0  0  0  0  0  0  0  0  0  0  0
  -19.4819  -29.6671   22.6557 C   0  0  0  0  0  0  0  0  0  0  0  0
  -29.4811  -24.5552   18.8566 C   0  0  0  0  0  0  0  0  0  0  0  0
  -27.5805  -23.1283   19.2908 C   0  0  0  0  0  0  0  0  0  0  0  0
  -25.3790  -19.2584   23.6198 C   0  0  0  0  0  0  0  0  0  0  0  0
  -29.3523  -20.9504   17.4098 C   0  0  0  0  0  0  0  0  0  0  0  0
  -29.0200  -19.7333   16.8149 C   0  0  0  0  0  0  0  0  0  0  0  0
  -23.5130  -18.0517   22.6812 C   0  0  0  0  0  0  0  0  0  0  0  0
  -19.7620  -27.2973   22.2782 C   0  0  0  0  0  0  0  0  0  0  0  0
  -28.9192  -18.6956   18.9944 C   0  0  0  0  0  0  0  0  0  0  0  0
  -27.2432  -25.4600   18.7560 C   0  0  0  0  0  0  0  0  0  0  0  0
  -25.7772  -26.9739   17.3184 C   0  0  0  0  0  0  0  0  0  0  0  0
  -30.3580  -12.8839   19.5911 C   0  0  0  0  0  0  0  0  0  0  0  0
  -25.4856  -16.8433   23.3943 C   0  0  0  0  0  0  0  0  0  0  0  0
  -29.5960  -14.0317   19.8816 C   0  0  0  0  0  0  0  0  0  0  0  0
  -24.1940  -16.8363   22.8484 C   0  0  0  0  0  0  0  0  0  0  0  0
  -18.3765  -27.1385   22.2475 C   0  0  0  0  0  0  0  0  0  0  0  0
  -20.3147  -28.5616   22.4823 C   0  0  0  0  0  0  0  0  0  0  0  0
  -28.9600  -23.3023   19.1796 C   0  0  0  0  0  0  0  0  0  0  0  0
  -24.1033  -19.2561   23.0634 C   0  0  0  0  0  0  0  0  0  0  0  0
  -29.4681  -21.0401   18.7970 C   0  0  0  0  0  0  0  0  0  0  0  0
  -28.8034  -18.6059   17.6072 C   0  0  0  0  0  0  0  0  0  0  0  0
  -29.2515  -19.9126   19.5893 C   0  0  0  0  0  0  0  0  0  0  0  0
  -26.3561  -26.5742   18.5378 C   0  0  0  0  0  0  0  0  0  0  0  0
  -25.0229  -28.0754   17.6411 C   0  0  0  0  0  0  0  0  0  0  0  0
  -25.9095  -26.4006   16.0109 C   0  0  0  0  0  0  0  0  0  0  0  0
  -26.2209  -14.5874   21.2792 C   0  0  0  0  0  0  0  0  0  0  0  0
  -23.7030  -13.0497   22.6273 C   0  0  0  0  0  0  0  0  0  0  0  0
  -18.9267  -23.6782   22.7669 C   0  0  0  0  0  0  0  0  0  0  0  0
  -21.4449  -21.6900   23.4599 C   0  0  0  0  0  0  0  0  0  0  0  0
  -20.7765  -13.2584   24.3706 C   0  0  0  0  0  0  0  0  0  0  0  0
  -22.4322  -29.9082   22.7041 C   0  0  0  0  0  0  0  0  0  0  0  0
  -29.7264  -11.6322   19.0351 C   0  0  0  0  0  0  0  0  0  0  0  0
  -26.2294  -15.5535   23.6078 C   0  0  0  0  0  0  0  0  0  0  0  0
  -23.5180  -15.5579   22.4275 C   0  0  0  0  0  0  0  0  0  0  0  0
  -28.2142  -11.5725   19.2349 C   0  0  0  0  0  0  0  0  0  0  0  0
  -24.8291  -31.6952   20.7706 C   0  0  0  0  0  0  0  0  0  0  0  0
  -27.5717  -12.9007   18.8476 C   0  0  0  0  0  0  0  0  0  0  0  0
  -25.4357  -30.6223   19.8634 C   0  0  0  0  0  0  0  0  0  0  0  0
  -24.5155  -31.1498   22.1627 C   0  0  0  0  0  0  0  0  0  0  0  0
  -24.2974  -28.8621   21.2750 C   0  0  0  0  0  0  0  0  0  0  0  0
  -28.0903  -14.0425   19.7302 C   0  0  1  0  0  0  0  0  0  0  0  0
  -25.7483  -14.4285   22.6966 C   0  0  1  0  0  0  0  0  0  0  0  0
  -24.5701  -29.3472   19.8419 C   0  0  2  0  0  0  0  0  0  0  0  0
  -18.9255  -11.8351   25.2901 C   0  0  0  0  0  0  0  0  0  0  0  0
  -22.5483  -12.7418   19.8198 C   0  0  0  0  0  0  0  0  0  0  0  0
  -20.3385  -12.1985   20.8637 C   0  0  0  0  0  0  0  0  0  0  0  0
  -22.3066  -10.7219   21.2745 C   0  0  0  0  0  0  0  0  0  0  0  0
  -17.7729  -25.1712   24.4166 C   0  0  0  0  0  0  0  0  0  0  0  0
  -21.3475  -14.1062   27.1480 C   0  0  0  0  0  0  0  0  0  0  0  0
  -17.7810  -25.7779   22.0278 C   0  0  0  0  0  0  0  0  0  0  0  0
  -19.2735  -22.7973   23.9542 C   0  0  0  0  0  0  0  0  0  0  0  0
  -22.0062  -20.3735   22.9665 C   0  0  0  0  0  0  0  0  0  1  0  0
  -22.2167  -13.0001   22.3673 C   0  0  1  0  0  0  0  0  0  0  0  0
  -20.2663  -12.4924   25.5779 C   0  0  2  0  0  0  0  0  0  0  0  0
  -21.8658  -12.1900   21.0874 C   0  0  0  0  0  0  0  0  0  0  0  0
  -26.0002  -27.3582   19.5590 N   0  0  0  0  0  0  0  0  0  0  0  0
  -25.1896  -28.2616   18.9819 N   0  0  0  0  0  0  0  0  0  0  0  0
  -24.2885  -14.3234   22.6507 N   0  0  0  0  0  0  0  0  0  0  0  0
  -23.6889  -29.9449   22.0637 N   0  0  0  0  0  0  0  0  0  0  0  0
  -24.2400  -28.8933   16.9059 N   0  0  0  0  0  0  0  0  0  0  0  0
  -26.7236  -25.2703   15.8561 N   0  0  0  0  0  0  0  0  0  0  0  0
  -21.7220  -28.7234   22.5129 N   0  0  0  0  0  0  0  0  0  0  0  0
  -27.4504  -14.0089   21.0278 N   0  0  0  0  0  0  0  0  0  0  0  0
  -20.0602  -21.6670   23.5177 N   0  0  0  0  0  0  0  0  0  0  0  0
  -21.6058  -12.4838   23.5874 N   0  0  0  0  0  0  0  0  0  0  0  0
  -18.1890  -24.8310   23.0582 N   0  0  0  0  0  0  0  0  0  0  0  0
  -20.1003  -13.4094   26.7408 N   0  3  0  0  0  0  0  0  0  0  0  0
  -25.3361  -26.8864   15.0065 O   0  0  0  0  0  0  0  0  0  0  0  0
  -25.5212  -15.1891   20.4728 O   0  0  0  0  0  0  0  0  0  0  0  0
  -24.3203  -11.9975   22.8103 O   0  0  0  0  0  0  0  0  0  0  0  0
  -19.2879  -23.3727   21.6272 O   0  0  0  0  0  0  0  0  0  0  0  0
  -22.1565  -22.6438   23.7628 O   0  0  0  0  0  0  0  0  0  0  0  0
  -20.4670  -14.4259   24.1430 O   0  0  0  0  0  0  0  0  0  0  0  0
  -22.0048  -30.8682   23.3503 O   0  0  0  0  0  0  0  0  0  0  0  0
  -29.7973  -22.2493   19.3862 O   0  0  0  0  0  0  0  0  0  0  0  0
  -23.4305  -20.4272   22.8968 O   0  0  0  0  0  0  0  0  0  1  0  0
  -28.4828  -17.4376   17.0359 F   0  0  0  0  0  0  0  0  0  0  0  0
  -29.3601  -19.9929   20.9225 F   0  0  0  0  0  0  0  0  0  0  0  0
  1  2  1  0  0  0  0
  1  6  2  0  0  0  0
  2  7  2  0  0  0  0
  3  9  2  0  0  0  0
  3 10  1  0  0  0  0
  4 11  2  0  0  0  0
  4 19  1  0  0  0  0
  5 12  1  0  0  0  0
  5 19  2  0  0  0  0
  6 21  1  0  0  0  0
  7 23  1  0  0  0  0
  8 13  2  0  0  0  0
  8 22  1  0  0  0  0
  9 25  1  0  0  0  0
 10 26  2  0  0  0  0
 11 27  1  0  0  0  0
 12 27  2  0  0  0  0
 13 28  1  0  0  0  0
 14 15  2  0  0  0  0
 14 29  1  0  0  0  0
 15 30  1  0  0  0  0
 16 24  1  0  0  0  0
 16 28  2  0  0  0  0
 17 25  2  0  0  0  0
 17 26  1  0  0  0  0
 18 30  2  0  0  0  0
 18 31  1  0  0  0  0
 19 32  1  0  0  0  0
 20 32  1  0  0  0  0
 20 33  2  0  0  0  0
 20 34  1  0  0  0  0
 21 23  2  0  0  0  0
 21 41  1  0  0  0  0
 22 24  2  0  0  0  0
 22 42  1  0  0  0  0
 23 50  1  0  0  0  0
 24 43  1  0  0  0  0
 25 59  1  0  0  0  0
 26 71  1  0  0  0  0
 27 84  1  0  0  0  0
 28 85  1  0  0  0  0
 29 31  2  0  0  0  0
 29 84  1  0  0  0  0
 30 86  1  0  0  0  0
 31 87  1  0  0  0  0
 32 65  2  0  0  0  0
 33 66  1  0  0  0  0
 33 69  1  0  0  0  0
 34 70  1  0  0  0  0
 34 77  2  0  0  0  0
 35 51  1  0  0  0  0
 35 72  1  0  0  0  0
 35 78  2  0  0  0  0
 36 62  1  0  0  0  0
 36 67  1  0  0  0  0
 36 79  2  0  0  0  0
 37 60  1  0  0  0  0
 37 75  1  0  0  0  0
 37 80  2  0  0  0  0
 38 61  1  0  0  0  0
 38 73  1  0  0  0  0
 38 81  2  0  0  0  0
 39 63  1  0  0  0  0
 39 74  1  0  0  0  0
 39 82  2  0  0  0  0
 40 68  1  0  0  0  0
 40 71  1  0  0  0  0
 40 83  2  0  0  0  0
 41 44  1  0  0  0  0
 42 51  1  0  0  0  0
 43 67  1  0  0  0  0
 44 46  1  0  0  0  0
 45 47  1  0  0  0  0
 45 48  1  0  0  0  0
 46 50  1  0  0  0  0
 47 52  1  0  0  0  0
 48 68  1  0  0  0  0
 49 52  1  0  0  0  0
 49 68  1  0  0  0  0
 50 72  1  0  0  0  0
 51 67  1  0  0  0  0
 52 66  1  0  0  0  0
 53 63  1  0  0  0  0
 54 64  1  0  0  0  0
 55 64  1  0  0  0  0
 56 64  1  0  0  0  0
 57 75  1  0  0  0  0
 58 76  1  0  0  0  0
 59 75  1  0  0  0  0
 60 73  1  0  0  0  0
 61 85  1  0  0  0  0
 62 64  1  0  0  0  0
 62 74  1  0  0  0  0
 63 76  1  0  0  0  0
 65 66  1  0  0  0  0
M  CHG  1  76   1
M  ISO  4  40 100  61 101  71 100  85 101
M  END
> <Batch ID>
0055

> <Smiles>
CNC(C)C(=O)NC(C(=O)N1Cc2cc([101O:1][101CH2:1]C(=O)NCC(=O)N(C)Cc3cccc([100NH:0][100C:0](=O)N4CCCC(n5nc(-c6ccc(Oc7ccc(F)cc7F)cc6)c(C(N)=O)c5N)C4)c3)ccc2CC1C(=O)NC1CCCc2ccccc21)C(C)(C)C

> <Shape>
0.254

> <Color>
0.082

> <Negative vol penalty>
0.000

$$$$

  -OEChem-04042322493D

 86 95  0     1  0  0  0  0  0999 V2000
  -27.8879  -23.9755   17.7393 C   0  0  0  0  0  0  0  0  0  0  0  0
  -26.6894  -24.3254   18.3529 C   0  0  0  0  0  0  0  0  0  0  0  0
  -27.8588  -14.5246   20.0975 C   0  0  0  0  0  0  0  0  0  0  0  0
  -25.5045  -15.0516   19.9692 C   0  0  0  0  0  0  0  0  0  0  0  0
  -29.0952  -24.4548   18.2460 C   0  0  0  0  0  0  0  0  0  0  0  0
  -26.6976  -25.1540   19.4744 C   0  0  0  0  0  0  0  0  0  0  0  0
  -23.1661  -28.7759   19.2394 C   0  0  0  0  0  0  0  0  0  0  0  0
  -19.8872  -22.0163   19.6949 C   0  0  0  0  0  0  0  0  0  0  0  0
  -19.9833  -23.2572   21.7656 C   0  0  0  0  0  0  0  0  0  0  0  0
  -21.2516  -21.7440   19.7947 C   0  0  0  0  0  0  0  0  0  0  0  0
  -21.3477  -22.9850   21.8654 C   0  0  0  0  0  0  0  0  0  0  0  0
  -27.5472  -13.1779   20.2846 C   0  0  0  0  0  0  0  0  0  0  0  0
  -25.1928  -13.7049   20.1561 C   0  0  0  0  0  0  0  0  0  0  0  0
  -21.8540  -28.4058   19.5314 C   0  0  0  0  0  0  0  0  0  0  0  0
  -25.1204  -10.8851   18.2951 C   0  0  0  0  0  0  0  0  0  0  0  0
  -24.1443  -10.3267   17.4699 C   0  0  0  0  0  0  0  0  0  0  0  0
  -22.1013  -29.3063   21.7556 C   0  0  0  0  0  0  0  0  0  0  0  0
  -22.8072   -9.7957   19.4109 C   0  0  0  0  0  0  0  0  0  0  0  0
  -26.8375  -15.4615   19.9399 C   0  0  0  0  0  0  0  0  0  0  0  0
  -27.9167  -17.4134   18.7018 C   0  0  0  0  0  0  0  0  0  0  0  0
  -29.1174  -25.2976   19.3684 C   0  0  0  0  0  0  0  0  0  0  0  0
  -23.9605  -29.4053   20.2086 C   0  0  0  0  0  0  0  0  0  0  0  0
  -27.9063  -25.6440   19.9974 C   0  0  0  0  0  0  0  0  0  0  0  0
  -23.4223  -29.6858   21.4726 C   0  0  0  0  0  0  0  0  0  0  0  0
  -19.2531  -22.7729   20.6803 C   0  0  0  0  0  0  0  0  0  0  0  0
  -21.9818  -22.2283   20.8800 C   0  0  0  0  0  0  0  0  0  0  0  0
  -26.2142  -12.7681   20.3138 C   0  0  0  0  0  0  0  0  0  0  0  0
  -21.3224  -28.6684   20.7905 C   0  0  0  0  0  0  0  0  0  0  0  0
  -24.9401  -10.8987   19.6782 C   0  0  0  0  0  0  0  0  0  0  0  0
  -22.9877   -9.7820   18.0278 C   0  0  0  0  0  0  0  0  0  0  0  0
  -23.7835  -10.3540   20.2361 C   0  0  0  0  0  0  0  0  0  0  0  0
  -27.1587  -16.8528   19.7473 C   0  0  0  0  0  0  0  0  0  0  0  0
  -27.9310  -18.7600   18.9719 C   0  0  0  0  0  0  0  0  0  0  0  0
  -17.4238  -25.1788   19.3169 C   0  0  0  0  0  0  0  0  0  0  0  0
  -28.5512  -16.7740   17.5863 C   0  0  0  0  0  0  0  0  0  0  0  0
  -26.6739  -28.6837   21.6987 C   0  0  0  0  0  0  0  0  0  0  0  0
  -26.3575  -31.6809   22.8981 C   0  0  0  0  0  0  0  0  0  0  0  0
  -24.2964  -34.2866   23.6786 C   0  0  0  0  0  0  0  0  0  0  0  0
  -24.2380  -22.3568   21.9934 C   0  0  0  0  0  0  0  0  0  0  0  0
  -30.4502  -25.7525   19.9083 C   0  0  0  0  0  0  0  0  0  0  0  0
  -25.3653  -29.8223   19.8692 C   0  0  0  0  0  0  0  0  0  0  0  0
  -24.2270  -30.3774   22.5415 C   0  0  0  0  0  0  0  0  0  0  0  0
  -17.0606  -26.6417   19.4835 C   0  0  0  0  0  0  0  0  0  0  0  0
  -30.3461  -26.9291   20.8753 C   0  0  0  0  0  0  0  0  0  0  0  0
  -27.7052  -21.8494   22.6241 C   0  0  0  0  0  0  0  0  0  0  0  0
  -29.2352  -26.6876   21.8923 C   0  0  0  0  0  0  0  0  0  0  0  0
  -28.0289  -20.5648   21.8578 C   0  0  0  0  0  0  0  0  0  0  0  0
  -17.9905  -26.4975   21.8622 C   0  0  0  0  0  0  0  0  0  0  0  0
  -26.3110  -21.8024   23.2466 C   0  0  0  0  0  0  0  0  0  0  0  0
  -17.2302  -25.1794   21.7792 C   0  0  0  0  0  0  0  0  0  0  0  0
  -25.5491  -20.1894   21.5475 C   0  0  0  0  0  0  0  0  0  0  0  0
  -27.8724  -26.5607   21.2010 C   0  0  1  0  0  0  0  0  0  0  0  0
  -26.2510  -29.9950   21.0993 C   0  0  1  0  0  0  0  0  0  0  0  0
  -17.9009  -27.3272   20.5673 C   0  0  1  0  0  0  0  0  0  0  0  0
  -26.9180  -20.2158   20.8481 C   0  0  2  0  0  0  0  0  0  0  0  0
  -24.3223  -36.5868   24.6815 C   0  0  0  0  0  0  0  0  0  0  0  0
  -26.6364  -30.4618   25.6812 C   0  0  0  0  0  0  0  0  0  0  0  0
  -25.7210  -32.5904   26.6294 C   0  0  0  0  0  0  0  0  0  0  0  0
  -27.8667  -32.6149   25.3575 C   0  0  0  0  0  0  0  0  0  0  0  0
  -23.2763  -35.5114   21.1849 C   0  0  0  0  0  0  0  0  0  0  0  0
  -17.7845  -23.0659   20.5727 C   0  0  0  0  0  0  0  0  0  0  0  0
  -19.3005  -27.6636   20.0431 C   0  0  0  0  0  0  0  0  0  1  0  0
  -25.6916  -32.2817   24.1125 C   0  0  1  0  0  0  0  0  0  0  0  0
  -24.4036  -35.7746   23.3983 C   0  0  2  0  0  0  0  0  0  0  0  0
  -26.4642  -31.9724   25.4258 C   0  0  0  0  0  0  0  0  0  0  0  0
  -26.7231  -17.7684   20.6167 N   0  0  0  0  0  0  0  0  0  0  0  0
  -27.2091  -18.9179   20.1182 N   0  0  0  0  0  0  0  0  0  0  0  0
  -17.5168  -24.4932   20.5263 N   0  0  0  0  0  0  0  0  0  0  0  0
  -25.5975  -30.7598   22.1634 N   0  0  0  0  0  0  0  0  0  0  0  0
  -25.3100  -21.4705   22.2303 N   0  0  0  0  0  0  0  0  0  0  0  0
  -28.4906  -19.8125   18.3383 N   0  0  0  0  0  0  0  0  0  0  0  0
  -28.4371  -15.3828   17.4600 N   0  0  0  0  0  0  0  0  0  0  0  0
  -23.3678  -21.9517   20.9818 N   0  0  0  0  0  0  0  0  0  0  0  0
  -27.3707  -27.8664   20.8292 N   0  0  0  0  0  0  0  0  0  0  0  0
  -25.5372  -33.7049   23.8311 N   0  0  0  0  0  0  0  0  0  0  0  0
  -23.3022  -36.2122   22.4946 N   0  3  0  0  0  0  0  0  0  0  0  0
  -17.5739  -24.6834   18.2016 O   0  0  0  0  0  0  0  0  0  0  0  0
  -29.2138  -17.4154   16.7359 O   0  0  0  0  0  0  0  0  0  0  0  0
  -26.3904  -28.4326   22.8642 O   0  0  0  0  0  0  0  0  0  0  0  0
  -27.5070  -32.0219   22.6079 O   0  0  0  0  0  0  0  0  0  0  0  0
  -23.2195  -33.6996   23.7583 O   0  0  0  0  0  0  0  0  0  0  0  0
  -24.1171  -23.4117   22.6215 O   0  0  0  0  0  0  0  0  0  0  0  0
  -25.9098  -11.4541   20.4961 O   0  0  0  0  0  0  0  0  0  0  0  0
  -20.0422  -28.3076   21.0783 O   0  0  0  0  0  0  0  0  0  1  0  0
  -22.0497   -9.2473   17.2351 F   0  0  0  0  0  0  0  0  0  0  0  0
  -23.6040  -10.3652   21.5641 F   0  0  0  0  0  0  0  0  0  0  0  0
  1  2  1  0  0  0  0
  1  5  2  0  0  0  0
  2  6  2  0  0  0  0
  3 12  2  0  0  0  0
  3 19  1  0  0  0  0
  4 13  1  0  0  0  0
  4 19  2  0  0  0  0
  5 21  1  0  0  0  0
  6 23  1  0  0  0  0
  7 14  2  0  0  0  0
  7 22  1  0  0  0  0
  8 10  2  0  0  0  0
  8 25  1  0  0  0  0
  9 11  1  0  0  0  0
  9 25  2  0  0  0  0
 10 26  1  0  0  0  0
 11 26  2  0  0  0  0
 12 27  1  0  0  0  0
 13 27  2  0  0  0  0
 14 28  1  0  0  0  0
 15 16  2  0  0  0  0
 15 29  1  0  0  0  0
 16 30  1  0  0  0  0
 17 24  1  0  0  0  0
 17 28  2  0  0  0  0
 18 30  2  0  0  0  0
 18 31  1  0  0  0  0
 19 32  1  0  0  0  0
 20 32  1  0  0  0  0
 20 33  2  0  0  0  0
 20 35  1  0  0  0  0
 21 23  2  0  0  0  0
 21 40  1  0  0  0  0
 22 24  2  0  0  0  0
 22 41  1  0  0  0  0
 23 52  1  0  0  0  0
 24 42  1  0  0  0  0
 25 61  1  0  0  0  0
 26 73  1  0  0  0  0
 27 83  1  0  0  0  0
 28 84  1  0  0  0  0
 29 31  2  0  0  0  0
 29 83  1  0  0  0  0
 30 85  1  0  0  0  0
 31 86  1  0  0  0  0
 32 66  2  0  0  0  0
 33 67  1  0  0  0  0
 33 71  1  0  0  0  0
 34 43  1  0  0  0  0
 34 68  1  0  0  0  0
 34 77  2  0  0  0  0
 35 72  1  0  0  0  0
 35 78  2  0  0  0  0
 36 53  1  0  0  0  0
 36 74  1  0  0  0  0
 36 79  2  0  0  0  0
 37 63  1  0  0  0  0
 37 69  1  0  0  0  0
 37 80  2  0  0  0  0
 38 64  1  0  0  0  0
 38 75  1  0  0  0  0
 38 81  2  0  0  0  0
 39 70  1  0  0  0  0
 39 73  1  0  0  0  0
 39 82  2  0  0  0  0
 40 44  1  0  0  0  0
 41 53  1  0  0  0  0
 42 69  1  0  0  0  0
 43 54  1  0  0  0  0
 44 46  1  0  0  0  0
 45 47  1  0  0  0  0
 45 49  1  0  0  0  0
 46 52  1  0  0  0  0
 47 55  1  0  0  0  0
 48 50  1  0  0  0  0
 48 54  1  0  0  0  0
 49 70  1  0  0  0  0
 50 68  1  0  0  0  0
 51 55  1  0  0  0  0
 51 70  1  0  0  0  0
 52 74  1  0  0  0  0
 53 69  1  0  0  0  0
 54 62  1  0  0  0  0
 55 67  1  0  0  0  0
 56 64  1  0  0  0  0
 57 65  1  0  0  0  0
 58 65  1  0  0  0  0
 59 65  1  0  0  0  0
 60 76  1  0  0  0  0
 61 68  1  0  0  0  0
 62 84  1  0  0  0  0
 63 65  1  0  0  0  0
 63 75  1  0  0  0  0
 64 76  1  0  0  0  0
 66 67  1  0  0  0  0
M  CHG  1  76   1
M  ISO  4  39 100  62 101  73 100  84 101
M  END
> <Batch ID>
0055

> <Smiles>
CNC(C)C(=O)NC(C(=O)N1Cc2cc([101O:1][101CH2:1]C3CCN(Cc4ccc([100NH:0][100C:0](=O)N5CCCC(n6nc(-c7ccc(Oc8ccc(F)cc8F)cc7)c(C(N)=O)c6N)C5)cc4)C(=O)C3)ccc2CC1C(=O)NC1CCCc2ccccc21)C(C)(C)C

> <Shape>
0.279

> <Color>
0.067

> <Negative vol penalty>
0.000

$$$$

  -OEChem-04042322493D

 87 95  0     1  0  0  0  0  0999 V2000
  -22.4676  -18.9628   26.8370 C   0  0  0  0  0  0  0  0  0  0  0  0
  -22.5893  -19.3519   25.5069 C   0  0  0  0  0  0  0  0  0  0  0  0
  -27.1090  -12.4214   21.4732 C   0  0  0  0  0  0  0  0  0  0  0  0
  -26.5399  -13.6059   19.4458 C   0  0  0  0  0  0  0  0  0  0  0  0
  -21.6495  -19.6881   27.7023 C   0  0  0  0  0  0  0  0  0  0  0  0
  -21.8921  -20.4661   25.0410 C   0  0  0  0  0  0  0  0  0  0  0  0
  -24.7593  -23.4874   22.1609 C   0  0  0  0  0  0  0  0  0  0  0  0
  -29.4612  -24.9001   20.5140 C   0  0  0  0  0  0  0  0  0  0  0  0
  -31.0944  -23.5143   19.3963 C   0  0  0  0  0  0  0  0  0  0  0  0
  -29.0180  -23.7936   21.2384 C   0  0  0  0  0  0  0  0  0  0  0  0
  -30.6512  -22.4078   20.1207 C   0  0  0  0  0  0  0  0  0  0  0  0
  -26.3666  -11.3229   21.0398 C   0  0  0  0  0  0  0  0  0  0  0  0
  -25.7975  -12.5074   19.0124 C   0  0  0  0  0  0  0  0  0  0  0  0
  -24.9841  -23.0866   20.8446 C   0  0  0  0  0  0  0  0  0  0  0  0
  -24.3248   -8.3421   20.6282 C   0  0  0  0  0  0  0  0  0  0  0  0
  -23.4756   -7.7276   21.5484 C   0  0  0  0  0  0  0  0  0  0  0  0
  -23.2731  -24.6126   20.0942 C   0  0  0  0  0  0  0  0  0  0  0  0
  -22.2627   -9.8002   21.8131 C   0  0  0  0  0  0  0  0  0  0  0  0
  -27.1956  -13.5629   20.6762 C   0  0  0  0  0  0  0  0  0  0  0  0
  -29.3267  -14.9491   20.8868 C   0  0  0  0  0  0  0  0  0  0  0  0
  -20.9495  -20.8174   27.2491 C   0  0  0  0  0  0  0  0  0  0  0  0
  -23.7806  -24.4475   22.4554 C   0  0  0  0  0  0  0  0  0  0  0  0
  -21.0629  -21.2064   25.9007 C   0  0  0  0  0  0  0  0  0  0  0  0
  -23.0396  -25.0258   21.4148 C   0  0  0  0  0  0  0  0  0  0  0  0
  -30.4994  -24.7605   19.5929 C   0  0  0  0  0  0  0  0  0  0  0  0
  -29.6130  -22.5475   21.0418 C   0  0  0  0  0  0  0  0  0  0  0  0
  -25.7108  -11.3659   19.8094 C   0  0  0  0  0  0  0  0  0  0  0  0
  -24.2389  -23.6471   19.8113 C   0  0  0  0  0  0  0  0  0  0  0  0
  -24.1430   -9.6857   20.3005 C   0  0  0  0  0  0  0  0  0  0  0  0
  -22.4445   -8.4566   22.1409 C   0  0  0  0  0  0  0  0  0  0  0  0
  -23.1119  -10.4147   20.8929 C   0  0  0  0  0  0  0  0  0  0  0  0
  -27.9619  -14.6981   21.1235 C   0  0  0  0  0  0  0  0  0  0  0  0
  -29.5701  -16.1453   21.5164 C   0  0  0  0  0  0  0  0  0  0  0  0
  -28.6481  -24.9660   16.9654 C   0  0  0  0  0  0  0  0  0  0  0  0
  -29.4950  -26.0014   16.9338 C   0  0  0  0  0  0  0  0  0  0  0  0
  -30.2885  -14.1706   20.1625 C   0  0  0  0  0  0  0  0  0  0  0  0
  -27.2294  -25.1575   16.5577 C   0  0  0  0  0  0  0  0  0  0  0  0
  -21.0997  -24.4671   24.1630 C   0  0  0  0  0  0  0  0  0  0  0  0
  -21.1395  -27.6350   23.4666 C   0  0  0  0  0  0  0  0  0  0  0  0
  -22.1889  -30.1320   21.3904 C   0  0  0  0  0  0  0  0  0  0  0  0
  -28.1450  -21.3893   22.7300 C   0  0  0  0  0  0  0  0  0  0  0  0
  -20.0403  -21.5418   28.2100 C   0  0  0  0  0  0  0  0  0  0  0  0
  -23.5689  -24.8886   23.8777 C   0  0  0  0  0  0  0  0  0  0  0  0
  -21.9912  -26.0751   21.6759 C   0  0  0  0  0  0  0  0  0  0  0  0
  -19.6289  -22.9310   27.7294 C   0  0  0  0  0  0  0  0  0  0  0  0
  -26.7157  -18.8156   24.7326 C   0  0  0  0  0  0  0  0  0  0  0  0
  -19.1921  -22.8829   26.2687 C   0  0  0  0  0  0  0  0  0  0  0  0
  -27.0248  -17.5356   23.9527 C   0  0  0  0  0  0  0  0  0  0  0  0
  -26.3978  -19.9842   23.8015 C   0  0  0  0  0  0  0  0  0  0  0  0
  -27.7149  -18.9650   21.9861 C   0  0  0  0  0  0  0  0  0  0  0  0
  -20.3420  -22.4239   25.3639 C   0  0  1  0  0  0  0  0  0  0  0  0
  -22.1910  -25.4988   24.1152 C   0  0  1  0  0  0  0  0  0  0  0  0
  -28.1048  -17.7763   22.8797 C   0  0  2  0  0  0  0  0  0  0  0  0
  -22.0306  -32.6142   21.0578 C   0  0  0  0  0  0  0  0  0  0  0  0
  -18.2998  -27.3084   22.3992 C   0  0  0  0  0  0  0  0  0  0  0  0
  -18.5539  -29.5161   21.2461 C   0  0  0  0  0  0  0  0  0  0  0  0
  -18.6796  -29.3887   23.7342 C   0  0  0  0  0  0  0  0  0  0  0  0
  -25.1158  -30.4726   21.6671 C   0  0  0  0  0  0  0  0  0  0  0  0
  -31.7625  -26.6648   16.5485 C   0  0  0  0  0  0  0  0  0  0  0  0
  -30.9760  -25.9507   18.8137 C   0  0  0  0  0  0  0  0  0  0  0  0
  -25.0999  -23.9273   16.3084 C   0  0  0  0  0  0  0  0  0  0  0  0
  -24.2125  -24.2234   17.5041 C   0  0  0  0  0  0  0  0  0  1  0  0
  -20.5944  -28.4908   22.3488 C   0  0  1  0  0  0  0  0  0  0  0  0
  -22.8294  -31.4781   21.6774 C   0  0  2  0  0  0  0  0  0  0  0  0
  -19.0503  -28.6548   22.4270 C   0  0  0  0  0  0  0  0  0  0  0  0
  -27.3791  -15.6577   21.8471 N   0  0  0  0  0  0  0  0  0  0  0  0
  -28.3826  -16.5232   22.0706 N   0  0  0  0  0  0  0  0  0  0  0  0
  -21.8168  -26.4686   23.0838 N   0  0  0  0  0  0  0  0  0  0  0  0
  -27.4665  -20.1551   22.8148 N   0  0  0  0  0  0  0  0  0  0  0  0
  -30.6819  -16.9002   21.6444 N   0  0  0  0  0  0  0  0  0  0  0  0
  -29.8704  -12.9674   19.5779 N   0  0  0  0  0  0  0  0  0  0  0  0
  -29.1632  -21.4233   21.7778 N   0  0  0  0  0  0  0  0  0  0  0  0
  -26.4961  -23.9838   16.6514 N   0  0  0  0  0  0  0  0  0  0  0  0
  -21.2746  -23.5081   25.1425 N   0  0  0  0  0  0  0  0  0  0  0  0
  -21.3323  -29.7483   22.4005 N   0  0  0  0  0  0  0  0  0  0  0  0
  -24.2133  -31.5213   21.1261 N   0  3  0  0  0  0  0  0  0  0  0  0
  -30.8339  -25.7771   17.3280 N   0  3  1  0  0  0  0  0  0  0  0  0
  -31.4873  -14.5231   20.0515 O   0  0  0  0  0  0  0  0  0  0  0  0
  -26.7874  -26.2399   16.1859 O   0  0  0  0  0  0  0  0  0  0  0  0
  -20.1672  -24.5367   23.3710 O   0  0  0  0  0  0  0  0  0  0  0  0
  -20.9767  -27.9920   24.6361 O   0  0  0  0  0  0  0  0  0  0  0  0
  -22.4222  -29.4872   20.3704 O   0  0  0  0  0  0  0  0  0  0  0  0
  -27.8631  -22.3369   23.4680 O   0  0  0  0  0  0  0  0  0  0  0  0
  -24.9865  -10.2941   19.3862 O   0  0  0  0  0  0  0  0  0  0  0  0
  -24.4557  -23.2572   18.5257 O   0  0  0  0  0  0  0  0  0  1  0  0
  -21.6281   -7.8660   23.0234 F   0  0  0  0  0  0  0  0  0  0  0  0
  -22.9316  -11.7055   20.5811 F   0  0  0  0  0  0  0  0  0  0  0  0
  1  2  1  0  0  0  0
  1  5  2  0  0  0  0
  2  6  2  0  0  0  0
  3 12  2  0  0  0  0
  3 19  1  0  0  0  0
  4 13  1  0  0  0  0
  4 19  2  0  0  0  0
  5 21  1  0  0  0  0
  6 23  1  0  0  0  0
  7 14  2  0  0  0  0
  7 22  1  0  0  0  0
  8 10  2  0  0  0  0
  8 25  1  0  0  0  0
  9 11  1  0  0  0  0
  9 25  2  0  0  0  0
 10 26  1  0  0  0  0
 11 26  2  0  0  0  0
 12 27  1  0  0  0  0
 13 27  2  0  0  0  0
 14 28  1  0  0  0  0
 15 16  2  0  0  0  0
 15 29  1  0  0  0  0
 16 30  1  0  0  0  0
 17 24  1  0  0  0  0
 17 28  2  0  0  0  0
 18 30  2  0  0  0  0
 18 31  1  0  0  0  0
 19 32  1  0  0  0  0
 20 32  1  0  0  0  0
 20 33  2  0  0  0  0
 20 36  1  0  0  0  0
 21 23  2  0  0  0  0
 21 42  1  0  0  0  0
 22 24  2  0  0  0  0
 22 43  1  0  0  0  0
 23 51  1  0  0  0  0
 24 44  1  0  0  0  0
 25 60  1  0  0  0  0
 26 72  1  0  0  0  0
 27 84  1  0  0  0  0
 28 85  1  0  0  0  0
 29 31  2  0  0  0  0
 29 84  1  0  0  0  0
 30 86  1  0  0  0  0
 31 87  1  0  0  0  0
 32 66  2  0  0  0  0
 33 67  1  0  0  0  0
 33 70  1  0  0  0  0
 34 35  2  0  0  0  0
 34 37  1  0  0  0  0
 35 77  1  0  0  0  0
 36 71  1  0  0  0  0
 36 78  2  0  0  0  0
 37 73  1  0  0  0  0
 37 79  2  0  0  0  0
 38 52  1  0  0  0  0
 38 74  1  0  0  0  0
 38 80  2  0  0  0  0
 39 63  1  0  0  0  0
 39 68  1  0  0  0  0
 39 81  2  0  0  0  0
 40 64  1  0  0  0  0
 40 75  1  0  0  0  0
 40 82  2  0  0  0  0
 41 69  1  0  0  0  0
 41 72  1  0  0  0  0
 41 83  2  0  0  0  0
 42 45  1  0  0  0  0
 43 52  1  0  0  0  0
 44 68  1  0  0  0  0
 45 47  1  0  0  0  0
 46 48  1  0  0  0  0
 46 49  1  0  0  0  0
 47 51  1  0  0  0  0
 48 53  1  0  0  0  0
 49 69  1  0  0  0  0
 50 53  1  0  0  0  0
 50 69  1  0  0  0  0
 51 74  1  0  0  0  0
 52 68  1  0  0  0  0
 53 67  1  0  0  0  0
 54 64  1  0  0  0  0
 55 65  1  0  0  0  0
 56 65  1  0  0  0  0
 57 65  1  0  0  0  0
 58 76  1  0  0  0  0
 59 77  1  0  0  0  0
 60 77  1  0  0  0  0
 61 62  1  0  0  0  0
 61 73  1  0  0  0  0
 62 85  1  0  0  0  0
 63 65  1  0  0  0  0
 63 75  1  0  0  0  0
 64 76  1  0  0  0  0
 66 67  1  0  0  0  0
M  CHG  2  76   1  77   1
M  ISO  4  41 100  62 101  72 100  85 101
M  END
> <Batch ID>
0055

> <Smiles>
CNC(C)C(=O)NC(C(=O)N1Cc2cc([101O:1][101CH2:1]CNC(=O)C=CN(C)Cc3ccc([100NH:0][100C:0](=O)N4CCCC(n5nc(-c6ccc(Oc7ccc(F)cc7F)cc6)c(C(N)=O)c5N)C4)cc3)ccc2CC1C(=O)NC1CCCc2ccccc21)C(C)(C)C

> <Shape>
0.228

> <Color>
0.053

> <Negative vol penalty>
0.000

$$$$

  -OEChem-04042322493D

 84 92  0     1  0  0  0  0  0999 V2000
  -33.0622  -29.4957   12.1285 C   0  0  0  0  0  0  0  0  0  0  0  0
  -32.8411  -29.0280   13.4200 C   0  0  0  0  0  0  0  0  0  0  0  0
  -32.7272  -17.4555   23.2442 C   0  0  0  0  0  0  0  0  0  0  0  0
  -22.9616   -9.9263   20.0637 C   0  0  0  0  0  0  0  0  0  0  0  0
  -23.6716  -10.0752   22.3681 C   0  0  0  0  0  0  0  0  0  0  0  0
  -32.0822  -30.2495   11.4840 C   0  0  0  0  0  0  0  0  0  0  0  0
  -31.6403  -29.3150   14.0682 C   0  0  0  0  0  0  0  0  0  0  0  0
  -29.6882  -25.2765   16.4187 C   0  0  0  0  0  0  0  0  0  0  0  0
  -31.9450  -18.4017   23.9064 C   0  0  0  0  0  0  0  0  0  0  0  0
  -32.1276  -16.5277   22.3925 C   0  0  0  0  0  0  0  0  0  0  0  0
  -22.1714   -8.8208   20.3785 C   0  0  0  0  0  0  0  0  0  0  0  0
  -22.8814   -8.9698   22.6831 C   0  0  0  0  0  0  0  0  0  0  0  0
  -30.2536  -24.9162   17.6411 C   0  0  0  0  0  0  0  0  0  0  0  0
  -23.0643   -5.6079   22.3752 C   0  0  0  0  0  0  0  0  0  0  0  0
  -23.6269   -4.6174   23.1803 C   0  0  0  0  0  0  0  0  0  0  0  0
  -28.4363  -26.0045   18.7954 C   0  0  0  0  0  0  0  0  0  0  0  0
  -29.9636  -17.4923   22.8653 C   0  0  0  0  0  0  0  0  0  0  0  0
  -21.8964   -4.9740   24.8282 C   0  0  0  0  0  0  0  0  0  0  0  0
  -23.7118  -10.5535   21.0585 C   0  0  0  0  0  0  0  0  0  0  0  0
  -24.1469  -13.0498   20.7639 C   0  0  0  0  0  0  0  0  0  0  0  0
  -30.8649  -30.5376   12.1210 C   0  0  0  0  0  0  0  0  0  0  0  0
  -28.4963  -26.0141   16.3755 C   0  0  0  0  0  0  0  0  0  0  0  0
  -30.6437  -30.0745   13.4321 C   0  0  0  0  0  0  0  0  0  0  0  0
  -27.8565  -26.3706   17.5712 C   0  0  0  0  0  0  0  0  0  0  0  0
  -30.5632  -18.4201   23.7169 C   0  0  0  0  0  0  0  0  0  0  0  0
  -30.7458  -16.5461   22.2031 C   0  0  0  0  0  0  0  0  0  0  0  0
  -22.1313   -8.3426   21.6882 C   0  0  0  0  0  0  0  0  0  0  0  0
  -29.6292  -25.2827   18.8298 C   0  0  0  0  0  0  0  0  0  0  0  0
  -21.9179   -6.2815   22.7967 C   0  0  0  0  0  0  0  0  0  0  0  0
  -23.0429   -4.3004   24.4067 C   0  0  0  0  0  0  0  0  0  0  0  0
  -21.3339   -5.9646   24.0231 C   0  0  0  0  0  0  0  0  0  0  0  0
  -24.5287  -11.6951   20.7337 C   0  0  0  0  0  0  0  0  0  0  0  0
  -25.2730  -13.7326   20.3737 C   0  0  0  0  0  0  0  0  0  0  0  0
  -29.3456  -22.5749   22.3849 C   0  0  0  0  0  0  0  0  0  0  0  0
  -29.9047  -23.7501   22.0657 C   0  0  0  0  0  0  0  0  0  0  0  0
  -22.8871  -13.6383   21.1136 C   0  0  0  0  0  0  0  0  0  0  0  0
  -30.0192  -21.6573   23.3448 C   0  0  0  0  0  0  0  0  0  0  0  0
  -27.6675  -28.8742   15.2637 C   0  0  0  0  0  0  0  0  0  0  0  0
  -24.6836  -27.8927   16.0731 C   0  0  0  0  0  0  0  0  0  0  0  0
  -22.7219  -25.8641   17.9924 C   0  0  0  0  0  0  0  0  0  0  0  0
  -30.7683  -14.5996   20.6040 C   0  0  0  0  0  0  0  0  0  0  0  0
  -29.8547  -31.3962   11.4019 C   0  0  0  0  0  0  0  0  0  0  0  0
  -27.8852  -26.3718   15.0485 C   0  0  0  0  0  0  0  0  0  0  0  0
  -26.5648  -27.1451   17.5789 C   0  0  0  0  0  0  0  0  0  0  0  0
  -28.4588  -31.3390   12.0171 C   0  0  0  0  0  0  0  0  0  0  0  0
  -29.6188  -12.0584   18.3908 C   0  0  0  0  0  0  0  0  0  0  0  0
  -28.5371  -31.4879   13.5331 C   0  0  0  0  0  0  0  0  0  0  0  0
  -28.1607  -11.8488   18.8055 C   0  0  0  0  0  0  0  0  0  0  0  0
  -30.5155  -12.3431   19.5944 C   0  0  0  0  0  0  0  0  0  0  0  0
  -28.6066  -13.2320   20.8731 C   0  0  0  0  0  0  0  0  0  0  0  0
  -29.3440  -30.3439   14.1589 C   0  0  1  0  0  0  0  0  0  0  0  0
  -26.9399  -27.5665   15.1286 C   0  0  1  0  0  0  0  0  0  0  0  0
  -27.6537  -13.0064   19.6878 C   0  0  2  0  0  0  0  0  0  0  0  0
  -20.3179  -25.3151   18.4577 C   0  0  0  0  0  0  0  0  0  0  0  0
  -24.4118  -30.4651   17.6913 C   0  0  0  0  0  0  0  0  0  0  0  0
  -22.4500  -29.4398   18.8610 C   0  0  0  0  0  0  0  0  0  0  0  0
  -22.3692  -29.8256   16.3978 C   0  0  0  0  0  0  0  0  0  0  0  0
  -23.0757  -23.0553   17.1295 C   0  0  0  0  0  0  0  0  0  0  0  0
  -29.7217  -19.4388   24.4299 C   0  0  0  0  0  0  0  0  0  0  0  0
  -29.2835  -24.7220   21.1149 C   0  0  0  0  0  0  0  0  0  1  0  0
  -23.8304  -27.9778   17.3156 C   0  0  1  0  0  0  0  0  0  0  0  0
  -21.5501  -24.9667   17.6373 C   0  0  2  0  0  0  0  0  0  0  0  0
  -23.2907  -29.4142   17.5666 C   0  0  0  0  0  0  0  0  0  0  0  0
  -25.7980  -11.5254   20.3541 N   0  0  0  0  0  0  0  0  0  0  0  0
  -26.2236  -12.7824   20.1421 N   0  0  0  0  0  0  0  0  0  0  0  0
  -26.0100  -27.4769   16.2562 N   0  0  0  0  0  0  0  0  0  0  0  0
  -29.9753  -13.4541   20.3810 N   0  0  0  0  0  0  0  0  0  0  0  0
  -25.5328  -15.0471   20.2095 N   0  0  0  0  0  0  0  0  0  0  0  0
  -21.8361  -12.7916   21.4914 N   0  0  0  0  0  0  0  0  0  0  0  0
  -30.1372  -15.6039   21.3373 N   0  0  0  0  0  0  0  0  0  0  0  0
  -29.2896  -20.4980   23.5458 N   0  0  0  0  0  0  0  0  0  0  0  0
  -28.5436  -29.1401   14.2287 N   0  0  0  0  0  0  0  0  0  0  0  0
  -22.7899  -26.9661   17.1664 N   0  0  0  0  0  0  0  0  0  0  0  0
  -21.8954  -23.5393   17.8908 N   0  3  0  0  0  0  0  0  0  0  0  0
  -22.6942  -14.8772   21.0758 O   0  0  0  0  0  0  0  0  0  0  0  0
  -31.0925  -21.9287   23.8731 O   0  0  0  0  0  0  0  0  0  0  0  0
  -27.4490  -29.5898   16.2342 O   0  0  0  0  0  0  0  0  0  0  0  0
  -24.1893  -28.1775   14.9794 O   0  0  0  0  0  0  0  0  0  0  0  0
  -23.4971  -25.6145   18.9129 O   0  0  0  0  0  0  0  0  0  0  0  0
  -31.9125  -14.6947   20.1527 O   0  0  0  0  0  0  0  0  0  0  0  0
  -21.3602   -7.2641   21.9959 O   0  0  0  0  0  0  0  0  0  0  0  0
  -30.1793  -24.9330   20.0243 O   0  0  0  0  0  0  0  0  0  1  0  0
  -23.5823   -3.3482   25.1790 F   0  0  0  0  0  0  0  0  0  0  0  0
  -20.2318   -6.6074   24.4328 F   0  0  0  0  0  0  0  0  0  0  0  0
  1  2  1  0  0  0  0
  1  6  2  0  0  0  0
  2  7  2  0  0  0  0
  3  9  2  0  0  0  0
  3 10  1  0  0  0  0
  4 11  2  0  0  0  0
  4 19  1  0  0  0  0
  5 12  1  0  0  0  0
  5 19  2  0  0  0  0
  6 21  1  0  0  0  0
  7 23  1  0  0  0  0
  8 13  2  0  0  0  0
  8 22  1  0  0  0  0
  9 25  1  0  0  0  0
 10 26  2  0  0  0  0
 11 27  1  0  0  0  0
 12 27  2  0  0  0  0
 13 28  1  0  0  0  0
 14 15  2  0  0  0  0
 14 29  1  0  0  0  0
 15 30  1  0  0  0  0
 16 24  1  0  0  0  0
 16 28  2  0  0  0  0
 17 25  2  0  0  0  0
 17 26  1  0  0  0  0
 18 30  2  0  0  0  0
 18 31  1  0  0  0  0
 19 32  1  0  0  0  0
 20 32  1  0  0  0  0
 20 33  2  0  0  0  0
 20 36  1  0  0  0  0
 21 23  2  0  0  0  0
 21 42  1  0  0  0  0
 22 24  2  0  0  0  0
 22 43  1  0  0  0  0
 23 51  1  0  0  0  0
 24 44  1  0  0  0  0
 25 59  1  0  0  0  0
 26 70  1  0  0  0  0
 27 81  1  0  0  0  0
 28 82  1  0  0  0  0
 29 31  2  0  0  0  0
 29 81  1  0  0  0  0
 30 83  1  0  0  0  0
 31 84  1  0  0  0  0
 32 64  2  0  0  0  0
 33 65  1  0  0  0  0
 33 68  1  0  0  0  0
 34 35  2  0  0  0  0
 34 37  1  0  0  0  0
 35 60  1  0  0  0  0
 36 69  1  0  0  0  0
 36 75  2  0  0  0  0
 37 71  1  0  0  0  0
 37 76  2  0  0  0  0
 38 52  1  0  0  0  0
 38 72  1  0  0  0  0
 38 77  2  0  0  0  0
 39 61  1  0  0  0  0
 39 66  1  0  0  0  0
 39 78  2  0  0  0  0
 40 62  1  0  0  0  0
 40 73  1  0  0  0  0
 40 79  2  0  0  0  0
 41 67  1  0  0  0  0
 41 70  1  0  0  0  0
 41 80  2  0  0  0  0
 42 45  1  0  0  0  0
 43 52  1  0  0  0  0
 44 66  1  0  0  0  0
 45 47  1  0  0  0  0
 46 48  1  0  0  0  0
 46 49  1  0  0  0  0
 47 51  1  0  0  0  0
 48 53  1  0  0  0  0
 49 67  1  0  0  0  0
 50 53  1  0  0  0  0
 50 67  1  0  0  0  0
 51 72  1  0  0  0  0
 52 66  1  0  0  0  0
 53 65  1  0  0  0  0
 54 62  1  0  0  0  0
 55 63  1  0  0  0  0
 56 63  1  0  0  0  0
 57 63  1  0  0  0  0
 58 74  1  0  0  0  0
 59 71  1  0  0  0  0
 60 82  1  0  0  0  0
 61 63  1  0  0  0  0
 61 73  1  0  0  0  0
 62 74  1  0  0  0  0
 64 65  1  0  0  0  0
M  CHG  1  74   1
M  ISO  4  41 100  60 101  70 100  82 101
M  END
> <Batch ID>
0055

> <Smiles>
CNC(C)C(=O)NC(C(=O)N1Cc2cc([101O:1][101CH2:1]C=CC(=O)NCc3cccc([100NH:0][100C:0](=O)N4CCCC(n5nc(-c6ccc(Oc7ccc(F)cc7F)cc6)c(C(N)=O)c5N)C4)c3)ccc2CC1C(=O)NC1CCCc2ccccc21)C(C)(C)C

> <Shape>
0.218

> <Color>
0.204

> <Negative vol penalty>
0.000

$$$$

  -OEChem-04042322493D

 88 97  0     1  0  0  0  0  0999 V2000
  -28.3388  -13.1406   18.1342 C   0  0  0  0  0  0  0  0  0  0  0  0
  -27.9297  -14.4491   17.8980 C   0  0  0  0  0  0  0  0  0  0  0  0
  -26.9128  -23.3015   20.1487 C   0  0  0  0  0  0  0  0  0  0  0  0
  -28.7021  -24.9008   20.4276 C   0  0  0  0  0  0  0  0  0  0  0  0
  -27.5958  -12.3217   18.9835 C   0  0  0  0  0  0  0  0  0  0  0  0
  -26.7766  -14.9391   18.5101 C   0  0  0  0  0  0  0  0  0  0  0  0
  -24.0082  -20.9862   21.1719 C   0  0  0  0  0  0  0  0  0  0  0  0
  -27.7354  -22.2935   20.6513 C   0  0  0  0  0  0  0  0  0  0  0  0
  -29.5247  -23.8928   20.9303 C   0  0  0  0  0  0  0  0  0  0  0  0
  -22.8691  -21.7841   21.0733 C   0  0  0  0  0  0  0  0  0  0  0  0
  -29.4829  -19.2265   21.5254 C   0  0  0  0  0  0  0  0  0  0  0  0
  -29.5001  -18.0053   20.8517 C   0  0  0  0  0  0  0  0  0  0  0  0
  -21.7087  -20.3035   22.5834 C   0  0  0  0  0  0  0  0  0  0  0  0
  -19.1369  -25.8751   22.8827 C   0  0  0  0  0  0  0  0  0  0  0  0
  -18.8844  -28.5560   22.1532 C   0  0  0  0  0  0  0  0  0  0  0  0
  -30.2742  -19.1190   18.8523 C   0  0  0  0  0  0  0  0  0  0  0  0
  -27.3961  -24.6052   20.0368 C   0  0  0  0  0  0  0  0  0  0  0  0
  -25.9436  -25.6968   18.2462 C   0  0  0  0  0  0  0  0  0  0  0  0
  -26.4384  -12.8050   19.6139 C   0  0  0  0  0  0  0  0  0  0  0  0
  -24.0026  -19.8331   21.9698 C   0  0  0  0  0  0  0  0  0  0  0  0
  -26.0167  -14.1255   19.3676 C   0  0  0  0  0  0  0  0  0  0  0  0
  -22.8498  -19.4941   22.6925 C   0  0  0  0  0  0  0  0  0  0  0  0
  -20.0421  -26.8184   23.3688 C   0  0  0  0  0  0  0  0  0  0  0  0
  -17.9791  -27.6127   21.6671 C   0  0  0  0  0  0  0  0  0  0  0  0
  -18.1054  -26.2722   22.0318 C   0  0  0  0  0  0  0  0  0  0  0  0
  -19.9159  -28.1588   23.0041 C   0  0  0  0  0  0  0  0  0  0  0  0
  -29.0414  -22.5891   21.0421 C   0  0  0  0  0  0  0  0  0  0  0  0
  -21.7182  -21.4412   21.7768 C   0  0  0  0  0  0  0  0  0  0  0  0
  -29.8612  -20.3941   20.8625 C   0  0  0  0  0  0  0  0  0  0  0  0
  -29.8958  -17.9515   19.5153 C   0  0  0  0  0  0  0  0  0  0  0  0
  -30.2569  -20.3403   19.5260 C   0  0  0  0  0  0  0  0  0  0  0  0
  -26.5470  -25.6469   19.5171 C   0  0  0  0  0  0  0  0  0  0  0  0
  -25.2449  -26.8793   18.2441 C   0  0  0  0  0  0  0  0  0  0  0  0
  -17.7128  -23.0279   22.4450 C   0  0  0  0  0  0  0  0  0  0  0  0
  -26.0088  -24.7583   17.1643 C   0  0  0  0  0  0  0  0  0  0  0  0
  -24.3820  -16.7250   21.4227 C   0  0  0  0  0  0  0  0  0  0  0  0
  -24.2737  -16.5391   24.6594 C   0  0  0  0  0  0  0  0  0  0  0  0
  -23.2628  -17.9268   27.6088 C   0  0  0  0  0  0  0  0  0  0  0  0
  -22.9257  -30.2528   22.6136 C   0  0  0  0  0  0  0  0  0  0  0  0
  -25.6418  -11.8676   20.4866 C   0  0  0  0  0  0  0  0  0  0  0  0
  -25.2480  -18.9977   22.0865 C   0  0  0  0  0  0  0  0  0  0  0  0
  -22.7986  -18.2775   23.5788 C   0  0  0  0  0  0  0  0  0  0  0  0
  -18.3206  -21.6541   22.2181 C   0  0  0  0  0  0  0  0  0  0  0  0
  -24.6394  -12.5808   21.3903 C   0  0  0  0  0  0  0  0  0  0  0  0
  -25.2984  -31.2636   20.1590 C   0  0  0  0  0  0  0  0  0  0  0  0
  -23.8544  -13.6224   20.5994 C   0  0  0  0  0  0  0  0  0  0  0  0
  -25.8330  -29.9432   19.6015 C   0  0  0  0  0  0  0  0  0  0  0  0
  -18.9766  -22.3050   19.9121 C   0  0  0  0  0  0  0  0  0  0  0  0
  -25.0181  -31.1713   21.6573 C   0  0  0  0  0  0  0  0  0  0  0  0
  -18.6168  -23.7505   20.2083 C   0  0  0  0  0  0  0  0  0  0  0  0
  -24.6726  -28.7363   21.4977 C   0  0  0  0  0  0  0  0  0  0  0  0
  -24.7852  -14.7012   20.0325 C   0  0  1  0  0  0  0  0  0  0  0  0
  -24.9666  -17.5635   22.5240 C   0  0  1  0  0  0  0  0  0  0  0  0
  -24.9173  -28.7633   19.9792 C   0  0  2  0  0  0  0  0  0  0  0  0
  -19.4246  -21.6001   21.1779 C   0  0  1  0  0  0  0  0  0  1  0  0
  -21.1380  -26.3699   24.2790 C   0  0  0  0  0  0  0  0  0  0  0  0
  -16.8833  -28.0611   20.7568 C   0  0  0  0  0  0  0  0  0  0  0  0
  -23.2868  -17.5244   30.0857 C   0  0  0  0  0  0  0  0  0  0  0  0
  -22.0595  -14.4640   24.3413 C   0  0  0  0  0  0  0  0  0  0  0  0
  -21.4859  -14.8082   26.7539 C   0  0  0  0  0  0  0  0  0  0  0  0
  -23.7358  -13.9365   26.1207 C   0  0  0  0  0  0  0  0  0  0  0  0
  -24.8120  -20.3976   28.1124 C   0  0  0  0  0  0  0  0  0  0  0  0
  -17.1436  -25.2390   21.5205 C   0  0  0  0  0  0  0  0  0  0  0  0
  -20.8728  -29.1865   23.5126 C   0  0  0  0  0  0  0  0  0  0  0  0
  -23.1791  -16.3638   25.6841 C   0  0  1  0  0  0  0  0  0  0  0  0
  -24.0021  -18.1741   28.9114 C   0  0  2  0  0  0  0  0  0  0  0  0
  -22.6151  -14.9150   25.7068 C   0  0  0  0  0  0  0  0  0  0  0  0
  -26.2571  -26.7129   20.2678 N   0  0  0  0  0  0  0  0  0  0  0  0
  -25.4640  -27.4439   19.4662 N   0  0  0  0  0  0  0  0  0  0  0  0
  -17.7698  -23.9304   21.3859 N   0  0  0  0  0  0  0  0  0  0  0  0
  -24.0397  -17.4892   23.6552 N   0  0  0  0  0  0  0  0  0  0  0  0
  -24.1430  -30.0330   21.9482 N   0  0  0  0  0  0  0  0  0  0  0  0
  -24.4707  -27.4809   17.3162 N   0  0  0  0  0  0  0  0  0  0  0  0
  -25.0502  -23.7374   17.1068 N   0  0  0  0  0  0  0  0  0  0  0  0
  -25.1606  -15.6399   21.0681 N   0  0  0  0  0  0  0  0  0  0  0  0
  -23.7367  -16.8079   26.9570 N   0  0  0  0  0  0  0  0  0  0  0  0
  -22.1535  -29.1209   22.8445 N   0  0  0  0  0  0  0  0  0  0  0  0
  -24.1087  -19.6366   29.1769 N   0  3  0  0  0  0  0  0  0  0  0  0
  -17.1366  -23.2537   23.5133 O   0  0  0  0  0  0  0  0  0  0  0  0
  -26.9008  -24.8131   16.2841 O   0  0  0  0  0  0  0  0  0  0  0  0
  -23.3036  -17.0383   20.9322 O   0  0  0  0  0  0  0  0  0  0  0  0
  -25.3016  -15.8633   24.7508 O   0  0  0  0  0  0  0  0  0  0  0  0
  -22.3531  -18.6514   27.2113 O   0  0  0  0  0  0  0  0  0  0  0  0
  -22.5520  -31.3752   22.9705 O   0  0  0  0  0  0  0  0  0  0  0  0
  -29.8443  -21.6057   21.5329 O   0  0  0  0  0  0  0  0  0  0  0  0
  -20.6048  -22.2179   21.6818 O   0  0  0  0  0  0  0  0  0  1  0  0
  -29.9138  -16.7784   18.8689 F   0  0  0  0  0  0  0  0  0  0  0  0
  -30.6226  -21.4585   18.8842 F   0  0  0  0  0  0  0  0  0  0  0  0
  1  2  1  0  0  0  0
  1  5  2  0  0  0  0
  2  6  2  0  0  0  0
  3  8  2  0  0  0  0
  3 17  1  0  0  0  0
  4  9  1  0  0  0  0
  4 17  2  0  0  0  0
  5 19  1  0  0  0  0
  6 21  1  0  0  0  0
  7 10  2  0  0  0  0
  7 20  1  0  0  0  0
  8 27  1  0  0  0  0
  9 27  2  0  0  0  0
 10 28  1  0  0  0  0
 11 12  2  0  0  0  0
 11 29  1  0  0  0  0
 12 30  1  0  0  0  0
 13 22  1  0  0  0  0
 13 28  2  0  0  0  0
 14 23  2  0  0  0  0
 14 25  1  0  0  0  0
 15 24  1  0  0  0  0
 15 26  2  0  0  0  0
 16 30  2  0  0  0  0
 16 31  1  0  0  0  0
 17 32  1  0  0  0  0
 18 32  1  0  0  0  0
 18 33  2  0  0  0  0
 18 35  1  0  0  0  0
 19 21  2  0  0  0  0
 19 40  1  0  0  0  0
 20 22  2  0  0  0  0
 20 41  1  0  0  0  0
 21 52  1  0  0  0  0
 22 42  1  0  0  0  0
 23 26  1  0  0  0  0
 23 56  1  0  0  0  0
 24 25  2  0  0  0  0
 24 57  1  0  0  0  0
 25 63  1  0  0  0  0
 26 64  1  0  0  0  0
 27 85  1  0  0  0  0
 28 86  1  0  0  0  0
 29 31  2  0  0  0  0
 29 85  1  0  0  0  0
 30 87  1  0  0  0  0
 31 88  1  0  0  0  0
 32 68  2  0  0  0  0
 33 69  1  0  0  0  0
 33 73  1  0  0  0  0
 34 43  1  0  0  0  0
 34 70  1  0  0  0  0
 34 79  2  0  0  0  0
 35 74  1  0  0  0  0
 35 80  2  0  0  0  0
 36 53  1  0  0  0  0
 36 75  1  0  0  0  0
 36 81  2  0  0  0  0
 37 65  1  0  0  0  0
 37 71  1  0  0  0  0
 37 82  2  0  0  0  0
 38 66  1  0  0  0  0
 38 76  1  0  0  0  0
 38 83  2  0  0  0  0
 39 72  1  0  0  0  0
 39 77  1  0  0  0  0
 39 84  2  0  0  0  0
 40 44  1  0  0  0  0
 41 53  1  0  0  0  0
 42 71  1  0  0  0  0
 43 55  1  0  0  0  0
 44 46  1  0  0  0  0
 45 47  1  0  0  0  0
 45 49  1  0  0  0  0
 46 52  1  0  0  0  0
 47 54  1  0  0  0  0
 48 50  1  0  0  0  0
 48 55  1  0  0  0  0
 49 72  1  0  0  0  0
 50 70  1  0  0  0  0
 51 54  1  0  0  0  0
 51 72  1  0  0  0  0
 52 75  1  0  0  0  0
 53 71  1  0  0  0  0
 54 69  1  0  0  0  0
 55 86  1  0  0  0  0
 58 66  1  0  0  0  0
 59 67  1  0  0  0  0
 60 67  1  0  0  0  0
 61 67  1  0  0  0  0
 62 78  1  0  0  0  0
 63 70  1  0  0  0  0
 64 77  1  0  0  0  0
 65 67  1  0  0  0  0
 65 76  1  0  0  0  0
 66 78  1  0  0  0  0
 68 69  1  0  0  0  0
M  CHG  1  78   1
M  ISO  4  39 100  55 101  77 100  86 101
M  END
> <Batch ID>
0055

> <Smiles>
CNC(C)C(=O)NC(C(=O)N1Cc2cc([101O:1][101CH:1]3CCN(Cc4cc(C)c(C[100NH:0][100C:0](=O)N5CCCC(n6nc(-c7ccc(Oc8ccc(F)cc8F)cc7)c(C(N)=O)c6N)C5)cc4C)C(=O)C3)ccc2CC1C(=O)NC1CCCc2ccccc21)C(C)(C)C

> <Shape>
0.215

> <Color>
0.063

> <Negative vol penalty>
0.000

$$$$

  -OEChem-04042322493D

 85 93  0     1  0  0  0  0  0999 V2000
  -24.3621  -22.1327   33.6549 C   0  0  0  0  0  0  0  0  0  0  0  0
  -24.4189  -21.9017   32.2842 C   0  0  0  0  0  0  0  0  0  0  0  0
  -32.4301  -18.5073   21.9211 C   0  0  0  0  0  0  0  0  0  0  0  0
  -23.1347   -9.8248   21.3869 C   0  0  0  0  0  0  0  0  0  0  0  0
  -23.8633  -10.6815   23.5252 C   0  0  0  0  0  0  0  0  0  0  0  0
  -31.6126  -19.5676   22.3121 C   0  0  0  0  0  0  0  0  0  0  0  0
  -23.5374  -23.1383   34.1577 C   0  0  0  0  0  0  0  0  0  0  0  0
  -23.6501  -22.6754   31.4155 C   0  0  0  0  0  0  0  0  0  0  0  0
  -26.2598  -24.2131   27.3572 C   0  0  0  0  0  0  0  0  0  0  0  0
  -31.8628  -17.3457   21.3968 C   0  0  0  0  0  0  0  0  0  0  0  0
  -22.4257   -8.8127   22.0339 C   0  0  0  0  0  0  0  0  0  0  0  0
  -23.1543   -9.6694   24.1722 C   0  0  0  0  0  0  0  0  0  0  0  0
  -26.4605  -23.2821   26.3390 C   0  0  0  0  0  0  0  0  0  0  0  0
  -23.1027   -5.8423   23.4978 C   0  0  0  0  0  0  0  0  0  0  0  0
  -23.2158   -4.5475   22.9918 C   0  0  0  0  0  0  0  0  0  0  0  0
  -24.6491  -24.2688   25.0882 C   0  0  0  0  0  0  0  0  0  0  0  0
  -20.8320   -4.4915   22.6024 C   0  0  0  0  0  0  0  0  0  0  0  0
  -23.8535  -10.7592   22.1325 C   0  0  0  0  0  0  0  0  0  0  0  0
  -30.2278  -19.4665   22.1790 C   0  0  0  0  0  0  0  0  0  0  0  0
  -24.1139  -13.0834   21.1136 C   0  0  0  0  0  0  0  0  0  0  0  0
  -22.7654  -23.9311   33.2939 C   0  0  0  0  0  0  0  0  0  0  0  0
  -25.2435  -25.1736   27.2533 C   0  0  0  0  0  0  0  0  0  0  0  0
  -22.8132  -23.6916   31.9072 C   0  0  0  0  0  0  0  0  0  0  0  0
  -24.4392  -25.2124   26.1053 C   0  0  0  0  0  0  0  0  0  0  0  0
  -29.6605  -18.3049   21.6548 C   0  0  0  0  0  0  0  0  0  0  0  0
  -30.4780  -17.2446   21.2638 C   0  0  0  0  0  0  0  0  0  0  0  0
  -22.4355   -8.7350   23.4265 C   0  0  0  0  0  0  0  0  0  0  0  0
  -25.6532  -23.3080   25.2055 C   0  0  0  0  0  0  0  0  0  0  0  0
  -21.8542   -6.4618   23.5563 C   0  0  0  0  0  0  0  0  0  0  0  0
  -22.0805   -3.8720   22.5440 C   0  0  0  0  0  0  0  0  0  0  0  0
  -20.7189   -5.7863   23.1085 C   0  0  0  0  0  0  0  0  0  0  0  0
  -24.5865  -11.8046   21.4647 C   0  0  0  0  0  0  0  0  0  0  0  0
  -25.1856  -13.6906   20.5061 C   0  0  0  0  0  0  0  0  0  0  0  0
  -29.3822  -20.6163   22.6047 C   0  0  0  0  0  0  0  0  0  0  0  0
  -22.8217  -13.6699   21.3184 C   0  0  0  0  0  0  0  0  0  0  0  0
  -22.6240  -25.8570   28.9192 C   0  0  0  0  0  0  0  0  0  0  0  0
  -27.8650  -22.2757   22.0848 C   0  0  0  0  0  0  0  0  0  0  0  0
  -22.4775  -28.3965   26.9064 C   0  0  0  0  0  0  0  0  0  0  0  0
  -23.3269  -29.7594   23.8951 C   0  0  0  0  0  0  0  0  0  0  0  0
  -30.6117  -14.9221   20.2972 C   0  0  0  0  0  0  0  0  0  0  0  0
  -21.8530  -24.9749   33.8876 C   0  0  0  0  0  0  0  0  0  0  0  0
  -25.0573  -26.1878   28.3484 C   0  0  0  0  0  0  0  0  0  0  0  0
  -23.3476  -26.2362   25.9361 C   0  0  0  0  0  0  0  0  0  0  0  0
  -21.3548  -25.9982   32.8703 C   0  0  0  0  0  0  0  0  0  0  0  0
  -29.6088  -11.7811   18.9533 C   0  0  0  0  0  0  0  0  0  0  0  0
  -20.8722  -25.2996   31.6030 C   0  0  0  0  0  0  0  0  0  0  0  0
  -28.1739  -11.6124   19.4580 C   0  0  0  0  0  0  0  0  0  0  0  0
  -30.4998  -12.4583   19.9932 C   0  0  0  0  0  0  0  0  0  0  0  0
  -28.5518  -13.5623   21.0207 C   0  0  0  0  0  0  0  0  0  0  0  0
  -22.0131  -24.5262   30.9308 C   0  0  1  0  0  0  0  0  0  0  0  0
  -23.6586  -26.7966   28.3675 C   0  0  1  0  0  0  0  0  0  0  0  0
  -27.6010  -12.9435   19.9831 C   0  0  2  0  0  0  0  0  0  0  0  0
  -28.1739  -18.1975   21.5129 C   0  0  0  0  0  0  0  0  0  0  0  0
  -29.4577  -21.0576   24.0536 C   0  0  0  0  0  0  0  0  0  0  0  0
  -23.0301  -31.8369   22.5191 C   0  0  0  0  0  0  0  0  0  0  0  0
  -19.6241  -27.5451   26.2407 C   0  0  0  0  0  0  0  0  0  0  0  0
  -19.7255  -29.0287   24.2266 C   0  0  0  0  0  0  0  0  0  0  0  0
  -19.9412  -30.0113   26.5093 C   0  0  0  0  0  0  0  0  0  0  0  0
  -26.2400  -30.2788   23.8400 C   0  0  0  0  0  0  0  0  0  0  0  0
  -26.3755  -22.0386   21.8919 C   0  0  0  0  0  0  0  0  0  0  0  0
  -25.5197  -22.8112   22.8836 C   0  0  0  0  0  0  0  0  0  1  0  0
  -21.8519  -28.6568   25.5573 C   0  0  1  0  0  0  0  0  0  0  0  0
  -23.9065  -31.1141   23.5301 C   0  0  2  0  0  0  0  0  0  0  0  0
  -20.3049  -28.7898   25.6372 C   0  0  0  0  0  0  0  0  0  0  0  0
  -25.8592  -11.6098   21.1096 N   0  0  0  0  0  0  0  0  0  0  0  0
  -28.6230  -21.1884   21.7172 N   0  0  0  0  0  0  0  0  0  0  0  0
  -26.1955  -12.7743   20.5290 N   0  0  0  0  0  0  0  0  0  0  0  0
  -23.2007  -27.2024   27.0371 N   0  0  0  0  0  0  0  0  0  0  0  0
  -29.8957  -13.7149   20.4413 N   0  0  0  0  0  0  0  0  0  0  0  0
  -25.3532  -14.9137   19.9598 N   0  0  0  0  0  0  0  0  0  0  0  0
  -21.8357  -12.9071   21.9591 N   0  0  0  0  0  0  0  0  0  0  0  0
  -29.9235  -16.0557   20.7282 N   0  0  0  0  0  0  0  0  0  0  0  0
  -22.8808  -25.4317   30.2087 N   0  0  0  0  0  0  0  0  0  0  0  0
  -22.5255  -29.8316   25.0148 N   0  0  0  0  0  0  0  0  0  0  0  0
  -25.2671  -30.9543   22.9433 N   0  3  0  0  0  0  0  0  0  0  0  0
  -22.5444  -14.8298   20.9297 O   0  0  0  0  0  0  0  0  0  0  0  0
  -21.6631  -25.5423   28.2269 O   0  0  0  0  0  0  0  0  0  0  0  0
  -28.3225  -23.3462   22.4753 O   0  0  0  0  0  0  0  0  0  0  0  0
  -22.3360  -29.2257   27.8087 O   0  0  0  0  0  0  0  0  0  0  0  0
  -23.5585  -28.7398   23.2490 O   0  0  0  0  0  0  0  0  0  0  0  0
  -31.7408  -14.9515   19.8009 O   0  0  0  0  0  0  0  0  0  0  0  0
  -21.7437   -7.7476   24.0582 O   0  0  0  0  0  0  0  0  0  0  0  0
  -25.8465  -22.4001   24.2105 O   0  0  0  0  0  0  0  0  0  1  0  0
  -22.1894   -2.6292   22.0566 F   0  0  0  0  0  0  0  0  0  0  0  0
  -19.5170   -6.3767   23.1610 F   0  0  0  0  0  0  0  0  0  0  0  0
  1  2  1  0  0  0  0
  1  7  2  0  0  0  0
  2  8  2  0  0  0  0
  3  6  2  0  0  0  0
  3 10  1  0  0  0  0
  4 11  2  0  0  0  0
  4 18  1  0  0  0  0
  5 12  1  0  0  0  0
  5 18  2  0  0  0  0
  6 19  1  0  0  0  0
  7 21  1  0  0  0  0
  8 23  1  0  0  0  0
  9 13  2  0  0  0  0
  9 22  1  0  0  0  0
 10 26  2  0  0  0  0
 11 27  1  0  0  0  0
 12 27  2  0  0  0  0
 13 28  1  0  0  0  0
 14 15  2  0  0  0  0
 14 29  1  0  0  0  0
 15 30  1  0  0  0  0
 16 24  1  0  0  0  0
 16 28  2  0  0  0  0
 17 30  2  0  0  0  0
 17 31  1  0  0  0  0
 18 32  1  0  0  0  0
 19 25  2  0  0  0  0
 19 34  1  0  0  0  0
 20 32  1  0  0  0  0
 20 33  2  0  0  0  0
 20 35  1  0  0  0  0
 21 23  2  0  0  0  0
 21 41  1  0  0  0  0
 22 24  2  0  0  0  0
 22 42  1  0  0  0  0
 23 50  1  0  0  0  0
 24 43  1  0  0  0  0
 25 26  1  0  0  0  0
 25 53  1  0  0  0  0
 26 72  1  0  0  0  0
 27 82  1  0  0  0  0
 28 83  1  0  0  0  0
 29 31  2  0  0  0  0
 29 82  1  0  0  0  0
 30 84  1  0  0  0  0
 31 85  1  0  0  0  0
 32 65  2  0  0  0  0
 33 67  1  0  0  0  0
 33 70  1  0  0  0  0
 34 54  1  0  0  0  0
 34 66  2  0  0  0  0
 35 71  1  0  0  0  0
 35 76  2  0  0  0  0
 36 51  1  0  0  0  0
 36 73  1  0  0  0  0
 36 77  2  0  0  0  0
 37 60  1  0  0  0  0
 37 66  1  0  0  0  0
 37 78  2  0  0  0  0
 38 62  1  0  0  0  0
 38 68  1  0  0  0  0
 38 79  2  0  0  0  0
 39 63  1  0  0  0  0
 39 74  1  0  0  0  0
 39 80  2  0  0  0  0
 40 69  1  0  0  0  0
 40 72  1  0  0  0  0
 40 81  2  0  0  0  0
 41 44  1  0  0  0  0
 42 51  1  0  0  0  0
 43 68  1  0  0  0  0
 44 46  1  0  0  0  0
 45 47  1  0  0  0  0
 45 48  1  0  0  0  0
 46 50  1  0  0  0  0
 47 52  1  0  0  0  0
 48 69  1  0  0  0  0
 49 52  1  0  0  0  0
 49 69  1  0  0  0  0
 50 73  1  0  0  0  0
 51 68  1  0  0  0  0
 52 67  1  0  0  0  0
 55 63  1  0  0  0  0
 56 64  1  0  0  0  0
 57 64  1  0  0  0  0
 58 64  1  0  0  0  0
 59 75  1  0  0  0  0
 60 61  1  0  0  0  0
 61 83  1  0  0  0  0
 62 64  1  0  0  0  0
 62 74  1  0  0  0  0
 63 75  1  0  0  0  0
 65 67  1  0  0  0  0
M  CHG  1  75   1
M  ISO  4  40 100  61 101  72 100  83 101
M  END
> <Batch ID>
0055

> <Smiles>
C=C(NC(=O)C[101CH2:1][101O:1]c1ccc2c(c1)CN(C(=O)C(NC(=O)C(C)NC)C(C)(C)C)C(C(=O)NC1CCCc3ccccc31)C2)c1cccc([100NH:0][100C:0](=O)N2CCCC(n3nc(-c4ccc(Oc5ccc(F)cc5F)cc4)c(C(N)=O)c3N)C2)c1C

> <Shape>
0.210

> <Color>
0.172

> <Negative vol penalty>
0.000

$$$$

  -OEChem-04042322493D

 84 92  0     1  0  0  0  0  0999 V2000
  -33.0622  -29.4957   12.1285 C   0  0  0  0  0  0  0  0  0  0  0  0
  -32.8411  -29.0280   13.4200 C   0  0  0  0  0  0  0  0  0  0  0  0
  -32.7272  -17.4555   23.2442 C   0  0  0  0  0  0  0  0  0  0  0  0
  -22.9616   -9.9263   20.0637 C   0  0  0  0  0  0  0  0  0  0  0  0
  -23.6716  -10.0752   22.3681 C   0  0  0  0  0  0  0  0  0  0  0  0
  -32.0822  -30.2495   11.4840 C   0  0  0  0  0  0  0  0  0  0  0  0
  -31.6403  -29.3150   14.0682 C   0  0  0  0  0  0  0  0  0  0  0  0
  -29.6882  -25.2765   16.4187 C   0  0  0  0  0  0  0  0  0  0  0  0
  -31.9450  -18.4017   23.9064 C   0  0  0  0  0  0  0  0  0  0  0  0
  -32.1276  -16.5277   22.3925 C   0  0  0  0  0  0  0  0  0  0  0  0
  -22.1714   -8.8208   20.3785 C   0  0  0  0  0  0  0  0  0  0  0  0
  -22.8814   -8.9698   22.6831 C   0  0  0  0  0  0  0  0  0  0  0  0
  -30.2536  -24.9162   17.6411 C   0  0  0  0  0  0  0  0  0  0  0  0
  -23.0643   -5.6079   22.3752 C   0  0  0  0  0  0  0  0  0  0  0  0
  -23.6269   -4.6174   23.1803 C   0  0  0  0  0  0  0  0  0  0  0  0
  -28.4363  -26.0045   18.7954 C   0  0  0  0  0  0  0  0  0  0  0  0
  -29.9636  -17.4923   22.8653 C   0  0  0  0  0  0  0  0  0  0  0  0
  -21.8964   -4.9740   24.8282 C   0  0  0  0  0  0  0  0  0  0  0  0
  -23.7118  -10.5535   21.0585 C   0  0  0  0  0  0  0  0  0  0  0  0
  -24.1469  -13.0498   20.7639 C   0  0  0  0  0  0  0  0  0  0  0  0
  -30.8649  -30.5376   12.1210 C   0  0  0  0  0  0  0  0  0  0  0  0
  -28.4963  -26.0141   16.3755 C   0  0  0  0  0  0  0  0  0  0  0  0
  -30.6437  -30.0745   13.4321 C   0  0  0  0  0  0  0  0  0  0  0  0
  -27.8565  -26.3706   17.5712 C   0  0  0  0  0  0  0  0  0  0  0  0
  -30.5632  -18.4201   23.7169 C   0  0  0  0  0  0  0  0  0  0  0  0
  -30.7458  -16.5461   22.2031 C   0  0  0  0  0  0  0  0  0  0  0  0
  -22.1313   -8.3426   21.6882 C   0  0  0  0  0  0  0  0  0  0  0  0
  -29.6292  -25.2827   18.8298 C   0  0  0  0  0  0  0  0  0  0  0  0
  -21.9179   -6.2815   22.7967 C   0  0  0  0  0  0  0  0  0  0  0  0
  -23.0429   -4.3004   24.4067 C   0  0  0  0  0  0  0  0  0  0  0  0
  -21.3339   -5.9646   24.0231 C   0  0  0  0  0  0  0  0  0  0  0  0
  -24.5287  -11.6951   20.7337 C   0  0  0  0  0  0  0  0  0  0  0  0
  -25.2730  -13.7326   20.3737 C   0  0  0  0  0  0  0  0  0  0  0  0
  -29.3456  -22.5749   22.3849 C   0  0  0  0  0  0  0  0  0  0  0  0
  -29.9047  -23.7501   22.0657 C   0  0  0  0  0  0  0  0  0  0  0  0
  -22.8871  -13.6383   21.1136 C   0  0  0  0  0  0  0  0  0  0  0  0
  -30.0192  -21.6573   23.3448 C   0  0  0  0  0  0  0  0  0  0  0  0
  -27.6675  -28.8742   15.2637 C   0  0  0  0  0  0  0  0  0  0  0  0
  -24.6836  -27.8927   16.0731 C   0  0  0  0  0  0  0  0  0  0  0  0
  -22.7219  -25.8641   17.9924 C   0  0  0  0  0  0  0  0  0  0  0  0
  -30.7683  -14.5996   20.6040 C   0  0  0  0  0  0  0  0  0  0  0  0
  -29.8547  -31.3962   11.4019 C   0  0  0  0  0  0  0  0  0  0  0  0
  -27.8852  -26.3718   15.0485 C   0  0  0  0  0  0  0  0  0  0  0  0
  -26.5648  -27.1451   17.5789 C   0  0  0  0  0  0  0  0  0  0  0  0
  -28.4588  -31.3390   12.0171 C   0  0  0  0  0  0  0  0  0  0  0  0
  -29.6188  -12.0584   18.3908 C   0  0  0  0  0  0  0  0  0  0  0  0
  -28.5371  -31.4879   13.5331 C   0  0  0  0  0  0  0  0  0  0  0  0
  -28.1607  -11.8488   18.8055 C   0  0  0  0  0  0  0  0  0  0  0  0
  -30.5155  -12.3431   19.5944 C   0  0  0  0  0  0  0  0  0  0  0  0
  -28.6066  -13.2320   20.8731 C   0  0  0  0  0  0  0  0  0  0  0  0
  -29.3440  -30.3439   14.1589 C   0  0  1  0  0  0  0  0  0  0  0  0
  -26.9399  -27.5665   15.1286 C   0  0  1  0  0  0  0  0  0  0  0  0
  -27.6537  -13.0064   19.6878 C   0  0  2  0  0  0  0  0  0  0  0  0
  -20.3179  -25.3151   18.4577 C   0  0  0  0  0  0  0  0  0  0  0  0
  -24.4118  -30.4651   17.6913 C   0  0  0  0  0  0  0  0  0  0  0  0
  -22.4500  -29.4398   18.8610 C   0  0  0  0  0  0  0  0  0  0  0  0
  -22.3692  -29.8256   16.3978 C   0  0  0  0  0  0  0  0  0  0  0  0
  -23.0757  -23.0553   17.1295 C   0  0  0  0  0  0  0  0  0  0  0  0
  -29.7217  -19.4388   24.4299 C   0  0  0  0  0  0  0  0  0  0  0  0
  -29.2835  -24.7220   21.1149 C   0  0  0  0  0  0  0  0  0  1  0  0
  -23.8304  -27.9778   17.3156 C   0  0  1  0  0  0  0  0  0  0  0  0
  -21.5501  -24.9667   17.6373 C   0  0  2  0  0  0  0  0  0  0  0  0
  -23.2907  -29.4142   17.5666 C   0  0  0  0  0  0  0  0  0  0  0  0
  -25.7980  -11.5254   20.3541 N   0  0  0  0  0  0  0  0  0  0  0  0
  -26.2236  -12.7824   20.1421 N   0  0  0  0  0  0  0  0  0  0  0  0
  -26.0100  -27.4769   16.2562 N   0  0  0  0  0  0  0  0  0  0  0  0
  -29.9753  -13.4541   20.3810 N   0  0  0  0  0  0  0  0  0  0  0  0
  -25.5328  -15.0471   20.2095 N   0  0  0  0  0  0  0  0  0  0  0  0
  -21.8361  -12.7916   21.4914 N   0  0  0  0  0  0  0  0  0  0  0  0
  -30.1372  -15.6039   21.3373 N   0  0  0  0  0  0  0  0  0  0  0  0
  -29.2896  -20.4980   23.5458 N   0  0  0  0  0  0  0  0  0  0  0  0
  -28.5436  -29.1401   14.2287 N   0  0  0  0  0  0  0  0  0  0  0  0
  -22.7899  -26.9661   17.1664 N   0  0  0  0  0  0  0  0  0  0  0  0
  -21.8954  -23.5393   17.8908 N   0  3  0  0  0  0  0  0  0  0  0  0
  -22.6942  -14.8772   21.0758 O   0  0  0  0  0  0  0  0  0  0  0  0
  -31.0925  -21.9287   23.8731 O   0  0  0  0  0  0  0  0  0  0  0  0
  -27.4490  -29.5898   16.2342 O   0  0  0  0  0  0  0  0  0  0  0  0
  -24.1893  -28.1775   14.9794 O   0  0  0  0  0  0  0  0  0  0  0  0
  -23.4971  -25.6145   18.9129 O   0  0  0  0  0  0  0  0  0  0  0  0
  -31.9125  -14.6947   20.1527 O   0  0  0  0  0  0  0  0  0  0  0  0
  -21.3602   -7.2641   21.9959 O   0  0  0  0  0  0  0  0  0  0  0  0
  -30.1793  -24.9330   20.0243 O   0  0  0  0  0  0  0  0  0  1  0  0
  -23.5823   -3.3482   25.1790 F   0  0  0  0  0  0  0  0  0  0  0  0
  -20.2318   -6.6074   24.4328 F   0  0  0  0  0  0  0  0  0  0  0  0
  1  2  1  0  0  0  0
  1  6  2  0  0  0  0
  2  7  2  0  0  0  0
  3  9  2  0  0  0  0
  3 10  1  0  0  0  0
  4 11  2  0  0  0  0
  4 19  1  0  0  0  0
  5 12  1  0  0  0  0
  5 19  2  0  0  0  0
  6 21  1  0  0  0  0
  7 23  1  0  0  0  0
  8 13  2  0  0  0  0
  8 22  1  0  0  0  0
  9 25  1  0  0  0  0
 10 26  2  0  0  0  0
 11 27  1  0  0  0  0
 12 27  2  0  0  0  0
 13 28  1  0  0  0  0
 14 15  2  0  0  0  0
 14 29  1  0  0  0  0
 15 30  1  0  0  0  0
 16 24  1  0  0  0  0
 16 28  2  0  0  0  0
 17 25  2  0  0  0  0
 17 26  1  0  0  0  0
 18 30  2  0  0  0  0
 18 31  1  0  0  0  0
 19 32  1  0  0  0  0
 20 32  1  0  0  0  0
 20 33  2  0  0  0  0
 20 36  1  0  0  0  0
 21 23  2  0  0  0  0
 21 42  1  0  0  0  0
 22 24  2  0  0  0  0
 22 43  1  0  0  0  0
 23 51  1  0  0  0  0
 24 44  1  0  0  0  0
 25 59  1  0  0  0  0
 26 70  1  0  0  0  0
 27 81  1  0  0  0  0
 28 82  1  0  0  0  0
 29 31  2  0  0  0  0
 29 81  1  0  0  0  0
 30 83  1  0  0  0  0
 31 84  1  0  0  0  0
 32 64  2  0  0  0  0
 33 65  1  0  0  0  0
 33 68  1  0  0  0  0
 34 35  2  0  0  0  0
 34 37  1  0  0  0  0
 35 60  1  0  0  0  0
 36 69  1  0  0  0  0
 36 75  2  0  0  0  0
 37 71  1  0  0  0  0
 37 76  2  0  0  0  0
 38 52  1  0  0  0  0
 38 72  1  0  0  0  0
 38 77  2  0  0  0  0
 39 61  1  0  0  0  0
 39 66  1  0  0  0  0
 39 78  2  0  0  0  0
 40 62  1  0  0  0  0
 40 73  1  0  0  0  0
 40 79  2  0  0  0  0
 41 67  1  0  0  0  0
 41 70  1  0  0  0  0
 41 80  2  0  0  0  0
 42 45  1  0  0  0  0
 43 52  1  0  0  0  0
 44 66  1  0  0  0  0
 45 47  1  0  0  0  0
 46 48  1  0  0  0  0
 46 49  1  0  0  0  0
 47 51  1  0  0  0  0
 48 53  1  0  0  0  0
 49 67  1  0  0  0  0
 50 53  1  0  0  0  0
 50 67  1  0  0  0  0
 51 72  1  0  0  0  0
 52 66  1  0  0  0  0
 53 65  1  0  0  0  0
 54 62  1  0  0  0  0
 55 63  1  0  0  0  0
 56 63  1  0  0  0  0
 57 63  1  0  0  0  0
 58 74  1  0  0  0  0
 59 71  1  0  0  0  0
 60 82  1  0  0  0  0
 61 63  1  0  0  0  0
 61 73  1  0  0  0  0
 62 74  1  0  0  0  0
 64 65  1  0  0  0  0
M  CHG  1  74   1
M  ISO  4  41 100  60 101  70 100  82 101
M  END
> <Batch ID>
0055

> <Smiles>
CNC(C)C(=O)NC(C(=O)N1Cc2cc([101O:1][101CH2:1]C=CC(=O)NCc3cccc([100NH:0][100C:0](=O)N4CCCC(n5nc(-c6ccc(Oc7ccc(F)cc7F)cc6)c(C(N)=O)c5N)C4)c3)ccc2CC1C(=O)NC1CCCc2ccccc21)C(C)(C)C

> <Shape>
0.218

> <Color>
0.204

> <Negative vol penalty>
0.000

$$$$

  -OEChem-04042322493D

 87 95  0     1  0  0  0  0  0999 V2000
  -16.7917  -19.8162   20.4849 C   0  0  0  0  0  0  0  0  0  0  0  0
  -17.9114  -20.1687   19.7383 C   0  0  0  0  0  0  0  0  0  0  0  0
  -29.8358  -14.1575   23.7612 C   0  0  0  0  0  0  0  0  0  0  0  0
  -25.4168  -25.0565   18.9893 C   0  0  0  0  0  0  0  0  0  0  0  0
  -27.1133  -25.9642   20.4504 C   0  0  0  0  0  0  0  0  0  0  0  0
  -30.3452  -14.1371   22.4629 C   0  0  0  0  0  0  0  0  0  0  0  0
  -16.9363  -19.0307   21.6277 C   0  0  0  0  0  0  0  0  0  0  0  0
  -19.1766  -19.7368   20.1348 C   0  0  0  0  0  0  0  0  0  0  0  0
  -25.5059  -17.7628   17.4219 C   0  0  0  0  0  0  0  0  0  0  0  0
  -29.8871  -15.3318   24.5122 C   0  0  0  0  0  0  0  0  0  0  0  0
  -24.9702  -26.3471   18.7060 C   0  0  0  0  0  0  0  0  0  0  0  0
  -26.6667  -27.2549   20.1672 C   0  0  0  0  0  0  0  0  0  0  0  0
  -26.8652  -18.0482   17.5417 C   0  0  0  0  0  0  0  0  0  0  0  0
  -25.7436  -30.7698   20.1099 C   0  0  0  0  0  0  0  0  0  0  0  0
  -25.5958  -31.6538   21.1786 C   0  0  0  0  0  0  0  0  0  0  0  0
  -26.9855  -16.6295   19.4890 C   0  0  0  0  0  0  0  0  0  0  0  0
  -23.9833  -30.1642   22.1877 C   0  0  0  0  0  0  0  0  0  0  0  0
  -26.4884  -24.8650   19.8615 C   0  0  0  0  0  0  0  0  0  0  0  0
  -30.9061  -15.2910   21.9156 C   0  0  0  0  0  0  0  0  0  0  0  0
  -27.9357  -22.8022   19.4639 C   0  0  0  0  0  0  0  0  0  0  0  0
  -18.2028  -18.5810   22.0330 C   0  0  0  0  0  0  0  0  0  0  0  0
  -24.8726  -16.9157   18.3428 C   0  0  0  0  0  0  0  0  0  0  0  0
  -19.3384  -18.9457   21.2848 C   0  0  0  0  0  0  0  0  0  0  0  0
  -25.6185  -16.3328   19.3772 C   0  0  0  0  0  0  0  0  0  0  0  0
  -30.4480  -16.4857   23.9649 C   0  0  0  0  0  0  0  0  0  0  0  0
  -30.9576  -16.4653   22.6666 C   0  0  0  0  0  0  0  0  0  0  0  0
  -25.5951  -27.4464   19.2950 C   0  0  0  0  0  0  0  0  0  0  0  0
  -27.6047  -17.4839   18.5770 C   0  0  0  0  0  0  0  0  0  0  0  0
  -25.0112  -29.5830   20.0800 C   0  0  0  0  0  0  0  0  0  0  0  0
  -24.7156  -31.3510   22.2175 C   0  0  0  0  0  0  0  0  0  0  0  0
  -24.1311  -29.2802   21.1189 C   0  0  0  0  0  0  0  0  0  0  0  0
  -26.9499  -23.5319   20.1549 C   0  0  0  0  0  0  0  0  0  0  0  0
  -28.0051  -21.6029   20.1298 C   0  0  0  0  0  0  0  0  0  0  0  0
  -31.4393  -15.2384   20.5299 C   0  0  0  0  0  0  0  0  0  0  0  0
  -28.7188  -23.1752   18.3223 C   0  0  0  0  0  0  0  0  0  0  0  0
  -22.5141  -17.2528   20.4468 C   0  0  0  0  0  0  0  0  0  0  0  0
  -22.9013  -14.0524   20.8071 C   0  0  0  0  0  0  0  0  0  0  0  0
  -24.9442  -11.3323   20.5340 C   0  0  0  0  0  0  0  0  0  0  0  0
  -28.1963  -18.6766   24.8779 C   0  0  0  0  0  0  0  0  0  0  0  0
  -18.3146  -17.7734   23.3019 C   0  0  0  0  0  0  0  0  0  0  0  0
  -23.4114  -16.5966   18.1841 C   0  0  0  0  0  0  0  0  0  0  0  0
  -24.9904  -15.4009   20.3799 C   0  0  0  0  0  0  0  0  0  0  0  0
  -19.6482  -17.0443   23.4443 C   0  0  0  0  0  0  0  0  0  0  0  0
  -24.9834  -19.6237   23.6708 C   0  0  0  0  0  0  0  0  0  0  0  0
  -20.8066  -17.9816   23.1181 C   0  0  0  0  0  0  0  0  0  0  0  0
  -25.2898  -20.6687   22.5965 C   0  0  0  0  0  0  0  0  0  0  0  0
  -25.9515  -19.7236   24.8476 C   0  0  0  0  0  0  0  0  0  0  0  0
  -27.6855  -20.7189   23.4068 C   0  0  0  0  0  0  0  0  0  0  0  0
  -20.7248  -18.4760   21.6688 C   0  0  1  0  0  0  0  0  0  0  0  0
  -22.7578  -16.1283   19.4806 C   0  0  1  0  0  0  0  0  0  0  0  0
  -26.7705  -20.6212   22.1741 C   0  0  2  0  0  0  0  0  0  0  0  0
  -31.5582  -17.7052   22.0825 C   0  0  0  0  0  0  0  0  0  0  0  0
  -24.9925   -8.8563   20.9396 C   0  0  0  0  0  0  0  0  0  0  0  0
  -31.9178  -18.5944   18.4523 C   0  0  0  0  0  0  0  0  0  0  0  0
  -30.4778  -15.1018   17.4361 C   0  0  0  0  0  0  0  0  0  0  0  0
  -23.1931  -14.5513   23.8031 C   0  0  0  0  0  0  0  0  0  0  0  0
  -24.1640  -12.2539   24.0205 C   0  0  0  0  0  0  0  0  0  0  0  0
  -21.8235  -12.5452   23.2082 C   0  0  0  0  0  0  0  0  0  0  0  0
  -25.4328  -10.7559   17.6725 C   0  0  0  0  0  0  0  0  0  0  0  0
  -30.4890  -17.7307   24.7894 C   0  0  0  0  0  0  0  0  0  0  0  0
  -29.6475  -18.0410   17.4942 C   0  0  0  0  0  0  0  0  0  1  0  0
  -23.7483  -13.1710   21.6930 C   0  0  1  0  0  0  0  0  0  0  0  0
  -24.7171   -9.9588   19.9288 C   0  0  2  0  0  0  0  0  0  0  0  0
  -31.1054  -17.5773   17.6359 C   0  0  2  0  0  0  0  0  0  0  0  0
  -31.2436  -16.1560   18.2330 C   0  0  1  0  0  0  0  0  0  0  0  0
  -23.2439  -13.1494   23.1636 C   0  0  0  0  0  0  0  0  0  0  0  0
  -26.4302  -22.8528   21.1810 N   0  0  0  0  0  0  0  0  0  0  0  0
  -27.0919  -21.6839   21.1396 N   0  0  0  0  0  0  0  0  0  0  0  0
  -23.5573  -15.1248   20.1862 N   0  0  0  0  0  0  0  0  0  0  0  0
  -27.3385  -19.6708   24.3792 N   0  0  0  0  0  0  0  0  0  0  0  0
  -28.7574  -20.4975   19.9441 N   0  0  0  0  0  0  0  0  0  0  0  0
  -28.5209  -24.4446   17.7622 N   0  0  0  0  0  0  0  0  0  0  0  0
  -30.8518  -16.1062   19.6227 N   0  0  0  0  0  0  0  0  0  0  0  0
  -21.1820  -17.4487   20.7578 N   0  0  0  0  0  0  0  0  0  0  0  0
  -23.7811  -11.8603   21.0532 N   0  0  0  0  0  0  0  0  0  0  0  0
  -29.4923  -18.6937   24.3771 N   0  0  0  0  0  0  0  0  0  0  0  0
  -25.6130   -9.7551   18.7555 N   0  3  0  0  0  0  0  0  0  0  0  0
  -32.3320  -14.4391   20.2604 O   0  0  0  0  0  0  0  0  0  0  0  0
  -29.5571  -22.3993   17.8039 O   0  0  0  0  0  0  0  0  0  0  0  0
  -23.4643  -17.8943   20.8795 O   0  0  0  0  0  0  0  0  0  0  0  0
  -21.7033  -13.7946   20.6655 O   0  0  0  0  0  0  0  0  0  0  0  0
  -26.0442  -11.8804   20.5482 O   0  0  0  0  0  0  0  0  0  0  0  0
  -27.8326  -17.8327   25.7041 O   0  0  0  0  0  0  0  0  0  0  0  0
  -25.1597  -28.7060   19.0186 O   0  0  0  0  0  0  0  0  0  0  0  0
  -28.9315  -17.7614   18.6965 O   0  0  0  0  0  0  0  0  0  1  0  0
  -24.5749  -32.1993   23.2446 F   0  0  0  0  0  0  0  0  0  0  0  0
  -23.4257  -28.1410   21.0963 F   0  0  0  0  0  0  0  0  0  0  0  0
  1  2  1  0  0  0  0
  1  7  2  0  0  0  0
  2  8  2  0  0  0  0
  3  6  2  0  0  0  0
  3 10  1  0  0  0  0
  4 11  2  0  0  0  0
  4 18  1  0  0  0  0
  5 12  1  0  0  0  0
  5 18  2  0  0  0  0
  6 19  1  0  0  0  0
  7 21  1  0  0  0  0
  8 23  1  0  0  0  0
  9 13  2  0  0  0  0
  9 22  1  0  0  0  0
 10 25  2  0  0  0  0
 11 27  1  0  0  0  0
 12 27  2  0  0  0  0
 13 28  1  0  0  0  0
 14 15  2  0  0  0  0
 14 29  1  0  0  0  0
 15 30  1  0  0  0  0
 16 24  1  0  0  0  0
 16 28  2  0  0  0  0
 17 30  2  0  0  0  0
 17 31  1  0  0  0  0
 18 32  1  0  0  0  0
 19 26  2  0  0  0  0
 19 34  1  0  0  0  0
 20 32  1  0  0  0  0
 20 33  2  0  0  0  0
 20 35  1  0  0  0  0
 21 23  2  0  0  0  0
 21 40  1  0  0  0  0
 22 24  2  0  0  0  0
 22 41  1  0  0  0  0
 23 49  1  0  0  0  0
 24 42  1  0  0  0  0
 25 26  1  0  0  0  0
 25 60  1  0  0  0  0
 26 52  1  0  0  0  0
 27 84  1  0  0  0  0
 28 85  1  0  0  0  0
 29 31  2  0  0  0  0
 29 84  1  0  0  0  0
 30 86  1  0  0  0  0
 31 87  1  0  0  0  0
 32 67  2  0  0  0  0
 33 68  1  0  0  0  0
 33 71  1  0  0  0  0
 34 73  1  0  0  0  0
 34 78  2  0  0  0  0
 35 72  1  0  0  0  0
 35 79  2  0  0  0  0
 36 50  1  0  0  0  0
 36 74  1  0  0  0  0
 36 80  2  0  0  0  0
 37 62  1  0  0  0  0
 37 69  1  0  0  0  0
 37 81  2  0  0  0  0
 38 63  1  0  0  0  0
 38 75  1  0  0  0  0
 38 82  2  0  0  0  0
 39 70  1  0  0  0  0
 39 76  1  0  0  0  0
 39 83  2  0  0  0  0
 40 43  1  0  0  0  0
 41 50  1  0  0  0  0
 42 69  1  0  0  0  0
 43 45  1  0  0  0  0
 44 46  1  0  0  0  0
 44 47  1  0  0  0  0
 45 49  1  0  0  0  0
 46 51  1  0  0  0  0
 47 70  1  0  0  0  0
 48 51  1  0  0  0  0
 48 70  1  0  0  0  0
 49 74  1  0  0  0  0
 50 69  1  0  0  0  0
 51 68  1  0  0  0  0
 53 63  1  0  0  0  0
 54 64  1  0  0  0  0
 55 65  1  0  0  0  0
 56 66  1  0  0  0  0
 57 66  1  0  0  0  0
 58 66  1  0  0  0  0
 59 77  1  0  0  0  0
 60 76  1  0  0  0  0
 61 64  1  0  0  0  0
 61 85  1  0  0  0  0
 62 66  1  0  0  0  0
 62 75  1  0  0  0  0
 63 77  1  0  0  0  0
 64 65  1  0  0  0  0
 65 73  1  0  0  0  0
 67 68  1  0  0  0  0
M  CHG  1  77   1
M  ISO  4  39 100  61 101  76 100  85 101
M  END
> <Batch ID>
0055

> <Smiles>
CNC(C)C(=O)NC(C(=O)N1Cc2cc([101O:1][101CH2:1]C(C)C(C)NC(=O)c3cccc(C[100NH:0][100C:0](=O)N4CCCC(n5nc(-c6ccc(Oc7ccc(F)cc7F)cc6)c(C(N)=O)c5N)C4)c3C)ccc2CC1C(=O)NC1CCCc2ccccc21)C(C)(C)C

> <Shape>
0.193

> <Color>
0.070

> <Negative vol penalty>
0.000

$$$$

  -OEChem-04042322493D

 85 93  0     1  0  0  0  0  0999 V2000
  -28.9992  -32.4347   19.4594 C   0  0  0  0  0  0  0  0  0  0  0  0
  -28.9549  -31.3690   20.3525 C   0  0  0  0  0  0  0  0  0  0  0  0
  -23.0719   -9.7933   19.9434 C   0  0  0  0  0  0  0  0  0  0  0  0
  -23.7566   -9.8818   22.2586 C   0  0  0  0  0  0  0  0  0  0  0  0
  -27.9043  -33.2897   19.3414 C   0  0  0  0  0  0  0  0  0  0  0  0
  -27.8159  -31.1583   21.1289 C   0  0  0  0  0  0  0  0  0  0  0  0
  -26.4197  -26.2920   21.2493 C   0  0  0  0  0  0  0  0  0  0  0  0
  -31.9099  -16.6881   22.6038 C   0  0  0  0  0  0  0  0  0  0  0  0
  -22.3309   -8.6412   20.2065 C   0  0  0  0  0  0  0  0  0  0  0  0
  -23.0155   -8.7298   22.5218 C   0  0  0  0  0  0  0  0  0  0  0  0
  -27.1401  -25.4434   22.0888 C   0  0  0  0  0  0  0  0  0  0  0  0
  -23.3549   -5.3947   22.0824 C   0  0  0  0  0  0  0  0  0  0  0  0
  -23.9560   -4.3993   22.8527 C   0  0  0  0  0  0  0  0  0  0  0  0
  -32.4821  -17.5983   23.4924 C   0  0  0  0  0  0  0  0  0  0  0  0
  -25.3903  -25.6030   23.7416 C   0  0  0  0  0  0  0  0  0  0  0  0
  -22.1984   -4.6104   24.4969 C   0  0  0  0  0  0  0  0  0  0  0  0
  -23.7848  -10.4136   20.9694 C   0  0  0  0  0  0  0  0  0  0  0  0
  -24.1072  -12.9369   20.7785 C   0  0  0  0  0  0  0  0  0  0  0  0
  -26.7476  -33.0837   20.1097 C   0  0  0  0  0  0  0  0  0  0  0  0
  -25.1821  -26.8120   21.6548 C   0  0  0  0  0  0  0  0  0  0  0  0
  -26.7050  -32.0122   21.0220 C   0  0  0  0  0  0  0  0  0  0  0  0
  -24.6550  -26.4558   22.9044 C   0  0  0  0  0  0  0  0  0  0  0  0
  -29.7174  -17.5611   23.1215 C   0  0  0  0  0  0  0  0  0  0  0  0
  -30.5275  -16.6695   22.4183 C   0  0  0  0  0  0  0  0  0  0  0  0
  -22.3027   -8.1095   21.4958 C   0  0  0  0  0  0  0  0  0  0  0  0
  -26.6268  -25.1011   23.3363 C   0  0  0  0  0  0  0  0  0  0  0  0
  -22.1755   -5.9980   22.5193 C   0  0  0  0  0  0  0  0  0  0  0  0
  -23.3778   -4.0072   24.0600 C   0  0  0  0  0  0  0  0  0  0  0  0
  -21.5973   -5.6058   23.7266 C   0  0  0  0  0  0  0  0  0  0  0  0
  -30.2897  -18.4713   24.0102 C   0  0  0  0  0  0  0  0  0  0  0  0
  -31.6721  -18.4899   24.1956 C   0  0  0  0  0  0  0  0  0  0  0  0
  -24.5509  -11.6033   20.6981 C   0  0  0  0  0  0  0  0  0  0  0  0
  -25.2037  -13.6854   20.4265 C   0  0  0  0  0  0  0  0  0  0  0  0
  -22.8191  -13.4529   21.1393 C   0  0  0  0  0  0  0  0  0  0  0  0
  -24.0395  -29.7310   22.1814 C   0  0  0  0  0  0  0  0  0  0  0  0
  -21.2383  -28.1418   22.5690 C   0  0  0  0  0  0  0  0  0  0  0  0
  -19.6457  -25.2200   23.3265 C   0  0  0  0  0  0  0  0  0  0  0  0
  -30.6515  -14.7919   20.7434 C   0  0  0  0  0  0  0  0  0  0  0  0
  -25.6072  -34.0624   19.9817 C   0  0  0  0  0  0  0  0  0  0  0  0
  -24.4050  -27.7047   20.7266 C   0  0  0  0  0  0  0  0  0  0  0  0
  -23.3214  -26.9710   23.3785 C   0  0  0  0  0  0  0  0  0  0  0  0
  -24.2950  -33.5489   20.5688 C   0  0  0  0  0  0  0  0  0  0  0  0
  -29.6370  -12.2918   18.4201 C   0  0  0  0  0  0  0  0  0  0  0  0
  -24.5296  -32.9383   21.9469 C   0  0  0  0  0  0  0  0  0  0  0  0
  -28.1868  -11.9995   18.8122 C   0  0  0  0  0  0  0  0  0  0  0  0
  -30.5103  -12.5685   19.6426 C   0  0  0  0  0  0  0  0  0  0  0  0
  -28.5528  -13.3175   20.9373 C   0  0  0  0  0  0  0  0  0  0  0  0
  -25.4779  -31.7362   21.8635 C   0  0  1  0  0  0  0  0  0  0  0  0
  -23.3938  -28.5864   21.4529 C   0  0  1  0  0  0  0  0  0  0  0  0
  -27.6205  -13.0965   19.7350 C   0  0  2  0  0  0  0  0  0  0  0  0
  -28.2347  -17.5328   22.9122 C   0  0  0  0  0  0  0  0  0  0  0  0
  -17.3516  -24.2403   23.5990 C   0  0  0  0  0  0  0  0  0  0  0  0
  -20.9691  -29.5301   25.2727 C   0  0  0  0  0  0  0  0  0  0  0  0
  -19.2242  -27.8431   25.8869 C   0  0  0  0  0  0  0  0  0  0  0  0
  -18.8455  -29.3816   23.9603 C   0  0  0  0  0  0  0  0  0  0  0  0
  -20.0959  -23.2648   21.1509 C   0  0  0  0  0  0  0  0  0  0  0  0
  -28.2751  -22.0891   24.4494 C   0  0  0  0  0  0  0  0  0  0  0  0
  -28.1688  -23.3018   23.5373 C   0  0  0  0  0  0  0  0  0  1  0  0
  -29.1466  -21.0048   23.8403 C   0  0  0  0  0  0  0  0  0  0  0  0
  -20.5236  -27.5040   23.7358 C   0  0  1  0  0  0  0  0  0  0  0  0
  -18.5069  -24.4865   22.6413 C   0  0  2  0  0  0  0  0  0  0  0  0
  -19.9167  -28.5564   24.7061 C   0  0  0  0  0  0  0  0  0  0  0  0
  -25.8296  -11.5070   20.3242 N   0  0  0  0  0  0  0  0  0  0  0  0
  -26.1987  -12.7896   20.1664 N   0  0  0  0  0  0  0  0  0  0  0  0
  -22.6024  -27.8457   22.4375 N   0  0  0  0  0  0  0  0  0  0  0  0
  -29.9137  -13.6213   20.4675 N   0  0  0  0  0  0  0  0  0  0  0  0
  -25.4042  -15.0159   20.3171 N   0  0  0  0  0  0  0  0  0  0  0  0
  -21.8051  -12.5448   21.4731 N   0  0  0  0  0  0  0  0  0  0  0  0
  -29.9694  -15.7361   21.5100 N   0  0  0  0  0  0  0  0  0  0  0  0
  -24.7755  -30.5717   21.3684 N   0  0  0  0  0  0  0  0  0  0  0  0
  -19.5456  -26.5855   23.1627 N   0  0  0  0  0  0  0  0  0  0  0  0
  -18.9761  -23.1706   22.1226 N   0  3  0  0  0  0  0  0  0  0  0  0
  -22.5698  -14.6823   21.1489 O   0  0  0  0  0  0  0  0  0  0  0  0
  -23.8803  -29.8440   23.3912 O   0  0  0  0  0  0  0  0  0  0  0  0
  -20.6078  -28.8700   21.7984 O   0  0  0  0  0  0  0  0  0  0  0  0
  -20.5331  -24.6400   23.9483 O   0  0  0  0  0  0  0  0  0  0  0  0
  -31.7936  -14.9570   20.3072 O   0  0  0  0  0  0  0  0  0  0  0  0
  -27.9333  -18.9754   24.9735 O   0  0  0  0  0  0  0  0  0  0  0  0
  -29.9420  -19.9899   26.1056 O   0  0  0  0  0  0  0  0  0  0  0  0
  -21.5795   -6.9855   21.7530 O   0  0  0  0  0  0  0  0  0  0  0  0
  -27.3282  -24.2736   24.1580 O   0  0  0  0  0  0  0  0  0  1  0  0
  -23.9543   -3.0502   24.7990 F   0  0  0  0  0  0  0  0  0  0  0  0
  -20.4637   -6.1809   24.1509 F   0  0  0  0  0  0  0  0  0  0  0  0
  -29.2461  -19.5926   24.8936 S   0  0  0  0  0  0  0  0  0  0  0  0
  -32.4377  -19.5947   25.2813 Cl  0  0  0  0  0  0  0  0  0  0  0  0
  1  2  1  0  0  0  0
  1  5  2  0  0  0  0
  2  6  2  0  0  0  0
  3  9  2  0  0  0  0
  3 17  1  0  0  0  0
  4 10  1  0  0  0  0
  4 17  2  0  0  0  0
  5 19  1  0  0  0  0
  6 21  1  0  0  0  0
  7 11  2  0  0  0  0
  7 20  1  0  0  0  0
  8 14  1  0  0  0  0
  8 24  2  0  0  0  0
  9 25  1  0  0  0  0
 10 25  2  0  0  0  0
 11 26  1  0  0  0  0
 12 13  2  0  0  0  0
 12 27  1  0  0  0  0
 13 28  1  0  0  0  0
 14 31  2  0  0  0  0
 15 22  1  0  0  0  0
 15 26  2  0  0  0  0
 16 28  2  0  0  0  0
 16 29  1  0  0  0  0
 17 32  1  0  0  0  0
 18 32  1  0  0  0  0
 18 33  2  0  0  0  0
 18 34  1  0  0  0  0
 19 21  2  0  0  0  0
 19 39  1  0  0  0  0
 20 22  2  0  0  0  0
 20 40  1  0  0  0  0
 21 48  1  0  0  0  0
 22 41  1  0  0  0  0
 23 24  1  0  0  0  0
 23 30  2  0  0  0  0
 23 51  1  0  0  0  0
 24 69  1  0  0  0  0
 25 80  1  0  0  0  0
 26 81  1  0  0  0  0
 27 29  2  0  0  0  0
 27 80  1  0  0  0  0
 28 82  1  0  0  0  0
 29 83  1  0  0  0  0
 30 31  1  0  0  0  0
 30 84  1  0  0  0  0
 31 85  1  0  0  0  0
 32 63  2  0  0  0  0
 33 64  1  0  0  0  0
 33 67  1  0  0  0  0
 34 68  1  0  0  0  0
 34 73  2  0  0  0  0
 35 49  1  0  0  0  0
 35 70  1  0  0  0  0
 35 74  2  0  0  0  0
 36 60  1  0  0  0  0
 36 65  1  0  0  0  0
 36 75  2  0  0  0  0
 37 61  1  0  0  0  0
 37 71  1  0  0  0  0
 37 76  2  0  0  0  0
 38 66  1  0  0  0  0
 38 69  1  0  0  0  0
 38 77  2  0  0  0  0
 39 42  1  0  0  0  0
 40 49  1  0  0  0  0
 41 65  1  0  0  0  0
 42 44  1  0  0  0  0
 43 45  1  0  0  0  0
 43 46  1  0  0  0  0
 44 48  1  0  0  0  0
 45 50  1  0  0  0  0
 46 66  1  0  0  0  0
 47 50  1  0  0  0  0
 47 66  1  0  0  0  0
 48 70  1  0  0  0  0
 49 65  1  0  0  0  0
 50 64  1  0  0  0  0
 52 61  1  0  0  0  0
 53 62  1  0  0  0  0
 54 62  1  0  0  0  0
 55 62  1  0  0  0  0
 56 72  1  0  0  0  0
 57 58  1  0  0  0  0
 57 59  1  0  0  0  0
 58 81  1  0  0  0  0
 59 84  1  0  0  0  0
 60 62  1  0  0  0  0
 60 71  1  0  0  0  0
 61 72  1  0  0  0  0
 63 64  1  0  0  0  0
 78 84  2  0  0  0  0
 79 84  2  0  0  0  0
M  CHG  1  72   1
M  ISO  4  38 100  58 101  69 100  81 101
M  END
> <Batch ID>
0055

> <Smiles>
CNC(C)C(=O)NC(C(=O)N1Cc2cc([101O:1][101CH2:1]CCS(=O)(=O)c3c(Cl)ccc([100NH:0][100C:0](=O)N4CCCC(n5nc(-c6ccc(Oc7ccc(F)cc7F)cc6)c(C(N)=O)c5N)C4)c3C)ccc2CC1C(=O)NC1CCCc2ccccc21)C(C)(C)C

> <Shape>
0.276

> <Color>
0.203

> <Negative vol penalty>
0.000

$$$$

  -OEChem-04042322493D

 85 93  0     1  0  0  0  0  0999 V2000
  -27.0797  -24.5960   16.0580 C   0  0  0  0  0  0  0  0  0  0  0  0
  -26.0624  -25.4498   16.4691 C   0  0  0  0  0  0  0  0  0  0  0  0
  -24.7781  -12.6771   19.8204 C   0  0  0  0  0  0  0  0  0  0  0  0
  -25.5016  -13.8299   21.8166 C   0  0  0  0  0  0  0  0  0  0  0  0
  -28.1767  -24.3746   16.8880 C   0  0  0  0  0  0  0  0  0  0  0  0
  -26.1474  -26.0917   17.7051 C   0  0  0  0  0  0  0  0  0  0  0  0
  -22.7047  -29.4574   18.7169 C   0  0  0  0  0  0  0  0  0  0  0  0
  -25.4701  -11.5367   20.2281 C   0  0  0  0  0  0  0  0  0  0  0  0
  -26.1936  -12.6895   22.2244 C   0  0  0  0  0  0  0  0  0  0  0  0
  -21.3831  -29.1204   19.0057 C   0  0  0  0  0  0  0  0  0  0  0  0
  -25.0127   -8.9912   22.4062 C   0  0  0  0  0  0  0  0  0  0  0  0
  -24.3602   -7.7633   22.2967 C   0  0  0  0  0  0  0  0  0  0  0  0
  -21.7987  -29.5225   21.3477 C   0  0  0  0  0  0  0  0  0  0  0  0
  -21.9061  -22.8639   21.2686 C   0  0  0  0  0  0  0  0  0  0  0  0
  -22.2232  -25.2042   21.7777 C   0  0  0  0  0  0  0  0  0  0  0  0
  -23.5725  -24.1444   20.0767 C   0  0  0  0  0  0  0  0  0  0  0  0
  -26.0943   -6.9744   20.8109 C   0  0  0  0  0  0  0  0  0  0  0  0
  -24.7939  -13.8237   20.6146 C   0  0  0  0  0  0  0  0  0  0  0  0
  -22.7436  -15.3361   20.4854 C   0  0  0  0  0  0  0  0  0  0  0  0
  -28.2684  -25.0048   18.1399 C   0  0  0  0  0  0  0  0  0  0  0  0
  -23.5877  -29.8196   19.7442 C   0  0  0  0  0  0  0  0  0  0  0  0
  -27.2580  -25.8998   18.5467 C   0  0  0  0  0  0  0  0  0  0  0  0
  -23.1304  -29.8662   21.0689 C   0  0  0  0  0  0  0  0  0  0  0  0
  -21.5621  -23.9972   22.0053 C   0  0  0  0  0  0  0  0  0  0  0  0
  -22.9114  -22.9374   20.3044 C   0  0  0  0  0  0  0  0  0  0  0  0
  -26.1778  -11.5429   21.4301 C   0  0  0  0  0  0  0  0  0  0  0  0
  -20.9307  -29.1501   20.3216 C   0  0  0  0  0  0  0  0  0  0  0  0
  -26.2060   -9.2108   21.7180 C   0  0  0  0  0  0  0  0  0  0  0  0
  -24.9010   -6.7548   21.4991 C   0  0  0  0  0  0  0  0  0  0  0  0
  -23.2284  -25.2778   20.8134 C   0  0  0  0  0  0  0  0  0  0  0  0
  -26.7468   -8.2024   20.9204 C   0  0  0  0  0  0  0  0  0  0  0  0
  -24.0797  -15.0022   20.1937 C   0  0  0  0  0  0  0  0  0  0  0  0
  -22.5471  -16.5433   19.8605 C   0  0  0  0  0  0  0  0  0  0  0  0
  -21.7674  -14.6192   21.2527 C   0  0  0  0  0  0  0  0  0  0  0  0
  -26.3038  -28.6310   20.8905 C   0  0  0  0  0  0  0  0  0  0  0  0
  -26.2699  -31.3287   22.6915 C   0  0  0  0  0  0  0  0  0  0  0  0
  -19.0247  -25.8357   23.6399 C   0  0  0  0  0  0  0  0  0  0  0  0
  -24.4494  -33.8437   24.1082 C   0  0  0  0  0  0  0  0  0  0  0  0
  -24.2351  -21.6881   18.5627 C   0  0  0  0  0  0  0  0  0  0  0  0
  -29.4815  -24.7355   18.9948 C   0  0  0  0  0  0  0  0  0  0  0  0
  -25.0031  -30.2062   19.4130 C   0  0  0  0  0  0  0  0  0  0  0  0
  -24.0329  -30.2679   22.2058 C   0  0  0  0  0  0  0  0  0  0  0  0
  -29.2712  -25.1065   20.4592 C   0  0  0  0  0  0  0  0  0  0  0  0
  -25.4215  -19.0275   16.5156 C   0  0  0  0  0  0  0  0  0  0  0  0
  -28.6960  -26.5112   20.5620 C   0  0  0  0  0  0  0  0  0  0  0  0
  -25.0683  -17.7706   17.3140 C   0  0  0  0  0  0  0  0  0  0  0  0
  -25.8480  -20.1770   17.4269 C   0  0  0  0  0  0  0  0  0  0  0  0
  -24.5483  -19.2441   19.3003 C   0  0  0  0  0  0  0  0  0  0  0  0
  -27.3142  -26.5853   19.9000 C   0  0  1  0  0  0  0  0  0  0  0  0
  -25.9544  -30.0626   20.5970 C   0  0  1  0  0  0  0  0  0  0  0  0
  -24.0504  -18.0790   18.4295 C   0  0  2  0  0  0  0  0  0  0  0  0
  -24.6948  -35.8796   25.5547 C   0  0  0  0  0  0  0  0  0  0  0  0
  -26.5823  -29.5439   25.1464 C   0  0  0  0  0  0  0  0  0  0  0  0
  -25.8745  -31.4844   26.5611 C   0  0  0  0  0  0  0  0  0  0  0  0
  -27.9558  -31.6332   25.1941 C   0  0  0  0  0  0  0  0  0  0  0  0
  -23.4124  -35.6220   21.9819 C   0  0  0  0  0  0  0  0  0  0  0  0
  -20.4798  -23.9187   23.0429 C   0  0  0  0  0  0  0  0  0  0  0  0
  -17.8586  -26.6464   23.1032 C   0  0  0  0  0  0  0  0  0  0  0  0
  -18.1790  -27.3185   21.7730 C   0  0  0  0  0  0  0  0  0  0  0  0
  -19.3869  -28.2375   21.8835 C   0  0  0  0  0  0  0  0  0  1  0  0
  -25.7074  -31.7066   24.0404 C   0  0  1  0  0  0  0  0  0  0  0  0
  -24.6559  -35.3475   24.1306 C   0  0  2  0  0  0  0  0  0  0  0  0
  -26.5133  -31.0825   25.2145 C   0  0  0  0  0  0  0  0  0  0  0  0
  -24.6889  -15.9229   19.4418 N   0  0  0  0  0  0  0  0  0  0  0  0
  -23.7312  -16.8471   19.2557 N   0  0  0  0  0  0  0  0  0  0  0  0
  -25.4098  -30.6310   21.8317 N   0  0  0  0  0  0  0  0  0  0  0  0
  -24.8336  -20.4149   18.4561 N   0  0  0  0  0  0  0  0  0  0  0  0
  -21.4786  -17.3639   19.7747 N   0  0  0  0  0  0  0  0  0  0  0  0
  -22.1360  -13.3943   21.8256 N   0  0  0  0  0  0  0  0  0  0  0  0
  -23.2614  -21.7862   19.5561 N   0  0  0  0  0  0  0  0  0  0  0  0
  -26.8965  -27.9683   19.8326 N   0  0  0  0  0  0  0  0  0  0  0  0
  -19.3943  -24.8279   22.7611 N   0  0  0  0  0  0  0  0  0  0  0  0
  -25.6483  -33.1641   24.0644 N   0  0  0  0  0  0  0  0  0  0  0  0
  -23.5508  -36.0330   23.4028 N   0  3  0  0  0  0  0  0  0  0  0  0
  -20.5979  -15.0440   21.4115 O   0  0  0  0  0  0  0  0  0  0  0  0
  -26.0556  -28.1628   21.9954 O   0  0  0  0  0  0  0  0  0  0  0  0
  -27.4274  -31.6474   22.4082 O   0  0  0  0  0  0  0  0  0  0  0  0
  -19.5618  -26.0604   24.7212 O   0  0  0  0  0  0  0  0  0  0  0  0
  -23.3359  -33.3238   24.1314 O   0  0  0  0  0  0  0  0  0  0  0  0
  -24.5429  -22.6151   17.8090 O   0  0  0  0  0  0  0  0  0  0  0  0
  -26.8529  -10.4302   21.8284 O   0  0  0  0  0  0  0  0  0  0  0  0
  -19.6413  -28.8210   20.6064 O   0  0  0  0  0  0  0  0  0  1  0  0
  -24.2751   -5.5751   21.3952 F   0  0  0  0  0  0  0  0  0  0  0  0
  -23.8631  -26.4369   20.5948 F   0  0  0  0  0  0  0  0  0  0  0  0
  -27.8935   -8.4070   20.2578 F   0  0  0  0  0  0  0  0  0  0  0  0
  1  2  1  0  0  0  0
  1  5  2  0  0  0  0
  2  6  2  0  0  0  0
  3  8  2  0  0  0  0
  3 18  1  0  0  0  0
  4  9  1  0  0  0  0
  4 18  2  0  0  0  0
  5 20  1  0  0  0  0
  6 22  1  0  0  0  0
  7 10  2  0  0  0  0
  7 21  1  0  0  0  0
  8 26  1  0  0  0  0
  9 26  2  0  0  0  0
 10 27  1  0  0  0  0
 11 12  2  0  0  0  0
 11 28  1  0  0  0  0
 12 29  1  0  0  0  0
 13 23  1  0  0  0  0
 13 27  2  0  0  0  0
 14 24  2  0  0  0  0
 14 25  1  0  0  0  0
 15 24  1  0  0  0  0
 15 30  2  0  0  0  0
 16 25  2  0  0  0  0
 16 30  1  0  0  0  0
 17 29  2  0  0  0  0
 17 31  1  0  0  0  0
 18 32  1  0  0  0  0
 19 32  1  0  0  0  0
 19 33  2  0  0  0  0
 19 34  1  0  0  0  0
 20 22  2  0  0  0  0
 20 40  1  0  0  0  0
 21 23  2  0  0  0  0
 21 41  1  0  0  0  0
 22 49  1  0  0  0  0
 23 42  1  0  0  0  0
 24 57  1  0  0  0  0
 25 70  1  0  0  0  0
 26 81  1  0  0  0  0
 27 82  1  0  0  0  0
 28 31  2  0  0  0  0
 28 81  1  0  0  0  0
 29 83  1  0  0  0  0
 30 84  1  0  0  0  0
 31 85  1  0  0  0  0
 32 64  2  0  0  0  0
 33 65  1  0  0  0  0
 33 68  1  0  0  0  0
 34 69  1  0  0  0  0
 34 75  2  0  0  0  0
 35 50  1  0  0  0  0
 35 71  1  0  0  0  0
 35 76  2  0  0  0  0
 36 61  1  0  0  0  0
 36 66  1  0  0  0  0
 36 77  2  0  0  0  0
 37 58  1  0  0  0  0
 37 72  1  0  0  0  0
 37 78  2  0  0  0  0
 38 62  1  0  0  0  0
 38 73  1  0  0  0  0
 38 79  2  0  0  0  0
 39 67  1  0  0  0  0
 39 70  1  0  0  0  0
 39 80  2  0  0  0  0
 40 43  1  0  0  0  0
 41 50  1  0  0  0  0
 42 66  1  0  0  0  0
 43 45  1  0  0  0  0
 44 46  1  0  0  0  0
 44 47  1  0  0  0  0
 45 49  1  0  0  0  0
 46 51  1  0  0  0  0
 47 67  1  0  0  0  0
 48 51  1  0  0  0  0
 48 67  1  0  0  0  0
 49 71  1  0  0  0  0
 50 66  1  0  0  0  0
 51 65  1  0  0  0  0
 52 62  1  0  0  0  0
 53 63  1  0  0  0  0
 54 63  1  0  0  0  0
 55 63  1  0  0  0  0
 56 74  1  0  0  0  0
 57 72  1  0  0  0  0
 58 59  1  0  0  0  0
 59 60  1  0  0  0  0
 60 82  1  0  0  0  0
 61 63  1  0  0  0  0
 61 73  1  0  0  0  0
 62 74  1  0  0  0  0
 64 65  1  0  0  0  0
M  CHG  1  74   1
M  ISO  4  39 100  60 101  70 100  82 101
M  END
> <Batch ID>
0055

> <Smiles>
CNC(C)C(=O)NC(C(=O)N1Cc2cc([101O:1][101CH2:1]CCC(=O)NCc3cc(F)cc([100NH:0][100C:0](=O)N4CCCC(n5nc(-c6ccc(Oc7ccc(F)cc7F)cc6)c(C(N)=O)c5N)C4)c3)ccc2CC1C(=O)NC1CCCc2ccccc21)C(C)(C)C

> <Shape>
0.246

> <Color>
0.080

> <Negative vol penalty>
0.000

$$$$

  -OEChem-04042322493D

 87 95  0     1  0  0  0  0  0999 V2000
  -16.5584  -29.9602   22.7286 C   0  0  0  0  0  0  0  0  0  0  0  0
  -17.6710  -30.7421   22.4350 C   0  0  0  0  0  0  0  0  0  0  0  0
  -22.4228  -12.8118   21.2806 C   0  0  0  0  0  0  0  0  0  0  0  0
  -23.1869  -14.1929   23.1097 C   0  0  0  0  0  0  0  0  0  0  0  0
  -16.7042  -28.7987   23.4859 C   0  0  0  0  0  0  0  0  0  0  0  0
  -18.9300  -30.3634   22.8996 C   0  0  0  0  0  0  0  0  0  0  0  0
  -25.5433  -29.0809   18.9439 C   0  0  0  0  0  0  0  0  0  0  0  0
  -31.3703  -20.8637   18.8087 C   0  0  0  0  0  0  0  0  0  0  0  0
  -31.0119  -19.5320   19.0179 C   0  0  0  0  0  0  0  0  0  0  0  0
  -21.7334  -12.0001   22.1815 C   0  0  0  0  0  0  0  0  0  0  0  0
  -22.4974  -13.3813   24.0106 C   0  0  0  0  0  0  0  0  0  0  0  0
  -26.7319  -28.6732   18.3381 C   0  0  0  0  0  0  0  0  0  0  0  0
  -22.4585   -9.5099   24.3488 C   0  0  0  0  0  0  0  0  0  0  0  0
  -22.5705   -8.1284   24.1921 C   0  0  0  0  0  0  0  0  0  0  0  0
  -27.2078  -27.2296   20.2189 C   0  0  0  0  0  0  0  0  0  0  0  0
  -29.5816  -20.2041   20.8454 C   0  0  0  0  0  0  0  0  0  0  0  0
  -20.1800   -7.9701   23.8793 C   0  0  0  0  0  0  0  0  0  0  0  0
  -23.1496  -13.9082   21.7448 C   0  0  0  0  0  0  0  0  0  0  0  0
  -23.3746  -15.8906   20.1551 C   0  0  0  0  0  0  0  0  0  0  0  0
  -17.9671  -28.4004   23.9518 C   0  0  0  0  0  0  0  0  0  0  0  0
  -25.1744  -28.5522   20.1840 C   0  0  0  0  0  0  0  0  0  0  0  0
  -19.0927  -29.1961   23.6650 C   0  0  0  0  0  0  0  0  0  0  0  0
  -26.0122  -27.6248   20.8248 C   0  0  0  0  0  0  0  0  0  0  0  0
  -30.8344  -21.8656   19.6179 C   0  0  0  0  0  0  0  0  0  0  0  0
  -29.9400  -21.5358   20.6362 C   0  0  0  0  0  0  0  0  0  0  0  0
  -30.1175  -19.2022   20.0362 C   0  0  0  0  0  0  0  0  0  0  0  0
  -21.7707  -12.2849   23.5464 C   0  0  0  0  0  0  0  0  0  0  0  0
  -27.5622  -27.7500   18.9741 C   0  0  0  0  0  0  0  0  0  0  0  0
  -21.2073  -10.1215   24.2708 C   0  0  0  0  0  0  0  0  0  0  0  0
  -21.4313   -7.3585   23.9573 C   0  0  0  0  0  0  0  0  0  0  0  0
  -20.0681   -9.3516   24.0360 C   0  0  0  0  0  0  0  0  0  0  0  0
  -23.8625  -14.7466   20.8148 C   0  0  0  0  0  0  0  0  0  0  0  0
  -24.4302  -16.3218   19.3895 C   0  0  0  0  0  0  0  0  0  0  0  0
  -22.0827  -16.5081   20.2278 C   0  0  0  0  0  0  0  0  0  0  0  0
  -22.6428  -28.4610   22.9515 C   0  0  0  0  0  0  0  0  0  0  0  0
  -23.5933  -25.5768   22.5179 C   0  0  0  0  0  0  0  0  0  0  0  0
  -24.5890  -22.4960   21.4434 C   0  0  0  0  0  0  0  0  0  0  0  0
  -30.0444  -25.4109   18.8701 C   0  0  0  0  0  0  0  0  0  0  0  0
  -30.1895  -16.7346   19.5342 C   0  0  0  0  0  0  0  0  0  0  0  0
  -18.0681  -27.1621   24.8068 C   0  0  0  0  0  0  0  0  0  0  0  0
  -23.9334  -29.0089   20.9019 C   0  0  0  0  0  0  0  0  0  0  0  0
  -25.5920  -27.1089   22.1740 C   0  0  0  0  0  0  0  0  0  0  0  0
  -19.4928  -26.6313   24.9442 C   0  0  0  0  0  0  0  0  0  0  0  0
  -28.5466  -14.2163   17.6273 C   0  0  0  0  0  0  0  0  0  0  0  0
  -20.4582  -27.7693   25.2603 C   0  0  0  0  0  0  0  0  0  0  0  0
  -27.1231  -14.2069   18.1891 C   0  0  0  0  0  0  0  0  0  0  0  0
  -29.5856  -14.4662   18.7190 C   0  0  0  0  0  0  0  0  0  0  0  0
  -27.9261  -15.6520   20.1006 C   0  0  0  0  0  0  0  0  0  0  0  0
  -20.4787  -28.8053   24.1300 C   0  0  1  0  0  0  0  0  0  0  0  0
  -23.2549  -27.8867   21.7077 C   0  0  1  0  0  0  0  0  0  0  0  0
  -26.8401  -15.4686   19.0280 C   0  0  2  0  0  0  0  0  0  0  0  0
  -24.2954  -20.0512   21.9273 C   0  0  0  0  0  0  0  0  0  0  0  0
  -29.0285  -25.7663   16.5924 C   0  0  0  0  0  0  0  0  0  0  0  0
  -25.4279  -25.8399   24.9405 C   0  0  0  0  0  0  0  0  0  0  0  0
  -25.8564  -23.3775   24.7945 C   0  0  0  0  0  0  0  0  0  0  0  0
  -23.5473  -24.2164   25.2270 C   0  0  0  0  0  0  0  0  0  0  0  0
  -23.4600  -21.9810   18.7565 C   0  0  0  0  0  0  0  0  0  0  0  0
  -31.2358  -23.2916   19.3741 C   0  0  0  0  0  0  0  0  0  0  0  0
  -24.5530  -24.4868   22.9232 C   0  0  1  0  0  0  0  0  0  0  0  0
  -23.8017  -21.2397   21.1171 C   0  0  2  0  0  0  0  0  0  0  0  0
  -28.8577  -25.9613   18.0912 C   0  0  2  0  0  0  0  0  0  1  0  0
  -29.3520  -22.5917   21.5136 C   0  0  0  0  0  0  0  0  0  0  0  0
  -24.8514  -24.4971   24.4491 C   0  0  0  0  0  0  0  0  0  0  0  0
  -25.1294  -14.4686   20.4961 N   0  0  0  0  0  0  0  0  0  0  0  0
  -25.4466  -15.4440   19.6277 N   0  0  0  0  0  0  0  0  0  0  0  0
  -24.1506  -26.8139   22.1724 N   0  0  0  0  0  0  0  0  0  0  0  0
  -29.2548  -15.6796   19.4693 N   0  0  0  0  0  0  0  0  0  0  0  0
  -24.5790  -17.3625   18.5426 N   0  0  0  0  0  0  0  0  0  0  0  0
  -21.1145  -15.9354   21.0638 N   0  0  0  0  0  0  0  0  0  0  0  0
  -29.7516  -17.8498   20.2478 N   0  0  0  0  0  0  0  0  0  0  0  0
  -21.2694  -28.3240   23.0175 N   0  0  0  0  0  0  0  0  0  0  0  0
  -30.1927  -24.0414   18.7143 N   0  0  0  0  0  0  0  0  0  0  0  0
  -23.9809  -23.2368   22.4347 N   0  0  0  0  0  0  0  0  0  0  0  0
  -23.9313  -20.9084   19.6699 N   0  3  0  0  0  0  0  0  0  0  0  0
  -21.7902  -17.5279   19.5585 O   0  0  0  0  0  0  0  0  0  0  0  0
  -23.3628  -28.9887   23.7911 O   0  0  0  0  0  0  0  0  0  0  0  0
  -22.3816  -25.3422   22.5124 O   0  0  0  0  0  0  0  0  0  0  0  0
  -25.6403  -22.7888   20.8781 O   0  0  0  0  0  0  0  0  0  0  0  0
  -30.7634  -26.1231   19.5678 O   0  0  0  0  0  0  0  0  0  0  0  0
  -31.2862  -16.6654   18.9734 O   0  0  0  0  0  0  0  0  0  0  0  0
  -21.0978  -11.4933   24.4257 O   0  0  0  0  0  0  0  0  0  0  0  0
  -28.7190  -27.3529   18.3750 O   0  0  0  0  0  0  0  0  0  1  0  0
  -21.5392   -6.0321   23.8054 F   0  0  0  0  0  0  0  0  0  0  0  0
  -18.8635   -9.9337   23.9588 F   0  0  0  0  0  0  0  0  0  0  0  0
  -28.4956  -22.1022   22.4573 F   0  0  0  0  0  0  0  0  0  0  0  0
  -30.2857  -23.3019   22.2117 F   0  0  0  0  0  0  0  0  0  0  0  0
  -28.6360  -23.5163   20.8113 F   0  0  0  0  0  0  0  0  0  0  0  0
  1  2  1  0  0  0  0
  1  5  2  0  0  0  0
  2  6  2  0  0  0  0
  3 10  2  0  0  0  0
  3 18  1  0  0  0  0
  4 11  1  0  0  0  0
  4 18  2  0  0  0  0
  5 20  1  0  0  0  0
  6 22  1  0  0  0  0
  7 12  2  0  0  0  0
  7 21  1  0  0  0  0
  8  9  2  0  0  0  0
  8 24  1  0  0  0  0
  9 26  1  0  0  0  0
 10 27  1  0  0  0  0
 11 27  2  0  0  0  0
 12 28  1  0  0  0  0
 13 14  2  0  0  0  0
 13 29  1  0  0  0  0
 14 30  1  0  0  0  0
 15 23  1  0  0  0  0
 15 28  2  0  0  0  0
 16 25  1  0  0  0  0
 16 26  2  0  0  0  0
 17 30  2  0  0  0  0
 17 31  1  0  0  0  0
 18 32  1  0  0  0  0
 19 32  1  0  0  0  0
 19 33  2  0  0  0  0
 19 34  1  0  0  0  0
 20 22  2  0  0  0  0
 20 40  1  0  0  0  0
 21 23  2  0  0  0  0
 21 41  1  0  0  0  0
 22 49  1  0  0  0  0
 23 42  1  0  0  0  0
 24 25  2  0  0  0  0
 24 58  1  0  0  0  0
 25 62  1  0  0  0  0
 26 70  1  0  0  0  0
 27 81  1  0  0  0  0
 28 82  1  0  0  0  0
 29 31  2  0  0  0  0
 29 81  1  0  0  0  0
 30 83  1  0  0  0  0
 31 84  1  0  0  0  0
 32 64  2  0  0  0  0
 33 65  1  0  0  0  0
 33 68  1  0  0  0  0
 34 69  1  0  0  0  0
 34 75  2  0  0  0  0
 35 50  1  0  0  0  0
 35 71  1  0  0  0  0
 35 76  2  0  0  0  0
 36 59  1  0  0  0  0
 36 66  1  0  0  0  0
 36 77  2  0  0  0  0
 37 60  1  0  0  0  0
 37 73  1  0  0  0  0
 37 78  2  0  0  0  0
 38 61  1  0  0  0  0
 38 72  1  0  0  0  0
 38 79  2  0  0  0  0
 39 67  1  0  0  0  0
 39 70  1  0  0  0  0
 39 80  2  0  0  0  0
 40 43  1  0  0  0  0
 41 50  1  0  0  0  0
 42 66  1  0  0  0  0
 43 45  1  0  0  0  0
 44 46  1  0  0  0  0
 44 47  1  0  0  0  0
 45 49  1  0  0  0  0
 46 51  1  0  0  0  0
 47 67  1  0  0  0  0
 48 51  1  0  0  0  0
 48 67  1  0  0  0  0
 49 71  1  0  0  0  0
 50 66  1  0  0  0  0
 51 65  1  0  0  0  0
 52 60  1  0  0  0  0
 53 61  1  0  0  0  0
 54 63  1  0  0  0  0
 55 63  1  0  0  0  0
 56 63  1  0  0  0  0
 57 74  1  0  0  0  0
 58 72  1  0  0  0  0
 59 63  1  0  0  0  0
 59 73  1  0  0  0  0
 60 74  1  0  0  0  0
 61 82  1  0  0  0  0
 62 85  1  0  0  0  0
 62 86  1  0  0  0  0
 62 87  1  0  0  0  0
 64 65  1  0  0  0  0
M  CHG  1  74   1
M  ISO  4  39 100  61 101  70 100  82 101
M  END
> <Batch ID>
0055

> <Smiles>
CNC(C)C(=O)NC(C(=O)N1Cc2cc([101O:1][101CH:1](C)C(=O)NCc3ccc([100NH:0][100C:0](=O)N4CCCC(n5nc(-c6ccc(Oc7ccc(F)cc7F)cc6)c(C(N)=O)c5N)C4)cc3C(F)(F)F)ccc2CC1C(=O)NC1CCCc2ccccc21)C(C)(C)C

> <Shape>
0.223

> <Color>
0.073

> <Negative vol penalty>
0.000

$$$$

  -OEChem-04042322493D

 86 94  0     1  0  0  0  0  0999 V2000
  -20.6890  -23.7451   20.3639 C   0  0  0  0  0  0  0  0  0  0  0  0
  -22.0308  -24.1070   20.2994 C   0  0  0  0  0  0  0  0  0  0  0  0
  -20.5308  -13.0098   22.1052 C   0  0  0  0  0  0  0  0  0  0  0  0
  -20.4471  -12.7535   19.7042 C   0  0  0  0  0  0  0  0  0  0  0  0
  -19.7033  -24.7306   20.3984 C   0  0  0  0  0  0  0  0  0  0  0  0
  -22.3876  -25.4546   20.2682 C   0  0  0  0  0  0  0  0  0  0  0  0
  -26.2422  -26.5162   23.3762 C   0  0  0  0  0  0  0  0  0  0  0  0
  -29.2837  -18.0869   18.2556 C   0  0  0  0  0  0  0  0  0  0  0  0
  -19.3678  -12.2493   22.2269 C   0  0  0  0  0  0  0  0  0  0  0  0
  -19.2842  -11.9930   19.8259 C   0  0  0  0  0  0  0  0  0  0  0  0
  -27.5225  -26.1747   22.9425 C   0  0  0  0  0  0  0  0  0  0  0  0
  -16.4939   -9.6812   19.5293 C   0  0  0  0  0  0  0  0  0  0  0  0
  -16.4029   -8.5093   18.7783 C   0  0  0  0  0  0  0  0  0  0  0  0
  -30.3700  -18.1964   19.1237 C   0  0  0  0  0  0  0  0  0  0  0  0
  -27.9046  -28.4645   22.2867 C   0  0  0  0  0  0  0  0  0  0  0  0
  -29.0834  -20.4940   18.2027 C   0  0  0  0  0  0  0  0  0  0  0  0
  -18.3665   -7.6449   19.8892 C   0  0  0  0  0  0  0  0  0  0  0  0
  -21.0704  -13.2619   20.8438 C   0  0  0  0  0  0  0  0  0  0  0  0
  -23.5987  -13.5787   20.7211 C   0  0  0  0  0  0  0  0  0  0  0  0
  -20.0487  -26.0911   20.3774 C   0  0  0  0  0  0  0  0  0  0  0  0
  -25.7788  -27.8345   23.2582 C   0  0  0  0  0  0  0  0  0  0  0  0
  -21.4055  -26.4592   20.3011 C   0  0  0  0  0  0  0  0  0  0  0  0
  -26.6190  -28.8207   22.7220 C   0  0  0  0  0  0  0  0  0  0  0  0
  -28.6404  -19.2357   17.7951 C   0  0  0  0  0  0  0  0  0  0  0  0
  -30.1697  -20.6035   19.0707 C   0  0  0  0  0  0  0  0  0  0  0  0
  -18.7445  -11.7409   21.0873 C   0  0  0  0  0  0  0  0  0  0  0  0
  -28.3528  -27.1483   22.3950 C   0  0  0  0  0  0  0  0  0  0  0  0
  -17.5213   -9.8349   20.4602 C   0  0  0  0  0  0  0  0  0  0  0  0
  -17.3392   -7.4911   18.9582 C   0  0  0  0  0  0  0  0  0  0  0  0
  -18.4575   -8.8168   20.6402 C   0  0  0  0  0  0  0  0  0  0  0  0
  -30.8130  -19.4547   19.5312 C   0  0  0  0  0  0  0  0  0  0  0  0
  -22.2714  -14.0479   20.7174 C   0  0  0  0  0  0  0  0  0  0  0  0
  -24.3632  -14.7101   20.5728 C   0  0  0  0  0  0  0  0  0  0  0  0
  -30.7791  -24.2500   19.7208 C   0  0  0  0  0  0  0  0  0  0  0  0
  -30.4084  -25.5160   19.4839 C   0  0  0  0  0  0  0  0  0  0  0  0
  -24.0961  -12.2399   20.8470 C   0  0  0  0  0  0  0  0  0  0  0  0
  -30.0458  -23.1145   19.0866 C   0  0  0  0  0  0  0  0  0  0  0  0
  -23.3937  -29.2425   21.6986 C   0  0  0  0  0  0  0  0  0  0  0  0
  -24.3800  -31.8586   23.3435 C   0  0  0  0  0  0  0  0  0  0  0  0
  -26.9025  -33.4680   24.9848 C   0  0  0  0  0  0  0  0  0  0  0  0
  -25.3796  -19.6070   18.0963 C   0  0  0  0  0  0  0  0  0  0  0  0
  -18.9459  -27.1199   20.3687 C   0  0  0  0  0  0  0  0  0  0  0  0
  -24.4050  -28.1921   23.7553 C   0  0  0  0  0  0  0  0  0  0  0  0
  -26.1765  -30.2545   22.5920 C   0  0  0  0  0  0  0  0  0  0  0  0
  -19.4244  -28.5286   20.7103 C   0  0  0  0  0  0  0  0  0  0  0  0
  -23.0909  -19.5994   20.8237 C   0  0  0  0  0  0  0  0  0  0  0  0
  -20.6901  -28.8666   19.9290 C   0  0  0  0  0  0  0  0  0  0  0  0
  -22.7787  -18.1169   21.0351 C   0  0  0  0  0  0  0  0  0  0  0  0
  -23.2647  -19.9342   19.3439 C   0  0  0  0  0  0  0  0  0  0  0  0
  -23.9379  -17.6169   18.8431 C   0  0  0  0  0  0  0  0  0  0  0  0
  -21.8334  -27.9107   20.2906 C   0  0  1  0  0  0  0  0  0  0  0  0
  -23.8488  -29.4597   23.1140 C   0  0  1  0  0  0  0  0  0  0  0  0
  -23.8094  -17.2198   20.3236 C   0  0  2  0  0  0  0  0  0  0  0  0
  -27.4185  -35.6083   26.1891 C   0  0  0  0  0  0  0  0  0  0  0  0
  -24.5642  -33.3161   20.6692 C   0  0  0  0  0  0  0  0  0  0  0  0
  -25.9527  -35.0669   21.7982 C   0  0  0  0  0  0  0  0  0  0  0  0
  -23.6015  -34.6760   22.5343 C   0  0  0  0  0  0  0  0  0  0  0  0
  -27.4989  -32.0402   27.5077 C   0  0  0  0  0  0  0  0  0  0  0  0
  -27.4792  -19.1182   16.8667 C   0  0  0  0  0  0  0  0  0  0  0  0
  -31.1034  -26.7071   20.0842 C   0  0  0  0  0  0  0  0  0  0  0  0
  -30.1427  -27.5751   20.8882 C   0  0  0  0  0  0  0  0  0  1  0  0
  -25.3765  -32.9650   23.0946 C   0  0  1  0  0  0  0  0  0  0  0  0
  -26.9416  -34.1711   26.3297 C   0  0  2  0  0  0  0  0  0  0  0  0
  -24.8817  -33.9787   22.0246 C   0  0  0  0  0  0  0  0  0  0  0  0
  -22.1936  -15.3740   20.5781 N   0  0  0  0  0  0  0  0  0  0  0  0
  -23.4817  -15.7478   20.4929 N   0  0  0  0  0  0  0  0  0  0  0  0
  -24.8224  -30.5532   23.0865 N   0  0  0  0  0  0  0  0  0  0  0  0
  -24.2565  -19.0488   18.7288 N   0  0  0  0  0  0  0  0  0  0  0  0
  -25.6967  -14.9087   20.5045 N   0  0  0  0  0  0  0  0  0  0  0  0
  -23.1732  -11.1951   20.9915 N   0  0  0  0  0  0  0  0  0  0  0  0
  -30.5933  -21.8961   19.4661 N   0  0  0  0  0  0  0  0  0  0  0  0
  -22.4145  -28.2768   21.5644 N   0  0  0  0  0  0  0  0  0  0  0  0
  -25.6590  -33.5603   24.3962 N   0  0  0  0  0  0  0  0  0  0  0  0
  -26.2735  -18.6973   17.5449 N   0  0  0  0  0  0  0  0  0  0  0  0
  -27.8629  -33.4590   27.2598 N   0  3  0  0  0  0  0  0  0  0  0  0
  -25.3232  -11.9797   20.8485 O   0  0  0  0  0  0  0  0  0  0  0  0
  -29.0941  -23.3096   18.3398 O   0  0  0  0  0  0  0  0  0  0  0  0
  -23.8928  -29.9033   20.7953 O   0  0  0  0  0  0  0  0  0  0  0  0
  -23.2531  -32.1416   23.7577 O   0  0  0  0  0  0  0  0  0  0  0  0
  -27.8785  -32.8973   24.5029 O   0  0  0  0  0  0  0  0  0  0  0  0
  -25.5742  -20.8256   18.0327 O   0  0  0  0  0  0  0  0  0  0  0  0
  -17.6098  -10.9986   21.2057 O   0  0  0  0  0  0  0  0  0  0  0  0
  -29.6027  -26.8175   21.9703 O   0  0  0  0  0  0  0  0  0  1  0  0
  -17.2507   -6.3652   18.2381 F   0  0  0  0  0  0  0  0  0  0  0  0
  -19.4460   -8.9582   21.5339 F   0  0  0  0  0  0  0  0  0  0  0  0
  -32.1617  -19.5441   20.6073 Cl  0  0  0  0  0  0  0  0  0  0  0  0
  1  2  1  0  0  0  0
  1  5  2  0  0  0  0
  2  6  2  0  0  0  0
  3  9  2  0  0  0  0
  3 18  1  0  0  0  0
  4 10  1  0  0  0  0
  4 18  2  0  0  0  0
  5 20  1  0  0  0  0
  6 22  1  0  0  0  0
  7 11  2  0  0  0  0
  7 21  1  0  0  0  0
  8 14  2  0  0  0  0
  8 24  1  0  0  0  0
  9 26  1  0  0  0  0
 10 26  2  0  0  0  0
 11 27  1  0  0  0  0
 12 13  2  0  0  0  0
 12 28  1  0  0  0  0
 13 29  1  0  0  0  0
 14 31  1  0  0  0  0
 15 23  1  0  0  0  0
 15 27  2  0  0  0  0
 16 24  2  0  0  0  0
 16 25  1  0  0  0  0
 17 29  2  0  0  0  0
 17 30  1  0  0  0  0
 18 32  1  0  0  0  0
 19 32  1  0  0  0  0
 19 33  2  0  0  0  0
 19 36  1  0  0  0  0
 20 22  2  0  0  0  0
 20 42  1  0  0  0  0
 21 23  2  0  0  0  0
 21 43  1  0  0  0  0
 22 51  1  0  0  0  0
 23 44  1  0  0  0  0
 24 59  1  0  0  0  0
 25 31  2  0  0  0  0
 25 71  1  0  0  0  0
 26 82  1  0  0  0  0
 27 83  1  0  0  0  0
 28 30  2  0  0  0  0
 28 82  1  0  0  0  0
 29 84  1  0  0  0  0
 30 85  1  0  0  0  0
 31 86  1  0  0  0  0
 32 65  2  0  0  0  0
 33 66  1  0  0  0  0
 33 69  1  0  0  0  0
 34 35  2  0  0  0  0
 34 37  1  0  0  0  0
 35 60  1  0  0  0  0
 36 70  1  0  0  0  0
 36 76  2  0  0  0  0
 37 71  1  0  0  0  0
 37 77  2  0  0  0  0
 38 52  1  0  0  0  0
 38 72  1  0  0  0  0
 38 78  2  0  0  0  0
 39 62  1  0  0  0  0
 39 67  1  0  0  0  0
 39 79  2  0  0  0  0
 40 63  1  0  0  0  0
 40 73  1  0  0  0  0
 40 80  2  0  0  0  0
 41 68  1  0  0  0  0
 41 74  1  0  0  0  0
 41 81  2  0  0  0  0
 42 45  1  0  0  0  0
 43 52  1  0  0  0  0
 44 67  1  0  0  0  0
 45 47  1  0  0  0  0
 46 48  1  0  0  0  0
 46 49  1  0  0  0  0
 47 51  1  0  0  0  0
 48 53  1  0  0  0  0
 49 68  1  0  0  0  0
 50 53  1  0  0  0  0
 50 68  1  0  0  0  0
 51 72  1  0  0  0  0
 52 67  1  0  0  0  0
 53 66  1  0  0  0  0
 54 63  1  0  0  0  0
 55 64  1  0  0  0  0
 56 64  1  0  0  0  0
 57 64  1  0  0  0  0
 58 75  1  0  0  0  0
 59 74  1  0  0  0  0
 60 61  1  0  0  0  0
 61 83  1  0  0  0  0
 62 64  1  0  0  0  0
 62 73  1  0  0  0  0
 63 75  1  0  0  0  0
 65 66  1  0  0  0  0
M  CHG  1  75   1
M  ISO  4  41 100  61 101  74 100  83 101
M  END
> <Batch ID>
0055

> <Smiles>
CNC(C)C(=O)NC(C(=O)N1Cc2cc([101O:1][101CH2:1]CC=CC(=O)Nc3cc(C[100NH:0][100C:0](=O)N4CCCC(n5nc(-c6ccc(Oc7ccc(F)cc7F)cc6)c(C(N)=O)c5N)C4)ccc3Cl)ccc2CC1C(=O)NC1CCCc2ccccc21)C(C)(C)C

> <Shape>
0.214

> <Color>
0.105

> <Negative vol penalty>
0.000

$$$$
