
  -OEChem-04042322523D

 89 98  0     1  0  0  0  0  0999 V2000
  -23.1050  -32.7071   29.2692 C   0  0  0  0  0  0  0  0  0  0  0  0
  -22.1949  -31.8339   28.6821 C   0  0  0  0  0  0  0  0  0  0  0  0
  -23.2382  -11.0433   22.6381 C   0  0  0  0  0  0  0  0  0  0  0  0
  -24.5050   -9.1744   21.7783 C   0  0  0  0  0  0  0  0  0  0  0  0
  -24.2669  -33.0642   28.5862 C   0  0  0  0  0  0  0  0  0  0  0  0
  -22.4456  -31.3182   27.4110 C   0  0  0  0  0  0  0  0  0  0  0  0
  -22.8839  -24.2124   26.3123 C   0  0  0  0  0  0  0  0  0  0  0  0
  -22.6588  -10.2103   23.5952 C   0  0  0  0  0  0  0  0  0  0  0  0
  -23.9257   -8.3414   22.7354 C   0  0  0  0  0  0  0  0  0  0  0  0
  -22.7730  -22.8614   25.9826 C   0  0  0  0  0  0  0  0  0  0  0  0
  -20.9903   -6.7242   23.1818 C   0  0  0  0  0  0  0  0  0  0  0  0
  -20.5283   -5.4772   22.7612 C   0  0  0  0  0  0  0  0  0  0  0  0
  -29.1452  -17.3139   22.6434 C   0  0  0  0  0  0  0  0  0  0  0  0
  -23.3105  -23.3681   23.6800 C   0  0  0  0  0  0  0  0  0  0  0  0
  -30.8582  -17.4302   20.9437 C   0  0  0  0  0  0  0  0  0  0  0  0
  -22.0467   -4.3962   24.2985 C   0  0  0  0  0  0  0  0  0  0  0  0
  -24.1613  -10.5253   21.7296 C   0  0  0  0  0  0  0  0  0  0  0  0
  -29.2320  -18.6941   22.8254 C   0  0  0  0  0  0  0  0  0  0  0  0
  -24.0962  -12.1203   19.7398 C   0  0  0  0  0  0  0  0  0  0  0  0
  -24.5366  -32.5451   27.3101 C   0  0  0  0  0  0  0  0  0  0  0  0
  -23.2241  -25.1455   25.3289 C   0  0  0  0  0  0  0  0  0  0  0  0
  -23.6115  -31.6698   26.7097 C   0  0  0  0  0  0  0  0  0  0  0  0
  -23.4353  -24.7211   24.0068 C   0  0  0  0  0  0  0  0  0  0  0  0
  -30.1318  -19.4424   22.0664 C   0  0  0  0  0  0  0  0  0  0  0  0
  -29.9584  -16.6819   21.7027 C   0  0  0  0  0  0  0  0  0  0  0  0
  -23.0026   -8.8593   23.6439 C   0  0  0  0  0  0  0  0  0  0  0  0
  -22.9855  -22.4404   24.6697 C   0  0  0  0  0  0  0  0  0  0  0  0
  -21.9805   -6.8074   24.1608 C   0  0  0  0  0  0  0  0  0  0  0  0
  -21.0565   -4.3131   23.3196 C   0  0  0  0  0  0  0  0  0  0  0  0
  -30.9450  -18.8104   21.1256 C   0  0  0  0  0  0  0  0  0  0  0  0
  -22.5087   -5.6434   24.7191 C   0  0  0  0  0  0  0  0  0  0  0  0
  -24.7597  -11.3852   20.7404 C   0  0  0  0  0  0  0  0  0  0  0  0
  -25.1021  -12.7693   19.0664 C   0  0  0  0  0  0  0  0  0  0  0  0
  -26.3386  -19.0862   22.4085 C   0  0  0  0  0  0  0  0  0  0  0  0
  -28.3579  -19.3383   23.8300 C   0  0  0  0  0  0  0  0  0  0  0  0
  -22.6957  -12.2087   19.4454 C   0  0  0  0  0  0  0  0  0  0  0  0
  -23.9227  -28.7343   24.4873 C   0  0  0  0  0  0  0  0  0  0  0  0
  -25.9618  -27.0431   22.9406 C   0  0  0  0  0  0  0  0  0  0  0  0
  -28.7106  -25.8477   21.3119 C   0  0  0  0  0  0  0  0  0  0  0  0
  -30.6051  -14.4978   20.6267 C   0  0  0  0  0  0  0  0  0  0  0  0
  -25.7828  -32.9972   26.5910 C   0  0  0  0  0  0  0  0  0  0  0  0
  -23.2943  -26.6189   25.6259 C   0  0  0  0  0  0  0  0  0  0  0  0
  -23.7652  -25.7648   22.9749 C   0  0  0  0  0  0  0  0  0  0  0  0
  -24.9011  -18.5987   22.4230 C   0  0  0  0  0  0  0  0  0  0  0  0
  -26.1556  -32.1132   25.4036 C   0  0  0  0  0  0  0  0  0  0  0  0
  -29.7351  -12.3378   17.9333 C   0  0  0  0  0  0  0  0  0  0  0  0
  -24.9279  -31.8276   24.5445 C   0  0  0  0  0  0  0  0  0  0  0  0
  -28.2979  -11.9201   18.2532 C   0  0  0  0  0  0  0  0  0  0  0  0
  -24.7657  -18.9676   24.8654 C   0  0  0  0  0  0  0  0  0  0  0  0
  -30.5834  -12.4652   19.1973 C   0  0  0  0  0  0  0  0  0  0  0  0
  -26.1575  -19.5738   24.8404 C   0  0  0  0  0  0  0  0  0  0  0  0
  -28.5805  -12.9129   20.5601 C   0  0  0  0  0  0  0  0  0  0  0  0
  -23.8601  -31.0699   25.3428 C   0  0  1  0  0  0  0  0  0  0  0  0
  -24.3849  -27.3459   24.8189 C   0  0  1  0  0  0  0  0  0  0  0  0
  -24.0438  -19.1751   23.5404 C   0  0  1  0  0  0  0  0  0  0  0  0
  -27.6703  -12.8345   19.3235 C   0  0  2  0  0  0  0  0  0  0  0  0
  -30.2437  -20.9219   22.2442 C   0  0  0  0  0  0  0  0  0  0  0  0
  -30.2742  -26.3915   19.4259 C   0  0  0  0  0  0  0  0  0  0  0  0
  -23.8271  -26.1985   20.9322 C   0  0  0  0  0  0  0  0  0  0  0  0
  -25.6492  -25.8426   19.2525 C   0  0  0  0  0  0  0  0  0  0  0  0
  -25.2518  -28.1175   20.1958 C   0  0  0  0  0  0  0  0  0  0  0  0
  -31.0476  -25.9495   23.1249 C   0  0  0  0  0  0  0  0  0  0  0  0
  -23.6901  -20.6412   23.2827 C   0  0  0  0  0  0  0  0  0  1  0  0
  -26.3026  -26.3379   21.6522 C   0  0  1  0  0  0  0  0  0  0  0  0
  -30.0179  -26.5125   20.9200 C   0  0  2  0  0  0  0  0  0  0  0  0
  -25.2582  -26.6105   20.5332 C   0  0  0  0  0  0  0  0  0  0  0  0
  -26.0847  -11.5510   20.7090 N   0  0  0  0  0  0  0  0  0  0  0  0
  -26.2619  -12.3977   19.6805 N   0  0  0  0  0  0  0  0  0  0  0  0
  -26.9580  -19.2187   23.6654 N   0  0  0  0  0  0  0  0  0  0  0  0
  -24.7294  -26.7294   23.5265 N   0  0  0  0  0  0  0  0  0  0  0  0
  -29.9284  -13.3495   20.1637 N   0  0  0  0  0  0  0  0  0  0  0  0
  -25.0989  -13.6158   18.0148 N   0  0  0  0  0  0  0  0  0  0  0  0
  -22.1447  -11.2934   18.5382 N   0  0  0  0  0  0  0  0  0  0  0  0
  -29.8707  -15.2799   21.5175 N   0  0  0  0  0  0  0  0  0  0  0  0
  -24.2141  -29.6716   25.4600 N   0  0  0  0  0  0  0  0  0  0  0  0
  -27.6622  -26.7433   21.3122 N   0  0  0  0  0  0  0  0  0  0  0  0
  -31.1572  -25.8821   21.6449 N   0  3  0  0  0  0  0  0  0  0  0  0
  -26.9004  -19.2715   21.3262 O   0  0  0  0  0  0  0  0  0  0  0  0
  -28.9053  -19.9512   24.7462 O   0  0  0  0  0  0  0  0  0  0  0  0
  -21.9583  -13.0840   19.9587 O   0  0  0  0  0  0  0  0  0  0  0  0
  -23.3455  -28.9417   23.4264 O   0  0  0  0  0  0  0  0  0  0  0  0
  -26.7621  -27.8548   23.4138 O   0  0  0  0  0  0  0  0  0  0  0  0
  -28.6271  -24.6527   21.5864 O   0  0  0  0  0  0  0  0  0  0  0  0
  -31.7413  -14.7820   20.2390 O   0  0  0  0  0  0  0  0  0  0  0  0
  -22.4376   -8.0463   24.5778 O   0  0  0  0  0  0  0  0  0  0  0  0
  -22.8800  -21.1194   24.3557 O   0  0  0  0  0  0  0  0  0  1  0  0
  -20.6117   -3.1157   22.9167 F   0  0  0  0  0  0  0  0  0  0  0  0
  -31.8136  -19.5200   20.3915 F   0  0  0  0  0  0  0  0  0  0  0  0
  -23.4594   -5.7169   25.6608 F   0  0  0  0  0  0  0  0  0  0  0  0
  1  2  1  0  0  0  0
  1  5  2  0  0  0  0
  2  6  2  0  0  0  0
  3  8  2  0  0  0  0
  3 17  1  0  0  0  0
  4  9  1  0  0  0  0
  4 17  2  0  0  0  0
  5 20  1  0  0  0  0
  6 22  1  0  0  0  0
  7 10  2  0  0  0  0
  7 21  1  0  0  0  0
  8 26  1  0  0  0  0
  9 26  2  0  0  0  0
 10 27  1  0  0  0  0
 11 12  2  0  0  0  0
 11 28  1  0  0  0  0
 12 29  1  0  0  0  0
 13 18  1  0  0  0  0
 13 25  2  0  0  0  0
 14 23  1  0  0  0  0
 14 27  2  0  0  0  0
 15 25  1  0  0  0  0
 15 30  2  0  0  0  0
 16 29  2  0  0  0  0
 16 31  1  0  0  0  0
 17 32  1  0  0  0  0
 18 24  2  0  0  0  0
 18 35  1  0  0  0  0
 19 32  1  0  0  0  0
 19 33  2  0  0  0  0
 19 36  1  0  0  0  0
 20 22  2  0  0  0  0
 20 41  1  0  0  0  0
 21 23  2  0  0  0  0
 21 42  1  0  0  0  0
 22 53  1  0  0  0  0
 23 43  1  0  0  0  0
 24 30  1  0  0  0  0
 24 57  1  0  0  0  0
 25 74  1  0  0  0  0
 26 85  1  0  0  0  0
 27 86  1  0  0  0  0
 28 31  2  0  0  0  0
 28 85  1  0  0  0  0
 29 87  1  0  0  0  0
 30 88  1  0  0  0  0
 31 89  1  0  0  0  0
 32 67  2  0  0  0  0
 33 68  1  0  0  0  0
 33 72  1  0  0  0  0
 34 44  1  0  0  0  0
 34 69  1  0  0  0  0
 34 78  2  0  0  0  0
 35 69  1  0  0  0  0
 35 79  2  0  0  0  0
 36 73  1  0  0  0  0
 36 80  2  0  0  0  0
 37 54  1  0  0  0  0
 37 75  1  0  0  0  0
 37 81  2  0  0  0  0
 38 64  1  0  0  0  0
 38 70  1  0  0  0  0
 38 82  2  0  0  0  0
 39 65  1  0  0  0  0
 39 76  1  0  0  0  0
 39 83  2  0  0  0  0
 40 71  1  0  0  0  0
 40 74  1  0  0  0  0
 40 84  2  0  0  0  0
 41 45  1  0  0  0  0
 42 54  1  0  0  0  0
 43 70  1  0  0  0  0
 44 55  1  0  0  0  0
 45 47  1  0  0  0  0
 46 48  1  0  0  0  0
 46 50  1  0  0  0  0
 47 53  1  0  0  0  0
 48 56  1  0  0  0  0
 49 51  1  0  0  0  0
 49 55  1  0  0  0  0
 50 71  1  0  0  0  0
 51 69  1  0  0  0  0
 52 56  1  0  0  0  0
 52 71  1  0  0  0  0
 53 75  1  0  0  0  0
 54 70  1  0  0  0  0
 55 63  1  0  0  0  0
 56 68  1  0  0  0  0
 58 65  1  0  0  0  0
 59 66  1  0  0  0  0
 60 66  1  0  0  0  0
 61 66  1  0  0  0  0
 62 77  1  0  0  0  0
 63 86  1  0  0  0  0
 64 66  1  0  0  0  0
 64 76  1  0  0  0  0
 65 77  1  0  0  0  0
 67 68  1  0  0  0  0
M  CHG  1  77   1
M  ISO  4  40 100  63 101  74 100  86 101
M  END
> <Batch ID>
0056

> <Smiles>
CNC(C)C(=O)NC(C(=O)N1Cc2cc([101O:1][101CH2:1]C3CCN(C(=O)c4cc([100NH:0][100C:0](=O)N5CCCC(n6nc(-c7ccc(Oc8ccc(F)cc8F)cc7)c(C(N)=O)c6N)C5)cc(F)c4C)C(=O)C3)ccc2CC1C(=O)NC1CCCc2ccccc21)C(C)(C)C

> <Shape>
0.229

> <Color>
0.099

> <Negative vol penalty>
0.000

$$$$

  -OEChem-04042322523D

 85 93  0     1  0  0  0  0  0999 V2000
  -28.3641  -24.1753   17.4377 C   0  0  0  0  0  0  0  0  0  0  0  0
  -27.2042  -24.3548   18.1846 C   0  0  0  0  0  0  0  0  0  0  0  0
  -27.1146  -12.8013   19.7908 C   0  0  0  0  0  0  0  0  0  0  0  0
  -24.8802  -13.6513   20.1399 C   0  0  0  0  0  0  0  0  0  0  0  0
  -29.5383  -24.8297   17.8075 C   0  0  0  0  0  0  0  0  0  0  0  0
  -27.2182  -25.1882   19.3025 C   0  0  0  0  0  0  0  0  0  0  0  0
  -23.1952  -28.2584   19.4875 C   0  0  0  0  0  0  0  0  0  0  0  0
  -26.7952  -11.6596   20.5257 C   0  0  0  0  0  0  0  0  0  0  0  0
  -24.5607  -12.5096   20.8748 C   0  0  0  0  0  0  0  0  0  0  0  0
  -21.9919  -27.7056   19.9236 C   0  0  0  0  0  0  0  0  0  0  0  0
  -23.7220   -9.2972   20.2442 C   0  0  0  0  0  0  0  0  0  0  0  0
  -22.5007   -8.6780   19.9786 C   0  0  0  0  0  0  0  0  0  0  0  0
  -22.3545  -28.6568   22.1106 C   0  0  0  0  0  0  0  0  0  0  0  0
  -25.2295  -22.8653   22.3265 C   0  0  0  0  0  0  0  0  0  0  0  0
  -21.8220   -9.0336   22.2699 C   0  0  0  0  0  0  0  0  0  0  0  0
  -23.4741  -21.5938   21.3477 C   0  0  0  0  0  0  0  0  0  0  0  0
  -26.1571  -13.7971   19.5979 C   0  0  0  0  0  0  0  0  0  0  0  0
  -26.3407  -15.1637   17.4516 C   0  0  0  0  0  0  0  0  0  0  0  0
  -29.5642  -25.6791   18.9249 C   0  0  0  0  0  0  0  0  0  0  0  0
  -23.9939  -29.0066   20.3642 C   0  0  0  0  0  0  0  0  0  0  0  0
  -28.3942  -25.8536   19.6884 C   0  0  0  0  0  0  0  0  0  0  0  0
  -23.5663  -29.2202   21.6824 C   0  0  0  0  0  0  0  0  0  0  0  0
  -24.2756  -23.5580   23.0638 C   0  0  0  0  0  0  0  0  0  0  0  0
  -24.8294  -21.8630   21.4499 C   0  0  0  0  0  0  0  0  0  0  0  0
  -25.5182  -11.5137   21.0677 C   0  0  0  0  0  0  0  0  0  0  0  0
  -21.5728  -27.9023   21.2361 C   0  0  0  0  0  0  0  0  0  0  0  0
  -23.9934   -9.7845   21.5228 C   0  0  0  0  0  0  0  0  0  0  0  0
  -21.5507   -8.5462   20.9914 C   0  0  0  0  0  0  0  0  0  0  0  0
  -23.0434   -9.6528   22.5355 C   0  0  0  0  0  0  0  0  0  0  0  0
  -26.4867  -14.9770   18.8393 C   0  0  0  0  0  0  0  0  0  0  0  0
  -22.9451  -23.2131   22.8892 C   0  0  0  0  0  0  0  0  0  0  0  0
  -26.7910  -16.4418   17.2279 C   0  0  0  0  0  0  0  0  0  0  0  0
  -21.8744  -23.8997   23.6335 C   0  0  0  0  0  0  0  0  0  0  0  0
  -25.8424  -14.2624   16.4540 C   0  0  0  0  0  0  0  0  0  0  0  0
  -26.9334  -28.7016   21.5345 C   0  0  0  0  0  0  0  0  0  0  0  0
  -19.7457  -24.7000   23.9107 C   0  0  0  0  0  0  0  0  0  0  0  0
  -26.3227  -31.6345   22.7783 C   0  0  0  0  0  0  0  0  0  0  0  0
  -24.0066  -33.9230   23.8007 C   0  0  0  0  0  0  0  0  0  0  0  0
  -27.1628  -21.3025   20.6834 C   0  0  0  0  0  0  0  0  0  0  0  0
  -30.8691  -26.3280   19.3133 C   0  0  0  0  0  0  0  0  0  0  0  0
  -25.2761  -29.6187   19.8707 C   0  0  0  0  0  0  0  0  0  0  0  0
  -24.3773  -30.0327   22.6573 C   0  0  0  0  0  0  0  0  0  0  0  0
  -30.7050  -27.4877   20.2923 C   0  0  0  0  0  0  0  0  0  0  0  0
  -29.8403  -19.6968   18.9718 C   0  0  0  0  0  0  0  0  0  0  0  0
  -29.7624  -27.0993   21.4269 C   0  0  0  0  0  0  0  0  0  0  0  0
  -29.2688  -18.3235   18.6119 C   0  0  0  0  0  0  0  0  0  0  0  0
  -29.3500  -20.1751   20.3373 C   0  0  0  0  0  0  0  0  0  0  0  0
  -27.3205  -18.7908   20.1523 C   0  0  0  0  0  0  0  0  0  0  0  0
  -28.3633  -26.7690   20.8931 C   0  0  1  0  0  0  0  0  0  0  0  0
  -26.2601  -29.9312   20.9939 C   0  0  1  0  0  0  0  0  0  0  0  0
  -27.7346  -18.2960   18.7569 C   0  0  2  0  0  0  0  0  0  0  0  0
  -24.6987  -24.6322   24.0058 C   0  0  0  0  0  0  0  0  0  0  0  0
  -23.8114  -36.2137   24.8067 C   0  0  0  0  0  0  0  0  0  0  0  0
  -27.0867  -30.4992   25.5055 C   0  0  0  0  0  0  0  0  0  0  0  0
  -25.9848  -32.4833   26.5625 C   0  0  0  0  0  0  0  0  0  0  0  0
  -27.9475  -32.8040   25.0567 C   0  0  0  0  0  0  0  0  0  0  0  0
  -22.5459  -34.9599   21.4448 C   0  0  0  0  0  0  0  0  0  0  0  0
  -18.7248  -25.4283   23.0502 C   0  0  0  0  0  0  0  0  0  0  0  0
  -18.6889  -26.9341   23.2924 C   0  0  0  0  0  0  0  0  0  0  0  0
  -20.0307  -27.6046   23.0220 C   0  0  0  0  0  0  0  0  0  1  0  0
  -25.7176  -32.1460   24.0633 C   0  0  1  0  0  0  0  0  0  0  0  0
  -23.8647  -35.4078   23.5182 C   0  0  2  0  0  0  0  0  0  0  0  0
  -26.6696  -31.9661   25.2794 C   0  0  0  0  0  0  0  0  0  0  0  0
  -22.5182  -22.2453   22.0472 N   0  0  0  0  0  0  0  0  0  0  0  0
  -26.9906  -16.0505   19.4538 N   0  0  0  0  0  0  0  0  0  0  0  0
  -20.6863  -24.0438   23.1442 N   0  0  0  0  0  0  0  0  0  0  0  0
  -27.1652  -16.9241   18.4475 N   0  0  0  0  0  0  0  0  0  0  0  0
  -25.6266  -30.6052   22.1291 N   0  0  0  0  0  0  0  0  0  0  0  0
  -27.8877  -20.1257   20.3997 N   0  0  0  0  0  0  0  0  0  0  0  0
  -26.8996  -17.1889   16.1087 N   0  0  0  0  0  0  0  0  0  0  0  0
  -25.4211  -12.9876   16.8560 N   0  0  0  0  0  0  0  0  0  0  0  0
  -25.7777  -21.1404   20.6842 N   0  0  0  0  0  0  0  0  0  0  0  0
  -27.6391  -27.9841   20.5875 N   0  0  0  0  0  0  0  0  0  0  0  0
  -25.3278  -33.5287   23.8090 N   0  0  0  0  0  0  0  0  0  0  0  0
  -22.6170  -35.6714   22.7470 N   0  3  0  0  0  0  0  0  0  0  0  0
  -25.7883  -14.5724   15.2398 O   0  0  0  0  0  0  0  0  0  0  0  0
  -26.8222  -28.4250   22.7231 O   0  0  0  0  0  0  0  0  0  0  0  0
  -19.6716  -24.6953   25.1377 O   0  0  0  0  0  0  0  0  0  0  0  0
  -27.3706  -32.1350   22.3621 O   0  0  0  0  0  0  0  0  0  0  0  0
  -23.0420  -33.1874   23.9982 O   0  0  0  0  0  0  0  0  0  0  0  0
  -27.7280  -22.3809   20.8821 O   0  0  0  0  0  0  0  0  0  0  0  0
  -25.2061  -10.3997   21.7847 O   0  0  0  0  0  0  0  0  0  0  0  0
  -20.3990  -27.3633   21.6646 O   0  0  0  0  0  0  0  0  0  1  0  0
  -20.3773   -7.9530   20.7357 F   0  0  0  0  0  0  0  0  0  0  0  0
  -23.2979  -10.1201   23.7654 F   0  0  0  0  0  0  0  0  0  0  0  0
  1  2  1  0  0  0  0
  1  5  2  0  0  0  0
  2  6  2  0  0  0  0
  3  8  2  0  0  0  0
  3 17  1  0  0  0  0
  4  9  1  0  0  0  0
  4 17  2  0  0  0  0
  5 19  1  0  0  0  0
  6 21  1  0  0  0  0
  7 10  2  0  0  0  0
  7 20  1  0  0  0  0
  8 25  1  0  0  0  0
  9 25  2  0  0  0  0
 10 26  1  0  0  0  0
 11 12  2  0  0  0  0
 11 27  1  0  0  0  0
 12 28  1  0  0  0  0
 13 22  1  0  0  0  0
 13 26  2  0  0  0  0
 14 23  1  0  0  0  0
 14 24  2  0  0  0  0
 15 28  2  0  0  0  0
 15 29  1  0  0  0  0
 16 24  1  0  0  0  0
 16 64  2  0  0  0  0
 17 30  1  0  0  0  0
 18 30  1  0  0  0  0
 18 32  2  0  0  0  0
 18 34  1  0  0  0  0
 19 21  2  0  0  0  0
 19 40  1  0  0  0  0
 20 22  2  0  0  0  0
 20 41  1  0  0  0  0
 21 49  1  0  0  0  0
 22 42  1  0  0  0  0
 23 31  2  0  0  0  0
 23 52  1  0  0  0  0
 24 72  1  0  0  0  0
 25 82  1  0  0  0  0
 26 83  1  0  0  0  0
 27 29  2  0  0  0  0
 27 82  1  0  0  0  0
 28 84  1  0  0  0  0
 29 85  1  0  0  0  0
 30 65  2  0  0  0  0
 31 33  1  0  0  0  0
 31 64  1  0  0  0  0
 32 67  1  0  0  0  0
 32 70  1  0  0  0  0
 33 66  2  0  0  0  0
 34 71  1  0  0  0  0
 34 76  2  0  0  0  0
 35 50  1  0  0  0  0
 35 73  1  0  0  0  0
 35 77  2  0  0  0  0
 36 58  1  0  0  0  0
 36 66  1  0  0  0  0
 36 78  2  0  0  0  0
 37 61  1  0  0  0  0
 37 68  1  0  0  0  0
 37 79  2  0  0  0  0
 38 62  1  0  0  0  0
 38 74  1  0  0  0  0
 38 80  2  0  0  0  0
 39 69  1  0  0  0  0
 39 72  1  0  0  0  0
 39 81  2  0  0  0  0
 40 43  1  0  0  0  0
 41 50  1  0  0  0  0
 42 68  1  0  0  0  0
 43 45  1  0  0  0  0
 44 46  1  0  0  0  0
 44 47  1  0  0  0  0
 45 49  1  0  0  0  0
 46 51  1  0  0  0  0
 47 69  1  0  0  0  0
 48 51  1  0  0  0  0
 48 69  1  0  0  0  0
 49 73  1  0  0  0  0
 50 68  1  0  0  0  0
 51 67  1  0  0  0  0
 53 62  1  0  0  0  0
 54 63  1  0  0  0  0
 55 63  1  0  0  0  0
 56 63  1  0  0  0  0
 57 75  1  0  0  0  0
 58 59  1  0  0  0  0
 59 60  1  0  0  0  0
 60 83  1  0  0  0  0
 61 63  1  0  0  0  0
 61 74  1  0  0  0  0
 62 75  1  0  0  0  0
 65 67  1  0  0  0  0
M  CHG  1  75   1
M  ISO  4  39 100  60 101  72 100  83 101
M  END
> <Batch ID>
0056

> <Smiles>
CNC(C)C(=O)NC(C(=O)N1Cc2cc([101O:1][101CH2:1]C=CC(=O)NCc3ncc([100NH:0][100C:0](=O)N4CCCC(n5nc(-c6ccc(Oc7ccc(F)cc7F)cc6)c(C(N)=O)c5N)C4)cc3C)ccc2CC1C(=O)NC1CCCc2ccccc21)C(C)(C)C

> <Shape>
0.316

> <Color>
0.073

> <Negative vol penalty>
0.000

$$$$

  -OEChem-04042322523D

 89 98  0     1  0  0  0  0  0999 V2000
  -27.6326  -34.3871   24.7720 C   0  0  0  0  0  0  0  0  0  0  0  0
  -27.8971  -33.1348   24.2269 C   0  0  0  0  0  0  0  0  0  0  0  0
  -24.7036  -23.0760   18.1904 C   0  0  0  0  0  0  0  0  0  0  0  0
  -22.0583  -10.7155   19.7058 C   0  0  0  0  0  0  0  0  0  0  0  0
  -22.2421  -11.6459   17.4837 C   0  0  0  0  0  0  0  0  0  0  0  0
  -26.3810  -34.6553   25.3247 C   0  0  0  0  0  0  0  0  0  0  0  0
  -26.9104  -32.1495   24.2353 C   0  0  0  0  0  0  0  0  0  0  0  0
  -26.5484  -29.7250   19.8041 C   0  0  0  0  0  0  0  0  0  0  0  0
  -25.9958  -22.8862   17.7009 C   0  0  0  0  0  0  0  0  0  0  0  0
  -24.0422  -22.0317   18.8368 C   0  0  0  0  0  0  0  0  0  0  0  0
  -21.4999   -9.5536   19.1732 C   0  0  0  0  0  0  0  0  0  0  0  0
  -21.6836  -10.4839   16.9510 C   0  0  0  0  0  0  0  0  0  0  0  0
  -27.5082  -28.7514   19.5307 C   0  0  0  0  0  0  0  0  0  0  0  0
  -20.3588   -6.1979   18.3655 C   0  0  0  0  0  0  0  0  0  0  0  0
  -20.8291   -4.9745   18.8428 C   0  0  0  0  0  0  0  0  0  0  0  0
  -25.9418  -27.0344   20.1770 C   0  0  0  0  0  0  0  0  0  0  0  0
  -23.0541   -5.5345   18.0859 C   0  0  0  0  0  0  0  0  0  0  0  0
  -22.4294  -11.7617   18.8611 C   0  0  0  0  0  0  0  0  0  0  0  0
  -24.3707  -13.2253   19.6335 C   0  0  0  0  0  0  0  0  0  0  0  0
  -25.3753  -33.6759   25.3311 C   0  0  0  0  0  0  0  0  0  0  0  0
  -25.2796  -29.3606   20.2772 C   0  0  0  0  0  0  0  0  0  0  0  0
  -25.6447  -32.4044   24.7898 C   0  0  0  0  0  0  0  0  0  0  0  0
  -24.9669  -28.0052   20.4532 C   0  0  0  0  0  0  0  0  0  0  0  0
  -26.6267  -21.6520   17.8576 C   0  0  0  0  0  0  0  0  0  0  0  0
  -25.9653  -20.6077   18.5039 C   0  0  0  0  0  0  0  0  0  0  0  0
  -24.6730  -20.7976   18.9935 C   0  0  0  0  0  0  0  0  0  0  0  0
  -21.3126   -9.4378   17.7958 C   0  0  0  0  0  0  0  0  0  0  0  0
  -27.2059  -27.4061   19.7199 C   0  0  0  0  0  0  0  0  0  0  0  0
  -21.2361   -7.0896   17.7483 C   0  0  0  0  0  0  0  0  0  0  0  0
  -22.1767   -4.6428   18.7030 C   0  0  0  0  0  0  0  0  0  0  0  0
  -22.5837   -6.7579   17.6085 C   0  0  0  0  0  0  0  0  0  0  0  0
  -23.0058  -12.9624   19.4108 C   0  0  0  0  0  0  0  0  0  0  0  0
  -24.3943  -14.4916   20.1647 C   0  0  0  0  0  0  0  0  0  0  0  0
  -29.8426  -25.1928   16.3684 C   0  0  0  0  0  0  0  0  0  0  0  0
  -29.3750  -24.4579   15.3610 C   0  0  0  0  0  0  0  0  0  0  0  0
  -29.7400  -24.7538   17.7408 C   0  0  0  0  0  0  0  0  0  0  0  0
  -29.1592  -23.5679   18.0602 C   0  0  0  0  0  0  0  0  0  0  0  0
  -28.7309  -23.1547   15.6422 C   0  0  0  0  0  0  0  0  0  0  0  0
  -25.5151  -12.3987   19.3825 C   0  0  0  0  0  0  0  0  0  0  0  0
  -23.6299  -29.9236   22.9352 C   0  0  0  0  0  0  0  0  0  0  0  0
  -21.2636  -28.3962   21.3258 C   0  0  0  0  0  0  0  0  0  0  0  0
  -20.3822  -26.1954   18.8710 C   0  0  0  0  0  0  0  0  0  0  0  0
  -22.6971  -19.7947   20.1919 C   0  0  0  0  0  0  0  0  0  0  0  0
  -24.0534  -33.9971   25.9823 C   0  0  0  0  0  0  0  0  0  0  0  0
  -24.2465  -30.4213   20.5419 C   0  0  0  0  0  0  0  0  0  0  0  0
  -23.6127  -27.5605   20.9398 C   0  0  0  0  0  0  0  0  0  0  0  0
  -22.9399  -33.0198   25.6147 C   0  0  0  0  0  0  0  0  0  0  0  0
  -20.6320  -17.4225   21.8609 C   0  0  0  0  0  0  0  0  0  0  0  0
  -23.4337  -31.5809   25.7275 C   0  0  0  0  0  0  0  0  0  0  0  0
  -21.1777  -16.0723   21.3905 C   0  0  0  0  0  0  0  0  0  0  0  0
  -20.6705  -18.4685   20.7482 C   0  0  0  0  0  0  0  0  0  0  0  0
  -22.5240  -17.2902   19.6323 C   0  0  0  0  0  0  0  0  0  0  0  0
  -24.5921  -31.3175   24.7579 C   0  0  1  0  0  0  0  0  0  0  0  0
  -23.1580  -29.9670   21.5094 C   0  0  1  0  0  0  0  0  0  0  0  0
  -22.5657  -16.2221   20.7374 C   0  0  2  0  0  0  0  0  0  0  0  0
  -26.6463  -19.2854   18.6698 C   0  0  0  0  0  0  0  0  0  0  0  0
  -18.3744  -25.1209   17.8167 C   0  0  0  0  0  0  0  0  0  0  0  0
  -20.9986  -26.5374   23.7309 C   0  0  0  0  0  0  0  0  0  0  0  0
  -19.7040  -24.9596   22.2807 C   0  0  0  0  0  0  0  0  0  0  0  0
  -18.8255  -27.2525   22.7206 C   0  0  0  0  0  0  0  0  0  0  0  0
  -20.9927  -27.3783   16.2277 C   0  0  0  0  0  0  0  0  0  0  0  0
  -28.0177  -21.4748   17.3213 C   0  0  0  0  0  0  0  0  0  0  0  0
  -30.3186  -25.7071   18.7339 C   0  0  0  0  0  0  0  0  0  0  0  0
  -29.4112  -26.9039   18.9848 C   0  0  0  0  0  0  0  0  0  1  0  0
  -20.8168  -26.9606   21.1905 C   0  0  1  0  0  0  0  0  0  0  0  0
  -19.3512  -26.2852   17.7604 C   0  0  2  0  0  0  0  0  0  0  0  0
  -20.1125  -26.4357   22.4733 C   0  0  0  0  0  0  0  0  0  0  0  0
  -22.2192  -13.9799   19.7712 N   0  0  0  0  0  0  0  0  0  0  0  0
  -23.0926  -14.8945   20.2259 N   0  0  0  0  0  0  0  0  0  0  0  0
  -28.6517  -22.7655   16.9939 N   0  0  0  0  0  0  0  0  0  0  0  0
  -22.6385  -28.6355   21.1909 N   0  0  0  0  0  0  0  0  0  0  0  0
  -22.0172  -18.5584   20.1795 N   0  0  0  0  0  0  0  0  0  0  0  0
  -25.4011  -15.2888   20.5810 N   0  0  0  0  0  0  0  0  0  0  0  0
  -25.3120  -11.1253   18.8334 N   0  0  0  0  0  0  0  0  0  0  0  0
  -23.9828  -19.7510   19.6537 N   0  0  0  0  0  0  0  0  0  0  0  0
  -24.0929  -31.1352   23.4118 N   0  0  0  0  0  0  0  0  0  0  0  0
  -19.9914  -26.9016   19.9890 N   0  0  0  0  0  0  0  0  0  0  0  0
  -20.0212  -26.2726   16.4293 N   0  3  0  0  0  0  0  0  0  0  0  0
  -28.9997  -23.0581   19.2070 O   0  5  0  0  0  0  0  0  0  0  0  0
  -28.3109  -22.5034   14.6851 O   0  0  0  0  0  0  0  0  0  0  0  0
  -26.6818  -12.7717   19.6529 O   0  0  0  0  0  0  0  0  0  0  0  0
  -23.5765  -28.8692   23.5575 O   0  0  0  0  0  0  0  0  0  0  0  0
  -20.4229  -29.2740   21.5363 O   0  0  0  0  0  0  0  0  0  0  0  0
  -21.4278  -25.5592   18.7593 O   0  0  0  0  0  0  0  0  0  0  0  0
  -22.1875  -20.8108   20.6712 O   0  0  0  0  0  0  0  0  0  0  0  0
  -20.7679   -8.3041   17.2757 O   0  0  0  0  0  0  0  0  0  0  0  0
  -28.1411  -26.4538   19.4544 O   0  0  0  0  0  0  0  0  0  1  0  0
  -22.6284   -3.4687   19.1628 F   0  0  0  0  0  0  0  0  0  0  0  0
  -23.4316   -7.6109   17.0175 F   0  0  0  0  0  0  0  0  0  0  0  0
  1  2  1  0  0  0  0
  1  6  2  0  0  0  0
  2  7  2  0  0  0  0
  3  9  2  0  0  0  0
  3 10  1  0  0  0  0
  4 11  2  0  0  0  0
  4 18  1  0  0  0  0
  5 12  1  0  0  0  0
  5 18  2  0  0  0  0
  6 20  1  0  0  0  0
  7 22  1  0  0  0  0
  8 13  2  0  0  0  0
  8 21  1  0  0  0  0
  9 24  1  0  0  0  0
 10 26  2  0  0  0  0
 11 27  1  0  0  0  0
 12 27  2  0  0  0  0
 13 28  1  0  0  0  0
 14 15  2  0  0  0  0
 14 29  1  0  0  0  0
 15 30  1  0  0  0  0
 16 23  1  0  0  0  0
 16 28  2  0  0  0  0
 17 30  2  0  0  0  0
 17 31  1  0  0  0  0
 18 32  1  0  0  0  0
 19 32  1  0  0  0  0
 19 33  2  0  0  0  0
 19 39  1  0  0  0  0
 20 22  2  0  0  0  0
 20 44  1  0  0  0  0
 21 23  2  0  0  0  0
 21 45  1  0  0  0  0
 22 53  1  0  0  0  0
 23 46  1  0  0  0  0
 24 25  2  0  0  0  0
 24 62  1  0  0  0  0
 25 26  1  0  0  0  0
 25 56  1  0  0  0  0
 26 75  1  0  0  0  0
 27 86  1  0  0  0  0
 28 87  1  0  0  0  0
 29 31  2  0  0  0  0
 29 86  1  0  0  0  0
 30 88  1  0  0  0  0
 31 89  1  0  0  0  0
 32 68  2  0  0  0  0
 33 69  1  0  0  0  0
 33 73  1  0  0  0  0
 34 35  2  0  0  0  0
 34 36  1  0  0  0  0
 35 38  1  0  0  0  0
 36 37  2  0  0  0  0
 36 63  1  0  0  0  0
 37 70  1  0  0  0  0
 37 79  1  0  0  0  0
 38 70  1  0  0  0  0
 38 80  2  0  0  0  0
 39 74  1  0  0  0  0
 39 81  2  0  0  0  0
 40 54  1  0  0  0  0
 40 76  1  0  0  0  0
 40 82  2  0  0  0  0
 41 65  1  0  0  0  0
 41 71  1  0  0  0  0
 41 83  2  0  0  0  0
 42 66  1  0  0  0  0
 42 77  1  0  0  0  0
 42 84  2  0  0  0  0
 43 72  1  0  0  0  0
 43 75  1  0  0  0  0
 43 85  2  0  0  0  0
 44 47  1  0  0  0  0
 45 54  1  0  0  0  0
 46 71  1  0  0  0  0
 47 49  1  0  0  0  0
 48 50  1  0  0  0  0
 48 51  1  0  0  0  0
 49 53  1  0  0  0  0
 50 55  1  0  0  0  0
 51 72  1  0  0  0  0
 52 55  1  0  0  0  0
 52 72  1  0  0  0  0
 53 76  1  0  0  0  0
 54 71  1  0  0  0  0
 55 69  1  0  0  0  0
 57 66  1  0  0  0  0
 58 67  1  0  0  0  0
 59 67  1  0  0  0  0
 60 67  1  0  0  0  0
 61 78  1  0  0  0  0
 62 70  1  0  0  0  0
 63 64  1  0  0  0  0
 64 87  1  0  0  0  0
 65 67  1  0  0  0  0
 65 77  1  0  0  0  0
 66 78  1  0  0  0  0
 68 69  1  0  0  0  0
M  CHG  2  78   1  79  -1
M  ISO  4  43 100  64 101  75 100  87 101
M  END
> <Batch ID>
0056

> <Smiles>
CNC(C)C(=O)NC(C(=O)N1Cc2cc([101O:1][101CH2:1]CC3=CCC(=O)N(Cc4cccc([100NH:0][100C:0](=O)N5CCCC(n6nc(-c7ccc(Oc8ccc(F)cc8F)cc7)c(C(N)=O)c6N)C5)c4C)C3=O)ccc2CC1C(=O)NC1CCCc2ccccc21)C(C)(C)C

> <Shape>
0.218

> <Color>
0.114

> <Negative vol penalty>
0.000

$$$$

  -OEChem-04042322523D

 86 94  0     1  0  0  0  0  0999 V2000
  -30.4821  -35.5436   20.6051 C   0  0  0  0  0  0  0  0  0  0  0  0
  -30.3724  -34.1673   20.7758 C   0  0  0  0  0  0  0  0  0  0  0  0
  -23.2380   -9.3734   20.7504 C   0  0  0  0  0  0  0  0  0  0  0  0
  -23.3053  -10.9762   22.5569 C   0  0  0  0  0  0  0  0  0  0  0  0
  -29.5245  -36.3921   21.1592 C   0  0  0  0  0  0  0  0  0  0  0  0
  -29.3056  -33.6387   21.5018 C   0  0  0  0  0  0  0  0  0  0  0  0
  -27.2030  -29.6328   19.2267 C   0  0  0  0  0  0  0  0  0  0  0  0
  -22.4244   -8.5411   21.5192 C   0  0  0  0  0  0  0  0  0  0  0  0
  -22.4917  -10.1439   23.3257 C   0  0  0  0  0  0  0  0  0  0  0  0
  -27.8719  -28.4145   19.3364 C   0  0  0  0  0  0  0  0  0  0  0  0
  -22.8038   -6.3395   24.0556 C   0  0  0  0  0  0  0  0  0  0  0  0
  -23.1117   -4.9794   24.0835 C   0  0  0  0  0  0  0  0  0  0  0  0
  -30.6738  -19.9601   20.2143 C   0  0  0  0  0  0  0  0  0  0  0  0
  -26.3567  -27.7475   21.0910 C   0  0  0  0  0  0  0  0  0  0  0  0
  -31.2687  -17.6186   20.2338 C   0  0  0  0  0  0  0  0  0  0  0  0
  -20.9344   -4.4678   23.1698 C   0  0  0  0  0  0  0  0  0  0  0  0
  -23.6785  -10.5909   21.2693 C   0  0  0  0  0  0  0  0  0  0  0  0
  -29.3863  -19.6296   19.7918 C   0  0  0  0  0  0  0  0  0  0  0  0
  -24.1048  -12.4649   19.5918 C   0  0  0  0  0  0  0  0  0  0  0  0
  -28.4402  -35.8731   21.8841 C   0  0  0  0  0  0  0  0  0  0  0  0
  -26.1108  -29.9225   20.0572 C   0  0  0  0  0  0  0  0  0  0  0  0
  -28.3334  -34.4812   22.0672 C   0  0  0  0  0  0  0  0  0  0  0  0
  -25.6740  -28.9692   20.9880 C   0  0  0  0  0  0  0  0  0  0  0  0
  -29.0399  -18.2935   19.5903 C   0  0  0  0  0  0  0  0  0  0  0  0
  -29.9811  -17.2880   19.8113 C   0  0  0  0  0  0  0  0  0  0  0  0
  -22.0513   -8.9263   22.8068 C   0  0  0  0  0  0  0  0  0  0  0  0
  -27.4506  -27.4728   20.2707 C   0  0  0  0  0  0  0  0  0  0  0  0
  -21.5611   -6.7638   23.5849 C   0  0  0  0  0  0  0  0  0  0  0  0
  -22.1771   -4.0435   23.6405 C   0  0  0  0  0  0  0  0  0  0  0  0
  -31.6151  -18.9547   20.4353 C   0  0  0  0  0  0  0  0  0  0  0  0
  -20.6265   -5.8279   23.1419 C   0  0  0  0  0  0  0  0  0  0  0  0
  -24.5194  -11.4509   20.4759 C   0  0  0  0  0  0  0  0  0  0  0  0
  -25.2741  -12.9824   19.0903 C   0  0  0  0  0  0  0  0  0  0  0  0
  -28.4066  -20.7233   19.5657 C   0  0  0  0  0  0  0  0  0  0  0  0
  -22.7811  -12.9004   19.2542 C   0  0  0  0  0  0  0  0  0  0  0  0
  -25.4919  -32.1272   22.2617 C   0  0  0  0  0  0  0  0  0  0  0  0
  -27.8919  -23.8750   20.2205 C   0  0  0  0  0  0  0  0  0  0  0  0
  -22.5394  -30.7844   22.2158 C   0  0  0  0  0  0  0  0  0  0  0  0
  -20.6104  -28.0499   21.5467 C   0  0  0  0  0  0  0  0  0  0  0  0
  -30.4834  -14.8195   19.7912 C   0  0  0  0  0  0  0  0  0  0  0  0
  -27.4558  -36.8327   22.5044 C   0  0  0  0  0  0  0  0  0  0  0  0
  -25.3834  -31.2305   19.9079 C   0  0  0  0  0  0  0  0  0  0  0  0
  -24.4943  -29.2233   21.8892 C   0  0  0  0  0  0  0  0  0  0  0  0
  -26.1520  -36.1699   22.9416 C   0  0  0  0  0  0  0  0  0  0  0  0
  -30.0367  -11.3044   19.4420 C   0  0  0  0  0  0  0  0  0  0  0  0
  -26.4384  -34.8828   23.7084 C   0  0  0  0  0  0  0  0  0  0  0  0
  -28.5274  -11.1126   19.6071 C   0  0  0  0  0  0  0  0  0  0  0  0
  -30.5726  -12.4020   20.3594 C   0  0  0  0  0  0  0  0  0  0  0  0
  -28.3679  -13.4995   20.4221 C   0  0  0  0  0  0  0  0  0  0  0  0
  -27.1771  -33.8683   22.8271 C   0  0  1  0  0  0  0  0  0  0  0  0
  -24.6037  -31.6266   21.1580 C   0  0  1  0  0  0  0  0  0  0  0  0
  -27.7713  -12.4488   19.4714 C   0  0  2  0  0  0  0  0  0  0  0  0
  -27.6574  -17.9399   19.1373 C   0  0  0  0  0  0  0  0  0  0  0  0
  -18.2366  -27.2419   21.6452 C   0  0  0  0  0  0  0  0  0  0  0  0
  -22.7805  -30.4522   25.2393 C   0  0  0  0  0  0  0  0  0  0  0  0
  -20.8751  -28.8310   25.1430 C   0  0  0  0  0  0  0  0  0  0  0  0
  -20.5295  -31.2018   24.4484 C   0  0  0  0  0  0  0  0  0  0  0  0
  -20.5177  -27.6066   18.6220 C   0  0  0  0  0  0  0  0  0  0  0  0
  -27.1705  -22.6030   20.6120 C   0  0  0  0  0  0  0  0  0  0  0  0
  -27.3328  -25.1578   20.8027 C   0  0  0  0  0  0  0  0  0  1  0  0
  -21.8664  -29.6563   22.9596 C   0  0  1  0  0  0  0  0  0  0  0  0
  -19.3053  -27.8995   20.7861 C   0  0  2  0  0  0  0  0  0  0  0  0
  -21.5363  -30.0310   24.4321 C   0  0  0  0  0  0  0  0  0  0  0  0
  -25.8482  -11.3295   20.5346 N   0  0  0  0  0  0  0  0  0  0  0  0
  -26.2788  -12.2741   19.6811 N   0  0  0  0  0  0  0  0  0  0  0  0
  -23.8198  -30.5196   21.7096 N   0  0  0  0  0  0  0  0  0  0  0  0
  -29.8112  -13.6391   20.1729 N   0  0  0  0  0  0  0  0  0  0  0  0
  -25.5305  -13.9695   18.2058 N   0  0  0  0  0  0  0  0  0  0  0  0
  -21.6921  -12.2605   19.8616 N   0  0  0  0  0  0  0  0  0  0  0  0
  -29.6516  -15.9244   19.6121 N   0  0  0  0  0  0  0  0  0  0  0  0
  -28.1122  -21.5247   20.6659 N   0  0  0  0  0  0  0  0  0  0  0  0
  -26.2554  -33.2256   21.9151 N   0  0  0  0  0  0  0  0  0  0  0  0
  -20.7031  -29.2794   22.1639 N   0  0  0  0  0  0  0  0  0  0  0  0
  -19.5087  -27.0649   19.5683 N   0  3  0  0  0  0  0  0  0  0  0  0
  -27.8995  -20.8545   18.4548 O   0  0  0  0  0  0  0  0  0  0  0  0
  -22.5699  -13.8183   18.4258 O   0  0  0  0  0  0  0  0  0  0  0  0
  -25.4841  -31.5599   23.3479 O   0  0  0  0  0  0  0  0  0  0  0  0
  -28.8406  -23.8783   19.4365 O   0  0  0  0  0  0  0  0  0  0  0  0
  -21.9479  -31.8587   22.0825 O   0  0  0  0  0  0  0  0  0  0  0  0
  -21.4608  -27.1637   21.5922 O   0  0  0  0  0  0  0  0  0  0  0  0
  -31.7032  -14.8414   19.6082 O   0  0  0  0  0  0  0  0  0  0  0  0
  -21.2572   -8.1146   23.5571 O   0  0  0  0  0  0  0  0  0  0  0  0
  -28.1021  -26.2831   20.3803 O   0  0  0  0  0  0  0  0  0  1  0  0
  -22.4735   -2.7375   23.6659 F   0  0  0  0  0  0  0  0  0  0  0  0
  -32.8520  -19.2722   20.8397 F   0  0  0  0  0  0  0  0  0  0  0  0
  -19.4315   -6.2296   22.6875 F   0  0  0  0  0  0  0  0  0  0  0  0
  1  2  1  0  0  0  0
  1  5  2  0  0  0  0
  2  6  2  0  0  0  0
  3  8  2  0  0  0  0
  3 17  1  0  0  0  0
  4  9  1  0  0  0  0
  4 17  2  0  0  0  0
  5 20  1  0  0  0  0
  6 22  1  0  0  0  0
  7 10  2  0  0  0  0
  7 21  1  0  0  0  0
  8 26  1  0  0  0  0
  9 26  2  0  0  0  0
 10 27  1  0  0  0  0
 11 12  2  0  0  0  0
 11 28  1  0  0  0  0
 12 29  1  0  0  0  0
 13 18  1  0  0  0  0
 13 30  2  0  0  0  0
 14 23  1  0  0  0  0
 14 27  2  0  0  0  0
 15 25  2  0  0  0  0
 15 30  1  0  0  0  0
 16 29  2  0  0  0  0
 16 31  1  0  0  0  0
 17 32  1  0  0  0  0
 18 24  2  0  0  0  0
 18 34  1  0  0  0  0
 19 32  1  0  0  0  0
 19 33  2  0  0  0  0
 19 35  1  0  0  0  0
 20 22  2  0  0  0  0
 20 41  1  0  0  0  0
 21 23  2  0  0  0  0
 21 42  1  0  0  0  0
 22 50  1  0  0  0  0
 23 43  1  0  0  0  0
 24 25  1  0  0  0  0
 24 53  1  0  0  0  0
 25 70  1  0  0  0  0
 26 82  1  0  0  0  0
 27 83  1  0  0  0  0
 28 31  2  0  0  0  0
 28 82  1  0  0  0  0
 29 84  1  0  0  0  0
 30 85  1  0  0  0  0
 31 86  1  0  0  0  0
 32 64  2  0  0  0  0
 33 65  1  0  0  0  0
 33 68  1  0  0  0  0
 34 71  1  0  0  0  0
 34 75  2  0  0  0  0
 35 69  1  0  0  0  0
 35 76  2  0  0  0  0
 36 51  1  0  0  0  0
 36 72  1  0  0  0  0
 36 77  2  0  0  0  0
 37 59  1  0  0  0  0
 37 60  1  0  0  0  0
 37 78  2  0  0  0  0
 38 61  1  0  0  0  0
 38 66  1  0  0  0  0
 38 79  2  0  0  0  0
 39 62  1  0  0  0  0
 39 73  1  0  0  0  0
 39 80  2  0  0  0  0
 40 67  1  0  0  0  0
 40 70  1  0  0  0  0
 40 81  2  0  0  0  0
 41 44  1  0  0  0  0
 42 51  1  0  0  0  0
 43 66  1  0  0  0  0
 44 46  1  0  0  0  0
 45 47  1  0  0  0  0
 45 48  1  0  0  0  0
 46 50  1  0  0  0  0
 47 52  1  0  0  0  0
 48 67  1  0  0  0  0
 49 52  1  0  0  0  0
 49 67  1  0  0  0  0
 50 72  1  0  0  0  0
 51 66  1  0  0  0  0
 52 65  1  0  0  0  0
 54 62  1  0  0  0  0
 55 63  1  0  0  0  0
 56 63  1  0  0  0  0
 57 63  1  0  0  0  0
 58 74  1  0  0  0  0
 59 71  1  0  0  0  0
 60 83  1  0  0  0  0
 61 63  1  0  0  0  0
 61 73  1  0  0  0  0
 62 74  1  0  0  0  0
 64 65  1  0  0  0  0
M  CHG  1  74   1
M  ISO  4  40 100  60 101  70 100  83 101
M  END
> <Batch ID>
0056

> <Smiles>
CNC(C)C(=O)NC(C(=O)N1Cc2cc([101O:1][101CH2:1]C(=O)CNC(=O)c3cc(F)cc([100NH:0][100C:0](=O)N4CCCC(n5nc(-c6ccc(Oc7ccc(F)cc7F)cc6)c(C(N)=O)c5N)C4)c3C)ccc2CC1C(=O)NC1CCCc2ccccc21)C(C)(C)C

> <Shape>
0.331

> <Color>
0.142

> <Negative vol penalty>
0.000

$$$$

  -OEChem-04042322523D

 89 97  0     1  0  0  0  0  0999 V2000
  -28.1620  -28.5121   19.5777 C   0  0  0  0  0  0  0  0  0  0  0  0
  -27.7819  -27.4956   20.4481 C   0  0  0  0  0  0  0  0  0  0  0  0
  -29.9728  -20.0758   19.1847 C   0  0  0  0  0  0  0  0  0  0  0  0
  -28.3153  -20.2118   20.9372 C   0  0  0  0  0  0  0  0  0  0  0  0
  -27.3429  -29.6280   19.4109 C   0  0  0  0  0  0  0  0  0  0  0  0
  -26.5829  -27.5949   21.1531 C   0  0  0  0  0  0  0  0  0  0  0  0
  -23.9390  -23.2761   21.1076 C   0  0  0  0  0  0  0  0  0  0  0  0
  -29.5948  -21.3388   18.7291 C   0  0  0  0  0  0  0  0  0  0  0  0
  -27.9373  -21.4748   20.4817 C   0  0  0  0  0  0  0  0  0  0  0  0
  -24.3556  -22.2653   21.9728 C   0  0  0  0  0  0  0  0  0  0  0  0
  -30.1262  -24.5627   19.5993 C   0  0  0  0  0  0  0  0  0  0  0  0
  -31.1393  -25.4686   19.2853 C   0  0  0  0  0  0  0  0  0  0  0  0
  -22.6140  -22.8831   23.5234 C   0  0  0  0  0  0  0  0  0  0  0  0
  -24.0763  -13.6880   23.3116 C   0  0  0  0  0  0  0  0  0  0  0  0
  -23.7320  -11.9507   21.6683 C   0  0  0  0  0  0  0  0  0  0  0  0
  -30.3275  -25.5887   17.0129 C   0  0  0  0  0  0  0  0  0  0  0  0
  -29.3331  -19.5122   20.2887 C   0  0  0  0  0  0  0  0  0  0  0  0
  -30.7105  -17.9091   21.7171 C   0  0  0  0  0  0  0  0  0  0  0  0
  -26.1286  -29.7365   20.1068 C   0  0  0  0  0  0  0  0  0  0  0  0
  -22.8618  -24.1064   21.4492 C   0  0  0  0  0  0  0  0  0  0  0  0
  -25.7474  -28.7139   20.9964 C   0  0  0  0  0  0  0  0  0  0  0  0
  -22.1840  -23.9020   22.6596 C   0  0  0  0  0  0  0  0  0  0  0  0
  -22.7769  -13.5002   23.7825 C   0  0  0  0  0  0  0  0  0  0  0  0
  -21.9549  -12.5376   23.1963 C   0  0  0  0  0  0  0  0  0  0  0  0
  -24.5539  -12.9133   22.2545 C   0  0  0  0  0  0  0  0  0  0  0  0
  -28.5771  -22.0383   19.3776 C   0  0  0  0  0  0  0  0  0  0  0  0
  -23.6949  -22.0706   23.1822 C   0  0  0  0  0  0  0  0  0  0  0  0
  -29.2138  -24.1697   18.6200 C   0  0  0  0  0  0  0  0  0  0  0  0
  -31.2399  -25.9816   17.9921 C   0  0  0  0  0  0  0  0  0  0  0  0
  -22.4325  -11.7628   22.1393 C   0  0  0  0  0  0  0  0  0  0  0  0
  -29.3145  -24.6828   17.3269 C   0  0  0  0  0  0  0  0  0  0  0  0
  -29.7227  -18.2074   20.7594 C   0  0  0  0  0  0  0  0  0  0  0  0
  -30.6956  -16.5389   21.8104 C   0  0  0  0  0  0  0  0  0  0  0  0
  -23.7538  -17.6576   23.9037 C   0  0  0  0  0  0  0  0  0  0  0  0
  -24.4111  -18.7488   24.3207 C   0  0  0  0  0  0  0  0  0  0  0  0
  -31.5651  -18.7917   22.4562 C   0  0  0  0  0  0  0  0  0  0  0  0
  -23.4978  -16.5257   24.8471 C   0  0  0  0  0  0  0  0  0  0  0  0
  -22.5062  -27.2237   21.9588 C   0  0  0  0  0  0  0  0  0  0  0  0
  -19.3652  -26.4374   22.1549 C   0  0  0  0  0  0  0  0  0  0  0  0
  -21.1309  -16.3026   24.0422 C   0  0  0  0  0  0  0  0  0  0  0  0
  -17.0105  -24.0443   22.7677 C   0  0  0  0  0  0  0  0  0  0  0  0
  -26.5026  -12.4194   20.7362 C   0  0  0  0  0  0  0  0  0  0  0  0
  -25.2993  -30.9837   19.9295 C   0  0  0  0  0  0  0  0  0  0  0  0
  -22.4078  -25.1749   20.4929 C   0  0  0  0  0  0  0  0  0  0  0  0
  -21.0091  -24.7531   23.0640 C   0  0  0  0  0  0  0  0  0  0  0  0
  -23.8647  -30.8375   20.4302 C   0  0  0  0  0  0  0  0  0  0  0  0
  -29.7245  -12.6203   19.2344 C   0  0  0  0  0  0  0  0  0  0  0  0
  -23.8443  -30.1849   21.8088 C   0  0  0  0  0  0  0  0  0  0  0  0
  -30.1822  -14.0467   19.5474 C   0  0  0  0  0  0  0  0  0  0  0  0
  -28.2250  -12.5553   18.9502 C   0  0  0  0  0  0  0  0  0  0  0  0
  -27.8283  -14.5794   20.2973 C   0  0  0  0  0  0  0  0  0  0  0  0
  -24.4423  -28.7737   21.7601 C   0  0  1  0  0  0  0  0  0  0  0  0
  -21.6251  -26.2932   21.1742 C   0  0  1  0  0  0  0  0  0  0  0  0
  -29.3200  -14.6851   20.6540 C   0  0  2  0  0  0  0  0  0  0  0  0
  -20.5610  -12.3201   23.6866 C   0  0  0  0  0  0  0  0  0  0  0  0
  -20.8373  -17.7578   24.3132 C   0  0  0  0  0  0  0  0  0  0  0  0
  -14.5263  -23.7106   22.8889 C   0  0  0  0  0  0  0  0  0  0  0  0
  -19.3108  -27.8440   24.8620 C   0  0  0  0  0  0  0  0  0  0  0  0
  -17.1463  -26.6819   25.3442 C   0  0  0  0  0  0  0  0  0  0  0  0
  -17.3080  -28.2680   23.4256 C   0  0  0  0  0  0  0  0  0  0  0  0
  -17.0563  -22.0424   20.5884 C   0  0  0  0  0  0  0  0  0  0  0  0
  -22.2850  -14.3454   24.9217 C   0  0  0  0  0  0  0  0  0  0  0  0
  -24.6882  -19.9253   23.4415 C   0  0  0  0  0  0  0  0  0  1  0  0
  -18.4372  -26.0115   23.2668 C   0  0  1  0  0  0  0  0  0  0  0  0
  -15.7615  -23.6414   22.0046 C   0  0  2  0  0  0  0  0  0  0  0  0
  -18.0739  -27.1864   24.2182 C   0  0  0  0  0  0  0  0  0  0  0  0
  -29.1240  -17.1145   20.2786 N   0  0  0  0  0  0  0  0  0  0  0  0
  -29.7374  -16.1161   20.9368 N   0  0  0  0  0  0  0  0  0  0  0  0
  -20.6070  -25.7888   22.0980 N   0  0  0  0  0  0  0  0  0  0  0  0
  -27.4718  -13.1748   20.0428 N   0  0  0  0  0  0  0  0  0  0  0  0
  -31.4089  -15.6664   22.5537 N   0  0  0  0  0  0  0  0  0  0  0  0
  -31.4493  -20.1714   22.2386 N   0  0  0  0  0  0  0  0  0  0  0  0
  -25.8739  -13.1037   21.7761 N   0  0  0  0  0  0  0  0  0  0  0  0
  -23.4872  -27.8389   21.2048 N   0  0  0  0  0  0  0  0  0  0  0  0
  -17.2870  -25.3873   22.6220 N   0  0  0  0  0  0  0  0  0  0  0  0
  -22.3223  -15.7764   24.5997 N   0  0  0  0  0  0  0  0  0  0  0  0
  -15.8948  -22.2486   21.4915 N   0  3  0  0  0  0  0  0  0  0  0  0
  -32.4178  -18.3685   23.2731 O   0  0  0  0  0  0  0  0  0  0  0  0
  -24.3054  -16.2920   25.7460 O   0  0  0  0  0  0  0  0  0  0  0  0
  -22.3096  -27.3735   23.1590 O   0  0  0  0  0  0  0  0  0  0  0  0
  -18.9990  -27.3081   21.3617 O   0  0  0  0  0  0  0  0  0  0  0  0
  -20.3392  -15.6518   23.3543 O   0  0  0  0  0  0  0  0  0  0  0  0
  -17.6723  -23.2482   23.4299 O   0  0  0  0  0  0  0  0  0  0  0  0
  -26.2682  -11.2431   20.4477 O   0  0  0  0  0  0  0  0  0  0  0  0
  -28.2081  -23.2709   18.9335 O   0  0  0  0  0  0  0  0  0  0  0  0
  -24.0999  -21.0852   24.0289 O   0  0  0  0  0  0  0  0  0  1  0  0
  -32.2119  -26.8527   17.6912 F   0  0  0  0  0  0  0  0  0  0  0  0
  -21.6516  -10.8334   21.5708 F   0  0  0  0  0  0  0  0  0  0  0  0
  -28.4402  -24.3099   16.3822 F   0  0  0  0  0  0  0  0  0  0  0  0
  1  2  1  0  0  0  0
  1  5  2  0  0  0  0
  2  6  2  0  0  0  0
  3  8  2  0  0  0  0
  3 17  1  0  0  0  0
  4  9  1  0  0  0  0
  4 17  2  0  0  0  0
  5 19  1  0  0  0  0
  6 21  1  0  0  0  0
  7 10  2  0  0  0  0
  7 20  1  0  0  0  0
  8 26  1  0  0  0  0
  9 26  2  0  0  0  0
 10 27  1  0  0  0  0
 11 12  2  0  0  0  0
 11 28  1  0  0  0  0
 12 29  1  0  0  0  0
 13 22  1  0  0  0  0
 13 27  2  0  0  0  0
 14 23  1  0  0  0  0
 14 25  2  0  0  0  0
 15 25  1  0  0  0  0
 15 30  2  0  0  0  0
 16 29  2  0  0  0  0
 16 31  1  0  0  0  0
 17 32  1  0  0  0  0
 18 32  1  0  0  0  0
 18 33  2  0  0  0  0
 18 36  1  0  0  0  0
 19 21  2  0  0  0  0
 19 43  1  0  0  0  0
 20 22  2  0  0  0  0
 20 44  1  0  0  0  0
 21 52  1  0  0  0  0
 22 45  1  0  0  0  0
 23 24  2  0  0  0  0
 23 62  1  0  0  0  0
 24 30  1  0  0  0  0
 24 55  1  0  0  0  0
 25 73  1  0  0  0  0
 26 85  1  0  0  0  0
 27 86  1  0  0  0  0
 28 31  2  0  0  0  0
 28 85  1  0  0  0  0
 29 87  1  0  0  0  0
 30 88  1  0  0  0  0
 31 89  1  0  0  0  0
 32 67  2  0  0  0  0
 33 68  1  0  0  0  0
 33 71  1  0  0  0  0
 34 35  2  0  0  0  0
 34 37  1  0  0  0  0
 35 63  1  0  0  0  0
 36 72  1  0  0  0  0
 36 78  2  0  0  0  0
 37 76  1  0  0  0  0
 37 79  2  0  0  0  0
 38 53  1  0  0  0  0
 38 74  1  0  0  0  0
 38 80  2  0  0  0  0
 39 64  1  0  0  0  0
 39 69  1  0  0  0  0
 39 81  2  0  0  0  0
 40 56  1  0  0  0  0
 40 76  1  0  0  0  0
 40 82  2  0  0  0  0
 41 65  1  0  0  0  0
 41 75  1  0  0  0  0
 41 83  2  0  0  0  0
 42 70  1  0  0  0  0
 42 73  1  0  0  0  0
 42 84  2  0  0  0  0
 43 46  1  0  0  0  0
 44 53  1  0  0  0  0
 45 69  1  0  0  0  0
 46 48  1  0  0  0  0
 47 49  1  0  0  0  0
 47 50  1  0  0  0  0
 48 52  1  0  0  0  0
 49 54  1  0  0  0  0
 50 70  1  0  0  0  0
 51 54  1  0  0  0  0
 51 70  1  0  0  0  0
 52 74  1  0  0  0  0
 53 69  1  0  0  0  0
 54 68  1  0  0  0  0
 57 65  1  0  0  0  0
 58 66  1  0  0  0  0
 59 66  1  0  0  0  0
 60 66  1  0  0  0  0
 61 77  1  0  0  0  0
 62 76  1  0  0  0  0
 63 86  1  0  0  0  0
 64 66  1  0  0  0  0
 64 75  1  0  0  0  0
 65 77  1  0  0  0  0
 67 68  1  0  0  0  0
M  CHG  1  77   1
M  ISO  4  42 100  63 101  73 100  86 101
M  END
> <Batch ID>
0056

> <Smiles>
CNC(C)C(=O)NC(C(=O)N1Cc2cc([101O:1][101CH2:1]C=CC(=O)N(Cc3cc([100NH:0][100C:0](=O)N4CCCC(n5nc(-c6ccc(Oc7ccc(F)cc7F)cc6)c(C(N)=O)c5N)C4)cc(F)c3C)C(C)=O)ccc2CC1C(=O)NC1CCCc2ccccc21)C(C)(C)C

> <Shape>
0.264

> <Color>
0.059

> <Negative vol penalty>
0.000

$$$$

  -OEChem-04042322523D

 82 90  0     1  0  0  0  0  0999 V2000
  -20.6376   -9.4721   23.9052 C   0  0  0  0  0  0  0  0  0  0  0  0
  -21.4947  -10.5341   24.1754 C   0  0  0  0  0  0  0  0  0  0  0  0
  -29.1014  -20.7126   20.3737 C   0  0  0  0  0  0  0  0  0  0  0  0
  -24.1629  -30.9770   22.6016 C   0  0  0  0  0  0  0  0  0  0  0  0
  -23.8625  -28.9445   23.8729 C   0  0  0  0  0  0  0  0  0  0  0  0
  -20.9120   -8.6086   22.8455 C   0  0  0  0  0  0  0  0  0  0  0  0
  -22.6273  -10.7325   23.3866 C   0  0  0  0  0  0  0  0  0  0  0  0
  -23.2686  -15.5867   22.0942 C   0  0  0  0  0  0  0  0  0  0  0  0
  -28.5376  -20.1623   21.5248 C   0  0  0  0  0  0  0  0  0  0  0  0
  -29.3372  -22.0854   20.3003 C   0  0  0  0  0  0  0  0  0  0  0  0
  -22.7842  -31.1877   22.6127 C   0  0  0  0  0  0  0  0  0  0  0  0
  -22.4837  -29.1553   23.8840 C   0  0  0  0  0  0  0  0  0  0  0  0
  -23.8017  -16.4380   23.0611 C   0  0  0  0  0  0  0  0  0  0  0  0
  -19.8834  -28.7443   21.7625 C   0  0  0  0  0  0  0  0  0  0  0  0
  -19.0590  -27.6545   21.4829 C   0  0  0  0  0  0  0  0  0  0  0  0
  -25.9685  -16.2579   22.0163 C   0  0  0  0  0  0  0  0  0  0  0  0
  -28.4453  -22.3578   22.5290 C   0  0  0  0  0  0  0  0  0  0  0  0
  -18.0283  -27.8764   23.6567 C   0  0  0  0  0  0  0  0  0  0  0  0
  -24.7021  -29.8553   23.2317 C   0  0  0  0  0  0  0  0  0  0  0  0
  -27.0637  -30.0904   24.1673 C   0  0  0  0  0  0  0  0  0  0  0  0
  -22.0433   -8.8022   22.0374 C   0  0  0  0  0  0  0  0  0  0  0  0
  -24.0851  -15.0551   21.0857 C   0  0  0  0  0  0  0  0  0  0  0  0
  -22.9178   -9.8700   22.3159 C   0  0  0  0  0  0  0  0  0  0  0  0
  -25.4428  -15.4022   21.0363 C   0  0  0  0  0  0  0  0  0  0  0  0
  -28.2096  -20.9849   22.6024 C   0  0  0  0  0  0  0  0  0  0  0  0
  -29.0092  -22.9080   21.3779 C   0  0  0  0  0  0  0  0  0  0  0  0
  -21.9445  -30.2769   23.2539 C   0  0  0  0  0  0  0  0  0  0  0  0
  -25.1524  -16.7714   23.0240 C   0  0  0  0  0  0  0  0  0  0  0  0
  -19.7804  -29.4001   22.9893 C   0  0  0  0  0  0  0  0  0  0  0  0
  -18.1314  -27.2206   22.4299 C   0  0  0  0  0  0  0  0  0  0  0  0
  -18.8528  -28.9662   23.9364 C   0  0  0  0  0  0  0  0  0  0  0  0
  -26.1263  -29.6367   23.2201 C   0  0  0  0  0  0  0  0  0  0  0  0
  -28.2705  -29.6231   23.7070 C   0  0  0  0  0  0  0  0  0  0  0  0
  -26.3481  -20.3699   23.7776 C   0  0  0  0  0  0  0  0  0  0  0  0
  -26.8617  -30.8648   25.3569 C   0  0  0  0  0  0  0  0  0  0  0  0
  -24.9655  -12.1248   20.2242 C   0  0  0  0  0  0  0  0  0  0  0  0
  -26.3361  -13.6896   17.7351 C   0  0  0  0  0  0  0  0  0  0  0  0
  -27.6301  -16.5953   16.4987 C   0  0  0  0  0  0  0  0  0  0  0  0
  -29.8060  -25.0077   20.2365 C   0  0  0  0  0  0  0  0  0  0  0  0
  -22.3238   -7.8147   20.9324 C   0  0  0  0  0  0  0  0  0  0  0  0
  -23.4891  -14.1595   20.0345 C   0  0  0  0  0  0  0  0  0  0  0  0
  -26.3576  -14.8744   19.9625 C   0  0  0  0  0  0  0  0  0  0  0  0
  -23.3433   -8.3153   19.9124 C   0  0  0  0  0  0  0  0  0  0  0  0
  -30.5298  -28.4445   19.6524 C   0  0  0  0  0  0  0  0  0  0  0  0
  -24.5512   -8.9225   20.6188 C   0  0  0  0  0  0  0  0  0  0  0  0
  -29.5723  -29.1814   20.5916 C   0  0  0  0  0  0  0  0  0  0  0  0
  -29.8882  -27.1929   19.0562 C   0  0  0  0  0  0  0  0  0  0  0  0
  -28.3563  -26.9995   20.9758 C   0  0  0  0  0  0  0  0  0  0  0  0
  -24.1431  -10.1327   21.4676 C   0  0  1  0  0  0  0  0  0  0  0  0
  -24.5223  -13.2669   19.3541 C   0  0  1  0  0  0  0  0  0  0  0  0
  -28.9801  -28.2317   21.6513 C   0  0  2  0  0  0  0  0  0  0  0  0
  -24.7306  -20.8727   25.5660 C   0  0  0  0  0  0  0  0  0  0  0  0
  -28.7085  -17.5553   14.4461 C   0  0  0  0  0  0  0  0  0  0  0  0
  -28.9492  -12.2890   18.4560 C   0  0  0  0  0  0  0  0  0  0  0  0
  -30.1558  -13.9594   17.0339 C   0  0  0  0  0  0  0  0  0  0  0  0
  -28.4807  -12.4250   16.0031 C   0  0  0  0  0  0  0  0  0  0  0  0
  -25.4495  -18.5623   16.1316 C   0  0  0  0  0  0  0  0  0  0  0  0
  -24.8023  -18.5826   24.5249 C   0  0  0  0  0  0  0  0  0  1  0  0
  -25.6226  -19.7901   24.9712 C   0  0  1  0  0  0  0  0  0  0  0  0
  -27.6850  -14.3172   17.4792 C   0  0  1  0  0  0  0  0  0  0  0  0
  -27.4004  -17.3220   15.1858 C   0  0  2  0  0  0  0  0  0  0  0  0
  -28.8011  -13.2562   17.2645 C   0  0  0  0  0  0  0  0  0  0  0  0
  -26.6892  -28.9353   22.2326 N   0  0  0  0  0  0  0  0  0  0  0  0
  -27.6398  -20.4308   23.7608 N   0  0  0  0  0  0  0  0  0  0  0  0
  -27.9934  -28.9448   22.5568 N   0  0  0  0  0  0  0  0  0  0  0  0
  -25.7290  -13.9973   18.9609 N   0  0  0  0  0  0  0  0  0  0  0  0
  -29.3533  -26.3388   20.1188 N   0  0  0  0  0  0  0  0  0  0  0  0
  -29.5310  -29.7306   24.1781 N   0  0  0  0  0  0  0  0  0  0  0  0
  -25.5575  -31.2619   25.6821 N   0  0  0  0  0  0  0  0  0  0  0  0
  -29.2512  -24.3022   21.3037 N   0  0  0  0  0  0  0  0  0  0  0  0
  -23.9383  -11.2932   20.6275 N   0  0  0  0  0  0  0  0  0  0  0  0
  -27.5040  -15.2297   16.3554 N   0  0  0  0  0  0  0  0  0  0  0  0
  -26.7570  -18.6437   15.4311 N   0  3  0  0  0  0  0  0  0  0  0  0
  -27.8116  -31.2088   26.1004 O   0  0  0  0  0  0  0  0  0  0  0  0
  -26.1519  -12.0060   20.5074 O   0  0  0  0  0  0  0  0  0  0  0  0
  -25.8361  -12.9591   16.8760 O   0  0  0  0  0  0  0  0  0  0  0  0
  -27.8986  -17.1803   17.5457 O   0  0  0  0  0  0  0  0  0  0  0  0
  -30.6458  -24.5373   19.4649 O   0  0  0  0  0  0  0  0  0  0  0  0
  -20.5991  -30.4824   23.2651 O   0  0  0  0  0  0  0  0  0  0  0  0
  -25.6755  -17.6015   23.9669 O   0  0  0  0  0  0  0  0  0  1  0  0
  -17.3387  -26.1750   22.1606 F   0  0  0  0  0  0  0  0  0  0  0  0
  -18.7484  -29.5930   25.1162 F   0  0  0  0  0  0  0  0  0  0  0  0
  1  2  1  0  0  0  0
  1  6  2  0  0  0  0
  2  7  2  0  0  0  0
  3  9  2  0  0  0  0
  3 10  1  0  0  0  0
  4 11  2  0  0  0  0
  4 19  1  0  0  0  0
  5 12  1  0  0  0  0
  5 19  2  0  0  0  0
  6 21  1  0  0  0  0
  7 23  1  0  0  0  0
  8 13  2  0  0  0  0
  8 22  1  0  0  0  0
  9 25  1  0  0  0  0
 10 26  2  0  0  0  0
 11 27  1  0  0  0  0
 12 27  2  0  0  0  0
 13 28  1  0  0  0  0
 14 15  2  0  0  0  0
 14 29  1  0  0  0  0
 15 30  1  0  0  0  0
 16 24  1  0  0  0  0
 16 28  2  0  0  0  0
 17 25  2  0  0  0  0
 17 26  1  0  0  0  0
 18 30  2  0  0  0  0
 18 31  1  0  0  0  0
 19 32  1  0  0  0  0
 20 32  1  0  0  0  0
 20 33  2  0  0  0  0
 20 35  1  0  0  0  0
 21 23  2  0  0  0  0
 21 40  1  0  0  0  0
 22 24  2  0  0  0  0
 22 41  1  0  0  0  0
 23 49  1  0  0  0  0
 24 42  1  0  0  0  0
 25 64  1  0  0  0  0
 26 70  1  0  0  0  0
 27 79  1  0  0  0  0
 28 80  1  0  0  0  0
 29 31  2  0  0  0  0
 29 79  1  0  0  0  0
 30 81  1  0  0  0  0
 31 82  1  0  0  0  0
 32 63  2  0  0  0  0
 33 65  1  0  0  0  0
 33 68  1  0  0  0  0
 34 59  1  0  0  0  0
 34 64  2  0  0  0  0
 35 69  1  0  0  0  0
 35 74  2  0  0  0  0
 36 50  1  0  0  0  0
 36 71  1  0  0  0  0
 36 75  2  0  0  0  0
 37 60  1  0  0  0  0
 37 66  1  0  0  0  0
 37 76  2  0  0  0  0
 38 61  1  0  0  0  0
 38 72  1  0  0  0  0
 38 77  2  0  0  0  0
 39 67  1  0  0  0  0
 39 70  1  0  0  0  0
 39 78  2  0  0  0  0
 40 43  1  0  0  0  0
 41 50  1  0  0  0  0
 42 66  1  0  0  0  0
 43 45  1  0  0  0  0
 44 46  1  0  0  0  0
 44 47  1  0  0  0  0
 45 49  1  0  0  0  0
 46 51  1  0  0  0  0
 47 67  1  0  0  0  0
 48 51  1  0  0  0  0
 48 67  1  0  0  0  0
 49 71  1  0  0  0  0
 50 66  1  0  0  0  0
 51 65  1  0  0  0  0
 52 59  1  0  0  0  0
 53 61  1  0  0  0  0
 54 62  1  0  0  0  0
 55 62  1  0  0  0  0
 56 62  1  0  0  0  0
 57 73  1  0  0  0  0
 58 59  1  0  0  0  0
 58 80  1  0  0  0  0
 60 62  1  0  0  0  0
 60 72  1  0  0  0  0
 61 73  1  0  0  0  0
 63 65  1  0  0  0  0
M  CHG  1  73   1
M  ISO  4  39 100  58 101  70 100  80 101
M  END
> <Batch ID>
0056

> <Smiles>
CNC(C)C(=O)NC(C(=O)N1Cc2cc([101O:1][101CH2:1]C(C)=CNc3cccc([100NH:0][100C:0](=O)N4CCCC(n5nc(-c6ccc(Oc7ccc(F)cc7F)cc6)c(C(N)=O)c5N)C4)c3)ccc2CC1C(=O)NC1CCCc2ccccc21)C(C)(C)C

> <Shape>
0.269

> <Color>
0.055

> <Negative vol penalty>
0.000

$$$$

  -OEChem-04042322523D

 85 93  0     1  0  0  0  0  0999 V2000
  -17.6520  -25.9507   23.0736 C   0  0  0  0  0  0  0  0  0  0  0  0
  -18.8550  -25.6813   22.4288 C   0  0  0  0  0  0  0  0  0  0  0  0
  -29.3147  -13.7511   20.9110 C   0  0  0  0  0  0  0  0  0  0  0  0
  -29.3180  -13.8920   18.4991 C   0  0  0  0  0  0  0  0  0  0  0  0
  -17.2238  -27.2688   23.2255 C   0  0  0  0  0  0  0  0  0  0  0  0
  -19.6300  -26.7300   21.9346 C   0  0  0  0  0  0  0  0  0  0  0  0
  -25.7442  -27.0063   21.7209 C   0  0  0  0  0  0  0  0  0  0  0  0
  -28.1622  -22.6943   13.4327 C   0  0  0  0  0  0  0  0  0  0  0  0
  -28.4540  -12.6555   20.8459 C   0  0  0  0  0  0  0  0  0  0  0  0
  -28.4573  -12.7963   18.4340 C   0  0  0  0  0  0  0  0  0  0  0  0
  -26.6590  -26.7616   20.6977 C   0  0  0  0  0  0  0  0  0  0  0  0
  -25.1543  -12.1060   20.3620 C   0  0  0  0  0  0  0  0  0  0  0  0
  -28.9148  -21.5200   13.4484 C   0  0  0  0  0  0  0  0  0  0  0  0
  -24.0656  -12.0853   21.2338 C   0  0  0  0  0  0  0  0  0  0  0  0
  -26.7162  -29.1198   20.1929 C   0  0  0  0  0  0  0  0  0  0  0  0
  -28.4977  -22.9412   15.8125 C   0  0  0  0  0  0  0  0  0  0  0  0
  -24.8783  -10.0253   22.1998 C   0  0  0  0  0  0  0  0  0  0  0  0
  -29.7467  -14.3694   19.7376 C   0  0  0  0  0  0  0  0  0  0  0  0
  -32.0429  -15.4787   19.8046 C   0  0  0  0  0  0  0  0  0  0  0  0
  -17.9986  -28.3347   22.7414 C   0  0  0  0  0  0  0  0  0  0  0  0
  -25.2994  -28.3105   21.9811 C   0  0  0  0  0  0  0  0  0  0  0  0
  -19.2110  -28.0635   22.0790 C   0  0  0  0  0  0  0  0  0  0  0  0
  -25.7977  -29.3787   21.2217 C   0  0  0  0  0  0  0  0  0  0  0  0
  -27.9537  -23.4050   14.6147 C   0  0  0  0  0  0  0  0  0  0  0  0
  -29.2502  -21.7669   15.8283 C   0  0  0  0  0  0  0  0  0  0  0  0
  -28.0253  -12.1780   19.6074 C   0  0  0  0  0  0  0  0  0  0  0  0
  -27.1430  -27.8180   19.9316 C   0  0  0  0  0  0  0  0  0  0  0  0
  -26.1049  -11.0863   20.4091 C   0  0  0  0  0  0  0  0  0  0  0  0
  -23.9276  -11.0450   22.1527 C   0  0  0  0  0  0  0  0  0  0  0  0
  -29.4588  -21.0563   14.6462 C   0  0  0  0  0  0  0  0  0  0  0  0
  -25.9670  -10.0460   21.3279 C   0  0  0  0  0  0  0  0  0  0  0  0
  -30.6353  -15.5017   19.8042 C   0  0  0  0  0  0  0  0  0  0  0  0
  -32.4079  -16.8006   19.8815 C   0  0  0  0  0  0  0  0  0  0  0  0
  -32.9403  -14.3623   19.7410 C   0  0  0  0  0  0  0  0  0  0  0  0
  -22.4802  -29.7766   21.9030 C   0  0  0  0  0  0  0  0  0  0  0  0
  -24.1677  -32.2467   23.1572 C   0  0  0  0  0  0  0  0  0  0  0  0
  -27.5536  -26.5484   16.2046 C   0  0  0  0  0  0  0  0  0  0  0  0
  -27.1901  -33.7768   23.5702 C   0  0  0  0  0  0  0  0  0  0  0  0
  -29.6908  -21.8839   18.3059 C   0  0  0  0  0  0  0  0  0  0  0  0
  -17.4714  -29.7402   22.8873 C   0  0  0  0  0  0  0  0  0  0  0  0
  -24.3327  -28.5612   23.1059 C   0  0  0  0  0  0  0  0  0  0  0  0
  -25.3673  -30.7998   21.4741 C   0  0  0  0  0  0  0  0  0  0  0  0
  -18.5329  -30.8148   22.6665 C   0  0  0  0  0  0  0  0  0  0  0  0
  -30.8725  -21.0183   21.5511 C   0  0  0  0  0  0  0  0  0  0  0  0
  -19.3488  -30.5099   21.4143 C   0  0  0  0  0  0  0  0  0  0  0  0
  -31.0797  -19.5042   21.4696 C   0  0  0  0  0  0  0  0  0  0  0  0
  -29.6481  -21.4669   20.7552 C   0  0  0  0  0  0  0  0  0  0  0  0
  -29.8257  -19.5053   19.2754 C   0  0  0  0  0  0  0  0  0  0  0  0
  -20.0916  -29.1753   21.5511 C   0  0  1  0  0  0  0  0  0  0  0  0
  -23.5568  -29.8651   22.9474 C   0  0  1  0  0  0  0  0  0  0  0  0
  -31.0847  -19.0140   20.0083 C   0  0  2  0  0  0  0  0  0  0  0  0
  -28.2475  -35.8009   24.6107 C   0  0  0  0  0  0  0  0  0  0  0  0
  -23.0787  -33.9770   20.8922 C   0  0  0  0  0  0  0  0  0  0  0  0
  -24.8621  -35.6559   21.4107 C   0  0  0  0  0  0  0  0  0  0  0  0
  -23.1387  -35.0995   23.1262 C   0  0  0  0  0  0  0  0  0  0  0  0
  -29.0823  -26.1509   14.2614 C   0  0  0  0  0  0  0  0  0  0  0  0
  -28.8941  -32.1223   25.3360 C   0  0  0  0  0  0  0  0  0  0  0  0
  -27.1430  -24.6686   14.5972 C   0  0  0  0  0  0  0  0  0  0  0  0
  -28.4599  -27.7213   16.5641 C   0  0  0  0  0  0  0  0  0  0  0  0
  -28.0066  -28.4670   17.8129 C   0  0  0  0  0  0  0  0  0  1  0  0
  -24.9417  -33.4110   22.5877 C   0  0  1  0  0  0  0  0  0  0  0  0
  -27.8743  -34.3392   24.8031 C   0  0  2  0  0  0  0  0  0  0  0  0
  -24.0121  -34.5090   21.9979 C   0  0  0  0  0  0  0  0  0  0  0  0
  -30.1398  -16.7400   19.8754 N   0  0  0  0  0  0  0  0  0  0  0  0
  -31.2421  -17.5074   19.9213 N   0  0  0  0  0  0  0  0  0  0  0  0
  -24.4157  -30.9929   22.5807 N   0  0  0  0  0  0  0  0  0  0  0  0
  -29.7239  -20.9694   19.3799 N   0  0  0  0  0  0  0  0  0  0  0  0
  -33.6090  -17.4156   19.9183 N   0  0  0  0  0  0  0  0  0  0  0  0
  -32.3976  -13.0723   19.6657 N   0  0  0  0  0  0  0  0  0  0  0  0
  -29.8028  -21.2975   17.0457 N   0  0  0  0  0  0  0  0  0  0  0  0
  -21.2637  -29.3325   22.3852 N   0  0  0  0  0  0  0  0  0  0  0  0
  -25.8178  -33.8803   23.6557 N   0  0  0  0  0  0  0  0  0  0  0  0
  -27.9129  -25.8187   15.0659 N   0  0  0  0  0  0  0  0  0  0  0  0
  -29.1168  -33.5722   25.1013 N   0  3  0  0  0  0  0  0  0  0  0  0
  -34.1864  -14.5035   19.7673 O   0  0  0  0  0  0  0  0  0  0  0  0
  -22.7339  -30.0895   20.7457 O   0  0  0  0  0  0  0  0  0  0  0  0
  -23.3776  -32.4414   24.0843 O   0  0  0  0  0  0  0  0  0  0  0  0
  -26.5680  -26.2821   16.8972 O   0  0  0  0  0  0  0  0  0  0  0  0
  -27.8111  -33.2974   22.6242 O   0  0  0  0  0  0  0  0  0  0  0  0
  -29.5991  -23.1000   18.4917 O   0  0  0  0  0  0  0  0  0  0  0  0
  -27.1856  -11.1087   19.5434 O   0  0  0  0  0  0  0  0  0  0  0  0
  -28.0355  -27.5818   18.9319 O   0  0  0  0  0  0  0  0  0  1  0  0
  -22.8830  -11.0261   22.9908 F   0  0  0  0  0  0  0  0  0  0  0  0
  -30.1798  -19.9260   14.6494 F   0  0  0  0  0  0  0  0  0  0  0  0
  -26.8777   -9.0642   21.3786 F   0  0  0  0  0  0  0  0  0  0  0  0
  1  2  1  0  0  0  0
  1  5  2  0  0  0  0
  2  6  2  0  0  0  0
  3  9  2  0  0  0  0
  3 18  1  0  0  0  0
  4 10  1  0  0  0  0
  4 18  2  0  0  0  0
  5 20  1  0  0  0  0
  6 22  1  0  0  0  0
  7 11  2  0  0  0  0
  7 21  1  0  0  0  0
  8 13  2  0  0  0  0
  8 24  1  0  0  0  0
  9 26  1  0  0  0  0
 10 26  2  0  0  0  0
 11 27  1  0  0  0  0
 12 14  2  0  0  0  0
 12 28  1  0  0  0  0
 13 30  1  0  0  0  0
 14 29  1  0  0  0  0
 15 23  1  0  0  0  0
 15 27  2  0  0  0  0
 16 24  2  0  0  0  0
 16 25  1  0  0  0  0
 17 29  2  0  0  0  0
 17 31  1  0  0  0  0
 18 32  1  0  0  0  0
 19 32  1  0  0  0  0
 19 33  2  0  0  0  0
 19 34  1  0  0  0  0
 20 22  2  0  0  0  0
 20 40  1  0  0  0  0
 21 23  2  0  0  0  0
 21 41  1  0  0  0  0
 22 49  1  0  0  0  0
 23 42  1  0  0  0  0
 24 58  1  0  0  0  0
 25 30  2  0  0  0  0
 25 70  1  0  0  0  0
 26 81  1  0  0  0  0
 27 82  1  0  0  0  0
 28 31  2  0  0  0  0
 28 81  1  0  0  0  0
 29 83  1  0  0  0  0
 30 84  1  0  0  0  0
 31 85  1  0  0  0  0
 32 64  2  0  0  0  0
 33 65  1  0  0  0  0
 33 68  1  0  0  0  0
 34 69  1  0  0  0  0
 34 75  2  0  0  0  0
 35 50  1  0  0  0  0
 35 71  1  0  0  0  0
 35 76  2  0  0  0  0
 36 61  1  0  0  0  0
 36 66  1  0  0  0  0
 36 77  2  0  0  0  0
 37 59  1  0  0  0  0
 37 73  1  0  0  0  0
 37 78  2  0  0  0  0
 38 62  1  0  0  0  0
 38 72  1  0  0  0  0
 38 79  2  0  0  0  0
 39 67  1  0  0  0  0
 39 70  1  0  0  0  0
 39 80  2  0  0  0  0
 40 43  1  0  0  0  0
 41 50  1  0  0  0  0
 42 66  1  0  0  0  0
 43 45  1  0  0  0  0
 44 46  1  0  0  0  0
 44 47  1  0  0  0  0
 45 49  1  0  0  0  0
 46 51  1  0  0  0  0
 47 67  1  0  0  0  0
 48 51  1  0  0  0  0
 48 67  1  0  0  0  0
 49 71  1  0  0  0  0
 50 66  1  0  0  0  0
 51 65  1  0  0  0  0
 52 62  1  0  0  0  0
 53 63  1  0  0  0  0
 54 63  1  0  0  0  0
 55 63  1  0  0  0  0
 56 73  1  0  0  0  0
 57 74  1  0  0  0  0
 58 73  1  0  0  0  0
 59 60  1  0  0  0  0
 60 82  1  0  0  0  0
 61 63  1  0  0  0  0
 61 72  1  0  0  0  0
 62 74  1  0  0  0  0
 64 65  1  0  0  0  0
M  CHG  1  74   1
M  ISO  4  39 100  60 101  70 100  82 101
M  END
> <Batch ID>
0056

> <Smiles>
CNC(C)C(=O)NC(C(=O)N1Cc2cc([101O:1][101CH2:1]CC(=O)N(C)Cc3ccc(F)c([100NH:0][100C:0](=O)N4CCCC(n5nc(-c6ccc(Oc7ccc(F)cc7F)cc6)c(C(N)=O)c5N)C4)c3)ccc2CC1C(=O)NC1CCCc2ccccc21)C(C)(C)C

> <Shape>
0.278

> <Color>
0.111

> <Negative vol penalty>
0.000

$$$$

  -OEChem-04042322523D

 87 95  0     1  0  0  0  0  0999 V2000
  -17.7881  -25.9702   21.3532 C   0  0  0  0  0  0  0  0  0  0  0  0
  -19.1719  -25.9286   21.2159 C   0  0  0  0  0  0  0  0  0  0  0  0
  -22.9975   -9.9228   21.5849 C   0  0  0  0  0  0  0  0  0  0  0  0
  -24.1526  -10.7150   23.5535 C   0  0  0  0  0  0  0  0  0  0  0  0
  -17.1271  -27.1977   21.3701 C   0  0  0  0  0  0  0  0  0  0  0  0
  -19.8953  -27.1144   21.0943 C   0  0  0  0  0  0  0  0  0  0  0  0
  -24.0538  -27.1583   23.9840 C   0  0  0  0  0  0  0  0  0  0  0  0
  -22.2671   -9.0323   22.3718 C   0  0  0  0  0  0  0  0  0  0  0  0
  -23.4221   -9.8246   24.3404 C   0  0  0  0  0  0  0  0  0  0  0  0
  -25.1586  -26.4452   23.5207 C   0  0  0  0  0  0  0  0  0  0  0  0
  -22.7570   -6.0282   23.8415 C   0  0  0  0  0  0  0  0  0  0  0  0
  -22.6172   -4.7199   23.3787 C   0  0  0  0  0  0  0  0  0  0  0  0
  -26.1410  -28.4983   22.7215 C   0  0  0  0  0  0  0  0  0  0  0  0
  -31.0624  -18.9190   17.9517 C   0  0  0  0  0  0  0  0  0  0  0  0
  -31.3518  -16.5206   17.9294 C   0  0  0  0  0  0  0  0  0  0  0  0
  -20.2161   -4.9862   23.3508 C   0  0  0  0  0  0  0  0  0  0  0  0
  -23.9403  -10.7641   22.1758 C   0  0  0  0  0  0  0  0  0  0  0  0
  -24.3499  -13.0080   21.0334 C   0  0  0  0  0  0  0  0  0  0  0  0
  -17.8437  -28.3995   21.2584 C   0  0  0  0  0  0  0  0  0  0  0  0
  -23.9791  -28.5477   23.8095 C   0  0  0  0  0  0  0  0  0  0  0  0
  -19.2431  -28.3591   21.1083 C   0  0  0  0  0  0  0  0  0  0  0  0
  -25.0353  -29.2271   23.1857 C   0  0  0  0  0  0  0  0  0  0  0  0
  -31.5837  -17.7707   17.3557 C   0  0  0  0  0  0  0  0  0  0  0  0
  -30.0774  -17.5672   19.6950 C   0  0  0  0  0  0  0  0  0  0  0  0
  -30.3093  -18.8173   19.1214 C   0  0  0  0  0  0  0  0  0  0  0  0
  -30.5986  -16.4188   19.0991 C   0  0  0  0  0  0  0  0  0  0  0  0
  -22.4794   -8.9832   23.7496 C   0  0  0  0  0  0  0  0  0  0  0  0
  -26.2011  -27.1148   22.8868 C   0  0  0  0  0  0  0  0  0  0  0  0
  -21.6262   -6.8156   24.0590 C   0  0  0  0  0  0  0  0  0  0  0  0
  -21.3468   -4.1988   23.1333 C   0  0  0  0  0  0  0  0  0  0  0  0
  -20.3558   -6.2946   23.8136 C   0  0  0  0  0  0  0  0  0  0  0  0
  -24.6955  -11.6837   21.3634 C   0  0  0  0  0  0  0  0  0  0  0  0
  -25.3875  -13.4482   20.2485 C   0  0  0  0  0  0  0  0  0  0  0  0
  -29.2572  -23.5772   19.8931 C   0  0  0  0  0  0  0  0  0  0  0  0
  -29.2363  -22.2632   20.1576 C   0  0  0  0  0  0  0  0  0  0  0  0
  -28.5963  -24.5541   20.7321 C   0  0  0  0  0  0  0  0  0  0  0  0
  -28.6128  -25.8711   20.4739 C   0  0  0  0  0  0  0  0  0  0  0  0
  -23.1944  -13.7718   21.4035 C   0  0  0  0  0  0  0  0  0  0  0  0
  -29.9360  -21.3002   19.2547 C   0  0  0  0  0  0  0  0  0  0  0  0
  -22.0134  -30.5123   22.2668 C   0  0  0  0  0  0  0  0  0  0  0  0
  -23.7905  -32.8038   23.7205 C   0  0  0  0  0  0  0  0  0  0  0  0
  -26.7510  -33.6908   25.1680 C   0  0  0  0  0  0  0  0  0  0  0  0
  -30.8331  -13.9120   19.1838 C   0  0  0  0  0  0  0  0  0  0  0  0
  -17.0806  -29.7002   21.2343 C   0  0  0  0  0  0  0  0  0  0  0  0
  -22.7928  -29.3058   24.3387 C   0  0  0  0  0  0  0  0  0  0  0  0
  -25.0130  -30.7205   22.9918 C   0  0  0  0  0  0  0  0  0  0  0  0
  -17.9580  -30.9257   21.4764 C   0  0  0  0  0  0  0  0  0  0  0  0
  -29.2257  -10.9126   18.1363 C   0  0  0  0  0  0  0  0  0  0  0  0
  -19.2238  -30.8520   20.6283 C   0  0  0  0  0  0  0  0  0  0  0  0
  -27.8754  -10.9548   18.8553 C   0  0  0  0  0  0  0  0  0  0  0  0
  -30.3477  -11.4816   19.0029 C   0  0  0  0  0  0  0  0  0  0  0  0
  -28.7452  -12.8660   20.2618 C   0  0  0  0  0  0  0  0  0  0  0  0
  -20.0653  -29.6248   20.9987 C   0  0  1  0  0  0  0  0  0  0  0  0
  -22.5868  -30.6507   23.6487 C   0  0  1  0  0  0  0  0  0  0  0  0
  -27.5727  -12.3630   19.4038 C   0  0  2  0  0  0  0  0  0  0  0  0
  -32.3896  -17.8802   16.1056 C   0  0  0  0  0  0  0  0  0  0  0  0
  -29.2689  -17.4564   20.9507 C   0  0  0  0  0  0  0  0  0  0  0  0
  -27.9189  -35.6429   26.2276 C   0  0  0  0  0  0  0  0  0  0  0  0
  -24.2381  -34.0299   20.9626 C   0  0  0  0  0  0  0  0  0  0  0  0
  -26.1261  -35.3556   21.9352 C   0  0  0  0  0  0  0  0  0  0  0  0
  -23.8040  -35.6882   22.7836 C   0  0  0  0  0  0  0  0  0  0  0  0
  -27.0509  -32.2625   27.7427 C   0  0  0  0  0  0  0  0  0  0  0  0
  -27.9548  -26.9443   21.2895 C   0  0  0  0  0  0  0  0  0  1  0  0
  -25.0459  -33.5657   23.3705 C   0  0  1  0  0  0  0  0  0  0  0  0
  -27.0608  -34.4106   26.4682 C   0  0  2  0  0  0  0  0  0  0  0  0
  -24.8033  -34.6315   22.2647 C   0  0  0  0  0  0  0  0  0  0  0  0
  -25.8614  -11.3073   20.8314 N   0  0  0  0  0  0  0  0  0  0  0  0
  -26.2574  -12.4015   20.1592 N   0  0  0  0  0  0  0  0  0  0  0  0
  -23.8284  -31.4165   23.5210 N   0  0  0  0  0  0  0  0  0  0  0  0
  -29.9927  -12.8189   19.4831 N   0  0  0  0  0  0  0  0  0  0  0  0
  -25.6315  -14.6245   19.6328 N   0  0  0  0  0  0  0  0  0  0  0  0
  -22.2251  -13.1666   22.2149 N   0  0  0  0  0  0  0  0  0  0  0  0
  -29.7896  -19.9964   19.7099 N   0  0  0  0  0  0  0  0  0  0  0  0
  -30.3767  -15.1388   19.6648 N   0  0  0  0  0  0  0  0  0  0  0  0
  -20.7941  -29.8634   22.2260 N   0  0  0  0  0  0  0  0  0  0  0  0
  -25.5556  -34.1106   24.6241 N   0  0  0  0  0  0  0  0  0  0  0  0
  -27.7899  -33.5050   27.4006 N   0  3  0  0  0  0  0  0  0  0  0  0
  -23.0185  -14.9506   21.0122 O   0  0  0  0  0  0  0  0  0  0  0  0
  -30.5390  -21.6840   18.2594 O   0  0  0  0  0  0  0  0  0  0  0  0
  -22.6308  -30.9622   21.3086 O   0  0  0  0  0  0  0  0  0  0  0  0
  -22.8147  -33.4160   24.1617 O   0  0  0  0  0  0  0  0  0  0  0  0
  -27.4969  -32.8437   24.6815 O   0  0  0  0  0  0  0  0  0  0  0  0
  -31.8667  -13.7745   18.5244 O   0  0  0  0  0  0  0  0  0  0  0  0
  -21.7667   -8.1146   24.5178 O   0  0  0  0  0  0  0  0  0  0  0  0
  -27.2804  -26.4212   22.4331 O   0  0  0  0  0  0  0  0  0  1  0  0
  -21.2129   -2.9429   22.6874 F   0  0  0  0  0  0  0  0  0  0  0  0
  -19.2659   -7.0466   24.0196 F   0  0  0  0  0  0  0  0  0  0  0  0
  1  2  1  0  0  0  0
  1  5  2  0  0  0  0
  2  6  2  0  0  0  0
  3  8  2  0  0  0  0
  3 17  1  0  0  0  0
  4  9  1  0  0  0  0
  4 17  2  0  0  0  0
  5 19  1  0  0  0  0
  6 21  1  0  0  0  0
  7 10  2  0  0  0  0
  7 20  1  0  0  0  0
  8 27  1  0  0  0  0
  9 27  2  0  0  0  0
 10 28  1  0  0  0  0
 11 12  2  0  0  0  0
 11 29  1  0  0  0  0
 12 30  1  0  0  0  0
 13 22  1  0  0  0  0
 13 28  2  0  0  0  0
 14 23  2  0  0  0  0
 14 25  1  0  0  0  0
 15 23  1  0  0  0  0
 15 26  2  0  0  0  0
 16 30  2  0  0  0  0
 16 31  1  0  0  0  0
 17 32  1  0  0  0  0
 18 32  1  0  0  0  0
 18 33  2  0  0  0  0
 18 38  1  0  0  0  0
 19 21  2  0  0  0  0
 19 44  1  0  0  0  0
 20 22  2  0  0  0  0
 20 45  1  0  0  0  0
 21 53  1  0  0  0  0
 22 46  1  0  0  0  0
 23 56  1  0  0  0  0
 24 25  2  0  0  0  0
 24 26  1  0  0  0  0
 24 57  1  0  0  0  0
 25 73  1  0  0  0  0
 26 74  1  0  0  0  0
 27 84  1  0  0  0  0
 28 85  1  0  0  0  0
 29 31  2  0  0  0  0
 29 84  1  0  0  0  0
 30 86  1  0  0  0  0
 31 87  1  0  0  0  0
 32 67  2  0  0  0  0
 33 68  1  0  0  0  0
 33 71  1  0  0  0  0
 34 35  2  0  0  0  0
 34 36  1  0  0  0  0
 35 39  1  0  0  0  0
 36 37  2  0  0  0  0
 37 63  1  0  0  0  0
 38 72  1  0  0  0  0
 38 78  2  0  0  0  0
 39 73  1  0  0  0  0
 39 79  2  0  0  0  0
 40 54  1  0  0  0  0
 40 75  1  0  0  0  0
 40 80  2  0  0  0  0
 41 64  1  0  0  0  0
 41 69  1  0  0  0  0
 41 81  2  0  0  0  0
 42 65  1  0  0  0  0
 42 76  1  0  0  0  0
 42 82  2  0  0  0  0
 43 70  1  0  0  0  0
 43 74  1  0  0  0  0
 43 83  2  0  0  0  0
 44 47  1  0  0  0  0
 45 54  1  0  0  0  0
 46 69  1  0  0  0  0
 47 49  1  0  0  0  0
 48 50  1  0  0  0  0
 48 51  1  0  0  0  0
 49 53  1  0  0  0  0
 50 55  1  0  0  0  0
 51 70  1  0  0  0  0
 52 55  1  0  0  0  0
 52 70  1  0  0  0  0
 53 75  1  0  0  0  0
 54 69  1  0  0  0  0
 55 68  1  0  0  0  0
 58 65  1  0  0  0  0
 59 66  1  0  0  0  0
 60 66  1  0  0  0  0
 61 66  1  0  0  0  0
 62 77  1  0  0  0  0
 63 85  1  0  0  0  0
 64 66  1  0  0  0  0
 64 76  1  0  0  0  0
 65 77  1  0  0  0  0
 67 68  1  0  0  0  0
M  CHG  1  77   1
M  ISO  4  43 100  63 101  74 100  85 101
M  END
> <Batch ID>
0056

> <Smiles>
CNC(C)C(=O)NC(C(=O)N1Cc2cc([101O:1][101CH2:1]C=CC=CC(=O)Nc3cc(C)cc([100NH:0][100C:0](=O)N4CCCC(n5nc(-c6ccc(Oc7ccc(F)cc7F)cc6)c(C(N)=O)c5N)C4)c3C)ccc2CC1C(=O)NC1CCCc2ccccc21)C(C)(C)C

> <Shape>
0.322

> <Color>
0.136

> <Negative vol penalty>
0.000

$$$$

  -OEChem-04042322523D

 86 94  0     1  0  0  0  0  0999 V2000
  -25.0027  -19.1152   19.2252 C   0  0  0  0  0  0  0  0  0  0  0  0
  -24.4499  -20.3701   19.4603 C   0  0  0  0  0  0  0  0  0  0  0  0
  -24.6439  -14.1965   23.2758 C   0  0  0  0  0  0  0  0  0  0  0  0
  -25.8158  -15.8051   21.9061 C   0  0  0  0  0  0  0  0  0  0  0  0
  -26.3000  -18.8351   19.6521 C   0  0  0  0  0  0  0  0  0  0  0  0
  -25.1939  -21.3452   20.1236 C   0  0  0  0  0  0  0  0  0  0  0  0
  -25.0636  -27.3865   19.1277 C   0  0  0  0  0  0  0  0  0  0  0  0
  -23.5100  -24.4623   22.7579 C   0  0  0  0  0  0  0  0  0  0  0  0
  -25.0426  -13.1735   22.4156 C   0  0  0  0  0  0  0  0  0  0  0  0
  -26.2146  -14.7820   21.0458 C   0  0  0  0  0  0  0  0  0  0  0  0
  -24.4050  -28.4301   19.7764 C   0  0  0  0  0  0  0  0  0  0  0  0
  -27.8423  -12.5442   18.6877 C   0  0  0  0  0  0  0  0  0  0  0  0
  -29.1725  -12.5303   18.2681 C   0  0  0  0  0  0  0  0  0  0  0  0
  -24.0449  -25.4383   23.5986 C   0  0  0  0  0  0  0  0  0  0  0  0
  -26.3915  -28.8702   21.0723 C   0  0  0  0  0  0  0  0  0  0  0  0
  -21.2923  -25.3337   23.1573 C   0  0  0  0  0  0  0  0  0  0  0  0
  -29.8951  -12.3376   20.5655 C   0  0  0  0  0  0  0  0  0  0  0  0
  -25.0304  -15.5123   23.0210 C   0  0  0  0  0  0  0  0  0  0  0  0
  -25.3024  -17.0398   25.0460 C   0  0  0  0  0  0  0  0  0  0  0  0
  -27.0638  -19.8105   20.3124 C   0  0  0  0  0  0  0  0  0  0  0  0
  -26.3899  -27.0693   19.4546 C   0  0  0  0  0  0  0  0  0  0  0  0
  -26.5022  -21.0774   20.5610 C   0  0  0  0  0  0  0  0  0  0  0  0
  -27.0655  -27.8237   20.4244 C   0  0  0  0  0  0  0  0  0  0  0  0
  -22.1336  -24.4100   22.5372 C   0  0  0  0  0  0  0  0  0  0  0  0
  -21.8272  -26.3097   23.9981 C   0  0  0  0  0  0  0  0  0  0  0  0
  -25.8279  -13.4662   21.3006 C   0  0  0  0  0  0  0  0  0  0  0  0
  -25.0680  -29.1703   20.7509 C   0  0  0  0  0  0  0  0  0  0  0  0
  -27.5385  -12.4550   20.0462 C   0  0  0  0  0  0  0  0  0  0  0  0
  -30.1989  -12.4269   19.2070 C   0  0  0  0  0  0  0  0  0  0  0  0
  -28.5649  -12.3516   20.9850 C   0  0  0  0  0  0  0  0  0  0  0  0
  -23.2036  -26.3620   24.2187 C   0  0  0  0  0  0  0  0  0  0  0  0
  -24.6184  -16.5696   23.9090 C   0  0  0  0  0  0  0  0  0  0  0  0
  -24.5027  -18.0424   25.5377 C   0  0  0  0  0  0  0  0  0  0  0  0
  -26.5493  -16.6089   25.6075 C   0  0  0  0  0  0  0  0  0  0  0  0
  -27.8563  -24.5143   20.6482 C   0  0  0  0  0  0  0  0  0  0  0  0
  -30.5298  -26.2485   20.0421 C   0  0  0  0  0  0  0  0  0  0  0  0
  -20.5974  -29.2805   23.2017 C   0  0  0  0  0  0  0  0  0  0  0  0
  -31.9496  -29.3173   19.5803 C   0  0  0  0  0  0  0  0  0  0  0  0
  -20.4321  -21.6257   22.9999 C   0  0  0  0  0  0  0  0  0  0  0  0
  -28.4446  -19.4458   20.7972 C   0  0  0  0  0  0  0  0  0  0  0  0
  -27.0949  -25.9578   18.7267 C   0  0  0  0  0  0  0  0  0  0  0  0
  -28.4962  -27.5366   20.7976 C   0  0  0  0  0  0  0  0  0  0  0  0
  -29.3017  -20.6555   21.1609 C   0  0  0  0  0  0  0  0  0  0  0  0
  -19.9251  -19.4180   25.7468 C   0  0  0  0  0  0  0  0  0  0  0  0
  -28.5058  -21.6356   22.0170 C   0  0  0  0  0  0  0  0  0  0  0  0
  -21.1321  -18.4801   25.6899 C   0  0  0  0  0  0  0  0  0  0  0  0
  -19.4411  -19.8003   24.3498 C   0  0  0  0  0  0  0  0  0  0  0  0
  -21.6875  -19.4228   23.4092 C   0  0  0  0  0  0  0  0  0  0  0  0
  -27.2867  -22.1695   21.2554 C   0  0  1  0  0  0  0  0  0  0  0  0
  -28.2792  -25.3915   19.5039 C   0  0  1  0  0  0  0  0  0  0  0  0
  -22.2464  -19.0539   24.7941 C   0  0  2  0  0  0  0  0  0  0  0  0
  -34.1613  -30.4186   19.1406 C   0  0  0  0  0  0  0  0  0  0  0  0
  -31.3277  -25.8028   22.9532 C   0  0  0  0  0  0  0  0  0  0  0  0
  -32.9868  -27.6620   22.7104 C   0  0  0  0  0  0  0  0  0  0  0  0
  -33.2068  -25.6063   21.3147 C   0  0  0  0  0  0  0  0  0  0  0  0
  -31.0023  -30.4612   17.0204 C   0  0  0  0  0  0  0  0  0  0  0  0
  -21.5620  -23.3660   21.6383 C   0  0  0  0  0  0  0  0  0  0  0  0
  -20.8880  -27.2858   24.6457 C   0  0  0  0  0  0  0  0  0  0  0  0
  -21.0918  -30.7073   23.0437 C   0  0  0  0  0  0  0  0  0  0  0  0
  -22.5981  -30.7811   22.8217 C   0  0  0  0  0  0  0  0  0  0  0  0
  -23.0137  -30.0705   21.5418 C   0  0  0  0  0  0  0  0  0  1  0  0
  -31.3523  -27.2506   20.8157 C   0  0  1  0  0  0  0  0  0  0  0  0
  -32.9014  -29.8373   18.5181 C   0  0  2  0  0  0  0  0  0  0  0  0
  -32.1908  -26.5848   21.9431 C   0  0  0  0  0  0  0  0  0  0  0  0
  -23.4722  -17.2199   23.6912 N   0  0  0  0  0  0  0  0  0  0  0  0
  -23.4299  -18.1089   24.6982 N   0  0  0  0  0  0  0  0  0  0  0  0
  -29.1404  -26.4359   20.0622 N   0  0  0  0  0  0  0  0  0  0  0  0
  -20.5452  -20.3391   23.5520 N   0  0  0  0  0  0  0  0  0  0  0  0
  -24.6195  -18.8646   26.6020 N   0  0  0  0  0  0  0  0  0  0  0  0
  -27.2414  -15.5662   24.9765 N   0  0  0  0  0  0  0  0  0  0  0  0
  -27.6888  -23.1858   20.3067 N   0  0  0  0  0  0  0  0  0  0  0  0
  -21.1928  -28.6499   24.2844 N   0  0  0  0  0  0  0  0  0  0  0  0
  -32.1460  -27.9755   19.8293 N   0  0  0  0  0  0  0  0  0  0  0  0
  -21.5262  -22.0625   22.2630 N   0  0  0  0  0  0  0  0  0  0  0  0
  -32.2430  -30.9015   17.7088 N   0  3  0  0  0  0  0  0  0  0  0  0
  -27.0273  -17.1219   26.6477 O   0  0  0  0  0  0  0  0  0  0  0  0
  -27.6956  -25.0060   21.7591 O   0  0  0  0  0  0  0  0  0  0  0  0
  -31.0995  -25.3374   19.4364 O   0  0  0  0  0  0  0  0  0  0  0  0
  -19.7708  -28.7660   22.4531 O   0  0  0  0  0  0  0  0  0  0  0  0
  -31.1178  -30.0311   20.1364 O   0  0  0  0  0  0  0  0  0  0  0  0
  -19.4324  -22.3350   23.1568 O   0  0  0  0  0  0  0  0  0  0  0  0
  -26.2174  -12.4682   20.4611 O   0  0  0  0  0  0  0  0  0  0  0  0
  -24.4272  -30.1890   21.3861 O   0  0  0  0  0  0  0  0  0  1  0  0
  -31.4761  -12.4119   18.8038 F   0  0  0  0  0  0  0  0  0  0  0  0
  -28.2792  -12.2643   22.2914 F   0  0  0  0  0  0  0  0  0  0  0  0
  -23.9008  -27.5557   25.2523 Cl  0  0  0  0  0  0  0  0  0  0  0  0
  1  2  1  0  0  0  0
  1  5  2  0  0  0  0
  2  6  2  0  0  0  0
  3  9  2  0  0  0  0
  3 18  1  0  0  0  0
  4 10  1  0  0  0  0
  4 18  2  0  0  0  0
  5 20  1  0  0  0  0
  6 22  1  0  0  0  0
  7 11  2  0  0  0  0
  7 21  1  0  0  0  0
  8 14  2  0  0  0  0
  8 24  1  0  0  0  0
  9 26  1  0  0  0  0
 10 26  2  0  0  0  0
 11 27  1  0  0  0  0
 12 13  2  0  0  0  0
 12 28  1  0  0  0  0
 13 29  1  0  0  0  0
 14 31  1  0  0  0  0
 15 23  1  0  0  0  0
 15 27  2  0  0  0  0
 16 24  2  0  0  0  0
 16 25  1  0  0  0  0
 17 29  2  0  0  0  0
 17 30  1  0  0  0  0
 18 32  1  0  0  0  0
 19 32  1  0  0  0  0
 19 33  2  0  0  0  0
 19 34  1  0  0  0  0
 20 22  2  0  0  0  0
 20 40  1  0  0  0  0
 21 23  2  0  0  0  0
 21 41  1  0  0  0  0
 22 49  1  0  0  0  0
 23 42  1  0  0  0  0
 24 57  1  0  0  0  0
 25 31  2  0  0  0  0
 25 58  1  0  0  0  0
 26 82  1  0  0  0  0
 27 83  1  0  0  0  0
 28 30  2  0  0  0  0
 28 82  1  0  0  0  0
 29 84  1  0  0  0  0
 30 85  1  0  0  0  0
 31 86  1  0  0  0  0
 32 65  2  0  0  0  0
 33 66  1  0  0  0  0
 33 69  1  0  0  0  0
 34 70  1  0  0  0  0
 34 76  2  0  0  0  0
 35 50  1  0  0  0  0
 35 71  1  0  0  0  0
 35 77  2  0  0  0  0
 36 62  1  0  0  0  0
 36 67  1  0  0  0  0
 36 78  2  0  0  0  0
 37 59  1  0  0  0  0
 37 72  1  0  0  0  0
 37 79  2  0  0  0  0
 38 63  1  0  0  0  0
 38 73  1  0  0  0  0
 38 80  2  0  0  0  0
 39 68  1  0  0  0  0
 39 74  1  0  0  0  0
 39 81  2  0  0  0  0
 40 43  1  0  0  0  0
 41 50  1  0  0  0  0
 42 67  1  0  0  0  0
 43 45  1  0  0  0  0
 44 46  1  0  0  0  0
 44 47  1  0  0  0  0
 45 49  1  0  0  0  0
 46 51  1  0  0  0  0
 47 68  1  0  0  0  0
 48 51  1  0  0  0  0
 48 68  1  0  0  0  0
 49 71  1  0  0  0  0
 50 67  1  0  0  0  0
 51 66  1  0  0  0  0
 52 63  1  0  0  0  0
 53 64  1  0  0  0  0
 54 64  1  0  0  0  0
 55 64  1  0  0  0  0
 56 75  1  0  0  0  0
 57 74  1  0  0  0  0
 58 72  1  0  0  0  0
 59 60  1  0  0  0  0
 60 61  1  0  0  0  0
 61 83  1  0  0  0  0
 62 64  1  0  0  0  0
 62 73  1  0  0  0  0
 63 75  1  0  0  0  0
 65 66  1  0  0  0  0
M  CHG  1  75   1
M  ISO  4  39 100  61 101  74 100  83 101
M  END
> <Batch ID>
0056

> <Smiles>
CNC(C)C(=O)NC(C(=O)N1Cc2cc([101O:1][101CH2:1]CCC(=O)NCc3cc(C[100NH:0][100C:0](=O)N4CCCC(n5nc(-c6ccc(Oc7ccc(F)cc7F)cc6)c(C(N)=O)c5N)C4)ccc3Cl)ccc2CC1C(=O)NC1CCCc2ccccc21)C(C)(C)C

> <Shape>
0.208

> <Color>
0.060

> <Negative vol penalty>
0.000

$$$$

  -OEChem-04042322523D

 84 92  0     1  0  0  0  0  0999 V2000
  -21.2378  -22.7759   30.2510 C   0  0  0  0  0  0  0  0  0  0  0  0
  -21.8404  -22.5552   29.0167 C   0  0  0  0  0  0  0  0  0  0  0  0
  -23.0008   -9.8936   19.9828 C   0  0  0  0  0  0  0  0  0  0  0  0
  -23.7317   -9.9427   22.2851 C   0  0  0  0  0  0  0  0  0  0  0  0
  -20.3236  -21.8514   30.7545 C   0  0  0  0  0  0  0  0  0  0  0  0
  -21.5300  -21.4091   28.2855 C   0  0  0  0  0  0  0  0  0  0  0  0
  -20.7323  -22.3900   23.3818 C   0  0  0  0  0  0  0  0  0  0  0  0
  -22.2363   -8.7579   20.2497 C   0  0  0  0  0  0  0  0  0  0  0  0
  -22.9671   -8.8070   22.5520 C   0  0  0  0  0  0  0  0  0  0  0  0
  -21.8562  -22.5877   22.5810 C   0  0  0  0  0  0  0  0  0  0  0  0
  -23.2141   -5.4689   22.0755 C   0  0  0  0  0  0  0  0  0  0  0  0
  -23.8047   -4.4515   22.8250 C   0  0  0  0  0  0  0  0  0  0  0  0
  -21.6744  -20.3208   21.7766 C   0  0  0  0  0  0  0  0  0  0  0  0
  -31.5658  -18.3211   20.0098 C   0  0  0  0  0  0  0  0  0  0  0  0
  -30.1094  -20.0220   19.1027 C   0  0  0  0  0  0  0  0  0  0  0  0
  -29.3449  -18.6174   20.9137 C   0  0  0  0  0  0  0  0  0  0  0  0
  -22.0847   -4.6905   24.5048 C   0  0  0  0  0  0  0  0  0  0  0  0
  -23.7486  -10.4860   21.0005 C   0  0  0  0  0  0  0  0  0  0  0  0
  -24.1305  -13.0023   20.8264 C   0  0  0  0  0  0  0  0  0  0  0  0
  -19.9946  -20.6982   30.0247 C   0  0  0  0  0  0  0  0  0  0  0  0
  -20.0763  -21.1507   23.3943 C   0  0  0  0  0  0  0  0  0  0  0  0
  -20.6115  -20.4676   28.7803 C   0  0  0  0  0  0  0  0  0  0  0  0
  -20.5408  -20.1107   22.5765 C   0  0  0  0  0  0  0  0  0  0  0  0
  -31.3352  -19.3562   19.1038 C   0  0  0  0  0  0  0  0  0  0  0  0
  -30.5707  -17.9516   20.9148 C   0  0  0  0  0  0  0  0  0  0  0  0
  -29.1143  -19.6525   20.0077 C   0  0  0  0  0  0  0  0  0  0  0  0
  -22.2194   -8.2146   21.5343 C   0  0  0  0  0  0  0  0  0  0  0  0
  -22.3292  -21.5521   21.7804 C   0  0  0  0  0  0  0  0  0  0  0  0
  -22.0589   -6.0972   22.5407 C   0  0  0  0  0  0  0  0  0  0  0  0
  -23.2400   -4.0623   24.0396 C   0  0  0  0  0  0  0  0  0  0  0  0
  -21.4942   -5.7079   23.7553 C   0  0  0  0  0  0  0  0  0  0  0  0
  -24.5390  -11.6589   20.7252 C   0  0  0  0  0  0  0  0  0  0  0  0
  -25.2385  -13.7266   20.4601 C   0  0  0  0  0  0  0  0  0  0  0  0
  -25.6553  -21.0165   20.5177 C   0  0  0  0  0  0  0  0  0  0  0  0
  -24.5136  -20.9413   21.2093 C   0  0  0  0  0  0  0  0  0  1  0  0
  -22.8629  -13.5467   21.2168 C   0  0  0  0  0  0  0  0  0  0  0  0
  -26.7803  -20.0889   20.8338 C   0  0  0  0  0  0  0  0  0  0  0  0
  -19.4973  -18.9414   25.6051 C   0  0  0  0  0  0  0  0  0  0  0  0
  -17.7411  -17.5898   23.2362 C   0  0  0  0  0  0  0  0  0  0  0  0
  -17.1676  -17.2473   19.8895 C   0  0  0  0  0  0  0  0  0  0  0  0
  -30.7344  -14.6673   20.6960 C   0  0  0  0  0  0  0  0  0  0  0  0
  -19.0363  -19.7040   30.6314 C   0  0  0  0  0  0  0  0  0  0  0  0
  -18.8493  -20.9619   24.2436 C   0  0  0  0  0  0  0  0  0  0  0  0
  -19.8604  -18.7676   22.5384 C   0  0  0  0  0  0  0  0  0  0  0  0
  -18.4799  -18.7014   29.6237 C   0  0  0  0  0  0  0  0  0  0  0  0
  -29.5907  -12.2451   18.3506 C   0  0  0  0  0  0  0  0  0  0  0  0
  -19.6010  -18.1387   28.7558 C   0  0  0  0  0  0  0  0  0  0  0  0
  -28.1435  -11.9831   18.7715 C   0  0  0  0  0  0  0  0  0  0  0  0
  -30.4958  -12.4801   19.5578 C   0  0  0  0  0  0  0  0  0  0  0  0
  -28.5881  -13.2718   20.9023 C   0  0  0  0  0  0  0  0  0  0  0  0
  -20.2820  -19.2487   27.9461 C   0  0  1  0  0  0  0  0  0  0  0  0
  -18.5654  -19.4981   24.5662 C   0  0  1  0  0  0  0  0  0  0  0  0
  -27.6264  -13.0844   19.7165 C   0  0  2  0  0  0  0  0  0  0  0  0
  -32.3992  -19.7511   18.1362 C   0  0  0  0  0  0  0  0  0  0  0  0
  -15.6889  -16.0446   18.2572 C   0  0  0  0  0  0  0  0  0  0  0  0
  -19.3221  -15.0217   23.7001 C   0  0  0  0  0  0  0  0  0  0  0  0
  -18.5011  -14.1983   21.4828 C   0  0  0  0  0  0  0  0  0  0  0  0
  -16.8748  -14.6843   23.3109 C   0  0  0  0  0  0  0  0  0  0  0  0
  -16.0938  -19.7866   18.8134 C   0  0  0  0  0  0  0  0  0  0  0  0
  -30.8175  -16.8449   21.8836 C   0  0  0  0  0  0  0  0  0  0  0  0
  -18.0202  -16.6031   22.1283 C   0  0  1  0  0  0  0  0  0  0  0  0
  -15.8881  -17.3112   19.0751 C   0  0  2  0  0  0  0  0  0  0  0  0
  -18.1937  -15.1514   22.6575 C   0  0  0  0  0  0  0  0  0  0  0  0
  -25.8074  -11.5343   20.3257 N   0  0  0  0  0  0  0  0  0  0  0  0
  -26.2055  -12.8087   20.1726 N   0  0  0  0  0  0  0  0  0  0  0  0
  -18.6682  -18.6301   23.3913 N   0  0  0  0  0  0  0  0  0  0  0  0
  -29.9499  -13.5371   20.4125 N   0  0  0  0  0  0  0  0  0  0  0  0
  -25.4702  -15.0527   20.3590 N   0  0  0  0  0  0  0  0  0  0  0  0
  -21.8330  -12.6610   21.5618 N   0  0  0  0  0  0  0  0  0  0  0  0
  -27.8695  -20.3287   20.0067 N   0  0  0  0  0  0  0  0  0  0  0  0
  -19.4662  -19.6183   26.8094 N   0  0  0  0  0  0  0  0  0  0  0  0
  -16.9408  -16.7609   21.1596 N   0  0  0  0  0  0  0  0  0  0  0  0
  -30.1389  -15.6244   21.5085 N   0  0  0  0  0  0  0  0  0  0  0  0
  -15.9256  -18.4723   18.1416 N   0  3  0  0  0  0  0  0  0  0  0  0
  -22.6448  -14.7818   21.2425 O   0  0  0  0  0  0  0  0  0  0  0  0
  -26.6818  -19.2506   21.7222 O   0  0  0  0  0  0  0  0  0  0  0  0
  -20.1920  -17.9688   25.3346 O   0  0  0  0  0  0  0  0  0  0  0  0
  -16.7337  -17.4471   23.9336 O   0  0  0  0  0  0  0  0  0  0  0  0
  -18.2596  -17.5909   19.4424 O   0  0  0  0  0  0  0  0  0  0  0  0
  -31.8785  -14.8151   20.2533 O   0  0  0  0  0  0  0  0  0  0  0  0
  -21.4733   -7.1066   21.7952 O   0  0  0  0  0  0  0  0  0  0  0  0
  -23.4265  -21.7422   20.9983 O   0  0  0  0  0  0  0  0  0  1  0  0
  -23.8064   -3.0842   24.7584 F   0  0  0  0  0  0  0  0  0  0  0  0
  -20.3837   -6.3070   24.2068 F   0  0  0  0  0  0  0  0  0  0  0  0
  1  2  1  0  0  0  0
  1  5  2  0  0  0  0
  2  6  2  0  0  0  0
  3  8  2  0  0  0  0
  3 18  1  0  0  0  0
  4  9  1  0  0  0  0
  4 18  2  0  0  0  0
  5 20  1  0  0  0  0
  6 22  1  0  0  0  0
  7 10  2  0  0  0  0
  7 21  1  0  0  0  0
  8 27  1  0  0  0  0
  9 27  2  0  0  0  0
 10 28  1  0  0  0  0
 11 12  2  0  0  0  0
 11 29  1  0  0  0  0
 12 30  1  0  0  0  0
 13 23  1  0  0  0  0
 13 28  2  0  0  0  0
 14 24  1  0  0  0  0
 14 25  2  0  0  0  0
 15 24  2  0  0  0  0
 15 26  1  0  0  0  0
 16 25  1  0  0  0  0
 16 26  2  0  0  0  0
 17 30  2  0  0  0  0
 17 31  1  0  0  0  0
 18 32  1  0  0  0  0
 19 32  1  0  0  0  0
 19 33  2  0  0  0  0
 19 36  1  0  0  0  0
 20 22  2  0  0  0  0
 20 42  1  0  0  0  0
 21 23  2  0  0  0  0
 21 43  1  0  0  0  0
 22 51  1  0  0  0  0
 23 44  1  0  0  0  0
 24 54  1  0  0  0  0
 25 60  1  0  0  0  0
 26 70  1  0  0  0  0
 27 81  1  0  0  0  0
 28 82  1  0  0  0  0
 29 31  2  0  0  0  0
 29 81  1  0  0  0  0
 30 83  1  0  0  0  0
 31 84  1  0  0  0  0
 32 64  2  0  0  0  0
 33 65  1  0  0  0  0
 33 68  1  0  0  0  0
 34 35  2  0  0  0  0
 34 37  1  0  0  0  0
 35 82  1  0  0  0  0
 36 69  1  0  0  0  0
 36 75  2  0  0  0  0
 37 70  1  0  0  0  0
 37 76  2  0  0  0  0
 38 52  1  0  0  0  0
 38 71  1  0  0  0  0
 38 77  2  0  0  0  0
 39 61  1  0  0  0  0
 39 66  1  0  0  0  0
 39 78  2  0  0  0  0
 40 62  1  0  0  0  0
 40 72  1  0  0  0  0
 40 79  2  0  0  0  0
 41 67  1  0  0  0  0
 41 73  1  0  0  0  0
 41 80  2  0  0  0  0
 42 45  1  0  0  0  0
 43 52  1  0  0  0  0
 44 66  1  0  0  0  0
 45 47  1  0  0  0  0
 46 48  1  0  0  0  0
 46 49  1  0  0  0  0
 47 51  1  0  0  0  0
 48 53  1  0  0  0  0
 49 67  1  0  0  0  0
 50 53  1  0  0  0  0
 50 67  1  0  0  0  0
 51 71  1  0  0  0  0
 52 66  1  0  0  0  0
 53 65  1  0  0  0  0
 55 62  1  0  0  0  0
 56 63  1  0  0  0  0
 57 63  1  0  0  0  0
 58 63  1  0  0  0  0
 59 74  1  0  0  0  0
 60 73  1  0  0  0  0
 61 63  1  0  0  0  0
 61 72  1  0  0  0  0
 62 74  1  0  0  0  0
 64 65  1  0  0  0  0
M  CHG  1  74   1
M  ISO  4  35 101  41 100  73 100  82 101
M  END
> <Batch ID>
0056

> <Smiles>
CNC(C)C(=O)NC(C(=O)N1Cc2cc([101O:1][101CH:1]=CC(=O)Nc3cc(C)cc(C[100NH:0][100C:0](=O)N4CCCC(n5nc(-c6ccc(Oc7ccc(F)cc7F)cc6)c(C(N)=O)c5N)C4)c3)ccc2CC1C(=O)NC1CCCc2ccccc21)C(C)(C)C

> <Shape>
0.200

> <Color>
0.197

> <Negative vol penalty>
0.000

$$$$

  -OEChem-04042322523D

 88 96  0     1  0  0  0  0  0999 V2000
  -27.0328  -38.2785   24.1257 C   0  0  0  0  0  0  0  0  0  0  0  0
  -27.3602  -36.9407   23.9292 C   0  0  0  0  0  0  0  0  0  0  0  0
  -32.4100  -18.4643   19.2017 C   0  0  0  0  0  0  0  0  0  0  0  0
  -23.3699   -9.9946   22.1342 C   0  0  0  0  0  0  0  0  0  0  0  0
  -24.3348  -11.3769   23.8649 C   0  0  0  0  0  0  0  0  0  0  0  0
  -31.6186  -19.5945   19.4066 C   0  0  0  0  0  0  0  0  0  0  0  0
  -25.7198  -38.6363   24.4291 C   0  0  0  0  0  0  0  0  0  0  0  0
  -26.3750  -35.9598   24.0371 C   0  0  0  0  0  0  0  0  0  0  0  0
  -25.9553  -30.7898   20.7813 C   0  0  0  0  0  0  0  0  0  0  0  0
  -31.8141  -17.2097   19.0727 C   0  0  0  0  0  0  0  0  0  0  0  0
  -22.7762   -9.1907   23.1073 C   0  0  0  0  0  0  0  0  0  0  0  0
  -23.7410  -10.5730   24.8380 C   0  0  0  0  0  0  0  0  0  0  0  0
  -26.3233  -29.4740   21.0589 C   0  0  0  0  0  0  0  0  0  0  0  0
  -23.7144   -6.7031   25.1944 C   0  0  0  0  0  0  0  0  0  0  0  0
  -23.8003   -5.3204   25.0323 C   0  0  0  0  0  0  0  0  0  0  0  0
  -24.0664  -28.9980   21.7651 C   0  0  0  0  0  0  0  0  0  0  0  0
  -21.3891   -5.1770   24.9788 C   0  0  0  0  0  0  0  0  0  0  0  0
  -24.1492  -11.0877   22.5130 C   0  0  0  0  0  0  0  0  0  0  0  0
  -30.2314  -19.4700   19.4826 C   0  0  0  0  0  0  0  0  0  0  0  0
  -24.2144  -13.0631   20.9002 C   0  0  0  0  0  0  0  0  0  0  0  0
  -24.7161  -37.6602   24.5313 C   0  0  0  0  0  0  0  0  0  0  0  0
  -24.6404  -31.2232   21.0042 C   0  0  0  0  0  0  0  0  0  0  0  0
  -25.0477  -36.3048   24.3435 C   0  0  0  0  0  0  0  0  0  0  0  0
  -23.6835  -30.3191   21.4871 C   0  0  0  0  0  0  0  0  0  0  0  0
  -29.6355  -18.2154   19.3536 C   0  0  0  0  0  0  0  0  0  0  0  0
  -30.4269  -17.0852   19.1486 C   0  0  0  0  0  0  0  0  0  0  0  0
  -22.9617   -9.4798   24.4591 C   0  0  0  0  0  0  0  0  0  0  0  0
  -25.3796  -28.5786   21.5536 C   0  0  0  0  0  0  0  0  0  0  0  0
  -22.4659   -7.3228   25.2487 C   0  0  0  0  0  0  0  0  0  0  0  0
  -22.6376   -4.5573   24.9244 C   0  0  0  0  0  0  0  0  0  0  0  0
  -21.3033   -6.5597   25.1409 C   0  0  0  0  0  0  0  0  0  0  0  0
  -24.7632  -11.9182   21.5084 C   0  0  0  0  0  0  0  0  0  0  0  0
  -25.1844  -13.4847   20.0239 C   0  0  0  0  0  0  0  0  0  0  0  0
  -29.4264  -20.6853   19.6999 C   0  0  0  0  0  0  0  0  0  0  0  0
  -29.5504  -21.5022   20.7555 C   0  0  0  0  0  0  0  0  0  0  0  0
  -22.9417  -13.6895   21.1088 C   0  0  0  0  0  0  0  0  0  0  0  0
  -28.6921  -22.7175   20.8742 C   0  0  0  0  0  0  0  0  0  0  0  0
  -23.2854  -33.4101   22.8711 C   0  0  0  0  0  0  0  0  0  0  0  0
  -20.6074  -32.5785   21.2404 C   0  0  0  0  0  0  0  0  0  0  0  0
  -27.3062  -25.4769   21.9454 C   0  0  0  0  0  0  0  0  0  0  0  0
  -18.9451  -30.2306   19.4044 C   0  0  0  0  0  0  0  0  0  0  0  0
  -30.5050  -14.5901   18.8104 C   0  0  0  0  0  0  0  0  0  0  0  0
  -23.3205  -38.0907   24.9078 C   0  0  0  0  0  0  0  0  0  0  0  0
  -24.2528  -32.6386   20.6745 C   0  0  0  0  0  0  0  0  0  0  0  0
  -22.2539  -30.7291   21.7245 C   0  0  0  0  0  0  0  0  0  0  0  0
  -22.2605  -37.0267   24.6349 C   0  0  0  0  0  0  0  0  0  0  0  0
  -29.4319  -11.2123   18.4691 C   0  0  0  0  0  0  0  0  0  0  0  0
  -22.7251  -35.6667   25.1461 C   0  0  0  0  0  0  0  0  0  0  0  0
  -28.0765  -11.1890   19.1794 C   0  0  0  0  0  0  0  0  0  0  0  0
  -30.4260  -12.1332   19.1745 C   0  0  0  0  0  0  0  0  0  0  0  0
  -28.5908  -13.4778   20.1197 C   0  0  0  0  0  0  0  0  0  0  0  0
  -24.0020  -35.2141   24.4276 C   0  0  1  0  0  0  0  0  0  0  0  0
  -23.0105  -33.1082   21.4250 C   0  0  1  0  0  0  0  0  0  0  0  0
  -27.5360  -12.6141   19.4090 C   0  0  2  0  0  0  0  0  0  0  0  0
  -28.1460  -18.0741   19.4341 C   0  0  0  0  0  0  0  0  0  0  0  0
  -16.7584  -29.8241   18.2424 C   0  0  0  0  0  0  0  0  0  0  0  0
  -19.2675  -32.0904   23.9379 C   0  0  0  0  0  0  0  0  0  0  0  0
  -17.4786  -30.8127   22.7397 C   0  0  0  0  0  0  0  0  0  0  0  0
  -17.8225  -33.2338   22.2471 C   0  0  0  0  0  0  0  0  0  0  0  0
  -29.6984  -25.7493   21.2707 C   0  0  0  0  0  0  0  0  0  0  0  0
  -20.2669  -29.9260   16.7739 C   0  0  0  0  0  0  0  0  0  0  0  0
  -28.9168  -23.5675   22.1057 C   0  0  0  0  0  0  0  0  0  0  0  0
  -27.0946  -26.9313   21.5814 C   0  0  0  0  0  0  0  0  0  1  0  0
  -19.5192  -31.5488   21.4261 C   0  0  1  0  0  0  0  0  0  0  0  0
  -18.1851  -30.3292   18.0940 C   0  0  2  0  0  0  0  0  0  0  0  0
  -18.5493  -31.9139   22.5852 C   0  0  0  0  0  0  0  0  0  0  0  0
  -25.9868  -11.6306   21.0565 N   0  0  0  0  0  0  0  0  0  0  0  0
  -26.2149  -12.6009   20.1551 N   0  0  0  0  0  0  0  0  0  0  0  0
  -21.9255  -32.1254   21.3929 N   0  0  0  0  0  0  0  0  0  0  0  0
  -29.8470  -13.4664   19.3538 N   0  0  0  0  0  0  0  0  0  0  0  0
  -25.2477  -14.5214   19.1615 N   0  0  0  0  0  0  0  0  0  0  0  0
  -22.0654  -13.1261   22.0463 N   0  0  0  0  0  0  0  0  0  0  0  0
  -29.8439  -15.8006   19.0161 N   0  0  0  0  0  0  0  0  0  0  0  0
  -23.6878  -34.7107   23.1076 N   0  0  0  0  0  0  0  0  0  0  0  0
  -18.8702  -31.4021   20.1277 N   0  0  0  0  0  0  0  0  0  0  0  0
  -28.5888  -24.9532   21.7803 N   0  0  0  0  0  0  0  0  0  0  0  0
  -18.8624  -29.5217   17.0403 N   0  3  0  0  0  0  0  0  0  0  0  0
  -22.5854  -14.7089   20.4705 O   0  0  0  0  0  0  0  0  0  0  0  0
  -27.8285  -22.9836   20.0412 O   0  0  0  0  0  0  0  0  0  0  0  0
  -23.1417  -32.5287   23.7102 O   0  0  0  0  0  0  0  0  0  0  0  0
  -20.2996  -33.7404   20.9632 O   0  0  0  0  0  0  0  0  0  0  0  0
  -26.3476  -24.8273   22.3745 O   0  0  0  0  0  0  0  0  0  0  0  0
  -19.5422  -29.2145   19.7532 O   0  0  0  0  0  0  0  0  0  0  0  0
  -31.5621  -14.4828   18.1835 O   0  0  0  0  0  0  0  0  0  0  0  0
  -22.3824   -8.6957   25.4089 O   0  0  0  0  0  0  0  0  0  0  0  0
  -25.7363  -27.2940   21.8260 O   0  0  0  0  0  0  0  0  0  1  0  0
  -22.7203   -3.2296   24.7672 F   0  0  0  0  0  0  0  0  0  0  0  0
  -20.1010   -7.1495   25.1912 F   0  0  0  0  0  0  0  0  0  0  0  0
  1  2  1  0  0  0  0
  1  7  2  0  0  0  0
  2  8  2  0  0  0  0
  3  6  2  0  0  0  0
  3 10  1  0  0  0  0
  4 11  2  0  0  0  0
  4 18  1  0  0  0  0
  5 12  1  0  0  0  0
  5 18  2  0  0  0  0
  6 19  1  0  0  0  0
  7 21  1  0  0  0  0
  8 23  1  0  0  0  0
  9 13  2  0  0  0  0
  9 22  1  0  0  0  0
 10 26  2  0  0  0  0
 11 27  1  0  0  0  0
 12 27  2  0  0  0  0
 13 28  1  0  0  0  0
 14 15  2  0  0  0  0
 14 29  1  0  0  0  0
 15 30  1  0  0  0  0
 16 24  1  0  0  0  0
 16 28  2  0  0  0  0
 17 30  2  0  0  0  0
 17 31  1  0  0  0  0
 18 32  1  0  0  0  0
 19 25  2  0  0  0  0
 19 34  1  0  0  0  0
 20 32  1  0  0  0  0
 20 33  2  0  0  0  0
 20 36  1  0  0  0  0
 21 23  2  0  0  0  0
 21 43  1  0  0  0  0
 22 24  2  0  0  0  0
 22 44  1  0  0  0  0
 23 52  1  0  0  0  0
 24 45  1  0  0  0  0
 25 26  1  0  0  0  0
 25 55  1  0  0  0  0
 26 73  1  0  0  0  0
 27 85  1  0  0  0  0
 28 86  1  0  0  0  0
 29 31  2  0  0  0  0
 29 85  1  0  0  0  0
 30 87  1  0  0  0  0
 31 88  1  0  0  0  0
 32 67  2  0  0  0  0
 33 68  1  0  0  0  0
 33 71  1  0  0  0  0
 34 35  2  0  0  0  0
 35 37  1  0  0  0  0
 36 72  1  0  0  0  0
 36 78  2  0  0  0  0
 37 62  1  0  0  0  0
 37 79  2  0  0  0  0
 38 53  1  0  0  0  0
 38 74  1  0  0  0  0
 38 80  2  0  0  0  0
 39 64  1  0  0  0  0
 39 69  1  0  0  0  0
 39 81  2  0  0  0  0
 40 63  1  0  0  0  0
 40 76  1  0  0  0  0
 40 82  2  0  0  0  0
 41 65  1  0  0  0  0
 41 75  1  0  0  0  0
 41 83  2  0  0  0  0
 42 70  1  0  0  0  0
 42 73  1  0  0  0  0
 42 84  2  0  0  0  0
 43 46  1  0  0  0  0
 44 53  1  0  0  0  0
 45 69  1  0  0  0  0
 46 48  1  0  0  0  0
 47 49  1  0  0  0  0
 47 50  1  0  0  0  0
 48 52  1  0  0  0  0
 49 54  1  0  0  0  0
 50 70  1  0  0  0  0
 51 54  1  0  0  0  0
 51 70  1  0  0  0  0
 52 74  1  0  0  0  0
 53 69  1  0  0  0  0
 54 68  1  0  0  0  0
 56 65  1  0  0  0  0
 57 66  1  0  0  0  0
 58 66  1  0  0  0  0
 59 66  1  0  0  0  0
 60 76  1  0  0  0  0
 61 77  1  0  0  0  0
 62 76  1  0  0  0  0
 63 86  1  0  0  0  0
 64 66  1  0  0  0  0
 64 75  1  0  0  0  0
 65 77  1  0  0  0  0
 67 68  1  0  0  0  0
M  CHG  1  77   1
M  ISO  4  42 100  63 101  73 100  86 101
M  END
> <Batch ID>
0056

> <Smiles>
CNC(C)C(=O)NC(C(=O)N1Cc2cc([101O:1][101CH2:1]C(=O)N(C)CC(=O)C=Cc3cccc([100NH:0][100C:0](=O)N4CCCC(n5nc(-c6ccc(Oc7ccc(F)cc7F)cc6)c(C(N)=O)c5N)C4)c3C)ccc2CC1C(=O)NC1CCCc2ccccc21)C(C)(C)C

> <Shape>
0.268

> <Color>
0.127

> <Negative vol penalty>
0.000

$$$$

  -OEChem-04042322523D

 85 93  0     1  0  0  0  0  0999 V2000
  -20.2825  -25.4664   15.3647 C   0  0  0  0  0  0  0  0  0  0  0  0
  -21.5654  -24.9593   15.5447 C   0  0  0  0  0  0  0  0  0  0  0  0
  -23.1350  -10.0227   19.8691 C   0  0  0  0  0  0  0  0  0  0  0  0
  -23.9450   -9.8668   22.1400 C   0  0  0  0  0  0  0  0  0  0  0  0
  -20.0742  -26.8450   15.3541 C   0  0  0  0  0  0  0  0  0  0  0  0
  -22.6410  -25.8306   15.7131 C   0  0  0  0  0  0  0  0  0  0  0  0
  -25.7256  -24.4061   19.4683 C   0  0  0  0  0  0  0  0  0  0  0  0
  -31.7496  -17.8885   24.3114 C   0  0  0  0  0  0  0  0  0  0  0  0
  -30.8567  -16.9952   24.9031 C   0  0  0  0  0  0  0  0  0  0  0  0
  -22.4364   -8.8270   20.0362 C   0  0  0  0  0  0  0  0  0  0  0  0
  -23.2464   -8.6711   22.3071 C   0  0  0  0  0  0  0  0  0  0  0  0
  -26.6174  -23.3684   19.2007 C   0  0  0  0  0  0  0  0  0  0  0  0
  -23.6374   -5.4192   21.4686 C   0  0  0  0  0  0  0  0  0  0  0  0
  -24.3032   -4.3605   22.0863 C   0  0  0  0  0  0  0  0  0  0  0  0
  -28.3804  -24.9794   18.8605 C   0  0  0  0  0  0  0  0  0  0  0  0
  -31.8465  -16.4888   22.3445 C   0  0  0  0  0  0  0  0  0  0  0  0
  -22.6352   -4.3314   23.8340 C   0  0  0  0  0  0  0  0  0  0  0  0
  -23.8893  -10.5425   20.9210 C   0  0  0  0  0  0  0  0  0  0  0  0
  -24.1425  -13.0795   21.0058 C   0  0  0  0  0  0  0  0  0  0  0  0
  -21.1463  -27.7335   15.5321 C   0  0  0  0  0  0  0  0  0  0  0  0
  -26.1527  -25.7410   19.4232 C   0  0  0  0  0  0  0  0  0  0  0  0
  -22.4470  -27.2224   15.7036 C   0  0  0  0  0  0  0  0  0  0  0  0
  -27.4927  -26.0321   19.1304 C   0  0  0  0  0  0  0  0  0  0  0  0
  -32.2445  -17.6354   23.0320 C   0  0  0  0  0  0  0  0  0  0  0  0
  -30.4586  -15.8487   24.2156 C   0  0  0  0  0  0  0  0  0  0  0  0
  -30.9536  -15.5954   22.9363 C   0  0  0  0  0  0  0  0  0  0  0  0
  -22.4921   -8.1512   21.2551 C   0  0  0  0  0  0  0  0  0  0  0  0
  -27.9444  -23.6551   18.8939 C   0  0  0  0  0  0  0  0  0  0  0  0
  -22.4706   -5.9340   22.0335 C   0  0  0  0  0  0  0  0  0  0  0  0
  -23.8021   -3.8166   23.2690 C   0  0  0  0  0  0  0  0  0  0  0  0
  -21.9695   -5.3901   23.2162 C   0  0  0  0  0  0  0  0  0  0  0  0
  -24.6116  -11.7774   20.7489 C   0  0  0  0  0  0  0  0  0  0  0  0
  -25.2002  -13.8950   20.6854 C   0  0  0  0  0  0  0  0  0  0  0  0
  -31.3910  -21.2466   20.4339 C   0  0  0  0  0  0  0  0  0  0  0  0
  -30.8291  -21.5470   19.2551 C   0  0  0  0  0  0  0  0  0  0  0  0
  -22.8648  -13.5132   21.4908 C   0  0  0  0  0  0  0  0  0  0  0  0
  -32.0184  -19.9137   20.6504 C   0  0  0  0  0  0  0  0  0  0  0  0
  -25.3838  -28.2844   17.6785 C   0  0  0  0  0  0  0  0  0  0  0  0
  -27.3859  -29.8086   19.7256 C   0  0  0  0  0  0  0  0  0  0  0  0
  -30.0125  -29.6101   21.8955 C   0  0  0  0  0  0  0  0  0  0  0  0
  -30.9681  -14.0533   20.9443 C   0  0  0  0  0  0  0  0  0  0  0  0
  -20.8790  -29.2163   15.4659 C   0  0  0  0  0  0  0  0  0  0  0  0
  -25.1846  -26.8476   19.7405 C   0  0  0  0  0  0  0  0  0  0  0  0
  -28.0061  -27.4474   19.0891 C   0  0  0  0  0  0  0  0  0  0  0  0
  -22.0169  -30.0660   16.0257 C   0  0  0  0  0  0  0  0  0  0  0  0
  -29.2544  -13.4079   17.8908 C   0  0  0  0  0  0  0  0  0  0  0  0
  -23.3595  -29.5817   15.4873 C   0  0  0  0  0  0  0  0  0  0  0  0
  -27.8361  -13.0488   18.3399 C   0  0  0  0  0  0  0  0  0  0  0  0
  -30.3083  -12.8736   18.8591 C   0  0  0  0  0  0  0  0  0  0  0  0
  -28.6871  -12.8872   20.7141 C   0  0  0  0  0  0  0  0  0  0  0  0
  -23.6357  -28.1350   15.9143 C   0  0  1  0  0  0  0  0  0  0  0  0
  -25.6063  -28.1947   19.1617 C   0  0  1  0  0  0  0  0  0  0  0  0
  -27.5878  -13.4597   19.8045 C   0  0  2  0  0  0  0  0  0  0  0  0
  -29.5017  -14.9089   24.8745 C   0  0  0  0  0  0  0  0  0  0  0  0
  -31.4470  -31.0296   23.3870 C   0  0  0  0  0  0  0  0  0  0  0  0
  -28.8820  -30.8592   17.2827 C   0  0  0  0  0  0  0  0  0  0  0  0
  -30.7917  -31.4464   18.7915 C   0  0  0  0  0  0  0  0  0  0  0  0
  -28.5697  -32.5332   19.1143 C   0  0  0  0  0  0  0  0  0  0  0  0
  -29.1781  -28.1187   24.3118 C   0  0  0  0  0  0  0  0  0  0  0  0
  -33.2055  -18.5976   22.3958 C   0  0  0  0  0  0  0  0  0  0  0  0
  -30.1864  -22.8652   18.9657 C   0  0  0  0  0  0  0  0  0  1  0  0
  -28.8660  -30.1046   19.7518 C   0  0  1  0  0  0  0  0  0  0  0  0
  -30.2039  -30.1581   23.2982 C   0  0  2  0  0  0  0  0  0  0  0  0
  -29.2675  -31.2092   18.7339 C   0  0  0  0  0  0  0  0  0  0  0  0
  -25.8694  -11.7617   20.2997 N   0  0  0  0  0  0  0  0  0  0  0  0
  -26.1995  -13.0641   20.2718 N   0  0  0  0  0  0  0  0  0  0  0  0
  -27.0195  -28.4949   19.4004 N   0  0  0  0  0  0  0  0  0  0  0  0
  -30.0104  -13.3064   20.2262 N   0  0  0  0  0  0  0  0  0  0  0  0
  -25.3636  -15.2346   20.7198 N   0  0  0  0  0  0  0  0  0  0  0  0
  -21.8921  -12.5437   21.7705 N   0  0  0  0  0  0  0  0  0  0  0  0
  -30.5607  -14.4367   22.2217 N   0  0  0  0  0  0  0  0  0  0  0  0
  -32.5425  -19.7935   21.9262 N   0  0  0  0  0  0  0  0  0  0  0  0
  -24.0711  -28.0895   17.2937 N   0  0  0  0  0  0  0  0  0  0  0  0
  -29.1945  -30.4211   21.1375 N   0  0  0  0  0  0  0  0  0  0  0  0
  -30.3414  -29.0420   24.2761 N   0  3  0  0  0  0  0  0  0  0  0  0
  -22.5883  -14.7256   21.6554 O   0  0  0  0  0  0  0  0  0  0  0  0
  -32.0470  -19.0497   19.7801 O   0  0  0  0  0  0  0  0  0  0  0  0
  -26.3327  -28.5149   16.9380 O   0  0  0  0  0  0  0  0  0  0  0  0
  -26.5845  -30.7081   19.9911 O   0  0  0  0  0  0  0  0  0  0  0  0
  -30.5391  -28.5689   21.5095 O   0  0  0  0  0  0  0  0  0  0  0  0
  -32.0579  -14.3556   20.4515 O   0  0  0  0  0  0  0  0  0  0  0  0
  -21.8104   -6.9845   21.4186 O   0  0  0  0  0  0  0  0  0  0  0  0
  -28.8168  -22.6441   18.6317 O   0  0  0  0  0  0  0  0  0  1  0  0
  -24.4407   -2.7990   23.8613 F   0  0  0  0  0  0  0  0  0  0  0  0
  -20.8483   -5.8797   23.7630 F   0  0  0  0  0  0  0  0  0  0  0  0
  1  2  1  0  0  0  0
  1  5  2  0  0  0  0
  2  6  2  0  0  0  0
  3 10  2  0  0  0  0
  3 18  1  0  0  0  0
  4 11  1  0  0  0  0
  4 18  2  0  0  0  0
  5 20  1  0  0  0  0
  6 22  1  0  0  0  0
  7 12  2  0  0  0  0
  7 21  1  0  0  0  0
  8  9  2  0  0  0  0
  8 24  1  0  0  0  0
  9 25  1  0  0  0  0
 10 27  1  0  0  0  0
 11 27  2  0  0  0  0
 12 28  1  0  0  0  0
 13 14  2  0  0  0  0
 13 29  1  0  0  0  0
 14 30  1  0  0  0  0
 15 23  1  0  0  0  0
 15 28  2  0  0  0  0
 16 24  2  0  0  0  0
 16 26  1  0  0  0  0
 17 30  2  0  0  0  0
 17 31  1  0  0  0  0
 18 32  1  0  0  0  0
 19 32  1  0  0  0  0
 19 33  2  0  0  0  0
 19 36  1  0  0  0  0
 20 22  2  0  0  0  0
 20 42  1  0  0  0  0
 21 23  2  0  0  0  0
 21 43  1  0  0  0  0
 22 51  1  0  0  0  0
 23 44  1  0  0  0  0
 24 60  1  0  0  0  0
 25 26  2  0  0  0  0
 25 54  1  0  0  0  0
 26 71  1  0  0  0  0
 27 82  1  0  0  0  0
 28 83  1  0  0  0  0
 29 31  2  0  0  0  0
 29 82  1  0  0  0  0
 30 84  1  0  0  0  0
 31 85  1  0  0  0  0
 32 65  2  0  0  0  0
 33 66  1  0  0  0  0
 33 69  1  0  0  0  0
 34 35  2  0  0  0  0
 34 37  1  0  0  0  0
 35 61  1  0  0  0  0
 36 70  1  0  0  0  0
 36 76  2  0  0  0  0
 37 72  1  0  0  0  0
 37 77  2  0  0  0  0
 38 52  1  0  0  0  0
 38 73  1  0  0  0  0
 38 78  2  0  0  0  0
 39 62  1  0  0  0  0
 39 67  1  0  0  0  0
 39 79  2  0  0  0  0
 40 63  1  0  0  0  0
 40 74  1  0  0  0  0
 40 80  2  0  0  0  0
 41 68  1  0  0  0  0
 41 71  1  0  0  0  0
 41 81  2  0  0  0  0
 42 45  1  0  0  0  0
 43 52  1  0  0  0  0
 44 67  1  0  0  0  0
 45 47  1  0  0  0  0
 46 48  1  0  0  0  0
 46 49  1  0  0  0  0
 47 51  1  0  0  0  0
 48 53  1  0  0  0  0
 49 68  1  0  0  0  0
 50 53  1  0  0  0  0
 50 68  1  0  0  0  0
 51 73  1  0  0  0  0
 52 67  1  0  0  0  0
 53 66  1  0  0  0  0
 55 63  1  0  0  0  0
 56 64  1  0  0  0  0
 57 64  1  0  0  0  0
 58 64  1  0  0  0  0
 59 75  1  0  0  0  0
 60 72  1  0  0  0  0
 61 83  1  0  0  0  0
 62 64  1  0  0  0  0
 62 74  1  0  0  0  0
 63 75  1  0  0  0  0
 65 66  1  0  0  0  0
M  CHG  1  75   1
M  ISO  4  41 100  61 101  71 100  83 101
M  END
> <Batch ID>
0056

> <Smiles>
CNC(C)C(=O)NC(C(=O)N1Cc2cc([101O:1][101CH2:1]C=CC(=O)NCc3ccc(C)c([100NH:0][100C:0](=O)N4CCCC(n5nc(-c6ccc(Oc7ccc(F)cc7F)cc6)c(C(N)=O)c5N)C4)c3)ccc2CC1C(=O)NC1CCCc2ccccc21)C(C)(C)C

> <Shape>
0.229

> <Color>
0.200

> <Negative vol penalty>
0.000

$$$$

  -OEChem-04042322523D

 87 96  0     1  0  0  0  0  0999 V2000
  -16.5836  -27.6575   21.5356 C   0  0  0  0  0  0  0  0  0  0  0  0
  -17.5037  -26.8444   22.1897 C   0  0  0  0  0  0  0  0  0  0  0  0
  -23.3446   -9.3368   20.0760 C   0  0  0  0  0  0  0  0  0  0  0  0
  -23.6213  -10.6777   22.0665 C   0  0  0  0  0  0  0  0  0  0  0  0
  -17.0263  -28.7487   20.7892 C   0  0  0  0  0  0  0  0  0  0  0  0
  -18.8671  -27.1215   22.0968 C   0  0  0  0  0  0  0  0  0  0  0  0
  -23.0989  -26.2828   26.4436 C   0  0  0  0  0  0  0  0  0  0  0  0
  -28.0876  -17.7919   25.1589 C   0  0  0  0  0  0  0  0  0  0  0  0
  -27.9684  -17.0234   24.0010 C   0  0  0  0  0  0  0  0  0  0  0  0
  -22.5953   -8.4119   20.8031 C   0  0  0  0  0  0  0  0  0  0  0  0
  -22.8719   -9.7528   22.7937 C   0  0  0  0  0  0  0  0  0  0  0  0
  -24.0238  -25.2641   26.6681 C   0  0  0  0  0  0  0  0  0  0  0  0
  -19.4348   -8.1352   21.9726 C   0  0  0  0  0  0  0  0  0  0  0  0
  -18.2557   -7.6609   21.3978 C   0  0  0  0  0  0  0  0  0  0  0  0
  -25.7130  -26.5547   25.5278 C   0  0  0  0  0  0  0  0  0  0  0  0
  -30.3401  -16.5666   24.0600 C   0  0  0  0  0  0  0  0  0  0  0  0
  -19.1226   -5.4073   21.4789 C   0  0  0  0  0  0  0  0  0  0  0  0
  -23.8576  -10.4697   20.7077 C   0  0  0  0  0  0  0  0  0  0  0  0
  -24.2133  -12.1659   18.8358 C   0  0  0  0  0  0  0  0  0  0  0  0
  -18.3952  -29.0450   20.6950 C   0  0  0  0  0  0  0  0  0  0  0  0
  -23.4718  -27.4424   25.7488 C   0  0  0  0  0  0  0  0  0  0  0  0
  -19.3286  -28.2170   21.3473 C   0  0  0  0  0  0  0  0  0  0  0  0
  -24.7916  -27.5878   25.2981 C   0  0  0  0  0  0  0  0  0  0  0  0
  -29.3330  -17.9478   25.7674 C   0  0  0  0  0  0  0  0  0  0  0  0
  -30.4593  -17.3351   25.2180 C   0  0  0  0  0  0  0  0  0  0  0  0
  -29.0946  -16.4108   23.4515 C   0  0  0  0  0  0  0  0  0  0  0  0
  -22.3589   -8.6199   22.1619 C   0  0  0  0  0  0  0  0  0  0  0  0
  -25.3303  -25.3987   26.2077 C   0  0  0  0  0  0  0  0  0  0  0  0
  -20.4579   -7.2455   22.3005 C   0  0  0  0  0  0  0  0  0  0  0  0
  -18.0996   -6.2970   21.1510 C   0  0  0  0  0  0  0  0  0  0  0  0
  -20.3018   -5.8815   22.0537 C   0  0  0  0  0  0  0  0  0  0  0  0
  -24.6322  -11.4251   19.9572 C   0  0  0  0  0  0  0  0  0  0  0  0
  -25.3078  -12.9229   18.4960 C   0  0  0  0  0  0  0  0  0  0  0  0
  -27.5391  -19.9214   28.0932 C   0  0  0  0  0  0  0  0  0  0  0  0
  -22.9480  -12.1694   18.1616 C   0  0  0  0  0  0  0  0  0  0  0  0
  -22.5600  -28.8218   23.0341 C   0  0  0  0  0  0  0  0  0  0  0  0
  -24.5512  -31.1848   24.0206 C   0  0  0  0  0  0  0  0  0  0  0  0
  -27.2373  -32.1088   25.9122 C   0  0  0  0  0  0  0  0  0  0  0  0
  -29.9909  -14.9532   21.6027 C   0  0  0  0  0  0  0  0  0  0  0  0
  -18.8290  -30.2076   19.8377 C   0  0  0  0  0  0  0  0  0  0  0  0
  -22.4692  -28.5437   25.5382 C   0  0  0  0  0  0  0  0  0  0  0  0
  -25.2477  -28.8217   24.5647 C   0  0  0  0  0  0  0  0  0  0  0  0
  -26.4881  -21.0128   28.0165 C   0  0  0  0  0  0  0  0  0  0  0  0
  -20.2660  -30.6527   20.0968 C   0  0  0  0  0  0  0  0  0  0  0  0
  -30.0923  -12.8919   18.7013 C   0  0  0  0  0  0  0  0  0  0  0  0
  -21.1978  -29.4460   20.1467 C   0  0  0  0  0  0  0  0  0  0  0  0
  -28.6640  -12.3541   18.5885 C   0  0  0  0  0  0  0  0  0  0  0  0
  -27.4358  -21.8329   25.8859 C   0  0  0  0  0  0  0  0  0  0  0  0
  -30.5412  -13.0085   20.1568 C   0  0  0  0  0  0  0  0  0  0  0  0
  -28.6304  -20.9100   26.0497 C   0  0  0  0  0  0  0  0  0  0  0  0
  -28.2076  -13.2325   20.9139 C   0  0  0  0  0  0  0  0  0  0  0  0
  -20.8142  -28.4996   21.2907 C   0  0  1  0  0  0  0  0  0  0  0  0
  -22.8230  -29.4583   24.3695 C   0  0  1  0  0  0  0  0  0  0  0  0
  -26.9278  -22.2579   27.2573 C   0  0  1  0  0  0  0  0  0  0  0  0
  -27.6877  -13.1588   19.4689 C   0  0  2  0  0  0  0  0  0  0  0  0
  -31.8024  -17.4863   25.8533 C   0  0  0  0  0  0  0  0  0  0  0  0
  -28.6519  -34.1010   26.4844 C   0  0  0  0  0  0  0  0  0  0  0  0
  -25.9431  -30.9708   21.3138 C   0  0  0  0  0  0  0  0  0  0  0  0
  -27.8655  -32.2516   22.2793 C   0  0  0  0  0  0  0  0  0  0  0  0
  -25.6113  -33.3099   22.1341 C   0  0  0  0  0  0  0  0  0  0  0  0
  -26.5232  -31.9381   28.7793 C   0  0  0  0  0  0  0  0  0  0  0  0
  -29.4365  -18.7803   27.0126 C   0  0  0  0  0  0  0  0  0  0  0  0
  -25.7774  -23.2533   27.1314 C   0  0  0  0  0  0  0  0  0  1  0  0
  -26.0187  -31.4905   23.8417 C   0  0  1  0  0  0  0  0  0  0  0  0
  -27.4421  -33.2657   26.8736 C   0  0  2  0  0  0  0  0  0  0  0  0
  -26.3509  -31.9815   22.4043 C   0  0  0  0  0  0  0  0  0  0  0  0
  -25.8944  -11.6877   20.3064 N   0  0  0  0  0  0  0  0  0  0  0  0
  -26.2781  -12.6018   19.3991 N   0  0  0  0  0  0  0  0  0  0  0  0
  -28.4460  -19.8484   27.0382 N   0  0  0  0  0  0  0  0  0  0  0  0
  -24.2288  -29.8679   24.3778 N   0  0  0  0  0  0  0  0  0  0  0  0
  -29.5703  -13.7871   20.9288 N   0  0  0  0  0  0  0  0  0  0  0  0
  -25.5253  -13.8251   17.5156 N   0  0  0  0  0  0  0  0  0  0  0  0
  -21.9326  -11.3312   18.6420 N   0  0  0  0  0  0  0  0  0  0  0  0
  -28.9737  -15.6284   22.2764 N   0  0  0  0  0  0  0  0  0  0  0  0
  -21.2788  -29.0235   22.5573 N   0  0  0  0  0  0  0  0  0  0  0  0
  -26.3693  -32.4392   24.8931 N   0  0  0  0  0  0  0  0  0  0  0  0
  -27.6480  -32.7574   28.2593 N   0  3  0  0  0  0  0  0  0  0  0  0
  -27.4955  -19.1140   29.0256 O   0  0  0  0  0  0  0  0  0  0  0  0
  -22.7296  -12.8822   17.1527 O   0  0  0  0  0  0  0  0  0  0  0  0
  -23.4537  -28.1954   22.4769 O   0  0  0  0  0  0  0  0  0  0  0  0
  -23.7220  -32.0833   23.8566 O   0  0  0  0  0  0  0  0  0  0  0  0
  -27.7946  -31.0220   26.0495 O   0  0  0  0  0  0  0  0  0  0  0  0
  -31.1616  -15.3402   21.5610 O   0  0  0  0  0  0  0  0  0  0  0  0
  -21.6276   -7.7178   22.8717 O   0  0  0  0  0  0  0  0  0  0  0  0
  -26.2350  -24.4055   26.4249 O   0  0  0  0  0  0  0  0  0  1  0  0
  -16.9666   -5.8415   20.6004 F   0  0  0  0  0  0  0  0  0  0  0  0
  -21.2806   -5.0218   22.3676 F   0  0  0  0  0  0  0  0  0  0  0  0
  1  2  1  0  0  0  0
  1  5  2  0  0  0  0
  2  6  2  0  0  0  0
  3 10  2  0  0  0  0
  3 18  1  0  0  0  0
  4 11  1  0  0  0  0
  4 18  2  0  0  0  0
  5 20  1  0  0  0  0
  6 22  1  0  0  0  0
  7 12  2  0  0  0  0
  7 21  1  0  0  0  0
  8  9  2  0  0  0  0
  8 24  1  0  0  0  0
  9 26  1  0  0  0  0
 10 27  1  0  0  0  0
 11 27  2  0  0  0  0
 12 28  1  0  0  0  0
 13 14  2  0  0  0  0
 13 29  1  0  0  0  0
 14 30  1  0  0  0  0
 15 23  1  0  0  0  0
 15 28  2  0  0  0  0
 16 25  1  0  0  0  0
 16 26  2  0  0  0  0
 17 30  2  0  0  0  0
 17 31  1  0  0  0  0
 18 32  1  0  0  0  0
 19 32  1  0  0  0  0
 19 33  2  0  0  0  0
 19 35  1  0  0  0  0
 20 22  2  0  0  0  0
 20 40  1  0  0  0  0
 21 23  2  0  0  0  0
 21 41  1  0  0  0  0
 22 52  1  0  0  0  0
 23 42  1  0  0  0  0
 24 25  2  0  0  0  0
 24 62  1  0  0  0  0
 25 56  1  0  0  0  0
 26 74  1  0  0  0  0
 27 84  1  0  0  0  0
 28 85  1  0  0  0  0
 29 31  2  0  0  0  0
 29 84  1  0  0  0  0
 30 86  1  0  0  0  0
 31 87  1  0  0  0  0
 32 67  2  0  0  0  0
 33 68  1  0  0  0  0
 33 72  1  0  0  0  0
 34 43  1  0  0  0  0
 34 69  1  0  0  0  0
 34 78  2  0  0  0  0
 35 73  1  0  0  0  0
 35 79  2  0  0  0  0
 36 53  1  0  0  0  0
 36 75  1  0  0  0  0
 36 80  2  0  0  0  0
 37 64  1  0  0  0  0
 37 70  1  0  0  0  0
 37 81  2  0  0  0  0
 38 65  1  0  0  0  0
 38 76  1  0  0  0  0
 38 82  2  0  0  0  0
 39 71  1  0  0  0  0
 39 74  1  0  0  0  0
 39 83  2  0  0  0  0
 40 44  1  0  0  0  0
 41 53  1  0  0  0  0
 42 70  1  0  0  0  0
 43 54  1  0  0  0  0
 44 46  1  0  0  0  0
 45 47  1  0  0  0  0
 45 49  1  0  0  0  0
 46 52  1  0  0  0  0
 47 55  1  0  0  0  0
 48 50  1  0  0  0  0
 48 54  1  0  0  0  0
 49 71  1  0  0  0  0
 50 69  1  0  0  0  0
 51 55  1  0  0  0  0
 51 71  1  0  0  0  0
 52 75  1  0  0  0  0
 53 70  1  0  0  0  0
 54 63  1  0  0  0  0
 55 68  1  0  0  0  0
 57 65  1  0  0  0  0
 58 66  1  0  0  0  0
 59 66  1  0  0  0  0
 60 66  1  0  0  0  0
 61 77  1  0  0  0  0
 62 69  1  0  0  0  0
 63 85  1  0  0  0  0
 64 66  1  0  0  0  0
 64 76  1  0  0  0  0
 65 77  1  0  0  0  0
 67 68  1  0  0  0  0
M  CHG  1  77   1
M  ISO  4  39 100  63 101  74 100  85 101
M  END
> <Batch ID>
0056

> <Smiles>
CNC(C)C(=O)NC(C(=O)N1Cc2cc([101O:1][101CH2:1]C3CCN(Cc4ccc([100NH:0][100C:0](=O)N5CCCC(n6nc(-c7ccc(Oc8ccc(F)cc8F)cc7)c(C(N)=O)c6N)C5)cc4C)C(=O)C3)ccc2CC1C(=O)NC1CCCc2ccccc21)C(C)(C)C

> <Shape>
0.225

> <Color>
0.101

> <Negative vol penalty>
0.000

$$$$

  -OEChem-04042322523D

 84 92  0     1  0  0  0  0  0999 V2000
  -17.0697  -25.4241   24.2122 C   0  0  0  0  0  0  0  0  0  0  0  0
  -18.2480  -24.8863   24.7196 C   0  0  0  0  0  0  0  0  0  0  0  0
  -32.4484  -17.7955   23.3646 C   0  0  0  0  0  0  0  0  0  0  0  0
  -23.0449   -9.8824   20.0457 C   0  0  0  0  0  0  0  0  0  0  0  0
  -23.7153  -10.0554   22.3603 C   0  0  0  0  0  0  0  0  0  0  0  0
  -17.1224  -26.4329   23.2512 C   0  0  0  0  0  0  0  0  0  0  0  0
  -19.4799  -25.3562   24.2656 C   0  0  0  0  0  0  0  0  0  0  0  0
  -24.6315  -25.9277   27.5275 C   0  0  0  0  0  0  0  0  0  0  0  0
  -31.6346  -18.7123   24.0299 C   0  0  0  0  0  0  0  0  0  0  0  0
  -31.8812  -16.8548   22.5049 C   0  0  0  0  0  0  0  0  0  0  0  0
  -22.2997   -8.7424   20.3467 C   0  0  0  0  0  0  0  0  0  0  0  0
  -22.9701   -8.9154   22.6614 C   0  0  0  0  0  0  0  0  0  0  0  0
  -25.7612  -25.1193   27.6460 C   0  0  0  0  0  0  0  0  0  0  0  0
  -23.3048   -5.5657   22.3482 C   0  0  0  0  0  0  0  0  0  0  0  0
  -23.8989   -4.5985   23.1588 C   0  0  0  0  0  0  0  0  0  0  0  0
  -26.8837  -26.4541   25.9794 C   0  0  0  0  0  0  0  0  0  0  0  0
  -22.1316   -4.8739   24.7829 C   0  0  0  0  0  0  0  0  0  0  0  0
  -23.7528  -10.5389   21.0524 C   0  0  0  0  0  0  0  0  0  0  0  0
  -24.0819  -13.0528   20.7700 C   0  0  0  0  0  0  0  0  0  0  0  0
  -18.3555  -26.9222   22.7922 C   0  0  0  0  0  0  0  0  0  0  0  0
  -24.6155  -27.0005   26.6246 C   0  0  0  0  0  0  0  0  0  0  0  0
  -19.5491  -26.3716   23.2966 C   0  0  0  0  0  0  0  0  0  0  0  0
  -25.7535  -27.2761   25.8532 C   0  0  0  0  0  0  0  0  0  0  0  0
  -29.6863  -17.7478   22.9759 C   0  0  0  0  0  0  0  0  0  0  0  0
  -30.2535  -18.6885   23.8356 C   0  0  0  0  0  0  0  0  0  0  0  0
  -30.5001  -16.8309   22.3106 C   0  0  0  0  0  0  0  0  0  0  0  0
  -22.2623   -8.2589   21.6546 C   0  0  0  0  0  0  0  0  0  0  0  0
  -26.8865  -25.3807   26.8698 C   0  0  0  0  0  0  0  0  0  0  0  0
  -22.1241   -6.1871   22.7550 C   0  0  0  0  0  0  0  0  0  0  0  0
  -23.3123   -4.2525   24.3761 C   0  0  0  0  0  0  0  0  0  0  0  0
  -21.5374   -5.8412   23.9723 C   0  0  0  0  0  0  0  0  0  0  0  0
  -24.5232  -11.7162   20.7419 C   0  0  0  0  0  0  0  0  0  0  0  0
  -25.1823  -13.7855   20.3974 C   0  0  0  0  0  0  0  0  0  0  0  0
  -28.7072  -21.4017   25.9188 C   0  0  0  0  0  0  0  0  0  0  0  0
  -28.8967  -22.4058   26.7859 C   0  0  0  0  0  0  0  0  0  0  0  0
  -22.7928  -13.5844   21.1032 C   0  0  0  0  0  0  0  0  0  0  0  0
  -29.8674  -20.6149   25.4045 C   0  0  0  0  0  0  0  0  0  0  0  0
  -22.8908  -27.7501   24.0620 C   0  0  0  0  0  0  0  0  0  0  0  0
  -24.5561  -30.5284   24.2355 C   0  0  0  0  0  0  0  0  0  0  0  0
  -27.3586  -32.1654   25.2904 C   0  0  0  0  0  0  0  0  0  0  0  0
  -30.6304  -14.8921   20.7073 C   0  0  0  0  0  0  0  0  0  0  0  0
  -18.3621  -27.9807   21.7178 C   0  0  0  0  0  0  0  0  0  0  0  0
  -23.3986  -27.8793   26.5280 C   0  0  0  0  0  0  0  0  0  0  0  0
  -25.7945  -28.4281   24.8838 C   0  0  0  0  0  0  0  0  0  0  0  0
  -19.7082  -28.6839   21.5639 C   0  0  0  0  0  0  0  0  0  0  0  0
  -29.6249  -12.3096   18.4721 C   0  0  0  0  0  0  0  0  0  0  0  0
  -20.8428  -27.6648   21.5360 C   0  0  0  0  0  0  0  0  0  0  0  0
  -28.1717  -12.0349   18.8657 C   0  0  0  0  0  0  0  0  0  0  0  0
  -30.4912  -12.6297   19.6889 C   0  0  0  0  0  0  0  0  0  0  0  0
  -28.5273  -13.4302   20.9426 C   0  0  0  0  0  0  0  0  0  0  0  0
  -20.9047  -26.8722   22.8473 C   0  0  1  0  0  0  0  0  0  0  0  0
  -23.3089  -28.6322   25.2042 C   0  0  1  0  0  0  0  0  0  0  0  0
  -27.6020  -13.1666   19.7434 C   0  0  2  0  0  0  0  0  0  0  0  0
  -28.2034  -17.7216   22.7679 C   0  0  0  0  0  0  0  0  0  0  0  0
  -28.4536  -34.4230   25.2509 C   0  0  0  0  0  0  0  0  0  0  0  0
  -25.3445  -30.0924   21.3203 C   0  0  0  0  0  0  0  0  0  0  0  0
  -27.1473  -31.8028   21.6247 C   0  0  0  0  0  0  0  0  0  0  0  0
  -24.7547  -32.4526   21.8996 C   0  0  0  0  0  0  0  0  0  0  0  0
  -27.3276  -32.3606   28.2434 C   0  0  0  0  0  0  0  0  0  0  0  0
  -27.7801  -23.2282   27.3436 C   0  0  0  0  0  0  0  0  0  1  0  0
  -25.8634  -31.0283   23.6699 C   0  0  1  0  0  0  0  0  0  0  0  0
  -27.5402  -33.4830   26.0221 C   0  0  2  0  0  0  0  0  0  0  0  0
  -25.7763  -31.3211   22.1454 C   0  0  0  0  0  0  0  0  0  0  0  0
  -25.8039  -11.6035   20.3799 N   0  0  0  0  0  0  0  0  0  0  0  0
  -26.1769  -12.8786   20.1770 N   0  0  0  0  0  0  0  0  0  0  0  0
  -24.5777  -29.2546   24.8208 N   0  0  0  0  0  0  0  0  0  0  0  0
  -29.8917  -13.7136   20.4704 N   0  0  0  0  0  0  0  0  0  0  0  0
  -25.3864  -15.1106   20.2399 N   0  0  0  0  0  0  0  0  0  0  0  0
  -21.7747  -12.6913   21.4641 N   0  0  0  0  0  0  0  0  0  0  0  0
  -29.4463  -19.6281   24.5227 N   0  0  0  0  0  0  0  0  0  0  0  0
  -29.9456  -15.8655   21.4340 N   0  0  0  0  0  0  0  0  0  0  0  0
  -21.5225  -27.6651   23.8885 N   0  0  0  0  0  0  0  0  0  0  0  0
  -26.2439  -32.1812   24.4789 N   0  0  0  0  0  0  0  0  0  0  0  0
  -28.1345  -33.2500   27.3688 N   0  3  0  0  0  0  0  0  0  0  0  0
  -22.5462  -14.8137   21.0657 O   0  0  0  0  0  0  0  0  0  0  0  0
  -31.0132  -20.8651   25.7592 O   0  0  0  0  0  0  0  0  0  0  0  0
  -23.7462  -27.1894   23.3871 O   0  0  0  0  0  0  0  0  0  0  0  0
  -23.5542  -31.2449   24.1670 O   0  0  0  0  0  0  0  0  0  0  0  0
  -28.1307  -31.2182   25.4224 O   0  0  0  0  0  0  0  0  0  0  0  0
  -31.7756  -15.0387   20.2725 O   0  0  0  0  0  0  0  0  0  0  0  0
  -21.5350   -7.1467   21.9488 O   0  0  0  0  0  0  0  0  0  0  0  0
  -27.9903  -24.5928   26.9830 O   0  0  0  0  0  0  0  0  0  1  0  0
  -23.8821   -3.3226   25.1537 F   0  0  0  0  0  0  0  0  0  0  0  0
  -20.4025   -6.4339   24.3679 F   0  0  0  0  0  0  0  0  0  0  0  0
  1  2  1  0  0  0  0
  1  6  2  0  0  0  0
  2  7  2  0  0  0  0
  3  9  2  0  0  0  0
  3 10  1  0  0  0  0
  4 11  2  0  0  0  0
  4 18  1  0  0  0  0
  5 12  1  0  0  0  0
  5 18  2  0  0  0  0
  6 20  1  0  0  0  0
  7 22  1  0  0  0  0
  8 13  2  0  0  0  0
  8 21  1  0  0  0  0
  9 25  1  0  0  0  0
 10 26  2  0  0  0  0
 11 27  1  0  0  0  0
 12 27  2  0  0  0  0
 13 28  1  0  0  0  0
 14 15  2  0  0  0  0
 14 29  1  0  0  0  0
 15 30  1  0  0  0  0
 16 23  1  0  0  0  0
 16 28  2  0  0  0  0
 17 30  2  0  0  0  0
 17 31  1  0  0  0  0
 18 32  1  0  0  0  0
 19 32  1  0  0  0  0
 19 33  2  0  0  0  0
 19 36  1  0  0  0  0
 20 22  2  0  0  0  0
 20 42  1  0  0  0  0
 21 23  2  0  0  0  0
 21 43  1  0  0  0  0
 22 51  1  0  0  0  0
 23 44  1  0  0  0  0
 24 25  2  0  0  0  0
 24 26  1  0  0  0  0
 24 54  1  0  0  0  0
 25 70  1  0  0  0  0
 26 71  1  0  0  0  0
 27 81  1  0  0  0  0
 28 82  1  0  0  0  0
 29 31  2  0  0  0  0
 29 81  1  0  0  0  0
 30 83  1  0  0  0  0
 31 84  1  0  0  0  0
 32 64  2  0  0  0  0
 33 65  1  0  0  0  0
 33 68  1  0  0  0  0
 34 35  2  0  0  0  0
 34 37  1  0  0  0  0
 35 60  1  0  0  0  0
 36 69  1  0  0  0  0
 36 75  2  0  0  0  0
 37 70  1  0  0  0  0
 37 76  2  0  0  0  0
 38 52  1  0  0  0  0
 38 72  1  0  0  0  0
 38 77  2  0  0  0  0
 39 61  1  0  0  0  0
 39 66  1  0  0  0  0
 39 78  2  0  0  0  0
 40 62  1  0  0  0  0
 40 73  1  0  0  0  0
 40 79  2  0  0  0  0
 41 67  1  0  0  0  0
 41 71  1  0  0  0  0
 41 80  2  0  0  0  0
 42 45  1  0  0  0  0
 43 52  1  0  0  0  0
 44 66  1  0  0  0  0
 45 47  1  0  0  0  0
 46 48  1  0  0  0  0
 46 49  1  0  0  0  0
 47 51  1  0  0  0  0
 48 53  1  0  0  0  0
 49 67  1  0  0  0  0
 50 53  1  0  0  0  0
 50 67  1  0  0  0  0
 51 72  1  0  0  0  0
 52 66  1  0  0  0  0
 53 65  1  0  0  0  0
 55 62  1  0  0  0  0
 56 63  1  0  0  0  0
 57 63  1  0  0  0  0
 58 63  1  0  0  0  0
 59 74  1  0  0  0  0
 60 82  1  0  0  0  0
 61 63  1  0  0  0  0
 61 73  1  0  0  0  0
 62 74  1  0  0  0  0
 64 65  1  0  0  0  0
M  CHG  1  74   1
M  ISO  4  41 100  60 101  71 100  82 101
M  END
> <Batch ID>
0056

> <Smiles>
CNC(C)C(=O)NC(C(=O)N1Cc2cc([101O:1][101CH2:1]C=CC(=O)Nc3cccc([100NH:0][100C:0](=O)N4CCCC(n5nc(-c6ccc(Oc7ccc(F)cc7F)cc6)c(C(N)=O)c5N)C4)c3C)ccc2CC1C(=O)NC1CCCc2ccccc21)C(C)(C)C

> <Shape>
0.310

> <Color>
0.227

> <Negative vol penalty>
0.000

$$$$

  -OEChem-04042322523D

 84 92  0     1  0  0  0  0  0999 V2000
  -23.2708  -37.0622   20.0270 C   0  0  0  0  0  0  0  0  0  0  0  0
  -24.1874  -36.0157   20.0310 C   0  0  0  0  0  0  0  0  0  0  0  0
  -26.5316  -12.9114   21.5453 C   0  0  0  0  0  0  0  0  0  0  0  0
  -26.3022  -13.6742   19.2643 C   0  0  0  0  0  0  0  0  0  0  0  0
  -22.3356  -37.1723   21.0552 C   0  0  0  0  0  0  0  0  0  0  0  0
  -24.1701  -35.0792   21.0640 C   0  0  0  0  0  0  0  0  0  0  0  0
  -24.5884  -30.3216   19.3803 C   0  0  0  0  0  0  0  0  0  0  0  0
  -29.3562  -20.8081   16.8272 C   0  0  0  0  0  0  0  0  0  0  0  0
  -25.2526  -12.3577   21.4888 C   0  0  0  0  0  0  0  0  0  0  0  0
  -25.0232  -13.1205   19.2078 C   0  0  0  0  0  0  0  0  0  0  0  0
  -25.8612  -29.8849   19.0154 C   0  0  0  0  0  0  0  0  0  0  0  0
  -23.7950   -9.5780   20.2312 C   0  0  0  0  0  0  0  0  0  0  0  0
  -28.9538  -21.7607   15.8912 C   0  0  0  0  0  0  0  0  0  0  0  0
  -23.6225   -8.2915   20.7418 C   0  0  0  0  0  0  0  0  0  0  0  0
  -26.0774  -28.7603   21.1386 C   0  0  0  0  0  0  0  0  0  0  0  0
  -29.5613  -22.5388   18.5004 C   0  0  0  0  0  0  0  0  0  0  0  0
  -22.0170   -9.1394   22.3358 C   0  0  0  0  0  0  0  0  0  0  0  0
  -27.0564  -13.5697   20.4331 C   0  0  0  0  0  0  0  0  0  0  0  0
  -29.5919  -13.5134   20.1582 C   0  0  0  0  0  0  0  0  0  0  0  0
  -22.3006  -36.2312   22.0963 C   0  0  0  0  0  0  0  0  0  0  0  0
  -24.0541  -29.9895   20.6336 C   0  0  0  0  0  0  0  0  0  0  0  0
  -23.2345  -35.1776   22.1079 C   0  0  0  0  0  0  0  0  0  0  0  0
  -24.7966  -29.1919   21.5159 C   0  0  0  0  0  0  0  0  0  0  0  0
  -29.6599  -21.1972   18.1319 C   0  0  0  0  0  0  0  0  0  0  0  0
  -29.1590  -23.4915   17.5643 C   0  0  0  0  0  0  0  0  0  0  0  0
  -24.4984  -12.4622   20.3201 C   0  0  0  0  0  0  0  0  0  0  0  0
  -26.6071  -29.1066   19.8957 C   0  0  0  0  0  0  0  0  0  0  0  0
  -23.0786  -10.6453   20.7730 C   0  0  0  0  0  0  0  0  0  0  0  0
  -22.7335   -8.0722   21.7940 C   0  0  0  0  0  0  0  0  0  0  0  0
  -28.8553  -23.1024   16.2597 C   0  0  0  0  0  0  0  0  0  0  0  0
  -22.1896  -10.4259   21.8252 C   0  0  0  0  0  0  0  0  0  0  0  0
  -28.3773  -14.1424   20.4910 C   0  0  0  0  0  0  0  0  0  0  0  0
  -30.5484  -14.4733   20.3822 C   0  0  0  0  0  0  0  0  0  0  0  0
  -29.8340  -12.1805   19.6886 C   0  0  0  0  0  0  0  0  0  0  0  0
  -29.1074  -26.8726   19.2016 C   0  0  0  0  0  0  0  0  0  0  0  0
  -29.3250  -25.3886   19.1815 C   0  0  0  0  0  0  0  0  0  0  0  0
  -23.1050  -31.6430   23.1770 C   0  0  0  0  0  0  0  0  0  0  0  0
  -22.1353  -28.7299   24.2237 C   0  0  0  0  0  0  0  0  0  0  0  0
  -22.4748  -25.3373   24.0750 C   0  0  0  0  0  0  0  0  0  0  0  0
  -30.4066  -20.4469   20.4179 C   0  0  0  0  0  0  0  0  0  0  0  0
  -21.3021  -36.4185   23.2109 C   0  0  0  0  0  0  0  0  0  0  0  0
  -22.6689  -30.4460   21.0014 C   0  0  0  0  0  0  0  0  0  0  0  0
  -24.2603  -28.7909   22.8650 C   0  0  0  0  0  0  0  0  0  0  0  0
  -21.1077  -35.1720   24.0704 C   0  0  0  0  0  0  0  0  0  0  0  0
  -31.4263  -18.3251   23.0891 C   0  0  0  0  0  0  0  0  0  0  0  0
  -22.4567  -34.5671   24.4463 C   0  0  0  0  0  0  0  0  0  0  0  0
  -30.8759  -16.9532   22.6927 C   0  0  0  0  0  0  0  0  0  0  0  0
  -30.4750  -19.4534   22.6946 C   0  0  0  0  0  0  0  0  0  0  0  0
  -29.5123  -18.0817   20.8888 C   0  0  0  0  0  0  0  0  0  0  0  0
  -23.2313  -34.1278   23.1979 C   0  0  1  0  0  0  0  0  0  0  0  0
  -22.4309  -30.4786   22.5079 C   0  0  1  0  0  0  0  0  0  0  0  0
  -30.4655  -16.9183   21.2075 C   0  0  2  0  0  0  0  0  0  0  0  0
  -30.2827  -27.7400   18.8552 C   0  0  0  0  0  0  0  0  0  0  0  0
  -21.5700  -23.2213   25.0756 C   0  0  0  0  0  0  0  0  0  0  0  0
  -23.7457  -29.2452   26.7636 C   0  0  0  0  0  0  0  0  0  0  0  0
  -23.5943  -26.7986   27.2726 C   0  0  0  0  0  0  0  0  0  0  0  0
  -21.5175  -28.1740   27.1405 C   0  0  0  0  0  0  0  0  0  0  0  0
  -21.5131  -24.3695   21.4487 C   0  0  0  0  0  0  0  0  0  0  0  0
  -22.7699  -27.6132   25.0171 C   0  0  1  0  0  0  0  0  0  0  0  0
  -21.4480  -24.2271   23.9416 C   0  0  2  0  0  0  0  0  0  0  0  0
  -22.9180  -27.9668   26.5239 C   0  0  0  0  0  0  0  0  0  0  0  0
  -28.5441  -15.4043   20.8957 N   0  0  0  0  0  0  0  0  0  0  0  0
  -27.9243  -27.2762   19.5381 N   0  0  0  0  0  0  0  0  0  1  0  0
  -29.8748  -15.5759   20.8188 N   0  0  0  0  0  0  0  0  0  0  0  0
  -22.9035  -29.2672   23.1812 N   0  0  0  0  0  0  0  0  0  0  0  0
  -30.1335  -19.3588   21.2736 N   0  0  0  0  0  0  0  0  0  0  0  0
  -31.8915  -14.4733   20.2463 N   0  0  0  0  0  0  0  0  0  0  0  0
  -28.7381  -11.3245   19.5134 N   0  0  0  0  0  0  0  0  0  0  0  0
  -29.0595  -24.8510   17.9404 N   0  0  0  0  0  0  0  0  0  0  0  0
  -30.0687  -20.2293   19.0826 N   0  0  0  0  0  0  0  0  0  0  0  0
  -22.7094  -32.8757   22.6938 N   0  0  0  0  0  0  0  0  0  0  0  0
  -21.9680  -26.4222   24.7588 N   0  0  0  0  0  0  0  0  0  0  0  0
  -21.6310  -23.5048   22.6510 N   0  3  0  0  0  0  0  0  0  0  0  0
  -30.9894  -11.7558   19.4477 O   0  0  0  0  0  0  0  0  0  0  0  0
  -29.7058  -24.8739   20.2193 O   0  0  0  0  0  0  0  0  0  0  0  0
  -23.9224  -31.4382   24.0667 O   0  0  0  0  0  0  0  0  0  0  0  0
  -20.9970  -29.1065   24.5136 O   0  0  0  0  0  0  0  0  0  0  0  0
  -23.6137  -25.2493   23.6215 O   0  0  0  0  0  0  0  0  0  0  0  0
  -30.9287  -21.4844   20.8338 O   0  0  0  0  0  0  0  0  0  0  0  0
  -23.2505  -11.9218   20.2645 O   0  0  0  0  0  0  0  0  0  0  0  0
  -27.8499  -28.6795   19.5423 O   0  0  0  0  0  0  0  0  0  1  0  0
  -22.5668   -6.8364   22.2832 F   0  0  0  0  0  0  0  0  0  0  0  0
  -28.4679  -24.0090   15.3514 F   0  0  0  0  0  0  0  0  0  0  0  0
  -21.4977  -11.4471   22.3490 F   0  0  0  0  0  0  0  0  0  0  0  0
  1  2  1  0  0  0  0
  1  5  2  0  0  0  0
  2  6  2  0  0  0  0
  3  9  2  0  0  0  0
  3 18  1  0  0  0  0
  4 10  1  0  0  0  0
  4 18  2  0  0  0  0
  5 20  1  0  0  0  0
  6 22  1  0  0  0  0
  7 11  2  0  0  0  0
  7 21  1  0  0  0  0
  8 13  2  0  0  0  0
  8 24  1  0  0  0  0
  9 26  1  0  0  0  0
 10 26  2  0  0  0  0
 11 27  1  0  0  0  0
 12 14  2  0  0  0  0
 12 28  1  0  0  0  0
 13 30  1  0  0  0  0
 14 29  1  0  0  0  0
 15 23  1  0  0  0  0
 15 27  2  0  0  0  0
 16 24  2  0  0  0  0
 16 25  1  0  0  0  0
 17 29  2  0  0  0  0
 17 31  1  0  0  0  0
 18 32  1  0  0  0  0
 19 32  1  0  0  0  0
 19 33  2  0  0  0  0
 19 34  1  0  0  0  0
 20 22  2  0  0  0  0
 20 41  1  0  0  0  0
 21 23  2  0  0  0  0
 21 42  1  0  0  0  0
 22 50  1  0  0  0  0
 23 43  1  0  0  0  0
 24 70  1  0  0  0  0
 25 30  2  0  0  0  0
 25 69  1  0  0  0  0
 26 80  1  0  0  0  0
 27 81  1  0  0  0  0
 28 31  2  0  0  0  0
 28 80  1  0  0  0  0
 29 82  1  0  0  0  0
 30 83  1  0  0  0  0
 31 84  1  0  0  0  0
 32 62  2  0  0  0  0
 33 64  1  0  0  0  0
 33 67  1  0  0  0  0
 34 68  1  0  0  0  0
 34 74  2  0  0  0  0
 35 36  1  0  0  0  0
 35 53  1  0  0  0  0
 35 63  2  0  0  0  0
 36 69  1  0  0  0  0
 36 75  2  0  0  0  0
 37 51  1  0  0  0  0
 37 71  1  0  0  0  0
 37 76  2  0  0  0  0
 38 59  1  0  0  0  0
 38 65  1  0  0  0  0
 38 77  2  0  0  0  0
 39 60  1  0  0  0  0
 39 72  1  0  0  0  0
 39 78  2  0  0  0  0
 40 66  1  0  0  0  0
 40 70  1  0  0  0  0
 40 79  2  0  0  0  0
 41 44  1  0  0  0  0
 42 51  1  0  0  0  0
 43 65  1  0  0  0  0
 44 46  1  0  0  0  0
 45 47  1  0  0  0  0
 45 48  1  0  0  0  0
 46 50  1  0  0  0  0
 47 52  1  0  0  0  0
 48 66  1  0  0  0  0
 49 52  1  0  0  0  0
 49 66  1  0  0  0  0
 50 71  1  0  0  0  0
 51 65  1  0  0  0  0
 52 64  1  0  0  0  0
 54 60  1  0  0  0  0
 55 61  1  0  0  0  0
 56 61  1  0  0  0  0
 57 61  1  0  0  0  0
 58 73  1  0  0  0  0
 59 61  1  0  0  0  0
 59 72  1  0  0  0  0
 60 73  1  0  0  0  0
 62 64  1  0  0  0  0
 63 81  1  0  0  0  0
M  CHG  1  73   1
M  ISO  4  40 100  63 101  70 100  81 101
M  END
> <Batch ID>
0056

> <Smiles>
CNC(C)C(=O)NC(C(=O)N1Cc2cc([101O:1][101N:1]=C(C)C(=O)Nc3cc([100NH:0][100C:0](=O)N4CCCC(n5nc(-c6ccc(Oc7ccc(F)cc7F)cc6)c(C(N)=O)c5N)C4)ccc3F)ccc2CC1C(=O)NC1CCCc2ccccc21)C(C)(C)C

> <Shape>
0.271

> <Color>
0.078

> <Negative vol penalty>
0.000

$$$$

  -OEChem-04042322523D

 86 94  0     1  0  0  0  0  0999 V2000
  -26.9763  -34.7157   22.9048 C   0  0  0  0  0  0  0  0  0  0  0  0
  -27.2085  -33.3624   22.6812 C   0  0  0  0  0  0  0  0  0  0  0  0
  -32.8535  -17.2168   23.2621 C   0  0  0  0  0  0  0  0  0  0  0  0
  -22.9029   -9.9476   20.0650 C   0  0  0  0  0  0  0  0  0  0  0  0
  -23.6095  -10.0779   22.3717 C   0  0  0  0  0  0  0  0  0  0  0  0
  -25.7851  -35.1283   23.5004 C   0  0  0  0  0  0  0  0  0  0  0  0
  -26.2501  -32.4208   23.0541 C   0  0  0  0  0  0  0  0  0  0  0  0
  -24.9142  -27.1864   20.1691 C   0  0  0  0  0  0  0  0  0  0  0  0
  -32.1106  -18.1883   23.9327 C   0  0  0  0  0  0  0  0  0  0  0  0
  -32.2148  -16.3137   22.4122 C   0  0  0  0  0  0  0  0  0  0  0  0
  -22.0863   -8.8606   20.3765 C   0  0  0  0  0  0  0  0  0  0  0  0
  -22.7928   -8.9910   22.6833 C   0  0  0  0  0  0  0  0  0  0  0  0
  -25.3000  -25.8659   20.3952 C   0  0  0  0  0  0  0  0  0  0  0  0
  -22.8981   -5.6259   22.3728 C   0  0  0  0  0  0  0  0  0  0  0  0
  -23.4350   -4.6219   23.1786 C   0  0  0  0  0  0  0  0  0  0  0  0
  -23.2651  -25.4900   21.6350 C   0  0  0  0  0  0  0  0  0  0  0  0
  -21.7086   -5.0174   24.8218 C   0  0  0  0  0  0  0  0  0  0  0  0
  -23.6646  -10.5562   21.0625 C   0  0  0  0  0  0  0  0  0  0  0  0
  -24.1588  -13.0420   20.7716 C   0  0  0  0  0  0  0  0  0  0  0  0
  -24.8074  -34.1920   23.8719 C   0  0  0  0  0  0  0  0  0  0  0  0
  -23.7040  -27.6725   20.6844 C   0  0  0  0  0  0  0  0  0  0  0  0
  -25.0452  -32.8211   23.6564 C   0  0  0  0  0  0  0  0  0  0  0  0
  -22.8650  -26.8163   21.4119 C   0  0  0  0  0  0  0  0  0  0  0  0
  -30.7289  -18.2567   23.7536 C   0  0  0  0  0  0  0  0  0  0  0  0
  -30.0902  -17.3536   22.9037 C   0  0  0  0  0  0  0  0  0  0  0  0
  -30.8332  -16.3821   22.2330 C   0  0  0  0  0  0  0  0  0  0  0  0
  -22.0312   -8.3823   21.6857 C   0  0  0  0  0  0  0  0  0  0  0  0
  -24.4768  -25.0183   21.1307 C   0  0  0  0  0  0  0  0  0  0  0  0
  -21.7665   -6.3258   22.7916 C   0  0  0  0  0  0  0  0  0  0  0  0
  -22.8403   -4.3176   24.4030 C   0  0  0  0  0  0  0  0  0  0  0  0
  -21.1717   -6.0215   24.0160 C   0  0  0  0  0  0  0  0  0  0  0  0
  -24.5089  -11.6788   20.7412 C   0  0  0  0  0  0  0  0  0  0  0  0
  -25.3015  -13.6987   20.3853 C   0  0  0  0  0  0  0  0  0  0  0  0
  -22.9120  -13.6594   21.1181 C   0  0  0  0  0  0  0  0  0  0  0  0
  -22.8991  -29.9546   22.7456 C   0  0  0  0  0  0  0  0  0  0  0  0
  -19.8856  -29.1779   21.8299 C   0  0  0  0  0  0  0  0  0  0  0  0
  -28.2171  -20.7733   23.4291 C   0  0  0  0  0  0  0  0  0  0  0  0
  -17.7652  -26.8446   20.5237 C   0  0  0  0  0  0  0  0  0  0  0  0
  -30.8149  -14.4370   20.6322 C   0  0  0  0  0  0  0  0  0  0  0  0
  -23.5556  -34.6821   24.5557 C   0  0  0  0  0  0  0  0  0  0  0  0
  -23.2896  -29.0920   20.4090 C   0  0  0  0  0  0  0  0  0  0  0  0
  -21.5462  -27.2836   21.9695 C   0  0  0  0  0  0  0  0  0  0  0  0
  -22.4309  -33.6503   24.5796 C   0  0  0  0  0  0  0  0  0  0  0  0
  -29.6129  -11.9253   18.4133 C   0  0  0  0  0  0  0  0  0  0  0  0
  -22.9651  -32.2882   25.0109 C   0  0  0  0  0  0  0  0  0  0  0  0
  -28.1491  -11.7494   18.8236 C   0  0  0  0  0  0  0  0  0  0  0  0
  -30.5125  -12.1879   19.6198 C   0  0  0  0  0  0  0  0  0  0  0  0
  -28.6211  -13.1200   20.8938 C   0  0  0  0  0  0  0  0  0  0  0  0
  -24.0191  -31.7714   24.0244 C   0  0  1  0  0  0  0  0  0  0  0  0
  -22.2772  -29.6254   21.4179 C   0  0  1  0  0  0  0  0  0  0  0  0
  -27.6667  -12.9177   19.7055 C   0  0  2  0  0  0  0  0  0  0  0  0
  -28.6076  -17.4310   22.7146 C   0  0  0  0  0  0  0  0  0  0  0  0
  -15.3530  -26.4871   19.9313 C   0  0  0  0  0  0  0  0  0  0  0  0
  -19.2173  -28.8085   24.7840 C   0  0  0  0  0  0  0  0  0  0  0  0
  -17.1576  -27.5655   24.0909 C   0  0  0  0  0  0  0  0  0  0  0  0
  -17.4430  -29.9590   23.4490 C   0  0  0  0  0  0  0  0  0  0  0  0
  -30.6537  -21.0901   22.9322 C   0  0  0  0  0  0  0  0  0  0  0  0
  -18.4091  -26.4245   17.6658 C   0  0  0  0  0  0  0  0  0  0  0  0
  -29.9534  -19.3122   24.4875 C   0  0  0  0  0  0  0  0  0  0  0  0
  -27.9623  -21.9365   22.4794 C   0  0  0  0  0  0  0  0  0  0  0  0
  -26.4780  -22.2687   22.3423 C   0  0  0  0  0  0  0  0  0  0  0  0
  -26.2513  -23.4628   21.4263 C   0  0  0  0  0  0  0  0  0  1  0  0
  -18.8444  -28.1932   22.3044 C   0  0  1  0  0  0  0  0  0  0  0  0
  -16.7166  -26.9365   19.4299 C   0  0  2  0  0  0  0  0  0  0  0  0
  -18.1913  -28.6230   23.6484 C   0  0  0  0  0  0  0  0  0  0  0  0
  -25.7750  -11.4799   20.3651 N   0  0  0  0  0  0  0  0  0  0  0  0
  -26.2304  -12.7268   20.1556 N   0  0  0  0  0  0  0  0  0  0  0  0
  -21.1883  -28.6818   21.6787 N   0  0  0  0  0  0  0  0  0  0  0  0
  -29.9960  -13.3105   20.4058 N   0  0  0  0  0  0  0  0  0  0  0  0
  -25.5924  -15.0069   20.2230 N   0  0  0  0  0  0  0  0  0  0  0  0
  -21.8404  -12.8372   21.4921 N   0  0  0  0  0  0  0  0  0  0  0  0
  -30.2053  -15.4551   21.3646 N   0  0  0  0  0  0  0  0  0  0  0  0
  -23.3836  -31.2455   22.8352 N   0  0  0  0  0  0  0  0  0  0  0  0
  -17.8994  -28.0364   21.2041 N   0  0  0  0  0  0  0  0  0  0  0  0
  -29.5549  -20.4057   23.6097 N   0  0  0  0  0  0  0  0  0  0  0  0
  -17.0983  -26.0781   18.2730 N   0  3  0  0  0  0  0  0  0  0  0  0
  -22.7482  -14.9025   21.0810 O   0  0  0  0  0  0  0  0  0  0  0  0
  -22.9352  -29.1010   23.6241 O   0  0  0  0  0  0  0  0  0  0  0  0
  -19.5539  -30.3426   21.5949 O   0  0  0  0  0  0  0  0  0  0  0  0
  -27.2759  -20.2078   23.9921 O   0  0  0  0  0  0  0  0  0  0  0  0
  -18.3990  -25.8171   20.7543 O   0  0  0  0  0  0  0  0  0  0  0  0
  -31.9624  -14.5057   20.1844 O   0  0  0  0  0  0  0  0  0  0  0  0
  -21.2342   -7.3218   21.9901 O   0  0  0  0  0  0  0  0  0  0  0  0
  -24.8513  -23.7291   21.3534 O   0  0  0  0  0  0  0  0  0  1  0  0
  -23.3550   -3.3524   25.1760 F   0  0  0  0  0  0  0  0  0  0  0  0
  -20.0837   -6.6896   24.4231 F   0  0  0  0  0  0  0  0  0  0  0  0
  1  2  1  0  0  0  0
  1  6  2  0  0  0  0
  2  7  2  0  0  0  0
  3  9  2  0  0  0  0
  3 10  1  0  0  0  0
  4 11  2  0  0  0  0
  4 18  1  0  0  0  0
  5 12  1  0  0  0  0
  5 18  2  0  0  0  0
  6 20  1  0  0  0  0
  7 22  1  0  0  0  0
  8 13  2  0  0  0  0
  8 21  1  0  0  0  0
  9 24  1  0  0  0  0
 10 26  2  0  0  0  0
 11 27  1  0  0  0  0
 12 27  2  0  0  0  0
 13 28  1  0  0  0  0
 14 15  2  0  0  0  0
 14 29  1  0  0  0  0
 15 30  1  0  0  0  0
 16 23  1  0  0  0  0
 16 28  2  0  0  0  0
 17 30  2  0  0  0  0
 17 31  1  0  0  0  0
 18 32  1  0  0  0  0
 19 32  1  0  0  0  0
 19 33  2  0  0  0  0
 19 34  1  0  0  0  0
 20 22  2  0  0  0  0
 20 40  1  0  0  0  0
 21 23  2  0  0  0  0
 21 41  1  0  0  0  0
 22 49  1  0  0  0  0
 23 42  1  0  0  0  0
 24 25  2  0  0  0  0
 24 59  1  0  0  0  0
 25 26  1  0  0  0  0
 25 52  1  0  0  0  0
 26 72  1  0  0  0  0
 27 83  1  0  0  0  0
 28 84  1  0  0  0  0
 29 31  2  0  0  0  0
 29 83  1  0  0  0  0
 30 85  1  0  0  0  0
 31 86  1  0  0  0  0
 32 66  2  0  0  0  0
 33 67  1  0  0  0  0
 33 70  1  0  0  0  0
 34 71  1  0  0  0  0
 34 77  2  0  0  0  0
 35 50  1  0  0  0  0
 35 73  1  0  0  0  0
 35 78  2  0  0  0  0
 36 63  1  0  0  0  0
 36 68  1  0  0  0  0
 36 79  2  0  0  0  0
 37 60  1  0  0  0  0
 37 75  1  0  0  0  0
 37 80  2  0  0  0  0
 38 64  1  0  0  0  0
 38 74  1  0  0  0  0
 38 81  2  0  0  0  0
 39 69  1  0  0  0  0
 39 72  1  0  0  0  0
 39 82  2  0  0  0  0
 40 43  1  0  0  0  0
 41 50  1  0  0  0  0
 42 68  1  0  0  0  0
 43 45  1  0  0  0  0
 44 46  1  0  0  0  0
 44 47  1  0  0  0  0
 45 49  1  0  0  0  0
 46 51  1  0  0  0  0
 47 69  1  0  0  0  0
 48 51  1  0  0  0  0
 48 69  1  0  0  0  0
 49 73  1  0  0  0  0
 50 68  1  0  0  0  0
 51 67  1  0  0  0  0
 53 64  1  0  0  0  0
 54 65  1  0  0  0  0
 55 65  1  0  0  0  0
 56 65  1  0  0  0  0
 57 75  1  0  0  0  0
 58 76  1  0  0  0  0
 59 75  1  0  0  0  0
 60 61  1  0  0  0  0
 61 62  1  0  0  0  0
 62 84  1  0  0  0  0
 63 65  1  0  0  0  0
 63 74  1  0  0  0  0
 64 76  1  0  0  0  0
 66 67  1  0  0  0  0
M  CHG  1  76   1
M  ISO  4  39 100  62 101  72 100  84 101
M  END
> <Batch ID>
0056

> <Smiles>
CNC(C)C(=O)NC(C(=O)N1Cc2cc([101O:1][101CH2:1]CCC(=O)N(C)Cc3cccc([100NH:0][100C:0](=O)N4CCCC(n5nc(-c6ccc(Oc7ccc(F)cc7F)cc6)c(C(N)=O)c5N)C4)c3C)ccc2CC1C(=O)NC1CCCc2ccccc21)C(C)(C)C

> <Shape>
0.338

> <Color>
0.210

> <Negative vol penalty>
0.000

$$$$

  -OEChem-04042322523D

 88 97  0     1  0  0  0  0  0999 V2000
  -30.8589  -35.8360   24.1394 C   0  0  0  0  0  0  0  0  0  0  0  0
  -30.9888  -34.5064   23.7514 C   0  0  0  0  0  0  0  0  0  0  0  0
  -23.2156   -9.3586   19.5682 C   0  0  0  0  0  0  0  0  0  0  0  0
  -24.5858   -9.0542   21.5346 C   0  0  0  0  0  0  0  0  0  0  0  0
  -29.7755  -36.2294   24.9239 C   0  0  0  0  0  0  0  0  0  0  0  0
  -30.0359  -33.5690   24.1486 C   0  0  0  0  0  0  0  0  0  0  0  0
  -28.0717  -28.7322   20.9466 C   0  0  0  0  0  0  0  0  0  0  0  0
  -22.1000   -8.9115   20.2762 C   0  0  0  0  0  0  0  0  0  0  0  0
  -23.4702   -8.6071   22.2427 C   0  0  0  0  0  0  0  0  0  0  0  0
  -28.4120  -27.3807   20.9854 C   0  0  0  0  0  0  0  0  0  0  0  0
  -21.6656   -5.7605   22.5100 C   0  0  0  0  0  0  0  0  0  0  0  0
  -21.8142   -4.6218   23.3018 C   0  0  0  0  0  0  0  0  0  0  0  0
  -26.5316  -26.9551   22.4353 C   0  0  0  0  0  0  0  0  0  0  0  0
  -24.9258  -18.5003   17.1482 C   0  0  0  0  0  0  0  0  0  0  0  0
  -27.1923  -18.4198   18.7728 C   0  0  0  0  0  0  0  0  0  0  0  0
  -21.2050   -5.9024   25.2579 C   0  0  0  0  0  0  0  0  0  0  0  0
  -24.4585   -9.4299   20.1974 C   0  0  0  0  0  0  0  0  0  0  0  0
  -26.1646   -9.3214   18.3040 C   0  0  0  0  0  0  0  0  0  0  0  0
  -28.8037  -35.2982   25.3229 C   0  0  0  0  0  0  0  0  0  0  0  0
  -26.9634  -29.2079   21.6619 C   0  0  0  0  0  0  0  0  0  0  0  0
  -28.9392  -33.9500   24.9403 C   0  0  0  0  0  0  0  0  0  0  0  0
  -26.1779  -28.3126   22.4019 C   0  0  0  0  0  0  0  0  0  0  0  0
  -25.4059  -19.6716   17.7341 C   0  0  0  0  0  0  0  0  0  0  0  0
  -25.5789  -17.2887   17.3747 C   0  0  0  0  0  0  0  0  0  0  0  0
  -26.5392  -19.6313   18.5463 C   0  0  0  0  0  0  0  0  0  0  0  0
  -26.7121  -17.2485   18.1869 C   0  0  0  0  0  0  0  0  0  0  0  0
  -22.2273   -8.5358   21.6134 C   0  0  0  0  0  0  0  0  0  0  0  0
  -27.6436  -26.4924   21.7321 C   0  0  0  0  0  0  0  0  0  0  0  0
  -21.2868   -6.9702   23.0922 C   0  0  0  0  0  0  0  0  0  0  0  0
  -21.5838   -4.6927   24.6757 C   0  0  0  0  0  0  0  0  0  0  0  0
  -21.0565   -7.0411   24.4661 C   0  0  0  0  0  0  0  0  0  0  0  0
  -25.6113   -9.8911   19.4664 C   0  0  0  0  0  0  0  0  0  0  0  0
  -27.2384  -10.1243   18.0058 C   0  0  0  0  0  0  0  0  0  0  0  0
  -26.2602  -21.5840   20.0493 C   0  0  0  0  0  0  0  0  0  0  0  0
  -25.7455   -8.1695   17.5603 C   0  0  0  0  0  0  0  0  0  0  0  0
  -26.5461  -31.2856   24.0311 C   0  0  0  0  0  0  0  0  0  0  0  0
  -23.4046  -30.7324   23.4420 C   0  0  0  0  0  0  0  0  0  0  0  0
  -21.3281  -27.8777   22.6961 C   0  0  0  0  0  0  0  0  0  0  0  0
  -28.5264  -15.8331   19.2124 C   0  0  0  0  0  0  0  0  0  0  0  0
  -27.6755  -35.7615   26.2102 C   0  0  0  0  0  0  0  0  0  0  0  0
  -26.5939  -30.6641   21.5882 C   0  0  0  0  0  0  0  0  0  0  0  0
  -24.9663  -28.7694   23.1711 C   0  0  0  0  0  0  0  0  0  0  0  0
  -26.7475  -22.9856   20.3764 C   0  0  0  0  0  0  0  0  0  0  0  0
  -26.5093  -34.7787   26.2758 C   0  0  0  0  0  0  0  0  0  0  0  0
  -30.4702  -12.9810   20.0864 C   0  0  0  0  0  0  0  0  0  0  0  0
  -27.0200  -33.3579   26.4934 C   0  0  0  0  0  0  0  0  0  0  0  0
  -29.4969  -11.8125   19.9150 C   0  0  0  0  0  0  0  0  0  0  0  0
  -28.8867  -22.5710   19.2270 C   0  0  0  0  0  0  0  0  0  0  0  0
  -29.7731  -14.2236   20.6373 C   0  0  0  0  0  0  0  0  0  0  0  0
  -28.4865  -21.1226   18.9892 C   0  0  0  0  0  0  0  0  0  0  0  0
  -27.6109  -13.4832   19.7176 C   0  0  0  0  0  0  0  0  0  0  0  0
  -27.9130  -32.9085   25.3305 C   0  0  1  0  0  0  0  0  0  0  0  0
  -25.7459  -31.1259   22.7693 C   0  0  1  0  0  0  0  0  0  0  0  0
  -28.2540  -12.2287   19.1040 C   0  0  2  0  0  0  0  0  0  0  0  0
  -28.2631  -23.1371   20.5041 C   0  0  2  0  0  0  0  0  0  0  0  0
  -24.6863  -20.9552   17.4744 C   0  0  0  0  0  0  0  0  0  0  0  0
  -25.0425  -16.0497   16.7343 C   0  0  0  0  0  0  0  0  0  0  0  0
  -28.7794  -22.4169   21.7626 C   0  0  0  0  0  0  0  0  0  0  0  0
  -19.1591  -27.7206   21.4439 C   0  0  0  0  0  0  0  0  0  0  0  0
  -22.1273  -30.9734   26.2026 C   0  0  0  0  0  0  0  0  0  0  0  0
  -20.4014  -29.3132   25.4723 C   0  0  0  0  0  0  0  0  0  0  0  0
  -20.5985  -31.5040   24.2958 C   0  0  0  0  0  0  0  0  0  0  0  0
  -22.4181  -25.8555   20.8302 C   0  0  0  0  0  0  0  0  0  0  0  0
  -28.6198  -24.6298   20.6214 C   0  0  0  0  0  0  0  0  0  1  0  0
  -22.3801  -29.7446   23.9460 C   0  0  1  0  0  0  0  0  0  0  0  0
  -20.6690  -27.5558   21.3671 C   0  0  2  0  0  0  0  0  0  0  0  0
  -21.4045  -30.3773   24.9781 C   0  0  0  0  0  0  0  0  0  0  0  0
  -26.2785  -10.9723   19.8786 N   0  0  0  0  0  0  0  0  0  0  0  0
  -27.2622  -11.0883   18.9703 N   0  0  0  0  0  0  0  0  0  0  0  0
  -27.0531  -20.8361   19.1635 N   0  0  0  0  0  0  0  0  0  0  0  0
  -24.6496  -30.2039   23.0728 N   0  0  0  0  0  0  0  0  0  0  0  0
  -28.6080  -14.5606   19.8163 N   0  0  0  0  0  0  0  0  0  0  0  0
  -28.1551  -10.0926   17.0153 N   0  0  0  0  0  0  0  0  0  0  0  0
  -24.6221   -7.4594   18.0052 N   0  0  0  0  0  0  0  0  0  0  0  0
  -27.3894  -16.0276   18.4288 N   0  0  0  0  0  0  0  0  0  0  0  0
  -27.1062  -32.5392   24.1872 N   0  0  0  0  0  0  0  0  0  0  0  0
  -21.7254  -29.1963   22.7631 N   0  0  0  0  0  0  0  0  0  0  0  0
  -20.9688  -26.1520   20.9667 N   0  3  0  0  0  0  0  0  0  0  0  0
  -25.1835  -21.2184   20.5293 O   0  0  0  0  0  0  0  0  0  0  0  0
  -26.3590   -7.7719   16.5409 O   0  0  0  0  0  0  0  0  0  0  0  0
  -26.6467  -30.3418   24.8062 O   0  0  0  0  0  0  0  0  0  0  0  0
  -23.1085  -31.9278   23.3716 O   0  0  0  0  0  0  0  0  0  0  0  0
  -21.4725  -27.0437   23.5873 O   0  0  0  0  0  0  0  0  0  0  0  0
  -29.4140  -16.6778   19.3560 O   0  0  0  0  0  0  0  0  0  0  0  0
  -21.1390   -8.0997   22.3047 O   0  0  0  0  0  0  0  0  0  0  0  0
  -27.9739  -25.1729   21.7722 O   0  0  0  0  0  0  0  0  0  1  0  0
  -21.7250   -3.5988   25.4356 F   0  0  0  0  0  0  0  0  0  0  0  0
  -20.6912   -8.2002   25.0309 F   0  0  0  0  0  0  0  0  0  0  0  0
  1  2  1  0  0  0  0
  1  5  2  0  0  0  0
  2  6  2  0  0  0  0
  3  8  2  0  0  0  0
  3 17  1  0  0  0  0
  4  9  1  0  0  0  0
  4 17  2  0  0  0  0
  5 19  1  0  0  0  0
  6 21  1  0  0  0  0
  7 10  2  0  0  0  0
  7 20  1  0  0  0  0
  8 27  1  0  0  0  0
  9 27  2  0  0  0  0
 10 28  1  0  0  0  0
 11 12  2  0  0  0  0
 11 29  1  0  0  0  0
 12 30  1  0  0  0  0
 13 22  1  0  0  0  0
 13 28  2  0  0  0  0
 14 23  1  0  0  0  0
 14 24  2  0  0  0  0
 15 25  1  0  0  0  0
 15 26  2  0  0  0  0
 16 30  2  0  0  0  0
 16 31  1  0  0  0  0
 17 32  1  0  0  0  0
 18 32  1  0  0  0  0
 18 33  2  0  0  0  0
 18 35  1  0  0  0  0
 19 21  2  0  0  0  0
 19 40  1  0  0  0  0
 20 22  2  0  0  0  0
 20 41  1  0  0  0  0
 21 52  1  0  0  0  0
 22 42  1  0  0  0  0
 23 25  2  0  0  0  0
 23 56  1  0  0  0  0
 24 26  1  0  0  0  0
 24 57  1  0  0  0  0
 25 70  1  0  0  0  0
 26 75  1  0  0  0  0
 27 85  1  0  0  0  0
 28 86  1  0  0  0  0
 29 31  2  0  0  0  0
 29 85  1  0  0  0  0
 30 87  1  0  0  0  0
 31 88  1  0  0  0  0
 32 68  2  0  0  0  0
 33 69  1  0  0  0  0
 33 73  1  0  0  0  0
 34 43  1  0  0  0  0
 34 70  1  0  0  0  0
 34 79  2  0  0  0  0
 35 74  1  0  0  0  0
 35 80  2  0  0  0  0
 36 53  1  0  0  0  0
 36 76  1  0  0  0  0
 36 81  2  0  0  0  0
 37 65  1  0  0  0  0
 37 71  1  0  0  0  0
 37 82  2  0  0  0  0
 38 66  1  0  0  0  0
 38 77  1  0  0  0  0
 38 83  2  0  0  0  0
 39 72  1  0  0  0  0
 39 75  1  0  0  0  0
 39 84  2  0  0  0  0
 40 44  1  0  0  0  0
 41 53  1  0  0  0  0
 42 71  1  0  0  0  0
 43 55  1  0  0  0  0
 44 46  1  0  0  0  0
 45 47  1  0  0  0  0
 45 49  1  0  0  0  0
 46 52  1  0  0  0  0
 47 54  1  0  0  0  0
 48 50  1  0  0  0  0
 48 55  1  0  0  0  0
 49 72  1  0  0  0  0
 50 70  1  0  0  0  0
 51 54  1  0  0  0  0
 51 72  1  0  0  0  0
 52 76  1  0  0  0  0
 53 71  1  0  0  0  0
 54 69  1  0  0  0  0
 55 58  1  0  0  0  0
 55 64  1  0  0  0  0
 59 66  1  0  0  0  0
 60 67  1  0  0  0  0
 61 67  1  0  0  0  0
 62 67  1  0  0  0  0
 63 78  1  0  0  0  0
 64 86  1  0  0  0  0
 65 67  1  0  0  0  0
 65 77  1  0  0  0  0
 66 78  1  0  0  0  0
 68 69  1  0  0  0  0
M  CHG  1  78   1
M  ISO  4  39 100  64 101  75 100  86 101
M  END
> <Batch ID>
0056

> <Smiles>
CNC(C)C(=O)NC(C(=O)N1Cc2cc([101O:1][101CH2:1]C3(C)CCN(c4cc([100NH:0][100C:0](=O)N5CCCC(n6nc(-c7ccc(Oc8ccc(F)cc8F)cc7)c(C(N)=O)c6N)C5)c(C)cc4C)C(=O)C3)ccc2CC1C(=O)NC1CCCc2ccccc21)C(C)(C)C

> <Shape>
0.282

> <Color>
0.081

> <Negative vol penalty>
0.000

$$$$

  -OEChem-04042322523D

 88 96  0     1  0  0  0  0  0999 V2000
  -22.9453  -22.9926   21.0541 C   0  0  0  0  0  0  0  0  0  0  0  0
  -24.1715  -23.0325   21.7101 C   0  0  0  0  0  0  0  0  0  0  0  0
  -30.5866  -19.2327   20.3210 C   0  0  0  0  0  0  0  0  0  0  0  0
  -23.0601   -9.8317   19.9477 C   0  0  0  0  0  0  0  0  0  0  0  0
  -23.8069   -9.8542   22.2452 C   0  0  0  0  0  0  0  0  0  0  0  0
  -30.3882  -19.9683   21.4893 C   0  0  0  0  0  0  0  0  0  0  0  0
  -22.9001  -22.7951   19.6747 C   0  0  0  0  0  0  0  0  0  0  0  0
  -25.3532  -22.8738   20.9870 C   0  0  0  0  0  0  0  0  0  0  0  0
  -28.9049  -26.2331   22.3081 C   0  0  0  0  0  0  0  0  0  0  0  0
  -30.4393  -17.8457   20.3366 C   0  0  0  0  0  0  0  0  0  0  0  0
  -22.3360   -8.6654   20.1944 C   0  0  0  0  0  0  0  0  0  0  0  0
  -23.0827   -8.6879   22.4921 C   0  0  0  0  0  0  0  0  0  0  0  0
  -29.6037  -25.9895   23.4897 C   0  0  0  0  0  0  0  0  0  0  0  0
  -23.4372   -5.3714   21.9392 C   0  0  0  0  0  0  0  0  0  0  0  0
  -24.0672   -4.3580   22.6614 C   0  0  0  0  0  0  0  0  0  0  0  0
  -31.4455  -25.1007   22.2102 C   0  0  0  0  0  0  0  0  0  0  0  0
  -22.3534   -4.5018   24.3583 C   0  0  0  0  0  0  0  0  0  0  0  0
  -23.7956  -10.4261   20.9731 C   0  0  0  0  0  0  0  0  0  0  0  0
  -30.0426  -19.3170   22.6734 C   0  0  0  0  0  0  0  0  0  0  0  0
  -24.0920  -12.9570   20.8528 C   0  0  0  0  0  0  0  0  0  0  0  0
  -24.0822  -22.6436   18.9330 C   0  0  0  0  0  0  0  0  0  0  0  0
  -29.4677  -25.9017   21.0671 C   0  0  0  0  0  0  0  0  0  0  0  0
  -25.3237  -22.6728   19.5966 C   0  0  0  0  0  0  0  0  0  0  0  0
  -30.7529  -25.3435   21.0142 C   0  0  0  0  0  0  0  0  0  0  0  0
  -29.8954  -17.9300   22.6891 C   0  0  0  0  0  0  0  0  0  0  0  0
  -30.0937  -17.1944   21.5207 C   0  0  0  0  0  0  0  0  0  0  0  0
  -22.3472   -8.0935   21.4666 C   0  0  0  0  0  0  0  0  0  0  0  0
  -30.8730  -25.4206   23.4410 C   0  0  0  0  0  0  0  0  0  0  0  0
  -22.2653   -5.9501   22.4265 C   0  0  0  0  0  0  0  0  0  0  0  0
  -23.5253   -3.9232   23.8710 C   0  0  0  0  0  0  0  0  0  0  0  0
  -21.7234   -5.5153   23.6360 C   0  0  0  0  0  0  0  0  0  0  0  0
  -24.5443  -11.6306   20.7186 C   0  0  0  0  0  0  0  0  0  0  0  0
  -25.1724  -13.7260   20.4950 C   0  0  0  0  0  0  0  0  0  0  0  0
  -27.7290  -20.9360   24.0796 C   0  0  0  0  0  0  0  0  0  0  0  0
  -29.8361  -20.1330   23.9075 C   0  0  0  0  0  0  0  0  0  0  0  0
  -22.8100  -13.4499   21.2642 C   0  0  0  0  0  0  0  0  0  0  0  0
  -28.6836  -23.9251   18.7045 C   0  0  0  0  0  0  0  0  0  0  0  0
  -31.1992  -25.3312   17.2156 C   0  0  0  0  0  0  0  0  0  0  0  0
  -34.1472  -27.0289   17.4877 C   0  0  0  0  0  0  0  0  0  0  0  0
  -30.6663  -21.8225   25.6263 C   0  0  0  0  0  0  0  0  0  0  0  0
  -30.6175  -14.8711   20.6993 C   0  0  0  0  0  0  0  0  0  0  0  0
  -23.9810  -22.3853   17.4505 C   0  0  0  0  0  0  0  0  0  0  0  0
  -28.7120  -26.1955   19.8002 C   0  0  0  0  0  0  0  0  0  0  0  0
  -31.4099  -24.9882   19.7063 C   0  0  0  0  0  0  0  0  0  0  0  0
  -25.2950  -22.6001   16.7037 C   0  0  0  0  0  0  0  0  0  0  0  0
  -29.5606  -12.4356   18.3269 C   0  0  0  0  0  0  0  0  0  0  0  0
  -26.4463  -21.9277   17.4447 C   0  0  0  0  0  0  0  0  0  0  0  0
  -28.1241  -12.1182   18.7487 C   0  0  0  0  0  0  0  0  0  0  0  0
  -30.4646  -12.6820   19.5335 C   0  0  0  0  0  0  0  0  0  0  0  0
  -28.5371  -13.3726   20.9034 C   0  0  0  0  0  0  0  0  0  0  0  0
  -26.6284  -22.5294   18.8434 C   0  0  1  0  0  0  0  0  0  0  0  0
  -29.1702  -25.3441   18.6201 C   0  0  1  0  0  0  0  0  0  0  0  0
  -27.5742  -13.1808   19.7204 C   0  0  2  0  0  0  0  0  0  0  0  0
  -29.5248  -17.2321   23.9608 C   0  0  0  0  0  0  0  0  0  0  0  0
  -26.3439  -20.9638   24.6426 C   0  0  0  0  0  0  0  0  0  0  0  0
  -35.9924  -28.0075   16.0967 C   0  0  0  0  0  0  0  0  0  0  0  0
  -32.3187  -22.5335   16.7366 C   0  0  0  0  0  0  0  0  0  0  0  0
  -34.5340  -23.5829   16.2270 C   0  0  0  0  0  0  0  0  0  0  0  0
  -32.5542  -24.0971   14.7991 C   0  0  0  0  0  0  0  0  0  0  0  0
  -33.6169  -29.7599   18.4972 C   0  0  0  0  0  0  0  0  0  0  0  0
  -31.8983  -22.6230   25.9699 C   0  0  0  0  0  0  0  0  0  0  0  0
  -31.5800  -23.9494   26.6520 C   0  0  0  0  0  0  0  0  0  0  0  0
  -30.7854  -24.8951   25.7588 C   0  0  0  0  0  0  0  0  0  1  0  0
  -32.6818  -25.0586   17.1339 C   0  0  1  0  0  0  0  0  0  0  0  0
  -34.6623  -28.2719   16.7849 C   0  0  2  0  0  0  0  0  0  0  0  0
  -33.0093  -23.8228   16.2491 C   0  0  0  0  0  0  0  0  0  0  0  0
  -25.8130  -11.5575   20.3075 N   0  0  0  0  0  0  0  0  0  0  0  0
  -28.5928  -20.0662   24.4930 N   0  0  0  0  0  0  0  0  0  0  0  0
  -26.1672  -12.8477   20.1802 N   0  0  0  0  0  0  0  0  0  0  0  0
  -30.6282  -25.2888   18.4954 N   0  0  0  0  0  0  0  0  0  0  0  0
  -29.8820  -13.7031   20.4068 N   0  0  0  0  0  0  0  0  0  0  0  0
  -25.3589  -15.0610   20.4220 N   0  0  0  0  0  0  0  0  0  0  0  0
  -21.8130  -12.5227   21.5966 N   0  0  0  0  0  0  0  0  0  0  0  0
  -29.9488  -15.7848   21.5133 N   0  0  0  0  0  0  0  0  0  0  0  0
  -27.3082  -23.8044   18.7605 N   0  0  0  0  0  0  0  0  0  0  0  0
  -33.3005  -26.2994   16.6800 N   0  0  0  0  0  0  0  0  0  0  0  0
  -30.7808  -20.8887   24.3543 N   0  3  0  0  0  0  0  0  0  0  0  0
  -34.8516  -29.3795   17.7639 N   0  3  0  0  0  0  0  0  0  0  0  0
  -22.5511  -14.6760   21.3191 O   0  0  0  0  0  0  0  0  0  0  0  0
  -29.4958  -23.0075   18.7165 O   0  0  0  0  0  0  0  0  0  0  0  0
  -30.5722  -25.5798   16.1828 O   0  0  0  0  0  0  0  0  0  0  0  0
  -34.4671  -26.7325   18.6367 O   0  0  0  0  0  0  0  0  0  0  0  0
  -29.6156  -21.8097   26.2472 O   0  0  0  0  0  0  0  0  0  0  0  0
  -31.7460  -15.0600   20.2379 O   0  0  0  0  0  0  0  0  0  0  0  0
  -21.6405   -6.9555   21.7079 O   0  0  0  0  0  0  0  0  0  0  0  0
  -31.5569  -25.1812   24.5929 O   0  0  0  0  0  0  0  0  0  1  0  0
  -24.1296   -2.9490   24.5637 F   0  0  0  0  0  0  0  0  0  0  0  0
  -20.5971   -6.0666   24.1087 F   0  0  0  0  0  0  0  0  0  0  0  0
  1  2  1  0  0  0  0
  1  7  2  0  0  0  0
  2  8  2  0  0  0  0
  3  6  2  0  0  0  0
  3 10  1  0  0  0  0
  4 11  2  0  0  0  0
  4 18  1  0  0  0  0
  5 12  1  0  0  0  0
  5 18  2  0  0  0  0
  6 19  1  0  0  0  0
  7 21  1  0  0  0  0
  8 23  1  0  0  0  0
  9 13  2  0  0  0  0
  9 22  1  0  0  0  0
 10 26  2  0  0  0  0
 11 27  1  0  0  0  0
 12 27  2  0  0  0  0
 13 28  1  0  0  0  0
 14 15  2  0  0  0  0
 14 29  1  0  0  0  0
 15 30  1  0  0  0  0
 16 24  1  0  0  0  0
 16 28  2  0  0  0  0
 17 30  2  0  0  0  0
 17 31  1  0  0  0  0
 18 32  1  0  0  0  0
 19 25  2  0  0  0  0
 19 35  1  0  0  0  0
 20 32  1  0  0  0  0
 20 33  2  0  0  0  0
 20 36  1  0  0  0  0
 21 23  2  0  0  0  0
 21 42  1  0  0  0  0
 22 24  2  0  0  0  0
 22 43  1  0  0  0  0
 23 51  1  0  0  0  0
 24 44  1  0  0  0  0
 25 26  1  0  0  0  0
 25 54  1  0  0  0  0
 26 74  1  0  0  0  0
 27 85  1  0  0  0  0
 28 86  1  0  0  0  0
 29 31  2  0  0  0  0
 29 85  1  0  0  0  0
 30 87  1  0  0  0  0
 31 88  1  0  0  0  0
 32 67  2  0  0  0  0
 33 69  1  0  0  0  0
 33 72  1  0  0  0  0
 34 55  1  0  0  0  0
 34 68  2  0  0  0  0
 35 68  1  0  0  0  0
 35 77  2  0  0  0  0
 36 73  1  0  0  0  0
 36 79  2  0  0  0  0
 37 52  1  0  0  0  0
 37 75  1  0  0  0  0
 37 80  2  0  0  0  0
 38 64  1  0  0  0  0
 38 70  1  0  0  0  0
 38 81  2  0  0  0  0
 39 65  1  0  0  0  0
 39 76  1  0  0  0  0
 39 82  2  0  0  0  0
 40 61  1  0  0  0  0
 40 77  1  0  0  0  0
 40 83  2  0  0  0  0
 41 71  1  0  0  0  0
 41 74  1  0  0  0  0
 41 84  2  0  0  0  0
 42 45  1  0  0  0  0
 43 52  1  0  0  0  0
 44 70  1  0  0  0  0
 45 47  1  0  0  0  0
 46 48  1  0  0  0  0
 46 49  1  0  0  0  0
 47 51  1  0  0  0  0
 48 53  1  0  0  0  0
 49 71  1  0  0  0  0
 50 53  1  0  0  0  0
 50 71  1  0  0  0  0
 51 75  1  0  0  0  0
 52 70  1  0  0  0  0
 53 69  1  0  0  0  0
 56 65  1  0  0  0  0
 57 66  1  0  0  0  0
 58 66  1  0  0  0  0
 59 66  1  0  0  0  0
 60 78  1  0  0  0  0
 61 62  1  0  0  0  0
 62 63  1  0  0  0  0
 63 86  1  0  0  0  0
 64 66  1  0  0  0  0
 64 76  1  0  0  0  0
 65 78  1  0  0  0  0
 67 69  1  0  0  0  0
M  CHG  2  77   1  78   1
M  ISO  4  41 100  63 101  74 100  86 101
M  END
> <Batch ID>
0056

> <Smiles>
C=CN=C(NC(=O)CC[101CH2:1][101O:1]c1ccc2c(c1)CN(C(=O)C(NC(=O)C(C)NC)C(C)(C)C)C(C(=O)NC1CCCc3ccccc31)C2)c1cccc([100NH:0][100C:0](=O)N2CCCC(n3nc(-c4ccc(Oc5ccc(F)cc5F)cc4)c(C(N)=O)c3N)C2)c1C

> <Shape>
0.237

> <Color>
0.208

> <Negative vol penalty>
0.000

$$$$

  -OEChem-04042322523D

 92101  0     1  0  0  0  0  0999 V2000
  -14.5487  -24.4573   30.4943 C   0  0  0  0  0  0  0  0  0  0  0  0
  -15.7848  -23.8467   30.3084 C   0  0  0  0  0  0  0  0  0  0  0  0
  -22.6141  -10.3958   20.2204 C   0  0  0  0  0  0  0  0  0  0  0  0
  -24.2583   -9.5582   21.7799 C   0  0  0  0  0  0  0  0  0  0  0  0
  -13.9178  -25.0914   29.4248 C   0  0  0  0  0  0  0  0  0  0  0  0
  -16.3903  -23.8689   29.0525 C   0  0  0  0  0  0  0  0  0  0  0  0
  -22.3874  -24.2225   27.8626 C   0  0  0  0  0  0  0  0  0  0  0  0
  -30.8875  -19.7154   21.8006 C   0  0  0  0  0  0  0  0  0  0  0  0
  -21.8443   -9.2492   20.4161 C   0  0  0  0  0  0  0  0  0  0  0  0
  -23.4885   -8.4115   21.9756 C   0  0  0  0  0  0  0  0  0  0  0  0
  -23.3385  -23.2551   27.5413 C   0  0  0  0  0  0  0  0  0  0  0  0
  -20.7310   -7.5324   23.7203 C   0  0  0  0  0  0  0  0  0  0  0  0
  -31.0006  -19.0615   20.5737 C   0  0  0  0  0  0  0  0  0  0  0  0
  -20.5470   -7.0932   25.0313 C   0  0  0  0  0  0  0  0  0  0  0  0
  -23.0301  -23.7388   25.1982 C   0  0  0  0  0  0  0  0  0  0  0  0
  -21.5967   -4.9897   24.4739 C   0  0  0  0  0  0  0  0  0  0  0  0
  -23.8211  -10.5503   20.9023 C   0  0  0  0  0  0  0  0  0  0  0  0
  -24.2366  -13.0668   20.9481 C   0  0  0  0  0  0  0  0  0  0  0  0
  -14.5203  -25.1298   28.1575 C   0  0  0  0  0  0  0  0  0  0  0  0
  -21.7414  -24.9489   26.8519 C   0  0  0  0  0  0  0  0  0  0  0  0
  -15.7663  -24.5030   27.9647 C   0  0  0  0  0  0  0  0  0  0  0  0
  -22.0730  -24.7166   25.5094 C   0  0  0  0  0  0  0  0  0  0  0  0
  -30.5619  -18.9931   22.9486 C   0  0  0  0  0  0  0  0  0  0  0  0
  -30.3493  -17.6167   22.8696 C   0  0  0  0  0  0  0  0  0  0  0  0
  -30.4624  -16.9628   21.6428 C   0  0  0  0  0  0  0  0  0  0  0  0
  -22.2815   -8.2571   21.2937 C   0  0  0  0  0  0  0  0  0  0  0  0
  -23.6579  -23.0111   26.2088 C   0  0  0  0  0  0  0  0  0  0  0  0
  -21.3478   -6.7003   22.7860 C   0  0  0  0  0  0  0  0  0  0  0  0
  -20.9798   -5.8219   25.4081 C   0  0  0  0  0  0  0  0  0  0  0  0
  -30.7881  -17.6852   20.4948 C   0  0  0  0  0  0  0  0  0  0  0  0
  -21.7807   -5.4290   23.1628 C   0  0  0  0  0  0  0  0  0  0  0  0
  -24.6170  -11.7343   20.7002 C   0  0  0  0  0  0  0  0  0  0  0  0
  -25.3377  -13.8092   20.5973 C   0  0  0  0  0  0  0  0  0  0  0  0
  -27.5079  -19.5823   26.6800 C   0  0  0  0  0  0  0  0  0  0  0  0
  -27.0981  -21.1093   23.7505 C   0  0  0  0  0  0  0  0  0  0  0  0
  -26.2614  -19.3210   26.2687 C   0  0  0  0  0  0  0  0  0  0  0  0
  -25.9330  -20.8276   24.3439 C   0  0  0  0  0  0  0  0  0  0  0  0
  -28.7921  -19.9942   25.9976 C   0  0  0  0  0  0  0  0  0  0  0  0
  -28.0932  -20.0435   23.5677 C   0  0  0  0  0  0  0  0  0  0  0  0
  -22.9987  -13.5871   21.4507 C   0  0  0  0  0  0  0  0  0  0  0  0
  -18.7281  -25.2603   25.8894 C   0  0  0  0  0  0  0  0  0  0  0  0
  -19.9962  -27.5134   23.9304 C   0  0  0  0  0  0  0  0  0  0  0  0
  -22.7376  -28.7184   22.2935 C   0  0  0  0  0  0  0  0  0  0  0  0
  -30.8365  -14.6838   20.6364 C   0  0  0  0  0  0  0  0  0  0  0  0
  -13.7782  -25.7862   27.0204 C   0  0  0  0  0  0  0  0  0  0  0  0
  -20.7372  -26.0077   27.2163 C   0  0  0  0  0  0  0  0  0  0  0  0
  -21.4229  -25.4835   24.3879 C   0  0  0  0  0  0  0  0  0  0  0  0
  -25.6546  -19.4687   24.9152 C   0  0  0  0  0  0  0  0  0  0  0  0
  -14.6601  -26.0893   25.8119 C   0  0  0  0  0  0  0  0  0  0  0  0
  -29.5628  -12.4789   18.1477 C   0  0  0  0  0  0  0  0  0  0  0  0
  -15.5251  -24.8815   25.4659 C   0  0  0  0  0  0  0  0  0  0  0  0
  -28.1313  -12.1983   18.6103 C   0  0  0  0  0  0  0  0  0  0  0  0
  -30.5274  -12.5948   19.3266 C   0  0  0  0  0  0  0  0  0  0  0  0
  -28.6950  -13.2721   20.8276 C   0  0  0  0  0  0  0  0  0  0  0  0
  -16.4665  -24.5273   26.6234 C   0  0  1  0  0  0  0  0  0  0  0  0
  -19.7680  -26.3275   26.0824 C   0  0  1  0  0  0  0  0  0  0  0  0
  -27.6754  -13.2115   19.6785 C   0  0  2  0  0  0  0  0  0  0  0  0
  -30.0017  -16.8460   24.1046 C   0  0  0  0  0  0  0  0  0  0  0  0
  -23.4554  -30.5530   20.7390 C   0  0  0  0  0  0  0  0  0  0  0  0
  -18.6702  -26.0553   21.6012 C   0  0  0  0  0  0  0  0  0  0  0  0
  -20.1637  -27.3271   20.0456 C   0  0  0  0  0  0  0  0  0  0  0  0
  -18.5332  -28.5497   21.4842 C   0  0  0  0  0  0  0  0  0  0  0  0
  -31.0868  -20.6759   26.4528 C   0  0  0  0  0  0  0  0  0  0  0  0
  -24.6637  -29.7945   24.2662 C   0  0  0  0  0  0  0  0  0  0  0  0
  -30.4474  -19.7218   24.2562 C   0  0  0  0  0  0  0  0  0  0  0  0
  -24.8641  -21.8689   24.5069 C   0  0  0  0  0  0  0  0  0  1  0  0
  -20.5834  -27.5130   22.5397 C   0  0  1  0  0  0  0  0  0  0  0  0
  -23.3140  -30.1189   22.1896 C   0  0  2  0  0  0  0  0  0  0  0  0
  -19.4986  -27.3453   21.4385 C   0  0  0  0  0  0  0  0  0  0  0  0
  -25.8623  -11.6329   20.2281 N   0  0  0  0  0  0  0  0  0  0  0  0
  -26.2740  -12.9111   20.1766 N   0  0  0  0  0  0  0  0  0  0  0  0
  -29.0264  -19.9089   24.6684 N   0  0  0  0  0  0  0  0  0  0  0  0
  -20.4428  -26.5040   24.7949 N   0  0  0  0  0  0  0  0  0  0  0  0
  -30.0328  -13.5754   20.2954 N   0  0  0  0  0  0  0  0  0  0  0  0
  -25.5866  -15.1359   20.6106 N   0  0  0  0  0  0  0  0  0  0  0  0
  -22.8507  -13.7378   22.8363 N   0  0  0  0  0  0  0  0  0  0  0  0
  -30.2481  -15.5657   21.5423 N   0  0  0  0  0  0  0  0  0  0  0  0
  -17.5919  -25.4366   26.6558 N   0  0  0  0  0  0  0  0  0  0  0  0
  -21.3653  -28.7394   22.4263 N   0  0  0  0  0  0  0  0  0  0  0  0
  -29.7597  -20.2591   26.8842 N   0  3  0  0  0  0  0  0  0  0  0  0
  -24.6585  -30.1745   22.8300 N   0  3  0  0  0  0  0  0  0  0  0  0
  -28.2565  -19.4765   22.4960 O   0  0  0  0  0  0  0  0  0  0  0  0
  -22.0458  -13.8935   20.6947 O   0  0  0  0  0  0  0  0  0  0  0  0
  -18.9402  -24.3454   25.1022 O   0  0  0  0  0  0  0  0  0  0  0  0
  -19.1770  -28.3819   24.2407 O   0  0  0  0  0  0  0  0  0  0  0  0
  -23.4347  -27.7068   22.2565 O   0  0  0  0  0  0  0  0  0  0  0  0
  -31.9526  -14.8536   20.1390 O   0  0  0  0  0  0  0  0  0  0  0  0
  -21.5305   -7.1382   21.4850 O   0  0  0  0  0  0  0  0  0  0  0  0
  -24.5854  -22.0669   25.8924 O   0  0  0  0  0  0  0  0  0  1  0  0
  -20.8044   -5.4008   26.6675 F   0  0  0  0  0  0  0  0  0  0  0  0
  -30.8975  -17.0685   19.3093 F   0  0  0  0  0  0  0  0  0  0  0  0
  -22.3750   -4.6256   22.2700 F   0  0  0  0  0  0  0  0  0  0  0  0
  1  2  1  0  0  0  0
  1  5  2  0  0  0  0
  2  6  2  0  0  0  0
  3  9  2  0  0  0  0
  3 17  1  0  0  0  0
  4 10  1  0  0  0  0
  4 17  2  0  0  0  0
  5 19  1  0  0  0  0
  6 21  1  0  0  0  0
  7 11  2  0  0  0  0
  7 20  1  0  0  0  0
  8 13  2  0  0  0  0
  8 23  1  0  0  0  0
  9 26  1  0  0  0  0
 10 26  2  0  0  0  0
 11 27  1  0  0  0  0
 12 14  2  0  0  0  0
 12 28  1  0  0  0  0
 13 30  1  0  0  0  0
 14 29  1  0  0  0  0
 15 22  1  0  0  0  0
 15 27  2  0  0  0  0
 16 29  2  0  0  0  0
 16 31  1  0  0  0  0
 17 32  1  0  0  0  0
 18 32  1  0  0  0  0
 18 33  2  0  0  0  0
 18 40  1  0  0  0  0
 19 21  2  0  0  0  0
 19 45  1  0  0  0  0
 20 22  2  0  0  0  0
 20 46  1  0  0  0  0
 21 55  1  0  0  0  0
 22 47  1  0  0  0  0
 23 24  2  0  0  0  0
 23 65  1  0  0  0  0
 24 25  1  0  0  0  0
 24 58  1  0  0  0  0
 25 30  2  0  0  0  0
 25 77  1  0  0  0  0
 26 88  1  0  0  0  0
 27 89  1  0  0  0  0
 28 31  2  0  0  0  0
 28 88  1  0  0  0  0
 29 90  1  0  0  0  0
 30 91  1  0  0  0  0
 31 92  1  0  0  0  0
 32 70  2  0  0  0  0
 33 71  1  0  0  0  0
 33 75  1  0  0  0  0
 34 36  2  0  0  0  0
 34 38  1  0  0  0  0
 35 37  2  0  0  0  0
 35 39  1  0  0  0  0
 36 48  1  0  0  0  0
 37 48  1  0  0  0  0
 37 66  1  0  0  0  0
 38 72  1  0  0  0  0
 38 80  2  0  0  0  0
 39 72  1  0  0  0  0
 39 82  2  0  0  0  0
 40 76  1  0  0  0  0
 40 83  2  0  0  0  0
 41 56  1  0  0  0  0
 41 78  1  0  0  0  0
 41 84  2  0  0  0  0
 42 67  1  0  0  0  0
 42 73  1  0  0  0  0
 42 85  2  0  0  0  0
 43 68  1  0  0  0  0
 43 79  1  0  0  0  0
 43 86  2  0  0  0  0
 44 74  1  0  0  0  0
 44 77  1  0  0  0  0
 44 87  2  0  0  0  0
 45 49  1  0  0  0  0
 46 56  1  0  0  0  0
 47 73  1  0  0  0  0
 49 51  1  0  0  0  0
 50 52  1  0  0  0  0
 50 53  1  0  0  0  0
 51 55  1  0  0  0  0
 52 57  1  0  0  0  0
 53 74  1  0  0  0  0
 54 57  1  0  0  0  0
 54 74  1  0  0  0  0
 55 78  1  0  0  0  0
 56 73  1  0  0  0  0
 57 71  1  0  0  0  0
 59 68  1  0  0  0  0
 60 69  1  0  0  0  0
 61 69  1  0  0  0  0
 62 69  1  0  0  0  0
 63 80  1  0  0  0  0
 64 81  1  0  0  0  0
 65 72  1  0  0  0  0
 66 89  1  0  0  0  0
 67 69  1  0  0  0  0
 67 79  1  0  0  0  0
 68 81  1  0  0  0  0
 70 71  1  0  0  0  0
M  CHG  2  80   1  81   1
M  ISO  4  44 100  66 101  77 100  89 101
M  END
> <Batch ID>
0056

> <Smiles>
CN=C1C=CCC([101CH2:1][101O:1]c2ccc3c(c2)CN(C(=O)C(NC(=O)C(C)NC)C(C)(C)C)C(C(=O)NC2CCCc4ccccc42)C3)=CC(=O)N1Cc1ccc(F)c([100NH:0][100C:0](=O)N2CCCC(n3nc(-c4ccc(Oc5ccc(F)cc5F)cc4)c(C(N)=O)c3N)C2)c1C

> <Shape>
0.274

> <Color>
0.196

> <Negative vol penalty>
0.000

$$$$

  -OEChem-04042322523D

 86 94  0     1  0  0  0  0  0999 V2000
  -29.4253  -24.4539   17.0105 C   0  0  0  0  0  0  0  0  0  0  0  0
  -28.2363  -24.4723   17.7324 C   0  0  0  0  0  0  0  0  0  0  0  0
  -28.5696  -15.8680   20.4224 C   0  0  0  0  0  0  0  0  0  0  0  0
  -27.9714  -15.5911   22.7468 C   0  0  0  0  0  0  0  0  0  0  0  0
  -30.5150  -25.2075   17.4448 C   0  0  0  0  0  0  0  0  0  0  0  0
  -28.1365  -25.2437   18.8898 C   0  0  0  0  0  0  0  0  0  0  0  0
  -23.8080  -27.8627   19.1118 C   0  0  0  0  0  0  0  0  0  0  0  0
  -29.8713  -16.2009   20.7970 C   0  0  0  0  0  0  0  0  0  0  0  0
  -29.2731  -15.9240   23.1214 C   0  0  0  0  0  0  0  0  0  0  0  0
  -22.6603  -27.1654   19.4863 C   0  0  0  0  0  0  0  0  0  0  0  0
  -31.5011  -18.9053   22.0028 C   0  0  0  0  0  0  0  0  0  0  0  0
  -32.0937  -20.0030   21.3787 C   0  0  0  0  0  0  0  0  0  0  0  0
  -22.8704  -28.0350   21.7266 C   0  0  0  0  0  0  0  0  0  0  0  0
  -19.4263  -19.4636   26.7993 C   0  0  0  0  0  0  0  0  0  0  0  0
  -20.6667  -17.8004   25.5615 C   0  0  0  0  0  0  0  0  0  0  0  0
  -19.5375  -19.5856   24.3889 C   0  0  0  0  0  0  0  0  0  0  0  0
  -33.8501  -18.5750   20.5345 C   0  0  0  0  0  0  0  0  0  0  0  0
  -27.6196  -15.5631   21.3973 C   0  0  0  0  0  0  0  0  0  0  0  0
  -25.7730  -13.9349   20.7290 C   0  0  0  0  0  0  0  0  0  0  0  0
  -30.4254  -25.9961   18.6027 C   0  0  0  0  0  0  0  0  0  0  0  0
  -24.5028  -28.6441   20.0462 C   0  0  0  0  0  0  0  0  0  0  0  0
  -29.2264  -26.0076   19.3407 C   0  0  0  0  0  0  0  0  0  0  0  0
  -24.0251  -28.7434   21.3608 C   0  0  0  0  0  0  0  0  0  0  0  0
  -20.2161  -18.3141   26.7775 C   0  0  0  0  0  0  0  0  0  0  0  0
  -19.0869  -20.0993   25.6049 C   0  0  0  0  0  0  0  0  0  0  0  0
  -20.3273  -18.4361   24.3672 C   0  0  0  0  0  0  0  0  0  0  0  0
  -30.2231  -16.2289   22.1465 C   0  0  0  0  0  0  0  0  0  0  0  0
  -22.1930  -27.2491   20.7946 C   0  0  0  0  0  0  0  0  0  0  0  0
  -32.0831  -17.6424   21.8928 C   0  0  0  0  0  0  0  0  0  0  0  0
  -33.2681  -19.8379   20.6445 C   0  0  0  0  0  0  0  0  0  0  0  0
  -33.2576  -17.4773   21.1587 C   0  0  0  0  0  0  0  0  0  0  0  0
  -26.2747  -15.2197   21.0110 C   0  0  0  0  0  0  0  0  0  0  0  0
  -24.4523  -14.1434   20.4148 C   0  0  0  0  0  0  0  0  0  0  0  0
  -26.4411  -12.6665   20.7494 C   0  0  0  0  0  0  0  0  0  0  0  0
  -27.4307  -28.5880   21.2823 C   0  0  0  0  0  0  0  0  0  0  0  0
  -26.4849  -31.3728   22.6507 C   0  0  0  0  0  0  0  0  0  0  0  0
  -19.1978  -23.0749   24.1039 C   0  0  0  0  0  0  0  0  0  0  0  0
  -23.9169  -33.3507   23.7185 C   0  0  0  0  0  0  0  0  0  0  0  0
  -20.5394  -18.4230   21.8569 C   0  0  0  0  0  0  0  0  0  0  0  0
  -31.6451  -26.7569   19.0590 C   0  0  0  0  0  0  0  0  0  0  0  0
  -25.7240  -29.4116   19.6195 C   0  0  0  0  0  0  0  0  0  0  0  0
  -24.7231  -29.5847   22.3968 C   0  0  0  0  0  0  0  0  0  0  0  0
  -31.3369  -27.8410   20.0886 C   0  0  0  0  0  0  0  0  0  0  0  0
  -21.5176  -17.4502   18.5746 C   0  0  0  0  0  0  0  0  0  0  0  0
  -30.4151  -27.2980   21.1759 C   0  0  0  0  0  0  0  0  0  0  0  0
  -22.7995  -16.6458   18.8017 C   0  0  0  0  0  0  0  0  0  0  0  0
  -21.4101  -18.6303   19.5388 C   0  0  0  0  0  0  0  0  0  0  0  0
  -22.8374  -17.4822   21.1863 C   0  0  0  0  0  0  0  0  0  0  0  0
  -29.0713  -26.8512   20.5874 C   0  0  1  0  0  0  0  0  0  0  0  0
  -26.6435  -29.7668   20.7839 C   0  0  1  0  0  0  0  0  0  0  0  0
  -22.9586  -16.2451   20.2815 C   0  0  2  0  0  0  0  0  0  0  0  0
  -20.5788  -17.6344   28.0546 C   0  0  0  0  0  0  0  0  0  0  0  0
  -23.4575  -35.5533   24.8297 C   0  0  0  0  0  0  0  0  0  0  0  0
  -27.3024  -30.1842   25.3393 C   0  0  0  0  0  0  0  0  0  0  0  0
  -25.9729  -31.9849   26.4609 C   0  0  0  0  0  0  0  0  0  0  0  0
  -27.9244  -32.5864   25.0283 C   0  0  0  0  0  0  0  0  0  0  0  0
  -19.6074  -23.1518   26.5759 C   0  0  0  0  0  0  0  0  0  0  0  0
  -22.4086  -34.3495   21.3761 C   0  0  0  0  0  0  0  0  0  0  0  0
  -18.2369  -21.3367   25.6285 C   0  0  0  0  0  0  0  0  0  0  0  0
  -20.0434  -24.3386   24.0134 C   0  0  0  0  0  0  0  0  0  0  0  0
  -20.1840  -24.8501   22.5813 C   0  0  0  0  0  0  0  0  0  0  0  0
  -20.9926  -26.1380   22.5211 C   0  0  0  0  0  0  0  0  0  1  0  0
  -25.7999  -31.7511   23.9417 C   0  0  1  0  0  0  0  0  0  0  0  0
  -23.6251  -34.8251   23.5051 C   0  0  2  0  0  0  0  0  0  0  0  0
  -26.7376  -31.6092   25.1738 C   0  0  0  0  0  0  0  0  0  0  0  0
  -25.3482  -16.1737   20.8867 N   0  0  0  0  0  0  0  0  0  0  0  0
  -24.2511  -15.4880   20.5231 N   0  0  0  0  0  0  0  0  0  0  0  0
  -25.9165  -30.3112   21.9325 N   0  0  0  0  0  0  0  0  0  0  0  0
  -21.5662  -18.1743   20.9217 N   0  0  0  0  0  0  0  0  0  0  0  0
  -23.4550  -13.3059   20.0592 N   0  0  0  0  0  0  0  0  0  0  0  0
  -27.7991  -12.6321   21.0940 N   0  0  0  0  0  0  0  0  0  0  0  0
  -20.7851  -17.9143   23.1319 N   0  0  0  0  0  0  0  0  0  0  0  0
  -28.2297  -27.9981   20.3215 N   0  0  0  0  0  0  0  0  0  0  0  0
  -25.2719  -33.0967   23.7446 N   0  0  0  0  0  0  0  0  0  0  0  0
  -19.0205  -22.5415   25.3851 N   0  0  0  0  0  0  0  0  0  0  0  0
  -22.3744  -34.9963   22.7131 N   0  3  0  0  0  0  0  0  0  0  0  0
  -25.8553  -11.5972   20.4543 O   0  0  0  0  0  0  0  0  0  0  0  0
  -27.3223  -28.2402   22.4524 O   0  0  0  0  0  0  0  0  0  0  0  0
  -27.4831  -32.0009   22.2891 O   0  0  0  0  0  0  0  0  0  0  0  0
  -18.7106  -22.5743   23.0868 O   0  0  0  0  0  0  0  0  0  0  0  0
  -23.0313  -32.5090   23.8525 O   0  0  0  0  0  0  0  0  0  0  0  0
  -19.5054  -19.0179   21.5425 O   0  0  0  0  0  0  0  0  0  0  0  0
  -31.4932  -16.5535   22.5124 O   0  0  0  0  0  0  0  0  0  0  0  0
  -21.0734  -26.5689   21.1631 O   0  0  0  0  0  0  0  0  0  1  0  0
  -33.8362  -20.8918   20.0439 F   0  0  0  0  0  0  0  0  0  0  0  0
  -33.8207  -16.2662   21.0485 F   0  0  0  0  0  0  0  0  0  0  0  0
  1  2  1  0  0  0  0
  1  5  2  0  0  0  0
  2  6  2  0  0  0  0
  3  8  2  0  0  0  0
  3 18  1  0  0  0  0
  4  9  1  0  0  0  0
  4 18  2  0  0  0  0
  5 20  1  0  0  0  0
  6 22  1  0  0  0  0
  7 10  2  0  0  0  0
  7 21  1  0  0  0  0
  8 27  1  0  0  0  0
  9 27  2  0  0  0  0
 10 28  1  0  0  0  0
 11 12  2  0  0  0  0
 11 29  1  0  0  0  0
 12 30  1  0  0  0  0
 13 23  1  0  0  0  0
 13 28  2  0  0  0  0
 14 24  2  0  0  0  0
 14 25  1  0  0  0  0
 15 24  1  0  0  0  0
 15 26  2  0  0  0  0
 16 25  2  0  0  0  0
 16 26  1  0  0  0  0
 17 30  2  0  0  0  0
 17 31  1  0  0  0  0
 18 32  1  0  0  0  0
 19 32  1  0  0  0  0
 19 33  2  0  0  0  0
 19 34  1  0  0  0  0
 20 22  2  0  0  0  0
 20 40  1  0  0  0  0
 21 23  2  0  0  0  0
 21 41  1  0  0  0  0
 22 49  1  0  0  0  0
 23 42  1  0  0  0  0
 24 52  1  0  0  0  0
 25 59  1  0  0  0  0
 26 72  1  0  0  0  0
 27 83  1  0  0  0  0
 28 84  1  0  0  0  0
 29 31  2  0  0  0  0
 29 83  1  0  0  0  0
 30 85  1  0  0  0  0
 31 86  1  0  0  0  0
 32 66  2  0  0  0  0
 33 67  1  0  0  0  0
 33 70  1  0  0  0  0
 34 71  1  0  0  0  0
 34 77  2  0  0  0  0
 35 50  1  0  0  0  0
 35 73  1  0  0  0  0
 35 78  2  0  0  0  0
 36 63  1  0  0  0  0
 36 68  1  0  0  0  0
 36 79  2  0  0  0  0
 37 60  1  0  0  0  0
 37 75  1  0  0  0  0
 37 80  2  0  0  0  0
 38 64  1  0  0  0  0
 38 74  1  0  0  0  0
 38 81  2  0  0  0  0
 39 69  1  0  0  0  0
 39 72  1  0  0  0  0
 39 82  2  0  0  0  0
 40 43  1  0  0  0  0
 41 50  1  0  0  0  0
 42 68  1  0  0  0  0
 43 45  1  0  0  0  0
 44 46  1  0  0  0  0
 44 47  1  0  0  0  0
 45 49  1  0  0  0  0
 46 51  1  0  0  0  0
 47 69  1  0  0  0  0
 48 51  1  0  0  0  0
 48 69  1  0  0  0  0
 49 73  1  0  0  0  0
 50 68  1  0  0  0  0
 51 67  1  0  0  0  0
 53 64  1  0  0  0  0
 54 65  1  0  0  0  0
 55 65  1  0  0  0  0
 56 65  1  0  0  0  0
 57 75  1  0  0  0  0
 58 76  1  0  0  0  0
 59 75  1  0  0  0  0
 60 61  1  0  0  0  0
 61 62  1  0  0  0  0
 62 84  1  0  0  0  0
 63 65  1  0  0  0  0
 63 74  1  0  0  0  0
 64 76  1  0  0  0  0
 66 67  1  0  0  0  0
M  CHG  1  76   1
M  ISO  4  39 100  62 101  72 100  84 101
M  END
> <Batch ID>
0056

> <Smiles>
CNC(C)C(=O)NC(C(=O)N1Cc2cc([101O:1][101CH2:1]CCC(=O)N(C)Cc3cc(C)cc([100NH:0][100C:0](=O)N4CCCC(n5nc(-c6ccc(Oc7ccc(F)cc7F)cc6)c(C(N)=O)c5N)C4)c3)ccc2CC1C(=O)NC1CCCc2ccccc21)C(C)(C)C

> <Shape>
0.249

> <Color>
0.073

> <Negative vol penalty>
0.000

$$$$

  -OEChem-04042322523D

 83 91  0     1  0  0  0  0  0999 V2000
  -32.8500  -10.5844   23.3744 C   0  0  0  0  0  0  0  0  0  0  0  0
  -32.5185  -11.8728   23.7814 C   0  0  0  0  0  0  0  0  0  0  0  0
  -32.0574  -18.7691   21.5279 C   0  0  0  0  0  0  0  0  0  0  0  0
  -23.0002   -9.8942   19.9810 C   0  0  0  0  0  0  0  0  0  0  0  0
  -23.7253   -9.9446   22.2850 C   0  0  0  0  0  0  0  0  0  0  0  0
  -31.9600   -9.5341   23.5954 C   0  0  0  0  0  0  0  0  0  0  0  0
  -31.2963  -12.1118   24.4086 C   0  0  0  0  0  0  0  0  0  0  0  0
  -31.7491  -15.1021   28.4704 C   0  0  0  0  0  0  0  0  0  0  0  0
  -31.6455  -19.3363   22.7338 C   0  0  0  0  0  0  0  0  0  0  0  0
  -31.5326  -17.5433   21.1185 C   0  0  0  0  0  0  0  0  0  0  0  0
  -22.2335   -8.7599   20.2471 C   0  0  0  0  0  0  0  0  0  0  0  0
  -22.9585   -8.8103   22.5512 C   0  0  0  0  0  0  0  0  0  0  0  0
  -31.8908  -16.4700   28.2414 C   0  0  0  0  0  0  0  0  0  0  0  0
  -23.2021   -5.4714   22.0787 C   0  0  0  0  0  0  0  0  0  0  0  0
  -23.7894   -4.4539   22.8306 C   0  0  0  0  0  0  0  0  0  0  0  0
  -29.5496  -16.7880   28.7277 C   0  0  0  0  0  0  0  0  0  0  0  0
  -22.0655   -4.6969   24.5058 C   0  0  0  0  0  0  0  0  0  0  0  0
  -23.7462  -10.4866   20.9999 C   0  0  0  0  0  0  0  0  0  0  0  0
  -24.1321  -13.0021   20.8244 C   0  0  0  0  0  0  0  0  0  0  0  0
  -30.7304   -9.7587   24.2343 C   0  0  0  0  0  0  0  0  0  0  0  0
  -30.5019  -14.5644   28.8198 C   0  0  0  0  0  0  0  0  0  0  0  0
  -30.3884  -11.0638   24.6371 C   0  0  0  0  0  0  0  0  0  0  0  0
  -29.3951  -15.4133   28.9631 C   0  0  0  0  0  0  0  0  0  0  0  0
  -30.1840  -17.4518   23.1210 C   0  0  0  0  0  0  0  0  0  0  0  0
  -30.7088  -18.6777   23.5303 C   0  0  0  0  0  0  0  0  0  0  0  0
  -30.5959  -16.8846   21.9150 C   0  0  0  0  0  0  0  0  0  0  0  0
  -22.2126   -8.2179   21.5322 C   0  0  0  0  0  0  0  0  0  0  0  0
  -30.7904  -17.3128   28.3672 C   0  0  0  0  0  0  0  0  0  0  0  0
  -22.0466   -6.1017   22.5403 C   0  0  0  0  0  0  0  0  0  0  0  0
  -23.2211   -4.0666   24.0442 C   0  0  0  0  0  0  0  0  0  0  0  0
  -21.4783   -5.7144   23.7539 C   0  0  0  0  0  0  0  0  0  0  0  0
  -24.5390  -11.6581   20.7255 C   0  0  0  0  0  0  0  0  0  0  0  0
  -25.2420  -13.7246   20.4602 C   0  0  0  0  0  0  0  0  0  0  0  0
  -22.8642  -13.5488   21.2110 C   0  0  0  0  0  0  0  0  0  0  0  0
  -28.5177  -12.4600   27.5014 C   0  0  0  0  0  0  0  0  0  0  0  0
  -26.8879  -12.8426   30.2798 C   0  0  0  0  0  0  0  0  0  0  0  0
  -31.0564  -20.1026   25.5780 C   0  0  0  0  0  0  0  0  0  0  0  0
  -26.1899  -14.8060   32.9825 C   0  0  0  0  0  0  0  0  0  0  0  0
  -30.7217  -14.6844   20.6945 C   0  0  0  0  0  0  0  0  0  0  0  0
  -29.7807   -8.6002   24.4088 C   0  0  0  0  0  0  0  0  0  0  0  0
  -30.3714  -13.0904   29.0896 C   0  0  0  0  0  0  0  0  0  0  0  0
  -28.0390  -14.8887   29.3558 C   0  0  0  0  0  0  0  0  0  0  0  0
  -28.6667   -8.8722   25.4164 C   0  0  0  0  0  0  0  0  0  0  0  0
  -29.6030  -12.2322   18.3681 C   0  0  0  0  0  0  0  0  0  0  0  0
  -28.0453  -10.2430   25.1682 C   0  0  0  0  0  0  0  0  0  0  0  0
  -28.1523  -11.9748   18.7821 C   0  0  0  0  0  0  0  0  0  0  0  0
  -30.5035  -12.4752   19.5779 C   0  0  0  0  0  0  0  0  0  0  0  0
  -28.5883  -13.2642   20.9115 C   0  0  0  0  0  0  0  0  0  0  0  0
  -29.0827  -11.3587   25.3429 C   0  0  1  0  0  0  0  0  0  0  0  0
  -28.9420  -12.5795   28.9378 C   0  0  1  0  0  0  0  0  0  0  0  0
  -27.6306  -13.0783   19.7233 C   0  0  2  0  0  0  0  0  0  0  0  0
  -29.1790  -16.7442   23.9766 C   0  0  0  0  0  0  0  0  0  0  0  0
  -24.7903  -14.8665   35.0645 C   0  0  0  0  0  0  0  0  0  0  0  0
  -24.4202  -13.4735   28.5998 C   0  0  0  0  0  0  0  0  0  0  0  0
  -23.3538  -14.4321   30.6521 C   0  0  0  0  0  0  0  0  0  0  0  0
  -23.9851  -12.0196   30.5876 C   0  0  0  0  0  0  0  0  0  0  0  0
  -28.5784  -14.9646   34.7228 C   0  0  0  0  0  0  0  0  0  0  0  0
  -30.2399  -20.5205   26.7956 C   0  0  0  0  0  0  0  0  0  0  0  0
  -29.7840  -19.3420   27.6425 C   0  0  0  0  0  0  0  0  0  1  0  0
  -25.7997  -13.7714   30.7617 C   0  0  1  0  0  0  0  0  0  0  0  0
  -26.1386  -14.4947   34.4674 C   0  0  2  0  0  0  0  0  0  0  0  0
  -24.4147  -13.4341   30.1410 C   0  0  0  0  0  0  0  0  0  0  0  0
  -25.8082  -11.5314   20.3294 N   0  0  0  0  0  0  0  0  0  0  0  0
  -26.2085  -12.8051   20.1760 N   0  0  0  0  0  0  0  0  0  0  0  0
  -27.9608  -13.4394   29.6027 N   0  0  0  0  0  0  0  0  0  0  0  0
  -29.9486  -13.5361   20.4214 N   0  0  0  0  0  0  0  0  0  0  0  0
  -25.4758  -15.0502   20.3583 N   0  0  0  0  0  0  0  0  0  0  0  0
  -21.8322  -12.6648   21.5543 N   0  0  0  0  0  0  0  0  0  0  0  0
  -30.3065  -19.2710   24.7505 N   0  0  0  0  0  0  0  0  0  0  0  0
  -30.0776  -15.6396   21.4802 N   0  0  0  0  0  0  0  0  0  0  0  0
  -29.3137  -11.6186   26.7478 N   0  0  0  0  0  0  0  0  0  0  0  0
  -25.8310  -13.7152   32.2192 N   0  0  0  0  0  0  0  0  0  0  0  0
  -27.1984  -15.2513   35.1922 N   0  3  0  0  0  0  0  0  0  0  0  0
  -22.6478  -14.7841   21.2349 O   0  0  0  0  0  0  0  0  0  0  0  0
  -27.5397  -13.0838   27.1064 O   0  0  0  0  0  0  0  0  0  0  0  0
  -26.7929  -11.6330   30.5023 O   0  0  0  0  0  0  0  0  0  0  0  0
  -32.2110  -20.4787   25.4058 O   0  0  0  0  0  0  0  0  0  0  0  0
  -26.5122  -15.9079   32.5437 O   0  0  0  0  0  0  0  0  0  0  0  0
  -31.8604  -14.8232   20.2405 O   0  0  0  0  0  0  0  0  0  0  0  0
  -21.4643   -7.1111   21.7923 O   0  0  0  0  0  0  0  0  0  0  0  0
  -30.9259  -18.6483   28.1435 O   0  0  0  0  0  0  0  0  0  1  0  0
  -23.7844   -3.0885   24.7654 F   0  0  0  0  0  0  0  0  0  0  0  0
  -20.3675   -6.3154   24.2020 F   0  0  0  0  0  0  0  0  0  0  0  0
  1  2  1  0  0  0  0
  1  6  2  0  0  0  0
  2  7  2  0  0  0  0
  3  9  2  0  0  0  0
  3 10  1  0  0  0  0
  4 11  2  0  0  0  0
  4 18  1  0  0  0  0
  5 12  1  0  0  0  0
  5 18  2  0  0  0  0
  6 20  1  0  0  0  0
  7 22  1  0  0  0  0
  8 13  2  0  0  0  0
  8 21  1  0  0  0  0
  9 25  1  0  0  0  0
 10 26  2  0  0  0  0
 11 27  1  0  0  0  0
 12 27  2  0  0  0  0
 13 28  1  0  0  0  0
 14 15  2  0  0  0  0
 14 29  1  0  0  0  0
 15 30  1  0  0  0  0
 16 23  1  0  0  0  0
 16 28  2  0  0  0  0
 17 30  2  0  0  0  0
 17 31  1  0  0  0  0
 18 32  1  0  0  0  0
 19 32  1  0  0  0  0
 19 33  2  0  0  0  0
 19 34  1  0  0  0  0
 20 22  2  0  0  0  0
 20 40  1  0  0  0  0
 21 23  2  0  0  0  0
 21 41  1  0  0  0  0
 22 49  1  0  0  0  0
 23 42  1  0  0  0  0
 24 25  2  0  0  0  0
 24 26  1  0  0  0  0
 24 52  1  0  0  0  0
 25 69  1  0  0  0  0
 26 70  1  0  0  0  0
 27 80  1  0  0  0  0
 28 81  1  0  0  0  0
 29 31  2  0  0  0  0
 29 80  1  0  0  0  0
 30 82  1  0  0  0  0
 31 83  1  0  0  0  0
 32 63  2  0  0  0  0
 33 64  1  0  0  0  0
 33 67  1  0  0  0  0
 34 68  1  0  0  0  0
 34 74  2  0  0  0  0
 35 50  1  0  0  0  0
 35 71  1  0  0  0  0
 35 75  2  0  0  0  0
 36 60  1  0  0  0  0
 36 65  1  0  0  0  0
 36 76  2  0  0  0  0
 37 58  1  0  0  0  0
 37 69  1  0  0  0  0
 37 77  2  0  0  0  0
 38 61  1  0  0  0  0
 38 72  1  0  0  0  0
 38 78  2  0  0  0  0
 39 66  1  0  0  0  0
 39 70  1  0  0  0  0
 39 79  2  0  0  0  0
 40 43  1  0  0  0  0
 41 50  1  0  0  0  0
 42 65  1  0  0  0  0
 43 45  1  0  0  0  0
 44 46  1  0  0  0  0
 44 47  1  0  0  0  0
 45 49  1  0  0  0  0
 46 51  1  0  0  0  0
 47 66  1  0  0  0  0
 48 51  1  0  0  0  0
 48 66  1  0  0  0  0
 49 71  1  0  0  0  0
 50 65  1  0  0  0  0
 51 64  1  0  0  0  0
 53 61  1  0  0  0  0
 54 62  1  0  0  0  0
 55 62  1  0  0  0  0
 56 62  1  0  0  0  0
 57 73  1  0  0  0  0
 58 59  1  0  0  0  0
 59 81  1  0  0  0  0
 60 62  1  0  0  0  0
 60 72  1  0  0  0  0
 61 73  1  0  0  0  0
 63 64  1  0  0  0  0
M  CHG  1  73   1
M  ISO  4  39 100  59 101  70 100  81 101
M  END
> <Batch ID>
0056

> <Smiles>
CNC(C)C(=O)NC(C(=O)N1Cc2cc([101O:1][101CH2:1]CC(=O)Nc3cccc([100NH:0][100C:0](=O)N4CCCC(n5nc(-c6ccc(Oc7ccc(F)cc7F)cc6)c(C(N)=O)c5N)C4)c3C)ccc2CC1C(=O)NC1CCCc2ccccc21)C(C)(C)C

> <Shape>
0.176

> <Color>
0.198

> <Negative vol penalty>
0.000

$$$$

  -OEChem-04042322523D

 82 90  0     1  0  0  0  0  0999 V2000
  -22.9388  -26.8844   19.9023 C   0  0  0  0  0  0  0  0  0  0  0  0
  -23.9349  -26.1889   20.5802 C   0  0  0  0  0  0  0  0  0  0  0  0
  -32.2710  -17.9965   23.2799 C   0  0  0  0  0  0  0  0  0  0  0  0
  -23.1126   -9.7604   20.0630 C   0  0  0  0  0  0  0  0  0  0  0  0
  -23.6866  -10.0785   22.3881 C   0  0  0  0  0  0  0  0  0  0  0  0
  -22.9378  -28.2786   19.9059 C   0  0  0  0  0  0  0  0  0  0  0  0
  -24.9312  -26.8874   21.2613 C   0  0  0  0  0  0  0  0  0  0  0  0
  -25.8435  -24.9783   25.8622 C   0  0  0  0  0  0  0  0  0  0  0  0
  -31.4192  -18.9381   23.8573 C   0  0  0  0  0  0  0  0  0  0  0  0
  -31.7513  -16.9987   22.4553 C   0  0  0  0  0  0  0  0  0  0  0  0
  -22.3706   -8.6287   20.4009 C   0  0  0  0  0  0  0  0  0  0  0  0
  -22.9446   -8.9468   22.7261 C   0  0  0  0  0  0  0  0  0  0  0  0
  -26.6187  -23.8215   25.9293 C   0  0  0  0  0  0  0  0  0  0  0  0
  -23.3349   -5.5900   22.6243 C   0  0  0  0  0  0  0  0  0  0  0  0
  -23.9082   -4.6809   23.5134 C   0  0  0  0  0  0  0  0  0  0  0  0
  -28.5457  -25.1534   26.5054 C   0  0  0  0  0  0  0  0  0  0  0  0
  -22.0732   -5.0236   25.0472 C   0  0  0  0  0  0  0  0  0  0  0  0
  -23.7706  -10.4853   21.0566 C   0  0  0  0  0  0  0  0  0  0  0  0
  -24.0784  -12.9832   20.6398 C   0  0  0  0  0  0  0  0  0  0  0  0
  -23.9291  -28.9945   20.5954 C   0  0  0  0  0  0  0  0  0  0  0  0
  -26.4170  -26.2345   26.1059 C   0  0  0  0  0  0  0  0  0  0  0  0
  -24.9442  -28.2926   21.2730 C   0  0  0  0  0  0  0  0  0  0  0  0
  -27.7750  -26.3245   26.4433 C   0  0  0  0  0  0  0  0  0  0  0  0
  -29.5277  -17.8840   22.7856 C   0  0  0  0  0  0  0  0  0  0  0  0
  -30.0475  -18.8818   23.6101 C   0  0  0  0  0  0  0  0  0  0  0  0
  -30.3796  -16.9424   22.2081 C   0  0  0  0  0  0  0  0  0  0  0  0
  -22.2866   -8.2219   21.7325 C   0  0  0  0  0  0  0  0  0  0  0  0
  -27.9707  -23.9092   26.2481 C   0  0  0  0  0  0  0  0  0  0  0  0
  -22.1308   -6.2160   22.9467 C   0  0  0  0  0  0  0  0  0  0  0  0
  -23.2774   -4.3976   24.7248 C   0  0  0  0  0  0  0  0  0  0  0  0
  -21.4999   -5.9327   24.1581 C   0  0  0  0  0  0  0  0  0  0  0  0
  -24.5377  -11.6542   20.7080 C   0  0  0  0  0  0  0  0  0  0  0  0
  -25.1833  -13.7097   20.2685 C   0  0  0  0  0  0  0  0  0  0  0  0
  -22.7700  -13.5136   20.8898 C   0  0  0  0  0  0  0  0  0  0  0  0
  -26.8291  -28.8821   24.3959 C   0  0  0  0  0  0  0  0  0  0  0  0
  -27.9111  -30.0681   27.2146 C   0  0  0  0  0  0  0  0  0  0  0  0
  -29.5705  -20.8925   25.0467 C   0  0  0  0  0  0  0  0  0  0  0  0
  -29.2704  -29.4560   30.2846 C   0  0  0  0  0  0  0  0  0  0  0  0
  -30.5997  -14.9156   20.7283 C   0  0  0  0  0  0  0  0  0  0  0  0
  -23.9135  -30.5013   20.5313 C   0  0  0  0  0  0  0  0  0  0  0  0
  -25.5611  -27.4704   26.0558 C   0  0  0  0  0  0  0  0  0  0  0  0
  -28.4340  -27.6472   26.7338 C   0  0  0  0  0  0  0  0  0  0  0  0
  -24.7910  -31.1650   21.5895 C   0  0  0  0  0  0  0  0  0  0  0  0
  -29.7189  -12.1920   18.6110 C   0  0  0  0  0  0  0  0  0  0  0  0
  -26.1578  -30.4906   21.6492 C   0  0  0  0  0  0  0  0  0  0  0  0
  -28.2546  -11.9186   18.9622 C   0  0  0  0  0  0  0  0  0  0  0  0
  -30.5311  -12.5958   19.8403 C   0  0  0  0  0  0  0  0  0  0  0  0
  -28.5079  -13.4379   20.9658 C   0  0  0  0  0  0  0  0  0  0  0  0
  -26.0279  -29.0145   22.0440 C   0  0  1  0  0  0  0  0  0  0  0  0
  -26.3653  -28.7449   25.8185 C   0  0  1  0  0  0  0  0  0  0  0  0
  -27.6354  -13.0907   19.7486 C   0  0  2  0  0  0  0  0  0  0  0  0
  -28.0550  -17.8230   22.5209 C   0  0  0  0  0  0  0  0  0  0  0  0
  -30.0776  -30.6290   32.3509 C   0  0  0  0  0  0  0  0  0  0  0  0
  -30.4491  -30.9076   25.7437 C   0  0  0  0  0  0  0  0  0  0  0  0
  -31.5629  -31.1864   27.9686 C   0  0  0  0  0  0  0  0  0  0  0  0
  -29.5868  -32.5906   27.3803 C   0  0  0  0  0  0  0  0  0  0  0  0
  -27.2752  -28.0818   31.9845 C   0  0  0  0  0  0  0  0  0  0  0  0
  -28.3538  -21.6955   25.4678 C   0  0  0  0  0  0  0  0  0  1  0  0
  -29.2545  -30.1386   27.8996 C   0  0  1  0  0  0  0  0  0  0  0  0
  -28.8973  -29.9547   31.6690 C   0  0  2  0  0  0  0  0  0  0  0  0
  -30.2016  -31.1809   27.2407 C   0  0  0  0  0  0  0  0  0  0  0  0
  -25.8334  -11.5401   20.4043 N   0  0  0  0  0  0  0  0  0  0  0  0
  -26.1977  -12.8068   20.1415 N   0  0  0  0  0  0  0  0  0  0  0  0
  -27.5566  -28.8275   26.6659 N   0  0  0  0  0  0  0  0  0  0  0  0
  -29.8865  -13.7141   20.5322 N   0  0  0  0  0  0  0  0  0  0  0  0
  -25.3765  -15.0263   20.0415 N   0  0  0  0  0  0  0  0  0  0  0  0
  -21.7498  -12.6276   21.2620 N   0  0  0  0  0  0  0  0  0  0  0  0
  -29.2020  -19.8464   24.2076 N   0  0  0  0  0  0  0  0  0  0  0  0
  -29.8736  -15.9192   21.3688 N   0  0  0  0  0  0  0  0  0  0  0  0
  -25.8047  -28.8901   23.4685 N   0  0  0  0  0  0  0  0  0  0  0  0
  -28.9807  -30.3881   29.3107 N   0  0  0  0  0  0  0  0  0  0  0  0
  -28.4457  -28.8206   32.5238 N   0  3  0  0  0  0  0  0  0  0  0  0
  -22.5093  -14.7347   20.7701 O   0  0  0  0  0  0  0  0  0  0  0  0
  -28.0274  -28.9754   24.1575 O   0  0  0  0  0  0  0  0  0  0  0  0
  -27.1992  -31.0747   27.1744 O   0  0  0  0  0  0  0  0  0  0  0  0
  -30.6977  -21.1836   25.4330 O   0  0  0  0  0  0  0  0  0  0  0  0
  -29.7723  -28.3516   30.0872 O   0  0  0  0  0  0  0  0  0  0  0  0
  -31.7596  -15.0540   20.3314 O   0  0  0  0  0  0  0  0  0  0  0  0
  -21.5625   -7.1177   22.0627 O   0  0  0  0  0  0  0  0  0  0  0  0
  -28.7298  -22.7816   26.3136 O   0  0  0  0  0  0  0  0  0  1  0  0
  -23.8273   -3.5234   25.5777 F   0  0  0  0  0  0  0  0  0  0  0  0
  -20.3424   -6.5301   24.4728 F   0  0  0  0  0  0  0  0  0  0  0  0
  1  2  1  0  0  0  0
  1  6  2  0  0  0  0
  2  7  2  0  0  0  0
  3  9  2  0  0  0  0
  3 10  1  0  0  0  0
  4 11  2  0  0  0  0
  4 18  1  0  0  0  0
  5 12  1  0  0  0  0
  5 18  2  0  0  0  0
  6 20  1  0  0  0  0
  7 22  1  0  0  0  0
  8 13  2  0  0  0  0
  8 21  1  0  0  0  0
  9 25  1  0  0  0  0
 10 26  2  0  0  0  0
 11 27  1  0  0  0  0
 12 27  2  0  0  0  0
 13 28  1  0  0  0  0
 14 15  2  0  0  0  0
 14 29  1  0  0  0  0
 15 30  1  0  0  0  0
 16 23  1  0  0  0  0
 16 28  2  0  0  0  0
 17 30  2  0  0  0  0
 17 31  1  0  0  0  0
 18 32  1  0  0  0  0
 19 32  1  0  0  0  0
 19 33  2  0  0  0  0
 19 34  1  0  0  0  0
 20 22  2  0  0  0  0
 20 40  1  0  0  0  0
 21 23  2  0  0  0  0
 21 41  1  0  0  0  0
 22 49  1  0  0  0  0
 23 42  1  0  0  0  0
 24 25  2  0  0  0  0
 24 26  1  0  0  0  0
 24 52  1  0  0  0  0
 25 68  1  0  0  0  0
 26 69  1  0  0  0  0
 27 79  1  0  0  0  0
 28 80  1  0  0  0  0
 29 31  2  0  0  0  0
 29 79  1  0  0  0  0
 30 81  1  0  0  0  0
 31 82  1  0  0  0  0
 32 62  2  0  0  0  0
 33 63  1  0  0  0  0
 33 66  1  0  0  0  0
 34 67  1  0  0  0  0
 34 73  2  0  0  0  0
 35 50  1  0  0  0  0
 35 70  1  0  0  0  0
 35 74  2  0  0  0  0
 36 59  1  0  0  0  0
 36 64  1  0  0  0  0
 36 75  2  0  0  0  0
 37 58  1  0  0  0  0
 37 68  1  0  0  0  0
 37 76  2  0  0  0  0
 38 60  1  0  0  0  0
 38 71  1  0  0  0  0
 38 77  2  0  0  0  0
 39 65  1  0  0  0  0
 39 69  1  0  0  0  0
 39 78  2  0  0  0  0
 40 43  1  0  0  0  0
 41 50  1  0  0  0  0
 42 64  1  0  0  0  0
 43 45  1  0  0  0  0
 44 46  1  0  0  0  0
 44 47  1  0  0  0  0
 45 49  1  0  0  0  0
 46 51  1  0  0  0  0
 47 65  1  0  0  0  0
 48 51  1  0  0  0  0
 48 65  1  0  0  0  0
 49 70  1  0  0  0  0
 50 64  1  0  0  0  0
 51 63  1  0  0  0  0
 53 60  1  0  0  0  0
 54 61  1  0  0  0  0
 55 61  1  0  0  0  0
 56 61  1  0  0  0  0
 57 72  1  0  0  0  0
 58 80  1  0  0  0  0
 59 61  1  0  0  0  0
 59 71  1  0  0  0  0
 60 72  1  0  0  0  0
 62 63  1  0  0  0  0
M  CHG  1  72   1
M  ISO  4  39 100  58 101  69 100  80 101
M  END
> <Batch ID>
0056

> <Smiles>
CNC(C)C(=O)NC(C(=O)N1Cc2cc([101O:1][101CH2:1]C(=O)Nc3cccc([100NH:0][100C:0](=O)N4CCCC(n5nc(-c6ccc(Oc7ccc(F)cc7F)cc6)c(C(N)=O)c5N)C4)c3C)ccc2CC1C(=O)NC1CCCc2ccccc21)C(C)(C)C

> <Shape>
0.238

> <Color>
0.203

> <Negative vol penalty>
0.000

$$$$

  -OEChem-04042322523D

 86 94  0     1  0  0  0  0  0999 V2000
  -25.0027  -19.1152   19.2252 C   0  0  0  0  0  0  0  0  0  0  0  0
  -24.4499  -20.3701   19.4603 C   0  0  0  0  0  0  0  0  0  0  0  0
  -24.6439  -14.1965   23.2758 C   0  0  0  0  0  0  0  0  0  0  0  0
  -25.8158  -15.8051   21.9061 C   0  0  0  0  0  0  0  0  0  0  0  0
  -26.3000  -18.8351   19.6521 C   0  0  0  0  0  0  0  0  0  0  0  0
  -25.1939  -21.3452   20.1236 C   0  0  0  0  0  0  0  0  0  0  0  0
  -25.0636  -27.3865   19.1277 C   0  0  0  0  0  0  0  0  0  0  0  0
  -23.5100  -24.4623   22.7579 C   0  0  0  0  0  0  0  0  0  0  0  0
  -25.0426  -13.1735   22.4156 C   0  0  0  0  0  0  0  0  0  0  0  0
  -26.2146  -14.7820   21.0458 C   0  0  0  0  0  0  0  0  0  0  0  0
  -24.4050  -28.4301   19.7764 C   0  0  0  0  0  0  0  0  0  0  0  0
  -27.8423  -12.5442   18.6877 C   0  0  0  0  0  0  0  0  0  0  0  0
  -29.1725  -12.5303   18.2681 C   0  0  0  0  0  0  0  0  0  0  0  0
  -24.0449  -25.4383   23.5986 C   0  0  0  0  0  0  0  0  0  0  0  0
  -26.3915  -28.8702   21.0723 C   0  0  0  0  0  0  0  0  0  0  0  0
  -21.2923  -25.3337   23.1573 C   0  0  0  0  0  0  0  0  0  0  0  0
  -29.8951  -12.3376   20.5655 C   0  0  0  0  0  0  0  0  0  0  0  0
  -25.0304  -15.5123   23.0210 C   0  0  0  0  0  0  0  0  0  0  0  0
  -25.3024  -17.0398   25.0460 C   0  0  0  0  0  0  0  0  0  0  0  0
  -27.0638  -19.8105   20.3124 C   0  0  0  0  0  0  0  0  0  0  0  0
  -26.3899  -27.0693   19.4546 C   0  0  0  0  0  0  0  0  0  0  0  0
  -26.5022  -21.0774   20.5610 C   0  0  0  0  0  0  0  0  0  0  0  0
  -27.0655  -27.8237   20.4244 C   0  0  0  0  0  0  0  0  0  0  0  0
  -22.1336  -24.4100   22.5372 C   0  0  0  0  0  0  0  0  0  0  0  0
  -21.8272  -26.3097   23.9981 C   0  0  0  0  0  0  0  0  0  0  0  0
  -25.8279  -13.4662   21.3006 C   0  0  0  0  0  0  0  0  0  0  0  0
  -25.0680  -29.1703   20.7509 C   0  0  0  0  0  0  0  0  0  0  0  0
  -27.5385  -12.4550   20.0462 C   0  0  0  0  0  0  0  0  0  0  0  0
  -30.1989  -12.4269   19.2070 C   0  0  0  0  0  0  0  0  0  0  0  0
  -28.5649  -12.3516   20.9850 C   0  0  0  0  0  0  0  0  0  0  0  0
  -23.2036  -26.3620   24.2187 C   0  0  0  0  0  0  0  0  0  0  0  0
  -24.6184  -16.5696   23.9090 C   0  0  0  0  0  0  0  0  0  0  0  0
  -24.5027  -18.0424   25.5377 C   0  0  0  0  0  0  0  0  0  0  0  0
  -26.5493  -16.6089   25.6075 C   0  0  0  0  0  0  0  0  0  0  0  0
  -27.8563  -24.5143   20.6482 C   0  0  0  0  0  0  0  0  0  0  0  0
  -30.5298  -26.2485   20.0421 C   0  0  0  0  0  0  0  0  0  0  0  0
  -20.5974  -29.2805   23.2017 C   0  0  0  0  0  0  0  0  0  0  0  0
  -31.9496  -29.3173   19.5803 C   0  0  0  0  0  0  0  0  0  0  0  0
  -20.4321  -21.6257   22.9999 C   0  0  0  0  0  0  0  0  0  0  0  0
  -28.4446  -19.4458   20.7972 C   0  0  0  0  0  0  0  0  0  0  0  0
  -27.0949  -25.9578   18.7267 C   0  0  0  0  0  0  0  0  0  0  0  0
  -28.4962  -27.5366   20.7976 C   0  0  0  0  0  0  0  0  0  0  0  0
  -29.3017  -20.6555   21.1609 C   0  0  0  0  0  0  0  0  0  0  0  0
  -19.9251  -19.4180   25.7468 C   0  0  0  0  0  0  0  0  0  0  0  0
  -28.5058  -21.6356   22.0170 C   0  0  0  0  0  0  0  0  0  0  0  0
  -21.1321  -18.4801   25.6899 C   0  0  0  0  0  0  0  0  0  0  0  0
  -19.4411  -19.8003   24.3498 C   0  0  0  0  0  0  0  0  0  0  0  0
  -21.6875  -19.4228   23.4092 C   0  0  0  0  0  0  0  0  0  0  0  0
  -27.2867  -22.1695   21.2554 C   0  0  1  0  0  0  0  0  0  0  0  0
  -28.2792  -25.3915   19.5039 C   0  0  1  0  0  0  0  0  0  0  0  0
  -22.2464  -19.0539   24.7941 C   0  0  2  0  0  0  0  0  0  0  0  0
  -34.1613  -30.4186   19.1406 C   0  0  0  0  0  0  0  0  0  0  0  0
  -31.3277  -25.8028   22.9532 C   0  0  0  0  0  0  0  0  0  0  0  0
  -32.9868  -27.6620   22.7104 C   0  0  0  0  0  0  0  0  0  0  0  0
  -33.2068  -25.6063   21.3147 C   0  0  0  0  0  0  0  0  0  0  0  0
  -31.0023  -30.4612   17.0204 C   0  0  0  0  0  0  0  0  0  0  0  0
  -21.5620  -23.3660   21.6383 C   0  0  0  0  0  0  0  0  0  0  0  0
  -20.8880  -27.2858   24.6457 C   0  0  0  0  0  0  0  0  0  0  0  0
  -21.0918  -30.7073   23.0437 C   0  0  0  0  0  0  0  0  0  0  0  0
  -22.5981  -30.7811   22.8217 C   0  0  0  0  0  0  0  0  0  0  0  0
  -23.0137  -30.0705   21.5418 C   0  0  0  0  0  0  0  0  0  1  0  0
  -31.3523  -27.2506   20.8157 C   0  0  1  0  0  0  0  0  0  0  0  0
  -32.9014  -29.8373   18.5181 C   0  0  2  0  0  0  0  0  0  0  0  0
  -32.1908  -26.5848   21.9431 C   0  0  0  0  0  0  0  0  0  0  0  0
  -23.4722  -17.2199   23.6912 N   0  0  0  0  0  0  0  0  0  0  0  0
  -23.4299  -18.1089   24.6982 N   0  0  0  0  0  0  0  0  0  0  0  0
  -29.1404  -26.4359   20.0622 N   0  0  0  0  0  0  0  0  0  0  0  0
  -20.5452  -20.3391   23.5520 N   0  0  0  0  0  0  0  0  0  0  0  0
  -24.6195  -18.8646   26.6020 N   0  0  0  0  0  0  0  0  0  0  0  0
  -27.2414  -15.5662   24.9765 N   0  0  0  0  0  0  0  0  0  0  0  0
  -27.6888  -23.1858   20.3067 N   0  0  0  0  0  0  0  0  0  0  0  0
  -21.1928  -28.6499   24.2844 N   0  0  0  0  0  0  0  0  0  0  0  0
  -32.1460  -27.9755   19.8293 N   0  0  0  0  0  0  0  0  0  0  0  0
  -21.5262  -22.0625   22.2630 N   0  0  0  0  0  0  0  0  0  0  0  0
  -32.2430  -30.9015   17.7088 N   0  3  0  0  0  0  0  0  0  0  0  0
  -27.0273  -17.1219   26.6477 O   0  0  0  0  0  0  0  0  0  0  0  0
  -27.6956  -25.0060   21.7591 O   0  0  0  0  0  0  0  0  0  0  0  0
  -31.0995  -25.3374   19.4364 O   0  0  0  0  0  0  0  0  0  0  0  0
  -19.7708  -28.7660   22.4531 O   0  0  0  0  0  0  0  0  0  0  0  0
  -31.1178  -30.0311   20.1364 O   0  0  0  0  0  0  0  0  0  0  0  0
  -19.4324  -22.3350   23.1568 O   0  0  0  0  0  0  0  0  0  0  0  0
  -26.2174  -12.4682   20.4611 O   0  0  0  0  0  0  0  0  0  0  0  0
  -24.4272  -30.1890   21.3861 O   0  0  0  0  0  0  0  0  0  1  0  0
  -31.4761  -12.4119   18.8038 F   0  0  0  0  0  0  0  0  0  0  0  0
  -28.2792  -12.2643   22.2914 F   0  0  0  0  0  0  0  0  0  0  0  0
  -23.9008  -27.5557   25.2523 Cl  0  0  0  0  0  0  0  0  0  0  0  0
  1  2  1  0  0  0  0
  1  5  2  0  0  0  0
  2  6  2  0  0  0  0
  3  9  2  0  0  0  0
  3 18  1  0  0  0  0
  4 10  1  0  0  0  0
  4 18  2  0  0  0  0
  5 20  1  0  0  0  0
  6 22  1  0  0  0  0
  7 11  2  0  0  0  0
  7 21  1  0  0  0  0
  8 14  2  0  0  0  0
  8 24  1  0  0  0  0
  9 26  1  0  0  0  0
 10 26  2  0  0  0  0
 11 27  1  0  0  0  0
 12 13  2  0  0  0  0
 12 28  1  0  0  0  0
 13 29  1  0  0  0  0
 14 31  1  0  0  0  0
 15 23  1  0  0  0  0
 15 27  2  0  0  0  0
 16 24  2  0  0  0  0
 16 25  1  0  0  0  0
 17 29  2  0  0  0  0
 17 30  1  0  0  0  0
 18 32  1  0  0  0  0
 19 32  1  0  0  0  0
 19 33  2  0  0  0  0
 19 34  1  0  0  0  0
 20 22  2  0  0  0  0
 20 40  1  0  0  0  0
 21 23  2  0  0  0  0
 21 41  1  0  0  0  0
 22 49  1  0  0  0  0
 23 42  1  0  0  0  0
 24 57  1  0  0  0  0
 25 31  2  0  0  0  0
 25 58  1  0  0  0  0
 26 82  1  0  0  0  0
 27 83  1  0  0  0  0
 28 30  2  0  0  0  0
 28 82  1  0  0  0  0
 29 84  1  0  0  0  0
 30 85  1  0  0  0  0
 31 86  1  0  0  0  0
 32 65  2  0  0  0  0
 33 66  1  0  0  0  0
 33 69  1  0  0  0  0
 34 70  1  0  0  0  0
 34 76  2  0  0  0  0
 35 50  1  0  0  0  0
 35 71  1  0  0  0  0
 35 77  2  0  0  0  0
 36 62  1  0  0  0  0
 36 67  1  0  0  0  0
 36 78  2  0  0  0  0
 37 59  1  0  0  0  0
 37 72  1  0  0  0  0
 37 79  2  0  0  0  0
 38 63  1  0  0  0  0
 38 73  1  0  0  0  0
 38 80  2  0  0  0  0
 39 68  1  0  0  0  0
 39 74  1  0  0  0  0
 39 81  2  0  0  0  0
 40 43  1  0  0  0  0
 41 50  1  0  0  0  0
 42 67  1  0  0  0  0
 43 45  1  0  0  0  0
 44 46  1  0  0  0  0
 44 47  1  0  0  0  0
 45 49  1  0  0  0  0
 46 51  1  0  0  0  0
 47 68  1  0  0  0  0
 48 51  1  0  0  0  0
 48 68  1  0  0  0  0
 49 71  1  0  0  0  0
 50 67  1  0  0  0  0
 51 66  1  0  0  0  0
 52 63  1  0  0  0  0
 53 64  1  0  0  0  0
 54 64  1  0  0  0  0
 55 64  1  0  0  0  0
 56 75  1  0  0  0  0
 57 74  1  0  0  0  0
 58 72  1  0  0  0  0
 59 60  1  0  0  0  0
 60 61  1  0  0  0  0
 61 83  1  0  0  0  0
 62 64  1  0  0  0  0
 62 73  1  0  0  0  0
 63 75  1  0  0  0  0
 65 66  1  0  0  0  0
M  CHG  1  75   1
M  ISO  4  39 100  61 101  74 100  83 101
M  END
> <Batch ID>
0056

> <Smiles>
CNC(C)C(=O)NC(C(=O)N1Cc2cc([101O:1][101CH2:1]CCC(=O)NCc3cc(C[100NH:0][100C:0](=O)N4CCCC(n5nc(-c6ccc(Oc7ccc(F)cc7F)cc6)c(C(N)=O)c5N)C4)ccc3Cl)ccc2CC1C(=O)NC1CCCc2ccccc21)C(C)(C)C

> <Shape>
0.208

> <Color>
0.060

> <Negative vol penalty>
0.000

$$$$

  -OEChem-04042322523D

 85 93  0     1  0  0  0  0  0999 V2000
  -17.6809  -24.8927   25.4145 C   0  0  0  0  0  0  0  0  0  0  0  0
  -18.4189  -24.0809   24.5590 C   0  0  0  0  0  0  0  0  0  0  0  0
  -26.4074  -13.0571   21.4587 C   0  0  0  0  0  0  0  0  0  0  0  0
  -25.2246  -14.3859   19.8240 C   0  0  0  0  0  0  0  0  0  0  0  0
  -17.5774  -26.2596   25.1599 C   0  0  0  0  0  0  0  0  0  0  0  0
  -19.0529  -24.6355   23.4478 C   0  0  0  0  0  0  0  0  0  0  0  0
  -24.9108  -23.8605   19.3980 C   0  0  0  0  0  0  0  0  0  0  0  0
  -29.3554  -24.1652   20.4892 C   0  0  0  0  0  0  0  0  0  0  0  0
  -25.4340  -12.0634   21.3553 C   0  0  0  0  0  0  0  0  0  0  0  0
  -24.2512  -13.3922   19.7205 C   0  0  0  0  0  0  0  0  0  0  0  0
  -25.2861  -23.7201   18.0626 C   0  0  0  0  0  0  0  0  0  0  0  0
  -24.6485   -9.5580   19.2249 C   0  0  0  0  0  0  0  0  0  0  0  0
  -25.0803   -8.2354   19.1258 C   0  0  0  0  0  0  0  0  0  0  0  0
  -29.6009  -25.2515   19.6494 C   0  0  0  0  0  0  0  0  0  0  0  0
  -25.1034  -26.1072   17.7665 C   0  0  0  0  0  0  0  0  0  0  0  0
  -30.2463  -22.6691   18.8144 C   0  0  0  0  0  0  0  0  0  0  0  0
  -23.8840   -7.6930   21.1536 C   0  0  0  0  0  0  0  0  0  0  0  0
  -26.3027  -14.2184   20.6931 C   0  0  0  0  0  0  0  0  0  0  0  0
  -28.4875  -15.3625   20.0410 C   0  0  0  0  0  0  0  0  0  0  0  0
  -18.2184  -26.8328   24.0503 C   0  0  0  0  0  0  0  0  0  0  0  0
  -24.6179  -25.1263   19.9256 C   0  0  0  0  0  0  0  0  0  0  0  0
  -18.9567  -26.0111   23.1773 C   0  0  0  0  0  0  0  0  0  0  0  0
  -24.7271  -26.2613   19.1095 C   0  0  0  0  0  0  0  0  0  0  0  0
  -30.4917  -23.7554   17.9745 C   0  0  0  0  0  0  0  0  0  0  0  0
  -29.6782  -22.8740   20.0717 C   0  0  0  0  0  0  0  0  0  0  0  0
  -24.3559  -12.2310   20.4862 C   0  0  0  0  0  0  0  0  0  0  0  0
  -25.3797  -24.8432   17.2459 C   0  0  0  0  0  0  0  0  0  0  0  0
  -23.8345   -9.9482   20.2883 C   0  0  0  0  0  0  0  0  0  0  0  0
  -24.6980   -7.3029   20.0901 C   0  0  0  0  0  0  0  0  0  0  0  0
  -23.4522   -9.0156   21.2526 C   0  0  0  0  0  0  0  0  0  0  0  0
  -30.1690  -25.0466   18.3920 C   0  0  0  0  0  0  0  0  0  0  0  0
  -27.3076  -15.2455   20.7999 C   0  0  0  0  0  0  0  0  0  0  0  0
  -29.0944  -16.4967   20.5226 C   0  0  0  0  0  0  0  0  0  0  0  0
  -28.9900  -14.5213   18.9943 C   0  0  0  0  0  0  0  0  0  0  0  0
  -22.0413  -26.4843   21.1989 C   0  0  0  0  0  0  0  0  0  0  0  0
  -24.0941  -28.9286   21.7766 C   0  0  0  0  0  0  0  0  0  0  0  0
  -29.3631  -22.5208   15.1558 C   0  0  0  0  0  0  0  0  0  0  0  0
  -26.9835  -30.5433   20.9453 C   0  0  0  0  0  0  0  0  0  0  0  0
  -28.8728  -21.8003   22.2035 C   0  0  0  0  0  0  0  0  0  0  0  0
  -18.0387  -28.3074   23.7898 C   0  0  0  0  0  0  0  0  0  0  0  0
  -24.2403  -25.2638   21.3751 C   0  0  0  0  0  0  0  0  0  0  0  0
  -24.4429  -27.6447   19.6329 C   0  0  0  0  0  0  0  0  0  0  0  0
  -19.0503  -28.8787   22.7996 C   0  0  0  0  0  0  0  0  0  0  0  0
  -28.0648  -19.3019   24.6082 C   0  0  0  0  0  0  0  0  0  0  0  0
  -19.1735  -27.9719   21.5792 C   0  0  0  0  0  0  0  0  0  0  0  0
  -27.8928  -18.0335   23.7693 C   0  0  0  0  0  0  0  0  0  0  0  0
  -27.5414  -20.5387   23.8801 C   0  0  0  0  0  0  0  0  0  0  0  0
  -27.9102  -19.4709   21.6908 C   0  0  0  0  0  0  0  0  0  0  0  0
  -19.6794  -26.5795   21.9753 C   0  0  1  0  0  0  0  0  0  0  0  0
  -23.4662  -26.5444   21.6720 C   0  0  1  0  0  0  0  0  0  0  0  0
  -28.4822  -18.2083   22.3560 C   0  0  2  0  0  0  0  0  0  0  0  0
  -28.3787  -32.5328   21.5721 C   0  0  0  0  0  0  0  0  0  0  0  0
  -22.1133  -30.7628   20.3545 C   0  0  0  0  0  0  0  0  0  0  0  0
  -23.9344  -32.4710   20.1700 C   0  0  0  0  0  0  0  0  0  0  0  0
  -23.1399  -31.7352   22.4173 C   0  0  0  0  0  0  0  0  0  0  0  0
  -29.2979  -28.8417   21.6573 C   0  0  0  0  0  0  0  0  0  0  0  0
  -31.1045  -23.4931   16.6292 C   0  0  0  0  0  0  0  0  0  0  0  0
  -28.4267  -22.9010   14.0228 C   0  0  0  0  0  0  0  0  0  0  0  0
  -27.4591  -24.0122   14.4142 C   0  0  0  0  0  0  0  0  0  0  0  0
  -26.6152  -23.6246   15.6197 C   0  0  0  0  0  0  0  0  0  1  0  0
  -24.5340  -30.1573   21.0178 C   0  0  1  0  0  0  0  0  0  0  0  0
  -28.1356  -31.0482   21.7952 C   0  0  2  0  0  0  0  0  0  0  0  0
  -23.4340  -31.2554   20.9792 C   0  0  0  0  0  0  0  0  0  0  0  0
  -27.1711  -16.2268   21.6956 N   0  0  0  0  0  0  0  0  0  0  0  0
  -28.2732  -16.9713   21.5027 N   0  0  0  0  0  0  0  0  0  0  0  0
  -24.0714  -27.7266   21.0552 N   0  0  0  0  0  0  0  0  0  0  0  0
  -28.1465  -20.6414   22.5503 N   0  0  0  0  0  0  0  0  0  0  0  0
  -30.2450  -17.1242   20.1991 N   0  0  0  0  0  0  0  0  0  0  0  0
  -28.2406  -13.3965   18.6233 N   0  0  0  0  0  0  0  0  0  0  0  0
  -29.4297  -21.7707   20.9254 N   0  0  0  0  0  0  0  0  0  0  0  0
  -21.1072  -26.6083   22.2096 N   0  0  0  0  0  0  0  0  0  0  0  0
  -30.1353  -23.5985   15.5643 N   0  0  0  0  0  0  0  0  0  0  0  0
  -25.7868  -30.5878   21.6289 N   0  0  0  0  0  0  0  0  0  0  0  0
  -29.3873  -30.3116   21.4612 N   0  3  0  0  0  0  0  0  0  0  0  0
  -30.0795  -14.7509   18.4167 O   0  0  0  0  0  0  0  0  0  0  0  0
  -21.8068  -26.3378   20.0051 O   0  0  0  0  0  0  0  0  0  0  0  0
  -23.7890  -29.0303   22.9675 O   0  0  0  0  0  0  0  0  0  0  0  0
  -29.4154  -21.3928   15.6383 O   0  0  0  0  0  0  0  0  0  0  0  0
  -27.1299  -30.1524   19.7894 O   0  0  0  0  0  0  0  0  0  0  0  0
  -29.0150  -22.7375   22.9930 O   0  0  0  0  0  0  0  0  0  0  0  0
  -23.4060  -11.2614   20.3849 O   0  0  0  0  0  0  0  0  0  0  0  0
  -25.7453  -24.7089   15.9420 O   0  0  0  0  0  0  0  0  0  1  0  0
  -25.1114   -6.0324   19.9940 F   0  0  0  0  0  0  0  0  0  0  0  0
  -22.6694   -9.3842   22.2759 F   0  0  0  0  0  0  0  0  0  0  0  0
  -30.4585  -26.4153   17.3810 Cl  0  0  0  0  0  0  0  0  0  0  0  0
  1  2  1  0  0  0  0
  1  5  2  0  0  0  0
  2  6  2  0  0  0  0
  3  9  2  0  0  0  0
  3 18  1  0  0  0  0
  4 10  1  0  0  0  0
  4 18  2  0  0  0  0
  5 20  1  0  0  0  0
  6 22  1  0  0  0  0
  7 11  2  0  0  0  0
  7 21  1  0  0  0  0
  8 14  2  0  0  0  0
  8 25  1  0  0  0  0
  9 26  1  0  0  0  0
 10 26  2  0  0  0  0
 11 27  1  0  0  0  0
 12 13  2  0  0  0  0
 12 28  1  0  0  0  0
 13 29  1  0  0  0  0
 14 31  1  0  0  0  0
 15 23  1  0  0  0  0
 15 27  2  0  0  0  0
 16 24  1  0  0  0  0
 16 25  2  0  0  0  0
 17 29  2  0  0  0  0
 17 30  1  0  0  0  0
 18 32  1  0  0  0  0
 19 32  1  0  0  0  0
 19 33  2  0  0  0  0
 19 34  1  0  0  0  0
 20 22  2  0  0  0  0
 20 40  1  0  0  0  0
 21 23  2  0  0  0  0
 21 41  1  0  0  0  0
 22 49  1  0  0  0  0
 23 42  1  0  0  0  0
 24 31  2  0  0  0  0
 24 57  1  0  0  0  0
 25 70  1  0  0  0  0
 26 81  1  0  0  0  0
 27 82  1  0  0  0  0
 28 30  2  0  0  0  0
 28 81  1  0  0  0  0
 29 83  1  0  0  0  0
 30 84  1  0  0  0  0
 31 85  1  0  0  0  0
 32 64  2  0  0  0  0
 33 65  1  0  0  0  0
 33 68  1  0  0  0  0
 34 69  1  0  0  0  0
 34 75  2  0  0  0  0
 35 50  1  0  0  0  0
 35 71  1  0  0  0  0
 35 76  2  0  0  0  0
 36 61  1  0  0  0  0
 36 66  1  0  0  0  0
 36 77  2  0  0  0  0
 37 58  1  0  0  0  0
 37 72  1  0  0  0  0
 37 78  2  0  0  0  0
 38 62  1  0  0  0  0
 38 73  1  0  0  0  0
 38 79  2  0  0  0  0
 39 67  1  0  0  0  0
 39 70  1  0  0  0  0
 39 80  2  0  0  0  0
 40 43  1  0  0  0  0
 41 50  1  0  0  0  0
 42 66  1  0  0  0  0
 43 45  1  0  0  0  0
 44 46  1  0  0  0  0
 44 47  1  0  0  0  0
 45 49  1  0  0  0  0
 46 51  1  0  0  0  0
 47 67  1  0  0  0  0
 48 51  1  0  0  0  0
 48 67  1  0  0  0  0
 49 71  1  0  0  0  0
 50 66  1  0  0  0  0
 51 65  1  0  0  0  0
 52 62  1  0  0  0  0
 53 63  1  0  0  0  0
 54 63  1  0  0  0  0
 55 63  1  0  0  0  0
 56 74  1  0  0  0  0
 57 72  1  0  0  0  0
 58 59  1  0  0  0  0
 59 60  1  0  0  0  0
 60 82  1  0  0  0  0
 61 63  1  0  0  0  0
 61 73  1  0  0  0  0
 62 74  1  0  0  0  0
 64 65  1  0  0  0  0
M  CHG  1  74   1
M  ISO  4  39 100  60 101  70 100  82 101
M  END
> <Batch ID>
0056

> <Smiles>
CNC(C)C(=O)NC(C(=O)N1Cc2cc([101O:1][101CH2:1]CCC(=O)NCc3cc([100NH:0][100C:0](=O)N4CCCC(n5nc(-c6ccc(Oc7ccc(F)cc7F)cc6)c(C(N)=O)c5N)C4)ccc3Cl)ccc2CC1C(=O)NC1CCCc2ccccc21)C(C)(C)C

> <Shape>
0.254

> <Color>
0.055

> <Negative vol penalty>
0.000

$$$$

  -OEChem-04042322523D

 85 94  0     1  0  0  0  0  0999 V2000
  -19.4053  -22.6448   27.3603 C   0  0  0  0  0  0  0  0  0  0  0  0
  -20.7805  -22.4910   27.2168 C   0  0  0  0  0  0  0  0  0  0  0  0
  -23.0082   -9.9372   19.9256 C   0  0  0  0  0  0  0  0  0  0  0  0
  -23.8475   -9.8126   22.1877 C   0  0  0  0  0  0  0  0  0  0  0  0
  -18.6863  -23.3855   26.4231 C   0  0  0  0  0  0  0  0  0  0  0  0
  -21.4373  -23.0769   26.1353 C   0  0  0  0  0  0  0  0  0  0  0  0
  -27.0911  -25.4304   26.0975 C   0  0  0  0  0  0  0  0  0  0  0  0
  -29.9825  -19.0204   22.5582 C   0  0  0  0  0  0  0  0  0  0  0  0
  -31.5443  -18.8702   20.7209 C   0  0  0  0  0  0  0  0  0  0  0  0
  -29.7724  -17.6430   22.4922 C   0  0  0  0  0  0  0  0  0  0  0  0
  -31.3342  -17.4928   20.6549 C   0  0  0  0  0  0  0  0  0  0  0  0
  -22.2389   -8.7951   20.1480 C   0  0  0  0  0  0  0  0  0  0  0  0
  -23.0782   -8.6705   22.4102 C   0  0  0  0  0  0  0  0  0  0  0  0
  -28.3180  -24.9172   25.6788 C   0  0  0  0  0  0  0  0  0  0  0  0
  -19.8504   -7.9373   23.0914 C   0  0  0  0  0  0  0  0  0  0  0  0
  -19.1339   -7.8629   24.2858 C   0  0  0  0  0  0  0  0  0  0  0  0
  -28.0431  -26.0145   23.5482 C   0  0  0  0  0  0  0  0  0  0  0  0
  -20.3410   -5.8578   24.8851 C   0  0  0  0  0  0  0  0  0  0  0  0
  -23.8125  -10.4459   20.9454 C   0  0  0  0  0  0  0  0  0  0  0  0
  -24.2262  -12.9631   20.9315 C   0  0  0  0  0  0  0  0  0  0  0  0
  -19.3361  -23.9888   25.3348 C   0  0  0  0  0  0  0  0  0  0  0  0
  -26.3247  -26.2319   25.2392 C   0  0  0  0  0  0  0  0  0  0  0  0
  -20.7261  -23.8252   25.1819 C   0  0  0  0  0  0  0  0  0  0  0  0
  -26.8081  -26.5388   23.9593 C   0  0  0  0  0  0  0  0  0  0  0  0
  -30.8684  -19.6340   21.6725 C   0  0  0  0  0  0  0  0  0  0  0  0
  -30.4483  -16.8792   21.5406 C   0  0  0  0  0  0  0  0  0  0  0  0
  -22.2739   -8.1618   21.3903 C   0  0  0  0  0  0  0  0  0  0  0  0
  -28.7928  -25.2069   24.4030 C   0  0  0  0  0  0  0  0  0  0  0  0
  -20.8122   -6.9718   22.7937 C   0  0  0  0  0  0  0  0  0  0  0  0
  -19.3792   -6.8232   25.1827 C   0  0  0  0  0  0  0  0  0  0  0  0
  -21.0575   -5.9321   23.6906 C   0  0  0  0  0  0  0  0  0  0  0  0
  -24.6078  -11.6253   20.7160 C   0  0  0  0  0  0  0  0  0  0  0  0
  -25.3272  -13.6977   20.5644 C   0  0  0  0  0  0  0  0  0  0  0  0
  -30.4787  -21.9447   22.6393 C   0  0  0  0  0  0  0  0  0  0  0  0
  -22.9873  -13.4944   21.4200 C   0  0  0  0  0  0  0  0  0  0  0  0
  -23.4430  -25.9883   23.9200 C   0  0  0  0  0  0  0  0  0  0  0  0
  -24.0791  -29.0042   22.9090 C   0  0  0  0  0  0  0  0  0  0  0  0
  -26.4156  -31.3734   22.1510 C   0  0  0  0  0  0  0  0  0  0  0  0
  -30.8252  -14.5772   20.5894 C   0  0  0  0  0  0  0  0  0  0  0  0
  -18.5096  -24.7404   24.3215 C   0  0  0  0  0  0  0  0  0  0  0  0
  -25.0158  -26.7997   25.7155 C   0  0  0  0  0  0  0  0  0  0  0  0
  -26.0331  -27.4111   23.0070 C   0  0  0  0  0  0  0  0  0  0  0  0
  -19.3368  -25.6423   23.4092 C   0  0  0  0  0  0  0  0  0  0  0  0
  -29.5564  -12.3124   18.1526 C   0  0  0  0  0  0  0  0  0  0  0  0
  -20.5592  -24.8950   22.8855 C   0  0  0  0  0  0  0  0  0  0  0  0
  -28.1244  -12.0418   18.6200 C   0  0  0  0  0  0  0  0  0  0  0  0
  -30.5194  -12.4571   19.3297 C   0  0  0  0  0  0  0  0  0  0  0  0
  -32.0404  -21.7190   20.8829 C   0  0  0  0  0  0  0  0  0  0  0  0
  -28.6845  -13.1688   20.8117 C   0  0  0  0  0  0  0  0  0  0  0  0
  -21.4782  -24.4662   24.0357 C   0  0  1  0  0  0  0  0  0  0  0  0
  -31.1210  -23.3046   22.4070 C   0  0  1  0  0  0  0  0  0  0  0  0
  -24.0795  -27.1823   24.5734 C   0  0  1  0  0  0  0  0  0  0  0  0
  -31.6557  -23.1892   20.9788 C   0  0  1  0  0  0  0  0  0  0  0  0
  -27.6664  -13.0800   19.6631 C   0  0  2  0  0  0  0  0  0  0  0  0
  -32.8240  -24.1186   20.6890 C   0  0  0  0  0  0  0  0  0  0  0  0
  -26.6325  -33.7293   21.3142 C   0  0  0  0  0  0  0  0  0  0  0  0
  -23.4480  -28.0545   20.0788 C   0  0  0  0  0  0  0  0  0  0  0  0
  -24.5760  -30.1143   19.2109 C   0  0  0  0  0  0  0  0  0  0  0  0
  -22.5454  -30.3169   20.6457 C   0  0  0  0  0  0  0  0  0  0  0  0
  -27.7602  -32.2553   24.6356 C   0  0  0  0  0  0  0  0  0  0  0  0
  -30.1414  -24.4505   22.5961 C   0  0  0  0  0  0  0  0  0  1  0  0
  -24.7355  -29.6072   21.6905 C   0  0  1  0  0  0  0  0  0  0  0  0
  -26.5301  -32.8361   22.5408 C   0  0  2  0  0  0  0  0  0  0  0  0
  -23.8402  -29.5051   20.4235 C   0  0  0  0  0  0  0  0  0  0  0  0
  -25.8538  -11.5136   20.2481 N   0  0  0  0  0  0  0  0  0  0  0  0
  -26.2647  -12.7905   20.1664 N   0  0  0  0  0  0  0  0  0  0  0  0
  -31.0833  -21.0435   21.7396 N   0  0  0  0  0  0  0  0  0  0  0  0
  -24.7560  -27.9372   23.5167 N   0  0  0  0  0  0  0  0  0  0  0  0
  -30.0228  -13.4603   20.2741 N   0  0  0  0  0  0  0  0  0  0  0  0
  -25.5751  -15.0246   20.5462 N   0  0  0  0  0  0  0  0  0  0  0  0
  -21.9607  -12.5994   21.7507 N   0  0  0  0  0  0  0  0  0  0  0  0
  -30.2351  -15.4800   21.4732 N   0  0  0  0  0  0  0  0  0  0  0  0
  -22.2567  -25.5914   24.5070 N   0  0  0  0  0  0  0  0  0  0  0  0
  -25.0999  -30.9716   22.0564 N   0  0  0  0  0  0  0  0  0  0  0  0
  -27.7397  -33.0544   23.3834 N   0  3  0  0  0  0  0  0  0  0  0  0
  -29.6444  -21.7389   23.5091 O   0  0  0  0  0  0  0  0  0  0  0  0
  -22.7905  -14.7271   21.5434 O   0  0  0  0  0  0  0  0  0  0  0  0
  -23.9872  -25.4666   22.9538 O   0  0  0  0  0  0  0  0  0  0  0  0
  -23.0090  -29.4675   23.3111 O   0  0  0  0  0  0  0  0  0  0  0  0
  -27.3951  -30.6598   21.9470 O   0  0  0  0  0  0  0  0  0  0  0  0
  -31.9419  -14.7358   20.0896 O   0  0  0  0  0  0  0  0  0  0  0  0
  -21.5232   -7.0475   21.6078 O   0  0  0  0  0  0  0  0  0  0  0  0
  -29.9897  -24.7067   23.9917 O   0  0  0  0  0  0  0  0  0  1  0  0
  -18.6922   -6.7528   26.3304 F   0  0  0  0  0  0  0  0  0  0  0  0
  -21.9811   -5.0023   23.4107 F   0  0  0  0  0  0  0  0  0  0  0  0
  1  2  1  0  0  0  0
  1  5  2  0  0  0  0
  2  6  2  0  0  0  0
  3 12  2  0  0  0  0
  3 19  1  0  0  0  0
  4 13  1  0  0  0  0
  4 19  2  0  0  0  0
  5 21  1  0  0  0  0
  6 23  1  0  0  0  0
  7 14  2  0  0  0  0
  7 22  1  0  0  0  0
  8 10  2  0  0  0  0
  8 25  1  0  0  0  0
  9 11  1  0  0  0  0
  9 25  2  0  0  0  0
 10 26  1  0  0  0  0
 11 26  2  0  0  0  0
 12 27  1  0  0  0  0
 13 27  2  0  0  0  0
 14 28  1  0  0  0  0
 15 16  2  0  0  0  0
 15 29  1  0  0  0  0
 16 30  1  0  0  0  0
 17 24  1  0  0  0  0
 17 28  2  0  0  0  0
 18 30  2  0  0  0  0
 18 31  1  0  0  0  0
 19 32  1  0  0  0  0
 20 32  1  0  0  0  0
 20 33  2  0  0  0  0
 20 35  1  0  0  0  0
 21 23  2  0  0  0  0
 21 40  1  0  0  0  0
 22 24  2  0  0  0  0
 22 41  1  0  0  0  0
 23 50  1  0  0  0  0
 24 42  1  0  0  0  0
 25 67  1  0  0  0  0
 26 72  1  0  0  0  0
 27 82  1  0  0  0  0
 28 83  1  0  0  0  0
 29 31  2  0  0  0  0
 29 82  1  0  0  0  0
 30 84  1  0  0  0  0
 31 85  1  0  0  0  0
 32 65  2  0  0  0  0
 33 66  1  0  0  0  0
 33 70  1  0  0  0  0
 34 51  1  0  0  0  0
 34 67  1  0  0  0  0
 34 76  2  0  0  0  0
 35 71  1  0  0  0  0
 35 77  2  0  0  0  0
 36 52  1  0  0  0  0
 36 73  1  0  0  0  0
 36 78  2  0  0  0  0
 37 62  1  0  0  0  0
 37 68  1  0  0  0  0
 37 79  2  0  0  0  0
 38 63  1  0  0  0  0
 38 74  1  0  0  0  0
 38 80  2  0  0  0  0
 39 69  1  0  0  0  0
 39 72  1  0  0  0  0
 39 81  2  0  0  0  0
 40 43  1  0  0  0  0
 41 52  1  0  0  0  0
 42 68  1  0  0  0  0
 43 45  1  0  0  0  0
 44 46  1  0  0  0  0
 44 47  1  0  0  0  0
 45 50  1  0  0  0  0
 46 54  1  0  0  0  0
 47 69  1  0  0  0  0
 48 53  1  0  0  0  0
 48 67  1  0  0  0  0
 49 54  1  0  0  0  0
 49 69  1  0  0  0  0
 50 73  1  0  0  0  0
 51 53  1  0  0  0  0
 51 61  1  0  0  0  0
 52 68  1  0  0  0  0
 53 55  1  0  0  0  0
 54 66  1  0  0  0  0
 56 63  1  0  0  0  0
 57 64  1  0  0  0  0
 58 64  1  0  0  0  0
 59 64  1  0  0  0  0
 60 75  1  0  0  0  0
 61 83  1  0  0  0  0
 62 64  1  0  0  0  0
 62 74  1  0  0  0  0
 63 75  1  0  0  0  0
 65 66  1  0  0  0  0
M  CHG  1  75   1
M  ISO  4  39 100  61 101  72 100  83 101
M  END
> <Batch ID>
0056

> <Smiles>
CNC(C)C(=O)NC(C(=O)N1Cc2cc([101O:1][101CH2:1]C3C(=O)N(c4ccc([100NH:0][100C:0](=O)N5CCCC(n6nc(-c7ccc(Oc8ccc(F)cc8F)cc7)c(C(N)=O)c6N)C5)cc4)CC3C)ccc2CC1C(=O)NC1CCCc2ccccc21)C(C)(C)C

> <Shape>
0.268

> <Color>
0.202

> <Negative vol penalty>
0.000

$$$$

  -OEChem-04042322523D

 87 95  0     1  0  0  0  0  0999 V2000
  -31.6095  -34.8560   24.3354 C   0  0  0  0  0  0  0  0  0  0  0  0
  -31.0515  -33.9359   23.4537 C   0  0  0  0  0  0  0  0  0  0  0  0
  -24.5597   -9.1244   21.6144 C   0  0  0  0  0  0  0  0  0  0  0  0
  -23.8565  -10.8745   23.1243 C   0  0  0  0  0  0  0  0  0  0  0  0
  -31.1100  -34.9685   25.6322 C   0  0  0  0  0  0  0  0  0  0  0  0
  -29.9942  -33.1269   23.8687 C   0  0  0  0  0  0  0  0  0  0  0  0
  -25.2914  -31.1799   20.4631 C   0  0  0  0  0  0  0  0  0  0  0  0
  -26.5456  -19.3035   19.0558 C   0  0  0  0  0  0  0  0  0  0  0  0
  -26.3097  -20.6780   19.0296 C   0  0  0  0  0  0  0  0  0  0  0  0
  -24.0693   -8.1640   22.4992 C   0  0  0  0  0  0  0  0  0  0  0  0
  -23.3661   -9.9142   24.0091 C   0  0  0  0  0  0  0  0  0  0  0  0
  -25.0464  -29.9769   19.8024 C   0  0  0  0  0  0  0  0  0  0  0  0
  -22.6784   -5.2645   24.1943 C   0  0  0  0  0  0  0  0  0  0  0  0
  -21.9289   -4.2153   23.6624 C   0  0  0  0  0  0  0  0  0  0  0  0
  -23.7602  -29.2076   21.6927 C   0  0  0  0  0  0  0  0  0  0  0  0
  -28.7945  -19.7044   19.8427 C   0  0  0  0  0  0  0  0  0  0  0  0
  -20.3187   -5.7998   22.8058 C   0  0  0  0  0  0  0  0  0  0  0  0
  -24.4534  -10.4796   21.9270 C   0  0  0  0  0  0  0  0  0  0  0  0
  -24.2611  -12.0972   19.9638 C   0  0  0  0  0  0  0  0  0  0  0  0
  -30.0398  -34.1672   26.0603 C   0  0  0  0  0  0  0  0  0  0  0  0
  -24.7808  -31.4019   21.7502 C   0  0  0  0  0  0  0  0  0  0  0  0
  -29.4809  -33.2278   25.1729 C   0  0  0  0  0  0  0  0  0  0  0  0
  -23.9979  -30.4153   22.3665 C   0  0  0  0  0  0  0  0  0  0  0  0
  -28.5586  -21.0789   19.8165 C   0  0  0  0  0  0  0  0  0  0  0  0
  -27.7880  -18.8166   19.4624 C   0  0  0  0  0  0  0  0  0  0  0  0
  -27.3162  -21.5657   19.4099 C   0  0  0  0  0  0  0  0  0  0  0  0
  -23.4725   -8.5589   23.6965 C   0  0  0  0  0  0  0  0  0  0  0  0
  -24.2831  -28.9894   20.4183 C   0  0  0  0  0  0  0  0  0  0  0  0
  -22.2480   -6.5814   24.0320 C   0  0  0  0  0  0  0  0  0  0  0  0
  -20.7491   -4.4829   22.9681 C   0  0  0  0  0  0  0  0  0  0  0  0
  -21.0682   -6.8490   23.3377 C   0  0  0  0  0  0  0  0  0  0  0  0
  -24.9602  -11.4721   21.0137 C   0  0  0  0  0  0  0  0  0  0  0  0
  -25.1778  -12.9517   19.4017 C   0  0  0  0  0  0  0  0  0  0  0  0
  -26.0054  -25.0701   19.1051 C   0  0  0  0  0  0  0  0  0  0  0  0
  -24.9759  -25.8665   18.7857 C   0  0  0  0  0  0  0  0  0  0  0  0
  -22.9043  -11.9213   19.5351 C   0  0  0  0  0  0  0  0  0  0  0  0
  -25.8769  -23.5862   19.0005 C   0  0  0  0  0  0  0  0  0  0  0  0
  -26.0612  -31.9474   24.6079 C   0  0  0  0  0  0  0  0  0  0  0  0
  -22.9672  -32.3852   25.4787 C   0  0  0  0  0  0  0  0  0  0  0  0
  -19.6689  -31.7562   24.8685 C   0  0  0  0  0  0  0  0  0  0  0  0
  -29.2018  -16.7716   19.8691 C   0  0  0  0  0  0  0  0  0  0  0  0
  -29.5650  -34.2916   27.4864 C   0  0  0  0  0  0  0  0  0  0  0  0
  -25.0317  -32.7155   22.4386 C   0  0  0  0  0  0  0  0  0  0  0  0
  -23.4100  -30.6123   23.7391 C   0  0  0  0  0  0  0  0  0  0  0  0
  -28.1968  -33.6600   27.7301 C   0  0  0  0  0  0  0  0  0  0  0  0
  -30.1732  -13.3549   20.1127 C   0  0  0  0  0  0  0  0  0  0  0  0
  -28.1287  -32.2734   27.0982 C   0  0  0  0  0  0  0  0  0  0  0  0
  -28.8460  -12.6119   20.2824 C   0  0  0  0  0  0  0  0  0  0  0  0
  -30.1681  -14.6983   20.8399 C   0  0  0  0  0  0  0  0  0  0  0  0
  -27.7137  -14.8363   20.6786 C   0  0  0  0  0  0  0  0  0  0  0  0
  -28.3167  -32.3500   25.5782 C   0  0  1  0  0  0  0  0  0  0  0  0
  -24.8931  -32.6312   23.9555 C   0  0  1  0  0  0  0  0  0  0  0  0
  -27.6476  -13.5066   19.9097 C   0  0  2  0  0  0  0  0  0  0  0  0
  -17.3749  -32.2182   25.7748 C   0  0  0  0  0  0  0  0  0  0  0  0
  -23.4290  -30.3316   27.6877 C   0  0  0  0  0  0  0  0  0  0  0  0
  -20.9447  -30.1328   27.9263 C   0  0  0  0  0  0  0  0  0  0  0  0
  -22.0684  -32.3144   28.3744 C   0  0  0  0  0  0  0  0  0  0  0  0
  -18.8457  -33.1532   22.3926 C   0  0  0  0  0  0  0  0  0  0  0  0
  -25.0397  -27.3579   18.8621 C   0  0  0  0  0  0  0  0  0  1  0  0
  -21.8645  -31.4914   25.9926 C   0  0  1  0  0  0  0  0  0  0  0  0
  -18.4616  -32.6749   24.8139 C   0  0  2  0  0  0  0  0  0  0  0  0
  -29.6540  -22.0068   20.2311 C   0  0  0  0  0  0  0  0  0  0  0  0
  -22.0892  -31.0628   27.4702 C   0  0  0  0  0  0  0  0  0  0  0  0
  -26.2237  -11.8934   21.1145 N   0  0  0  0  0  0  0  0  0  0  0  0
  -26.3257  -12.7924   20.1208 N   0  0  0  0  0  0  0  0  0  0  0  0
  -23.6887  -31.9111   24.3739 N   0  0  0  0  0  0  0  0  0  0  0  0
  -29.0072  -15.4934   20.4338 N   0  0  0  0  0  0  0  0  0  0  0  0
  -25.1059  -13.8161   18.3673 N   0  0  0  0  0  0  0  0  0  0  0  0
  -22.0998  -11.0031   20.2236 N   0  0  0  0  0  0  0  0  0  0  0  0
  -27.0565  -22.9579   19.3780 N   0  0  0  0  0  0  0  0  0  0  0  0
  -28.0265  -17.4202   19.4915 N   0  0  0  0  0  0  0  0  0  0  0  0
  -27.0977  -32.7987   24.9401 N   0  0  0  0  0  0  0  0  0  0  0  0
  -20.6159  -32.2099   25.7621 N   0  0  0  0  0  0  0  0  0  0  0  0
  -17.8915  -32.6998   23.4372 N   0  3  0  0  0  0  0  0  0  0  0  0
  -22.4245  -12.5475   18.5598 O   0  0  0  0  0  0  0  0  0  0  0  0
  -24.8353  -23.0627   18.6231 O   0  0  0  0  0  0  0  0  0  0  0  0
  -26.0242  -30.7372   24.7974 O   0  0  0  0  0  0  0  0  0  0  0  0
  -23.1760  -33.4675   26.0326 O   0  0  0  0  0  0  0  0  0  0  0  0
  -19.7610  -30.7361   24.1892 O   0  0  0  0  0  0  0  0  0  0  0  0
  -30.3297  -17.2440   19.7056 O   0  0  0  0  0  0  0  0  0  0  0  0
  -22.9937   -7.6221   24.5600 O   0  0  0  0  0  0  0  0  0  0  0  0
  -24.0430  -27.8140   19.7759 O   0  0  0  0  0  0  0  0  0  1  0  0
  -20.0303   -3.4753   22.4560 F   0  0  0  0  0  0  0  0  0  0  0  0
  -20.6503   -8.1122   23.1775 F   0  0  0  0  0  0  0  0  0  0  0  0
  -30.8006  -21.3653   20.6005 F   0  0  0  0  0  0  0  0  0  0  0  0
  -30.0304  -22.8770   19.2494 F   0  0  0  0  0  0  0  0  0  0  0  0
  -29.3058  -22.7824   21.2975 F   0  0  0  0  0  0  0  0  0  0  0  0
  1  2  1  0  0  0  0
  1  5  2  0  0  0  0
  2  6  2  0  0  0  0
  3 10  2  0  0  0  0
  3 18  1  0  0  0  0
  4 11  1  0  0  0  0
  4 18  2  0  0  0  0
  5 20  1  0  0  0  0
  6 22  1  0  0  0  0
  7 12  2  0  0  0  0
  7 21  1  0  0  0  0
  8  9  2  0  0  0  0
  8 25  1  0  0  0  0
  9 26  1  0  0  0  0
 10 27  1  0  0  0  0
 11 27  2  0  0  0  0
 12 28  1  0  0  0  0
 13 14  2  0  0  0  0
 13 29  1  0  0  0  0
 14 30  1  0  0  0  0
 15 23  1  0  0  0  0
 15 28  2  0  0  0  0
 16 24  1  0  0  0  0
 16 25  2  0  0  0  0
 17 30  2  0  0  0  0
 17 31  1  0  0  0  0
 18 32  1  0  0  0  0
 19 32  1  0  0  0  0
 19 33  2  0  0  0  0
 19 36  1  0  0  0  0
 20 22  2  0  0  0  0
 20 42  1  0  0  0  0
 21 23  2  0  0  0  0
 21 43  1  0  0  0  0
 22 51  1  0  0  0  0
 23 44  1  0  0  0  0
 24 26  2  0  0  0  0
 24 62  1  0  0  0  0
 25 71  1  0  0  0  0
 26 70  1  0  0  0  0
 27 81  1  0  0  0  0
 28 82  1  0  0  0  0
 29 31  2  0  0  0  0
 29 81  1  0  0  0  0
 30 83  1  0  0  0  0
 31 84  1  0  0  0  0
 32 64  2  0  0  0  0
 33 65  1  0  0  0  0
 33 68  1  0  0  0  0
 34 35  2  0  0  0  0
 34 37  1  0  0  0  0
 35 59  1  0  0  0  0
 36 69  1  0  0  0  0
 36 75  2  0  0  0  0
 37 70  1  0  0  0  0
 37 76  2  0  0  0  0
 38 52  1  0  0  0  0
 38 72  1  0  0  0  0
 38 77  2  0  0  0  0
 39 60  1  0  0  0  0
 39 66  1  0  0  0  0
 39 78  2  0  0  0  0
 40 61  1  0  0  0  0
 40 73  1  0  0  0  0
 40 79  2  0  0  0  0
 41 67  1  0  0  0  0
 41 71  1  0  0  0  0
 41 80  2  0  0  0  0
 42 45  1  0  0  0  0
 43 52  1  0  0  0  0
 44 66  1  0  0  0  0
 45 47  1  0  0  0  0
 46 48  1  0  0  0  0
 46 49  1  0  0  0  0
 47 51  1  0  0  0  0
 48 53  1  0  0  0  0
 49 67  1  0  0  0  0
 50 53  1  0  0  0  0
 50 67  1  0  0  0  0
 51 72  1  0  0  0  0
 52 66  1  0  0  0  0
 53 65  1  0  0  0  0
 54 61  1  0  0  0  0
 55 63  1  0  0  0  0
 56 63  1  0  0  0  0
 57 63  1  0  0  0  0
 58 74  1  0  0  0  0
 59 82  1  0  0  0  0
 60 63  1  0  0  0  0
 60 73  1  0  0  0  0
 61 74  1  0  0  0  0
 62 85  1  0  0  0  0
 62 86  1  0  0  0  0
 62 87  1  0  0  0  0
 64 65  1  0  0  0  0
M  CHG  1  74   1
M  ISO  4  41 100  59 101  71 100  82 101
M  END
> <Batch ID>
0056

> <Smiles>
CNC(C)C(=O)NC(C(=O)N1Cc2cc([101O:1][101CH2:1]C=CC(=O)Nc3ccc([100NH:0][100C:0](=O)N4CCCC(n5nc(-c6ccc(Oc7ccc(F)cc7F)cc6)c(C(N)=O)c5N)C4)cc3C(F)(F)F)ccc2CC1C(=O)NC1CCCc2ccccc21)C(C)(C)C

> <Shape>
0.294

> <Color>
0.080

> <Negative vol penalty>
0.000

$$$$

  -OEChem-04042322523D

 87 95  0     1  0  0  0  0  0999 V2000
  -34.5964  -29.6858   18.1375 C   0  0  0  0  0  0  0  0  0  0  0  0
  -33.8489  -28.7388   18.8303 C   0  0  0  0  0  0  0  0  0  0  0  0
  -32.1729  -17.7266   22.5151 C   0  0  0  0  0  0  0  0  0  0  0  0
  -23.7219   -9.7763   22.2562 C   0  0  0  0  0  0  0  0  0  0  0  0
  -23.5056  -12.0631   23.0052 C   0  0  0  0  0  0  0  0  0  0  0  0
  -34.4996  -31.0342   18.4787 C   0  0  0  0  0  0  0  0  0  0  0  0
  -33.0049  -29.1396   19.8654 C   0  0  0  0  0  0  0  0  0  0  0  0
  -28.4649  -26.9069   19.6455 C   0  0  0  0  0  0  0  0  0  0  0  0
  -31.2743  -18.7041   22.9423 C   0  0  0  0  0  0  0  0  0  0  0  0
  -31.7159  -16.6321   21.7810 C   0  0  0  0  0  0  0  0  0  0  0  0
  -23.0330   -9.3404   23.3880 C   0  0  0  0  0  0  0  0  0  0  0  0
  -22.8166  -11.6272   24.1370 C   0  0  0  0  0  0  0  0  0  0  0  0
  -28.3804  -25.5902   20.0961 C   0  0  0  0  0  0  0  0  0  0  0  0
  -19.6881  -10.6078   24.9077 C   0  0  0  0  0  0  0  0  0  0  0  0
  -18.5341  -11.3027   25.2697 C   0  0  0  0  0  0  0  0  0  0  0  0
  -27.4832  -26.3723   22.1943 C   0  0  0  0  0  0  0  0  0  0  0  0
  -29.4616  -17.4928   21.9013 C   0  0  0  0  0  0  0  0  0  0  0  0
  -19.5289  -11.8429   27.4041 C   0  0  0  0  0  0  0  0  0  0  0  0
  -23.9583  -11.1377   22.0648 C   0  0  0  0  0  0  0  0  0  0  0  0
  -24.1203  -11.9448   19.6503 C   0  0  0  0  0  0  0  0  0  0  0  0
  -33.6467  -31.4528   19.5121 C   0  0  0  0  0  0  0  0  0  0  0  0
  -28.0688  -27.9686   20.4714 C   0  0  0  0  0  0  0  0  0  0  0  0
  -32.8976  -30.4947   20.2216 C   0  0  0  0  0  0  0  0  0  0  0  0
  -27.5613  -27.7013   21.7509 C   0  0  0  0  0  0  0  0  0  0  0  0
  -29.9187  -18.5872   22.6354 C   0  0  0  0  0  0  0  0  0  0  0  0
  -30.3602  -16.5152   21.4741 C   0  0  0  0  0  0  0  0  0  0  0  0
  -22.5803  -10.2658   24.3284 C   0  0  0  0  0  0  0  0  0  0  0  0
  -27.8922  -25.3229   21.3717 C   0  0  0  0  0  0  0  0  0  0  0  0
  -20.7625  -10.5304   25.7939 C   0  0  0  0  0  0  0  0  0  0  0  0
  -18.4545  -11.9203   26.5178 C   0  0  0  0  0  0  0  0  0  0  0  0
  -20.6829  -11.1480   27.0421 C   0  0  0  0  0  0  0  0  0  0  0  0
  -24.6704  -11.5885   20.8962 C   0  0  0  0  0  0  0  0  0  0  0  0
  -25.2044  -12.2989   18.8849 C   0  0  0  0  0  0  0  0  0  0  0  0
  -28.9773  -22.0327   22.3122 C   0  0  0  0  0  0  0  0  0  0  0  0
  -28.7355  -20.7338   22.0768 C   0  0  0  0  0  0  0  0  0  0  0  0
  -22.7517  -11.9547   19.2230 C   0  0  0  0  0  0  0  0  0  0  0  0
  -29.5337  -30.4830   21.7503 C   0  0  0  0  0  0  0  0  0  0  0  0
  -26.5301  -31.2609   22.6965 C   0  0  0  0  0  0  0  0  0  0  0  0
  -27.3674  -18.5729   24.6923 C   0  0  0  0  0  0  0  0  0  0  0  0
  -23.3639  -30.2216   23.4327 C   0  0  0  0  0  0  0  0  0  0  0  0
  -30.6553  -14.3461   20.2274 C   0  0  0  0  0  0  0  0  0  0  0  0
  -33.6112  -32.9160   19.8762 C   0  0  0  0  0  0  0  0  0  0  0  0
  -28.1411  -29.3815   19.9605 C   0  0  0  0  0  0  0  0  0  0  0  0
  -27.1039  -28.8042   22.6689 C   0  0  0  0  0  0  0  0  0  0  0  0
  -32.4108  -33.3004   20.7374 C   0  0  0  0  0  0  0  0  0  0  0  0
  -29.8816  -11.4048   18.3760 C   0  0  0  0  0  0  0  0  0  0  0  0
  -32.2283  -32.3011   21.8753 C   0  0  0  0  0  0  0  0  0  0  0  0
  -28.4057  -11.1540   18.6940 C   0  0  0  0  0  0  0  0  0  0  0  0
  -30.6390  -11.9449   19.5878 C   0  0  0  0  0  0  0  0  0  0  0  0
  -28.5651  -12.8789   20.5342 C   0  0  0  0  0  0  0  0  0  0  0  0
  -31.9523  -30.8931   21.3341 C   0  0  1  0  0  0  0  0  0  0  0  0
  -28.1916  -30.4190   21.0778 C   0  0  1  0  0  0  0  0  0  0  0  0
  -27.7465  -12.3957   19.3259 C   0  0  2  0  0  0  0  0  0  0  0  0
  -25.8871  -16.5792   24.3634 C   0  0  0  0  0  0  0  0  0  0  0  0
  -25.3896  -18.2050   26.2081 C   0  0  0  0  0  0  0  0  0  0  0  0
  -21.1399  -31.0819   24.2143 C   0  0  0  0  0  0  0  0  0  0  0  0
  -27.6173  -31.4820   25.5388 C   0  0  0  0  0  0  0  0  0  0  0  0
  -25.2585  -31.3949   26.3734 C   0  0  0  0  0  0  0  0  0  0  0  0
  -25.9906  -33.2716   24.9021 C   0  0  0  0  0  0  0  0  0  0  0  0
  -22.0189  -29.3386   20.9487 C   0  0  0  0  0  0  0  0  0  0  0  0
  -28.7658  -23.1121   21.3017 C   0  0  0  0  0  0  0  0  0  1  0  0
  -28.9432  -19.6491   23.0995 C   0  0  1  0  0  0  0  0  0  0  0  0
  -25.6816  -30.9667   23.9099 C   0  0  1  0  0  0  0  0  0  0  0  0
  -25.9375  -18.0444   24.7920 C   0  0  0  0  0  0  0  0  0  0  0  0
  -22.0058  -30.7510   23.0088 C   0  0  2  0  0  0  0  0  0  0  0  0
  -26.1473  -31.7579   25.1647 C   0  0  0  0  0  0  0  0  0  0  0  0
  -26.0006  -11.7055   20.9249 N   0  0  0  0  0  0  0  0  0  0  0  0
  -26.2955  -12.1392   19.6875 N   0  0  0  0  0  0  0  0  0  0  0  0
  -27.2002  -30.1694   22.1262 N   0  0  0  0  0  0  0  0  0  0  0  0
  -29.9587  -13.1229   20.1305 N   0  0  0  0  0  0  0  0  0  0  0  0
  -25.3213  -12.7282   17.6104 N   0  0  0  0  0  0  0  0  0  0  0  0
  -21.7638  -11.5614   20.1361 N   0  0  0  0  0  0  0  0  0  0  0  0
  -29.8964  -15.4036   20.7277 N   0  0  0  0  0  0  0  0  0  0  0  0
  -30.5777  -30.7808   20.8954 N   0  0  0  0  0  0  0  0  0  0  0  0
  -27.6534  -19.0925   23.4385 N   0  0  0  0  0  0  0  0  0  0  0  0
  -24.3015  -31.2292   23.5163 N   0  0  0  0  0  0  0  0  0  0  0  0
  -21.2910  -29.7392   22.1803 N   0  3  0  0  0  0  0  0  0  0  0  0
  -22.4163  -12.2865   18.0607 O   0  0  0  0  0  0  0  0  0  0  0  0
  -29.6158  -30.2788   22.9558 O   0  0  0  0  0  0  0  0  0  0  0  0
  -26.5903  -32.4154   22.2661 O   0  0  0  0  0  0  0  0  0  0  0  0
  -28.1600  -18.5294   25.6307 O   0  0  0  0  0  0  0  0  0  0  0  0
  -23.5714  -29.0336   23.6698 O   0  0  0  0  0  0  0  0  0  0  0  0
  -31.8298  -14.4545   19.8657 O   0  0  0  0  0  0  0  0  0  0  0  0
  -21.9078   -9.8408   25.4328 O   0  0  0  0  0  0  0  0  0  0  0  0
  -27.8093  -24.0387   21.8143 O   0  0  0  0  0  0  0  0  0  1  0  0
  -17.3469  -12.5889   26.8647 F   0  0  0  0  0  0  0  0  0  0  0  0
  -21.7123  -11.0781   27.8972 F   0  0  0  0  0  0  0  0  0  0  0  0
  1  2  1  0  0  0  0
  1  6  2  0  0  0  0
  2  7  2  0  0  0  0
  3  9  2  0  0  0  0
  3 10  1  0  0  0  0
  4 11  2  0  0  0  0
  4 19  1  0  0  0  0
  5 12  1  0  0  0  0
  5 19  2  0  0  0  0
  6 21  1  0  0  0  0
  7 23  1  0  0  0  0
  8 13  2  0  0  0  0
  8 22  1  0  0  0  0
  9 25  1  0  0  0  0
 10 26  2  0  0  0  0
 11 27  1  0  0  0  0
 12 27  2  0  0  0  0
 13 28  1  0  0  0  0
 14 15  2  0  0  0  0
 14 29  1  0  0  0  0
 15 30  1  0  0  0  0
 16 24  1  0  0  0  0
 16 28  2  0  0  0  0
 17 25  2  0  0  0  0
 17 26  1  0  0  0  0
 18 30  2  0  0  0  0
 18 31  1  0  0  0  0
 19 32  1  0  0  0  0
 20 32  1  0  0  0  0
 20 33  2  0  0  0  0
 20 36  1  0  0  0  0
 21 23  2  0  0  0  0
 21 42  1  0  0  0  0
 22 24  2  0  0  0  0
 22 43  1  0  0  0  0
 23 51  1  0  0  0  0
 24 44  1  0  0  0  0
 25 62  1  0  0  0  0
 26 73  1  0  0  0  0
 27 84  1  0  0  0  0
 28 85  1  0  0  0  0
 29 31  2  0  0  0  0
 29 84  1  0  0  0  0
 30 86  1  0  0  0  0
 31 87  1  0  0  0  0
 32 67  2  0  0  0  0
 33 68  1  0  0  0  0
 33 71  1  0  0  0  0
 34 35  2  0  0  0  0
 34 61  1  0  0  0  0
 35 62  1  0  0  0  0
 36 72  1  0  0  0  0
 36 78  2  0  0  0  0
 37 52  1  0  0  0  0
 37 74  1  0  0  0  0
 37 79  2  0  0  0  0
 38 63  1  0  0  0  0
 38 69  1  0  0  0  0
 38 80  2  0  0  0  0
 39 64  1  0  0  0  0
 39 75  1  0  0  0  0
 39 81  2  0  0  0  0
 40 65  1  0  0  0  0
 40 76  1  0  0  0  0
 40 82  2  0  0  0  0
 41 70  1  0  0  0  0
 41 73  1  0  0  0  0
 41 83  2  0  0  0  0
 42 45  1  0  0  0  0
 43 52  1  0  0  0  0
 44 69  1  0  0  0  0
 45 47  1  0  0  0  0
 46 48  1  0  0  0  0
 46 49  1  0  0  0  0
 47 51  1  0  0  0  0
 48 53  1  0  0  0  0
 49 70  1  0  0  0  0
 50 53  1  0  0  0  0
 50 70  1  0  0  0  0
 51 74  1  0  0  0  0
 52 69  1  0  0  0  0
 53 68  1  0  0  0  0
 54 64  1  0  0  0  0
 55 64  1  0  0  0  0
 56 65  1  0  0  0  0
 57 66  1  0  0  0  0
 58 66  1  0  0  0  0
 59 66  1  0  0  0  0
 60 77  1  0  0  0  0
 61 85  1  0  0  0  0
 62 75  1  0  0  0  0
 63 66  1  0  0  0  0
 63 76  1  0  0  0  0
 65 77  1  0  0  0  0
 67 68  1  0  0  0  0
M  CHG  1  77   1
M  ISO  4  41 100  61 101  73 100  85 101
M  END
> <Batch ID>
0056

> <Smiles>
CNC(C)C(=O)NC(C(=O)N1Cc2cc([101O:1][101CH2:1]C=CC(NC(=O)C(C)C)c3cccc([100NH:0][100C:0](=O)N4CCCC(n5nc(-c6ccc(Oc7ccc(F)cc7F)cc6)c(C(N)=O)c5N)C4)c3)ccc2CC1C(=O)NC1CCCc2ccccc21)C(C)(C)C

> <Shape>
0.229

> <Color>
0.099

> <Negative vol penalty>
0.000

$$$$

  -OEChem-04042322523D

 85 93  0     1  0  0  0  0  0999 V2000
  -31.4150  -27.6044   28.7009 C   0  0  0  0  0  0  0  0  0  0  0  0
  -31.3744  -26.9242   27.4880 C   0  0  0  0  0  0  0  0  0  0  0  0
  -24.1557   -9.6456   20.0030 C   0  0  0  0  0  0  0  0  0  0  0  0
  -24.7609  -10.0200   22.3118 C   0  0  0  0  0  0  0  0  0  0  0  0
  -30.2513  -28.1684   29.2219 C   0  0  0  0  0  0  0  0  0  0  0  0
  -30.1695  -26.8067   26.7959 C   0  0  0  0  0  0  0  0  0  0  0  0
  -30.6757  -27.7342   21.8432 C   0  0  0  0  0  0  0  0  0  0  0  0
  -27.6331  -20.8278   22.9170 C   0  0  0  0  0  0  0  0  0  0  0  0
  -27.6117  -19.4886   22.5273 C   0  0  0  0  0  0  0  0  0  0  0  0
  -23.8450   -8.3186   20.2996 C   0  0  0  0  0  0  0  0  0  0  0  0
  -24.4502   -8.6930   22.6085 C   0  0  0  0  0  0  0  0  0  0  0  0
  -31.2180  -26.7182   21.0574 C   0  0  0  0  0  0  0  0  0  0  0  0
  -21.6719   -6.8524   23.1688 C   0  0  0  0  0  0  0  0  0  0  0  0
  -20.9226   -6.6054   24.3191 C   0  0  0  0  0  0  0  0  0  0  0  0
  -29.7390  -19.7770   21.4190 C   0  0  0  0  0  0  0  0  0  0  0  0
  -29.0001  -26.0992   20.3380 C   0  0  0  0  0  0  0  0  0  0  0  0
  -22.7214   -5.2549   25.2008 C   0  0  0  0  0  0  0  0  0  0  0  0
  -24.6137  -10.4963   21.0091 C   0  0  0  0  0  0  0  0  0  0  0  0
  -29.7604  -21.1162   21.8086 C   0  0  0  0  0  0  0  0  0  0  0  0
  -24.0680  -12.9749   20.7511 C   0  0  0  0  0  0  0  0  0  0  0  0
  -29.0335  -28.0661   28.5311 C   0  0  0  0  0  0  0  0  0  0  0  0
  -29.2885  -27.9336   21.8910 C   0  0  0  0  0  0  0  0  0  0  0  0
  -28.9881  -27.3687   27.3088 C   0  0  0  0  0  0  0  0  0  0  0  0
  -28.4430  -27.1201   21.1233 C   0  0  0  0  0  0  0  0  0  0  0  0
  -28.7075  -21.6416   22.5575 C   0  0  0  0  0  0  0  0  0  0  0  0
  -28.6646  -18.9632   21.7784 C   0  0  0  0  0  0  0  0  0  0  0  0
  -23.9922   -7.8422   21.6024 C   0  0  0  0  0  0  0  0  0  0  0  0
  -30.3800  -25.8987   20.3069 C   0  0  0  0  0  0  0  0  0  0  0  0
  -22.9459   -6.3006   23.0345 C   0  0  0  0  0  0  0  0  0  0  0  0
  -21.4473   -5.8067   25.3351 C   0  0  0  0  0  0  0  0  0  0  0  0
  -23.4707   -5.5019   24.0505 C   0  0  0  0  0  0  0  0  0  0  0  0
  -24.9354  -11.8671   20.7032 C   0  0  0  0  0  0  0  0  0  0  0  0
  -24.8497  -14.0396   20.3745 C   0  0  0  0  0  0  0  0  0  0  0  0
  -30.9172  -21.9603   21.4129 C   0  0  0  0  0  0  0  0  0  0  0  0
  -22.6799  -13.0361   21.1046 C   0  0  0  0  0  0  0  0  0  0  0  0
  -27.0807  -27.8025   24.1740 C   0  0  0  0  0  0  0  0  0  0  0  0
  -25.1446  -28.9245   21.8256 C   0  0  0  0  0  0  0  0  0  0  0  0
  -24.5285  -29.2434   18.4841 C   0  0  0  0  0  0  0  0  0  0  0  0
  -29.6050  -16.9244   20.6360 C   0  0  0  0  0  0  0  0  0  0  0  0
  -27.7924  -28.6513   29.1570 C   0  0  0  0  0  0  0  0  0  0  0  0
  -28.7213  -29.0510   22.7229 C   0  0  0  0  0  0  0  0  0  0  0  0
  -26.9484  -27.3059   21.1240 C   0  0  0  0  0  0  0  0  0  0  0  0
  -26.6310  -28.8050   28.1783 C   0  0  0  0  0  0  0  0  0  0  0  0
  -29.5017  -14.1690   18.3834 C   0  0  0  0  0  0  0  0  0  0  0  0
  -26.4550  -27.5330   27.3549 C   0  0  0  0  0  0  0  0  0  0  0  0
  -28.2331  -13.4156   18.7900 C   0  0  0  0  0  0  0  0  0  0  0  0
  -30.2257  -14.7555   19.5940 C   0  0  0  0  0  0  0  0  0  0  0  0
  -28.1249  -14.8349   20.8783 C   0  0  0  0  0  0  0  0  0  0  0  0
  -27.7052  -27.2414   26.5162 C   0  0  1  0  0  0  0  0  0  0  0  0
  -27.2580  -28.8345   23.0964 C   0  0  1  0  0  0  0  0  0  0  0  0
  -27.3265  -14.2814   19.6867 C   0  0  2  0  0  0  0  0  0  0  0  0
  -28.7052  -23.0723   22.9880 C   0  0  0  0  0  0  0  0  0  0  0  0
  -22.8482  -30.1776   16.8712 C   0  0  0  0  0  0  0  0  0  0  0  0
  -23.2778  -26.5852   22.4192 C   0  0  0  0  0  0  0  0  0  0  0  0
  -22.1593  -27.0102   20.2200 C   0  0  0  0  0  0  0  0  0  0  0  0
  -22.1209  -28.7616   21.9959 C   0  0  0  0  0  0  0  0  0  0  0  0
  -33.5518  -22.2579   20.0147 C   0  0  0  0  0  0  0  0  0  0  0  0
  -32.1850  -22.7749   17.9777 C   0  0  0  0  0  0  0  0  0  0  0  0
  -26.5215  -31.0765   17.2897 C   0  0  0  0  0  0  0  0  0  0  0  0
  -32.1245  -24.3139   19.9893 C   0  0  0  0  0  0  0  0  0  1  0  0
  -24.2778  -28.2942   20.7624 C   0  0  1  0  0  0  0  0  0  0  0  0
  -24.1313  -30.4432   17.6431 C   0  0  2  0  0  0  0  0  0  0  0  0
  -22.9869  -27.6578   21.3507 C   0  0  0  0  0  0  0  0  0  0  0  0
  -32.2321  -22.8557   19.5089 C   0  0  0  0  0  0  0  0  0  0  0  0
  -26.1733  -12.1974   20.3257 N   0  0  0  0  0  0  0  0  0  0  0  0
  -26.0894  -13.5248   20.1329 N   0  0  0  0  0  0  0  0  0  0  0  0
  -26.4414  -28.4080   21.9582 N   0  0  0  0  0  0  0  0  0  0  0  0
  -29.3058  -15.5669   20.3942 N   0  0  0  0  0  0  0  0  0  0  0  0
  -24.5907  -15.3565   20.2295 N   0  0  0  0  0  0  0  0  0  0  0  0
  -22.0297  -11.8485   21.4668 N   0  0  0  0  0  0  0  0  0  0  0  0
  -28.6415  -17.6033   21.3811 N   0  0  0  0  0  0  0  0  0  0  0  0
  -31.1270  -22.0840   20.0532 N   0  0  0  0  0  0  0  0  0  0  0  0
  -27.7429  -28.0979   25.3503 N   0  0  0  0  0  0  0  0  0  0  0  0
  -24.0322  -29.3326   19.7675 N   0  0  0  0  0  0  0  0  0  0  0  0
  -25.2083  -30.7703   16.6663 N   0  3  0  0  0  0  0  0  0  0  0  0
  -31.6148  -22.4696   22.2860 O   0  0  0  0  0  0  0  0  0  0  0  0
  -22.0310  -14.1094   21.0835 O   0  0  0  0  0  0  0  0  0  0  0  0
  -26.3928  -26.8123   23.9550 O   0  0  0  0  0  0  0  0  0  0  0  0
  -24.6904  -29.8460   22.5082 O   0  0  0  0  0  0  0  0  0  0  0  0
  -25.2076  -28.3178   18.0453 O   0  0  0  0  0  0  0  0  0  0  0  0
  -30.6266  -17.4532   20.1901 O   0  0  0  0  0  0  0  0  0  0  0  0
  -23.6889   -6.5474   21.8922 O   0  0  0  0  0  0  0  0  0  0  0  0
  -30.9065  -24.9059   19.5394 O   0  0  0  0  0  0  0  0  0  1  0  0
  -20.7283   -5.5708   26.4403 F   0  0  0  0  0  0  0  0  0  0  0  0
  -24.6946   -4.9700   23.9277 F   0  0  0  0  0  0  0  0  0  0  0  0
  1  2  1  0  0  0  0
  1  5  2  0  0  0  0
  2  6  2  0  0  0  0
  3 10  2  0  0  0  0
  3 18  1  0  0  0  0
  4 11  1  0  0  0  0
  4 18  2  0  0  0  0
  5 21  1  0  0  0  0
  6 23  1  0  0  0  0
  7 12  2  0  0  0  0
  7 22  1  0  0  0  0
  8  9  2  0  0  0  0
  8 25  1  0  0  0  0
  9 26  1  0  0  0  0
 10 27  1  0  0  0  0
 11 27  2  0  0  0  0
 12 28  1  0  0  0  0
 13 14  2  0  0  0  0
 13 29  1  0  0  0  0
 14 30  1  0  0  0  0
 15 19  1  0  0  0  0
 15 26  2  0  0  0  0
 16 24  1  0  0  0  0
 16 28  2  0  0  0  0
 17 30  2  0  0  0  0
 17 31  1  0  0  0  0
 18 32  1  0  0  0  0
 19 25  2  0  0  0  0
 19 34  1  0  0  0  0
 20 32  1  0  0  0  0
 20 33  2  0  0  0  0
 20 35  1  0  0  0  0
 21 23  2  0  0  0  0
 21 40  1  0  0  0  0
 22 24  2  0  0  0  0
 22 41  1  0  0  0  0
 23 49  1  0  0  0  0
 24 42  1  0  0  0  0
 25 52  1  0  0  0  0
 26 71  1  0  0  0  0
 27 82  1  0  0  0  0
 28 83  1  0  0  0  0
 29 31  2  0  0  0  0
 29 82  1  0  0  0  0
 30 84  1  0  0  0  0
 31 85  1  0  0  0  0
 32 65  2  0  0  0  0
 33 66  1  0  0  0  0
 33 69  1  0  0  0  0
 34 72  1  0  0  0  0
 34 76  2  0  0  0  0
 35 70  1  0  0  0  0
 35 77  2  0  0  0  0
 36 50  1  0  0  0  0
 36 73  1  0  0  0  0
 36 78  2  0  0  0  0
 37 61  1  0  0  0  0
 37 67  1  0  0  0  0
 37 79  2  0  0  0  0
 38 62  1  0  0  0  0
 38 74  1  0  0  0  0
 38 80  2  0  0  0  0
 39 68  1  0  0  0  0
 39 71  1  0  0  0  0
 39 81  2  0  0  0  0
 40 43  1  0  0  0  0
 41 50  1  0  0  0  0
 42 67  1  0  0  0  0
 43 45  1  0  0  0  0
 44 46  1  0  0  0  0
 44 47  1  0  0  0  0
 45 49  1  0  0  0  0
 46 51  1  0  0  0  0
 47 68  1  0  0  0  0
 48 51  1  0  0  0  0
 48 68  1  0  0  0  0
 49 73  1  0  0  0  0
 50 67  1  0  0  0  0
 51 66  1  0  0  0  0
 53 62  1  0  0  0  0
 54 63  1  0  0  0  0
 55 63  1  0  0  0  0
 56 63  1  0  0  0  0
 57 64  1  0  0  0  0
 58 64  1  0  0  0  0
 59 75  1  0  0  0  0
 60 64  1  0  0  0  0
 60 83  1  0  0  0  0
 61 63  1  0  0  0  0
 61 74  1  0  0  0  0
 62 75  1  0  0  0  0
 64 72  1  0  0  0  0
 65 66  1  0  0  0  0
M  CHG  1  75   1
M  ISO  4  39 100  60 101  71 100  83 101
M  END
> <Batch ID>
0056

> <Smiles>
CNC(C)C(=O)NC(C(=O)N1Cc2cc([101O:1][101CH2:1]C(C)(C)NC(=O)c3cc([100NH:0][100C:0](=O)N4CCCC(n5nc(-c6ccc(Oc7ccc(F)cc7F)cc6)c(C(N)=O)c5N)C4)ccc3C)ccc2CC1C(=O)NC1CCCc2ccccc21)C(C)(C)C

> <Shape>
0.244

> <Color>
0.111

> <Negative vol penalty>
0.000

$$$$

  -OEChem-04042322523D

 84 92  0     1  0  0  0  0  0999 V2000
  -17.6077  -29.5071   25.5315 C   0  0  0  0  0  0  0  0  0  0  0  0
  -18.6600  -29.0529   24.7430 C   0  0  0  0  0  0  0  0  0  0  0  0
  -30.8121  -19.2787   18.9033 C   0  0  0  0  0  0  0  0  0  0  0  0
  -23.3409   -9.6202   20.9472 C   0  0  0  0  0  0  0  0  0  0  0  0
  -24.0006  -10.3864   23.1414 C   0  0  0  0  0  0  0  0  0  0  0  0
  -17.6153  -30.8142   26.0165 C   0  0  0  0  0  0  0  0  0  0  0  0
  -19.7201  -29.9060   24.4382 C   0  0  0  0  0  0  0  0  0  0  0  0
  -24.2303  -27.6626   24.9578 C   0  0  0  0  0  0  0  0  0  0  0  0
  -29.9863  -20.2336   19.4964 C   0  0  0  0  0  0  0  0  0  0  0  0
  -30.7498  -17.9484   19.3181 C   0  0  0  0  0  0  0  0  0  0  0  0
  -22.6790   -8.5367   21.5245 C   0  0  0  0  0  0  0  0  0  0  0  0
  -23.3386   -9.3029   23.7188 C   0  0  0  0  0  0  0  0  0  0  0  0
  -24.6363  -26.8049   23.9363 C   0  0  0  0  0  0  0  0  0  0  0  0
  -19.7429   -7.9636   23.1006 C   0  0  0  0  0  0  0  0  0  0  0  0
  -18.4652   -7.6596   22.6310 C   0  0  0  0  0  0  0  0  0  0  0  0
  -26.0253  -28.5550   23.0270 C   0  0  0  0  0  0  0  0  0  0  0  0
  -19.2293   -5.4638   21.9737 C   0  0  0  0  0  0  0  0  0  0  0  0
  -24.0018  -10.5451   21.7556 C   0  0  0  0  0  0  0  0  0  0  0  0
  -24.1513  -12.9353   20.8770 C   0  0  0  0  0  0  0  0  0  0  0  0
  -18.6807  -31.6808   25.7255 C   0  0  0  0  0  0  0  0  0  0  0  0
  -24.7112  -28.9786   25.0154 C   0  0  0  0  0  0  0  0  0  0  0  0
  -19.7413  -31.2263   24.9187 C   0  0  0  0  0  0  0  0  0  0  0  0
  -25.6258  -29.4266   24.0517 C   0  0  0  0  0  0  0  0  0  0  0  0
  -29.0983  -19.8582   20.5044 C   0  0  0  0  0  0  0  0  0  0  0  0
  -29.8618  -17.5730   20.3262 C   0  0  0  0  0  0  0  0  0  0  0  0
  -22.6777   -8.3780   22.9103 C   0  0  0  0  0  0  0  0  0  0  0  0
  -25.5316  -27.2519   22.9691 C   0  0  0  0  0  0  0  0  0  0  0  0
  -20.7639   -7.0178   23.0067 C   0  0  0  0  0  0  0  0  0  0  0  0
  -18.2083   -6.4097   22.0676 C   0  0  0  0  0  0  0  0  0  0  0  0
  -20.5070   -5.7680   22.4433 C   0  0  0  0  0  0  0  0  0  0  0  0
  -29.0360  -18.5279   20.9194 C   0  0  0  0  0  0  0  0  0  0  0  0
  -24.6863  -11.6642   21.1598 C   0  0  0  0  0  0  0  0  0  0  0  0
  -25.1963  -13.6316   20.3206 C   0  0  0  0  0  0  0  0  0  0  0  0
  -22.8281  -13.4414   21.0976 C   0  0  0  0  0  0  0  0  0  0  0  0
  -23.3809  -31.8615   24.8640 C   0  0  0  0  0  0  0  0  0  0  0  0
  -26.3885  -32.8578   25.5596 C   0  0  0  0  0  0  0  0  0  0  0  0
  -28.1959  -22.1893   20.8120 C   0  0  0  0  0  0  0  0  0  0  0  0
  -29.7393  -32.2124   25.5067 C   0  0  0  0  0  0  0  0  0  0  0  0
  -30.5526  -15.1513   20.2586 C   0  0  0  0  0  0  0  0  0  0  0  0
  -18.6217  -33.0998   26.2331 C   0  0  0  0  0  0  0  0  0  0  0  0
  -24.2842  -29.8829   26.1389 C   0  0  0  0  0  0  0  0  0  0  0  0
  -26.1873  -30.8239   24.0803 C   0  0  0  0  0  0  0  0  0  0  0  0
  -19.9644  -33.8237   26.1752 C   0  0  0  0  0  0  0  0  0  0  0  0
  -29.7298  -12.0471   18.7211 C   0  0  0  0  0  0  0  0  0  0  0  0
  -20.6327  -33.6016   24.8221 C   0  0  0  0  0  0  0  0  0  0  0  0
  -28.3003  -11.7753   19.1952 C   0  0  0  0  0  0  0  0  0  0  0  0
  -30.5729  -12.7071   19.8107 C   0  0  0  0  0  0  0  0  0  0  0  0
  -28.5589  -13.6471   20.8735 C   0  0  0  0  0  0  0  0  0  0  0  0
  -20.9212  -32.1140   24.5868 C   0  0  1  0  0  0  0  0  0  0  0  0
  -24.4401  -31.3636   25.8062 C   0  0  1  0  0  0  0  0  0  0  0  0
  -27.6530  -13.0420   19.7887 C   0  0  2  0  0  0  0  0  0  0  0  0
  -31.9515  -33.2319   26.1101 C   0  0  0  0  0  0  0  0  0  0  0  0
  -26.2254  -34.6597   23.1028 C   0  0  0  0  0  0  0  0  0  0  0  0
  -28.7144  -34.9093   23.2068 C   0  0  0  0  0  0  0  0  0  0  0  0
  -27.3019  -35.7130   25.0993 C   0  0  0  0  0  0  0  0  0  0  0  0
  -30.3500  -30.0391   27.4206 C   0  0  0  0  0  0  0  0  0  0  0  0
  -27.1595  -22.8744   21.6919 C   0  0  0  0  0  0  0  0  0  0  0  0
  -27.0471  -24.3690   21.4120 C   0  0  0  0  0  0  0  0  0  0  0  0
  -25.9727  -25.0223   22.2691 C   0  0  0  0  0  0  0  0  0  1  0  0
  -27.6066  -33.2278   24.7483 C   0  0  1  0  0  0  0  0  0  0  0  0
  -30.8076  -32.3451   26.5770 C   0  0  2  0  0  0  0  0  0  0  0  0
  -27.4502  -34.6017   24.0374 C   0  0  0  0  0  0  0  0  0  0  0  0
  -25.9713  -11.5565   20.8116 N   0  0  0  0  0  0  0  0  0  0  0  0
  -26.2525  -12.7688   20.3043 N   0  0  0  0  0  0  0  0  0  0  0  0
  -25.7345  -31.6723   25.1951 N   0  0  0  0  0  0  0  0  0  0  0  0
  -29.8991  -13.9025   20.3226 N   0  0  0  0  0  0  0  0  0  0  0  0
  -25.3056  -14.8916   19.8485 N   0  0  0  0  0  0  0  0  0  0  0  0
  -21.8765  -12.5926   21.6792 N   0  0  0  0  0  0  0  0  0  0  0  0
  -28.2618  -20.8297   21.1038 N   0  0  0  0  0  0  0  0  0  0  0  0
  -29.8014  -16.2207   20.7451 N   0  0  0  0  0  0  0  0  0  0  0  0
  -22.0908  -31.7018   25.3328 N   0  0  0  0  0  0  0  0  0  0  0  0
  -28.7428  -33.1529   25.6604 N   0  0  0  0  0  0  0  0  0  0  0  0
  -31.3624  -31.0061   26.9239 N   0  3  0  0  0  0  0  0  0  0  0  0
  -22.4948  -14.6063   20.7730 O   0  0  0  0  0  0  0  0  0  0  0  0
  -23.7097  -32.3553   23.7918 O   0  0  0  0  0  0  0  0  0  0  0  0
  -26.0346  -33.5897   26.4874 O   0  0  0  0  0  0  0  0  0  0  0  0
  -28.8519  -22.8051   19.9785 O   0  0  0  0  0  0  0  0  0  0  0  0
  -29.7861  -31.3620   24.6206 O   0  0  0  0  0  0  0  0  0  0  0  0
  -31.6839  -15.2680   19.7805 O   0  0  0  0  0  0  0  0  0  0  0  0
  -22.0317   -7.3210   23.4741 O   0  0  0  0  0  0  0  0  0  0  0  0
  -25.9290  -26.4171   21.9706 O   0  0  0  0  0  0  0  0  0  1  0  0
  -16.9809   -6.1173   21.6181 F   0  0  0  0  0  0  0  0  0  0  0  0
  -21.4835   -4.8548   22.3514 F   0  0  0  0  0  0  0  0  0  0  0  0
  -28.1823  -18.1672   21.8899 F   0  0  0  0  0  0  0  0  0  0  0  0
  1  2  1  0  0  0  0
  1  6  2  0  0  0  0
  2  7  2  0  0  0  0
  3  9  2  0  0  0  0
  3 10  1  0  0  0  0
  4 11  2  0  0  0  0
  4 18  1  0  0  0  0
  5 12  1  0  0  0  0
  5 18  2  0  0  0  0
  6 20  1  0  0  0  0
  7 22  1  0  0  0  0
  8 13  2  0  0  0  0
  8 21  1  0  0  0  0
  9 24  1  0  0  0  0
 10 25  2  0  0  0  0
 11 26  1  0  0  0  0
 12 26  2  0  0  0  0
 13 27  1  0  0  0  0
 14 15  2  0  0  0  0
 14 28  1  0  0  0  0
 15 29  1  0  0  0  0
 16 23  1  0  0  0  0
 16 27  2  0  0  0  0
 17 29  2  0  0  0  0
 17 30  1  0  0  0  0
 18 32  1  0  0  0  0
 19 32  1  0  0  0  0
 19 33  2  0  0  0  0
 19 34  1  0  0  0  0
 20 22  2  0  0  0  0
 20 40  1  0  0  0  0
 21 23  2  0  0  0  0
 21 41  1  0  0  0  0
 22 49  1  0  0  0  0
 23 42  1  0  0  0  0
 24 31  2  0  0  0  0
 24 69  1  0  0  0  0
 25 31  1  0  0  0  0
 25 70  1  0  0  0  0
 26 80  1  0  0  0  0
 27 81  1  0  0  0  0
 28 30  2  0  0  0  0
 28 80  1  0  0  0  0
 29 82  1  0  0  0  0
 30 83  1  0  0  0  0
 31 84  1  0  0  0  0
 32 63  2  0  0  0  0
 33 64  1  0  0  0  0
 33 67  1  0  0  0  0
 34 68  1  0  0  0  0
 34 74  2  0  0  0  0
 35 50  1  0  0  0  0
 35 71  1  0  0  0  0
 35 75  2  0  0  0  0
 36 60  1  0  0  0  0
 36 65  1  0  0  0  0
 36 76  2  0  0  0  0
 37 57  1  0  0  0  0
 37 69  1  0  0  0  0
 37 77  2  0  0  0  0
 38 61  1  0  0  0  0
 38 72  1  0  0  0  0
 38 78  2  0  0  0  0
 39 66  1  0  0  0  0
 39 70  1  0  0  0  0
 39 79  2  0  0  0  0
 40 43  1  0  0  0  0
 41 50  1  0  0  0  0
 42 65  1  0  0  0  0
 43 45  1  0  0  0  0
 44 46  1  0  0  0  0
 44 47  1  0  0  0  0
 45 49  1  0  0  0  0
 46 51  1  0  0  0  0
 47 66  1  0  0  0  0
 48 51  1  0  0  0  0
 48 66  1  0  0  0  0
 49 71  1  0  0  0  0
 50 65  1  0  0  0  0
 51 64  1  0  0  0  0
 52 61  1  0  0  0  0
 53 62  1  0  0  0  0
 54 62  1  0  0  0  0
 55 62  1  0  0  0  0
 56 73  1  0  0  0  0
 57 58  1  0  0  0  0
 58 59  1  0  0  0  0
 59 81  1  0  0  0  0
 60 62  1  0  0  0  0
 60 72  1  0  0  0  0
 61 73  1  0  0  0  0
 63 64  1  0  0  0  0
M  CHG  1  73   1
M  ISO  4  39 100  59 101  70 100  81 101
M  END
> <Batch ID>
0056

> <Smiles>
CNC(C)C(=O)NC(C(=O)N1Cc2cc([101O:1][101CH2:1]CCC(=O)Nc3cccc([100NH:0][100C:0](=O)N4CCCC(n5nc(-c6ccc(Oc7ccc(F)cc7F)cc6)c(C(N)=O)c5N)C4)c3F)ccc2CC1C(=O)NC1CCCc2ccccc21)C(C)(C)C

> <Shape>
0.289

> <Color>
0.169

> <Negative vol penalty>
0.000

$$$$

  -OEChem-04042322523D

 84 92  0     1  0  0  0  0  0999 V2000
  -22.4354  -32.5348   15.4081 C   0  0  0  0  0  0  0  0  0  0  0  0
  -23.4263  -31.5584   15.3944 C   0  0  0  0  0  0  0  0  0  0  0  0
  -23.2153   -9.8434   19.9757 C   0  0  0  0  0  0  0  0  0  0  0  0
  -23.7549  -10.0544   22.3212 C   0  0  0  0  0  0  0  0  0  0  0  0
  -22.2089  -33.2803   16.5644 C   0  0  0  0  0  0  0  0  0  0  0  0
  -24.1920  -31.3277   16.5367 C   0  0  0  0  0  0  0  0  0  0  0  0
  -26.4083  -25.9520   18.4592 C   0  0  0  0  0  0  0  0  0  0  0  0
  -22.4652   -8.7001   20.2511 C   0  0  0  0  0  0  0  0  0  0  0  0
  -23.0048   -8.9112   22.5966 C   0  0  0  0  0  0  0  0  0  0  0  0
  -27.6631  -25.3568   18.3365 C   0  0  0  0  0  0  0  0  0  0  0  0
  -19.7440   -8.1014   22.9605 C   0  0  0  0  0  0  0  0  0  0  0  0
  -18.8803   -8.1430   24.0550 C   0  0  0  0  0  0  0  0  0  0  0  0
  -28.2604  -26.1791   20.5243 C   0  0  0  0  0  0  0  0  0  0  0  0
  -20.0700   -6.2979   25.0639 C   0  0  0  0  0  0  0  0  0  0  0  0
  -23.8602  -10.5205   21.0107 C   0  0  0  0  0  0  0  0  0  0  0  0
  -24.1812  -13.0335   20.7116 C   0  0  0  0  0  0  0  0  0  0  0  0
  -22.9657  -33.0519   17.7244 C   0  0  0  0  0  0  0  0  0  0  0  0
  -26.0735  -26.6756   19.6128 C   0  0  0  0  0  0  0  0  0  0  0  0
  -23.9763  -32.0717   17.7092 C   0  0  0  0  0  0  0  0  0  0  0  0
  -26.9997  -26.7803   20.6603 C   0  0  0  0  0  0  0  0  0  0  0  0
  -22.3599   -8.2340   21.5615 C   0  0  0  0  0  0  0  0  0  0  0  0
  -28.5904  -25.4728   19.3679 C   0  0  0  0  0  0  0  0  0  0  0  0
  -20.7707   -7.1581   22.9176 C   0  0  0  0  0  0  0  0  0  0  0  0
  -19.0433   -7.2413   25.1067 C   0  0  0  0  0  0  0  0  0  0  0  0
  -20.9337   -6.2564   23.9693 C   0  0  0  0  0  0  0  0  0  0  0  0
  -24.6357  -11.7012   20.7268 C   0  0  0  0  0  0  0  0  0  0  0  0
  -25.2937  -13.7722   20.3901 C   0  0  0  0  0  0  0  0  0  0  0  0
  -31.9260  -17.4156   20.9815 C   0  0  0  0  0  0  0  0  0  0  0  0
  -33.9132  -18.6968   20.5380 C   0  0  0  0  0  0  0  0  0  0  0  0
  -32.5838  -16.2540   20.8416 C   0  0  0  0  0  0  0  0  0  0  0  0
  -32.6053  -18.6839   20.8266 C   0  0  0  0  0  0  0  0  0  0  0  0
  -34.0479  -16.2666   20.5195 C   0  0  0  0  0  0  0  0  0  0  0  0
  -31.2344  -22.1038   20.6775 C   0  0  0  0  0  0  0  0  0  0  0  0
  -31.3624  -23.3227   20.1357 C   0  0  0  0  0  0  0  0  0  0  0  0
  -22.8707  -13.5566   20.9656 C   0  0  0  0  0  0  0  0  0  0  0  0
  -32.1858  -21.0155   20.3167 C   0  0  0  0  0  0  0  0  0  0  0  0
  -25.2873  -29.6956   20.2169 C   0  0  0  0  0  0  0  0  0  0  0  0
  -24.7632  -28.5524   23.2070 C   0  0  0  0  0  0  0  0  0  0  0  0
  -25.4296  -26.1669   25.5548 C   0  0  0  0  0  0  0  0  0  0  0  0
  -30.6173  -14.8946   21.2792 C   0  0  0  0  0  0  0  0  0  0  0  0
  -22.7161  -33.9153   18.9356 C   0  0  0  0  0  0  0  0  0  0  0  0
  -24.7061  -27.2891   19.7409 C   0  0  0  0  0  0  0  0  0  0  0  0
  -26.6821  -27.5292   21.9278 C   0  0  0  0  0  0  0  0  0  0  0  0
  -23.3187  -33.3517   20.2200 C   0  0  0  0  0  0  0  0  0  0  0  0
  -29.8293  -12.3556   18.7118 C   0  0  0  0  0  0  0  0  0  0  0  0
  -24.7547  -32.8961   19.9808 C   0  0  0  0  0  0  0  0  0  0  0  0
  -28.3772  -12.0350   19.0529 C   0  0  0  0  0  0  0  0  0  0  0  0
  -30.6504  -12.6907   19.9563 C   0  0  0  0  0  0  0  0  0  0  0  0
  -28.6044  -13.4607   21.1241 C   0  0  0  0  0  0  0  0  0  0  0  0
  -24.8110  -31.7750   18.9361 C   0  0  1  0  0  0  0  0  0  0  0  0
  -24.6580  -28.4372   20.7443 C   0  0  1  0  0  0  0  0  0  0  0  0
  -27.7520  -13.1689   19.8795 C   0  0  2  0  0  0  0  0  0  0  0  0
  -24.8815  -25.5202   27.9167 C   0  0  0  0  0  0  0  0  0  0  0  0
  -26.6192  -30.7451   24.2354 C   0  0  0  0  0  0  0  0  0  0  0  0
  -26.7867  -29.4929   26.3969 C   0  0  0  0  0  0  0  0  0  0  0  0
  -24.5789  -30.3659   25.6310 C   0  0  0  0  0  0  0  0  0  0  0  0
  -24.2494  -23.5914   24.6986 C   0  0  0  0  0  0  0  0  0  0  0  0
  -30.4485  -24.4617   20.4546 C   0  0  0  0  0  0  0  0  0  1  0  0
  -25.6047  -28.3805   24.4485 C   0  0  1  0  0  0  0  0  0  0  0  0
  -24.5143  -25.3518   26.4506 C   0  0  2  0  0  0  0  0  0  0  0  0
  -25.9044  -29.7335   25.1534 C   0  0  0  0  0  0  0  0  0  0  0  0
  -25.9355  -11.5965   20.4377 N   0  0  0  0  0  0  0  0  0  0  0  0
  -26.3073  -12.8724   20.2378 N   0  0  0  0  0  0  0  0  0  0  0  0
  -34.6141  -17.5259   20.3888 N   0  0  0  0  0  0  0  0  0  0  0  0
  -25.3342  -28.1167   22.0029 N   0  0  0  0  0  0  0  0  0  0  0  0
  -30.0028  -13.7337   20.7683 N   0  0  0  0  0  0  0  0  0  0  0  0
  -25.4939  -15.0970   20.2256 N   0  0  0  0  0  0  0  0  0  0  0  0
  -21.8425  -12.6583   21.2822 N   0  0  0  0  0  0  0  0  0  0  0  0
  -31.8879  -19.8347   20.9794 N   0  0  0  0  0  0  0  0  0  0  0  0
  -31.9694  -15.0413   20.9814 N   0  0  0  0  0  0  0  0  0  0  0  0
  -24.4145  -30.5142   19.5258 N   0  0  0  0  0  0  0  0  0  0  0  0
  -24.9039  -27.4129   25.2858 N   0  0  0  0  0  0  0  0  0  0  0  0
  -24.6066  -23.9049   26.1062 N   0  3  0  0  0  0  0  0  0  0  0  0
  -34.6811  -15.2220   20.3852 O   0  0  0  0  0  0  0  0  0  0  0  0
  -22.6151  -14.7828   20.8972 O   0  0  0  0  0  0  0  0  0  0  0  0
  -33.1077  -21.1851   19.5247 O   0  0  0  0  0  0  0  0  0  0  0  0
  -26.4762  -29.9089   20.4231 O   0  0  0  0  0  0  0  0  0  0  0  0
  -23.6378  -29.0483   23.3031 O   0  0  0  0  0  0  0  0  0  0  0  0
  -26.5051  -25.7422   25.1385 O   0  0  0  0  0  0  0  0  0  0  0  0
  -30.0017  -15.7264   21.9559 O   0  0  0  0  0  0  0  0  0  0  0  0
  -21.6278   -7.1186   21.8307 O   0  0  0  0  0  0  0  0  0  0  0  0
  -29.8161  -24.8934   19.2505 O   0  0  0  0  0  0  0  0  0  1  0  0
  -18.2148   -7.2823   26.1584 F   0  0  0  0  0  0  0  0  0  0  0  0
  -21.9189   -5.3486   23.9343 F   0  0  0  0  0  0  0  0  0  0  0  0
  1  2  1  0  0  0  0
  1  5  2  0  0  0  0
  2  6  2  0  0  0  0
  3  8  2  0  0  0  0
  3 15  1  0  0  0  0
  4  9  1  0  0  0  0
  4 15  2  0  0  0  0
  5 17  1  0  0  0  0
  6 19  1  0  0  0  0
  7 10  2  0  0  0  0
  7 18  1  0  0  0  0
  8 21  1  0  0  0  0
  9 21  2  0  0  0  0
 10 22  1  0  0  0  0
 11 12  2  0  0  0  0
 11 23  1  0  0  0  0
 12 24  1  0  0  0  0
 13 20  1  0  0  0  0
 13 22  2  0  0  0  0
 14 24  2  0  0  0  0
 14 25  1  0  0  0  0
 15 26  1  0  0  0  0
 16 26  1  0  0  0  0
 16 27  2  0  0  0  0
 16 35  1  0  0  0  0
 17 19  2  0  0  0  0
 17 41  1  0  0  0  0
 18 20  2  0  0  0  0
 18 42  1  0  0  0  0
 19 50  1  0  0  0  0
 20 43  1  0  0  0  0
 21 81  1  0  0  0  0
 22 82  1  0  0  0  0
 23 25  2  0  0  0  0
 23 81  1  0  0  0  0
 24 83  1  0  0  0  0
 25 84  1  0  0  0  0
 26 62  2  0  0  0  0
 27 63  1  0  0  0  0
 27 67  1  0  0  0  0
 28 30  2  0  0  0  0
 28 31  1  0  0  0  0
 29 31  2  0  0  0  0
 29 64  1  0  0  0  0
 30 32  1  0  0  0  0
 30 70  1  0  0  0  0
 31 69  1  0  0  0  0
 32 64  1  0  0  0  0
 32 74  2  0  0  0  0
 33 34  2  0  0  0  0
 33 36  1  0  0  0  0
 34 58  1  0  0  0  0
 35 68  1  0  0  0  0
 35 75  2  0  0  0  0
 36 69  1  0  0  0  0
 36 76  2  0  0  0  0
 37 51  1  0  0  0  0
 37 71  1  0  0  0  0
 37 77  2  0  0  0  0
 38 59  1  0  0  0  0
 38 65  1  0  0  0  0
 38 78  2  0  0  0  0
 39 60  1  0  0  0  0
 39 72  1  0  0  0  0
 39 79  2  0  0  0  0
 40 66  1  0  0  0  0
 40 70  1  0  0  0  0
 40 80  2  0  0  0  0
 41 44  1  0  0  0  0
 42 51  1  0  0  0  0
 43 65  1  0  0  0  0
 44 46  1  0  0  0  0
 45 47  1  0  0  0  0
 45 48  1  0  0  0  0
 46 50  1  0  0  0  0
 47 52  1  0  0  0  0
 48 66  1  0  0  0  0
 49 52  1  0  0  0  0
 49 66  1  0  0  0  0
 50 71  1  0  0  0  0
 51 65  1  0  0  0  0
 52 63  1  0  0  0  0
 53 60  1  0  0  0  0
 54 61  1  0  0  0  0
 55 61  1  0  0  0  0
 56 61  1  0  0  0  0
 57 73  1  0  0  0  0
 58 82  1  0  0  0  0
 59 61  1  0  0  0  0
 59 72  1  0  0  0  0
 60 73  1  0  0  0  0
 62 63  1  0  0  0  0
M  CHG  1  73   1
M  ISO  4  40 100  58 101  70 100  82 101
M  END
> <Batch ID>
0056

> <Smiles>
CNC(C)C(=O)NC(C(=O)N1Cc2cc([101O:1][101CH2:1]C=CC(=O)Nc3c[nH]c(=O)c([100NH:0][100C:0](=O)N4CCCC(n5nc(-c6ccc(Oc7ccc(F)cc7F)cc6)c(C(N)=O)c5N)C4)c3)ccc2CC1C(=O)NC1CCCc2ccccc21)C(C)(C)C

> <Shape>
0.261

> <Color>
0.198

> <Negative vol penalty>
0.000

$$$$

  -OEChem-04042322523D

 91100  0     1  0  0  0  0  0999 V2000
  -26.9580  -37.9950   22.8532 C   0  0  0  0  0  0  0  0  0  0  0  0
  -27.5326  -37.0555   22.0031 C   0  0  0  0  0  0  0  0  0  0  0  0
  -29.1934  -17.7851   21.2676 C   0  0  0  0  0  0  0  0  0  0  0  0
  -29.9399  -13.5667   18.2384 C   0  0  0  0  0  0  0  0  0  0  0  0
  -28.1867  -11.9417   17.8881 C   0  0  0  0  0  0  0  0  0  0  0  0
  -28.5031  -17.0703   20.2888 C   0  0  0  0  0  0  0  0  0  0  0  0
  -26.2597  -37.5748   23.9845 C   0  0  0  0  0  0  0  0  0  0  0  0
  -27.4102  -35.6952   22.2845 C   0  0  0  0  0  0  0  0  0  0  0  0
  -26.8410  -29.3470   19.0146 C   0  0  0  0  0  0  0  0  0  0  0  0
  -28.6484  -18.9586   21.7889 C   0  0  0  0  0  0  0  0  0  0  0  0
  -30.0791  -13.7141   16.8584 C   0  0  0  0  0  0  0  0  0  0  0  0
  -28.3259  -12.0891   16.5081 C   0  0  0  0  0  0  0  0  0  0  0  0
  -27.4301  -28.0835   19.0055 C   0  0  0  0  0  0  0  0  0  0  0  0
  -28.4761  -15.3180   14.3503 C   0  0  0  0  0  0  0  0  0  0  0  0
  -28.5778  -16.6136   13.8437 C   0  0  0  0  0  0  0  0  0  0  0  0
  -26.1335  -27.4716   20.9455 C   0  0  0  0  0  0  0  0  0  0  0  0
  -30.7479  -16.0834   12.9235 C   0  0  0  0  0  0  0  0  0  0  0  0
  -28.9938  -12.6805   18.7533 C   0  0  0  0  0  0  0  0  0  0  0  0
  -27.2679  -17.5290   19.8310 C   0  0  0  0  0  0  0  0  0  0  0  0
  -29.8337  -12.1026   21.0917 C   0  0  0  0  0  0  0  0  0  0  0  0
  -26.1204  -36.2084   24.2746 C   0  0  0  0  0  0  0  0  0  0  0  0
  -25.9001  -29.6866   19.9974 C   0  0  0  0  0  0  0  0  0  0  0  0
  -26.7106  -35.2565   23.4215 C   0  0  0  0  0  0  0  0  0  0  0  0
  -25.5319  -28.7392   20.9633 C   0  0  0  0  0  0  0  0  0  0  0  0
  -27.4132  -19.4173   21.3312 C   0  0  0  0  0  0  0  0  0  0  0  0
  -26.7229  -18.7025   20.3522 C   0  0  0  0  0  0  0  0  0  0  0  0
  -29.2721  -12.9753   15.9932 C   0  0  0  0  0  0  0  0  0  0  0  0
  -27.0786  -27.1465   19.9727 C   0  0  0  0  0  0  0  0  0  0  0  0
  -29.5103  -14.4051   14.1436 C   0  0  0  0  0  0  0  0  0  0  0  0
  -29.7137  -16.9963   13.1303 C   0  0  0  0  0  0  0  0  0  0  0  0
  -30.6462  -14.7878   13.4302 C   0  0  0  0  0  0  0  0  0  0  0  0
  -28.8499  -12.5274   20.1788 C   0  0  0  0  0  0  0  0  0  0  0  0
  -29.2030  -12.1259   22.3116 C   0  0  0  0  0  0  0  0  0  0  0  0
  -28.2728  -22.4923   22.7870 C   0  0  0  0  0  0  0  0  0  0  0  0
  -26.7603  -16.9851   17.4913 C   0  0  0  0  0  0  0  0  0  0  0  0
  -25.6349  -15.6422   19.1443 C   0  0  0  0  0  0  0  0  0  0  0  0
  -26.5672  -16.7499   18.7972 C   0  0  0  0  0  0  0  0  0  0  0  0
  -31.1958  -11.7210   20.8579 C   0  0  0  0  0  0  0  0  0  0  0  0
  -25.7565  -31.8650   22.3077 C   0  0  0  0  0  0  0  0  0  0  0  0
  -22.7388  -30.7277   22.6582 C   0  0  0  0  0  0  0  0  0  0  0  0
  -20.5449  -28.1505   22.2206 C   0  0  0  0  0  0  0  0  0  0  0  0
  -24.5327  -14.2477   20.6126 C   0  0  0  0  0  0  0  0  0  0  0  0
  -25.3970  -35.8039   25.5346 C   0  0  0  0  0  0  0  0  0  0  0  0
  -25.2539  -31.0447   19.9774 C   0  0  0  0  0  0  0  0  0  0  0  0
  -24.5120  -29.0473   22.0279 C   0  0  0  0  0  0  0  0  0  0  0  0
  -29.2489  -23.6160   22.4903 C   0  0  0  0  0  0  0  0  0  0  0  0
  -24.9931  -34.3320   25.5593 C   0  0  0  0  0  0  0  0  0  0  0  0
  -24.8953  -11.1608   22.4072 C   0  0  0  0  0  0  0  0  0  0  0  0
  -26.1583  -33.4513   25.1192 C   0  0  0  0  0  0  0  0  0  0  0  0
  -26.0330  -11.4523   23.3857 C   0  0  0  0  0  0  0  0  0  0  0  0
  -28.9302  -23.3030   20.0571 C   0  0  0  0  0  0  0  0  0  0  0  0
  -24.0111  -12.3826   22.1845 C   0  0  0  0  0  0  0  0  0  0  0  0
  -27.8121  -22.3083   20.3148 C   0  0  0  0  0  0  0  0  0  0  0  0
  -25.8748  -13.9175   22.7367 C   0  0  0  0  0  0  0  0  0  0  0  0
  -26.5784  -33.7712   23.6795 C   0  0  1  0  0  0  0  0  0  0  0  0
  -24.6883  -31.4573   21.3328 C   0  0  1  0  0  0  0  0  0  0  0  0
  -29.0231  -24.3399   21.1695 C   0  0  1  0  0  0  0  0  0  0  0  0
  -26.8123  -12.7459   23.0797 C   0  0  2  0  0  0  0  0  0  0  0  0
  -24.2769  -18.9161   20.8601 C   0  0  0  0  0  0  0  0  0  0  0  0
  -18.1572  -27.5031   22.6414 C   0  0  0  0  0  0  0  0  0  0  0  0
  -23.3790  -30.2944   25.6099 C   0  0  0  0  0  0  0  0  0  0  0  0
  -21.3684  -28.8097   25.7563 C   0  0  0  0  0  0  0  0  0  0  0  0
  -21.0982  -31.2172   25.1616 C   0  0  0  0  0  0  0  0  0  0  0  0
  -20.0100  -27.7975   19.3313 C   0  0  0  0  0  0  0  0  0  0  0  0
  -25.3978  -19.2049   19.8684 C   0  0  0  0  0  0  0  0  0  0  0  0
  -26.8501  -20.6834   21.9092 C   0  0  0  0  0  0  0  0  0  0  0  0
  -27.8017  -25.2594   21.2265 C   0  0  0  0  0  0  0  0  0  1  0  0
  -22.0986  -29.6273   23.4695 C   0  0  1  0  0  0  0  0  0  0  0  0
  -19.1384  -28.1107   21.6510 C   0  0  2  0  0  0  0  0  0  0  0  0
  -22.0067  -29.9817   24.9806 C   0  0  0  0  0  0  0  0  0  0  0  0
  -27.6829  -12.8005   20.7683 N   0  0  0  0  0  0  0  0  0  0  0  0
  -25.3876  -15.3028   20.3666 N   0  0  0  0  0  0  0  0  0  0  0  0
  -27.9293  -12.5466   22.0648 N   0  0  0  0  0  0  0  0  0  0  0  0
  -27.7330  -21.8219   21.6918 N   0  0  0  0  0  0  0  0  0  0  0  0
  -23.9131  -30.3909   21.9700 N   0  0  0  0  0  0  0  0  0  0  0  0
  -24.8129  -13.5409   21.7969 N   0  0  0  0  0  0  0  0  0  0  0  0
  -29.6192  -11.8273   23.5607 N   0  0  0  0  0  0  0  0  0  0  0  0
  -31.6830  -11.7543   19.5442 N   0  0  0  0  0  0  0  0  0  0  0  0
  -25.6548  -33.1739   22.7389 N   0  0  0  0  0  0  0  0  0  0  0  0
  -20.8110  -29.3529   22.8408 N   0  0  0  0  0  0  0  0  0  0  0  0
  -19.1083  -27.2990   20.4015 N   0  3  0  0  0  0  0  0  0  0  0  0
  -28.0659  -22.1765   23.9620 O   0  0  0  0  0  0  0  0  0  0  0  0
  -31.9536  -11.3455   21.7844 O   0  0  0  0  0  0  0  0  0  0  0  0
  -26.6089  -31.0517   22.6450 O   0  0  0  0  0  0  0  0  0  0  0  0
  -22.2125  -31.8429   22.6303 O   0  0  0  0  0  0  0  0  0  0  0  0
  -21.3279  -27.2076   22.1282 O   0  0  0  0  0  0  0  0  0  0  0  0
  -23.6090  -13.9192   19.8650 O   0  0  0  0  0  0  0  0  0  0  0  0
  -29.4075  -13.1189   14.6465 O   0  0  0  0  0  0  0  0  0  0  0  0
  -27.6526  -25.9127   19.9666 O   0  0  0  0  0  0  0  0  0  1  0  0
  -29.8106  -18.2400   12.6425 F   0  0  0  0  0  0  0  0  0  0  0  0
  -31.6425  -13.9148   13.2274 F   0  0  0  0  0  0  0  0  0  0  0  0
  1  2  1  0  0  0  0
  1  7  2  0  0  0  0
  2  8  2  0  0  0  0
  3  6  2  0  0  0  0
  3 10  1  0  0  0  0
  4 11  2  0  0  0  0
  4 18  1  0  0  0  0
  5 12  1  0  0  0  0
  5 18  2  0  0  0  0
  6 19  1  0  0  0  0
  7 21  1  0  0  0  0
  8 23  1  0  0  0  0
  9 13  2  0  0  0  0
  9 22  1  0  0  0  0
 10 25  2  0  0  0  0
 11 27  1  0  0  0  0
 12 27  2  0  0  0  0
 13 28  1  0  0  0  0
 14 15  2  0  0  0  0
 14 29  1  0  0  0  0
 15 30  1  0  0  0  0
 16 24  1  0  0  0  0
 16 28  2  0  0  0  0
 17 30  2  0  0  0  0
 17 31  1  0  0  0  0
 18 32  1  0  0  0  0
 19 26  2  0  0  0  0
 19 37  1  0  0  0  0
 20 32  1  0  0  0  0
 20 33  2  0  0  0  0
 20 38  1  0  0  0  0
 21 23  2  0  0  0  0
 21 43  1  0  0  0  0
 22 24  2  0  0  0  0
 22 44  1  0  0  0  0
 23 55  1  0  0  0  0
 24 45  1  0  0  0  0
 25 26  1  0  0  0  0
 25 66  1  0  0  0  0
 26 65  1  0  0  0  0
 27 88  1  0  0  0  0
 28 89  1  0  0  0  0
 29 31  2  0  0  0  0
 29 88  1  0  0  0  0
 30 90  1  0  0  0  0
 31 91  1  0  0  0  0
 32 71  2  0  0  0  0
 33 73  1  0  0  0  0
 33 77  1  0  0  0  0
 34 46  1  0  0  0  0
 34 74  1  0  0  0  0
 34 82  2  0  0  0  0
 35 37  2  0  0  0  0
 36 37  1  0  0  0  0
 36 72  2  0  0  0  0
 38 78  1  0  0  0  0
 38 83  2  0  0  0  0
 39 56  1  0  0  0  0
 39 79  1  0  0  0  0
 39 84  2  0  0  0  0
 40 68  1  0  0  0  0
 40 75  1  0  0  0  0
 40 85  2  0  0  0  0
 41 69  1  0  0  0  0
 41 80  1  0  0  0  0
 41 86  2  0  0  0  0
 42 72  1  0  0  0  0
 42 76  1  0  0  0  0
 42 87  2  0  0  0  0
 43 47  1  0  0  0  0
 44 56  1  0  0  0  0
 45 75  1  0  0  0  0
 46 57  1  0  0  0  0
 47 49  1  0  0  0  0
 48 50  1  0  0  0  0
 48 52  1  0  0  0  0
 49 55  1  0  0  0  0
 50 58  1  0  0  0  0
 51 53  1  0  0  0  0
 51 57  1  0  0  0  0
 52 76  1  0  0  0  0
 53 74  1  0  0  0  0
 54 58  1  0  0  0  0
 54 76  1  0  0  0  0
 55 79  1  0  0  0  0
 56 75  1  0  0  0  0
 57 67  1  0  0  0  0
 58 73  1  0  0  0  0
 59 65  1  0  0  0  0
 60 69  1  0  0  0  0
 61 70  1  0  0  0  0
 62 70  1  0  0  0  0
 63 70  1  0  0  0  0
 64 81  1  0  0  0  0
 66 74  1  0  0  0  0
 67 89  1  0  0  0  0
 68 70  1  0  0  0  0
 68 80  1  0  0  0  0
 69 81  1  0  0  0  0
 71 73  1  0  0  0  0
M  CHG  1  81   1
M  ISO  4  42 100  67 101  72 100  89 101
M  END
> <Batch ID>
0056

> <Smiles>
C=C(C=[100N:0][100C:0](=O)N1CCCC(n2nc(-c3ccc(Oc4ccc(F)cc4F)cc3)c(C(N)=O)c2N)C1)c1cccc(CN2CCC([101CH2:1][101O:1]c3ccc4c(c3)CN(C(=O)C(NC(=O)C(C)NC)C(C)(C)C)C(C(=O)NC3CCCc5ccccc53)C4)CC2=O)c1CC

> <Shape>
0.293

> <Color>
0.089

> <Negative vol penalty>
0.000

$$$$

  -OEChem-04042322523D

 87 95  0     1  0  0  0  0  0999 V2000
  -24.7301  -18.3640   22.8330 C   0  0  0  0  0  0  0  0  0  0  0  0
  -25.3246  -19.4264   22.1597 C   0  0  0  0  0  0  0  0  0  0  0  0
  -26.5271  -12.7855   21.4310 C   0  0  0  0  0  0  0  0  0  0  0  0
  -26.2866  -13.3881   19.1038 C   0  0  0  0  0  0  0  0  0  0  0  0
  -23.3549  -18.3676   23.0626 C   0  0  0  0  0  0  0  0  0  0  0  0
  -24.5439  -20.4926   21.7145 C   0  0  0  0  0  0  0  0  0  0  0  0
  -26.6466  -24.9900   22.7130 C   0  0  0  0  0  0  0  0  0  0  0  0
  -28.9183  -21.2223   15.1651 C   0  0  0  0  0  0  0  0  0  0  0  0
  -29.3238  -20.3371   16.1638 C   0  0  0  0  0  0  0  0  0  0  0  0
  -25.2483  -12.2286   21.4190 C   0  0  0  0  0  0  0  0  0  0  0  0
  -25.0078  -12.8312   19.0917 C   0  0  0  0  0  0  0  0  0  0  0  0
  -27.6815  -25.4085   21.8778 C   0  0  0  0  0  0  0  0  0  0  0  0
  -23.7872   -9.3676   20.3640 C   0  0  0  0  0  0  0  0  0  0  0  0
  -23.6180   -8.1195   20.9633 C   0  0  0  0  0  0  0  0  0  0  0  0
  -29.5369  -22.1803   17.7112 C   0  0  0  0  0  0  0  0  0  0  0  0
  -26.1339  -26.8141   20.6744 C   0  0  0  0  0  0  0  0  0  0  0  0
  -22.0192   -9.0752   22.5021 C   0  0  0  0  0  0  0  0  0  0  0  0
  -27.0462  -13.3653   20.2734 C   0  0  0  0  0  0  0  0  0  0  0  0
  -29.1314  -23.0656   16.7124 C   0  0  0  0  0  0  0  0  0  0  0  0
  -29.5805  -13.2912   19.9915 C   0  0  0  0  0  0  0  0  0  0  0  0
  -22.5584  -19.4390   22.6285 C   0  0  0  0  0  0  0  0  0  0  0  0
  -25.3431  -25.4729   22.5280 C   0  0  0  0  0  0  0  0  0  0  0  0
  -23.1565  -20.5099   21.9373 C   0  0  0  0  0  0  0  0  0  0  0  0
  -25.0847  -26.4021   21.5102 C   0  0  0  0  0  0  0  0  0  0  0  0
  -28.8221  -22.5866   15.4394 C   0  0  0  0  0  0  0  0  0  0  0  0
  -29.6331  -20.8160   17.4369 C   0  0  0  0  0  0  0  0  0  0  0  0
  -24.4887  -12.2514   20.2493 C   0  0  0  0  0  0  0  0  0  0  0  0
  -27.4247  -26.3185   20.8565 C   0  0  0  0  0  0  0  0  0  0  0  0
  -23.0724  -10.4696   20.8337 C   0  0  0  0  0  0  0  0  0  0  0  0
  -22.7340   -7.9733   22.0323 C   0  0  0  0  0  0  0  0  0  0  0  0
  -22.1884  -10.3233   21.9027 C   0  0  0  0  0  0  0  0  0  0  0  0
  -28.3669  -13.9413   20.2854 C   0  0  0  0  0  0  0  0  0  0  0  0
  -30.5372  -14.2649   20.1439 C   0  0  0  0  0  0  0  0  0  0  0  0
  -34.0136  -25.9674   17.9066 C   0  0  0  0  0  0  0  0  0  0  0  0
  -33.2087  -26.7213   18.6636 C   0  0  0  0  0  0  0  0  0  0  0  0
  -29.0368  -24.5134   17.0319 C   0  0  0  0  0  0  0  0  0  0  0  0
  -29.8215  -11.9291   19.6143 C   0  0  0  0  0  0  0  0  0  0  0  0
  -22.5413  -24.1513   21.8159 C   0  0  0  0  0  0  0  0  0  0  0  0
  -21.4301  -27.1510   22.3539 C   0  0  0  0  0  0  0  0  0  0  0  0
  -22.0722  -30.5007   22.4720 C   0  0  0  0  0  0  0  0  0  0  0  0
  -30.3909  -20.2265   19.7659 C   0  0  0  0  0  0  0  0  0  0  0  0
  -21.0691  -19.3760   22.8581 C   0  0  0  0  0  0  0  0  0  0  0  0
  -24.2431  -25.0321   23.4542 C   0  0  0  0  0  0  0  0  0  0  0  0
  -23.7068  -26.9662   21.2825 C   0  0  0  0  0  0  0  0  0  0  0  0
  -20.3685  -20.7210   22.6838 C   0  0  0  0  0  0  0  0  0  0  0  0
  -31.4245  -18.2955   22.5731 C   0  0  0  0  0  0  0  0  0  0  0  0
  -20.8418  -21.4079   21.4067 C   0  0  0  0  0  0  0  0  0  0  0  0
  -30.8733  -16.8992   22.2753 C   0  0  0  0  0  0  0  0  0  0  0  0
  -30.4705  -19.3933   22.1057 C   0  0  0  0  0  0  0  0  0  0  0  0
  -29.5006  -17.8992   20.4038 C   0  0  0  0  0  0  0  0  0  0  0  0
  -22.3469  -21.6963   21.4607 C   0  0  1  0  0  0  0  0  0  0  0  0
  -22.8518  -25.1960   22.8503 C   0  0  1  0  0  0  0  0  0  0  0  0
  -30.4562  -16.7612   20.7980 C   0  0  2  0  0  0  0  0  0  0  0  0
  -28.3852  -23.5127   14.3515 C   0  0  0  0  0  0  0  0  0  0  0  0
  -20.9560  -32.7064   22.9036 C   0  0  0  0  0  0  0  0  0  0  0  0
  -20.1246  -27.0268   19.5989 C   0  0  0  0  0  0  0  0  0  0  0  0
  -19.8586  -29.5146   19.6897 C   0  0  0  0  0  0  0  0  0  0  0  0
  -18.7128  -28.0772   21.3759 C   0  0  0  0  0  0  0  0  0  0  0  0
  -23.8447  -31.0793   24.7703 C   0  0  0  0  0  0  0  0  0  0  0  0
  -32.1401  -26.1683   19.5618 C   0  0  0  0  0  0  0  0  0  0  0  0
  -30.2768  -26.5145   17.8155 C   0  0  0  0  0  0  0  0  0  0  0  0
  -29.7295  -26.1851   20.2854 C   0  0  0  0  0  0  0  0  0  1  0  0
  -21.2194  -28.3813   21.5049 C   0  0  1  0  0  0  0  0  0  0  0  0
  -21.7393  -31.5541   23.5131 C   0  0  2  0  0  0  0  0  0  0  0  0
  -30.7382  -26.7433   19.2683 C   0  0  1  0  0  0  0  0  0  0  0  0
  -20.0045  -28.2380   20.5452 C   0  0  0  0  0  0  0  0  0  0  0  0
  -28.5346  -15.2283   20.6008 N   0  0  0  0  0  0  0  0  0  0  0  0
  -29.8647  -15.3948   20.5061 N   0  0  0  0  0  0  0  0  0  0  0  0
  -22.6634  -26.4996   22.2105 N   0  0  0  0  0  0  0  0  0  0  0  0
  -30.1226  -19.2002   20.6962 N   0  0  0  0  0  0  0  0  0  0  0  0
  -31.8797  -14.2561   20.0021 N   0  0  0  0  0  0  0  0  0  0  0  0
  -28.7255  -11.0625   19.5039 N   0  0  0  0  0  0  0  0  0  0  0  0
  -30.0471  -19.9166   18.4505 N   0  0  0  0  0  0  0  0  0  0  0  0
  -30.2130  -25.1264   17.4479 N   0  0  0  0  0  0  0  0  0  0  0  0
  -22.6103  -22.8544   22.2878 N   0  0  0  0  0  0  0  0  0  0  0  0
  -21.1201  -29.5042   22.4310 N   0  0  0  0  0  0  0  0  0  0  0  0
  -22.9884  -32.1009   24.1145 N   0  3  0  0  0  0  0  0  0  0  0  0
  -27.9510  -25.0793   16.9360 O   0  0  0  0  0  0  0  0  0  0  0  0
  -30.9762  -11.4893   19.3981 O   0  0  0  0  0  0  0  0  0  0  0  0
  -22.2587  -24.4964   20.6745 O   0  0  0  0  0  0  0  0  0  0  0  0
  -20.5364  -26.7856   23.1216 O   0  0  0  0  0  0  0  0  0  0  0  0
  -23.0746  -30.5582   21.7632 O   0  0  0  0  0  0  0  0  0  0  0  0
  -30.9140  -21.2906   20.1065 O   0  0  0  0  0  0  0  0  0  0  0  0
  -23.2409  -11.7078   20.2371 O   0  0  0  0  0  0  0  0  0  0  0  0
  -28.4329  -26.7281   20.0395 O   0  0  0  0  0  0  0  0  0  1  0  0
  -22.5705   -6.7744   22.6068 F   0  0  0  0  0  0  0  0  0  0  0  0
  -21.4981  -11.3780   22.3576 F   0  0  0  0  0  0  0  0  0  0  0  0
  1  2  1  0  0  0  0
  1  5  2  0  0  0  0
  2  6  2  0  0  0  0
  3 10  2  0  0  0  0
  3 18  1  0  0  0  0
  4 11  1  0  0  0  0
  4 18  2  0  0  0  0
  5 21  1  0  0  0  0
  6 23  1  0  0  0  0
  7 12  2  0  0  0  0
  7 22  1  0  0  0  0
  8  9  2  0  0  0  0
  8 25  1  0  0  0  0
  9 26  1  0  0  0  0
 10 27  1  0  0  0  0
 11 27  2  0  0  0  0
 12 28  1  0  0  0  0
 13 14  2  0  0  0  0
 13 29  1  0  0  0  0
 14 30  1  0  0  0  0
 15 19  1  0  0  0  0
 15 26  2  0  0  0  0
 16 24  1  0  0  0  0
 16 28  2  0  0  0  0
 17 30  2  0  0  0  0
 17 31  1  0  0  0  0
 18 32  1  0  0  0  0
 19 25  2  0  0  0  0
 19 36  1  0  0  0  0
 20 32  1  0  0  0  0
 20 33  2  0  0  0  0
 20 37  1  0  0  0  0
 21 23  2  0  0  0  0
 21 42  1  0  0  0  0
 22 24  2  0  0  0  0
 22 43  1  0  0  0  0
 23 51  1  0  0  0  0
 24 44  1  0  0  0  0
 25 54  1  0  0  0  0
 26 73  1  0  0  0  0
 27 84  1  0  0  0  0
 28 85  1  0  0  0  0
 29 31  2  0  0  0  0
 29 84  1  0  0  0  0
 30 86  1  0  0  0  0
 31 87  1  0  0  0  0
 32 67  2  0  0  0  0
 33 68  1  0  0  0  0
 33 71  1  0  0  0  0
 34 35  2  0  0  0  0
 35 60  1  0  0  0  0
 36 74  1  0  0  0  0
 36 78  2  0  0  0  0
 37 72  1  0  0  0  0
 37 79  2  0  0  0  0
 38 52  1  0  0  0  0
 38 75  1  0  0  0  0
 38 80  2  0  0  0  0
 39 63  1  0  0  0  0
 39 69  1  0  0  0  0
 39 81  2  0  0  0  0
 40 64  1  0  0  0  0
 40 76  1  0  0  0  0
 40 82  2  0  0  0  0
 41 70  1  0  0  0  0
 41 73  1  0  0  0  0
 41 83  2  0  0  0  0
 42 45  1  0  0  0  0
 43 52  1  0  0  0  0
 44 69  1  0  0  0  0
 45 47  1  0  0  0  0
 46 48  1  0  0  0  0
 46 49  1  0  0  0  0
 47 51  1  0  0  0  0
 48 53  1  0  0  0  0
 49 70  1  0  0  0  0
 50 53  1  0  0  0  0
 50 70  1  0  0  0  0
 51 75  1  0  0  0  0
 52 69  1  0  0  0  0
 53 68  1  0  0  0  0
 55 64  1  0  0  0  0
 56 66  1  0  0  0  0
 57 66  1  0  0  0  0
 58 66  1  0  0  0  0
 59 77  1  0  0  0  0
 60 65  1  0  0  0  0
 61 65  1  0  0  0  0
 61 74  1  0  0  0  0
 62 65  1  0  0  0  0
 62 85  1  0  0  0  0
 63 66  1  0  0  0  0
 63 76  1  0  0  0  0
 64 77  1  0  0  0  0
 67 68  1  0  0  0  0
M  CHG  1  77   1
M  ISO  4  41 100  62 101  73 100  85 101
M  END
> <Batch ID>
0056

> <Smiles>
C=CCC(CNC(=O)c1cc([100NH:0][100C:0](=O)N2CCCC(n3nc(-c4ccc(Oc5ccc(F)cc5F)cc4)c(C(N)=O)c3N)C2)ccc1C)[101CH2:1][101O:1]c1ccc2c(c1)CN(C(=O)C(NC(=O)C(C)NC)C(C)(C)C)C(C(=O)NC1CCCc3ccccc31)C2

> <Shape>
0.254

> <Color>
0.082

> <Negative vol penalty>
0.000

$$$$

  -OEChem-04042322523D

 85 93  0     1  0  0  0  0  0999 V2000
  -18.3272  -32.2174   25.1318 C   0  0  0  0  0  0  0  0  0  0  0  0
  -19.6774  -32.4011   24.8515 C   0  0  0  0  0  0  0  0  0  0  0  0
  -24.6515  -14.3240   21.6519 C   0  0  0  0  0  0  0  0  0  0  0  0
  -26.5923  -14.1686   20.2214 C   0  0  0  0  0  0  0  0  0  0  0  0
  -17.7570  -30.9510   25.0095 C   0  0  0  0  0  0  0  0  0  0  0  0
  -20.4585  -31.3182   24.4497 C   0  0  0  0  0  0  0  0  0  0  0  0
  -26.0400  -29.7113   20.2566 C   0  0  0  0  0  0  0  0  0  0  0  0
  -24.6296  -12.9346   21.7731 C   0  0  0  0  0  0  0  0  0  0  0  0
  -26.5703  -12.7791   20.3426 C   0  0  0  0  0  0  0  0  0  0  0  0
  -27.2741  -29.0647   20.3071 C   0  0  0  0  0  0  0  0  0  0  0  0
  -23.6148  -10.2897   19.9295 C   0  0  0  0  0  0  0  0  0  0  0  0
  -22.3828   -9.6481   19.8021 C   0  0  0  0  0  0  0  0  0  0  0  0
  -29.6801  -24.7273   15.8086 C   0  0  0  0  0  0  0  0  0  0  0  0
  -26.1633  -26.9383   20.0539 C   0  0  0  0  0  0  0  0  0  0  0  0
  -27.5193  -23.6749   15.5626 C   0  0  0  0  0  0  0  0  0  0  0  0
  -22.6120   -8.7638   22.0388 C   0  0  0  0  0  0  0  0  0  0  0  0
  -25.6328  -14.9410   20.8760 C   0  0  0  0  0  0  0  0  0  0  0  0
  -29.8367  -24.1151   17.0521 C   0  0  0  0  0  0  0  0  0  0  0  0
  -26.3371  -17.2912   21.5746 C   0  0  0  0  0  0  0  0  0  0  0  0
  -18.5294  -29.8539   24.5967 C   0  0  0  0  0  0  0  0  0  0  0  0
  -24.8554  -28.9743   20.1151 C   0  0  0  0  0  0  0  0  0  0  0  0
  -19.8985  -30.0356   24.3230 C   0  0  0  0  0  0  0  0  0  0  0  0
  -24.9157  -27.5782   19.9993 C   0  0  0  0  0  0  0  0  0  0  0  0
  -28.8346  -23.2828   17.5509 C   0  0  0  0  0  0  0  0  0  0  0  0
  -27.6759  -23.0627   16.8061 C   0  0  0  0  0  0  0  0  0  0  0  0
  -25.5890  -12.1622   21.1185 C   0  0  0  0  0  0  0  0  0  0  0  0
  -27.3357  -27.6777   20.2086 C   0  0  0  0  0  0  0  0  0  0  0  0
  -24.3454  -10.1682   21.1115 C   0  0  0  0  0  0  0  0  0  0  0  0
  -21.8814   -8.8853   20.8567 C   0  0  0  0  0  0  0  0  0  0  0  0
  -28.5214  -24.5072   15.0638 C   0  0  0  0  0  0  0  0  0  0  0  0
  -23.8440   -9.4054   22.1661 C   0  0  0  0  0  0  0  0  0  0  0  0
  -25.6557  -16.3761   20.7499 C   0  0  0  0  0  0  0  0  0  0  0  0
  -26.0422  -18.5213   21.0395 C   0  0  0  0  0  0  0  0  0  0  0  0
  -31.0194  -26.2383   19.0902 C   0  0  0  0  0  0  0  0  0  0  0  0
  -31.0851  -24.3697   17.8224 C   0  0  0  0  0  0  0  0  0  0  0  0
  -27.1629  -17.0508   22.7218 C   0  0  0  0  0  0  0  0  0  0  0  0
  -22.2483  -28.5568   21.8850 C   0  0  0  0  0  0  0  0  0  0  0  0
  -21.2172  -26.9181   19.2823 C   0  0  0  0  0  0  0  0  0  0  0  0
  -22.0063  -25.1611   16.4650 C   0  0  0  0  0  0  0  0  0  0  0  0
  -25.4393  -21.9121   16.6644 C   0  0  0  0  0  0  0  0  0  0  0  0
  -17.8796  -28.4947   24.5246 C   0  0  0  0  0  0  0  0  0  0  0  0
  -23.5343  -29.6889   20.0355 C   0  0  0  0  0  0  0  0  0  0  0  0
  -23.6747  -26.7425   19.8258 C   0  0  0  0  0  0  0  0  0  0  0  0
  -18.6907  -27.4731   23.7318 C   0  0  0  0  0  0  0  0  0  0  0  0
  -22.6602  -19.8565   17.5180 C   0  0  0  0  0  0  0  0  0  0  0  0
  -20.1573  -27.5160   24.1491 C   0  0  0  0  0  0  0  0  0  0  0  0
  -23.2479  -18.8431   18.5028 C   0  0  0  0  0  0  0  0  0  0  0  0
  -23.6492  -20.2077   16.4079 C   0  0  0  0  0  0  0  0  0  0  0  0
  -25.5587  -19.6357   17.8556 C   0  0  0  0  0  0  0  0  0  0  0  0
  -20.7730  -28.8904   23.8606 C   0  0  1  0  0  0  0  0  0  0  0  0
  -22.3509  -28.8001   20.4058 C   0  0  1  0  0  0  0  0  0  0  0  0
  -24.6229  -19.3000   19.0283 C   0  0  2  0  0  0  0  0  0  0  0  0
  -29.0040  -22.6259   18.8855 C   0  0  0  0  0  0  0  0  0  0  0  0
  -20.9501  -23.9134   14.5611 C   0  0  0  0  0  0  0  0  0  0  0  0
  -20.6388  -24.5712   21.1445 C   0  0  0  0  0  0  0  0  0  0  0  0
  -20.5063  -23.0938   19.1276 C   0  0  0  0  0  0  0  0  0  0  0  0
  -18.8914  -24.9752   19.4016 C   0  0  0  0  0  0  0  0  0  0  0  0
  -23.1773  -26.9965   14.4602 C   0  0  0  0  0  0  0  0  0  0  0  0
  -30.9381  -26.9839   20.3944 C   0  0  0  0  0  0  0  0  0  0  0  0
  -29.6980  -27.8619   20.4125 C   0  0  0  0  0  0  0  0  0  1  0  0
  -21.2991  -25.4830   18.8210 C   0  0  1  0  0  0  0  0  0  0  0  0
  -21.4860  -25.2529   15.0419 C   0  0  2  0  0  0  0  0  0  0  0  0
  -20.3573  -24.5461   19.6289 C   0  0  0  0  0  0  0  0  0  0  0  0
  -24.9788  -16.9739   19.7658 N   0  0  0  0  0  0  0  0  0  0  0  0
  -30.9801  -24.9453   19.0656 N   0  0  0  0  0  0  0  0  0  0  0  0
  -25.2333  -18.2778   19.9687 N   0  0  0  0  0  0  0  0  0  0  0  0
  -22.4063  -27.4871   19.7600 N   0  0  0  0  0  0  0  0  0  0  0  0
  -24.9273  -20.6359   16.9806 N   0  0  0  0  0  0  0  0  0  0  0  0
  -26.3985  -19.7767   21.3852 N   0  0  0  0  0  0  0  0  0  0  0  0
  -27.3615  -15.7267   23.1364 N   0  0  0  0  0  0  0  0  0  0  0  0
  -26.6447  -22.2219   17.2934 N   0  0  0  0  0  0  0  0  0  0  0  0
  -21.0772  -29.0222   22.4519 N   0  0  0  0  0  0  0  0  0  0  0  0
  -21.0376  -25.5000   17.3858 N   0  0  0  0  0  0  0  0  0  0  0  0
  -32.2528  -24.1088   17.3505 N   0  3  0  0  0  0  0  0  0  0  0  0
  -22.5746  -25.6822   14.1190 N   0  3  0  0  0  0  0  0  0  0  0  0
  -27.6951  -17.9835   23.3701 O   0  0  0  0  0  0  0  0  0  0  0  0
  -23.1632  -27.9875   22.4686 O   0  0  0  0  0  0  0  0  0  0  0  0
  -20.1396  -27.5145   19.2146 O   0  0  0  0  0  0  0  0  0  0  0  0
  -23.1560  -24.8191   16.7332 O   0  0  0  0  0  0  0  0  0  0  0  0
  -24.8380  -22.6848   15.9138 O   0  0  0  0  0  0  0  0  0  0  0  0
  -25.5680  -10.8064   21.2367 O   0  0  0  0  0  0  0  0  0  0  0  0
  -28.5389  -27.0439   20.2582 O   0  0  0  0  0  0  0  0  0  1  0  0
  -20.6975   -8.2705   20.7348 F   0  0  0  0  0  0  0  0  0  0  0  0
  -28.3703  -25.0962   13.8702 F   0  0  0  0  0  0  0  0  0  0  0  0
  -24.5408   -9.2860   23.3046 F   0  0  0  0  0  0  0  0  0  0  0  0
  1  2  1  0  0  0  0
  1  5  2  0  0  0  0
  2  6  2  0  0  0  0
  3  8  2  0  0  0  0
  3 17  1  0  0  0  0
  4  9  1  0  0  0  0
  4 17  2  0  0  0  0
  5 20  1  0  0  0  0
  6 22  1  0  0  0  0
  7 10  2  0  0  0  0
  7 21  1  0  0  0  0
  8 26  1  0  0  0  0
  9 26  2  0  0  0  0
 10 27  1  0  0  0  0
 11 12  2  0  0  0  0
 11 28  1  0  0  0  0
 12 29  1  0  0  0  0
 13 18  1  0  0  0  0
 13 30  2  0  0  0  0
 14 23  1  0  0  0  0
 14 27  2  0  0  0  0
 15 25  2  0  0  0  0
 15 30  1  0  0  0  0
 16 29  2  0  0  0  0
 16 31  1  0  0  0  0
 17 32  1  0  0  0  0
 18 24  2  0  0  0  0
 18 35  1  0  0  0  0
 19 32  1  0  0  0  0
 19 33  2  0  0  0  0
 19 36  1  0  0  0  0
 20 22  2  0  0  0  0
 20 41  1  0  0  0  0
 21 23  2  0  0  0  0
 21 42  1  0  0  0  0
 22 50  1  0  0  0  0
 23 43  1  0  0  0  0
 24 25  1  0  0  0  0
 24 53  1  0  0  0  0
 25 71  1  0  0  0  0
 26 81  1  0  0  0  0
 27 82  1  0  0  0  0
 28 31  2  0  0  0  0
 28 81  1  0  0  0  0
 29 83  1  0  0  0  0
 30 84  1  0  0  0  0
 31 85  1  0  0  0  0
 32 64  2  0  0  0  0
 33 66  1  0  0  0  0
 33 69  1  0  0  0  0
 34 59  1  0  0  0  0
 34 65  2  0  0  0  0
 35 65  1  0  0  0  0
 35 74  2  0  0  0  0
 36 70  1  0  0  0  0
 36 76  2  0  0  0  0
 37 51  1  0  0  0  0
 37 72  1  0  0  0  0
 37 77  2  0  0  0  0
 38 61  1  0  0  0  0
 38 67  1  0  0  0  0
 38 78  2  0  0  0  0
 39 62  1  0  0  0  0
 39 73  1  0  0  0  0
 39 79  2  0  0  0  0
 40 68  1  0  0  0  0
 40 71  1  0  0  0  0
 40 80  2  0  0  0  0
 41 44  1  0  0  0  0
 42 51  1  0  0  0  0
 43 67  1  0  0  0  0
 44 46  1  0  0  0  0
 45 47  1  0  0  0  0
 45 48  1  0  0  0  0
 46 50  1  0  0  0  0
 47 52  1  0  0  0  0
 48 68  1  0  0  0  0
 49 52  1  0  0  0  0
 49 68  1  0  0  0  0
 50 72  1  0  0  0  0
 51 67  1  0  0  0  0
 52 66  1  0  0  0  0
 54 62  1  0  0  0  0
 55 63  1  0  0  0  0
 56 63  1  0  0  0  0
 57 63  1  0  0  0  0
 58 75  1  0  0  0  0
 59 60  1  0  0  0  0
 60 82  1  0  0  0  0
 61 63  1  0  0  0  0
 61 73  1  0  0  0  0
 62 75  1  0  0  0  0
 64 66  1  0  0  0  0
M  CHG  2  74   1  75   1
M  ISO  4  40 100  60 101  71 100  82 101
M  END
> <Batch ID>
0056

> <Smiles>
CNC(C)C(=O)NC(C(=O)N1Cc2cc([101O:1][101CH2:1]C=CNC(=N)c3cc(F)cc([100NH:0][100C:0](=O)N4CCCC(n5nc(-c6ccc(Oc7ccc(F)cc7F)cc6)c(C(N)=O)c5N)C4)c3C)ccc2CC1C(=O)NC1CCCc2ccccc21)C(C)(C)C

> <Shape>
0.231

> <Color>
0.100

> <Negative vol penalty>
0.000

$$$$

  -OEChem-04042322523D

 89 97  0     1  0  0  0  0  0999 V2000
  -17.0793  -25.5960   24.7317 C   0  0  0  0  0  0  0  0  0  0  0  0
  -18.1712  -25.3587   23.9030 C   0  0  0  0  0  0  0  0  0  0  0  0
  -23.1453  -10.5206   21.8570 C   0  0  0  0  0  0  0  0  0  0  0  0
  -22.7587  -12.9002   21.6984 C   0  0  0  0  0  0  0  0  0  0  0  0
  -16.6273  -26.8998   24.9311 C   0  0  0  0  0  0  0  0  0  0  0  0
  -18.8112  -26.4250   23.2722 C   0  0  0  0  0  0  0  0  0  0  0  0
  -23.8573  -26.1021   23.5510 C   0  0  0  0  0  0  0  0  0  0  0  0
  -29.0934  -19.4314   20.6786 C   0  0  0  0  0  0  0  0  0  0  0  0
  -28.8328  -18.1207   20.2789 C   0  0  0  0  0  0  0  0  0  0  0  0
  -22.1864  -10.4321   22.8662 C   0  0  0  0  0  0  0  0  0  0  0  0
  -21.7998  -12.8117   22.7075 C   0  0  0  0  0  0  0  0  0  0  0  0
  -24.4878  -25.2167   22.6779 C   0  0  0  0  0  0  0  0  0  0  0  0
  -18.8140  -10.3546   23.0980 C   0  0  0  0  0  0  0  0  0  0  0  0
  -17.8882   -9.3141   23.0230 C   0  0  0  0  0  0  0  0  0  0  0  0
  -25.0556  -27.0596   21.2286 C   0  0  0  0  0  0  0  0  0  0  0  0
  -31.0382  -17.4590   21.0107 C   0  0  0  0  0  0  0  0  0  0  0  0
  -18.6534   -8.4794   25.1572 C   0  0  0  0  0  0  0  0  0  0  0  0
  -23.4315  -11.7547   21.2732 C   0  0  0  0  0  0  0  0  0  0  0  0
  -24.2123  -11.7205   18.8448 C   0  0  0  0  0  0  0  0  0  0  0  0
  -17.2680  -27.9836   24.3101 C   0  0  0  0  0  0  0  0  0  0  0  0
  -23.8116  -27.4739   23.2635 C   0  0  0  0  0  0  0  0  0  0  0  0
  -18.3665  -27.7444   23.4624 C   0  0  0  0  0  0  0  0  0  0  0  0
  -24.4261  -27.9607   22.1009 C   0  0  0  0  0  0  0  0  0  0  0  0
  -30.3265  -19.7559   21.2443 C   0  0  0  0  0  0  0  0  0  0  0  0
  -29.8051  -17.1345   20.4449 C   0  0  0  0  0  0  0  0  0  0  0  0
  -21.5137  -11.5776   23.2914 C   0  0  0  0  0  0  0  0  0  0  0  0
  -25.0846  -25.6950   21.5151 C   0  0  0  0  0  0  0  0  0  0  0  0
  -19.6597  -10.4575   24.2026 C   0  0  0  0  0  0  0  0  0  0  0  0
  -17.8078   -8.3765   24.0526 C   0  0  0  0  0  0  0  0  0  0  0  0
  -31.2988  -18.7697   21.4104 C   0  0  0  0  0  0  0  0  0  0  0  0
  -19.5793   -9.5200   25.2322 C   0  0  0  0  0  0  0  0  0  0  0  0
  -24.4223  -11.8468   20.2311 C   0  0  0  0  0  0  0  0  0  0  0  0
  -25.4586  -11.8869   18.2922 C   0  0  0  0  0  0  0  0  0  0  0  0
  -32.9373  -20.4527   18.3019 C   0  0  0  0  0  0  0  0  0  0  0  0
  -28.6971  -23.1412   20.8639 C   0  0  0  0  0  0  0  0  0  0  0  0
  -32.2926  -21.5652   18.6727 C   0  0  0  0  0  0  0  0  0  0  0  0
  -27.4484  -23.2481   20.3885 C   0  0  0  0  0  0  0  0  0  0  0  0
  -22.9991  -11.4747   18.1214 C   0  0  0  0  0  0  0  0  0  0  0  0
  -29.8090  -22.7430   19.9530 C   0  0  0  0  0  0  0  0  0  0  0  0
  -21.4895  -29.5772   22.7269 C   0  0  0  0  0  0  0  0  0  0  0  0
  -23.9417  -31.7006   22.7386 C   0  0  0  0  0  0  0  0  0  0  0  0
  -27.2784  -32.2755   22.3116 C   0  0  0  0  0  0  0  0  0  0  0  0
  -30.3961  -14.7058   20.1308 C   0  0  0  0  0  0  0  0  0  0  0  0
  -16.7140  -29.3708   24.5184 C   0  0  0  0  0  0  0  0  0  0  0  0
  -23.1507  -28.4193   24.2288 C   0  0  0  0  0  0  0  0  0  0  0  0
  -24.4224  -29.4269   21.7565 C   0  0  0  0  0  0  0  0  0  0  0  0
  -17.6798  -30.4801   24.1100 C   0  0  0  0  0  0  0  0  0  0  0  0
  -30.1041  -11.2624   19.2738 C   0  0  0  0  0  0  0  0  0  0  0  0
  -18.2927  -30.1790   22.7460 C   0  0  0  0  0  0  0  0  0  0  0  0
  -28.5945  -11.0115   19.2899 C   0  0  0  0  0  0  0  0  0  0  0  0
  -30.5290  -12.2361   20.3715 C   0  0  0  0  0  0  0  0  0  0  0  0
  -28.2878  -13.2584   20.4054 C   0  0  0  0  0  0  0  0  0  0  0  0
  -19.1024  -28.8772   22.7802 C   0  0  1  0  0  0  0  0  0  0  0  0
  -22.7173  -29.7300   23.5794 C   0  0  1  0  0  0  0  0  0  0  0  0
  -27.8033  -12.3341   19.2764 C   0  0  2  0  0  0  0  0  0  0  0  0
  -32.8186  -23.4915   20.1750 C   0  0  0  0  0  0  0  0  0  0  0  0
  -28.9804  -34.1191   22.3499 C   0  0  0  0  0  0  0  0  0  0  0  0
  -22.9538  -32.6659   20.0178 C   0  0  0  0  0  0  0  0  0  0  0  0
  -25.1681  -33.7872   19.6895 C   0  0  0  0  0  0  0  0  0  0  0  0
  -23.6842  -34.4869   21.5686 C   0  0  0  0  0  0  0  0  0  0  0  0
  -28.7840  -30.9971   24.5156 C   0  0  0  0  0  0  0  0  0  0  0  0
  -30.6022  -21.1675   21.6750 C   0  0  0  0  0  0  0  0  0  0  0  0
  -26.2836  -23.6612   21.2293 C   0  0  0  0  0  0  0  0  0  1  0  0
  -32.2544  -22.0789   20.0828 C   0  0  1  0  0  0  0  0  0  0  0  0
  -24.8759  -32.2606   21.6933 C   0  0  1  0  0  0  0  0  0  0  0  0
  -28.2863  -33.0330   23.1570 C   0  0  2  0  0  0  0  0  0  0  0  0
  -24.1691  -33.2722   20.7475 C   0  0  0  0  0  0  0  0  0  0  0  0
  -25.7014  -12.0757   20.5401 N   0  0  0  0  0  0  0  0  0  0  0  0
  -26.3064  -12.0944   19.3402 N   0  0  0  0  0  0  0  0  0  0  0  0
  -23.7582  -30.3106   22.7288 N   0  0  0  0  0  0  0  0  0  0  0  0
  -29.7399  -13.4675   20.2940 N   0  0  0  0  0  0  0  0  0  0  0  0
  -25.9011  -11.8745   17.0168 N   0  0  0  0  0  0  0  0  0  0  0  0
  -21.8076  -11.3286   18.8448 N   0  0  0  0  0  0  0  0  0  0  0  0
  -29.5411  -15.8035   20.0371 N   0  0  0  0  0  0  0  0  0  0  0  0
  -20.3873  -29.0976   23.4086 N   0  0  0  0  0  0  0  0  0  0  0  0
  -26.0141  -32.8152   22.4182 N   0  0  0  0  0  0  0  0  0  0  0  0
  -30.8665  -22.0422   20.5399 N   0  0  0  0  0  0  0  0  0  0  0  0
  -29.3246  -32.1024   23.6832 N   0  3  0  0  0  0  0  0  0  0  0  0
  -22.9750  -11.3709   16.8715 O   0  0  0  0  0  0  0  0  0  0  0  0
  -29.7667  -23.0584   18.7629 O   0  0  0  0  0  0  0  0  0  0  0  0
  -21.5380  -29.8738   21.5389 O   0  0  0  0  0  0  0  0  0  0  0  0
  -23.4003  -32.4674   23.5389 O   0  0  0  0  0  0  0  0  0  0  0  0
  -27.5830  -31.3045   21.6224 O   0  0  0  0  0  0  0  0  0  0  0  0
  -31.6247  -14.7836   20.0508 O   0  0  0  0  0  0  0  0  0  0  0  0
  -20.5778  -11.4916   24.2759 O   0  0  0  0  0  0  0  0  0  0  0  0
  -25.7002  -24.8329   20.6609 O   0  0  0  0  0  0  0  0  0  1  0  0
  -16.9176   -7.3782   23.9812 F   0  0  0  0  0  0  0  0  0  0  0  0
  -32.4865  -19.0717   21.9531 F   0  0  0  0  0  0  0  0  0  0  0  0
  -20.3882   -9.6143   26.2964 F   0  0  0  0  0  0  0  0  0  0  0  0
  1  2  1  0  0  0  0
  1  5  2  0  0  0  0
  2  6  2  0  0  0  0
  3 10  2  0  0  0  0
  3 18  1  0  0  0  0
  4 11  1  0  0  0  0
  4 18  2  0  0  0  0
  5 20  1  0  0  0  0
  6 22  1  0  0  0  0
  7 12  2  0  0  0  0
  7 21  1  0  0  0  0
  8  9  2  0  0  0  0
  8 24  1  0  0  0  0
  9 25  1  0  0  0  0
 10 26  1  0  0  0  0
 11 26  2  0  0  0  0
 12 27  1  0  0  0  0
 13 14  2  0  0  0  0
 13 28  1  0  0  0  0
 14 29  1  0  0  0  0
 15 23  1  0  0  0  0
 15 27  2  0  0  0  0
 16 25  2  0  0  0  0
 16 30  1  0  0  0  0
 17 29  2  0  0  0  0
 17 31  1  0  0  0  0
 18 32  1  0  0  0  0
 19 32  1  0  0  0  0
 19 33  2  0  0  0  0
 19 38  1  0  0  0  0
 20 22  2  0  0  0  0
 20 44  1  0  0  0  0
 21 23  2  0  0  0  0
 21 45  1  0  0  0  0
 22 53  1  0  0  0  0
 23 46  1  0  0  0  0
 24 30  2  0  0  0  0
 24 62  1  0  0  0  0
 25 74  1  0  0  0  0
 26 85  1  0  0  0  0
 27 86  1  0  0  0  0
 28 31  2  0  0  0  0
 28 85  1  0  0  0  0
 29 87  1  0  0  0  0
 30 88  1  0  0  0  0
 31 89  1  0  0  0  0
 32 68  2  0  0  0  0
 33 69  1  0  0  0  0
 33 72  1  0  0  0  0
 34 36  2  0  0  0  0
 35 37  2  0  0  0  0
 35 39  1  0  0  0  0
 36 64  1  0  0  0  0
 37 63  1  0  0  0  0
 38 73  1  0  0  0  0
 38 79  2  0  0  0  0
 39 77  1  0  0  0  0
 39 80  2  0  0  0  0
 40 54  1  0  0  0  0
 40 75  1  0  0  0  0
 40 81  2  0  0  0  0
 41 65  1  0  0  0  0
 41 70  1  0  0  0  0
 41 82  2  0  0  0  0
 42 66  1  0  0  0  0
 42 76  1  0  0  0  0
 42 83  2  0  0  0  0
 43 71  1  0  0  0  0
 43 74  1  0  0  0  0
 43 84  2  0  0  0  0
 44 47  1  0  0  0  0
 45 54  1  0  0  0  0
 46 70  1  0  0  0  0
 47 49  1  0  0  0  0
 48 50  1  0  0  0  0
 48 51  1  0  0  0  0
 49 53  1  0  0  0  0
 50 55  1  0  0  0  0
 51 71  1  0  0  0  0
 52 55  1  0  0  0  0
 52 71  1  0  0  0  0
 53 75  1  0  0  0  0
 54 70  1  0  0  0  0
 55 69  1  0  0  0  0
 56 64  1  0  0  0  0
 57 66  1  0  0  0  0
 58 67  1  0  0  0  0
 59 67  1  0  0  0  0
 60 67  1  0  0  0  0
 61 78  1  0  0  0  0
 62 77  1  0  0  0  0
 63 86  1  0  0  0  0
 64 77  1  0  0  0  0
 65 67  1  0  0  0  0
 65 76  1  0  0  0  0
 66 78  1  0  0  0  0
 68 69  1  0  0  0  0
M  CHG  1  78   1
M  ISO  4  43 100  63 101  74 100  86 101
M  END
> <Batch ID>
0056

> <Smiles>
C=CC(C)N(Cc1ccc([100NH:0][100C:0](=O)N2CCCC(n3nc(-c4ccc(Oc5ccc(F)cc5F)cc4)c(C(N)=O)c3N)C2)cc1F)C(=O)C=C[101CH2:1][101O:1]c1ccc2c(c1)CN(C(=O)C(NC(=O)C(C)NC)C(C)(C)C)C(C(=O)NC1CCCc3ccccc31)C2

> <Shape>
0.254

> <Color>
0.098

> <Negative vol penalty>
0.000

$$$$

  -OEChem-04042322523D

 87 96  0     1  0  0  0  0  0999 V2000
  -21.1406  -17.4534   26.9470 C   0  0  0  0  0  0  0  0  0  0  0  0
  -22.4395  -17.6743   27.3936 C   0  0  0  0  0  0  0  0  0  0  0  0
  -23.0012   -9.8930   19.9817 C   0  0  0  0  0  0  0  0  0  0  0  0
  -23.7242   -9.9473   22.2863 C   0  0  0  0  0  0  0  0  0  0  0  0
  -20.7094  -18.0249   25.7506 C   0  0  0  0  0  0  0  0  0  0  0  0
  -23.3083  -18.4661   26.6436 C   0  0  0  0  0  0  0  0  0  0  0  0
  -27.6435  -22.2233   28.7872 C   0  0  0  0  0  0  0  0  0  0  0  0
  -22.2345   -8.7588   20.2489 C   0  0  0  0  0  0  0  0  0  0  0  0
  -22.9575   -8.8130   22.5536 C   0  0  0  0  0  0  0  0  0  0  0  0
  -29.0204  -22.0728   28.9461 C   0  0  0  0  0  0  0  0  0  0  0  0
  -23.2026   -5.4735   22.0866 C   0  0  0  0  0  0  0  0  0  0  0  0
  -23.7896   -4.4574   22.8406 C   0  0  0  0  0  0  0  0  0  0  0  0
  -29.3784  -23.1651   26.8253 C   0  0  0  0  0  0  0  0  0  0  0  0
  -29.8759  -17.4531   23.0948 C   0  0  0  0  0  0  0  0  0  0  0  0
  -32.0550  -16.5546   22.5645 C   0  0  0  0  0  0  0  0  0  0  0  0
  -22.0641   -4.7025   24.5139 C   0  0  0  0  0  0  0  0  0  0  0  0
  -23.7461  -10.4872   21.0004 C   0  0  0  0  0  0  0  0  0  0  0  0
  -24.1313  -13.0026   20.8213 C   0  0  0  0  0  0  0  0  0  0  0  0
  -21.5704  -18.8320   24.9903 C   0  0  0  0  0  0  0  0  0  0  0  0
  -27.1224  -22.8371   27.6391 C   0  0  0  0  0  0  0  0  0  0  0  0
  -22.8886  -19.0479   25.4352 C   0  0  0  0  0  0  0  0  0  0  0  0
  -27.9946  -23.3244   26.6554 C   0  0  0  0  0  0  0  0  0  0  0  0
  -30.4629  -18.3505   23.9868 C   0  0  0  0  0  0  0  0  0  0  0  0
  -32.6421  -17.4520   23.4565 C   0  0  0  0  0  0  0  0  0  0  0  0
  -31.8460  -18.3500   24.1676 C   0  0  0  0  0  0  0  0  0  0  0  0
  -30.6719  -16.5551   22.3837 C   0  0  0  0  0  0  0  0  0  0  0  0
  -22.2127   -8.2188   21.5348 C   0  0  0  0  0  0  0  0  0  0  0  0
  -29.8880  -22.5411   27.9637 C   0  0  0  0  0  0  0  0  0  0  0  0
  -22.0465   -6.1042   22.5462 C   0  0  0  0  0  0  0  0  0  0  0  0
  -23.2204   -4.0719   24.0543 C   0  0  0  0  0  0  0  0  0  0  0  0
  -21.4772   -5.7186   23.7598 C   0  0  0  0  0  0  0  0  0  0  0  0
  -24.5387  -11.6585   20.7249 C   0  0  0  0  0  0  0  0  0  0  0  0
  -25.2413  -13.7248   20.4569 C   0  0  0  0  0  0  0  0  0  0  0  0
  -33.7391  -20.9393   25.9328 C   0  0  0  0  0  0  0  0  0  0  0  0
  -33.0233  -20.4109   26.9280 C   0  0  0  0  0  0  0  0  0  0  0  0
  -33.3825  -20.2078   24.7007 C   0  0  0  0  0  0  0  0  0  0  0  0
  -22.8629  -13.5494   21.2059 C   0  0  0  0  0  0  0  0  0  0  0  0
  -25.2190  -21.9105   25.2680 C   0  0  0  0  0  0  0  0  0  0  0  0
  -25.4089  -25.0344   24.4152 C   0  0  0  0  0  0  0  0  0  0  0  0
  -27.1451  -27.9701   24.5356 C   0  0  0  0  0  0  0  0  0  0  0  0
  -30.7205  -14.6868   20.6945 C   0  0  0  0  0  0  0  0  0  0  0  0
  -21.0740  -19.3897   23.6798 C   0  0  0  0  0  0  0  0  0  0  0  0
  -25.6358  -23.0157   27.4952 C   0  0  0  0  0  0  0  0  0  0  0  0
  -27.4866  -24.0088   25.4137 C   0  0  0  0  0  0  0  0  0  0  0  0
  -32.1391  -19.3010   26.4738 C   0  0  0  0  0  0  0  0  0  0  0  0
  -21.9392  -20.5223   23.1331 C   0  0  0  0  0  0  0  0  0  0  0  0
  -29.6046  -12.2305   18.3710 C   0  0  0  0  0  0  0  0  0  0  0  0
  -23.4166  -20.1504   23.2100 C   0  0  0  0  0  0  0  0  0  0  0  0
  -28.1536  -11.9733   18.7842 C   0  0  0  0  0  0  0  0  0  0  0  0
  -30.5040  -12.4757   19.5812 C   0  0  0  0  0  0  0  0  0  0  0  0
  -28.5873  -13.2662   20.9119 C   0  0  0  0  0  0  0  0  0  0  0  0
  -23.8529  -19.9211   24.6621 C   0  0  1  0  0  0  0  0  0  0  0  0
  -25.1931  -23.1954   26.0464 C   0  0  1  0  0  0  0  0  0  0  0  0
  -27.6308  -13.0781   19.7231 C   0  0  2  0  0  0  0  0  0  0  0  0
  -29.5838  -19.2997   24.7351 C   0  0  0  0  0  0  0  0  0  0  0  0
  -34.1266  -17.4281   23.6288 C   0  0  0  0  0  0  0  0  0  0  0  0
  -27.0687  -30.3391   23.7112 C   0  0  0  0  0  0  0  0  0  0  0  0
  -26.2781  -24.0959   21.6450 C   0  0  0  0  0  0  0  0  0  0  0  0
  -27.0862  -26.4210   21.1874 C   0  0  0  0  0  0  0  0  0  0  0  0
  -24.6679  -26.0095   21.6406 C   0  0  0  0  0  0  0  0  0  0  0  0
  -27.0590  -29.0484   27.2904 C   0  0  0  0  0  0  0  0  0  0  0  0
  -33.0518  -20.8303   28.3608 C   0  0  0  0  0  0  0  0  0  0  0  0
  -31.6823  -21.2661   28.8641 C   0  0  0  0  0  0  0  0  0  1  0  0
  -26.3296  -25.8495   23.5394 C   0  0  1  0  0  0  0  0  0  0  0  0
  -26.7033  -29.3898   24.8418 C   0  0  2  0  0  0  0  0  0  0  0  0
  -26.1003  -25.5794   22.0255 C   0  0  0  0  0  0  0  0  0  0  0  0
  -25.8083  -11.5316   20.3300 N   0  0  0  0  0  0  0  0  0  0  0  0
  -26.2083  -12.8052   20.1750 N   0  0  0  0  0  0  0  0  0  0  0  0
  -32.4314  -19.2434   25.0564 N   0  0  0  0  0  0  0  0  0  0  0  0
  -26.0248  -24.1540   25.3160 N   0  0  0  0  0  0  0  0  0  0  0  0
  -29.9481  -13.5378   20.4226 N   0  0  0  0  0  0  0  0  0  0  0  0
  -25.4748  -15.0504   20.3532 N   0  0  0  0  0  0  0  0  0  0  0  0
  -21.8309  -12.6656   21.5497 N   0  0  0  0  0  0  0  0  0  0  0  0
  -30.0754  -15.6430   21.4782 N   0  0  0  0  0  0  0  0  0  0  0  0
  -24.0442  -21.1864   25.3381 N   0  0  0  0  0  0  0  0  0  0  0  0
  -26.1412  -27.2415   23.9332 N   0  0  0  0  0  0  0  0  0  0  0  0
  -27.3524  -29.8760   26.0920 N   0  3  0  0  0  0  0  0  0  0  0  0
  -33.8630  -20.4469   23.6047 O   0  0  0  0  0  0  0  0  0  0  0  0
  -22.6461  -14.7847   21.2277 O   0  0  0  0  0  0  0  0  0  0  0  0
  -26.2296  -21.5997   24.6483 O   0  0  0  0  0  0  0  0  0  0  0  0
  -24.1885  -25.1789   24.3092 O   0  0  0  0  0  0  0  0  0  0  0  0
  -28.2695  -27.5506   24.8006 O   0  0  0  0  0  0  0  0  0  0  0  0
  -31.8595  -14.8252   20.2414 O   0  0  0  0  0  0  0  0  0  0  0  0
  -21.4645   -7.1122   21.7960 O   0  0  0  0  0  0  0  0  0  0  0  0
  -31.2323  -22.3950   28.1160 O   0  0  0  0  0  0  0  0  0  1  0  0
  -23.7832   -3.0950   24.7776 F   0  0  0  0  0  0  0  0  0  0  0  0
  -20.3659   -6.3200   24.2060 F   0  0  0  0  0  0  0  0  0  0  0  0
  1  2  1  0  0  0  0
  1  5  2  0  0  0  0
  2  6  2  0  0  0  0
  3  8  2  0  0  0  0
  3 17  1  0  0  0  0
  4  9  1  0  0  0  0
  4 17  2  0  0  0  0
  5 19  1  0  0  0  0
  6 21  1  0  0  0  0
  7 10  2  0  0  0  0
  7 20  1  0  0  0  0
  8 27  1  0  0  0  0
  9 27  2  0  0  0  0
 10 28  1  0  0  0  0
 11 12  2  0  0  0  0
 11 29  1  0  0  0  0
 12 30  1  0  0  0  0
 13 22  1  0  0  0  0
 13 28  2  0  0  0  0
 14 23  2  0  0  0  0
 14 26  1  0  0  0  0
 15 24  1  0  0  0  0
 15 26  2  0  0  0  0
 16 30  2  0  0  0  0
 16 31  1  0  0  0  0
 17 32  1  0  0  0  0
 18 32  1  0  0  0  0
 18 33  2  0  0  0  0
 18 37  1  0  0  0  0
 19 21  2  0  0  0  0
 19 42  1  0  0  0  0
 20 22  2  0  0  0  0
 20 43  1  0  0  0  0
 21 52  1  0  0  0  0
 22 44  1  0  0  0  0
 23 25  1  0  0  0  0
 23 55  1  0  0  0  0
 24 25  2  0  0  0  0
 24 56  1  0  0  0  0
 25 69  1  0  0  0  0
 26 74  1  0  0  0  0
 27 84  1  0  0  0  0
 28 85  1  0  0  0  0
 29 31  2  0  0  0  0
 29 84  1  0  0  0  0
 30 86  1  0  0  0  0
 31 87  1  0  0  0  0
 32 67  2  0  0  0  0
 33 68  1  0  0  0  0
 33 72  1  0  0  0  0
 34 35  2  0  0  0  0
 34 36  1  0  0  0  0
 35 45  1  0  0  0  0
 35 62  1  0  0  0  0
 36 69  1  0  0  0  0
 36 78  2  0  0  0  0
 37 73  1  0  0  0  0
 37 79  2  0  0  0  0
 38 53  1  0  0  0  0
 38 75  1  0  0  0  0
 38 80  2  0  0  0  0
 39 64  1  0  0  0  0
 39 70  1  0  0  0  0
 39 81  2  0  0  0  0
 40 65  1  0  0  0  0
 40 76  1  0  0  0  0
 40 82  2  0  0  0  0
 41 71  1  0  0  0  0
 41 74  1  0  0  0  0
 41 83  2  0  0  0  0
 42 46  1  0  0  0  0
 43 53  1  0  0  0  0
 44 70  1  0  0  0  0
 45 69  1  0  0  0  0
 46 48  1  0  0  0  0
 47 49  1  0  0  0  0
 47 50  1  0  0  0  0
 48 52  1  0  0  0  0
 49 54  1  0  0  0  0
 50 71  1  0  0  0  0
 51 54  1  0  0  0  0
 51 71  1  0  0  0  0
 52 75  1  0  0  0  0
 53 70  1  0  0  0  0
 54 68  1  0  0  0  0
 57 65  1  0  0  0  0
 58 66  1  0  0  0  0
 59 66  1  0  0  0  0
 60 66  1  0  0  0  0
 61 77  1  0  0  0  0
 62 63  1  0  0  0  0
 63 85  1  0  0  0  0
 64 66  1  0  0  0  0
 64 76  1  0  0  0  0
 65 77  1  0  0  0  0
 67 68  1  0  0  0  0
M  CHG  1  77   1
M  ISO  4  41 100  63 101  74 100  85 101
M  END
> <Batch ID>
0056

> <Smiles>
CNC(C)C(=O)NC(C(=O)N1Cc2cc([101O:1][101CH2:1]C=C3CC(=O)N(c4c(C)cc([100NH:0][100C:0](=O)N5CCCC(n6nc(-c7ccc(Oc8ccc(F)cc8F)cc7)c(C(N)=O)c6N)C5)cc4C)C3)ccc2CC1C(=O)NC1CCCc2ccccc21)C(C)(C)C

> <Shape>
0.192

> <Color>
0.198

> <Negative vol penalty>
0.000

$$$$

  -OEChem-04042322523D

 88 97  0     1  0  0  0  0  0999 V2000
  -28.9956  -37.3794   21.7757 C   0  0  0  0  0  0  0  0  0  0  0  0
  -29.2793  -36.1494   21.1909 C   0  0  0  0  0  0  0  0  0  0  0  0
  -24.1532  -14.2034   21.8812 C   0  0  0  0  0  0  0  0  0  0  0  0
  -26.5085  -14.0106   22.3836 C   0  0  0  0  0  0  0  0  0  0  0  0
  -28.1842  -37.4412   22.9078 C   0  0  0  0  0  0  0  0  0  0  0  0
  -28.7525  -34.9802   21.7386 C   0  0  0  0  0  0  0  0  0  0  0  0
  -26.9500  -29.9781   18.6996 C   0  0  0  0  0  0  0  0  0  0  0  0
  -32.7831  -20.6584   21.8983 C   0  0  0  0  0  0  0  0  0  0  0  0
  -31.4424  -20.4762   22.2373 C   0  0  0  0  0  0  0  0  0  0  0  0
  -24.1896  -12.9673   21.2361 C   0  0  0  0  0  0  0  0  0  0  0  0
  -26.5449  -12.7744   21.7385 C   0  0  0  0  0  0  0  0  0  0  0  0
  -27.5757  -28.7582   18.4462 C   0  0  0  0  0  0  0  0  0  0  0  0
  -24.1953   -9.7008   22.1098 C   0  0  0  0  0  0  0  0  0  0  0  0
  -23.1688   -8.7967   22.3827 C   0  0  0  0  0  0  0  0  0  0  0  0
  -26.4447  -27.7907   20.3446 C   0  0  0  0  0  0  0  0  0  0  0  0
  -30.8236  -22.2885   20.7642 C   0  0  0  0  0  0  0  0  0  0  0  0
  -22.5540   -8.7895   20.0462 C   0  0  0  0  0  0  0  0  0  0  0  0
  -25.3127  -14.7251   22.4549 C   0  0  0  0  0  0  0  0  0  0  0  0
  -25.0057  -16.2442   24.4812 C   0  0  0  0  0  0  0  0  0  0  0  0
  -27.6394  -36.2730   23.4639 C   0  0  0  0  0  0  0  0  0  0  0  0
  -26.0739  -30.1166   19.7858 C   0  0  0  0  0  0  0  0  0  0  0  0
  -27.9342  -35.0263   22.8800 C   0  0  0  0  0  0  0  0  0  0  0  0
  -25.8072  -29.0127   20.6081 C   0  0  0  0  0  0  0  0  0  0  0  0
  -33.1441  -21.6557   20.9923 C   0  0  0  0  0  0  0  0  0  0  0  0
  -32.1643  -22.4707   20.4252 C   0  0  0  0  0  0  0  0  0  0  0  0
  -30.4627  -21.2912   21.6703 C   0  0  0  0  0  0  0  0  0  0  0  0
  -25.3854  -12.2527   21.1648 C   0  0  0  0  0  0  0  0  0  0  0  0
  -27.3253  -27.6650   19.2705 C   0  0  0  0  0  0  0  0  0  0  0  0
  -24.4012  -10.1493   20.8051 C   0  0  0  0  0  0  0  0  0  0  0  0
  -22.3482   -8.3411   21.3510 C   0  0  0  0  0  0  0  0  0  0  0  0
  -23.5805   -9.6937   19.7733 C   0  0  0  0  0  0  0  0  0  0  0  0
  -25.2759  -16.0023   23.1209 C   0  0  0  0  0  0  0  0  0  0  0  0
  -25.0907  -17.6090   24.6107 C   0  0  0  0  0  0  0  0  0  0  0  0
  -31.4675  -23.0056   17.3032 C   0  0  0  0  0  0  0  0  0  0  0  0
  -30.5633  -24.8283   18.7915 C   0  0  0  0  0  0  0  0  0  0  0  0
  -24.7049  -15.3181   25.5336 C   0  0  0  0  0  0  0  0  0  0  0  0
  -26.0333  -31.8909   22.4228 C   0  0  0  0  0  0  0  0  0  0  0  0
  -23.0862  -30.5857   22.7876 C   0  0  0  0  0  0  0  0  0  0  0  0
  -20.9467  -28.0206   22.0877 C   0  0  0  0  0  0  0  0  0  0  0  0
  -28.0045  -21.8272   21.5413 C   0  0  0  0  0  0  0  0  0  0  0  0
  -26.8063  -36.3854   24.7162 C   0  0  0  0  0  0  0  0  0  0  0  0
  -25.3864  -31.4320   20.0297 C   0  0  0  0  0  0  0  0  0  0  0  0
  -24.8593  -29.1037   21.7750 C   0  0  0  0  0  0  0  0  0  0  0  0
  -30.3489  -23.2809   16.3265 C   0  0  0  0  0  0  0  0  0  0  0  0
  -25.9822  -35.1353   25.0137 C   0  0  0  0  0  0  0  0  0  0  0  0
  -29.8756  -24.7168   16.3962 C   0  0  0  0  0  0  0  0  0  0  0  0
  -24.4947  -21.6518   22.1137 C   0  0  0  0  0  0  0  0  0  0  0  0
  -26.8399  -33.8827   24.8650 C   0  0  0  0  0  0  0  0  0  0  0  0
  -24.2730  -20.2068   22.5666 C   0  0  0  0  0  0  0  0  0  0  0  0
  -25.5728  -21.7492   21.0357 C   0  0  0  0  0  0  0  0  0  0  0  0
  -26.6312  -19.6719   21.8319 C   0  0  0  0  0  0  0  0  0  0  0  0
  -27.3613  -33.7382   23.4302 C   0  0  1  0  0  0  0  0  0  0  0  0
  -29.4092  -25.0083   17.8138 C   0  0  2  0  0  0  0  0  0  0  0  0
  -24.9095  -31.5990   21.4692 C   0  0  1  0  0  0  0  0  0  0  0  0
  -25.6000  -19.5307   22.9635 C   0  0  2  0  0  0  0  0  0  0  0  0
  -34.5859  -21.8323   20.6453 C   0  0  0  0  0  0  0  0  0  0  0  0
  -18.6174  -27.2141   22.5584 C   0  0  0  0  0  0  0  0  0  0  0  0
  -23.9546  -29.7150   25.5801 C   0  0  0  0  0  0  0  0  0  0  0  0
  -22.0070  -28.1423   25.6196 C   0  0  0  0  0  0  0  0  0  0  0  0
  -21.6197  -30.6002   25.4423 C   0  0  0  0  0  0  0  0  0  0  0  0
  -20.2119  -28.1103   19.2222 C   0  0  0  0  0  0  0  0  0  0  0  0
  -32.5290  -23.5490   19.4463 C   0  0  0  0  0  0  0  0  0  0  0  0
  -28.8196  -26.4139   17.9075 C   0  0  0  0  0  0  0  0  0  1  0  0
  -22.5416  -29.3439   23.4513 C   0  0  1  0  0  0  0  0  0  0  0  0
  -19.5039  -28.0127   21.6155 C   0  0  2  0  0  0  0  0  0  0  0  0
  -22.5501  -29.4488   25.0026 C   0  0  0  0  0  0  0  0  0  0  0  0
  -25.5144  -17.1234   22.4353 N   0  0  0  0  0  0  0  0  0  0  0  0
  -25.3944  -18.0831   23.3684 N   0  0  0  0  0  0  0  0  0  0  0  0
  -31.4660  -23.7872   18.4750 N   0  0  0  0  0  0  0  0  0  0  0  0
  -24.2165  -30.4128   21.9762 N   0  0  0  0  0  0  0  0  0  0  0  0
  -26.8022  -21.0911   21.4834 N   0  0  0  0  0  0  0  0  0  0  0  0
  -24.9344  -18.4377   25.6648 N   0  0  0  0  0  0  0  0  0  0  0  0
  -24.6575  -13.9512   25.2275 N   0  0  0  0  0  0  0  0  0  0  0  0
  -29.1004  -21.1052   22.0129 N   0  0  0  0  0  0  0  0  0  0  0  0
  -26.3184  -33.2359   22.5616 N   0  0  0  0  0  0  0  0  0  0  0  0
  -21.2203  -29.1191   22.8749 N   0  0  0  0  0  0  0  0  0  0  0  0
  -19.4072  -27.4099   20.2560 N   0  3  0  0  0  0  0  0  0  0  0  0
  -32.2801  -22.1113   17.0575 O   0  0  0  0  0  0  0  0  0  0  0  0
  -30.6518  -25.5228   19.8067 O   0  0  0  0  0  0  0  0  0  0  0  0
  -24.4685  -15.6930   26.7071 O   0  0  0  0  0  0  0  0  0  0  0  0
  -26.5989  -30.9646   22.9917 O   0  0  0  0  0  0  0  0  0  0  0  0
  -22.5250  -31.6678   22.9763 O   0  0  0  0  0  0  0  0  0  0  0  0
  -21.7495  -27.1386   21.7911 O   0  0  0  0  0  0  0  0  0  0  0  0
  -28.0522  -23.0183   21.2235 O   0  0  0  0  0  0  0  0  0  0  0  0
  -25.4212  -11.0463   20.5356 O   0  0  0  0  0  0  0  0  0  0  0  0
  -27.9351  -26.4733   19.0258 O   0  0  0  0  0  0  0  0  0  1  0  0
  -21.3634   -7.4717   21.6130 F   0  0  0  0  0  0  0  0  0  0  0  0
  -23.7741  -10.1200   18.5177 F   0  0  0  0  0  0  0  0  0  0  0  0
  1  2  1  0  0  0  0
  1  5  2  0  0  0  0
  2  6  2  0  0  0  0
  3 10  2  0  0  0  0
  3 18  1  0  0  0  0
  4 11  1  0  0  0  0
  4 18  2  0  0  0  0
  5 20  1  0  0  0  0
  6 22  1  0  0  0  0
  7 12  2  0  0  0  0
  7 21  1  0  0  0  0
  8  9  2  0  0  0  0
  8 24  1  0  0  0  0
  9 26  1  0  0  0  0
 10 27  1  0  0  0  0
 11 27  2  0  0  0  0
 12 28  1  0  0  0  0
 13 14  2  0  0  0  0
 13 29  1  0  0  0  0
 14 30  1  0  0  0  0
 15 23  1  0  0  0  0
 15 28  2  0  0  0  0
 16 25  1  0  0  0  0
 16 26  2  0  0  0  0
 17 30  2  0  0  0  0
 17 31  1  0  0  0  0
 18 32  1  0  0  0  0
 19 32  1  0  0  0  0
 19 33  2  0  0  0  0
 19 36  1  0  0  0  0
 20 22  2  0  0  0  0
 20 41  1  0  0  0  0
 21 23  2  0  0  0  0
 21 42  1  0  0  0  0
 22 52  1  0  0  0  0
 23 43  1  0  0  0  0
 24 25  2  0  0  0  0
 24 56  1  0  0  0  0
 25 62  1  0  0  0  0
 26 74  1  0  0  0  0
 27 85  1  0  0  0  0
 28 86  1  0  0  0  0
 29 31  2  0  0  0  0
 29 85  1  0  0  0  0
 30 87  1  0  0  0  0
 31 88  1  0  0  0  0
 32 67  2  0  0  0  0
 33 68  1  0  0  0  0
 33 72  1  0  0  0  0
 34 44  1  0  0  0  0
 34 69  1  0  0  0  0
 34 78  2  0  0  0  0
 35 53  1  0  0  0  0
 35 69  1  0  0  0  0
 35 79  2  0  0  0  0
 36 73  1  0  0  0  0
 36 80  2  0  0  0  0
 37 54  1  0  0  0  0
 37 75  1  0  0  0  0
 37 81  2  0  0  0  0
 38 64  1  0  0  0  0
 38 70  1  0  0  0  0
 38 82  2  0  0  0  0
 39 65  1  0  0  0  0
 39 76  1  0  0  0  0
 39 83  2  0  0  0  0
 40 71  1  0  0  0  0
 40 74  1  0  0  0  0
 40 84  2  0  0  0  0
 41 45  1  0  0  0  0
 42 54  1  0  0  0  0
 43 70  1  0  0  0  0
 44 46  1  0  0  0  0
 45 48  1  0  0  0  0
 46 53  1  0  0  0  0
 47 49  1  0  0  0  0
 47 50  1  0  0  0  0
 48 52  1  0  0  0  0
 49 55  1  0  0  0  0
 50 71  1  0  0  0  0
 51 55  1  0  0  0  0
 51 71  1  0  0  0  0
 52 75  1  0  0  0  0
 53 63  1  0  0  0  0
 54 70  1  0  0  0  0
 55 68  1  0  0  0  0
 57 65  1  0  0  0  0
 58 66  1  0  0  0  0
 59 66  1  0  0  0  0
 60 66  1  0  0  0  0
 61 77  1  0  0  0  0
 62 69  1  0  0  0  0
 63 86  1  0  0  0  0
 64 66  1  0  0  0  0
 64 76  1  0  0  0  0
 65 77  1  0  0  0  0
 67 68  1  0  0  0  0
M  CHG  1  77   1
M  ISO  4  40 100  63 101  74 100  86 101
M  END
> <Batch ID>
0056

> <Smiles>
CNC(C)C(=O)NC(C(=O)N1Cc2cc([101O:1][101CH2:1]C3CCC(=O)N(Cc4cc([100NH:0][100C:0](=O)N5CCCC(n6nc(-c7ccc(Oc8ccc(F)cc8F)cc7)c(C(N)=O)c6N)C5)ccc4C)C3=O)ccc2CC1C(=O)NC1CCCc2ccccc21)C(C)(C)C

> <Shape>
0.252

> <Color>
0.090

> <Negative vol penalty>
0.000

$$$$

  -OEChem-04042322523D

 86 94  0     1  0  0  0  0  0999 V2000
  -28.4829  -23.3097   19.0893 C   0  0  0  0  0  0  0  0  0  0  0  0
  -29.3408  -22.2155   19.0445 C   0  0  0  0  0  0  0  0  0  0  0  0
  -23.2895   -9.7991   19.9144 C   0  0  0  0  0  0  0  0  0  0  0  0
  -23.7433   -9.9405   22.2832 C   0  0  0  0  0  0  0  0  0  0  0  0
  -28.9768  -24.5678   19.4316 C   0  0  0  0  0  0  0  0  0  0  0  0
  -30.6935  -22.3790   19.3409 C   0  0  0  0  0  0  0  0  0  0  0  0
  -32.4657  -18.7491   22.3950 C   0  0  0  0  0  0  0  0  0  0  0  0
  -31.6670  -12.2901   26.2195 C   0  0  0  0  0  0  0  0  0  0  0  0
  -30.8931  -12.6052   25.1026 C   0  0  0  0  0  0  0  0  0  0  0  0
  -22.5649   -8.6257   20.1233 C   0  0  0  0  0  0  0  0  0  0  0  0
  -23.0187   -8.7671   22.4921 C   0  0  0  0  0  0  0  0  0  0  0  0
  -32.7494  -17.5126   21.8166 C   0  0  0  0  0  0  0  0  0  0  0  0
  -19.7730   -7.8521   22.7140 C   0  0  0  0  0  0  0  0  0  0  0  0
  -18.8722   -7.8294   23.7787 C   0  0  0  0  0  0  0  0  0  0  0  0
  -35.0913  -18.0871   21.7514 C   0  0  0  0  0  0  0  0  0  0  0  0
  -32.8174  -12.2818   23.6780 C   0  0  0  0  0  0  0  0  0  0  0  0
  -20.0816   -5.9839   24.7627 C   0  0  0  0  0  0  0  0  0  0  0  0
  -23.8788  -10.4565   20.9943 C   0  0  0  0  0  0  0  0  0  0  0  0
  -24.1348  -12.9868   20.7951 C   0  0  0  0  0  0  0  0  0  0  0  0
  -30.3343  -24.7450   19.7417 C   0  0  0  0  0  0  0  0  0  0  0  0
  -33.4932  -19.6698   22.6464 C   0  0  0  0  0  0  0  0  0  0  0  0
  -31.2063  -23.6410   19.6863 C   0  0  0  0  0  0  0  0  0  0  0  0
  -34.8185  -19.3336   22.3354 C   0  0  0  0  0  0  0  0  0  0  0  0
  -33.0161  -11.9710   26.0657 C   0  0  0  0  0  0  0  0  0  0  0  0
  -33.5913  -11.9668   24.7949 C   0  0  0  0  0  0  0  0  0  0  0  0
  -31.4683  -12.6011   23.8319 C   0  0  0  0  0  0  0  0  0  0  0  0
  -22.4294   -8.1097   21.4121 C   0  0  0  0  0  0  0  0  0  0  0  0
  -34.0619  -17.1827   21.4921 C   0  0  0  0  0  0  0  0  0  0  0  0
  -20.8282   -6.9406   22.6737 C   0  0  0  0  0  0  0  0  0  0  0  0
  -19.0264   -6.8954   24.8030 C   0  0  0  0  0  0  0  0  0  0  0  0
  -20.9824   -6.0065   23.6980 C   0  0  0  0  0  0  0  0  0  0  0  0
  -24.6279  -11.6683   20.7791 C   0  0  0  0  0  0  0  0  0  0  0  0
  -25.2349  -13.7680   20.5385 C   0  0  0  0  0  0  0  0  0  0  0  0
  -35.7657  -13.1498   22.2482 C   0  0  0  0  0  0  0  0  0  0  0  0
  -35.5042  -13.9215   21.1838 C   0  0  0  0  0  0  0  0  0  0  0  0
  -22.8014  -13.4628   21.0217 C   0  0  0  0  0  0  0  0  0  0  0  0
  -35.6441  -11.6671   22.1407 C   0  0  0  0  0  0  0  0  0  0  0  0
  -34.1686  -22.6077   21.6384 C   0  0  0  0  0  0  0  0  0  0  0  0
  -36.5394  -22.3988   23.8425 C   0  0  0  0  0  0  0  0  0  0  0  0
  -38.6037  -20.4129   25.6977 C   0  0  0  0  0  0  0  0  0  0  0  0
  -31.0974  -12.9611   21.3663 C   0  0  0  0  0  0  0  0  0  0  0  0
  -30.8311  -26.1330   20.0601 C   0  0  0  0  0  0  0  0  0  0  0  0
  -33.1741  -20.9886   23.2954 C   0  0  0  0  0  0  0  0  0  0  0  0
  -35.9601  -20.2786   22.6037 C   0  0  0  0  0  0  0  0  0  0  0  0
  -32.2051  -26.1506   20.7250 C   0  0  0  0  0  0  0  0  0  0  0  0
  -29.4588  -13.6630   18.2842 C   0  0  0  0  0  0  0  0  0  0  0  0
  -33.1672  -25.2253   19.9869 C   0  0  0  0  0  0  0  0  0  0  0  0
  -27.9883  -13.3570   18.5774 C   0  0  0  0  0  0  0  0  0  0  0  0
  -30.3942  -12.6891   18.9985 C   0  0  0  0  0  0  0  0  0  0  0  0
  -28.7039  -12.2592   20.7384 C   0  0  0  0  0  0  0  0  0  0  0  0
  -32.6752  -23.7735   20.0254 C   0  0  1  0  0  0  0  0  0  0  0  0
  -34.2334  -22.0549   23.0341 C   0  0  1  0  0  0  0  0  0  0  0  0
  -27.7255  -13.2538   20.0927 C   0  0  2  0  0  0  0  0  0  0  0  0
  -33.8247  -11.6378   27.2763 C   0  0  0  0  0  0  0  0  0  0  0  0
  -40.4613  -20.5310   27.3808 C   0  0  0  0  0  0  0  0  0  0  0  0
  -38.4953  -23.1577   21.6270 C   0  0  0  0  0  0  0  0  0  0  0  0
  -40.3581  -22.3433   23.0882 C   0  0  0  0  0  0  0  0  0  0  0  0
  -38.9378  -24.2551   23.8303 C   0  0  0  0  0  0  0  0  0  0  0  0
  -35.1794   -9.5378   23.2925 C   0  0  0  0  0  0  0  0  0  0  0  0
  -37.0095  -18.9693   27.7307 C   0  0  0  0  0  0  0  0  0  0  0  0
  -35.0407  -11.6244   24.6049 C   0  0  0  0  0  0  0  0  0  0  0  0
  -35.6224  -15.4114   21.2026 C   0  0  0  0  0  0  0  0  0  1  0  0
  -37.9707  -21.9191   23.8308 C   0  0  1  0  0  0  0  0  0  0  0  0
  -38.9581  -20.4292   27.1737 C   0  0  2  0  0  0  0  0  0  0  0  0
  -38.9190  -22.9015   23.0871 C   0  0  0  0  0  0  0  0  0  0  0  0
  -25.9393  -11.6113   20.5318 N   0  0  0  0  0  0  0  0  0  0  0  0
  -26.2794  -12.9036   20.3899 N   0  0  0  0  0  0  0  0  0  0  0  0
  -35.5964  -21.5585   23.2338 N   0  0  0  0  0  0  0  0  0  0  0  0
  -30.0894  -12.6470   20.4303 N   0  0  0  0  0  0  0  0  0  0  0  0
  -25.4010  -15.1031   20.4276 N   0  0  0  0  0  0  0  0  0  0  0  0
  -21.7904  -12.5246   21.2706 N   0  0  0  0  0  0  0  0  0  0  0  0
  -30.6820  -12.9192   22.6968 N   0  0  0  0  0  0  0  0  0  0  0  0
  -32.9528  -23.1798   21.3157 N   0  0  0  0  0  0  0  0  0  0  0  0
  -38.3321  -21.6790   25.2237 N   0  0  0  0  0  0  0  0  0  0  0  0
  -35.2880  -10.9908   23.3110 N   0  0  0  0  0  0  0  0  0  0  0  0
  -38.4757  -19.1844   27.8359 N   0  3  0  0  0  0  0  0  0  0  0  0
  -22.5120  -14.6829   20.9876 O   0  0  0  0  0  0  0  0  0  0  0  0
  -35.8790  -11.1109   21.0669 O   0  0  0  0  0  0  0  0  0  0  0  0
  -35.1495  -22.5229   20.9088 O   0  0  0  0  0  0  0  0  0  0  0  0
  -36.2669  -23.4759   24.3783 O   0  0  0  0  0  0  0  0  0  0  0  0
  -38.5746  -19.3809   25.0309 O   0  0  0  0  0  0  0  0  0  0  0  0
  -32.2374  -13.2727   21.0123 O   0  0  0  0  0  0  0  0  0  0  0  0
  -21.7222   -6.9649   21.6164 O   0  0  0  0  0  0  0  0  0  0  0  0
  -34.3415  -15.9767   20.9268 O   0  0  0  0  0  0  0  0  0  1  0  0
  -18.1621   -6.8747   25.8261 F   0  0  0  0  0  0  0  0  0  0  0  0
  -21.9948   -5.1291   23.6654 F   0  0  0  0  0  0  0  0  0  0  0  0
  1  2  1  0  0  0  0
  1  5  2  0  0  0  0
  2  6  2  0  0  0  0
  3 10  2  0  0  0  0
  3 18  1  0  0  0  0
  4 11  1  0  0  0  0
  4 18  2  0  0  0  0
  5 20  1  0  0  0  0
  6 22  1  0  0  0  0
  7 12  2  0  0  0  0
  7 21  1  0  0  0  0
  8  9  2  0  0  0  0
  8 24  1  0  0  0  0
  9 26  1  0  0  0  0
 10 27  1  0  0  0  0
 11 27  2  0  0  0  0
 12 28  1  0  0  0  0
 13 14  2  0  0  0  0
 13 29  1  0  0  0  0
 14 30  1  0  0  0  0
 15 23  1  0  0  0  0
 15 28  2  0  0  0  0
 16 25  1  0  0  0  0
 16 26  2  0  0  0  0
 17 30  2  0  0  0  0
 17 31  1  0  0  0  0
 18 32  1  0  0  0  0
 19 32  1  0  0  0  0
 19 33  2  0  0  0  0
 19 36  1  0  0  0  0
 20 22  2  0  0  0  0
 20 42  1  0  0  0  0
 21 23  2  0  0  0  0
 21 43  1  0  0  0  0
 22 51  1  0  0  0  0
 23 44  1  0  0  0  0
 24 25  2  0  0  0  0
 24 54  1  0  0  0  0
 25 61  1  0  0  0  0
 26 72  1  0  0  0  0
 27 83  1  0  0  0  0
 28 84  1  0  0  0  0
 29 31  2  0  0  0  0
 29 83  1  0  0  0  0
 30 85  1  0  0  0  0
 31 86  1  0  0  0  0
 32 66  2  0  0  0  0
 33 67  1  0  0  0  0
 33 70  1  0  0  0  0
 34 35  2  0  0  0  0
 34 37  1  0  0  0  0
 35 62  1  0  0  0  0
 36 71  1  0  0  0  0
 36 77  2  0  0  0  0
 37 75  1  0  0  0  0
 37 78  2  0  0  0  0
 38 52  1  0  0  0  0
 38 73  1  0  0  0  0
 38 79  2  0  0  0  0
 39 63  1  0  0  0  0
 39 68  1  0  0  0  0
 39 80  2  0  0  0  0
 40 64  1  0  0  0  0
 40 74  1  0  0  0  0
 40 81  2  0  0  0  0
 41 69  1  0  0  0  0
 41 72  1  0  0  0  0
 41 82  2  0  0  0  0
 42 45  1  0  0  0  0
 43 52  1  0  0  0  0
 44 68  1  0  0  0  0
 45 47  1  0  0  0  0
 46 48  1  0  0  0  0
 46 49  1  0  0  0  0
 47 51  1  0  0  0  0
 48 53  1  0  0  0  0
 49 69  1  0  0  0  0
 50 53  1  0  0  0  0
 50 69  1  0  0  0  0
 51 73  1  0  0  0  0
 52 68  1  0  0  0  0
 53 67  1  0  0  0  0
 55 64  1  0  0  0  0
 56 65  1  0  0  0  0
 57 65  1  0  0  0  0
 58 65  1  0  0  0  0
 59 75  1  0  0  0  0
 60 76  1  0  0  0  0
 61 75  1  0  0  0  0
 62 84  1  0  0  0  0
 63 65  1  0  0  0  0
 63 74  1  0  0  0  0
 64 76  1  0  0  0  0
 66 67  1  0  0  0  0
M  CHG  1  76   1
M  ISO  4  41 100  62 101  72 100  84 101
M  END
> <Batch ID>
0056

> <Smiles>
CNC(C)C(=O)NC(C(=O)N1Cc2cc([101O:1][101CH2:1]C=CC(=O)N(C)Cc3cc([100NH:0][100C:0](=O)N4CCCC(n5nc(-c6ccc(Oc7ccc(F)cc7F)cc6)c(C(N)=O)c5N)C4)ccc3C)ccc2CC1C(=O)NC1CCCc2ccccc21)C(C)(C)C

> <Shape>
0.173

> <Color>
0.178

> <Negative vol penalty>
0.000

$$$$

  -OEChem-04042322523D

 86 94  0     1  0  0  0  0  0999 V2000
  -17.4845  -26.6173   19.7243 C   0  0  0  0  0  0  0  0  0  0  0  0
  -18.7185  -26.9414   19.1697 C   0  0  0  0  0  0  0  0  0  0  0  0
  -25.6719  -14.0608   21.1077 C   0  0  0  0  0  0  0  0  0  0  0  0
  -25.7313  -14.2513   18.6999 C   0  0  0  0  0  0  0  0  0  0  0  0
  -17.2817  -26.7513   21.0972 C   0  0  0  0  0  0  0  0  0  0  0  0
  -19.7502  -27.4008   19.9876 C   0  0  0  0  0  0  0  0  0  0  0  0
  -25.7410  -26.3241   19.3120 C   0  0  0  0  0  0  0  0  0  0  0  0
  -24.7405  -13.0278   21.0030 C   0  0  0  0  0  0  0  0  0  0  0  0
  -24.8000  -13.2182   18.5952 C   0  0  0  0  0  0  0  0  0  0  0  0
  -26.7731  -27.0795   18.7571 C   0  0  0  0  0  0  0  0  0  0  0  0
  -24.7565   -9.7221   20.2923 C   0  0  0  0  0  0  0  0  0  0  0  0
  -24.9531   -8.5895   21.0823 C   0  0  0  0  0  0  0  0  0  0  0  0
  -33.3115  -23.6746   16.5948 C   0  0  0  0  0  0  0  0  0  0  0  0
  -32.1079  -21.6289   17.0455 C   0  0  0  0  0  0  0  0  0  0  0  0
  -31.1504  -23.7568   17.6718 C   0  0  0  0  0  0  0  0  0  0  0  0
  -27.3519  -27.8911   20.9539 C   0  0  0  0  0  0  0  0  0  0  0  0
  -22.8167   -8.9617   22.1475 C   0  0  0  0  0  0  0  0  0  0  0  0
  -26.1673  -14.6726   19.9561 C   0  0  0  0  0  0  0  0  0  0  0  0
  -33.2295  -22.2834   16.5363 C   0  0  0  0  0  0  0  0  0  0  0  0
  -32.2720  -24.4113   17.1627 C   0  0  0  0  0  0  0  0  0  0  0  0
  -28.5315  -15.6216   20.0887 C   0  0  0  0  0  0  0  0  0  0  0  0
  -18.3145  -27.2033   21.9337 C   0  0  0  0  0  0  0  0  0  0  0  0
  -25.4993  -26.3550   20.6929 C   0  0  0  0  0  0  0  0  0  0  0  0
  -19.5606  -27.5422   21.3728 C   0  0  0  0  0  0  0  0  0  0  0  0
  -26.3178  -27.1332   21.5241 C   0  0  0  0  0  0  0  0  0  0  0  0
  -31.0683  -22.3655   17.6133 C   0  0  0  0  0  0  0  0  0  0  0  0
  -24.3046  -12.6064   19.7468 C   0  0  0  0  0  0  0  0  0  0  0  0
  -27.5769  -27.8655   19.5777 C   0  0  0  0  0  0  0  0  0  0  0  0
  -23.5900  -10.4745   20.4299 C   0  0  0  0  0  0  0  0  0  0  0  0
  -23.9832   -8.2092   22.0099 C   0  0  0  0  0  0  0  0  0  0  0  0
  -22.6201  -10.0943   21.3574 C   0  0  0  0  0  0  0  0  0  0  0  0
  -27.1290  -15.7402   20.0637 C   0  0  0  0  0  0  0  0  0  0  0  0
  -28.9834  -16.9137   20.2012 C   0  0  0  0  0  0  0  0  0  0  0  0
  -34.3136  -21.5151   15.9444 C   0  0  0  0  0  0  0  0  0  0  0  0
  -34.5570  -20.2007   16.1492 C   0  0  0  0  0  0  0  0  0  0  0  0
  -32.3582  -25.8841   17.2249 C   0  0  0  0  0  0  0  0  0  0  0  0
  -29.3524  -14.4483   20.0166 C   0  0  0  0  0  0  0  0  0  0  0  0
  -23.0596  -27.2494   22.5237 C   0  0  0  0  0  0  0  0  0  0  0  0
  -24.8990  -26.0255   24.8988 C   0  0  0  0  0  0  0  0  0  0  0  0
  -28.0152  -25.1911   26.0124 C   0  0  0  0  0  0  0  0  0  0  0  0
  -28.8103  -22.2802   18.7270 C   0  0  0  0  0  0  0  0  0  0  0  0
  -18.0333  -27.3769   23.4052 C   0  0  0  0  0  0  0  0  0  0  0  0
  -24.3990  -25.5135   21.2792 C   0  0  0  0  0  0  0  0  0  0  0  0
  -26.1126  -27.1852   23.0153 C   0  0  0  0  0  0  0  0  0  0  0  0
  -19.2944  -27.5139   24.2543 C   0  0  0  0  0  0  0  0  0  0  0  0
  -26.4855  -21.2018   21.1987 C   0  0  0  0  0  0  0  0  0  0  0  0
  -20.2635  -28.5034   23.6151 C   0  0  0  0  0  0  0  0  0  0  0  0
  -26.5611  -19.6750   21.1258 C   0  0  0  0  0  0  0  0  0  0  0  0
  -26.6213  -21.8428   19.8188 C   0  0  0  0  0  0  0  0  0  0  0  0
  -27.8774  -19.8967   18.9799 C   0  0  0  0  0  0  0  0  0  0  0  0
  -20.7121  -28.0201   22.2306 C   0  0  1  0  0  0  0  0  0  0  0  0
  -23.9169  -26.0204   22.6349 C   0  0  1  0  0  0  0  0  0  0  0  0
  -27.8106  -19.2088   20.3532 C   0  0  2  0  0  0  0  0  0  0  0  0
  -35.6907  -19.4532   15.5257 C   0  0  0  0  0  0  0  0  0  0  0  0
  -29.2060  -24.2462   28.0090 C   0  0  0  0  0  0  0  0  0  0  0  0
  -24.5909  -28.6955   26.3430 C   0  0  0  0  0  0  0  0  0  0  0  0
  -26.5185  -28.0485   27.8038 C   0  0  0  0  0  0  0  0  0  0  0  0
  -24.4297  -26.6850   27.8216 C   0  0  0  0  0  0  0  0  0  0  0  0
  -29.0249  -22.8810   24.4623 C   0  0  0  0  0  0  0  0  0  0  0  0
  -30.6474  -28.5750   17.8131 C   0  0  0  0  0  0  0  0  0  0  0  0
  -31.3953  -28.0678   16.5914 C   0  0  0  0  0  0  0  0  0  0  0  0
  -29.2017  -28.0964   17.8565 C   0  0  0  0  0  0  0  0  0  1  0  0
  -25.9651  -26.5742   25.8160 C   0  0  1  0  0  0  0  0  0  0  0  0
  -28.5441  -23.9325   26.6763 C   0  0  2  0  0  0  0  0  0  0  0  0
  -25.3789  -27.5015   26.9178 C   0  0  0  0  0  0  0  0  0  0  0  0
  -26.7170  -17.0076   20.1533 N   0  0  0  0  0  0  0  0  0  0  0  0
  -27.8675  -17.6972   20.2358 N   0  0  0  0  0  0  0  0  0  0  0  0
  -25.0199  -26.3497   23.5400 N   0  0  0  0  0  0  0  0  0  0  0  0
  -27.8293  -21.3576   19.1479 N   0  0  0  0  0  0  0  0  0  0  0  0
  -30.2224  -17.4448   20.2731 N   0  0  0  0  0  0  0  0  0  0  0  0
  -33.3721  -26.4260   17.8996 N   0  0  0  0  0  0  0  0  0  0  0  0
  -28.7254  -13.2000   19.9031 N   0  0  0  0  0  0  0  0  0  0  0  0
  -29.9294  -21.7000   18.1308 N   0  0  0  0  0  0  0  0  0  0  0  0
  -21.7139  -26.9834   22.3573 N   0  0  0  0  0  0  0  0  0  0  0  0
  -26.6935  -25.4201   26.3317 N   0  0  0  0  0  0  0  0  0  0  0  0
  -31.4152  -26.6049   16.6041 N   0  3  0  0  0  0  0  0  0  0  0  0
  -29.5474  -23.2664   25.7985 N   0  3  0  0  0  0  0  0  0  0  0  0
  -30.6045  -14.5039   20.0683 O   0  0  0  0  0  0  0  0  0  0  0  0
  -23.5803  -28.3569   22.5857 O   0  0  0  0  0  0  0  0  0  0  0  0
  -23.9964  -25.3287   25.3693 O   0  0  0  0  0  0  0  0  0  0  0  0
  -28.7065  -25.9021   25.2864 O   0  0  0  0  0  0  0  0  0  0  0  0
  -28.6803  -23.4936   18.9083 O   0  0  0  0  0  0  0  0  0  0  0  0
  -23.3960  -11.5983   19.6442 O   0  0  0  0  0  0  0  0  0  0  0  0
  -28.5845  -28.6043   19.0386 O   0  0  0  0  0  0  0  0  0  1  0  0
  -24.1714   -7.1207   22.7674 F   0  0  0  0  0  0  0  0  0  0  0  0
  -21.4969  -10.8125   21.4933 F   0  0  0  0  0  0  0  0  0  0  0  0
  1  2  1  0  0  0  0
  1  5  2  0  0  0  0
  2  6  2  0  0  0  0
  3  8  2  0  0  0  0
  3 18  1  0  0  0  0
  4  9  1  0  0  0  0
  4 18  2  0  0  0  0
  5 22  1  0  0  0  0
  6 24  1  0  0  0  0
  7 10  2  0  0  0  0
  7 23  1  0  0  0  0
  8 27  1  0  0  0  0
  9 27  2  0  0  0  0
 10 28  1  0  0  0  0
 11 12  2  0  0  0  0
 11 29  1  0  0  0  0
 12 30  1  0  0  0  0
 13 19  2  0  0  0  0
 13 20  1  0  0  0  0
 14 19  1  0  0  0  0
 14 26  2  0  0  0  0
 15 20  2  0  0  0  0
 15 26  1  0  0  0  0
 16 25  1  0  0  0  0
 16 28  2  0  0  0  0
 17 30  2  0  0  0  0
 17 31  1  0  0  0  0
 18 32  1  0  0  0  0
 19 34  1  0  0  0  0
 20 36  1  0  0  0  0
 21 32  1  0  0  0  0
 21 33  2  0  0  0  0
 21 37  1  0  0  0  0
 22 24  2  0  0  0  0
 22 42  1  0  0  0  0
 23 25  2  0  0  0  0
 23 43  1  0  0  0  0
 24 51  1  0  0  0  0
 25 44  1  0  0  0  0
 26 73  1  0  0  0  0
 27 83  1  0  0  0  0
 28 84  1  0  0  0  0
 29 31  2  0  0  0  0
 29 83  1  0  0  0  0
 30 85  1  0  0  0  0
 31 86  1  0  0  0  0
 32 66  2  0  0  0  0
 33 67  1  0  0  0  0
 33 70  1  0  0  0  0
 34 35  2  0  0  0  0
 35 54  1  0  0  0  0
 36 71  1  0  0  0  0
 36 76  2  0  0  0  0
 37 72  1  0  0  0  0
 37 78  2  0  0  0  0
 38 52  1  0  0  0  0
 38 74  1  0  0  0  0
 38 79  2  0  0  0  0
 39 63  1  0  0  0  0
 39 68  1  0  0  0  0
 39 80  2  0  0  0  0
 40 64  1  0  0  0  0
 40 75  1  0  0  0  0
 40 81  2  0  0  0  0
 41 69  1  0  0  0  0
 41 73  1  0  0  0  0
 41 82  2  0  0  0  0
 42 45  1  0  0  0  0
 43 52  1  0  0  0  0
 44 68  1  0  0  0  0
 45 47  1  0  0  0  0
 46 48  1  0  0  0  0
 46 49  1  0  0  0  0
 47 51  1  0  0  0  0
 48 53  1  0  0  0  0
 49 69  1  0  0  0  0
 50 53  1  0  0  0  0
 50 69  1  0  0  0  0
 51 74  1  0  0  0  0
 52 68  1  0  0  0  0
 53 67  1  0  0  0  0
 55 64  1  0  0  0  0
 56 65  1  0  0  0  0
 57 65  1  0  0  0  0
 58 65  1  0  0  0  0
 59 77  1  0  0  0  0
 60 61  1  0  0  0  0
 60 62  1  0  0  0  0
 61 76  1  0  0  0  0
 62 84  1  0  0  0  0
 63 65  1  0  0  0  0
 63 75  1  0  0  0  0
 64 77  1  0  0  0  0
 66 67  1  0  0  0  0
M  CHG  2  76   1  77   1
M  ISO  4  41 100  62 101  73 100  84 101
M  END
> <Batch ID>
0056

> <Smiles>
CC=Cc1cc([100NH:0][100C:0](=O)N2CCCC(n3nc(-c4ccc(Oc5ccc(F)cc5F)cc4)c(C(N)=O)c3N)C2)cc(C(=N)NCC[101CH2:1][101O:1]c2ccc3c(c2)CN(C(=O)C(NC(=O)C(C)NC)C(C)(C)C)C(C(=O)NC2CCCc4ccccc42)C3)c1

> <Shape>
0.214

> <Color>
0.081

> <Negative vol penalty>
0.000

$$$$

  -OEChem-04042322523D

 84 92  0     1  0  0  0  0  0999 V2000
  -27.0810  -24.5947   16.0607 C   0  0  0  0  0  0  0  0  0  0  0  0
  -26.0635  -25.4484   16.4716 C   0  0  0  0  0  0  0  0  0  0  0  0
  -23.2304  -25.2768   20.8169 C   0  0  0  0  0  0  0  0  0  0  0  0
  -24.7780  -12.6757   19.8212 C   0  0  0  0  0  0  0  0  0  0  0  0
  -25.5022  -13.8279   21.8174 C   0  0  0  0  0  0  0  0  0  0  0  0
  -28.1780  -24.3739   16.8907 C   0  0  0  0  0  0  0  0  0  0  0  0
  -26.1483  -26.0908   17.7073 C   0  0  0  0  0  0  0  0  0  0  0  0
  -22.7047  -29.4559   18.7181 C   0  0  0  0  0  0  0  0  0  0  0  0
  -22.2249  -25.2034   21.7808 C   0  0  0  0  0  0  0  0  0  0  0  0
  -23.5747  -24.1432   20.0805 C   0  0  0  0  0  0  0  0  0  0  0  0
  -25.4698  -11.5351   20.2284 C   0  0  0  0  0  0  0  0  0  0  0  0
  -26.1941  -12.6872   22.2247 C   0  0  0  0  0  0  0  0  0  0  0  0
  -21.3832  -29.1186   19.0071 C   0  0  0  0  0  0  0  0  0  0  0  0
  -25.0125   -8.9891   22.4060 C   0  0  0  0  0  0  0  0  0  0  0  0
  -24.3597   -7.7614   22.2963 C   0  0  0  0  0  0  0  0  0  0  0  0
  -21.7989  -29.5217   21.3489 C   0  0  0  0  0  0  0  0  0  0  0  0
  -21.9080  -22.8629   21.2721 C   0  0  0  0  0  0  0  0  0  0  0  0
  -26.0933   -6.9725   20.8099 C   0  0  0  0  0  0  0  0  0  0  0  0
  -24.7942  -13.8222   20.6156 C   0  0  0  0  0  0  0  0  0  0  0  0
  -22.7442  -15.3350   20.4873 C   0  0  0  0  0  0  0  0  0  0  0  0
  -28.2696  -25.0046   18.1424 C   0  0  0  0  0  0  0  0  0  0  0  0
  -23.5877  -29.8187   19.7453 C   0  0  0  0  0  0  0  0  0  0  0  0
  -27.2590  -25.8995   18.5490 C   0  0  0  0  0  0  0  0  0  0  0  0
  -23.1304  -29.8656   21.0700 C   0  0  0  0  0  0  0  0  0  0  0  0
  -21.5637  -23.9965   22.0084 C   0  0  0  0  0  0  0  0  0  0  0  0
  -22.9135  -22.9363   20.3081 C   0  0  0  0  0  0  0  0  0  0  0  0
  -26.1778  -11.5408   21.4302 C   0  0  0  0  0  0  0  0  0  0  0  0
  -20.9308  -29.1487   20.3230 C   0  0  0  0  0  0  0  0  0  0  0  0
  -26.2056   -9.2087   21.7176 C   0  0  0  0  0  0  0  0  0  0  0  0
  -24.9001   -6.7530   21.4983 C   0  0  0  0  0  0  0  0  0  0  0  0
  -26.7460   -8.2003   20.9195 C   0  0  0  0  0  0  0  0  0  0  0  0
  -24.0802  -15.0009   20.1952 C   0  0  0  0  0  0  0  0  0  0  0  0
  -22.5477  -16.5424   19.8627 C   0  0  0  0  0  0  0  0  0  0  0  0
  -21.7681  -14.6181   21.2547 C   0  0  0  0  0  0  0  0  0  0  0  0
  -26.3042  -28.6312   20.8918 C   0  0  0  0  0  0  0  0  0  0  0  0
  -26.2696  -31.3295   22.6919 C   0  0  0  0  0  0  0  0  0  0  0  0
  -19.0259  -25.8349   23.6425 C   0  0  0  0  0  0  0  0  0  0  0  0
  -24.4484  -33.8445   24.1079 C   0  0  0  0  0  0  0  0  0  0  0  0
  -24.2365  -21.6872   18.5658 C   0  0  0  0  0  0  0  0  0  0  0  0
  -29.4829  -24.7359   18.9974 C   0  0  0  0  0  0  0  0  0  0  0  0
  -25.0030  -30.2055   19.4139 C   0  0  0  0  0  0  0  0  0  0  0  0
  -24.0329  -30.2679   22.2067 C   0  0  0  0  0  0  0  0  0  0  0  0
  -29.2725  -25.1074   20.4616 C   0  0  0  0  0  0  0  0  0  0  0  0
  -25.4219  -19.0268   16.5178 C   0  0  0  0  0  0  0  0  0  0  0  0
  -28.6968  -26.5119   20.5640 C   0  0  0  0  0  0  0  0  0  0  0  0
  -25.0686  -17.7698   17.3159 C   0  0  0  0  0  0  0  0  0  0  0  0
  -25.8488  -20.1760   17.4292 C   0  0  0  0  0  0  0  0  0  0  0  0
  -24.5494  -19.2429   19.3027 C   0  0  0  0  0  0  0  0  0  0  0  0
  -27.3150  -26.5854   19.9020 C   0  0  1  0  0  0  0  0  0  0  0  0
  -25.9543  -30.0626   20.5979 C   0  0  1  0  0  0  0  0  0  0  0  0
  -24.0510  -18.0781   18.4317 C   0  0  2  0  0  0  0  0  0  0  0  0
  -24.6933  -35.8809   25.5537 C   0  0  0  0  0  0  0  0  0  0  0  0
  -26.5826  -29.5456   25.1474 C   0  0  0  0  0  0  0  0  0  0  0  0
  -25.8743  -31.4865   26.5615 C   0  0  0  0  0  0  0  0  0  0  0  0
  -27.9555  -31.6354   25.1944 C   0  0  0  0  0  0  0  0  0  0  0  0
  -23.4109  -35.6218   21.9810 C   0  0  0  0  0  0  0  0  0  0  0  0
  -20.4814  -23.9181   23.0461 C   0  0  0  0  0  0  0  0  0  0  0  0
  -17.8595  -26.6451   23.1056 C   0  0  0  0  0  0  0  0  0  0  0  0
  -18.1797  -27.3168   21.7751 C   0  0  0  0  0  0  0  0  0  0  0  0
  -19.3873  -28.2362   21.8853 C   0  0  0  0  0  0  0  0  0  1  0  0
  -25.7070  -31.7077   24.0408 C   0  0  1  0  0  0  0  0  0  0  0  0
  -24.6545  -35.3483   24.1297 C   0  0  2  0  0  0  0  0  0  0  0  0
  -26.5131  -31.0843   25.2150 C   0  0  0  0  0  0  0  0  0  0  0  0
  -24.6894  -15.9216   19.4434 N   0  0  0  0  0  0  0  0  0  0  0  0
  -23.7318  -16.8461   19.2577 N   0  0  0  0  0  0  0  0  0  0  0  0
  -25.4096  -30.6312   21.8324 N   0  0  0  0  0  0  0  0  0  0  0  0
  -24.8347  -20.4138   18.4587 N   0  0  0  0  0  0  0  0  0  0  0  0
  -21.4794  -17.3632   19.7774 N   0  0  0  0  0  0  0  0  0  0  0  0
  -22.1365  -13.3930   21.8271 N   0  0  0  0  0  0  0  0  0  0  0  0
  -23.2630  -21.7852   19.5594 N   0  0  0  0  0  0  0  0  0  0  0  0
  -26.8970  -27.9683   19.8342 N   0  0  0  0  0  0  0  0  0  0  0  0
  -19.3957  -24.8269   22.7641 N   0  0  0  0  0  0  0  0  0  0  0  0
  -25.6475  -33.1652   24.0642 N   0  0  0  0  0  0  0  0  0  0  0  0
  -23.5492  -36.0333   23.4017 N   0  3  0  0  0  0  0  0  0  0  0  0
  -20.5987  -15.0431   21.4139 O   0  0  0  0  0  0  0  0  0  0  0  0
  -26.0561  -28.1633   21.9969 O   0  0  0  0  0  0  0  0  0  0  0  0
  -27.4270  -31.6484   22.4084 O   0  0  0  0  0  0  0  0  0  0  0  0
  -19.5630  -26.0602   24.7237 O   0  0  0  0  0  0  0  0  0  0  0  0
  -23.3351  -33.3244   24.1313 O   0  0  0  0  0  0  0  0  0  0  0  0
  -24.5443  -22.6143   17.8122 O   0  0  0  0  0  0  0  0  0  0  0  0
  -26.8529  -10.4279   21.8281 O   0  0  0  0  0  0  0  0  0  0  0  0
  -19.6416  -28.8193   20.6079 O   0  0  0  0  0  0  0  0  0  1  0  0
  -24.2740   -5.5735   21.3943 F   0  0  0  0  0  0  0  0  0  0  0  0
  -27.8926   -8.4049   20.2567 F   0  0  0  0  0  0  0  0  0  0  0  0
  1  2  1  0  0  0  0
  1  6  2  0  0  0  0
  2  7  2  0  0  0  0
  3  9  2  0  0  0  0
  3 10  1  0  0  0  0
  4 11  2  0  0  0  0
  4 19  1  0  0  0  0
  5 12  1  0  0  0  0
  5 19  2  0  0  0  0
  6 21  1  0  0  0  0
  7 23  1  0  0  0  0
  8 13  2  0  0  0  0
  8 22  1  0  0  0  0
  9 25  1  0  0  0  0
 10 26  2  0  0  0  0
 11 27  1  0  0  0  0
 12 27  2  0  0  0  0
 13 28  1  0  0  0  0
 14 15  2  0  0  0  0
 14 29  1  0  0  0  0
 15 30  1  0  0  0  0
 16 24  1  0  0  0  0
 16 28  2  0  0  0  0
 17 25  2  0  0  0  0
 17 26  1  0  0  0  0
 18 30  2  0  0  0  0
 18 31  1  0  0  0  0
 19 32  1  0  0  0  0
 20 32  1  0  0  0  0
 20 33  2  0  0  0  0
 20 34  1  0  0  0  0
 21 23  2  0  0  0  0
 21 40  1  0  0  0  0
 22 24  2  0  0  0  0
 22 41  1  0  0  0  0
 23 49  1  0  0  0  0
 24 42  1  0  0  0  0
 25 57  1  0  0  0  0
 26 70  1  0  0  0  0
 27 81  1  0  0  0  0
 28 82  1  0  0  0  0
 29 31  2  0  0  0  0
 29 81  1  0  0  0  0
 30 83  1  0  0  0  0
 31 84  1  0  0  0  0
 32 64  2  0  0  0  0
 33 65  1  0  0  0  0
 33 68  1  0  0  0  0
 34 69  1  0  0  0  0
 34 75  2  0  0  0  0
 35 50  1  0  0  0  0
 35 71  1  0  0  0  0
 35 76  2  0  0  0  0
 36 61  1  0  0  0  0
 36 66  1  0  0  0  0
 36 77  2  0  0  0  0
 37 58  1  0  0  0  0
 37 72  1  0  0  0  0
 37 78  2  0  0  0  0
 38 62  1  0  0  0  0
 38 73  1  0  0  0  0
 38 79  2  0  0  0  0
 39 67  1  0  0  0  0
 39 70  1  0  0  0  0
 39 80  2  0  0  0  0
 40 43  1  0  0  0  0
 41 50  1  0  0  0  0
 42 66  1  0  0  0  0
 43 45  1  0  0  0  0
 44 46  1  0  0  0  0
 44 47  1  0  0  0  0
 45 49  1  0  0  0  0
 46 51  1  0  0  0  0
 47 67  1  0  0  0  0
 48 51  1  0  0  0  0
 48 67  1  0  0  0  0
 49 71  1  0  0  0  0
 50 66  1  0  0  0  0
 51 65  1  0  0  0  0
 52 62  1  0  0  0  0
 53 63  1  0  0  0  0
 54 63  1  0  0  0  0
 55 63  1  0  0  0  0
 56 74  1  0  0  0  0
 57 72  1  0  0  0  0
 58 59  1  0  0  0  0
 59 60  1  0  0  0  0
 60 82  1  0  0  0  0
 61 63  1  0  0  0  0
 61 73  1  0  0  0  0
 62 74  1  0  0  0  0
 64 65  1  0  0  0  0
M  CHG  1  74   1
M  ISO  4  39 100  60 101  70 100  82 101
M  END
> <Batch ID>
0056

> <Smiles>
CNC(C)C(=O)NC(C(=O)N1Cc2cc([101O:1][101CH2:1]CCC(=O)NCc3cccc([100NH:0][100C:0](=O)N4CCCC(n5nc(-c6ccc(Oc7ccc(F)cc7F)cc6)c(C(N)=O)c5N)C4)c3)ccc2CC1C(=O)NC1CCCc2ccccc21)C(C)(C)C

> <Shape>
0.246

> <Color>
0.080

> <Negative vol penalty>
0.000

$$$$

  -OEChem-04042322523D

 90 99  0     1  0  0  0  0  0999 V2000
  -27.2391  -33.0146   27.3637 C   0  0  0  0  0  0  0  0  0  0  0  0
  -27.5091  -31.9084   26.5644 C   0  0  0  0  0  0  0  0  0  0  0  0
  -22.7084  -10.1315   20.3921 C   0  0  0  0  0  0  0  0  0  0  0  0
  -24.5195   -8.8342   21.3270 C   0  0  0  0  0  0  0  0  0  0  0  0
  -25.9224  -33.4327   27.5516 C   0  0  0  0  0  0  0  0  0  0  0  0
  -26.4623  -31.2189   25.9534 C   0  0  0  0  0  0  0  0  0  0  0  0
  -27.4301  -30.1156   21.1067 C   0  0  0  0  0  0  0  0  0  0  0  0
  -28.4881  -19.2694   21.1635 C   0  0  0  0  0  0  0  0  0  0  0  0
  -28.7772  -17.9873   20.6963 C   0  0  0  0  0  0  0  0  0  0  0  0
  -21.8408   -9.6132   21.3535 C   0  0  0  0  0  0  0  0  0  0  0  0
  -23.6519   -8.3159   22.2884 C   0  0  0  0  0  0  0  0  0  0  0  0
  -28.2771  -29.0370   20.8561 C   0  0  0  0  0  0  0  0  0  0  0  0
  -21.2599   -5.9327   22.4596 C   0  0  0  0  0  0  0  0  0  0  0  0
  -21.3126   -4.5612   22.7080 C   0  0  0  0  0  0  0  0  0  0  0  0
  -26.3600  -27.6438   20.4055 C   0  0  0  0  0  0  0  0  0  0  0  0
  -26.5085  -17.7675   19.8955 C   0  0  0  0  0  0  0  0  0  0  0  0
  -21.8851   -5.0009   25.0137 C   0  0  0  0  0  0  0  0  0  0  0  0
  -24.0477   -9.7420   20.3788 C   0  0  0  0  0  0  0  0  0  0  0  0
  -24.8328  -10.1571   17.9874 C   0  0  0  0  0  0  0  0  0  0  0  0
  -24.8597  -32.7539   26.9348 C   0  0  0  0  0  0  0  0  0  0  0  0
  -26.0388  -29.9634   21.0190 C   0  0  0  0  0  0  0  0  0  0  0  0
  -25.1300  -31.6275   26.1343 C   0  0  0  0  0  0  0  0  0  0  0  0
  -25.4976  -28.7227   20.6529 C   0  0  0  0  0  0  0  0  0  0  0  0
  -27.2091  -19.8005   20.9967 C   0  0  0  0  0  0  0  0  0  0  0  0
  -26.2193  -19.0496   20.3627 C   0  0  0  0  0  0  0  0  0  0  0  0
  -27.7874  -17.2364   20.0623 C   0  0  0  0  0  0  0  0  0  0  0  0
  -22.3125   -8.7055   22.3016 C   0  0  0  0  0  0  0  0  0  0  0  0
  -27.7421  -27.8001   20.5082 C   0  0  0  0  0  0  0  0  0  0  0  0
  -21.5198   -6.8384   23.4881 C   0  0  0  0  0  0  0  0  0  0  0  0
  -21.6252   -4.0953   23.9851 C   0  0  0  0  0  0  0  0  0  0  0  0
  -21.8324   -6.3724   24.7652 C   0  0  0  0  0  0  0  0  0  0  0  0
  -24.9443  -10.2766   19.3856 C   0  0  0  0  0  0  0  0  0  0  0  0
  -25.9235  -10.8326   17.4970 C   0  0  0  0  0  0  0  0  0  0  0  0
  -28.6554  -22.9230   21.6839 C   0  0  0  0  0  0  0  0  0  0  0  0
  -23.8327   -9.4947   17.2021 C   0  0  0  0  0  0  0  0  0  0  0  0
  -23.6191  -30.2382   23.0619 C   0  0  0  0  0  0  0  0  0  0  0  0
  -21.8275  -29.7689   20.3988 C   0  0  0  0  0  0  0  0  0  0  0  0
  -21.6186  -28.5164   17.2311 C   0  0  0  0  0  0  0  0  0  0  0  0
  -29.2986  -15.2596   19.6686 C   0  0  0  0  0  0  0  0  0  0  0  0
  -23.4493  -33.2146   27.2056 C   0  0  0  0  0  0  0  0  0  0  0  0
  -25.1397  -31.1436   21.2663 C   0  0  0  0  0  0  0  0  0  0  0  0
  -24.0116  -28.5124   20.5254 C   0  0  0  0  0  0  0  0  0  0  0  0
  -29.5814  -23.8888   20.9675 C   0  0  0  0  0  0  0  0  0  0  0  0
  -22.4261  -32.6553   26.2204 C   0  0  0  0  0  0  0  0  0  0  0  0
  -30.4133  -12.0349   18.6507 C   0  0  0  0  0  0  0  0  0  0  0  0
  -22.6375  -31.1575   26.0239 C   0  0  0  0  0  0  0  0  0  0  0  0
  -29.1264  -11.2088   18.5905 C   0  0  0  0  0  0  0  0  0  0  0  0
  -28.5633  -23.3095   18.7885 C   0  0  0  0  0  0  0  0  0  0  0  0
  -30.3930  -13.0329   19.8071 C   0  0  0  0  0  0  0  0  0  0  0  0
  -27.4994  -22.4814   19.4871 C   0  0  0  0  0  0  0  0  0  0  0  0
  -27.9300  -13.0851   19.7884 C   0  0  0  0  0  0  0  0  0  0  0  0
  -24.0235  -30.8685   25.4347 C   0  0  1  0  0  0  0  0  0  0  0  0
  -23.7188  -30.7422   21.6499 C   0  0  1  0  0  0  0  0  0  0  0  0
  -29.0394  -24.4615   19.6645 C   0  0  1  0  0  0  0  0  0  0  0  0
  -27.8767  -12.1108   18.6003 C   0  0  2  0  0  0  0  0  0  0  0  0
  -20.0142  -28.2498   15.3200 C   0  0  0  0  0  0  0  0  0  0  0  0
  -20.4358  -27.4978   21.8872 C   0  0  0  0  0  0  0  0  0  0  0  0
  -19.5628  -26.6837   19.6864 C   0  0  0  0  0  0  0  0  0  0  0  0
  -18.9126  -28.9408   20.5263 C   0  0  0  0  0  0  0  0  0  0  0  0
  -23.3215  -30.1278   15.4248 C   0  0  0  0  0  0  0  0  0  0  0  0
  -26.9216  -21.1824   21.5086 C   0  0  0  0  0  0  0  0  0  0  0  0
  -27.9505  -25.5072   19.9122 C   0  0  0  0  0  0  0  0  0  1  0  0
  -21.2670  -28.5617   19.6864 C   0  0  1  0  0  0  0  0  0  0  0  0
  -21.0945  -29.1214   15.9412 C   0  0  2  0  0  0  0  0  0  0  0  0
  -24.8436  -19.5984   20.1711 C   0  0  0  0  0  0  0  0  0  0  0  0
  -20.0725  -27.9241   20.4508 C   0  0  0  0  0  0  0  0  0  0  0  0
  -26.0210  -10.9731   19.7594 N   0  0  0  0  0  0  0  0  0  0  0  0
  -26.5960  -11.2973   18.5888 N   0  0  0  0  0  0  0  0  0  0  0  0
  -27.7820  -22.1827   20.8906 N   0  0  0  0  0  0  0  0  0  0  0  0
  -23.1738  -29.6951   20.7833 N   0  0  0  0  0  0  0  0  0  0  0  0
  -29.1828  -13.8557   19.7491 N   0  0  0  0  0  0  0  0  0  0  0  0
  -26.3634  -11.0685   16.2427 N   0  0  0  0  0  0  0  0  0  0  0  0
  -22.7805   -8.8498   17.8662 N   0  0  0  0  0  0  0  0  0  0  0  0
  -28.0812  -15.9347   19.5858 N   0  0  0  0  0  0  0  0  0  0  0  0
  -24.0371  -31.1476   24.0147 N   0  0  0  0  0  0  0  0  0  0  0  0
  -20.9447  -28.9997   18.3327 N   0  0  0  0  0  0  0  0  0  0  0  0
  -22.2004  -29.2743   14.9540 N   0  3  0  0  0  0  0  0  0  0  0  0
  -28.7700  -22.7811   22.9046 O   0  0  0  0  0  0  0  0  0  0  0  0
  -23.8799   -9.4614   15.9490 O   0  0  0  0  0  0  0  0  0  0  0  0
  -23.1931  -29.1085   23.2715 O   0  0  0  0  0  0  0  0  0  0  0  0
  -21.0996  -30.7442   20.6001 O   0  0  0  0  0  0  0  0  0  0  0  0
  -22.5318  -27.6942   17.2584 O   0  0  0  0  0  0  0  0  0  0  0  0
  -30.3975  -15.8198   19.6454 O   0  0  0  0  0  0  0  0  0  0  0  0
  -21.4663   -8.1997   23.2401 O   0  0  0  0  0  0  0  0  0  0  0  0
  -28.5666  -26.7455   20.2637 O   0  0  0  0  0  0  0  0  0  1  0  0
  -21.6743   -2.7782   24.2239 F   0  0  0  0  0  0  0  0  0  0  0  0
  -22.0819   -7.2377   25.7576 F   0  0  0  0  0  0  0  0  0  0  0  0
  -23.9973  -18.7385   19.5324 F   0  0  0  0  0  0  0  0  0  0  0  0
  -24.2158  -19.9153   21.3411 F   0  0  0  0  0  0  0  0  0  0  0  0
  -24.8356  -20.7422   19.4278 F   0  0  0  0  0  0  0  0  0  0  0  0
  1  2  1  0  0  0  0
  1  5  2  0  0  0  0
  2  6  2  0  0  0  0
  3 10  2  0  0  0  0
  3 18  1  0  0  0  0
  4 11  1  0  0  0  0
  4 18  2  0  0  0  0
  5 20  1  0  0  0  0
  6 22  1  0  0  0  0
  7 12  2  0  0  0  0
  7 21  1  0  0  0  0
  8  9  2  0  0  0  0
  8 24  1  0  0  0  0
  9 26  1  0  0  0  0
 10 27  1  0  0  0  0
 11 27  2  0  0  0  0
 12 28  1  0  0  0  0
 13 14  2  0  0  0  0
 13 29  1  0  0  0  0
 14 30  1  0  0  0  0
 15 23  1  0  0  0  0
 15 28  2  0  0  0  0
 16 25  1  0  0  0  0
 16 26  2  0  0  0  0
 17 30  2  0  0  0  0
 17 31  1  0  0  0  0
 18 32  1  0  0  0  0
 19 32  1  0  0  0  0
 19 33  2  0  0  0  0
 19 35  1  0  0  0  0
 20 22  2  0  0  0  0
 20 40  1  0  0  0  0
 21 23  2  0  0  0  0
 21 41  1  0  0  0  0
 22 52  1  0  0  0  0
 23 42  1  0  0  0  0
 24 25  2  0  0  0  0
 24 61  1  0  0  0  0
 25 65  1  0  0  0  0
 26 74  1  0  0  0  0
 27 84  1  0  0  0  0
 28 85  1  0  0  0  0
 29 31  2  0  0  0  0
 29 84  1  0  0  0  0
 30 86  1  0  0  0  0
 31 87  1  0  0  0  0
 32 67  2  0  0  0  0
 33 68  1  0  0  0  0
 33 72  1  0  0  0  0
 34 43  1  0  0  0  0
 34 69  1  0  0  0  0
 34 78  2  0  0  0  0
 35 73  1  0  0  0  0
 35 79  2  0  0  0  0
 36 53  1  0  0  0  0
 36 75  1  0  0  0  0
 36 80  2  0  0  0  0
 37 63  1  0  0  0  0
 37 70  1  0  0  0  0
 37 81  2  0  0  0  0
 38 64  1  0  0  0  0
 38 76  1  0  0  0  0
 38 82  2  0  0  0  0
 39 71  1  0  0  0  0
 39 74  1  0  0  0  0
 39 83  2  0  0  0  0
 40 44  1  0  0  0  0
 41 53  1  0  0  0  0
 42 70  1  0  0  0  0
 43 54  1  0  0  0  0
 44 46  1  0  0  0  0
 45 47  1  0  0  0  0
 45 49  1  0  0  0  0
 46 52  1  0  0  0  0
 47 55  1  0  0  0  0
 48 50  1  0  0  0  0
 48 54  1  0  0  0  0
 49 71  1  0  0  0  0
 50 69  1  0  0  0  0
 51 55  1  0  0  0  0
 51 71  1  0  0  0  0
 52 75  1  0  0  0  0
 53 70  1  0  0  0  0
 54 62  1  0  0  0  0
 55 68  1  0  0  0  0
 56 64  1  0  0  0  0
 57 66  1  0  0  0  0
 58 66  1  0  0  0  0
 59 66  1  0  0  0  0
 60 77  1  0  0  0  0
 61 69  1  0  0  0  0
 62 85  1  0  0  0  0
 63 66  1  0  0  0  0
 63 76  1  0  0  0  0
 64 77  1  0  0  0  0
 65 88  1  0  0  0  0
 65 89  1  0  0  0  0
 65 90  1  0  0  0  0
 67 68  1  0  0  0  0
M  CHG  1  77   1
M  ISO  4  39 100  62 101  74 100  85 101
M  END
> <Batch ID>
0056

> <Smiles>
CNC(C)C(=O)NC(C(=O)N1Cc2cc([101O:1][101CH2:1]C3CCN(Cc4ccc([100NH:0][100C:0](=O)N5CCCC(n6nc(-c7ccc(Oc8ccc(F)cc8F)cc7)c(C(N)=O)c6N)C5)cc4C(F)(F)F)C(=O)C3)ccc2CC1C(=O)NC1CCCc2ccccc21)C(C)(C)C

> <Shape>
0.307

> <Color>
0.119

> <Negative vol penalty>
0.000

$$$$

  -OEChem-04042322523D

 84 92  0     1  0  0  0  0  0999 V2000
  -27.6820  -31.4888   22.9848 C   0  0  0  0  0  0  0  0  0  0  0  0
  -28.4014  -30.4078   22.4880 C   0  0  0  0  0  0  0  0  0  0  0  0
  -30.2094  -13.9406   19.7755 C   0  0  0  0  0  0  0  0  0  0  0  0
  -22.1716  -23.6390   20.8270 C   0  0  0  0  0  0  0  0  0  0  0  0
  -20.9234  -22.0003   22.0895 C   0  0  0  0  0  0  0  0  0  0  0  0
  -26.3148  -31.5856   22.7342 C   0  0  0  0  0  0  0  0  0  0  0  0
  -27.7563  -29.4295   21.7306 C   0  0  0  0  0  0  0  0  0  0  0  0
  -29.8507  -24.2041   19.3991 C   0  0  0  0  0  0  0  0  0  0  0  0
  -28.8387  -13.6910   19.8417 C   0  0  0  0  0  0  0  0  0  0  0  0
  -30.8191  -14.7456   20.7379 C   0  0  0  0  0  0  0  0  0  0  0  0
  -21.1086  -24.5351   20.9392 C   0  0  0  0  0  0  0  0  0  0  0  0
  -19.8604  -22.8965   22.2018 C   0  0  0  0  0  0  0  0  0  0  0  0
  -29.9367  -22.8668   19.7840 C   0  0  0  0  0  0  0  0  0  0  0  0
  -18.8661  -27.3841   21.2026 C   0  0  0  0  0  0  0  0  0  0  0  0
  -19.1640  -28.7048   21.5381 C   0  0  0  0  0  0  0  0  0  0  0  0
  -27.9123  -22.3910   18.5616 C   0  0  0  0  0  0  0  0  0  0  0  0
  -28.6872  -15.0514   21.8326 C   0  0  0  0  0  0  0  0  0  0  0  0
  -20.1526  -27.9552   23.6112 C   0  0  0  0  0  0  0  0  0  0  0  0
  -22.0790  -22.3715   21.4021 C   0  0  0  0  0  0  0  0  0  0  0  0
  -24.2624  -21.2987   22.1699 C   0  0  0  0  0  0  0  0  0  0  0  0
  -25.6511  -30.6011   21.9838 C   0  0  0  0  0  0  0  0  0  0  0  0
  -28.7871  -24.6478   18.6002 C   0  0  0  0  0  0  0  0  0  0  0  0
  -26.3818  -29.5218   21.4466 C   0  0  0  0  0  0  0  0  0  0  0  0
  -27.8164  -23.7339   18.1658 C   0  0  0  0  0  0  0  0  0  0  0  0
  -28.0776  -14.2464   20.8703 C   0  0  0  0  0  0  0  0  0  0  0  0
  -30.0580  -15.3010   21.7664 C   0  0  0  0  0  0  0  0  0  0  0  0
  -19.9530  -24.1639   21.6266 C   0  0  0  0  0  0  0  0  0  0  0  0
  -28.9659  -21.9607   19.3676 C   0  0  0  0  0  0  0  0  0  0  0  0
  -19.2114  -26.3489   22.0714 C   0  0  0  0  0  0  0  0  0  0  0  0
  -19.8072  -28.9904   22.7424 C   0  0  0  0  0  0  0  0  0  0  0  0
  -19.8546  -26.6345   23.2757 C   0  0  0  0  0  0  0  0  0  0  0  0
  -23.1765  -21.4451   21.2861 C   0  0  0  0  0  0  0  0  0  0  0  0
  -25.0208  -20.2950   21.6187 C   0  0  0  0  0  0  0  0  0  0  0  0
  -24.5589  -22.0065   23.3810 C   0  0  0  0  0  0  0  0  0  0  0  0
  -26.4233  -26.7401   18.9721 C   0  0  0  0  0  0  0  0  0  0  0  0
  -30.1087  -18.8031   20.8881 C   0  0  0  0  0  0  0  0  0  0  0  0
  -25.8546  -26.0625   15.8512 C   0  0  0  0  0  0  0  0  0  0  0  0
  -26.1713  -23.8652   13.2592 C   0  0  0  0  0  0  0  0  0  0  0  0
  -25.4429  -15.2894   19.1874 C   0  0  0  0  0  0  0  0  0  0  0  0
  -24.1716  -30.7596   21.7361 C   0  0  0  0  0  0  0  0  0  0  0  0
  -28.7233  -26.0881   18.1715 C   0  0  0  0  0  0  0  0  0  0  0  0
  -26.6656  -24.1556   17.2904 C   0  0  0  0  0  0  0  0  0  0  0  0
  -23.4979  -29.4599   21.3083 C   0  0  0  0  0  0  0  0  0  0  0  0
  -24.7474  -18.0750   17.0818 C   0  0  0  0  0  0  0  0  0  0  0  0
  -24.2857  -28.8134   20.1787 C   0  0  0  0  0  0  0  0  0  0  0  0
  -24.3605  -19.1854   18.0601 C   0  0  0  0  0  0  0  0  0  0  0  0
  -24.2455  -16.7106   17.5495 C   0  0  0  0  0  0  0  0  0  0  0  0
  -24.2550  -17.4523   19.8997 C   0  0  0  0  0  0  0  0  0  0  0  0
  -25.6955  -28.4298   20.6460 C   0  0  1  0  0  0  0  0  0  0  0  0
  -27.3172  -26.5338   17.7821 C   0  0  1  0  0  0  0  0  0  0  0  0
  -24.7875  -18.8388   19.4992 C   0  0  2  0  0  0  0  0  0  0  0  0
  -25.5727  -23.5735   10.8397 C   0  0  0  0  0  0  0  0  0  0  0  0
  -22.9755  -25.4335   16.6420 C   0  0  0  0  0  0  0  0  0  0  0  0
  -22.7002  -24.2671   14.4438 C   0  0  0  0  0  0  0  0  0  0  0  0
  -23.2154  -26.7071   14.5030 C   0  0  0  0  0  0  0  0  0  0  0  0
  -29.0149  -23.6994   12.4557 C   0  0  0  0  0  0  0  0  0  0  0  0
  -26.6120  -13.9795   20.9415 C   0  0  0  0  0  0  0  0  0  0  0  0
  -30.1536  -20.2824   20.5628 C   0  0  0  0  0  0  0  0  0  1  0  0
  -25.0194  -25.0442   15.1133 C   0  0  1  0  0  0  0  0  0  0  0  0
  -26.6254  -24.0595   11.8238 C   0  0  2  0  0  0  0  0  0  0  0  0
  -23.4982  -25.3551   15.1936 C   0  0  0  0  0  0  0  0  0  0  0  0
  -23.2361  -20.6021   20.2518 N   0  0  0  0  0  0  0  0  0  0  0  0
  -30.6724  -16.1127   22.7362 N   0  0  0  0  0  0  0  0  0  0  0  0
  -30.6944  -18.5258   22.1058 N   0  0  0  0  0  0  0  0  0  0  0  0
  -30.6793  -17.3182   22.4133 N   0  3  0  0  0  0  0  0  0  0  0  0
  -24.3687  -19.9163   20.4822 N   0  0  0  0  0  0  0  0  0  0  0  0
  -26.6436  -25.5758   16.9031 N   0  0  0  0  0  0  0  0  0  0  0  0
  -24.6862  -16.4423   18.9205 N   0  0  0  0  0  0  0  0  0  0  0  0
  -26.1753  -19.7083   22.0000 N   0  0  0  0  0  0  0  0  0  0  0  0
  -23.6737  -23.0076   23.8037 N   0  0  0  0  0  0  0  0  0  0  0  0
  -26.4760  -28.0156   19.5010 N   0  0  0  0  0  0  0  0  0  0  0  0
  -25.5475  -24.9908   13.7543 N   0  0  0  0  0  0  0  0  0  0  0  0
  -25.8251  -15.1140   20.5118 N   0  0  0  0  0  0  0  0  0  0  0  0
  -27.8866  -23.3062   11.5730 N   0  3  0  0  0  0  0  0  0  0  0  0
  -25.5872  -21.7699   24.0593 O   0  0  0  0  0  0  0  0  0  0  0  0
  -25.7355  -25.8112   19.3793 O   0  0  0  0  0  0  0  0  0  0  0  0
  -29.5985  -17.9893   20.1201 O   0  0  0  0  0  0  0  0  0  0  0  0
  -25.8140  -27.2450   15.5025 O   0  0  0  0  0  0  0  0  0  0  0  0
  -26.3488  -22.8183   13.8781 O   0  0  0  0  0  0  0  0  0  0  0  0
  -25.7593  -14.4793   18.3095 O   0  0  0  0  0  0  0  0  0  0  0  0
  -18.9157  -25.0382   21.7365 O   0  0  0  0  0  0  0  0  0  0  0  0
  -29.0471  -20.6550   19.7424 O   0  0  0  0  0  0  0  0  0  1  0  0
  -20.0946  -30.2586   23.0637 F   0  0  0  0  0  0  0  0  0  0  0  0
  -20.1899  -25.6441   24.1139 F   0  0  0  0  0  0  0  0  0  0  0  0
  1  2  1  0  0  0  0
  1  6  2  0  0  0  0
  2  7  2  0  0  0  0
  3  9  1  0  0  0  0
  3 10  2  0  0  0  0
  4 11  2  0  0  0  0
  4 19  1  0  0  0  0
  5 12  1  0  0  0  0
  5 19  2  0  0  0  0
  6 21  1  0  0  0  0
  7 23  1  0  0  0  0
  8 13  2  0  0  0  0
  8 22  1  0  0  0  0
  9 25  2  0  0  0  0
 10 26  1  0  0  0  0
 11 27  1  0  0  0  0
 12 27  2  0  0  0  0
 13 28  1  0  0  0  0
 14 15  2  0  0  0  0
 14 29  1  0  0  0  0
 15 30  1  0  0  0  0
 16 24  1  0  0  0  0
 16 28  2  0  0  0  0
 17 25  1  0  0  0  0
 17 26  2  0  0  0  0
 18 30  2  0  0  0  0
 18 31  1  0  0  0  0
 19 32  1  0  0  0  0
 20 32  1  0  0  0  0
 20 33  2  0  0  0  0
 20 34  1  0  0  0  0
 21 23  2  0  0  0  0
 21 40  1  0  0  0  0
 22 24  2  0  0  0  0
 22 41  1  0  0  0  0
 23 49  1  0  0  0  0
 24 42  1  0  0  0  0
 25 57  1  0  0  0  0
 26 63  1  0  0  0  0
 27 81  1  0  0  0  0
 28 82  1  0  0  0  0
 29 31  2  0  0  0  0
 29 81  1  0  0  0  0
 30 83  1  0  0  0  0
 31 84  1  0  0  0  0
 32 62  2  0  0  0  0
 33 66  1  0  0  0  0
 33 69  1  0  0  0  0
 34 70  1  0  0  0  0
 34 75  2  0  0  0  0
 35 50  1  0  0  0  0
 35 71  1  0  0  0  0
 35 76  2  0  0  0  0
 36 58  1  0  0  0  0
 36 64  1  0  0  0  0
 36 77  2  0  0  0  0
 37 59  1  0  0  0  0
 37 67  1  0  0  0  0
 37 78  2  0  0  0  0
 38 60  1  0  0  0  0
 38 72  1  0  0  0  0
 38 79  2  0  0  0  0
 39 68  1  0  0  0  0
 39 73  1  0  0  0  0
 39 80  2  0  0  0  0
 40 43  1  0  0  0  0
 41 50  1  0  0  0  0
 42 67  1  0  0  0  0
 43 45  1  0  0  0  0
 44 46  1  0  0  0  0
 44 47  1  0  0  0  0
 45 49  1  0  0  0  0
 46 51  1  0  0  0  0
 47 68  1  0  0  0  0
 48 51  1  0  0  0  0
 48 68  1  0  0  0  0
 49 71  1  0  0  0  0
 50 67  1  0  0  0  0
 51 66  1  0  0  0  0
 52 60  1  0  0  0  0
 53 61  1  0  0  0  0
 54 61  1  0  0  0  0
 55 61  1  0  0  0  0
 56 74  1  0  0  0  0
 57 73  1  0  0  0  0
 58 82  1  0  0  0  0
 59 61  1  0  0  0  0
 59 72  1  0  0  0  0
 60 74  1  0  0  0  0
 62 66  1  0  0  0  0
 63 65  2  0  0  0  0
 64 65  2  0  0  0  0
M  CHG  2  65   1  74   1
M  ISO  4  39 100  58 101  73 100  82 101
M  END
> <Batch ID>
0056

> <Smiles>
CNC(C)C(=O)NC(C(=O)N1Cc2cc([101O:1][101CH2:1]C(=O)N=[N+]=Nc3cccc(C[100NH:0][100C:0](=O)N4CCCC(n5nc(-c6ccc(Oc7ccc(F)cc7F)cc6)c(C(N)=O)c5N)C4)c3)ccc2CC1C(=O)NC1CCCc2ccccc21)C(C)(C)C

> <Shape>
0.221

> <Color>
0.074

> <Negative vol penalty>
0.000

$$$$

  -OEChem-04042322523D

 85 93  0     1  0  0  0  0  0999 V2000
  -33.0587  -29.5010   12.1362 C   0  0  0  0  0  0  0  0  0  0  0  0
  -32.8375  -29.0327   13.4274 C   0  0  0  0  0  0  0  0  0  0  0  0
  -22.9617   -9.9259   20.0634 C   0  0  0  0  0  0  0  0  0  0  0  0
  -23.6718  -10.0746   22.3679 C   0  0  0  0  0  0  0  0  0  0  0  0
  -32.0785  -30.2546   11.4918 C   0  0  0  0  0  0  0  0  0  0  0  0
  -31.6363  -29.3186   14.0753 C   0  0  0  0  0  0  0  0  0  0  0  0
  -29.6857  -25.2780   16.4234 C   0  0  0  0  0  0  0  0  0  0  0  0
  -22.1716   -8.8204   20.3781 C   0  0  0  0  0  0  0  0  0  0  0  0
  -22.8816   -8.9690   22.6827 C   0  0  0  0  0  0  0  0  0  0  0  0
  -30.2509  -24.9175   17.6458 C   0  0  0  0  0  0  0  0  0  0  0  0
  -23.0647   -5.6072   22.3743 C   0  0  0  0  0  0  0  0  0  0  0  0
  -23.6272   -4.6166   23.1792 C   0  0  0  0  0  0  0  0  0  0  0  0
  -28.4327  -26.0043   18.8001 C   0  0  0  0  0  0  0  0  0  0  0  0
  -31.9440  -18.4007   23.9084 C   0  0  0  0  0  0  0  0  0  0  0  0
  -32.1275  -16.5277   22.3934 C   0  0  0  0  0  0  0  0  0  0  0  0
  -29.9630  -17.4913   22.8664 C   0  0  0  0  0  0  0  0  0  0  0  0
  -21.8968   -4.9729   24.8272 C   0  0  0  0  0  0  0  0  0  0  0  0
  -23.7119  -10.5530   21.0583 C   0  0  0  0  0  0  0  0  0  0  0  0
  -24.1469  -13.0494   20.7641 C   0  0  0  0  0  0  0  0  0  0  0  0
  -30.8608  -30.5417   12.1285 C   0  0  0  0  0  0  0  0  0  0  0  0
  -28.4934  -26.0150   16.3802 C   0  0  0  0  0  0  0  0  0  0  0  0
  -30.6395  -30.0779   13.4393 C   0  0  0  0  0  0  0  0  0  0  0  0
  -27.8530  -26.3706   17.5758 C   0  0  0  0  0  0  0  0  0  0  0  0
  -32.7267  -17.4552   23.2458 C   0  0  0  0  0  0  0  0  0  0  0  0
  -30.5622  -18.4188   23.7187 C   0  0  0  0  0  0  0  0  0  0  0  0
  -30.7457  -16.5458   22.2037 C   0  0  0  0  0  0  0  0  0  0  0  0
  -22.1315   -8.3420   21.6877 C   0  0  0  0  0  0  0  0  0  0  0  0
  -29.6259  -25.2831   18.8344 C   0  0  0  0  0  0  0  0  0  0  0  0
  -21.9182   -6.2807   22.7959 C   0  0  0  0  0  0  0  0  0  0  0  0
  -23.0433   -4.2995   24.4057 C   0  0  0  0  0  0  0  0  0  0  0  0
  -21.3343   -5.9636   24.0223 C   0  0  0  0  0  0  0  0  0  0  0  0
  -24.5287  -11.6947   20.7337 C   0  0  0  0  0  0  0  0  0  0  0  0
  -25.2729  -13.7323   20.3740 C   0  0  0  0  0  0  0  0  0  0  0  0
  -29.3427  -22.5735   22.3883 C   0  0  0  0  0  0  0  0  0  0  0  0
  -29.9013  -23.7492   22.0697 C   0  0  0  0  0  0  0  0  0  0  0  0
  -22.8871  -13.6378   21.1139 C   0  0  0  0  0  0  0  0  0  0  0  0
  -30.0165  -21.6559   23.3479 C   0  0  0  0  0  0  0  0  0  0  0  0
  -27.6634  -28.8752   15.2694 C   0  0  0  0  0  0  0  0  0  0  0  0
  -24.6797  -27.8917   16.0775 C   0  0  0  0  0  0  0  0  0  0  0  0
  -22.7186  -25.8612   17.9952 C   0  0  0  0  0  0  0  0  0  0  0  0
  -30.7682  -14.5995   20.6044 C   0  0  0  0  0  0  0  0  0  0  0  0
  -29.8504  -31.4001   11.4095 C   0  0  0  0  0  0  0  0  0  0  0  0
  -27.8825  -26.3730   15.0531 C   0  0  0  0  0  0  0  0  0  0  0  0
  -26.5609  -27.1444   17.5836 C   0  0  0  0  0  0  0  0  0  0  0  0
  -28.4544  -31.3419   12.0242 C   0  0  0  0  0  0  0  0  0  0  0  0
  -29.6189  -12.0586   18.3908 C   0  0  0  0  0  0  0  0  0  0  0  0
  -28.5321  -31.4901   13.5404 C   0  0  0  0  0  0  0  0  0  0  0  0
  -28.1607  -11.8489   18.8055 C   0  0  0  0  0  0  0  0  0  0  0  0
  -30.5155  -12.3432   19.5944 C   0  0  0  0  0  0  0  0  0  0  0  0
  -28.6066  -13.2318   20.8733 C   0  0  0  0  0  0  0  0  0  0  0  0
  -29.3394  -30.3463   14.1659 C   0  0  1  0  0  0  0  0  0  0  0  0
  -26.9366  -27.5672   15.1335 C   0  0  1  0  0  0  0  0  0  0  0  0
  -27.6537  -13.0063   19.6880 C   0  0  2  0  0  0  0  0  0  0  0  0
  -34.2041  -17.4360   23.4488 C   0  0  0  0  0  0  0  0  0  0  0  0
  -20.3147  -25.3106   18.4596 C   0  0  0  0  0  0  0  0  0  0  0  0
  -24.4061  -30.4632   17.6968 C   0  0  0  0  0  0  0  0  0  0  0  0
  -22.4445  -29.4363   18.8654 C   0  0  0  0  0  0  0  0  0  0  0  0
  -22.3642  -29.8232   16.4024 C   0  0  0  0  0  0  0  0  0  0  0  0
  -23.0742  -23.0530   17.1311 C   0  0  0  0  0  0  0  0  0  0  0  0
  -29.7199  -19.4367   24.4319 C   0  0  0  0  0  0  0  0  0  0  0  0
  -29.2798  -24.7211   21.1192 C   0  0  0  0  0  0  0  0  0  1  0  0
  -23.8261  -27.9758   17.3197 C   0  0  1  0  0  0  0  0  0  0  0  0
  -21.5474  -24.9633   17.6394 C   0  0  2  0  0  0  0  0  0  0  0  0
  -23.2856  -29.4117   17.5713 C   0  0  0  0  0  0  0  0  0  0  0  0
  -25.7980  -11.5251   20.3540 N   0  0  0  0  0  0  0  0  0  0  0  0
  -26.2236  -12.7822   20.1423 N   0  0  0  0  0  0  0  0  0  0  0  0
  -26.0063  -27.4765   16.2608 N   0  0  0  0  0  0  0  0  0  0  0  0
  -29.9753  -13.4540   20.3812 N   0  0  0  0  0  0  0  0  0  0  0  0
  -25.5327  -15.0469   20.2099 N   0  0  0  0  0  0  0  0  0  0  0  0
  -21.8361  -12.7910   21.4915 N   0  0  0  0  0  0  0  0  0  0  0  0
  -30.1371  -15.6037   21.3378 N   0  0  0  0  0  0  0  0  0  0  0  0
  -29.2875  -20.4960   23.5481 N   0  0  0  0  0  0  0  0  0  0  0  0
  -28.5397  -29.1420   14.2349 N   0  0  0  0  0  0  0  0  0  0  0  0
  -22.7862  -26.9636   17.1698 N   0  0  0  0  0  0  0  0  0  0  0  0
  -21.8934  -23.5360   17.8923 N   0  3  0  0  0  0  0  0  0  0  0  0
  -22.6941  -14.8767   21.0763 O   0  0  0  0  0  0  0  0  0  0  0  0
  -31.0895  -21.9275   23.8767 O   0  0  0  0  0  0  0  0  0  0  0  0
  -27.4442  -29.5902   16.2402 O   0  0  0  0  0  0  0  0  0  0  0  0
  -24.1856  -28.1768   14.9838 O   0  0  0  0  0  0  0  0  0  0  0  0
  -23.4936  -25.6116   18.9159 O   0  0  0  0  0  0  0  0  0  0  0  0
  -31.9124  -14.6947   20.1531 O   0  0  0  0  0  0  0  0  0  0  0  0
  -21.3604   -7.2633   21.9953 O   0  0  0  0  0  0  0  0  0  0  0  0
  -30.1758  -24.9331   20.0290 O   0  0  0  0  0  0  0  0  0  1  0  0
  -23.5827   -3.3471   25.1778 F   0  0  0  0  0  0  0  0  0  0  0  0
  -20.2321   -6.6063   24.4321 F   0  0  0  0  0  0  0  0  0  0  0  0
  1  2  1  0  0  0  0
  1  5  2  0  0  0  0
  2  6  2  0  0  0  0
  3  8  2  0  0  0  0
  3 18  1  0  0  0  0
  4  9  1  0  0  0  0
  4 18  2  0  0  0  0
  5 20  1  0  0  0  0
  6 22  1  0  0  0  0
  7 10  2  0  0  0  0
  7 21  1  0  0  0  0
  8 27  1  0  0  0  0
  9 27  2  0  0  0  0
 10 28  1  0  0  0  0
 11 12  2  0  0  0  0
 11 29  1  0  0  0  0
 12 30  1  0  0  0  0
 13 23  1  0  0  0  0
 13 28  2  0  0  0  0
 14 24  2  0  0  0  0
 14 25  1  0  0  0  0
 15 24  1  0  0  0  0
 15 26  2  0  0  0  0
 16 25  2  0  0  0  0
 16 26  1  0  0  0  0
 17 30  2  0  0  0  0
 17 31  1  0  0  0  0
 18 32  1  0  0  0  0
 19 32  1  0  0  0  0
 19 33  2  0  0  0  0
 19 36  1  0  0  0  0
 20 22  2  0  0  0  0
 20 42  1  0  0  0  0
 21 23  2  0  0  0  0
 21 43  1  0  0  0  0
 22 51  1  0  0  0  0
 23 44  1  0  0  0  0
 24 54  1  0  0  0  0
 25 60  1  0  0  0  0
 26 71  1  0  0  0  0
 27 82  1  0  0  0  0
 28 83  1  0  0  0  0
 29 31  2  0  0  0  0
 29 82  1  0  0  0  0
 30 84  1  0  0  0  0
 31 85  1  0  0  0  0
 32 65  2  0  0  0  0
 33 66  1  0  0  0  0
 33 69  1  0  0  0  0
 34 35  2  0  0  0  0
 34 37  1  0  0  0  0
 35 61  1  0  0  0  0
 36 70  1  0  0  0  0
 36 76  2  0  0  0  0
 37 72  1  0  0  0  0
 37 77  2  0  0  0  0
 38 52  1  0  0  0  0
 38 73  1  0  0  0  0
 38 78  2  0  0  0  0
 39 62  1  0  0  0  0
 39 67  1  0  0  0  0
 39 79  2  0  0  0  0
 40 63  1  0  0  0  0
 40 74  1  0  0  0  0
 40 80  2  0  0  0  0
 41 68  1  0  0  0  0
 41 71  1  0  0  0  0
 41 81  2  0  0  0  0
 42 45  1  0  0  0  0
 43 52  1  0  0  0  0
 44 67  1  0  0  0  0
 45 47  1  0  0  0  0
 46 48  1  0  0  0  0
 46 49  1  0  0  0  0
 47 51  1  0  0  0  0
 48 53  1  0  0  0  0
 49 68  1  0  0  0  0
 50 53  1  0  0  0  0
 50 68  1  0  0  0  0
 51 73  1  0  0  0  0
 52 67  1  0  0  0  0
 53 66  1  0  0  0  0
 55 63  1  0  0  0  0
 56 64  1  0  0  0  0
 57 64  1  0  0  0  0
 58 64  1  0  0  0  0
 59 75  1  0  0  0  0
 60 72  1  0  0  0  0
 61 83  1  0  0  0  0
 62 64  1  0  0  0  0
 62 74  1  0  0  0  0
 63 75  1  0  0  0  0
 65 66  1  0  0  0  0
M  CHG  1  75   1
M  ISO  4  41 100  61 101  71 100  83 101
M  END
> <Batch ID>
0056

> <Smiles>
CNC(C)C(=O)NC(C(=O)N1Cc2cc([101O:1][101CH2:1]C=CC(=O)NCc3cc(C)cc([100NH:0][100C:0](=O)N4CCCC(n5nc(-c6ccc(Oc7ccc(F)cc7F)cc6)c(C(N)=O)c5N)C4)c3)ccc2CC1C(=O)NC1CCCc2ccccc21)C(C)(C)C

> <Shape>
0.217

> <Color>
0.204

> <Negative vol penalty>
0.000

$$$$

  -OEChem-04042322523D

 90 99  0     1  0  0  0  0  0999 V2000
  -28.5089  -27.5524   27.3199 C   0  0  0  0  0  0  0  0  0  0  0  0
  -27.8319  -26.9344   26.2734 C   0  0  0  0  0  0  0  0  0  0  0  0
  -23.3590  -10.7944   22.9957 C   0  0  0  0  0  0  0  0  0  0  0  0
  -23.7529   -9.4901   21.0005 C   0  0  0  0  0  0  0  0  0  0  0  0
  -28.0251  -28.7464   27.8529 C   0  0  0  0  0  0  0  0  0  0  0  0
  -26.6699  -27.5096   25.7601 C   0  0  0  0  0  0  0  0  0  0  0  0
  -26.5790  -27.5170   20.6968 C   0  0  0  0  0  0  0  0  0  0  0  0
  -22.6309   -9.7379   23.5427 C   0  0  0  0  0  0  0  0  0  0  0  0
  -23.0248   -8.4335   21.5475 C   0  0  0  0  0  0  0  0  0  0  0  0
  -26.2561  -26.3174   20.0640 C   0  0  0  0  0  0  0  0  0  0  0  0
  -19.7748   -7.6108   21.9853 C   0  0  0  0  0  0  0  0  0  0  0  0
  -18.8465   -6.9702   21.1647 C   0  0  0  0  0  0  0  0  0  0  0  0
  -23.9993  -27.1043   19.7372 C   0  0  0  0  0  0  0  0  0  0  0  0
  -28.5927  -18.6448   20.8760 C   0  0  0  0  0  0  0  0  0  0  0  0
  -29.2895  -20.0753   23.1675 C   0  0  0  0  0  0  0  0  0  0  0  0
  -20.0347   -4.8857   21.4478 C   0  0  0  0  0  0  0  0  0  0  0  0
  -23.9200  -10.6706   21.7246 C   0  0  0  0  0  0  0  0  0  0  0  0
  -24.2101  -13.0652   20.8943 C   0  0  0  0  0  0  0  0  0  0  0  0
  -26.8620  -29.3415   27.3395 C   0  0  0  0  0  0  0  0  0  0  0  0
  -25.6099  -28.5166   20.8645 C   0  0  0  0  0  0  0  0  0  0  0  0
  -26.1694  -28.7120   26.2877 C   0  0  0  0  0  0  0  0  0  0  0  0
  -24.3131  -28.3167   20.3702 C   0  0  0  0  0  0  0  0  0  0  0  0
  -29.8011  -18.3824   21.5215 C   0  0  0  0  0  0  0  0  0  0  0  0
  -28.0811  -20.3378   22.5220 C   0  0  0  0  0  0  0  0  0  0  0  0
  -27.7328  -19.6226   21.3762 C   0  0  0  0  0  0  0  0  0  0  0  0
  -22.4638   -8.5575   22.8186 C   0  0  0  0  0  0  0  0  0  0  0  0
  -24.9653  -26.1097   19.5867 C   0  0  0  0  0  0  0  0  0  0  0  0
  -20.8332   -6.8889   22.5371 C   0  0  0  0  0  0  0  0  0  0  0  0
  -18.9764   -5.6076   20.8960 C   0  0  0  0  0  0  0  0  0  0  0  0
  -30.1494  -19.0976   22.6672 C   0  0  0  0  0  0  0  0  0  0  0  0
  -20.9631   -5.5264   22.2684 C   0  0  0  0  0  0  0  0  0  0  0  0
  -24.6718  -11.7618   21.1588 C   0  0  0  0  0  0  0  0  0  0  0  0
  -25.2984  -13.7139   20.3640 C   0  0  0  0  0  0  0  0  0  0  0  0
  -24.8270  -21.3300   19.5424 C   0  0  0  0  0  0  0  0  0  0  0  0
  -23.9426  -20.1887   19.3755 C   0  0  0  0  0  0  0  0  0  0  0  0
  -26.1965  -21.1564   20.1620 C   0  0  0  0  0  0  0  0  0  0  0  0
  -23.0629  -20.0481   18.3707 C   0  0  0  0  0  0  0  0  0  0  0  0
  -24.4693  -22.5855   19.2195 C   0  0  0  0  0  0  0  0  0  0  0  0
  -22.9135  -13.6382   21.1088 C   0  0  0  0  0  0  0  0  0  0  0  0
  -24.2657  -29.9400   23.3686 C   0  0  0  0  0  0  0  0  0  0  0  0
  -22.9005  -31.7980   21.0868 C   0  0  0  0  0  0  0  0  0  0  0  0
  -21.4118  -31.3101   17.8367 C   0  0  0  0  0  0  0  0  0  0  0  0
  -30.7471  -14.9200   20.4168 C   0  0  0  0  0  0  0  0  0  0  0  0
  -26.3513  -30.6080   27.9797 C   0  0  0  0  0  0  0  0  0  0  0  0
  -25.9813  -29.8157   21.5255 C   0  0  0  0  0  0  0  0  0  0  0  0
  -23.2417  -29.3663   20.5071 C   0  0  0  0  0  0  0  0  0  0  0  0
  -24.1333  -19.1223   20.4059 C   0  0  0  0  0  0  0  0  0  0  0  0
  -25.3210  -31.3475   27.1299 C   0  0  0  0  0  0  0  0  0  0  0  0
  -29.7544  -11.9165   18.7828 C   0  0  0  0  0  0  0  0  0  0  0  0
  -24.2757  -30.3753   26.5924 C   0  0  0  0  0  0  0  0  0  0  0  0
  -28.3083  -11.7130   19.2383 C   0  0  0  0  0  0  0  0  0  0  0  0
  -25.6005  -18.7307   20.4456 C   0  0  0  0  0  0  0  0  0  0  0  0
  -30.6200  -12.5014   19.8966 C   0  0  0  0  0  0  0  0  0  0  0  0
  -28.6510  -13.5374   20.9567 C   0  0  0  0  0  0  0  0  0  0  0  0
  -24.9193  -29.3179   25.6874 C   0  0  1  0  0  0  0  0  0  0  0  0
  -24.7791  -30.5591   22.0995 C   0  0  1  0  0  0  0  0  0  0  0  0
  -27.7265  -13.0016   19.8501 C   0  0  2  0  0  0  0  0  0  0  0  0
  -27.1808  -21.3923   23.0791 C   0  0  0  0  0  0  0  0  0  0  0  0
  -21.2073  -32.8735   15.8845 C   0  0  0  0  0  0  0  0  0  0  0  0
  -20.1658  -32.4546   22.2701 C   0  0  0  0  0  0  0  0  0  0  0  0
  -19.2621  -32.5707   19.9382 C   0  0  0  0  0  0  0  0  0  0  0  0
  -21.0439  -34.1585   20.6639 C   0  0  0  0  0  0  0  0  0  0  0  0
  -22.7322  -29.3900   16.0122 C   0  0  0  0  0  0  0  0  0  0  0  0
  -30.7181  -17.3357   20.9848 C   0  0  0  0  0  0  0  0  0  0  0  0
  -25.3589  -23.7733   19.3815 C   0  0  0  0  0  0  0  0  0  1  0  0
  -21.6316  -31.7310   20.2717 C   0  0  1  0  0  0  0  0  0  0  0  0
  -21.9948  -31.7264   16.4984 C   0  0  2  0  0  0  0  0  0  0  0  0
  -20.5388  -32.7052   20.7953 C   0  0  0  0  0  0  0  0  0  0  0  0
  -25.9534  -11.5909   20.8240 N   0  0  0  0  0  0  0  0  0  0  0  0
  -26.3064  -12.7954   20.3436 N   0  0  0  0  0  0  0  0  0  0  0  0
  -26.4860  -19.8817   20.6911 N   0  0  0  0  0  0  0  0  0  0  0  0
  -23.6522  -30.6171   21.1663 N   0  0  0  0  0  0  0  0  0  0  0  0
  -30.0134  -13.7223   20.4326 N   0  0  0  0  0  0  0  0  0  0  0  0
  -25.4819  -14.9747   19.9178 N   0  0  0  0  0  0  0  0  0  0  0  0
  -21.9098  -12.8317   21.6625 N   0  0  0  0  0  0  0  0  0  0  0  0
  -25.2028  -29.8748   24.3820 N   0  0  0  0  0  0  0  0  0  0  0  0
  -22.0241  -31.9626   18.8858 N   0  0  0  0  0  0  0  0  0  0  0  0
  -30.0959  -16.0313   20.9379 N   0  0  0  0  0  0  0  0  0  0  0  0
  -21.9754  -30.5804   15.5459 N   0  3  0  0  0  0  0  0  0  0  0  0
  -26.9844  -22.1042   20.1465 O   0  0  0  0  0  0  0  0  0  0  0  0
  -22.6480  -14.8254   20.8029 O   0  0  0  0  0  0  0  0  0  0  0  0
  -23.1048  -29.5517   23.4248 O   0  0  0  0  0  0  0  0  0  0  0  0
  -23.2169  -32.8609   21.6270 O   0  0  0  0  0  0  0  0  0  0  0  0
  -20.5015  -30.4909   17.9409 O   0  0  0  0  0  0  0  0  0  0  0  0
  -31.8953  -14.9946   19.9663 O   0  0  0  0  0  0  0  0  0  0  0  0
  -21.7536   -7.5262   23.3522 O   0  0  0  0  0  0  0  0  0  0  0  0
  -24.6473  -24.9394   18.9693 O   0  0  0  0  0  0  0  0  0  1  0  0
  -18.0839   -4.9923   20.1092 F   0  0  0  0  0  0  0  0  0  0  0  0
  -31.3085  -18.8522   23.2941 F   0  0  0  0  0  0  0  0  0  0  0  0
  -21.9771   -4.8273   22.7966 F   0  0  0  0  0  0  0  0  0  0  0  0
  1  2  1  0  0  0  0
  1  5  2  0  0  0  0
  2  6  2  0  0  0  0
  3  8  2  0  0  0  0
  3 17  1  0  0  0  0
  4  9  1  0  0  0  0
  4 17  2  0  0  0  0
  5 19  1  0  0  0  0
  6 21  1  0  0  0  0
  7 10  2  0  0  0  0
  7 20  1  0  0  0  0
  8 26  1  0  0  0  0
  9 26  2  0  0  0  0
 10 27  1  0  0  0  0
 11 12  2  0  0  0  0
 11 28  1  0  0  0  0
 12 29  1  0  0  0  0
 13 22  1  0  0  0  0
 13 27  2  0  0  0  0
 14 23  2  0  0  0  0
 14 25  1  0  0  0  0
 15 24  1  0  0  0  0
 15 30  2  0  0  0  0
 16 29  2  0  0  0  0
 16 31  1  0  0  0  0
 17 32  1  0  0  0  0
 18 32  1  0  0  0  0
 18 33  2  0  0  0  0
 18 39  1  0  0  0  0
 19 21  2  0  0  0  0
 19 44  1  0  0  0  0
 20 22  2  0  0  0  0
 20 45  1  0  0  0  0
 21 55  1  0  0  0  0
 22 46  1  0  0  0  0
 23 30  1  0  0  0  0
 23 64  1  0  0  0  0
 24 25  2  0  0  0  0
 24 58  1  0  0  0  0
 25 71  1  0  0  0  0
 26 86  1  0  0  0  0
 27 87  1  0  0  0  0
 28 31  2  0  0  0  0
 28 86  1  0  0  0  0
 29 88  1  0  0  0  0
 30 89  1  0  0  0  0
 31 90  1  0  0  0  0
 32 69  2  0  0  0  0
 33 70  1  0  0  0  0
 33 74  1  0  0  0  0
 34 35  1  0  0  0  0
 34 36  1  0  0  0  0
 34 38  2  0  0  0  0
 35 37  2  0  0  0  0
 35 47  1  0  0  0  0
 36 71  1  0  0  0  0
 36 80  2  0  0  0  0
 38 65  1  0  0  0  0
 39 75  1  0  0  0  0
 39 81  2  0  0  0  0
 40 56  1  0  0  0  0
 40 76  1  0  0  0  0
 40 82  2  0  0  0  0
 41 66  1  0  0  0  0
 41 72  1  0  0  0  0
 41 83  2  0  0  0  0
 42 67  1  0  0  0  0
 42 77  1  0  0  0  0
 42 84  2  0  0  0  0
 43 73  1  0  0  0  0
 43 78  1  0  0  0  0
 43 85  2  0  0  0  0
 44 48  1  0  0  0  0
 45 56  1  0  0  0  0
 46 72  1  0  0  0  0
 47 52  1  0  0  0  0
 48 50  1  0  0  0  0
 49 51  1  0  0  0  0
 49 53  1  0  0  0  0
 50 55  1  0  0  0  0
 51 57  1  0  0  0  0
 52 71  1  0  0  0  0
 53 73  1  0  0  0  0
 54 57  1  0  0  0  0
 54 73  1  0  0  0  0
 55 76  1  0  0  0  0
 56 72  1  0  0  0  0
 57 70  1  0  0  0  0
 59 67  1  0  0  0  0
 60 68  1  0  0  0  0
 61 68  1  0  0  0  0
 62 68  1  0  0  0  0
 63 79  1  0  0  0  0
 64 78  1  0  0  0  0
 65 87  1  0  0  0  0
 66 68  1  0  0  0  0
 66 77  1  0  0  0  0
 67 79  1  0  0  0  0
 69 70  1  0  0  0  0
M  CHG  1  79   1
M  ISO  4  43 100  65 101  78 100  87 101
M  END
> <Batch ID>
0056

> <Smiles>
C=C1CCN(c2cc(C[100NH:0][100C:0](=O)N3CCCC(n4nc(-c5ccc(Oc6ccc(F)cc6F)cc5)c(C(N)=O)c4N)C3)c(F)cc2C)C(=O)C1=C[101CH2:1][101O:1]c1ccc2c(c1)CN(C(=O)C(NC(=O)C(C)NC)C(C)(C)C)C(C(=O)NC1CCCc3ccccc31)C2

> <Shape>
0.261

> <Color>
0.184

> <Negative vol penalty>
0.000

$$$$

  -OEChem-04042322523D

 89 97  0     1  0  0  0  0  0999 V2000
  -27.9256  -23.8485   17.4624 C   0  0  0  0  0  0  0  0  0  0  0  0
  -26.7267  -24.1799   18.0854 C   0  0  0  0  0  0  0  0  0  0  0  0
  -29.6817  -15.1076   19.2869 C   0  0  0  0  0  0  0  0  0  0  0  0
  -27.4404  -14.2100   19.3742 C   0  0  0  0  0  0  0  0  0  0  0  0
  -29.1319  -24.3197   17.9789 C   0  0  0  0  0  0  0  0  0  0  0  0
  -26.7335  -24.9819   19.2261 C   0  0  0  0  0  0  0  0  0  0  0  0
  -23.1901  -28.5969   19.0806 C   0  0  0  0  0  0  0  0  0  0  0  0
  -21.2176  -18.6761   22.4642 C   0  0  0  0  0  0  0  0  0  0  0  0
  -30.2024  -13.8191   19.4054 C   0  0  0  0  0  0  0  0  0  0  0  0
  -27.9611  -12.9214   19.4926 C   0  0  0  0  0  0  0  0  0  0  0  0
  -21.8796  -28.2158   19.3652 C   0  0  0  0  0  0  0  0  0  0  0  0
  -32.1211  -10.7325   19.3219 C   0  0  0  0  0  0  0  0  0  0  0  0
  -19.8499  -18.9032   22.3110 C   0  0  0  0  0  0  0  0  0  0  0  0
  -33.1727  -10.3778   18.4771 C   0  0  0  0  0  0  0  0  0  0  0  0
  -21.5217  -20.9719   23.1525 C   0  0  0  0  0  0  0  0  0  0  0  0
  -22.1266  -29.0644   21.6098 C   0  0  0  0  0  0  0  0  0  0  0  0
  -31.7676  -10.7896   16.5553 C   0  0  0  0  0  0  0  0  0  0  0  0
  -28.3007  -15.3031   19.2713 C   0  0  0  0  0  0  0  0  0  0  0  0
  -20.1540  -21.1991   22.9992 C   0  0  0  0  0  0  0  0  0  0  0  0
  -27.4425  -17.3161   17.9603 C   0  0  0  0  0  0  0  0  0  0  0  0
  -29.1528  -25.1358   19.1209 C   0  0  0  0  0  0  0  0  0  0  0  0
  -23.9837  -29.2059   20.0634 C   0  0  0  0  0  0  0  0  0  0  0  0
  -27.9413  -25.4634   19.7592 C   0  0  0  0  0  0  0  0  0  0  0  0
  -23.4461  -29.4547   21.3343 C   0  0  0  0  0  0  0  0  0  0  0  0
  -22.0535  -19.7105   22.8850 C   0  0  0  0  0  0  0  0  0  0  0  0
  -29.3421  -12.7259   19.5082 C   0  0  0  0  0  0  0  0  0  0  0  0
  -21.3486  -28.4469   20.6308 C   0  0  0  0  0  0  0  0  0  0  0  0
  -30.8927  -11.1157   18.7835 C   0  0  0  0  0  0  0  0  0  0  0  0
  -32.9960  -10.4063   17.0937 C   0  0  0  0  0  0  0  0  0  0  0  0
  -19.3181  -20.1647   22.5785 C   0  0  0  0  0  0  0  0  0  0  0  0
  -30.7160  -11.1443   17.4002 C   0  0  0  0  0  0  0  0  0  0  0  0
  -27.7622  -16.6340   19.1495 C   0  0  0  0  0  0  0  0  0  0  0  0
  -26.9696  -18.5354   18.3803 C   0  0  0  0  0  0  0  0  0  0  0  0
  -15.8562  -24.4048   24.2241 C   0  0  0  0  0  0  0  0  0  0  0  0
  -16.3915  -23.9617   23.0805 C   0  0  0  0  0  0  0  0  0  0  0  0
  -19.5907  -22.5438   23.2848 C   0  0  0  0  0  0  0  0  0  0  0  0
  -27.5621  -16.8861   16.5978 C   0  0  0  0  0  0  0  0  0  0  0  0
  -26.7012  -28.4581   21.5331 C   0  0  0  0  0  0  0  0  0  0  0  0
  -26.3766  -31.4252   22.8032 C   0  0  0  0  0  0  0  0  0  0  0  0
  -17.8607  -24.8894   21.3509 C   0  0  0  0  0  0  0  0  0  0  0  0
  -24.3080  -34.0050   23.6472 C   0  0  0  0  0  0  0  0  0  0  0  0
  -24.4111  -20.3955   23.4497 C   0  0  0  0  0  0  0  0  0  0  0  0
  -30.4847  -25.5822   19.6698 C   0  0  0  0  0  0  0  0  0  0  0  0
  -25.3867  -29.6353   19.7324 C   0  0  0  0  0  0  0  0  0  0  0  0
  -24.2499  -30.1236   22.4183 C   0  0  0  0  0  0  0  0  0  0  0  0
  -30.3780  -26.7353   20.6644 C   0  0  0  0  0  0  0  0  0  0  0  0
  -27.3845  -21.6783   21.9697 C   0  0  0  0  0  0  0  0  0  0  0  0
  -29.2691  -26.4663   21.6767 C   0  0  0  0  0  0  0  0  0  0  0  0
  -27.7863  -20.5952   20.9660 C   0  0  0  0  0  0  0  0  0  0  0  0
  -26.7913  -21.0791   23.2436 C   0  0  0  0  0  0  0  0  0  0  0  0
  -26.0842  -19.0573   22.0264 C   0  0  0  0  0  0  0  0  0  0  0  0
  -27.9058  -26.3514   20.9841 C   0  0  1  0  0  0  0  0  0  0  0  0
  -26.2733  -29.7818   20.9652 C   0  0  1  0  0  0  0  0  0  0  0  0
  -26.6270  -19.6149   20.7004 C   0  0  2  0  0  0  0  0  0  0  0  0
  -24.3278  -36.2810   24.7039 C   0  0  0  0  0  0  0  0  0  0  0  0
  -26.6628  -30.1417   25.5564 C   0  0  0  0  0  0  0  0  0  0  0  0
  -25.7416  -32.2444   26.5555 C   0  0  0  0  0  0  0  0  0  0  0  0
  -27.8858  -32.3058   25.2821 C   0  0  0  0  0  0  0  0  0  0  0  0
  -23.2811  -35.2850   21.1842 C   0  0  0  0  0  0  0  0  0  0  0  0
  -17.9201  -27.1596   20.3453 C   0  0  0  0  0  0  0  0  0  0  0  0
  -19.3291  -27.4535   19.8622 C   0  0  0  0  0  0  0  0  0  1  0  0
  -17.8212  -24.1807   22.6970 C   0  0  2  0  0  0  0  0  0  0  0  0
  -25.7103  -31.9950   24.0321 C   0  0  1  0  0  0  0  0  0  0  0  0
  -24.4101  -35.4996   23.4019 C   0  0  2  0  0  0  0  0  0  0  0  0
  -26.4853  -31.6573   25.3369 C   0  0  0  0  0  0  0  0  0  0  0  0
  -27.5136  -17.3597   20.2430 N   0  0  0  0  0  0  0  0  0  0  0  0
  -27.0328  -18.5105   19.7425 N   0  0  0  0  0  0  0  0  0  0  0  0
  -25.6187  -30.5192   22.0478 N   0  0  0  0  0  0  0  0  0  0  0  0
  -25.6960  -20.1643   22.9144 N   0  0  0  0  0  0  0  0  0  0  0  0
  -26.5103  -19.6156   17.7136 N   0  0  0  0  0  0  0  0  0  0  0  0
  -28.0667  -15.6034   16.3438 N   0  0  0  0  0  0  0  0  0  0  0  0
  -23.4428  -19.4791   23.0408 N   0  0  0  0  0  0  0  0  0  0  0  0
  -18.4664  -22.9034   22.5517 N   0  0  0  0  0  0  0  0  0  0  0  0
  -27.3995  -27.6637   20.6438 N   0  0  0  0  0  0  0  0  0  0  0  0
  -17.9173  -26.2729   21.4784 N   0  0  0  0  0  0  0  0  0  0  0  0
  -25.5509  -33.4239   23.7845 N   0  0  0  0  0  0  0  0  0  0  0  0
  -23.3063  -35.9548   22.5100 N   0  3  0  0  0  0  0  0  0  0  0  0
  -20.1415  -23.2609   24.1159 O   0  0  0  0  0  0  0  0  0  0  0  0
  -27.2467  -17.6237   15.6334 O   0  0  0  0  0  0  0  0  0  0  0  0
  -26.4199  -28.1787   22.6926 O   0  0  0  0  0  0  0  0  0  0  0  0
  -27.5246  -31.7766   22.5198 O   0  0  0  0  0  0  0  0  0  0  0  0
  -17.8082  -24.2873   20.2797 O   0  0  0  0  0  0  0  0  0  0  0  0
  -23.2331  -33.4129   23.7142 O   0  0  0  0  0  0  0  0  0  0  0  0
  -24.1803  -21.3528   24.1928 O   0  0  0  0  0  0  0  0  0  0  0  0
  -29.8499  -11.4684   19.6236 O   0  0  0  0  0  0  0  0  0  0  0  0
  -20.0699  -28.0753   20.9115 O   0  0  0  0  0  0  0  0  0  1  0  0
  -34.0064  -10.0671   16.2825 F   0  0  0  0  0  0  0  0  0  0  0  0
  -18.0024  -20.3718   22.4280 F   0  0  0  0  0  0  0  0  0  0  0  0
  -29.5385  -11.5127   16.8771 F   0  0  0  0  0  0  0  0  0  0  0  0
  1  2  1  0  0  0  0
  1  5  2  0  0  0  0
  2  6  2  0  0  0  0
  3  9  2  0  0  0  0
  3 18  1  0  0  0  0
  4 10  1  0  0  0  0
  4 18  2  0  0  0  0
  5 21  1  0  0  0  0
  6 23  1  0  0  0  0
  7 11  2  0  0  0  0
  7 22  1  0  0  0  0
  8 13  2  0  0  0  0
  8 25  1  0  0  0  0
  9 26  1  0  0  0  0
 10 26  2  0  0  0  0
 11 27  1  0  0  0  0
 12 14  2  0  0  0  0
 12 28  1  0  0  0  0
 13 30  1  0  0  0  0
 14 29  1  0  0  0  0
 15 19  1  0  0  0  0
 15 25  2  0  0  0  0
 16 24  1  0  0  0  0
 16 27  2  0  0  0  0
 17 29  2  0  0  0  0
 17 31  1  0  0  0  0
 18 32  1  0  0  0  0
 19 30  2  0  0  0  0
 19 36  1  0  0  0  0
 20 32  1  0  0  0  0
 20 33  2  0  0  0  0
 20 37  1  0  0  0  0
 21 23  2  0  0  0  0
 21 43  1  0  0  0  0
 22 24  2  0  0  0  0
 22 44  1  0  0  0  0
 23 52  1  0  0  0  0
 24 45  1  0  0  0  0
 25 72  1  0  0  0  0
 26 85  1  0  0  0  0
 27 86  1  0  0  0  0
 28 31  2  0  0  0  0
 28 85  1  0  0  0  0
 29 87  1  0  0  0  0
 30 88  1  0  0  0  0
 31 89  1  0  0  0  0
 32 66  2  0  0  0  0
 33 67  1  0  0  0  0
 33 70  1  0  0  0  0
 34 35  2  0  0  0  0
 35 62  1  0  0  0  0
 36 73  1  0  0  0  0
 36 78  2  0  0  0  0
 37 71  1  0  0  0  0
 37 79  2  0  0  0  0
 38 53  1  0  0  0  0
 38 74  1  0  0  0  0
 38 80  2  0  0  0  0
 39 63  1  0  0  0  0
 39 68  1  0  0  0  0
 39 81  2  0  0  0  0
 40 62  1  0  0  0  0
 40 75  1  0  0  0  0
 40 82  2  0  0  0  0
 41 64  1  0  0  0  0
 41 76  1  0  0  0  0
 41 83  2  0  0  0  0
 42 69  1  0  0  0  0
 42 72  1  0  0  0  0
 42 84  2  0  0  0  0
 43 46  1  0  0  0  0
 44 53  1  0  0  0  0
 45 68  1  0  0  0  0
 46 48  1  0  0  0  0
 47 49  1  0  0  0  0
 47 50  1  0  0  0  0
 48 52  1  0  0  0  0
 49 54  1  0  0  0  0
 50 69  1  0  0  0  0
 51 54  1  0  0  0  0
 51 69  1  0  0  0  0
 52 74  1  0  0  0  0
 53 68  1  0  0  0  0
 54 67  1  0  0  0  0
 55 64  1  0  0  0  0
 56 65  1  0  0  0  0
 57 65  1  0  0  0  0
 58 65  1  0  0  0  0
 59 77  1  0  0  0  0
 60 61  1  0  0  0  0
 60 75  1  0  0  0  0
 61 86  1  0  0  0  0
 62 73  1  0  0  0  0
 63 65  1  0  0  0  0
 63 76  1  0  0  0  0
 64 77  1  0  0  0  0
 66 67  1  0  0  0  0
M  CHG  1  77   1
M  ISO  4  42 100  61 101  72 100  86 101
M  END
> <Batch ID>
0056

> <Smiles>
C=CC(NC(=O)c1cc([100NH:0][100C:0](=O)N2CCCC(n3nc(-c4ccc(Oc5ccc(F)cc5F)cc4)c(C(N)=O)c3N)C2)ccc1F)C(=O)NC[101CH2:1][101O:1]c1ccc2c(c1)CN(C(=O)C(NC(=O)C(C)NC)C(C)(C)C)C(C(=O)NC1CCCc3ccccc31)C2

> <Shape>
0.246

> <Color>
0.050

> <Negative vol penalty>
0.000

$$$$

  -OEChem-04042322523D

 90 99  0     1  0  0  0  0  0999 V2000
  -18.4934  -26.1777   22.6854 C   0  0  0  0  0  0  0  0  0  0  0  0
  -19.4901  -26.2820   21.7206 C   0  0  0  0  0  0  0  0  0  0  0  0
  -27.3519  -14.9500   20.0935 C   0  0  0  0  0  0  0  0  0  0  0  0
  -27.2040  -14.5402   22.4698 C   0  0  0  0  0  0  0  0  0  0  0  0
  -18.0624  -27.3153   23.3666 C   0  0  0  0  0  0  0  0  0  0  0  0
  -20.0558  -27.5242   21.4355 C   0  0  0  0  0  0  0  0  0  0  0  0
  -25.1033  -27.3245   21.0777 C   0  0  0  0  0  0  0  0  0  0  0  0
  -29.4842  -26.6234   22.2459 C   0  0  0  0  0  0  0  0  0  0  0  0
  -28.5466  -25.6017   22.3960 C   0  0  0  0  0  0  0  0  0  0  0  0
  -26.8843  -13.6603   19.8419 C   0  0  0  0  0  0  0  0  0  0  0  0
  -26.7363  -13.2504   22.2183 C   0  0  0  0  0  0  0  0  0  0  0  0
  -25.6381  -26.8174   19.8942 C   0  0  0  0  0  0  0  0  0  0  0  0
  -28.0356  -10.2585   21.3285 C   0  0  0  0  0  0  0  0  0  0  0  0
  -28.5871   -9.2132   22.0693 C   0  0  0  0  0  0  0  0  0  0  0  0
  -26.0419  -29.0663   19.1203 C   0  0  0  0  0  0  0  0  0  0  0  0
  -29.2712  -24.6297   20.3062 C   0  0  0  0  0  0  0  0  0  0  0  0
  -26.3994   -8.6790   22.9443 C   0  0  0  0  0  0  0  0  0  0  0  0
  -27.5119  -15.3900   21.4075 C   0  0  0  0  0  0  0  0  0  0  0  0
  -29.2288  -17.2717   21.2697 C   0  0  0  0  0  0  0  0  0  0  0  0
  -18.6298  -28.5706   23.0966 C   0  0  0  0  0  0  0  0  0  0  0  0
  -25.0236  -28.7087   21.2871 C   0  0  0  0  0  0  0  0  0  0  0  0
  -19.6311  -28.6799   22.1127 C   0  0  0  0  0  0  0  0  0  0  0  0
  -25.5080  -29.5883   20.3084 C   0  0  0  0  0  0  0  0  0  0  0  0
  -30.3153  -26.6484   21.1259 C   0  0  0  0  0  0  0  0  0  0  0  0
  -30.2088  -25.6515   20.1560 C   0  0  0  0  0  0  0  0  0  0  0  0
  -28.4401  -24.6048   21.4262 C   0  0  0  0  0  0  0  0  0  0  0  0
  -26.5764  -12.8104   20.9043 C   0  0  0  0  0  0  0  0  0  0  0  0
  -26.1049  -27.6884   18.9141 C   0  0  0  0  0  0  0  0  0  0  0  0
  -26.6659  -10.5142   21.3958 C   0  0  0  0  0  0  0  0  0  0  0  0
  -27.7690   -8.4234   22.8771 C   0  0  0  0  0  0  0  0  0  0  0  0
  -25.8479   -9.7244   22.2036 C   0  0  0  0  0  0  0  0  0  0  0  0
  -27.9955  -16.7220   21.6680 C   0  0  0  0  0  0  0  0  0  0  0  0
  -29.2069  -18.5548   21.7592 C   0  0  0  0  0  0  0  0  0  0  0  0
  -29.2351  -26.0999   17.3892 C   0  0  0  0  0  0  0  0  0  0  0  0
  -30.2986  -16.6757   20.5240 C   0  0  0  0  0  0  0  0  0  0  0  0
  -22.6522  -30.7753   21.7450 C   0  0  0  0  0  0  0  0  0  0  0  0
  -25.0863  -32.8611   22.2422 C   0  0  0  0  0  0  0  0  0  0  0  0
  -28.2949  -33.5674   20.7511 C   0  0  0  0  0  0  0  0  0  0  0  0
  -26.5898  -23.3916   22.6307 C   0  0  0  0  0  0  0  0  0  0  0  0
  -18.0982  -29.7795   23.8251 C   0  0  0  0  0  0  0  0  0  0  0  0
  -24.4684  -29.2393   22.5805 C   0  0  0  0  0  0  0  0  0  0  0  0
  -25.4637  -31.0824   20.4931 C   0  0  0  0  0  0  0  0  0  0  0  0
  -19.0118  -30.9987   23.7297 C   0  0  0  0  0  0  0  0  0  0  0  0
  -30.6467  -28.4762   16.3986 C   0  0  0  0  0  0  0  0  0  0  0  0
  -26.0226  -20.7917   24.9962 C   0  0  0  0  0  0  0  0  0  0  0  0
  -19.4747  -31.2077   22.2914 C   0  0  0  0  0  0  0  0  0  0  0  0
  -29.6050  -27.8019   15.5272 C   0  0  0  0  0  0  0  0  0  0  0  0
  -26.5868  -19.5463   24.3085 C   0  0  0  0  0  0  0  0  0  0  0  0
  -31.3665  -27.4335   17.2320 C   0  0  0  0  0  0  0  0  0  0  0  0
  -25.3465  -21.7323   24.0003 C   0  0  0  0  0  0  0  0  0  0  0  0
  -26.7360  -20.8673   22.1591 C   0  0  0  0  0  0  0  0  0  0  0  0
  -20.2865  -30.0060   21.7930 C   0  0  1  0  0  0  0  0  0  0  0  0
  -28.5926  -27.0408   16.3759 C   0  0  2  0  0  0  0  0  0  0  0  0
  -23.9644  -30.6750   22.4701 C   0  0  1  0  0  0  0  0  0  0  0  0
  -27.4838  -19.9208   23.1123 C   0  0  2  0  0  0  0  0  0  0  0  0
  -31.3109  -27.7529   20.9866 C   0  0  0  0  0  0  0  0  0  0  0  0
  -32.0970  -23.3449   19.4050 C   0  0  0  0  0  0  0  0  0  0  0  0
  -30.3693  -34.5723   21.7433 C   0  0  0  0  0  0  0  0  0  0  0  0
  -23.9773  -35.4920   21.1659 C   0  0  0  0  0  0  0  0  0  0  0  0
  -26.3165  -36.1516   20.5647 C   0  0  0  0  0  0  0  0  0  0  0  0
  -25.7117  -35.7431   22.9501 C   0  0  0  0  0  0  0  0  0  0  0  0
  -29.9487  -31.2554   19.9276 C   0  0  0  0  0  0  0  0  0  0  0  0
  -27.6353  -27.9760   17.1166 C   0  0  0  0  0  0  0  0  0  1  0  0
  -31.3966  -24.2429   18.3918 C   0  0  0  0  0  0  0  0  0  0  0  0
  -25.9011  -33.7817   21.3661 C   0  0  1  0  0  0  0  0  0  0  0  0
  -29.6591  -33.2851   21.3541 C   0  0  2  0  0  0  0  0  0  0  0  0
  -31.1042  -25.6568   18.9294 C   0  0  1  0  0  0  0  0  0  0  0  0
  -25.4653  -35.2680   21.5015 C   0  0  0  0  0  0  0  0  0  0  0  0
  -27.2449  -17.5853   22.3575 N   0  0  0  0  0  0  0  0  0  0  0  0
  -28.0087  -18.6904   22.3963 N   0  0  0  0  0  0  0  0  0  0  0  0
  -30.4893  -26.4600   17.8809 N   0  0  0  0  0  0  0  0  0  0  0  0
  -24.9061  -31.5525   21.7720 N   0  0  0  0  0  0  0  0  0  0  0  0
  -26.2570  -22.0466   22.8971 N   0  0  0  0  0  0  0  0  0  0  0  0
  -30.0960  -19.5691   21.7024 N   0  0  0  0  0  0  0  0  0  0  0  0
  -31.3104  -16.0064   21.2258 N   0  0  0  0  0  0  0  0  0  0  0  0
  -27.4892  -23.5656   21.5792 N   0  0  0  0  0  0  0  0  0  0  0  0
  -21.6311  -30.0481   22.3265 N   0  0  0  0  0  0  0  0  0  0  0  0
  -27.2988  -33.5356   21.7040 N   0  0  0  0  0  0  0  0  0  0  0  0
  -30.5151  -32.5526   20.3786 N   0  3  0  0  0  0  0  0  0  0  0  0
  -28.5937  -25.1237   17.7898 O   0  0  0  0  0  0  0  0  0  0  0  0
  -30.3641  -16.7491   19.2734 O   0  0  0  0  0  0  0  0  0  0  0  0
  -22.5717  -31.4628   20.7338 O   0  0  0  0  0  0  0  0  0  0  0  0
  -24.6326  -33.2852   23.3079 O   0  0  0  0  0  0  0  0  0  0  0  0
  -28.1299  -33.7972   19.5551 O   0  0  0  0  0  0  0  0  0  0  0  0
  -26.1333  -24.3188   23.3044 O   0  0  0  0  0  0  0  0  0  0  0  0
  -26.1198  -11.5519   20.6591 O   0  0  0  0  0  0  0  0  0  0  0  0
  -26.6268  -27.1962   17.7577 O   0  0  0  0  0  0  0  0  0  1  0  0
  -28.2985   -7.4187   23.5872 F   0  0  0  0  0  0  0  0  0  0  0  0
  -24.5312   -9.9644   22.2713 F   0  0  0  0  0  0  0  0  0  0  0  0
  -32.3221  -26.2293   19.1863 F   0  0  0  0  0  0  0  0  0  0  0  0
  1  2  1  0  0  0  0
  1  5  2  0  0  0  0
  2  6  2  0  0  0  0
  3 10  2  0  0  0  0
  3 18  1  0  0  0  0
  4 11  1  0  0  0  0
  4 18  2  0  0  0  0
  5 20  1  0  0  0  0
  6 22  1  0  0  0  0
  7 12  2  0  0  0  0
  7 21  1  0  0  0  0
  8  9  2  0  0  0  0
  8 24  1  0  0  0  0
  9 26  1  0  0  0  0
 10 27  1  0  0  0  0
 11 27  2  0  0  0  0
 12 28  1  0  0  0  0
 13 14  2  0  0  0  0
 13 29  1  0  0  0  0
 14 30  1  0  0  0  0
 15 23  1  0  0  0  0
 15 28  2  0  0  0  0
 16 25  1  0  0  0  0
 16 26  2  0  0  0  0
 17 30  2  0  0  0  0
 17 31  1  0  0  0  0
 18 32  1  0  0  0  0
 19 32  1  0  0  0  0
 19 33  2  0  0  0  0
 19 35  1  0  0  0  0
 20 22  2  0  0  0  0
 20 40  1  0  0  0  0
 21 23  2  0  0  0  0
 21 41  1  0  0  0  0
 22 52  1  0  0  0  0
 23 42  1  0  0  0  0
 24 25  2  0  0  0  0
 24 56  1  0  0  0  0
 25 67  1  0  0  0  0
 26 76  1  0  0  0  0
 27 86  1  0  0  0  0
 28 87  1  0  0  0  0
 29 31  2  0  0  0  0
 29 86  1  0  0  0  0
 30 88  1  0  0  0  0
 31 89  1  0  0  0  0
 32 69  2  0  0  0  0
 33 70  1  0  0  0  0
 33 74  1  0  0  0  0
 34 53  1  0  0  0  0
 34 71  1  0  0  0  0
 34 80  2  0  0  0  0
 35 75  1  0  0  0  0
 35 81  2  0  0  0  0
 36 54  1  0  0  0  0
 36 77  1  0  0  0  0
 36 82  2  0  0  0  0
 37 65  1  0  0  0  0
 37 72  1  0  0  0  0
 37 83  2  0  0  0  0
 38 66  1  0  0  0  0
 38 78  1  0  0  0  0
 38 84  2  0  0  0  0
 39 73  1  0  0  0  0
 39 76  1  0  0  0  0
 39 85  2  0  0  0  0
 40 43  1  0  0  0  0
 41 54  1  0  0  0  0
 42 72  1  0  0  0  0
 43 46  1  0  0  0  0
 44 47  1  0  0  0  0
 44 49  1  0  0  0  0
 45 48  1  0  0  0  0
 45 50  1  0  0  0  0
 46 52  1  0  0  0  0
 47 53  1  0  0  0  0
 48 55  1  0  0  0  0
 49 71  1  0  0  0  0
 50 73  1  0  0  0  0
 51 55  1  0  0  0  0
 51 73  1  0  0  0  0
 52 77  1  0  0  0  0
 53 63  1  0  0  0  0
 54 72  1  0  0  0  0
 55 70  1  0  0  0  0
 57 64  1  0  0  0  0
 58 66  1  0  0  0  0
 59 68  1  0  0  0  0
 60 68  1  0  0  0  0
 61 68  1  0  0  0  0
 62 79  1  0  0  0  0
 63 87  1  0  0  0  0
 64 67  1  0  0  0  0
 65 68  1  0  0  0  0
 65 78  1  0  0  0  0
 66 79  1  0  0  0  0
 67 71  1  0  0  0  0
 67 90  1  0  0  0  0
 69 70  1  0  0  0  0
M  CHG  1  79   1
M  ISO  4  39 100  63 101  76 100  87 101
M  END
> <Batch ID>
0056

> <Smiles>
CCC(F)(c1cc([100NH:0][100C:0](=O)N2CCCC(n3nc(-c4ccc(Oc5ccc(F)cc5F)cc4)c(C(N)=O)c3N)C2)ccc1C)N1CCCC([101CH2:1][101O:1]c2ccc3c(c2)CN(C(=O)C(NC(=O)C(C)NC)C(C)(C)C)C(C(=O)NC2CCCc4ccccc42)C3)C1=O

> <Shape>
0.253

> <Color>
0.083

> <Negative vol penalty>
0.000

$$$$

  -OEChem-04042322523D

 85 93  0     1  0  0  0  0  0999 V2000
  -29.3854  -23.6344   17.7267 C   0  0  0  0  0  0  0  0  0  0  0  0
  -28.2260  -23.7105   18.4919 C   0  0  0  0  0  0  0  0  0  0  0  0
  -28.3664  -14.6035   20.6878 C   0  0  0  0  0  0  0  0  0  0  0  0
  -26.1708  -15.6083   20.7714 C   0  0  0  0  0  0  0  0  0  0  0  0
  -30.4685  -24.4618   18.0203 C   0  0  0  0  0  0  0  0  0  0  0  0
  -28.1495  -24.6133   19.5518 C   0  0  0  0  0  0  0  0  0  0  0  0
  -23.7572  -27.1319   19.6455 C   0  0  0  0  0  0  0  0  0  0  0  0
  -27.7843  -13.3406   20.5785 C   0  0  0  0  0  0  0  0  0  0  0  0
  -25.5887  -14.3454   20.6620 C   0  0  0  0  0  0  0  0  0  0  0  0
  -22.6466  -26.4567   20.1499 C   0  0  0  0  0  0  0  0  0  0  0  0
  -24.9525  -11.7118   22.6845 C   0  0  0  0  0  0  0  0  0  0  0  0
  -23.8884  -11.4129   23.5352 C   0  0  0  0  0  0  0  0  0  0  0  0
  -23.6156  -22.8019   27.6003 C   0  0  0  0  0  0  0  0  0  0  0  0
  -22.9198  -27.5954   22.2589 C   0  0  0  0  0  0  0  0  0  0  0  0
  -25.9715  -22.2769   27.4934 C   0  0  0  0  0  0  0  0  0  0  0  0
  -22.4582  -11.0564   21.6209 C   0  0  0  0  0  0  0  0  0  0  0  0
  -27.5597  -15.7373   20.7843 C   0  0  0  0  0  0  0  0  0  0  0  0
  -23.4806  -22.4707   26.2522 C   0  0  0  0  0  0  0  0  0  0  0  0
  -28.5166  -17.9083   19.8469 C   0  0  0  0  0  0  0  0  0  0  0  0
  -30.4017  -25.3820   19.0783 C   0  0  0  0  0  0  0  0  0  0  0  0
  -24.4651  -28.0374   20.4488 C   0  0  0  0  0  0  0  0  0  0  0  0
  -29.2333  -25.4528   19.8607 C   0  0  0  0  0  0  0  0  0  0  0  0
  -24.0374  -28.2828   21.7615 C   0  0  0  0  0  0  0  0  0  0  0  0
  -24.5910  -22.0425   25.5246 C   0  0  0  0  0  0  0  0  0  0  0  0
  -25.8365  -21.9456   26.1452 C   0  0  0  0  0  0  0  0  0  0  0  0
  -26.3955  -13.2116   20.5655 C   0  0  0  0  0  0  0  0  0  0  0  0
  -22.2295  -26.6862   21.4578 C   0  0  0  0  0  0  0  0  0  0  0  0
  -24.7695  -11.6832   21.3019 C   0  0  0  0  0  0  0  0  0  0  0  0
  -22.6412  -11.0851   23.0035 C   0  0  0  0  0  0  0  0  0  0  0  0
  -24.8611  -22.7051   28.2210 C   0  0  0  0  0  0  0  0  0  0  0  0
  -23.5223  -11.3554   20.7702 C   0  0  0  0  0  0  0  0  0  0  0  0
  -28.1603  -17.0421   20.8978 C   0  0  0  0  0  0  0  0  0  0  0  0
  -29.0439  -19.0105   20.4742 C   0  0  0  0  0  0  0  0  0  0  0  0
  -22.1408  -22.5839   25.6203 C   0  0  0  0  0  0  0  0  0  0  0  0
  -28.3826  -17.7324   18.4302 C   0  0  0  0  0  0  0  0  0  0  0  0
  -27.4403  -28.2035   21.5553 C   0  0  0  0  0  0  0  0  0  0  0  0
  -26.4672  -31.1089   22.6203 C   0  0  0  0  0  0  0  0  0  0  0  0
  -23.8860  -33.1370   23.5535 C   0  0  0  0  0  0  0  0  0  0  0  0
  -28.2778  -21.3702   25.9101 C   0  0  0  0  0  0  0  0  0  0  0  0
  -31.6154  -26.2223   19.3873 C   0  0  0  0  0  0  0  0  0  0  0  0
  -25.6449  -28.7777   19.8811 C   0  0  0  0  0  0  0  0  0  0  0  0
  -24.7508  -29.2602   22.6583 C   0  0  0  0  0  0  0  0  0  0  0  0
  -31.3164  -27.4148   20.2921 C   0  0  0  0  0  0  0  0  0  0  0  0
  -31.3519  -20.3001   24.4672 C   0  0  0  0  0  0  0  0  0  0  0  0
  -30.4552  -26.9844   21.4753 C   0  0  0  0  0  0  0  0  0  0  0  0
  -30.9147  -19.4270   23.2888 C   0  0  0  0  0  0  0  0  0  0  0  0
  -30.4223  -20.1382   25.6686 C   0  0  0  0  0  0  0  0  0  0  0  0
  -28.5591  -19.4667   24.2034 C   0  0  0  0  0  0  0  0  0  0  0  0
  -29.1029  -26.4367   21.0031 C   0  0  1  0  0  0  0  0  0  0  0  0
  -26.5991  -29.2936   20.9539 C   0  0  1  0  0  0  0  0  0  0  0  0
  -29.4276  -19.6447   22.9474 C   0  0  2  0  0  0  0  0  0  0  0  0
  -24.4447  -21.6868   24.0777 C   0  0  0  0  0  0  0  0  0  0  0  0
  -23.4059  -35.4456   24.4120 C   0  0  0  0  0  0  0  0  0  0  0  0
  -27.4262  -30.2743   25.3940 C   0  0  0  0  0  0  0  0  0  0  0  0
  -26.0895  -32.1638   26.3484 C   0  0  0  0  0  0  0  0  0  0  0  0
  -27.9636  -32.6360   24.7713 C   0  0  0  0  0  0  0  0  0  0  0  0
  -22.2566  -33.8080   21.1758 C   0  0  0  0  0  0  0  0  0  0  0  0
  -20.3241  -24.4952   23.6061 C   0  0  0  0  0  0  0  0  0  0  0  0
  -20.2636  -24.1133   25.0790 C   0  0  0  0  0  0  0  0  0  0  0  0
  -21.1325  -25.7623   23.3549 C   0  0  0  0  0  0  0  0  0  1  0  0
  -25.8233  -31.6233   23.8851 C   0  0  1  0  0  0  0  0  0  0  0  0
  -23.5422  -34.5672   23.1782 C   0  0  2  0  0  0  0  0  0  0  0  0
  -26.8132  -31.6544   25.0837 C   0  0  0  0  0  0  0  0  0  0  0  0
  -28.4381  -17.5502   22.1015 N   0  0  0  0  0  0  0  0  0  0  0  0
  -28.9746  -18.7476   21.8107 N   0  0  0  0  0  0  0  0  0  0  0  0
  -25.9026  -29.9546   22.0594 N   0  0  0  0  0  0  0  0  0  0  0  0
  -29.0309  -20.3631   25.2705 N   0  0  0  0  0  0  0  0  0  0  0  0
  -29.5557  -20.1693   20.0074 N   0  0  0  0  0  0  0  0  0  0  0  0
  -27.8197  -16.5400   17.9553 N   0  0  0  0  0  0  0  0  0  0  0  0
  -26.9781  -21.5139   25.4255 N   0  0  0  0  0  0  0  0  0  0  0  0
  -21.5643  -23.8491   25.6291 N   0  0  0  0  0  0  0  0  0  0  0  0
  -28.2176  -27.5219   20.6384 N   0  0  0  0  0  0  0  0  0  0  0  0
  -25.2480  -32.9217   23.5513 N   0  0  0  0  0  0  0  0  0  0  0  0
  -22.2564  -34.6105   22.4260 N   0  3  0  0  0  0  0  0  0  0  0  0
  -21.6116  -21.5795   25.1517 O   0  0  0  0  0  0  0  0  0  0  0  0
  -28.7663  -18.5999   17.6093 O   0  0  0  0  0  0  0  0  0  0  0  0
  -27.3890  -27.9970   22.7622 O   0  0  0  0  0  0  0  0  0  0  0  0
  -27.4311  -31.7132   22.1434 O   0  0  0  0  0  0  0  0  0  0  0  0
  -23.0320  -32.2960   23.8254 O   0  0  0  0  0  0  0  0  0  0  0  0
  -28.7596  -22.0732   26.8022 O   0  0  0  0  0  0  0  0  0  0  0  0
  -25.8272  -11.9795   20.4586 O   0  0  0  0  0  0  0  0  0  0  0  0
  -21.1462  -26.0279   21.9529 O   0  0  0  0  0  0  0  0  0  1  0  0
  -21.6198  -10.7965   23.8206 F   0  0  0  0  0  0  0  0  0  0  0  0
  -24.9911  -23.0246   29.5154 F   0  0  0  0  0  0  0  0  0  0  0  0
  -23.3407  -11.3251   19.4428 F   0  0  0  0  0  0  0  0  0  0  0  0
  1  2  1  0  0  0  0
  1  5  2  0  0  0  0
  2  6  2  0  0  0  0
  3  8  2  0  0  0  0
  3 17  1  0  0  0  0
  4  9  1  0  0  0  0
  4 17  2  0  0  0  0
  5 20  1  0  0  0  0
  6 22  1  0  0  0  0
  7 10  2  0  0  0  0
  7 21  1  0  0  0  0
  8 26  1  0  0  0  0
  9 26  2  0  0  0  0
 10 27  1  0  0  0  0
 11 12  2  0  0  0  0
 11 28  1  0  0  0  0
 12 29  1  0  0  0  0
 13 18  1  0  0  0  0
 13 30  2  0  0  0  0
 14 23  1  0  0  0  0
 14 27  2  0  0  0  0
 15 25  2  0  0  0  0
 15 30  1  0  0  0  0
 16 29  2  0  0  0  0
 16 31  1  0  0  0  0
 17 32  1  0  0  0  0
 18 24  2  0  0  0  0
 18 34  1  0  0  0  0
 19 32  1  0  0  0  0
 19 33  2  0  0  0  0
 19 35  1  0  0  0  0
 20 22  2  0  0  0  0
 20 40  1  0  0  0  0
 21 23  2  0  0  0  0
 21 41  1  0  0  0  0
 22 49  1  0  0  0  0
 23 42  1  0  0  0  0
 24 25  1  0  0  0  0
 24 52  1  0  0  0  0
 25 70  1  0  0  0  0
 26 81  1  0  0  0  0
 27 82  1  0  0  0  0
 28 31  2  0  0  0  0
 28 81  1  0  0  0  0
 29 83  1  0  0  0  0
 30 84  1  0  0  0  0
 31 85  1  0  0  0  0
 32 64  2  0  0  0  0
 33 65  1  0  0  0  0
 33 68  1  0  0  0  0
 34 71  1  0  0  0  0
 34 75  2  0  0  0  0
 35 69  1  0  0  0  0
 35 76  2  0  0  0  0
 36 50  1  0  0  0  0
 36 72  1  0  0  0  0
 36 77  2  0  0  0  0
 37 61  1  0  0  0  0
 37 66  1  0  0  0  0
 37 78  2  0  0  0  0
 38 62  1  0  0  0  0
 38 73  1  0  0  0  0
 38 79  2  0  0  0  0
 39 67  1  0  0  0  0
 39 70  1  0  0  0  0
 39 80  2  0  0  0  0
 40 43  1  0  0  0  0
 41 50  1  0  0  0  0
 42 66  1  0  0  0  0
 43 45  1  0  0  0  0
 44 46  1  0  0  0  0
 44 47  1  0  0  0  0
 45 49  1  0  0  0  0
 46 51  1  0  0  0  0
 47 67  1  0  0  0  0
 48 51  1  0  0  0  0
 48 67  1  0  0  0  0
 49 72  1  0  0  0  0
 50 66  1  0  0  0  0
 51 65  1  0  0  0  0
 53 62  1  0  0  0  0
 54 63  1  0  0  0  0
 55 63  1  0  0  0  0
 56 63  1  0  0  0  0
 57 74  1  0  0  0  0
 58 59  1  0  0  0  0
 58 60  1  0  0  0  0
 59 71  1  0  0  0  0
 60 82  1  0  0  0  0
 61 63  1  0  0  0  0
 61 73  1  0  0  0  0
 62 74  1  0  0  0  0
 64 65  1  0  0  0  0
M  CHG  1  74   1
M  ISO  4  39 100  60 101  70 100  82 101
M  END
> <Batch ID>
0056

> <Smiles>
CNC(C)C(=O)NC(C(=O)N1Cc2cc([101O:1][101CH2:1]CCNC(=O)c3cc(F)cc([100NH:0][100C:0](=O)N4CCCC(n5nc(-c6ccc(Oc7ccc(F)cc7F)cc6)c(C(N)=O)c5N)C4)c3C)ccc2CC1C(=O)NC1CCCc2ccccc21)C(C)(C)C

> <Shape>
0.267

> <Color>
0.073

> <Negative vol penalty>
0.000

$$$$

  -OEChem-04042322523D

 95103  0     1  0  0  0  0  0999 V2000
  -16.8862  -26.0095   23.7334 C   0  0  0  0  0  0  0  0  0  0  0  0
  -17.9245  -25.9008   22.8140 C   0  0  0  0  0  0  0  0  0  0  0  0
  -26.4947  -11.9047   21.8405 C   0  0  0  0  0  0  0  0  0  0  0  0
  -27.0579  -12.2553   19.5173 C   0  0  0  0  0  0  0  0  0  0  0  0
  -16.5350  -27.2592   24.2421 C   0  0  0  0  0  0  0  0  0  0  0  0
  -18.6116  -27.0420   22.4018 C   0  0  0  0  0  0  0  0  0  0  0  0
  -23.6299  -26.3663   22.3242 C   0  0  0  0  0  0  0  0  0  0  0  0
  -25.2780  -11.3387   21.4601 C   0  0  0  0  0  0  0  0  0  0  0  0
  -25.8411  -11.6892   19.1369 C   0  0  0  0  0  0  0  0  0  0  0  0
  -24.1612  -25.6646   21.2429 C   0  0  0  0  0  0  0  0  0  0  0  0
  -24.1732   -8.3695   20.2783 C   0  0  0  0  0  0  0  0  0  0  0  0
  -23.7806   -7.1906   20.9119 C   0  0  0  0  0  0  0  0  0  0  0  0
  -24.7978  -27.7498   20.2104 C   0  0  0  0  0  0  0  0  0  0  0  0
  -30.9120  -21.0357   15.9834 C   0  0  0  0  0  0  0  0  0  0  0  0
  -31.0875  -18.8801   17.0602 C   0  0  0  0  0  0  0  0  0  0  0  0
  -30.8222  -20.8779   18.3926 C   0  0  0  0  0  0  0  0  0  0  0  0
  -21.7879   -8.2900   21.7228 C   0  0  0  0  0  0  0  0  0  0  0  0
  -27.3847  -12.3631   20.8690 C   0  0  0  0  0  0  0  0  0  0  0  0
  -29.8656  -12.2815   21.4572 C   0  0  0  0  0  0  0  0  0  0  0  0
  -17.2245  -28.4151   23.8433 C   0  0  0  0  0  0  0  0  0  0  0  0
  -23.6688  -27.7677   22.3516 C   0  0  0  0  0  0  0  0  0  0  0  0
  -18.2685  -28.3085   22.9046 C   0  0  0  0  0  0  0  0  0  0  0  0
  -24.2686  -28.4667   21.2944 C   0  0  0  0  0  0  0  0  0  0  0  0
  -31.0590  -19.6513   15.8982 C   0  0  0  0  0  0  0  0  0  0  0  0
  -30.7937  -21.6491   17.2306 C   0  0  0  0  0  0  0  0  0  0  0  0
  -30.9691  -19.4934   18.3074 C   0  0  0  0  0  0  0  0  0  0  0  0
  -24.9512  -11.2309   20.1084 C   0  0  0  0  0  0  0  0  0  0  0  0
  -24.7427  -26.3565   20.1845 C   0  0  0  0  0  0  0  0  0  0  0  0
  -23.3732   -9.5088   20.3671 C   0  0  0  0  0  0  0  0  0  0  0  0
  -22.5879   -7.1507   21.6341 C   0  0  0  0  0  0  0  0  0  0  0  0
  -22.1806   -9.4690   21.0893 C   0  0  0  0  0  0  0  0  0  0  0  0
  -28.6415  -12.9485   21.2613 C   0  0  0  0  0  0  0  0  0  0  0  0
  -30.7434  -13.2740   21.8189 C   0  0  0  0  0  0  0  0  0  0  0  0
  -28.5712  -24.2386   18.2582 C   0  0  0  0  0  0  0  0  0  0  0  0
  -27.1826  -24.6311   18.2009 C   0  0  0  0  0  0  0  0  0  0  0  0
  -29.1844  -23.5636   17.2736 C   0  0  0  0  0  0  0  0  0  0  0  0
  -26.5757  -25.3033   19.1836 C   0  0  0  0  0  0  0  0  0  1  0  0
  -30.1811  -10.8892   21.3240 C   0  0  0  0  0  0  0  0  0  0  0  0
  -32.5794  -24.1647   16.4463 C   0  0  0  0  0  0  0  0  0  0  0  0
  -33.4263  -24.8777   15.4327 C   0  0  0  0  0  0  0  0  0  0  0  0
  -33.1251  -23.7646   17.7854 C   0  0  0  0  0  0  0  0  0  0  0  0
  -21.4800  -30.0716   22.4244 C   0  0  0  0  0  0  0  0  0  0  0  0
  -24.0734  -31.9887   22.7729 C   0  0  0  0  0  0  0  0  0  0  0  0
  -27.4223  -32.4463   22.3017 C   0  0  0  0  0  0  0  0  0  0  0  0
  -30.8934  -19.1605   20.8033 C   0  0  0  0  0  0  0  0  0  0  0  0
  -16.7778  -29.7500   24.3848 C   0  0  0  0  0  0  0  0  0  0  0  0
  -23.1152  -28.5087   23.5378 C   0  0  0  0  0  0  0  0  0  0  0  0
  -24.3538  -29.9704   21.2852 C   0  0  0  0  0  0  0  0  0  0  0  0
  -17.8018  -30.8636   24.1807 C   0  0  0  0  0  0  0  0  0  0  0  0
  -30.8823  -17.5468   23.9771 C   0  0  0  0  0  0  0  0  0  0  0  0
  -18.3366  -30.8419   22.7523 C   0  0  0  0  0  0  0  0  0  0  0  0
  -30.4237  -16.1221   23.6578 C   0  0  0  0  0  0  0  0  0  0  0  0
  -30.1681  -18.5806   23.1083 C   0  0  0  0  0  0  0  0  0  0  0  0
  -29.7787  -16.9063   21.3435 C   0  0  0  0  0  0  0  0  0  0  0  0
  -19.0539  -29.5203   22.4519 C   0  0  1  0  0  0  0  0  0  0  0  0
  -22.7489  -29.9553   23.2207 C   0  0  1  0  0  0  0  0  0  0  0  0
  -30.5176  -15.8247   22.1484 C   0  0  2  0  0  0  0  0  0  0  0  0
  -31.1857  -18.9956   14.5646 C   0  0  0  0  0  0  0  0  0  0  0  0
  -33.8669  -26.8912   14.0052 C   0  0  0  0  0  0  0  0  0  0  0  0
  -29.2494  -34.1298   22.6552 C   0  0  0  0  0  0  0  0  0  0  0  0
  -23.0468  -33.5990   20.3932 C   0  0  0  0  0  0  0  0  0  0  0  0
  -25.3192  -34.6323   20.2011 C   0  0  0  0  0  0  0  0  0  0  0  0
  -23.9648  -34.9772   22.2674 C   0  0  0  0  0  0  0  0  0  0  0  0
  -28.9221  -30.6172   24.0804 C   0  0  0  0  0  0  0  0  0  0  0  0
  -35.2541  -25.6622   18.4007 C   0  0  0  0  0  0  0  0  0  0  0  0
  -34.1812  -26.1143   20.6019 C   0  0  0  0  0  0  0  0  0  0  0  0
  -32.9330  -26.2377   15.0074 C   0  0  0  0  0  0  0  0  0  0  0  0
  -32.9760  -24.7780   18.8807 C   0  0  0  0  0  0  0  0  0  0  0  0
  -30.6338  -23.1535   17.3230 C   0  0  2  0  0  0  0  0  0  0  0  0
  -25.0017  -32.7135   21.8285 C   0  0  1  0  0  0  0  0  0  0  0  0
  -28.5140  -32.9328   23.2376 C   0  0  2  0  0  0  0  0  0  0  0  0
  -24.3300  -33.9523   21.1715 C   0  0  0  0  0  0  0  0  0  0  0  0
  -28.7297  -14.2631   21.4806 N   0  0  0  0  0  0  0  0  0  0  0  0
  -31.3546  -23.8529   16.2460 N   0  0  0  0  0  0  0  0  0  0  0  0
  -30.0198  -14.4301   21.8180 N   0  0  0  0  0  0  0  0  0  0  0  0
  -23.7928  -30.6501   22.4645 N   0  0  0  0  0  0  0  0  0  0  0  0
  -30.3033  -18.2363   21.6912 N   0  0  0  0  0  0  0  0  0  0  0  0
  -32.0559  -13.2618   22.1344 N   0  0  0  0  0  0  0  0  0  0  0  0
  -29.1609  -10.0063   20.9442 N   0  0  0  0  0  0  0  0  0  0  0  0
  -30.9980  -18.7101   19.4877 N   0  0  0  0  0  0  0  0  0  0  0  0
  -20.3753  -29.5169   23.0420 N   0  0  0  0  0  0  0  0  0  0  0  0
  -26.2042  -33.0221   22.5949 N   0  0  0  0  0  0  0  0  0  0  0  0
  -29.5049  -31.8477   23.4860 N   0  3  0  0  0  0  0  0  0  0  0  0
  -34.2952  -25.1488   19.4472 N   0  3  0  0  0  0  0  0  0  0  0  0
  -31.3295  -10.4389   21.5514 O   0  0  0  0  0  0  0  0  0  0  0  0
  -34.4137  -24.2979   15.0090 O   0  0  0  0  0  0  0  0  0  0  0  0
  -33.6486  -22.6655   17.8808 O   0  0  0  0  0  0  0  0  0  0  0  0
  -21.5014  -30.6249   21.3312 O   0  0  0  0  0  0  0  0  0  0  0  0
  -23.6197  -32.5861   23.7522 O   0  0  0  0  0  0  0  0  0  0  0  0
  -27.6302  -31.6394   21.3983 O   0  0  0  0  0  0  0  0  0  0  0  0
  -31.3024  -20.2592   21.1875 O   0  0  0  0  0  0  0  0  0  0  0  0
  -23.7641  -10.6783   19.7369 O   0  0  0  0  0  0  0  0  0  0  0  0
  -25.2615  -25.6741   19.1275 O   0  0  0  0  0  0  0  0  0  1  0  0
  -22.2102   -6.0181   22.2411 F   0  0  0  0  0  0  0  0  0  0  0  0
  -21.4073  -10.5599   21.1771 F   0  0  0  0  0  0  0  0  0  0  0  0
  1  2  1  0  0  0  0
  1  5  2  0  0  0  0
  2  6  2  0  0  0  0
  3  8  2  0  0  0  0
  3 18  1  0  0  0  0
  4  9  1  0  0  0  0
  4 18  2  0  0  0  0
  5 20  1  0  0  0  0
  6 22  1  0  0  0  0
  7 10  2  0  0  0  0
  7 21  1  0  0  0  0
  8 27  1  0  0  0  0
  9 27  2  0  0  0  0
 10 28  1  0  0  0  0
 11 12  2  0  0  0  0
 11 29  1  0  0  0  0
 12 30  1  0  0  0  0
 13 23  1  0  0  0  0
 13 28  2  0  0  0  0
 14 24  2  0  0  0  0
 14 25  1  0  0  0  0
 15 24  1  0  0  0  0
 15 26  2  0  0  0  0
 16 25  2  0  0  0  0
 16 26  1  0  0  0  0
 17 30  2  0  0  0  0
 17 31  1  0  0  0  0
 18 32  1  0  0  0  0
 19 32  1  0  0  0  0
 19 33  2  0  0  0  0
 19 38  1  0  0  0  0
 20 22  2  0  0  0  0
 20 46  1  0  0  0  0
 21 23  2  0  0  0  0
 21 47  1  0  0  0  0
 22 55  1  0  0  0  0
 23 48  1  0  0  0  0
 24 58  1  0  0  0  0
 25 69  1  0  0  0  0
 26 80  1  0  0  0  0
 27 92  1  0  0  0  0
 28 93  1  0  0  0  0
 29 31  2  0  0  0  0
 29 92  1  0  0  0  0
 30 94  1  0  0  0  0
 31 95  1  0  0  0  0
 32 73  2  0  0  0  0
 33 75  1  0  0  0  0
 33 78  1  0  0  0  0
 34 35  1  0  0  0  0
 34 36  2  0  0  0  0
 35 37  2  0  0  0  0
 36 69  1  0  0  0  0
 37 93  1  0  0  0  0
 38 79  1  0  0  0  0
 38 85  2  0  0  0  0
 39 40  1  0  0  0  0
 39 41  1  0  0  0  0
 39 74  2  0  0  0  0
 40 67  1  0  0  0  0
 40 86  2  0  0  0  0
 41 68  1  0  0  0  0
 41 87  2  0  0  0  0
 42 56  1  0  0  0  0
 42 81  1  0  0  0  0
 42 88  2  0  0  0  0
 43 70  1  0  0  0  0
 43 76  1  0  0  0  0
 43 89  2  0  0  0  0
 44 71  1  0  0  0  0
 44 82  1  0  0  0  0
 44 90  2  0  0  0  0
 45 77  1  0  0  0  0
 45 80  1  0  0  0  0
 45 91  2  0  0  0  0
 46 49  1  0  0  0  0
 47 56  1  0  0  0  0
 48 76  1  0  0  0  0
 49 51  1  0  0  0  0
 50 52  1  0  0  0  0
 50 53  1  0  0  0  0
 51 55  1  0  0  0  0
 52 57  1  0  0  0  0
 53 77  1  0  0  0  0
 54 57  1  0  0  0  0
 54 77  1  0  0  0  0
 55 81  1  0  0  0  0
 56 76  1  0  0  0  0
 57 75  1  0  0  0  0
 59 67  1  0  0  0  0
 60 71  1  0  0  0  0
 61 72  1  0  0  0  0
 62 72  1  0  0  0  0
 63 72  1  0  0  0  0
 64 83  1  0  0  0  0
 65 84  1  0  0  0  0
 66 84  1  0  0  0  0
 68 84  1  0  0  0  0
 69 74  1  0  0  0  0
 70 72  1  0  0  0  0
 70 82  1  0  0  0  0
 71 83  1  0  0  0  0
 73 75  1  0  0  0  0
M  CHG  2  83   1  84   1
M  ISO  4  37 101  45 100  80 100  93 101
M  END
> <Batch ID>
0056

> <Smiles>
C=CC(=O)C(NC(C=CC=[101CH:1][101O:1]c1ccc2c(c1)CN(C(=O)C(NC(=O)C(C)NC)C(C)(C)C)C(C(=O)NC1CCCc3ccccc31)C2)c1cc(C)cc([100NH:0][100C:0](=O)N2CCCC(n3nc(-c4ccc(Oc5ccc(F)cc5F)cc4)c(C(N)=O)c3N)C2)c1)C(=O)CN(C)C

> <Shape>
0.265

> <Color>
0.047

> <Negative vol penalty>
0.000

$$$$

  -OEChem-04042322523D

 88 97  0     1  0  0  0  0  0999 V2000
  -27.6495  -34.2498   25.2690 C   0  0  0  0  0  0  0  0  0  0  0  0
  -27.9016  -33.0079   24.6951 C   0  0  0  0  0  0  0  0  0  0  0  0
  -24.6453  -11.0859   17.8906 C   0  0  0  0  0  0  0  0  0  0  0  0
  -26.9719  -11.7343   17.8298 C   0  0  0  0  0  0  0  0  0  0  0  0
  -26.3684  -34.5590   25.7242 C   0  0  0  0  0  0  0  0  0  0  0  0
  -26.8729  -32.0739   24.5769 C   0  0  0  0  0  0  0  0  0  0  0  0
  -26.7853  -29.8449   20.0306 C   0  0  0  0  0  0  0  0  0  0  0  0
  -28.8418  -21.7327   19.8247 C   0  0  0  0  0  0  0  0  0  0  0  0
  -27.8239  -20.8641   20.2187 C   0  0  0  0  0  0  0  0  0  0  0  0
  -24.8063  -10.3958   16.6892 C   0  0  0  0  0  0  0  0  0  0  0  0
  -27.1329  -11.0441   16.6284 C   0  0  0  0  0  0  0  0  0  0  0  0
  -27.7186  -28.8356   19.7982 C   0  0  0  0  0  0  0  0  0  0  0  0
  -27.5370   -7.8400   15.6332 C   0  0  0  0  0  0  0  0  0  0  0  0
  -28.6656   -7.0315   15.4981 C   0  0  0  0  0  0  0  0  0  0  0  0
  -26.0233  -27.1759   20.2343 C   0  0  0  0  0  0  0  0  0  0  0  0
  -29.4238  -19.0607   20.3764 C   0  0  0  0  0  0  0  0  0  0  0  0
  -29.3765   -8.3416   13.5967 C   0  0  0  0  0  0  0  0  0  0  0  0
  -25.7281  -11.7552   18.4609 C   0  0  0  0  0  0  0  0  0  0  0  0
  -25.7377  -11.9623   21.0035 C   0  0  0  0  0  0  0  0  0  0  0  0
  -25.3213  -33.6319   25.6028 C   0  0  0  0  0  0  0  0  0  0  0  0
  -25.4644  -29.5268   20.3779 C   0  0  0  0  0  0  0  0  0  0  0  0
  -25.5770  -32.3705   25.0321 C   0  0  0  0  0  0  0  0  0  0  0  0
  -25.0745  -28.1829   20.4681 C   0  0  0  0  0  0  0  0  0  0  0  0
  -30.1507  -21.2652   19.7066 C   0  0  0  0  0  0  0  0  0  0  0  0
  -30.4417  -19.9292   19.9825 C   0  0  0  0  0  0  0  0  0  0  0  0
  -28.1149  -19.5281   20.4946 C   0  0  0  0  0  0  0  0  0  0  0  0
  -26.0500  -10.3749   16.0581 C   0  0  0  0  0  0  0  0  0  0  0  0
  -27.3384  -27.5009   19.9029 C   0  0  0  0  0  0  0  0  0  0  0  0
  -27.3281   -8.8992   14.7499 C   0  0  0  0  0  0  0  0  0  0  0  0
  -29.5854   -7.2824   14.4799 C   0  0  0  0  0  0  0  0  0  0  0  0
  -28.2478   -9.1500   13.7317 C   0  0  0  0  0  0  0  0  0  0  0  0
  -25.5624  -12.4687   19.7017 C   0  0  0  0  0  0  0  0  0  0  0  0
  -25.4632  -13.0275   21.8261 C   0  0  0  0  0  0  0  0  0  0  0  0
  -29.7084  -25.3499   16.7866 C   0  0  0  0  0  0  0  0  0  0  0  0
  -29.7557  -25.5396   18.1078 C   0  0  0  0  0  0  0  0  0  0  0  0
  -30.2871  -24.4622   18.9931 C   0  0  0  0  0  0  0  0  0  0  0  0
  -30.6763  -23.0351   17.0135 C   0  0  0  0  0  0  0  0  0  0  0  0
  -31.0834  -21.8864   16.4405 C   0  0  0  0  0  0  0  0  0  0  0  0
  -26.1150  -10.6468   21.4310 C   0  0  0  0  0  0  0  0  0  0  0  0
  -23.6176  -30.0682   22.9076 C   0  0  0  0  0  0  0  0  0  0  0  0
  -21.3317  -28.7257   21.0383 C   0  0  0  0  0  0  0  0  0  0  0  0
  -20.5655  -26.6692   18.4248 C   0  0  0  0  0  0  0  0  0  0  0  0
  -25.7307  -18.9481   21.0649 C   0  0  0  0  0  0  0  0  0  0  0  0
  -23.9642  -33.9937   26.1524 C   0  0  0  0  0  0  0  0  0  0  0  0
  -24.4630  -30.6270   20.5992 C   0  0  0  0  0  0  0  0  0  0  0  0
  -23.6637  -27.7884   20.8180 C   0  0  0  0  0  0  0  0  0  0  0  0
  -30.1569  -24.1116   16.1003 C   0  0  0  0  0  0  0  0  0  0  0  0
  -22.8424  -33.0887   25.6495 C   0  0  0  0  0  0  0  0  0  0  0  0
  -22.8695  -17.0493   22.0056 C   0  0  0  0  0  0  0  0  0  0  0  0
  -23.2566  -31.6235   25.7419 C   0  0  0  0  0  0  0  0  0  0  0  0
  -23.2537  -15.6123   21.6456 C   0  0  0  0  0  0  0  0  0  0  0  0
  -23.4137  -18.0530   20.9907 C   0  0  0  0  0  0  0  0  0  0  0  0
  -25.2406  -16.5194   20.3744 C   0  0  0  0  0  0  0  0  0  0  0  0
  -24.4815  -31.3401   24.8639 C   0  0  1  0  0  0  0  0  0  0  0  0
  -23.2742  -30.1908   21.4500 C   0  0  1  0  0  0  0  0  0  0  0  0
  -24.7698  -15.4782   21.4029 C   0  0  2  0  0  0  0  0  0  0  0  0
  -31.8360  -19.4070   19.8647 C   0  0  0  0  0  0  0  0  0  0  0  0
  -18.6091  -25.7389   17.1580 C   0  0  0  0  0  0  0  0  0  0  0  0
  -20.7713  -26.7904   23.3297 C   0  0  0  0  0  0  0  0  0  0  0  0
  -19.5356  -25.3374   21.7080 C   0  0  0  0  0  0  0  0  0  0  0  0
  -18.7304  -27.6528   22.1699 C   0  0  0  0  0  0  0  0  0  0  0  0
  -21.4586  -27.9217   15.8965 C   0  0  0  0  0  0  0  0  0  0  0  0
  -31.2292  -22.2187   19.2802 C   0  0  0  0  0  0  0  0  0  0  0  0
  -29.2972  -26.7965   18.7527 C   0  0  0  0  0  0  0  0  0  1  0  0
  -20.8316  -27.3207   20.8036 C   0  0  1  0  0  0  0  0  0  0  0  0
  -19.6405  -26.8539   17.2353 C   0  0  2  0  0  0  0  0  0  0  0  0
  -19.9944  -26.7824   21.9981 C   0  0  0  0  0  0  0  0  0  0  0  0
  -25.2041  -13.7554   19.6928 N   0  0  0  0  0  0  0  0  0  0  0  0
  -25.1519  -14.0665   20.9992 N   0  0  0  0  0  0  0  0  0  0  0  0
  -30.7146  -23.2688   18.3928 N   0  0  0  0  0  0  0  0  0  0  0  0
  -22.7228  -28.9005   21.0313 N   0  0  0  0  0  0  0  0  0  0  0  0
  -24.8561  -17.8694   20.8154 N   0  0  0  0  0  0  0  0  0  0  0  0
  -25.4600  -13.1673   23.1688 N   0  0  0  0  0  0  0  0  0  0  0  0
  -26.3605   -9.6718   20.4546 N   0  0  0  0  0  0  0  0  0  0  0  0
  -27.0816  -18.6459   20.8967 N   0  0  0  0  0  0  0  0  0  0  0  0
  -24.0935  -31.2356   23.4736 N   0  0  0  0  0  0  0  0  0  0  0  0
  -20.1122  -27.3501   19.5348 N   0  0  0  0  0  0  0  0  0  0  0  0
  -20.4226  -26.8593   15.9668 N   0  3  0  0  0  0  0  0  0  0  0  0
  -30.3232  -24.6738   20.2080 O   0  0  0  0  0  0  0  0  0  0  0  0
  -26.2151  -10.3405   22.6433 O   0  0  0  0  0  0  0  0  0  0  0  0
  -23.4609  -28.9945   23.4771 O   0  0  0  0  0  0  0  0  0  0  0  0
  -20.5178  -29.6358   21.2140 O   0  0  0  0  0  0  0  0  0  0  0  0
  -21.5859  -25.9860   18.3752 O   0  0  0  0  0  0  0  0  0  0  0  0
  -25.3139  -20.0506   21.4293 O   0  0  0  0  0  0  0  0  0  0  0  0
  -26.2075   -9.7014   14.8858 O   0  0  0  0  0  0  0  0  0  0  0  0
  -28.2476  -26.5138   19.6772 O   0  0  0  0  0  0  0  0  0  1  0  0
  -30.6699   -6.5069   14.3513 F   0  0  0  0  0  0  0  0  0  0  0  0
  -28.0531  -10.1669   12.8809 F   0  0  0  0  0  0  0  0  0  0  0  0
  1  2  1  0  0  0  0
  1  5  2  0  0  0  0
  2  6  2  0  0  0  0
  3 10  2  0  0  0  0
  3 18  1  0  0  0  0
  4 11  1  0  0  0  0
  4 18  2  0  0  0  0
  5 20  1  0  0  0  0
  6 22  1  0  0  0  0
  7 12  2  0  0  0  0
  7 21  1  0  0  0  0
  8  9  2  0  0  0  0
  8 24  1  0  0  0  0
  9 26  1  0  0  0  0
 10 27  1  0  0  0  0
 11 27  2  0  0  0  0
 12 28  1  0  0  0  0
 13 14  2  0  0  0  0
 13 29  1  0  0  0  0
 14 30  1  0  0  0  0
 15 23  1  0  0  0  0
 15 28  2  0  0  0  0
 16 25  1  0  0  0  0
 16 26  2  0  0  0  0
 17 30  2  0  0  0  0
 17 31  1  0  0  0  0
 18 32  1  0  0  0  0
 19 32  1  0  0  0  0
 19 33  2  0  0  0  0
 19 39  1  0  0  0  0
 20 22  2  0  0  0  0
 20 44  1  0  0  0  0
 21 23  2  0  0  0  0
 21 45  1  0  0  0  0
 22 54  1  0  0  0  0
 23 46  1  0  0  0  0
 24 25  2  0  0  0  0
 24 63  1  0  0  0  0
 25 57  1  0  0  0  0
 26 75  1  0  0  0  0
 27 85  1  0  0  0  0
 28 86  1  0  0  0  0
 29 31  2  0  0  0  0
 29 85  1  0  0  0  0
 30 87  1  0  0  0  0
 31 88  1  0  0  0  0
 32 68  2  0  0  0  0
 33 69  1  0  0  0  0
 33 73  1  0  0  0  0
 34 35  2  0  0  0  0
 34 47  1  0  0  0  0
 35 36  1  0  0  0  0
 35 64  1  0  0  0  0
 36 70  1  0  0  0  0
 36 79  2  0  0  0  0
 37 38  2  0  0  0  0
 37 47  1  0  0  0  0
 37 70  1  0  0  0  0
 39 74  1  0  0  0  0
 39 80  2  0  0  0  0
 40 55  1  0  0  0  0
 40 76  1  0  0  0  0
 40 81  2  0  0  0  0
 41 65  1  0  0  0  0
 41 71  1  0  0  0  0
 41 82  2  0  0  0  0
 42 66  1  0  0  0  0
 42 77  1  0  0  0  0
 42 83  2  0  0  0  0
 43 72  1  0  0  0  0
 43 75  1  0  0  0  0
 43 84  2  0  0  0  0
 44 48  1  0  0  0  0
 45 55  1  0  0  0  0
 46 71  1  0  0  0  0
 48 50  1  0  0  0  0
 49 51  1  0  0  0  0
 49 52  1  0  0  0  0
 50 54  1  0  0  0  0
 51 56  1  0  0  0  0
 52 72  1  0  0  0  0
 53 56  1  0  0  0  0
 53 72  1  0  0  0  0
 54 76  1  0  0  0  0
 55 71  1  0  0  0  0
 56 69  1  0  0  0  0
 58 66  1  0  0  0  0
 59 67  1  0  0  0  0
 60 67  1  0  0  0  0
 61 67  1  0  0  0  0
 62 78  1  0  0  0  0
 63 70  1  0  0  0  0
 64 86  1  0  0  0  0
 65 67  1  0  0  0  0
 65 77  1  0  0  0  0
 66 78  1  0  0  0  0
 68 69  1  0  0  0  0
M  CHG  1  78   1
M  ISO  4  43 100  64 101  75 100  86 101
M  END
> <Batch ID>
0056

> <Smiles>
C=C1CC=C([101CH2:1][101O:1]c2ccc3c(c2)CN(C(=O)C(NC(=O)C(C)NC)C(C)(C)C)C(C(=O)NC2CCCc4ccccc42)C3)C(=O)N1Cc1ccc([100NH:0][100C:0](=O)N2CCCC(n3nc(-c4ccc(Oc5ccc(F)cc5F)cc4)c(C(N)=O)c3N)C2)cc1C

> <Shape>
0.262

> <Color>
0.079

> <Negative vol penalty>
0.000

$$$$

  -OEChem-04042322523D

 84 92  0     1  0  0  0  0  0999 V2000
  -26.9018  -17.9756   16.8379 C   0  0  0  0  0  0  0  0  0  0  0  0
  -26.5809  -19.2522   16.3877 C   0  0  0  0  0  0  0  0  0  0  0  0
  -18.4410  -27.1845   21.8520 C   0  0  0  0  0  0  0  0  0  0  0  0
  -23.1471  -13.9361   21.3696 C   0  0  0  0  0  0  0  0  0  0  0  0
  -25.0267  -14.9313   22.5158 C   0  0  0  0  0  0  0  0  0  0  0  0
  -27.0716  -17.7409   18.2018 C   0  0  0  0  0  0  0  0  0  0  0  0
  -26.4285  -20.2947   17.3011 C   0  0  0  0  0  0  0  0  0  0  0  0
  -27.4302  -27.3602   17.9270 C   0  0  0  0  0  0  0  0  0  0  0  0
  -18.8441  -26.0570   22.5672 C   0  0  0  0  0  0  0  0  0  0  0  0
  -19.2884  -28.2882   21.7541 C   0  0  0  0  0  0  0  0  0  0  0  0
  -23.9892  -12.9611   20.8351 C   0  0  0  0  0  0  0  0  0  0  0  0
  -25.8689  -13.9562   21.9814 C   0  0  0  0  0  0  0  0  0  0  0  0
  -26.7432  -28.5172   18.2917 C   0  0  0  0  0  0  0  0  0  0  0  0
  -28.5774  -11.9430   20.6321 C   0  0  0  0  0  0  0  0  0  0  0  0
  -29.8008  -12.3597   20.1076 C   0  0  0  0  0  0  0  0  0  0  0  0
  -27.1384  -28.0117   20.6171 C   0  0  0  0  0  0  0  0  0  0  0  0
  -20.9420  -27.1367   23.0869 C   0  0  0  0  0  0  0  0  0  0  0  0
  -28.6417  -13.7581   18.5145 C   0  0  0  0  0  0  0  0  0  0  0  0
  -23.6658  -14.9213   22.2099 C   0  0  0  0  0  0  0  0  0  0  0  0
  -22.0881  -15.8681   23.9769 C   0  0  0  0  0  0  0  0  0  0  0  0
  -26.9307  -18.7831   19.1316 C   0  0  0  0  0  0  0  0  0  0  0  0
  -27.9679  -26.5130   18.9066 C   0  0  0  0  0  0  0  0  0  0  0  0
  -26.5953  -20.0734   18.6788 C   0  0  0  0  0  0  0  0  0  0  0  0
  -27.8340  -26.8458   20.2621 C   0  0  0  0  0  0  0  0  0  0  0  0
  -20.0946  -26.0330   23.1847 C   0  0  0  0  0  0  0  0  0  0  0  0
  -20.5389  -28.2643   22.3716 C   0  0  0  0  0  0  0  0  0  0  0  0
  -25.3501  -12.9711   21.1411 C   0  0  0  0  0  0  0  0  0  0  0  0
  -26.5947  -28.8417   19.6370 C   0  0  0  0  0  0  0  0  0  0  0  0
  -27.3860  -12.4337   20.0977 C   0  0  0  0  0  0  0  0  0  0  0  0
  -29.8330  -13.2672   19.0489 C   0  0  0  0  0  0  0  0  0  0  0  0
  -27.4182  -13.3413   19.0389 C   0  0  0  0  0  0  0  0  0  0  0  0
  -22.7965  -15.9291   22.7618 C   0  0  0  0  0  0  0  0  0  0  0  0
  -21.4158  -17.0639   24.0428 C   0  0  0  0  0  0  0  0  0  0  0  0
  -22.0420  -14.8237   24.9582 C   0  0  0  0  0  0  0  0  0  0  0  0
  -27.4914  -23.4897   19.7646 C   0  0  0  0  0  0  0  0  0  0  0  0
  -30.0028  -24.0617   21.7364 C   0  0  0  0  0  0  0  0  0  0  0  0
  -22.6695  -29.5298   22.8206 C   0  0  0  0  0  0  0  0  0  0  0  0
  -31.8821  -26.3385   23.4485 C   0  0  0  0  0  0  0  0  0  0  0  0
  -21.3520  -22.5166   23.5832 C   0  0  0  0  0  0  0  0  0  0  0  0
  -27.0774  -18.4708   20.5998 C   0  0  0  0  0  0  0  0  0  0  0  0
  -28.7292  -25.2825   18.4959 C   0  0  0  0  0  0  0  0  0  0  0  0
  -28.4101  -25.9803   21.3518 C   0  0  0  0  0  0  0  0  0  0  0  0
  -27.2669  -19.7105   21.4702 C   0  0  0  0  0  0  0  0  0  0  0  0
  -20.7256  -20.6528   20.5449 C   0  0  0  0  0  0  0  0  0  0  0  0
  -26.2563  -20.7884   21.0912 C   0  0  0  0  0  0  0  0  0  0  0  0
  -21.1542  -19.2438   20.9586 C   0  0  0  0  0  0  0  0  0  0  0  0
  -21.6356  -21.7109   21.1618 C   0  0  0  0  0  0  0  0  0  0  0  0
  -22.1693  -20.2355   23.0624 C   0  0  0  0  0  0  0  0  0  0  0  0
  -26.4460  -21.2355   19.6366 C   0  0  1  0  0  0  0  0  0  0  0  0
  -28.7909  -24.2242   19.5930 C   0  0  1  0  0  0  0  0  0  0  0  0
  -21.2747  -19.1215   22.4892 C   0  0  2  0  0  0  0  0  0  0  0  0
  -33.8453  -26.5018   25.0031 C   0  0  0  0  0  0  0  0  0  0  0  0
  -28.2588  -23.0767   24.0383 C   0  0  0  0  0  0  0  0  0  0  0  0
  -29.8793  -24.1345   25.6267 C   0  0  0  0  0  0  0  0  0  0  0  0
  -30.6330  -22.2950   24.1197 C   0  0  0  0  0  0  0  0  0  0  0  0
  -33.4137  -27.9889   21.5277 C   0  0  0  0  0  0  0  0  0  0  0  0
  -20.5252  -24.8273   23.9493 C   0  0  0  0  0  0  0  0  0  0  0  0
  -23.2483  -30.8939   22.4715 C   0  0  0  0  0  0  0  0  0  0  0  0
  -24.0387  -30.8804   21.1676 C   0  0  0  0  0  0  0  0  0  0  0  0
  -25.2389  -29.9483   21.2473 C   0  0  0  0  0  0  0  0  0  1  0  0
  -30.1591  -24.5796   23.1458 C   0  0  1  0  0  0  0  0  0  0  0  0
  -33.3845  -26.5289   23.5540 C   0  0  2  0  0  0  0  0  0  0  0  0
  -29.7199  -23.5370   24.2124 C   0  0  0  0  0  0  0  0  0  0  0  0
  -22.5930  -17.0732   22.1033 N   0  0  0  0  0  0  0  0  0  0  0  0
  -21.7491  -17.7420   22.9074 N   0  0  0  0  0  0  0  0  0  0  0  0
  -29.1405  -24.7845   20.8999 N   0  0  0  0  0  0  0  0  0  0  0  0
  -21.6920  -21.5505   22.6217 N   0  0  0  0  0  0  0  0  0  0  0  0
  -20.5779  -17.5910   24.9607 N   0  0  0  0  0  0  0  0  0  0  0  0
  -22.7932  -13.6621   24.7334 N   0  0  0  0  0  0  0  0  0  0  0  0
  -21.3986  -29.3839   22.2716 N   0  0  0  0  0  0  0  0  0  0  0  0
  -27.5774  -22.1312   19.5266 N   0  0  0  0  0  0  0  0  0  0  0  0
  -31.5466  -25.0131   23.2699 N   0  0  0  0  0  0  0  0  0  0  0  0
  -20.9159  -23.7374   23.0830 N   0  0  0  0  0  0  0  0  0  0  0  0
  -33.7843  -27.8350   22.9580 N   0  3  0  0  0  0  0  0  0  0  0  0
  -21.3421  -14.9111   25.9955 O   0  0  0  0  0  0  0  0  0  0  0  0
  -26.4856  -24.1093   20.0903 O   0  0  0  0  0  0  0  0  0  0  0  0
  -30.6284  -23.0572   21.3884 O   0  0  0  0  0  0  0  0  0  0  0  0
  -23.2870  -28.7142   23.4972 O   0  0  0  0  0  0  0  0  0  0  0  0
  -31.0857  -27.2718   23.5211 O   0  0  0  0  0  0  0  0  0  0  0  0
  -21.4265  -22.3051   24.7985 O   0  0  0  0  0  0  0  0  0  0  0  0
  -26.1721  -12.0197   20.6199 O   0  0  0  0  0  0  0  0  0  0  0  0
  -25.9241  -29.9701   19.9958 O   0  0  0  0  0  0  0  0  0  1  0  0
  -31.0080  -13.6685   18.5464 F   0  0  0  0  0  0  0  0  0  0  0  0
  -26.2770  -13.8172   18.5222 F   0  0  0  0  0  0  0  0  0  0  0  0
  1  2  1  0  0  0  0
  1  6  2  0  0  0  0
  2  7  2  0  0  0  0
  3  9  1  0  0  0  0
  3 10  2  0  0  0  0
  4 11  2  0  0  0  0
  4 19  1  0  0  0  0
  5 12  1  0  0  0  0
  5 19  2  0  0  0  0
  6 21  1  0  0  0  0
  7 23  1  0  0  0  0
  8 13  2  0  0  0  0
  8 22  1  0  0  0  0
  9 25  2  0  0  0  0
 10 26  1  0  0  0  0
 11 27  1  0  0  0  0
 12 27  2  0  0  0  0
 13 28  1  0  0  0  0
 14 15  2  0  0  0  0
 14 29  1  0  0  0  0
 15 30  1  0  0  0  0
 16 24  1  0  0  0  0
 16 28  2  0  0  0  0
 17 25  1  0  0  0  0
 17 26  2  0  0  0  0
 18 30  2  0  0  0  0
 18 31  1  0  0  0  0
 19 32  1  0  0  0  0
 20 32  1  0  0  0  0
 20 33  2  0  0  0  0
 20 34  1  0  0  0  0
 21 23  2  0  0  0  0
 21 40  1  0  0  0  0
 22 24  2  0  0  0  0
 22 41  1  0  0  0  0
 23 49  1  0  0  0  0
 24 42  1  0  0  0  0
 25 57  1  0  0  0  0
 26 70  1  0  0  0  0
 27 81  1  0  0  0  0
 28 82  1  0  0  0  0
 29 31  2  0  0  0  0
 29 81  1  0  0  0  0
 30 83  1  0  0  0  0
 31 84  1  0  0  0  0
 32 64  2  0  0  0  0
 33 65  1  0  0  0  0
 33 68  1  0  0  0  0
 34 69  1  0  0  0  0
 34 75  2  0  0  0  0
 35 50  1  0  0  0  0
 35 71  1  0  0  0  0
 35 76  2  0  0  0  0
 36 61  1  0  0  0  0
 36 66  1  0  0  0  0
 36 77  2  0  0  0  0
 37 58  1  0  0  0  0
 37 70  1  0  0  0  0
 37 78  2  0  0  0  0
 38 62  1  0  0  0  0
 38 72  1  0  0  0  0
 38 79  2  0  0  0  0
 39 67  1  0  0  0  0
 39 73  1  0  0  0  0
 39 80  2  0  0  0  0
 40 43  1  0  0  0  0
 41 50  1  0  0  0  0
 42 66  1  0  0  0  0
 43 45  1  0  0  0  0
 44 46  1  0  0  0  0
 44 47  1  0  0  0  0
 45 49  1  0  0  0  0
 46 51  1  0  0  0  0
 47 67  1  0  0  0  0
 48 51  1  0  0  0  0
 48 67  1  0  0  0  0
 49 71  1  0  0  0  0
 50 66  1  0  0  0  0
 51 65  1  0  0  0  0
 52 62  1  0  0  0  0
 53 63  1  0  0  0  0
 54 63  1  0  0  0  0
 55 63  1  0  0  0  0
 56 74  1  0  0  0  0
 57 73  1  0  0  0  0
 58 59  1  0  0  0  0
 59 60  1  0  0  0  0
 60 82  1  0  0  0  0
 61 63  1  0  0  0  0
 61 72  1  0  0  0  0
 62 74  1  0  0  0  0
 64 65  1  0  0  0  0
M  CHG  1  74   1
M  ISO  4  39 100  60 101  73 100  82 101
M  END
> <Batch ID>
0056

> <Smiles>
CNC(C)C(=O)NC(C(=O)N1Cc2cc([101O:1][101CH2:1]CCC(=O)Nc3cccc(C[100NH:0][100C:0](=O)N4CCCC(n5nc(-c6ccc(Oc7ccc(F)cc7F)cc6)c(C(N)=O)c5N)C4)c3)ccc2CC1C(=O)NC1CCCc2ccccc21)C(C)(C)C

> <Shape>
0.198

> <Color>
0.085

> <Negative vol penalty>
0.000

$$$$

  -OEChem-04042322523D

 85 93  0     1  0  0  0  0  0999 V2000
  -26.9905  -35.6461   23.2629 C   0  0  0  0  0  0  0  0  0  0  0  0
  -27.7910  -34.5387   23.0016 C   0  0  0  0  0  0  0  0  0  0  0  0
  -23.7798  -13.3964   24.9775 C   0  0  0  0  0  0  0  0  0  0  0  0
  -23.5806  -15.3917   23.6298 C   0  0  0  0  0  0  0  0  0  0  0  0
  -25.6496  -35.4710   23.6024 C   0  0  0  0  0  0  0  0  0  0  0  0
  -27.2513  -33.2554   23.0808 C   0  0  0  0  0  0  0  0  0  0  0  0
  -28.7064  -28.4286   19.6037 C   0  0  0  0  0  0  0  0  0  0  0  0
  -32.0573  -17.4497   17.1799 C   0  0  0  0  0  0  0  0  0  0  0  0
  -31.6067  -16.4832   18.0790 C   0  0  0  0  0  0  0  0  0  0  0  0
  -23.0353  -14.0047   25.9881 C   0  0  0  0  0  0  0  0  0  0  0  0
  -22.8360  -16.0000   24.6403 C   0  0  0  0  0  0  0  0  0  0  0  0
  -29.5511  -27.3400   19.8163 C   0  0  0  0  0  0  0  0  0  0  0  0
  -19.6574  -15.9159   25.7846 C   0  0  0  0  0  0  0  0  0  0  0  0
  -18.5042  -16.6064   25.4118 C   0  0  0  0  0  0  0  0  0  0  0  0
  -27.6625  -26.0227   20.5355 C   0  0  0  0  0  0  0  0  0  0  0  0
  -19.4203  -18.6390   26.3425 C   0  0  0  0  0  0  0  0  0  0  0  0
  -24.0526  -14.0900   23.7983 C   0  0  0  0  0  0  0  0  0  0  0  0
  -24.3320  -12.6906   21.6838 C   0  0  0  0  0  0  0  0  0  0  0  0
  -25.0907  -34.1854   23.6764 C   0  0  0  0  0  0  0  0  0  0  0  0
  -27.3328  -28.3256   19.8662 C   0  0  0  0  0  0  0  0  0  0  0  0
  -25.9020  -33.0629   23.4230 C   0  0  0  0  0  0  0  0  0  0  0  0
  -26.8022  -27.1107   20.3230 C   0  0  0  0  0  0  0  0  0  0  0  0
  -31.4726  -18.7160   17.1662 C   0  0  0  0  0  0  0  0  0  0  0  0
  -30.4374  -19.0158   18.0516 C   0  0  0  0  0  0  0  0  0  0  0  0
  -29.9868  -18.0493   18.9507 C   0  0  0  0  0  0  0  0  0  0  0  0
  -30.5715  -16.7829   18.9644 C   0  0  0  0  0  0  0  0  0  0  0  0
  -22.5634  -15.3064   25.8195 C   0  0  0  0  0  0  0  0  0  0  0  0
  -29.0297  -26.1377   20.2851 C   0  0  0  0  0  0  0  0  0  0  0  0
  -20.6920  -16.5869   26.4365 C   0  0  0  0  0  0  0  0  0  0  0  0
  -18.3857  -17.9679   25.6907 C   0  0  0  0  0  0  0  0  0  0  0  0
  -20.5735  -17.9485   26.7154 C   0  0  0  0  0  0  0  0  0  0  0  0
  -24.8221  -13.4624   22.7543 C   0  0  0  0  0  0  0  0  0  0  0  0
  -25.4543  -12.3281   20.9798 C   0  0  0  0  0  0  0  0  0  0  0  0
  -22.9829  -12.3334   21.3551 C   0  0  0  0  0  0  0  0  0  0  0  0
  -25.3135  -29.7716   21.8500 C   0  0  0  0  0  0  0  0  0  0  0  0
  -23.0958  -28.0496   20.2256 C   0  0  0  0  0  0  0  0  0  0  0  0
  -30.2888  -22.7022   18.8009 C   0  0  0  0  0  0  0  0  0  0  0  0
  -22.3828  -25.3150   18.3124 C   0  0  0  0  0  0  0  0  0  0  0  0
  -30.8864  -14.7551   20.4256 C   0  0  0  0  0  0  0  0  0  0  0  0
  -23.6483  -34.0437   24.0935 C   0  0  0  0  0  0  0  0  0  0  0  0
  -26.4309  -29.5009   19.6063 C   0  0  0  0  0  0  0  0  0  0  0  0
  -25.3315  -26.9422   20.6007 C   0  0  0  0  0  0  0  0  0  0  0  0
  -23.0585  -32.6689   23.7897 C   0  0  0  0  0  0  0  0  0  0  0  0
  -30.1287  -11.4691   21.5679 C   0  0  0  0  0  0  0  0  0  0  0  0
  -24.0166  -31.5675   24.2322 C   0  0  0  0  0  0  0  0  0  0  0  0
  -28.6360  -11.5354   21.8986 C   0  0  0  0  0  0  0  0  0  0  0  0
  -30.8462  -12.7708   21.9208 C   0  0  0  0  0  0  0  0  0  0  0  0
  -28.7548  -14.0504   21.6806 C   0  0  0  0  0  0  0  0  0  0  0  0
  -25.3468  -31.6560   23.4744 C   0  0  1  0  0  0  0  0  0  0  0  0
  -25.1273  -29.4400   20.3963 C   0  0  1  0  0  0  0  0  0  0  0  0
  -27.9773  -12.7852   21.2825 C   0  0  2  0  0  0  0  0  0  0  0  0
  -31.9741  -19.7325   16.1934 C   0  0  0  0  0  0  0  0  0  0  0  0
  -28.8757  -18.3732   19.9001 C   0  0  0  0  0  0  0  0  0  0  0  0
  -20.4746  -24.1552   17.1675 C   0  0  0  0  0  0  0  0  0  0  0  0
  -22.1232  -26.9963   22.9191 C   0  0  0  0  0  0  0  0  0  0  0  0
  -20.9102  -25.1816   21.6928 C   0  0  0  0  0  0  0  0  0  0  0  0
  -20.3020  -27.5694   21.3038 C   0  0  0  0  0  0  0  0  0  0  0  0
  -23.6389  -25.6256   15.6507 C   0  0  0  0  0  0  0  0  0  0  0  0
  -29.8101  -20.3798   18.0346 C   0  0  0  0  0  0  0  0  0  0  0  0
  -31.3791  -23.5104   19.4869 C   0  0  0  0  0  0  0  0  0  0  0  0
  -31.0095  -24.9749   19.6654 C   0  0  0  0  0  0  0  0  0  1  0  0
  -22.4815  -26.6795   20.3819 C   0  0  1  0  0  0  0  0  0  0  0  0
  -21.6009  -25.1662   17.0197 C   0  0  2  0  0  0  0  0  0  0  0  0
  -21.4823  -26.6101   21.5711 C   0  0  0  0  0  0  0  0  0  0  0  0
  -26.1521  -13.5835   22.7362 N   0  0  0  0  0  0  0  0  0  0  0  0
  -26.5074  -12.8829   21.6457 N   0  0  0  0  0  0  0  0  0  0  0  0
  -24.4915  -28.1222   20.3371 N   0  0  0  0  0  0  0  0  0  0  0  0
  -30.1689  -13.9108   21.2991 N   0  0  0  0  0  0  0  0  0  0  0  0
  -25.6332  -11.5921   19.8624 N   0  0  0  0  0  0  0  0  0  0  0  0
  -21.9498  -12.7899   22.1849 N   0  0  0  0  0  0  0  0  0  0  0  0
  -30.1298  -15.7859   19.8692 N   0  0  0  0  0  0  0  0  0  0  0  0
  -25.2040  -31.1186   22.1383 N   0  0  0  0  0  0  0  0  0  0  0  0
  -30.6580  -21.3728   18.6541 N   0  0  0  0  0  0  0  0  0  0  0  0
  -21.8951  -26.3451   19.0885 N   0  0  0  0  0  0  0  0  0  0  0  0
  -22.4989  -24.7120   15.9205 N   0  3  0  0  0  0  0  0  0  0  0  0
  -22.7033  -11.6165   20.3644 O   0  0  0  0  0  0  0  0  0  0  0  0
  -25.5384  -28.8718   22.6509 O   0  0  0  0  0  0  0  0  0  0  0  0
  -22.3648  -29.0185   20.0055 O   0  0  0  0  0  0  0  0  0  0  0  0
  -29.2226  -23.1866   18.4315 O   0  0  0  0  0  0  0  0  0  0  0  0
  -23.3290  -24.5877   18.6060 O   0  0  0  0  0  0  0  0  0  0  0  0
  -32.0770  -14.5606   20.1673 O   0  0  0  0  0  0  0  0  0  0  0  0
  -21.8366  -15.9002   26.8053 O   0  0  0  0  0  0  0  0  0  0  0  0
  -29.8520  -25.0738   20.4941 O   0  0  0  0  0  0  0  0  0  1  0  0
  -17.2789  -18.6312   25.3312 F   0  0  0  0  0  0  0  0  0  0  0  0
  -21.5647  -18.5988   27.3403 F   0  0  0  0  0  0  0  0  0  0  0  0
  1  2  1  0  0  0  0
  1  5  2  0  0  0  0
  2  6  2  0  0  0  0
  3 10  2  0  0  0  0
  3 17  1  0  0  0  0
  4 11  1  0  0  0  0
  4 17  2  0  0  0  0
  5 19  1  0  0  0  0
  6 21  1  0  0  0  0
  7 12  2  0  0  0  0
  7 20  1  0  0  0  0
  8  9  1  0  0  0  0
  8 23  2  0  0  0  0
  9 26  2  0  0  0  0
 10 27  1  0  0  0  0
 11 27  2  0  0  0  0
 12 28  1  0  0  0  0
 13 14  2  0  0  0  0
 13 29  1  0  0  0  0
 14 30  1  0  0  0  0
 15 22  1  0  0  0  0
 15 28  2  0  0  0  0
 16 30  2  0  0  0  0
 16 31  1  0  0  0  0
 17 32  1  0  0  0  0
 18 32  1  0  0  0  0
 18 33  2  0  0  0  0
 18 34  1  0  0  0  0
 19 21  2  0  0  0  0
 19 40  1  0  0  0  0
 20 22  2  0  0  0  0
 20 41  1  0  0  0  0
 21 49  1  0  0  0  0
 22 42  1  0  0  0  0
 23 24  1  0  0  0  0
 23 52  1  0  0  0  0
 24 25  2  0  0  0  0
 24 59  1  0  0  0  0
 25 26  1  0  0  0  0
 25 53  1  0  0  0  0
 26 71  1  0  0  0  0
 27 82  1  0  0  0  0
 28 83  1  0  0  0  0
 29 31  2  0  0  0  0
 29 82  1  0  0  0  0
 30 84  1  0  0  0  0
 31 85  1  0  0  0  0
 32 65  2  0  0  0  0
 33 66  1  0  0  0  0
 33 69  1  0  0  0  0
 34 70  1  0  0  0  0
 34 76  2  0  0  0  0
 35 50  1  0  0  0  0
 35 72  1  0  0  0  0
 35 77  2  0  0  0  0
 36 62  1  0  0  0  0
 36 67  1  0  0  0  0
 36 78  2  0  0  0  0
 37 60  1  0  0  0  0
 37 73  1  0  0  0  0
 37 79  2  0  0  0  0
 38 63  1  0  0  0  0
 38 74  1  0  0  0  0
 38 80  2  0  0  0  0
 39 68  1  0  0  0  0
 39 71  1  0  0  0  0
 39 81  2  0  0  0  0
 40 43  1  0  0  0  0
 41 50  1  0  0  0  0
 42 67  1  0  0  0  0
 43 45  1  0  0  0  0
 44 46  1  0  0  0  0
 44 47  1  0  0  0  0
 45 49  1  0  0  0  0
 46 51  1  0  0  0  0
 47 68  1  0  0  0  0
 48 51  1  0  0  0  0
 48 68  1  0  0  0  0
 49 72  1  0  0  0  0
 50 67  1  0  0  0  0
 51 66  1  0  0  0  0
 54 63  1  0  0  0  0
 55 64  1  0  0  0  0
 56 64  1  0  0  0  0
 57 64  1  0  0  0  0
 58 75  1  0  0  0  0
 59 73  1  0  0  0  0
 60 61  1  0  0  0  0
 61 83  1  0  0  0  0
 62 64  1  0  0  0  0
 62 74  1  0  0  0  0
 63 75  1  0  0  0  0
 65 66  1  0  0  0  0
M  CHG  1  75   1
M  ISO  4  39 100  61 101  71 100  83 101
M  END
> <Batch ID>
0056

> <Smiles>
CNC(C)C(=O)NC(C(=O)N1Cc2cc([101O:1][101CH2:1]CC(=O)NCc3c(C)ccc([100NH:0][100C:0](=O)N4CCCC(n5nc(-c6ccc(Oc7ccc(F)cc7F)cc6)c(C(N)=O)c5N)C4)c3C)ccc2CC1C(=O)NC1CCCc2ccccc21)C(C)(C)C

> <Shape>
0.246

> <Color>
0.087

> <Negative vol penalty>
0.000

$$$$

  -OEChem-04042322523D

 87 95  0     1  0  0  0  0  0999 V2000
  -28.2950  -36.2888   21.2322 C   0  0  0  0  0  0  0  0  0  0  0  0
  -29.0883  -35.1568   21.3885 C   0  0  0  0  0  0  0  0  0  0  0  0
  -32.2283  -17.9557   23.5032 C   0  0  0  0  0  0  0  0  0  0  0  0
  -23.1657   -9.7525   19.9459 C   0  0  0  0  0  0  0  0  0  0  0  0
  -23.8459   -9.8686   22.2612 C   0  0  0  0  0  0  0  0  0  0  0  0
  -26.9135  -36.1989   21.3979 C   0  0  0  0  0  0  0  0  0  0  0  0
  -28.5007  -33.9342   21.7118 C   0  0  0  0  0  0  0  0  0  0  0  0
  -29.2865  -26.8989   20.6152 C   0  0  0  0  0  0  0  0  0  0  0  0
  -31.3790  -18.8103   24.2059 C   0  0  0  0  0  0  0  0  0  0  0  0
  -31.6976  -17.0215   22.6135 C   0  0  0  0  0  0  0  0  0  0  0  0
  -22.4751   -8.5693   20.2081 C   0  0  0  0  0  0  0  0  0  0  0  0
  -23.1552   -8.6855   22.5235 C   0  0  0  0  0  0  0  0  0  0  0  0
  -29.3704  -25.7011   21.3238 C   0  0  0  0  0  0  0  0  0  0  0  0
  -23.6381   -5.3685   22.0814 C   0  0  0  0  0  0  0  0  0  0  0  0
  -24.2817   -4.3994   22.8511 C   0  0  0  0  0  0  0  0  0  0  0  0
  -26.9657  -25.6484   21.5079 C   0  0  0  0  0  0  0  0  0  0  0  0
  -22.5165   -4.5332   24.4953 C   0  0  0  0  0  0  0  0  0  0  0  0
  -23.8512  -10.4021   20.9724 C   0  0  0  0  0  0  0  0  0  0  0  0
  -24.0644  -12.9372   20.7835 C   0  0  0  0  0  0  0  0  0  0  0  0
  -26.3077  -34.9726   21.7139 C   0  0  0  0  0  0  0  0  0  0  0  0
  -28.0400  -27.4870   20.3566 C   0  0  0  0  0  0  0  0  0  0  0  0
  -27.1100  -33.8281   21.8833 C   0  0  0  0  0  0  0  0  0  0  0  0
  -26.8685  -26.8524   20.7936 C   0  0  0  0  0  0  0  0  0  0  0  0
  -29.9990  -18.7308   24.0190 C   0  0  0  0  0  0  0  0  0  0  0  0
  -29.4683  -17.7967   23.1294 C   0  0  0  0  0  0  0  0  0  0  0  0
  -30.3176  -16.9420   22.4266 C   0  0  0  0  0  0  0  0  0  0  0  0
  -22.4698   -8.0358   21.4969 C   0  0  0  0  0  0  0  0  0  0  0  0
  -28.2101  -25.0772   21.7728 C   0  0  0  0  0  0  0  0  0  0  0  0
  -22.4338   -5.9200   22.5188 C   0  0  0  0  0  0  0  0  0  0  0  0
  -23.7209   -3.9817   24.0580 C   0  0  0  0  0  0  0  0  0  0  0  0
  -21.8730   -5.5023   23.7257 C   0  0  0  0  0  0  0  0  0  0  0  0
  -24.5653  -11.6240   20.7021 C   0  0  0  0  0  0  0  0  0  0  0  0
  -25.1276  -13.7326   20.4322 C   0  0  0  0  0  0  0  0  0  0  0  0
  -30.8298  -19.2339   28.6214 C   0  0  0  0  0  0  0  0  0  0  0  0
  -30.2939  -19.3908   27.4060 C   0  0  0  0  0  0  0  0  0  0  0  0
  -29.4649  -22.1099   23.4764 C   0  0  0  0  0  0  0  0  0  0  0  0
  -29.9937  -21.9347   24.6932 C   0  0  0  0  0  0  0  0  0  0  0  0
  -22.7552  -13.3969   21.1446 C   0  0  0  0  0  0  0  0  0  0  0  0
  -30.4565  -20.6826   26.6723 C   0  0  0  0  0  0  0  0  0  0  0  0
  -26.6525  -30.2381   21.1378 C   0  0  0  0  0  0  0  0  0  0  0  0
  -24.3236  -29.1816   19.1423 C   0  0  0  0  0  0  0  0  0  0  0  0
  -22.7803  -26.5379   17.6336 C   0  0  0  0  0  0  0  0  0  0  0  0
  -30.5226  -15.0728   20.7502 C   0  0  0  0  0  0  0  0  0  0  0  0
  -24.8155  -34.9344   21.9297 C   0  0  0  0  0  0  0  0  0  0  0  0
  -27.9649  -28.7655   19.5678 C   0  0  0  0  0  0  0  0  0  0  0  0
  -25.5048  -27.4322   20.5244 C   0  0  0  0  0  0  0  0  0  0  0  0
  -24.2322  -33.5240   21.9034 C   0  0  0  0  0  0  0  0  0  0  0  0
  -29.6169  -12.5331   18.4249 C   0  0  0  0  0  0  0  0  0  0  0  0
  -25.0772  -32.5809   22.7539 C   0  0  0  0  0  0  0  0  0  0  0  0
  -28.1807  -12.1783   18.8167 C   0  0  0  0  0  0  0  0  0  0  0  0
  -30.4775  -12.8463   19.6476 C   0  0  0  0  0  0  0  0  0  0  0  0
  -28.4895  -13.5091   20.9429 C   0  0  0  0  0  0  0  0  0  0  0  0
  -26.5071  -32.4789   22.2095 C   0  0  1  0  0  0  0  0  0  0  0  0
  -26.6728  -29.5403   19.8073 C   0  0  1  0  0  0  0  0  0  0  0  0
  -27.5676  -13.2491   19.7403 C   0  0  2  0  0  0  0  0  0  0  0  0
  -27.9869  -17.7152   22.9321 C   0  0  0  0  0  0  0  0  0  0  0  0
  -20.8824  -25.9851   16.0877 C   0  0  0  0  0  0  0  0  0  0  0  0
  -22.3414  -29.6384   21.4165 C   0  0  0  0  0  0  0  0  0  0  0  0
  -20.6977  -28.2137   20.1768 C   0  0  0  0  0  0  0  0  0  0  0  0
  -21.5200  -30.3381   19.1603 C   0  0  0  0  0  0  0  0  0  0  0  0
  -24.6056  -25.3494   15.6300 C   0  0  0  0  0  0  0  0  0  0  0  0
  -29.1076  -19.6626   24.7880 C   0  0  0  0  0  0  0  0  0  0  0  0
  -29.5935  -23.3773   22.6961 C   0  0  0  0  0  0  0  0  0  1  0  0
  -23.0744  -28.3493   19.3030 C   0  0  1  0  0  0  0  0  0  0  0  0
  -22.3661  -26.3019   16.1924 C   0  0  2  0  0  0  0  0  0  0  0  0
  -21.9340  -29.1247   20.0211 C   0  0  0  0  0  0  0  0  0  0  0  0
  -25.8469  -11.5833   20.3281 N   0  0  0  0  0  0  0  0  0  0  0  0
  -26.1603  -12.8807   20.1714 N   0  0  0  0  0  0  0  0  0  0  0  0
  -25.4840  -28.6870   19.7545 N   0  0  0  0  0  0  0  0  0  0  0  0
  -29.8359  -13.8717   20.4734 N   0  0  0  0  0  0  0  0  0  0  0  0
  -25.2705  -15.0706   20.3238 N   0  0  0  0  0  0  0  0  0  0  0  0
  -21.7814  -12.4456   21.4776 N   0  0  0  0  0  0  0  0  0  0  0  0
  -29.8003  -15.9861   21.5175 N   0  0  0  0  0  0  0  0  0  0  0  0
  -26.5461  -31.6130   21.0505 N   0  0  0  0  0  0  0  0  0  0  0  0
  -22.7258  -27.8744   17.9683 N   0  0  0  0  0  0  0  0  0  0  0  0
  -29.8630  -20.7749   25.3932 N   0  0  0  0  0  0  0  0  0  0  0  0
  -23.1320  -25.1620   15.6134 N   0  3  0  0  0  0  0  0  0  0  0  0
  -22.4532  -14.6143   21.1552 O   0  0  0  0  0  0  0  0  0  0  0  0
  -31.0912  -21.6030   27.1923 O   0  0  0  0  0  0  0  0  0  0  0  0
  -26.7264  -29.5778   22.1675 O   0  0  0  0  0  0  0  0  0  0  0  0
  -24.2734  -30.2282   18.4913 O   0  0  0  0  0  0  0  0  0  0  0  0
  -23.1148  -25.6273   18.3882 O   0  0  0  0  0  0  0  0  0  0  0  0
  -31.6565  -15.2874   20.3142 O   0  0  0  0  0  0  0  0  0  0  0  0
  -21.7958   -6.8815   21.7532 O   0  0  0  0  0  0  0  0  0  0  0  0
  -28.2893  -23.9084   22.4652 O   0  0  0  0  0  0  0  0  0  1  0  0
  -24.3381   -3.0500   24.7962 F   0  0  0  0  0  0  0  0  0  0  0  0
  -20.7157   -6.0276   24.1505 F   0  0  0  0  0  0  0  0  0  0  0  0
  1  2  1  0  0  0  0
  1  6  2  0  0  0  0
  2  7  2  0  0  0  0
  3  9  2  0  0  0  0
  3 10  1  0  0  0  0
  4 11  2  0  0  0  0
  4 18  1  0  0  0  0
  5 12  1  0  0  0  0
  5 18  2  0  0  0  0
  6 20  1  0  0  0  0
  7 22  1  0  0  0  0
  8 13  2  0  0  0  0
  8 21  1  0  0  0  0
  9 24  1  0  0  0  0
 10 26  2  0  0  0  0
 11 27  1  0  0  0  0
 12 27  2  0  0  0  0
 13 28  1  0  0  0  0
 14 15  2  0  0  0  0
 14 29  1  0  0  0  0
 15 30  1  0  0  0  0
 16 23  1  0  0  0  0
 16 28  2  0  0  0  0
 17 30  2  0  0  0  0
 17 31  1  0  0  0  0
 18 32  1  0  0  0  0
 19 32  1  0  0  0  0
 19 33  2  0  0  0  0
 19 38  1  0  0  0  0
 20 22  2  0  0  0  0
 20 44  1  0  0  0  0
 21 23  2  0  0  0  0
 21 45  1  0  0  0  0
 22 53  1  0  0  0  0
 23 46  1  0  0  0  0
 24 25  2  0  0  0  0
 24 62  1  0  0  0  0
 25 26  1  0  0  0  0
 25 56  1  0  0  0  0
 26 73  1  0  0  0  0
 27 84  1  0  0  0  0
 28 85  1  0  0  0  0
 29 31  2  0  0  0  0
 29 84  1  0  0  0  0
 30 86  1  0  0  0  0
 31 87  1  0  0  0  0
 32 67  2  0  0  0  0
 33 68  1  0  0  0  0
 33 71  1  0  0  0  0
 34 35  2  0  0  0  0
 35 39  1  0  0  0  0
 36 37  2  0  0  0  0
 36 63  1  0  0  0  0
 37 76  1  0  0  0  0
 38 72  1  0  0  0  0
 38 78  2  0  0  0  0
 39 76  1  0  0  0  0
 39 79  2  0  0  0  0
 40 54  1  0  0  0  0
 40 74  1  0  0  0  0
 40 80  2  0  0  0  0
 41 64  1  0  0  0  0
 41 69  1  0  0  0  0
 41 81  2  0  0  0  0
 42 65  1  0  0  0  0
 42 75  1  0  0  0  0
 42 82  2  0  0  0  0
 43 70  1  0  0  0  0
 43 73  1  0  0  0  0
 43 83  2  0  0  0  0
 44 47  1  0  0  0  0
 45 54  1  0  0  0  0
 46 69  1  0  0  0  0
 47 49  1  0  0  0  0
 48 50  1  0  0  0  0
 48 51  1  0  0  0  0
 49 53  1  0  0  0  0
 50 55  1  0  0  0  0
 51 70  1  0  0  0  0
 52 55  1  0  0  0  0
 52 70  1  0  0  0  0
 53 74  1  0  0  0  0
 54 69  1  0  0  0  0
 55 68  1  0  0  0  0
 57 65  1  0  0  0  0
 58 66  1  0  0  0  0
 59 66  1  0  0  0  0
 60 66  1  0  0  0  0
 61 77  1  0  0  0  0
 62 76  1  0  0  0  0
 63 85  1  0  0  0  0
 64 66  1  0  0  0  0
 64 75  1  0  0  0  0
 65 77  1  0  0  0  0
 67 68  1  0  0  0  0
M  CHG  1  77   1
M  ISO  4  43 100  63 101  73 100  85 101
M  END
> <Batch ID>
0056

> <Smiles>
C=CC(=O)N(C=C[101CH2:1][101O:1]c1ccc2c(c1)CN(C(=O)C(NC(=O)C(C)NC)C(C)(C)C)C(C(=O)NC1CCCc3ccccc31)C2)Cc1cccc([100NH:0][100C:0](=O)N2CCCC(n3nc(-c4ccc(Oc5ccc(F)cc5F)cc4)c(C(N)=O)c3N)C2)c1C

> <Shape>
0.285

> <Color>
0.200

> <Negative vol penalty>
0.000

$$$$

  -OEChem-04042322523D

 85 93  0     1  0  0  0  0  0999 V2000
  -33.0690  -29.4995   12.1343 C   0  0  0  0  0  0  0  0  0  0  0  0
  -32.8472  -29.0315   13.4255 C   0  0  0  0  0  0  0  0  0  0  0  0
  -22.9619   -9.9258   20.0638 C   0  0  0  0  0  0  0  0  0  0  0  0
  -23.6718  -10.0753   22.3683 C   0  0  0  0  0  0  0  0  0  0  0  0
  -32.0895  -30.2537   11.4896 C   0  0  0  0  0  0  0  0  0  0  0  0
  -31.6461  -29.3183   14.0731 C   0  0  0  0  0  0  0  0  0  0  0  0
  -29.6921  -25.2792   16.4211 C   0  0  0  0  0  0  0  0  0  0  0  0
  -22.1718   -8.8204   20.3789 C   0  0  0  0  0  0  0  0  0  0  0  0
  -22.8816   -8.9698   22.6834 C   0  0  0  0  0  0  0  0  0  0  0  0
  -30.2568  -24.9185   17.6437 C   0  0  0  0  0  0  0  0  0  0  0  0
  -23.0648   -5.6078   22.3762 C   0  0  0  0  0  0  0  0  0  0  0  0
  -23.6274   -4.6176   23.1815 C   0  0  0  0  0  0  0  0  0  0  0  0
  -28.4391  -26.0066   18.7975 C   0  0  0  0  0  0  0  0  0  0  0  0
  -29.9629  -17.4925   22.8649 C   0  0  0  0  0  0  0  0  0  0  0  0
  -31.9440  -18.4017   23.9069 C   0  0  0  0  0  0  0  0  0  0  0  0
  -32.1272  -16.5285   22.3921 C   0  0  0  0  0  0  0  0  0  0  0  0
  -21.8968   -4.9744   24.8292 C   0  0  0  0  0  0  0  0  0  0  0  0
  -23.7119  -10.5533   21.0585 C   0  0  0  0  0  0  0  0  0  0  0  0
  -24.1469  -13.0496   20.7636 C   0  0  0  0  0  0  0  0  0  0  0  0
  -30.8719  -30.5418   12.1260 C   0  0  0  0  0  0  0  0  0  0  0  0
  -28.5004  -26.0171   16.3776 C   0  0  0  0  0  0  0  0  0  0  0  0
  -30.6499  -30.0782   13.4368 C   0  0  0  0  0  0  0  0  0  0  0  0
  -27.8600  -26.3733   17.5730 C   0  0  0  0  0  0  0  0  0  0  0  0
  -30.5622  -18.4199   23.7172 C   0  0  0  0  0  0  0  0  0  0  0  0
  -30.7454  -16.5467   22.2024 C   0  0  0  0  0  0  0  0  0  0  0  0
  -22.1316   -8.3424   21.6887 C   0  0  0  0  0  0  0  0  0  0  0  0
  -29.6318  -25.2846   18.8321 C   0  0  0  0  0  0  0  0  0  0  0  0
  -21.9183   -6.2815   22.7975 C   0  0  0  0  0  0  0  0  0  0  0  0
  -23.0434   -4.3008   24.4080 C   0  0  0  0  0  0  0  0  0  0  0  0
  -32.7265  -17.4559   23.2443 C   0  0  0  0  0  0  0  0  0  0  0  0
  -21.3343   -5.9647   24.0240 C   0  0  0  0  0  0  0  0  0  0  0  0
  -24.5287  -11.6949   20.7336 C   0  0  0  0  0  0  0  0  0  0  0  0
  -25.2729  -13.7324   20.3733 C   0  0  0  0  0  0  0  0  0  0  0  0
  -29.3459  -22.5755   22.3861 C   0  0  0  0  0  0  0  0  0  0  0  0
  -29.9054  -23.7507   22.0676 C   0  0  0  0  0  0  0  0  0  0  0  0
  -22.8870  -13.6381   21.1130 C   0  0  0  0  0  0  0  0  0  0  0  0
  -30.0189  -21.6574   23.3460 C   0  0  0  0  0  0  0  0  0  0  0  0
  -27.6726  -28.8778   15.2664 C   0  0  0  0  0  0  0  0  0  0  0  0
  -24.6881  -27.8964   16.0739 C   0  0  0  0  0  0  0  0  0  0  0  0
  -22.7251  -25.8675   17.9914 C   0  0  0  0  0  0  0  0  0  0  0  0
  -30.7681  -14.6000   20.6037 C   0  0  0  0  0  0  0  0  0  0  0  0
  -29.8623  -31.4008   11.4067 C   0  0  0  0  0  0  0  0  0  0  0  0
  -27.8900  -26.3754   15.0504 C   0  0  0  0  0  0  0  0  0  0  0  0
  -26.5684  -27.1480   17.5805 C   0  0  0  0  0  0  0  0  0  0  0  0
  -28.4660  -31.3437   12.0212 C   0  0  0  0  0  0  0  0  0  0  0  0
  -29.6190  -12.0583   18.3909 C   0  0  0  0  0  0  0  0  0  0  0  0
  -28.5435  -31.4920   13.5373 C   0  0  0  0  0  0  0  0  0  0  0  0
  -28.1609  -11.8486   18.8056 C   0  0  0  0  0  0  0  0  0  0  0  0
  -30.5156  -12.3432   19.5945 C   0  0  0  0  0  0  0  0  0  0  0  0
  -28.6065  -13.2322   20.8729 C   0  0  0  0  0  0  0  0  0  0  0  0
  -29.3499  -30.3476   14.1631 C   0  0  1  0  0  0  0  0  0  0  0  0
  -26.9449  -27.5703   15.1305 C   0  0  1  0  0  0  0  0  0  0  0  0
  -27.6538  -13.0063   19.6876 C   0  0  2  0  0  0  0  0  0  0  0  0
  -20.3207  -25.3186   18.4552 C   0  0  0  0  0  0  0  0  0  0  0  0
  -24.4159  -30.4683   17.6929 C   0  0  0  0  0  0  0  0  0  0  0  0
  -22.4534  -29.4428   18.8612 C   0  0  0  0  0  0  0  0  0  0  0  0
  -22.3738  -29.8296   16.3982 C   0  0  0  0  0  0  0  0  0  0  0  0
  -23.0789  -23.0590   17.1276 C   0  0  0  0  0  0  0  0  0  0  0  0
  -29.7205  -19.4385   24.4301 C   0  0  0  0  0  0  0  0  0  0  0  0
  -29.2849  -24.7230   21.1169 C   0  0  0  0  0  0  0  0  0  1  0  0
  -23.8343  -27.9812   17.3160 C   0  0  1  0  0  0  0  0  0  0  0  0
  -21.5534  -24.9704   17.6354 C   0  0  2  0  0  0  0  0  0  0  0  0
  -23.2947  -29.4176   17.5673 C   0  0  0  0  0  0  0  0  0  0  0  0
  -25.7981  -11.5253   20.3541 N   0  0  0  0  0  0  0  0  0  0  0  0
  -26.2236  -12.7823   20.1419 N   0  0  0  0  0  0  0  0  0  0  0  0
  -26.0144  -27.4803   16.2575 N   0  0  0  0  0  0  0  0  0  0  0  0
  -29.9752  -13.4543   20.3808 N   0  0  0  0  0  0  0  0  0  0  0  0
  -25.5326  -15.0469   20.2088 N   0  0  0  0  0  0  0  0  0  0  0  0
  -21.8360  -12.7914   21.4909 N   0  0  0  0  0  0  0  0  0  0  0  0
  -30.1369  -15.6043   21.3368 N   0  0  0  0  0  0  0  0  0  0  0  0
  -29.2890  -20.4981   23.5462 N   0  0  0  0  0  0  0  0  0  0  0  0
  -28.5493  -29.1439   14.2320 N   0  0  0  0  0  0  0  0  0  0  0  0
  -22.7937  -26.9698   17.1659 N   0  0  0  0  0  0  0  0  0  0  0  0
  -21.8983  -23.5429   17.8885 N   0  3  0  0  0  0  0  0  0  0  0  0
  -22.6940  -14.8769   21.0750 O   0  0  0  0  0  0  0  0  0  0  0  0
  -31.0920  -21.9284   23.8749 O   0  0  0  0  0  0  0  0  0  0  0  0
  -27.4537  -29.5930   16.2371 O   0  0  0  0  0  0  0  0  0  0  0  0
  -24.1944  -28.1818   14.9801 O   0  0  0  0  0  0  0  0  0  0  0  0
  -23.4997  -25.6174   18.9122 O   0  0  0  0  0  0  0  0  0  0  0  0
  -31.9124  -14.6951   20.1525 O   0  0  0  0  0  0  0  0  0  0  0  0
  -21.3606   -7.2638   21.9965 O   0  0  0  0  0  0  0  0  0  0  0  0
  -30.1812  -24.9343   20.0269 O   0  0  0  0  0  0  0  0  0  1  0  0
  -23.5828   -3.3488   25.1805 F   0  0  0  0  0  0  0  0  0  0  0  0
  -34.0534  -17.4385   23.4265 F   0  0  0  0  0  0  0  0  0  0  0  0
  -20.2321   -6.6076   24.4334 F   0  0  0  0  0  0  0  0  0  0  0  0
  1  2  1  0  0  0  0
  1  5  2  0  0  0  0
  2  6  2  0  0  0  0
  3  8  2  0  0  0  0
  3 18  1  0  0  0  0
  4  9  1  0  0  0  0
  4 18  2  0  0  0  0
  5 20  1  0  0  0  0
  6 22  1  0  0  0  0
  7 10  2  0  0  0  0
  7 21  1  0  0  0  0
  8 26  1  0  0  0  0
  9 26  2  0  0  0  0
 10 27  1  0  0  0  0
 11 12  2  0  0  0  0
 11 28  1  0  0  0  0
 12 29  1  0  0  0  0
 13 23  1  0  0  0  0
 13 27  2  0  0  0  0
 14 24  2  0  0  0  0
 14 25  1  0  0  0  0
 15 24  1  0  0  0  0
 15 30  2  0  0  0  0
 16 25  2  0  0  0  0
 16 30  1  0  0  0  0
 17 29  2  0  0  0  0
 17 31  1  0  0  0  0
 18 32  1  0  0  0  0
 19 32  1  0  0  0  0
 19 33  2  0  0  0  0
 19 36  1  0  0  0  0
 20 22  2  0  0  0  0
 20 42  1  0  0  0  0
 21 23  2  0  0  0  0
 21 43  1  0  0  0  0
 22 51  1  0  0  0  0
 23 44  1  0  0  0  0
 24 59  1  0  0  0  0
 25 70  1  0  0  0  0
 26 81  1  0  0  0  0
 27 82  1  0  0  0  0
 28 31  2  0  0  0  0
 28 81  1  0  0  0  0
 29 83  1  0  0  0  0
 30 84  1  0  0  0  0
 31 85  1  0  0  0  0
 32 64  2  0  0  0  0
 33 65  1  0  0  0  0
 33 68  1  0  0  0  0
 34 35  2  0  0  0  0
 34 37  1  0  0  0  0
 35 60  1  0  0  0  0
 36 69  1  0  0  0  0
 36 75  2  0  0  0  0
 37 71  1  0  0  0  0
 37 76  2  0  0  0  0
 38 52  1  0  0  0  0
 38 72  1  0  0  0  0
 38 77  2  0  0  0  0
 39 61  1  0  0  0  0
 39 66  1  0  0  0  0
 39 78  2  0  0  0  0
 40 62  1  0  0  0  0
 40 73  1  0  0  0  0
 40 79  2  0  0  0  0
 41 67  1  0  0  0  0
 41 70  1  0  0  0  0
 41 80  2  0  0  0  0
 42 45  1  0  0  0  0
 43 52  1  0  0  0  0
 44 66  1  0  0  0  0
 45 47  1  0  0  0  0
 46 48  1  0  0  0  0
 46 49  1  0  0  0  0
 47 51  1  0  0  0  0
 48 53  1  0  0  0  0
 49 67  1  0  0  0  0
 50 53  1  0  0  0  0
 50 67  1  0  0  0  0
 51 72  1  0  0  0  0
 52 66  1  0  0  0  0
 53 65  1  0  0  0  0
 54 62  1  0  0  0  0
 55 63  1  0  0  0  0
 56 63  1  0  0  0  0
 57 63  1  0  0  0  0
 58 74  1  0  0  0  0
 59 71  1  0  0  0  0
 60 82  1  0  0  0  0
 61 63  1  0  0  0  0
 61 73  1  0  0  0  0
 62 74  1  0  0  0  0
 64 65  1  0  0  0  0
M  CHG  1  74   1
M  ISO  4  41 100  60 101  70 100  82 101
M  END
> <Batch ID>
0056

> <Smiles>
CNC(C)C(=O)NC(C(=O)N1Cc2cc([101O:1][101CH2:1]C=CC(=O)NCc3cc(F)cc([100NH:0][100C:0](=O)N4CCCC(n5nc(-c6ccc(Oc7ccc(F)cc7F)cc6)c(C(N)=O)c5N)C4)c3)ccc2CC1C(=O)NC1CCCc2ccccc21)C(C)(C)C

> <Shape>
0.217

> <Color>
0.204

> <Negative vol penalty>
0.000

$$$$

  -OEChem-04042322523D

 85 93  0     1  0  0  0  0  0999 V2000
  -17.2966  -30.5631   23.4931 C   0  0  0  0  0  0  0  0  0  0  0  0
  -18.5961  -30.5010   23.9859 C   0  0  0  0  0  0  0  0  0  0  0  0
  -26.2561  -12.7726   21.5835 C   0  0  0  0  0  0  0  0  0  0  0  0
  -25.7632  -13.5679   19.3560 C   0  0  0  0  0  0  0  0  0  0  0  0
  -16.7362  -29.4511   22.8659 C   0  0  0  0  0  0  0  0  0  0  0  0
  -19.3356  -29.3264   23.8528 C   0  0  0  0  0  0  0  0  0  0  0  0
  -25.6276  -29.2829   20.3456 C   0  0  0  0  0  0  0  0  0  0  0  0
  -28.1171  -22.0516   15.8156 C   0  0  0  0  0  0  0  0  0  0  0  0
  -28.1563  -21.1211   16.8540 C   0  0  0  0  0  0  0  0  0  0  0  0
  -25.0583  -12.0580   21.5934 C   0  0  0  0  0  0  0  0  0  0  0  0
  -24.5654  -12.8532   19.3659 C   0  0  0  0  0  0  0  0  0  0  0  0
  -26.9392  -29.2361   19.8725 C   0  0  0  0  0  0  0  0  0  0  0  0
  -23.8817   -9.1507   20.3299 C   0  0  0  0  0  0  0  0  0  0  0  0
  -23.9141   -7.8378   20.7995 C   0  0  0  0  0  0  0  0  0  0  0  0
  -28.9850  -22.8268   18.3510 C   0  0  0  0  0  0  0  0  0  0  0  0
  -27.0033  -26.8491   20.2553 C   0  0  0  0  0  0  0  0  0  0  0  0
  -22.3347   -8.4188   22.5330 C   0  0  0  0  0  0  0  0  0  0  0  0
  -26.6085  -13.5276   20.4648 C   0  0  0  0  0  0  0  0  0  0  0  0
  -28.9459  -23.7572   17.3125 C   0  0  0  0  0  0  0  0  0  0  0  0
  -29.1031  -13.8126   20.0136 C   0  0  0  0  0  0  0  0  0  0  0  0
  -17.4727  -28.2654   22.7164 C   0  0  0  0  0  0  0  0  0  0  0  0
  -24.9929  -28.1091   20.7614 C   0  0  0  0  0  0  0  0  0  0  0  0
  -18.7841  -28.1970   23.2242 C   0  0  0  0  0  0  0  0  0  0  0  0
  -25.6854  -26.8879   20.7184 C   0  0  0  0  0  0  0  0  0  0  0  0
  -28.5119  -23.3696   16.0448 C   0  0  0  0  0  0  0  0  0  0  0  0
  -28.5902  -21.5087   18.1217 C   0  0  0  0  0  0  0  0  0  0  0  0
  -24.2129  -12.0982   20.4847 C   0  0  0  0  0  0  0  0  0  0  0  0
  -27.6254  -28.0222   19.8277 C   0  0  0  0  0  0  0  0  0  0  0  0
  -23.0758  -10.0978   20.9618 C   0  0  0  0  0  0  0  0  0  0  0  0
  -23.1406   -7.4718   21.9010 C   0  0  0  0  0  0  0  0  0  0  0  0
  -22.3023   -9.7318   22.0634 C   0  0  0  0  0  0  0  0  0  0  0  0
  -27.8455  -14.2665   20.4542 C   0  0  0  0  0  0  0  0  0  0  0  0
  -29.9420  -14.8824   20.2090 C   0  0  0  0  0  0  0  0  0  0  0  0
  -29.8827  -27.5363   20.2034 C   0  0  0  0  0  0  0  0  0  1  0  0
  -29.3713  -25.1545   17.5844 C   0  0  0  0  0  0  0  0  0  0  0  0
  -29.4793  -12.5379   19.4757 C   0  0  0  0  0  0  0  0  0  0  0  0
  -30.9987  -26.9067   19.8044 C   0  0  0  0  0  0  0  0  0  0  0  0
  -21.8812  -26.5121   22.1189 C   0  0  0  0  0  0  0  0  0  0  0  0
  -23.0042  -24.6088   19.9912 C   0  0  0  0  0  0  0  0  0  0  0  0
  -24.3298  -22.9967   17.2929 C   0  0  0  0  0  0  0  0  0  0  0  0
  -29.0362  -20.7820   20.4922 C   0  0  0  0  0  0  0  0  0  0  0  0
  -16.8078  -27.0741   22.0735 C   0  0  0  0  0  0  0  0  0  0  0  0
  -23.6023  -28.1218   21.3358 C   0  0  0  0  0  0  0  0  0  0  0  0
  -24.9746  -25.6561   21.2084 C   0  0  0  0  0  0  0  0  0  0  0  0
  -17.7900  -25.9891   21.6393 C   0  0  0  0  0  0  0  0  0  0  0  0
  -30.5142  -18.7317   23.0000 C   0  0  0  0  0  0  0  0  0  0  0  0
  -18.7946  -25.7027   22.7509 C   0  0  0  0  0  0  0  0  0  0  0  0
  -30.1171  -17.3122   22.5883 C   0  0  0  0  0  0  0  0  0  0  0  0
  -29.3992  -19.7371   22.7174 C   0  0  0  0  0  0  0  0  0  0  0  0
  -28.4907  -18.3067   20.9292 C   0  0  0  0  0  0  0  0  0  0  0  0
  -19.6268  -26.9487   23.0769 C   0  0  1  0  0  0  0  0  0  0  0  0
  -22.7901  -26.8642   20.9781 C   0  0  1  0  0  0  0  0  0  0  0  0
  -29.6064  -17.2691   21.1347 C   0  0  2  0  0  0  0  0  0  0  0  0
  -28.4601  -24.3458   14.9150 C   0  0  0  0  0  0  0  0  0  0  0  0
  -32.0539  -26.4295   20.7639 C   0  0  0  0  0  0  0  0  0  0  0  0
  -24.0124  -20.9578   15.8648 C   0  0  0  0  0  0  0  0  0  0  0  0
  -24.2011  -22.8797   22.2006 C   0  0  0  0  0  0  0  0  0  0  0  0
  -24.7349  -21.1561   20.4649 C   0  0  0  0  0  0  0  0  0  0  0  0
  -22.3622  -21.7895   20.9028 C   0  0  0  0  0  0  0  0  0  0  0  0
  -23.8891  -24.6258   14.8617 C   0  0  0  0  0  0  0  0  0  0  0  0
  -31.2309  -26.6083   18.3488 C   0  0  0  0  0  0  0  0  0  0  0  0
  -23.8764  -23.4150   19.6958 C   0  0  1  0  0  0  0  0  0  0  0  0
  -23.6853  -22.4327   16.0395 C   0  0  2  0  0  0  0  0  0  0  0  0
  -23.8035  -22.3366   20.8135 C   0  0  0  0  0  0  0  0  0  0  0  0
  -27.8779  -15.5265   20.8963 N   0  0  0  0  0  0  0  0  0  0  0  0
  -29.1662  -15.8734   20.7346 N   0  0  0  0  0  0  0  0  0  0  0  0
  -23.5856  -25.6512   20.7233 N   0  0  0  0  0  0  0  0  0  0  0  0
  -28.9691  -19.6418   21.3207 N   0  0  0  0  0  0  0  0  0  0  0  0
  -31.2603  -15.0627   19.9809 N   0  0  0  0  0  0  0  0  0  0  0  0
  -28.4927  -11.5514   19.3426 N   0  0  0  0  0  0  0  0  0  0  0  0
  -28.6318  -20.5627   19.1758 N   0  0  0  0  0  0  0  0  0  0  0  0
  -30.6805  -25.3224   18.0219 N   0  0  0  0  0  0  0  0  0  0  0  0
  -20.6542  -27.1462   22.0769 N   0  0  0  0  0  0  0  0  0  0  0  0
  -23.4791  -22.9357   18.3763 N   0  0  0  0  0  0  0  0  0  0  0  0
  -24.1660  -23.1665   14.8348 N   0  3  0  0  0  0  0  0  0  0  0  0
  -28.5637  -26.0675   17.4343 O   0  0  0  0  0  0  0  0  0  0  0  0
  -30.6589  -12.2759   19.1388 O   0  0  0  0  0  0  0  0  0  0  0  0
  -22.2633  -25.7221   22.9742 O   0  0  0  0  0  0  0  0  0  0  0  0
  -21.8371  -24.6172   19.5900 O   0  0  0  0  0  0  0  0  0  0  0  0
  -25.4748  -23.4431   17.3100 O   0  0  0  0  0  0  0  0  0  0  0  0
  -29.4497  -21.8658   20.9120 O   0  0  0  0  0  0  0  0  0  0  0  0
  -23.0441  -11.4008   20.4939 O   0  0  0  0  0  0  0  0  0  0  0  0
  -28.9040  -27.9829   19.3605 O   0  0  0  0  0  0  0  0  0  1  0  0
  -23.1706   -6.2105   22.3510 F   0  0  0  0  0  0  0  0  0  0  0  0
  -21.5253  -10.6370   22.6739 F   0  0  0  0  0  0  0  0  0  0  0  0
  1  2  1  0  0  0  0
  1  5  2  0  0  0  0
  2  6  2  0  0  0  0
  3 10  2  0  0  0  0
  3 18  1  0  0  0  0
  4 11  1  0  0  0  0
  4 18  2  0  0  0  0
  5 21  1  0  0  0  0
  6 23  1  0  0  0  0
  7 12  2  0  0  0  0
  7 22  1  0  0  0  0
  8  9  2  0  0  0  0
  8 25  1  0  0  0  0
  9 26  1  0  0  0  0
 10 27  1  0  0  0  0
 11 27  2  0  0  0  0
 12 28  1  0  0  0  0
 13 14  2  0  0  0  0
 13 29  1  0  0  0  0
 14 30  1  0  0  0  0
 15 19  1  0  0  0  0
 15 26  2  0  0  0  0
 16 24  1  0  0  0  0
 16 28  2  0  0  0  0
 17 30  2  0  0  0  0
 17 31  1  0  0  0  0
 18 32  1  0  0  0  0
 19 25  2  0  0  0  0
 19 35  1  0  0  0  0
 20 32  1  0  0  0  0
 20 33  2  0  0  0  0
 20 36  1  0  0  0  0
 21 23  2  0  0  0  0
 21 42  1  0  0  0  0
 22 24  2  0  0  0  0
 22 43  1  0  0  0  0
 23 51  1  0  0  0  0
 24 44  1  0  0  0  0
 25 54  1  0  0  0  0
 26 71  1  0  0  0  0
 27 82  1  0  0  0  0
 28 83  1  0  0  0  0
 29 31  2  0  0  0  0
 29 82  1  0  0  0  0
 30 84  1  0  0  0  0
 31 85  1  0  0  0  0
 32 65  2  0  0  0  0
 33 66  1  0  0  0  0
 33 69  1  0  0  0  0
 34 37  2  0  0  0  0
 34 83  1  0  0  0  0
 35 72  1  0  0  0  0
 35 76  2  0  0  0  0
 36 70  1  0  0  0  0
 36 77  2  0  0  0  0
 37 55  1  0  0  0  0
 37 61  1  0  0  0  0
 38 52  1  0  0  0  0
 38 73  1  0  0  0  0
 38 78  2  0  0  0  0
 39 62  1  0  0  0  0
 39 67  1  0  0  0  0
 39 79  2  0  0  0  0
 40 63  1  0  0  0  0
 40 74  1  0  0  0  0
 40 80  2  0  0  0  0
 41 68  1  0  0  0  0
 41 71  1  0  0  0  0
 41 81  2  0  0  0  0
 42 45  1  0  0  0  0
 43 52  1  0  0  0  0
 44 67  1  0  0  0  0
 45 47  1  0  0  0  0
 46 48  1  0  0  0  0
 46 49  1  0  0  0  0
 47 51  1  0  0  0  0
 48 53  1  0  0  0  0
 49 68  1  0  0  0  0
 50 53  1  0  0  0  0
 50 68  1  0  0  0  0
 51 73  1  0  0  0  0
 52 67  1  0  0  0  0
 53 66  1  0  0  0  0
 56 63  1  0  0  0  0
 57 64  1  0  0  0  0
 58 64  1  0  0  0  0
 59 64  1  0  0  0  0
 60 75  1  0  0  0  0
 61 72  1  0  0  0  0
 62 64  1  0  0  0  0
 62 74  1  0  0  0  0
 63 75  1  0  0  0  0
 65 66  1  0  0  0  0
M  CHG  1  75   1
M  ISO  4  34 101  41 100  71 100  83 101
M  END
> <Batch ID>
0056

> <Smiles>
CNC(C)C(=O)NC(C(=O)N1Cc2cc([101O:1][101CH:1]=C(C)CNC(=O)c3cc([100NH:0][100C:0](=O)N4CCCC(n5nc(-c6ccc(Oc7ccc(F)cc7F)cc6)c(C(N)=O)c5N)C4)ccc3C)ccc2CC1C(=O)NC1CCCc2ccccc21)C(C)(C)C

> <Shape>
0.314

> <Color>
0.086

> <Negative vol penalty>
0.000

$$$$

  -OEChem-04042322523D

 87 96  0     1  0  0  0  0  0999 V2000
  -17.7809  -25.6217   22.5724 C   0  0  0  0  0  0  0  0  0  0  0  0
  -19.0968  -25.1849   22.4588 C   0  0  0  0  0  0  0  0  0  0  0  0
  -25.8938  -15.7648   22.1157 C   0  0  0  0  0  0  0  0  0  0  0  0
  -23.5919  -15.4533   21.4514 C   0  0  0  0  0  0  0  0  0  0  0  0
  -17.4546  -26.9387   22.2514 C   0  0  0  0  0  0  0  0  0  0  0  0
  -20.0872  -26.0645   22.0232 C   0  0  0  0  0  0  0  0  0  0  0  0
  -25.9330  -26.2196   23.8419 C   0  0  0  0  0  0  0  0  0  0  0  0
  -26.6244  -24.8887   16.3087 C   0  0  0  0  0  0  0  0  0  0  0  0
  -25.6739  -24.3921   17.2006 C   0  0  0  0  0  0  0  0  0  0  0  0
  -26.1946  -14.4749   21.6783 C   0  0  0  0  0  0  0  0  0  0  0  0
  -23.8927  -14.1634   21.0139 C   0  0  0  0  0  0  0  0  0  0  0  0
  -27.1039  -25.7122   23.2802 C   0  0  0  0  0  0  0  0  0  0  0  0
  -24.3766  -11.1146   22.3928 C   0  0  0  0  0  0  0  0  0  0  0  0
  -23.4984  -10.0897   22.7447 C   0  0  0  0  0  0  0  0  0  0  0  0
  -27.5480  -27.8617   22.2793 C   0  0  0  0  0  0  0  0  0  0  0  0
  -27.4297  -23.3469   18.4897 C   0  0  0  0  0  0  0  0  0  0  0  0
  -23.0959   -9.6319   20.4068 C   0  0  0  0  0  0  0  0  0  0  0  0
  -24.5924  -16.2540   22.0023 C   0  0  0  0  0  0  0  0  0  0  0  0
  -24.4238  -18.0963   23.7588 C   0  0  0  0  0  0  0  0  0  0  0  0
  -18.4432  -27.8376   21.8208 C   0  0  0  0  0  0  0  0  0  0  0  0
  -25.5546  -27.5510   23.6171 C   0  0  0  0  0  0  0  0  0  0  0  0
  -19.7736  -27.3944   21.6948 C   0  0  0  0  0  0  0  0  0  0  0  0
  -26.3732  -28.3842   22.8414 C   0  0  0  0  0  0  0  0  0  0  0  0
  -27.9776  -24.6144   16.5072 C   0  0  0  0  0  0  0  0  0  0  0  0
  -28.3802  -23.8435   17.5978 C   0  0  0  0  0  0  0  0  0  0  0  0
  -26.0766  -23.6212   18.2911 C   0  0  0  0  0  0  0  0  0  0  0  0
  -25.1941  -13.6743   21.1274 C   0  0  0  0  0  0  0  0  0  0  0  0
  -27.9101  -26.5325   22.4964 C   0  0  0  0  0  0  0  0  0  0  0  0
  -24.6145  -11.3983   21.0479 C   0  0  0  0  0  0  0  0  0  0  0  0
  -22.8581   -9.3483   21.7517 C   0  0  0  0  0  0  0  0  0  0  0  0
  -23.9742  -10.6569   20.0550 C   0  0  0  0  0  0  0  0  0  0  0  0
  -24.2810  -17.5862   22.4545 C   0  0  0  0  0  0  0  0  0  0  0  0
  -23.9959  -19.3982   23.6670 C   0  0  0  0  0  0  0  0  0  0  0  0
  -30.4743  -24.5119   20.0003 C   0  0  0  0  0  0  0  0  0  0  0  0
  -24.9007  -17.4510   24.9470 C   0  0  0  0  0  0  0  0  0  0  0  0
  -23.0691  -28.9745   22.2387 C   0  0  0  0  0  0  0  0  0  0  0  0
  -24.4830  -31.6676   23.3659 C   0  0  0  0  0  0  0  0  0  0  0  0
  -27.3367  -33.2240   24.4053 C   0  0  0  0  0  0  0  0  0  0  0  0
  -23.7297  -23.2988   19.1482 C   0  0  0  0  0  0  0  0  0  0  0  0
  -18.0343  -29.2385   21.4399 C   0  0  0  0  0  0  0  0  0  0  0  0
  -24.3024  -28.0906   24.2522 C   0  0  0  0  0  0  0  0  0  0  0  0
  -26.0220  -29.8265   22.5866 C   0  0  0  0  0  0  0  0  0  0  0  0
  -19.2073  -30.2106   21.3443 C   0  0  0  0  0  0  0  0  0  0  0  0
  -30.2993  -21.8481   21.2228 C   0  0  0  0  0  0  0  0  0  0  0  0
  -21.0151  -22.1931   21.1695 C   0  0  0  0  0  0  0  0  0  0  0  0
  -20.3542  -29.5874   20.5549 C   0  0  0  0  0  0  0  0  0  0  0  0
  -31.1624  -22.9161   21.8659 C   0  0  0  0  0  0  0  0  0  0  0  0
  -21.5596  -20.9361   21.8518 C   0  0  0  0  0  0  0  0  0  0  0  0
  -30.3223  -22.0136   19.7154 C   0  0  0  0  0  0  0  0  0  0  0  0
  -21.5205  -22.3233   19.7337 C   0  0  0  0  0  0  0  0  0  0  0  0
  -23.5234  -20.9895   20.2619 C   0  0  0  0  0  0  0  0  0  0  0  0
  -20.8803  -28.3255   21.2495 C   0  0  1  0  0  0  0  0  0  0  0  0
  -30.6689  -24.3114   21.4992 C   0  0  2  0  0  0  0  0  0  0  0  0
  -23.7491  -29.3175   23.5340 C   0  0  1  0  0  0  0  0  0  0  0  0
  -23.0937  -20.8492   21.7313 C   0  0  2  0  0  0  0  0  0  0  0  0
  -28.9767  -25.1563   15.5384 C   0  0  0  0  0  0  0  0  0  0  0  0
  -28.1851  -35.4371   25.2299 C   0  0  0  0  0  0  0  0  0  0  0  0
  -24.3637  -32.7698   20.5232 C   0  0  0  0  0  0  0  0  0  0  0  0
  -26.0322  -34.5087   21.2019 C   0  0  0  0  0  0  0  0  0  0  0  0
  -23.7983  -34.4267   22.3091 C   0  0  0  0  0  0  0  0  0  0  0  0
  -28.2045  -32.0613   26.9848 C   0  0  0  0  0  0  0  0  0  0  0  0
  -29.8311  -23.5372   17.8328 C   0  0  0  0  0  0  0  0  0  0  0  0
  -29.3656  -24.6731   22.2136 C   0  0  0  0  0  0  0  0  0  1  0  0
  -25.5081  -32.6398   22.8339 C   0  0  1  0  0  0  0  0  0  0  0  0
  -27.6315  -34.0771   25.6258 C   0  0  2  0  0  0  0  0  0  0  0  0
  -24.9315  -33.5586   21.7201 C   0  0  0  0  0  0  0  0  0  0  0  0
  -23.7998  -18.4902   21.5970 N   0  0  0  0  0  0  0  0  0  0  0  0
  -23.6364  -19.5815   22.3642 N   0  0  0  0  0  0  0  0  0  0  0  0
  -30.1340  -23.3870   19.2499 N   0  0  0  0  0  0  0  0  0  0  0  0
  -24.7844  -30.3057   23.2240 N   0  0  0  0  0  0  0  0  0  0  0  0
  -22.9820  -22.2361   19.6980 N   0  0  0  0  0  0  0  0  0  0  0  0
  -23.8957  -20.3926   24.5745 N   0  0  0  0  0  0  0  0  0  0  0  0
  -25.3005  -16.1103   24.8646 N   0  0  0  0  0  0  0  0  0  0  0  0
  -25.1115  -23.1182   19.1985 N   0  0  0  0  0  0  0  0  0  0  0  0
  -21.7254  -28.6802   22.3695 N   0  0  0  0  0  0  0  0  0  0  0  0
  -26.0282  -33.3588   23.9919 N   0  0  0  0  0  0  0  0  0  0  0  0
  -28.6292  -33.4005   26.5020 N   0  3  0  0  0  0  0  0  0  0  0  0
  -30.5388  -25.6545   19.5362 O   0  0  0  0  0  0  0  0  0  0  0  0
  -24.9548  -18.0410   26.0527 O   0  0  0  0  0  0  0  0  0  0  0  0
  -23.7154  -28.9780   21.1976 O   0  0  0  0  0  0  0  0  0  0  0  0
  -23.4560  -32.1007   23.8944 O   0  0  0  0  0  0  0  0  0  0  0  0
  -28.1836  -32.5124   23.8697 O   0  0  0  0  0  0  0  0  0  0  0  0
  -23.1852  -24.3079   18.6929 O   0  0  0  0  0  0  0  0  0  0  0  0
  -25.4873  -12.4156   20.7002 O   0  0  0  0  0  0  0  0  0  0  0  0
  -29.0531  -26.0396   21.9464 O   0  0  0  0  0  0  0  0  0  1  0  0
  -22.0159   -8.3631   22.0897 F   0  0  0  0  0  0  0  0  0  0  0  0
  -24.1996  -10.9240   18.7613 F   0  0  0  0  0  0  0  0  0  0  0  0
  1  2  1  0  0  0  0
  1  5  2  0  0  0  0
  2  6  2  0  0  0  0
  3 10  2  0  0  0  0
  3 18  1  0  0  0  0
  4 11  1  0  0  0  0
  4 18  2  0  0  0  0
  5 20  1  0  0  0  0
  6 22  1  0  0  0  0
  7 12  2  0  0  0  0
  7 21  1  0  0  0  0
  8  9  2  0  0  0  0
  8 24  1  0  0  0  0
  9 26  1  0  0  0  0
 10 27  1  0  0  0  0
 11 27  2  0  0  0  0
 12 28  1  0  0  0  0
 13 14  2  0  0  0  0
 13 29  1  0  0  0  0
 14 30  1  0  0  0  0
 15 23  1  0  0  0  0
 15 28  2  0  0  0  0
 16 25  1  0  0  0  0
 16 26  2  0  0  0  0
 17 30  2  0  0  0  0
 17 31  1  0  0  0  0
 18 32  1  0  0  0  0
 19 32  1  0  0  0  0
 19 33  2  0  0  0  0
 19 35  1  0  0  0  0
 20 22  2  0  0  0  0
 20 40  1  0  0  0  0
 21 23  2  0  0  0  0
 21 41  1  0  0  0  0
 22 52  1  0  0  0  0
 23 42  1  0  0  0  0
 24 25  2  0  0  0  0
 24 56  1  0  0  0  0
 25 62  1  0  0  0  0
 26 74  1  0  0  0  0
 27 84  1  0  0  0  0
 28 85  1  0  0  0  0
 29 31  2  0  0  0  0
 29 84  1  0  0  0  0
 30 86  1  0  0  0  0
 31 87  1  0  0  0  0
 32 67  2  0  0  0  0
 33 68  1  0  0  0  0
 33 72  1  0  0  0  0
 34 53  1  0  0  0  0
 34 69  1  0  0  0  0
 34 78  2  0  0  0  0
 35 73  1  0  0  0  0
 35 79  2  0  0  0  0
 36 54  1  0  0  0  0
 36 75  1  0  0  0  0
 36 80  2  0  0  0  0
 37 64  1  0  0  0  0
 37 70  1  0  0  0  0
 37 81  2  0  0  0  0
 38 65  1  0  0  0  0
 38 76  1  0  0  0  0
 38 82  2  0  0  0  0
 39 71  1  0  0  0  0
 39 74  1  0  0  0  0
 39 83  2  0  0  0  0
 40 43  1  0  0  0  0
 41 54  1  0  0  0  0
 42 70  1  0  0  0  0
 43 46  1  0  0  0  0
 44 47  1  0  0  0  0
 44 49  1  0  0  0  0
 45 48  1  0  0  0  0
 45 50  1  0  0  0  0
 46 52  1  0  0  0  0
 47 53  1  0  0  0  0
 48 55  1  0  0  0  0
 49 69  1  0  0  0  0
 50 71  1  0  0  0  0
 51 55  1  0  0  0  0
 51 71  1  0  0  0  0
 52 75  1  0  0  0  0
 53 63  1  0  0  0  0
 54 70  1  0  0  0  0
 55 68  1  0  0  0  0
 57 65  1  0  0  0  0
 58 66  1  0  0  0  0
 59 66  1  0  0  0  0
 60 66  1  0  0  0  0
 61 77  1  0  0  0  0
 62 69  1  0  0  0  0
 63 85  1  0  0  0  0
 64 66  1  0  0  0  0
 64 76  1  0  0  0  0
 65 77  1  0  0  0  0
 67 68  1  0  0  0  0
M  CHG  1  77   1
M  ISO  4  39 100  63 101  74 100  85 101
M  END
> <Batch ID>
0056

> <Smiles>
CNC(C)C(=O)NC(C(=O)N1Cc2cc([101O:1][101CH2:1]C3CCCN(Cc4cc([100NH:0][100C:0](=O)N5CCCC(n6nc(-c7ccc(Oc8ccc(F)cc8F)cc7)c(C(N)=O)c6N)C5)ccc4C)C3=O)ccc2CC1C(=O)NC1CCCc2ccccc21)C(C)(C)C

> <Shape>
0.218

> <Color>
0.075

> <Negative vol penalty>
0.000

$$$$

  -OEChem-04042322523D

 87 96  0     1  0  0  0  0  0999 V2000
  -23.0681   -7.9244   21.2087 C   0  0  0  0  0  0  0  0  0  0  0  0
  -22.4534   -8.7216   20.2485 C   0  0  0  0  0  0  0  0  0  0  0  0
  -28.5205  -28.1495   20.6995 C   0  0  0  0  0  0  0  0  0  0  0  0
  -27.0021  -26.5365   19.7350 C   0  0  0  0  0  0  0  0  0  0  0  0
  -23.6599   -8.5120   22.3260 C   0  0  0  0  0  0  0  0  0  0  0  0
  -22.4292  -10.1069   20.4056 C   0  0  0  0  0  0  0  0  0  0  0  0
  -22.5649  -16.1625   16.5810 C   0  0  0  0  0  0  0  0  0  0  0  0
  -17.2927  -24.2940   21.0912 C   0  0  0  0  0  0  0  0  0  0  0  0
  -18.1525  -25.2321   21.6624 C   0  0  0  0  0  0  0  0  0  0  0  0
  -29.5979  -27.3181   20.3937 C   0  0  0  0  0  0  0  0  0  0  0  0
  -28.0796  -25.7051   19.4292 C   0  0  0  0  0  0  0  0  0  0  0  0
  -21.8587  -17.3545   16.4259 C   0  0  0  0  0  0  0  0  0  0  0  0
  -30.4877  -25.5192   17.0656 C   0  0  0  0  0  0  0  0  0  0  0  0
  -30.5184  -24.9410   15.7966 C   0  0  0  0  0  0  0  0  0  0  0  0
  -22.9825  -18.2646   18.3567 C   0  0  0  0  0  0  0  0  0  0  0  0
  -18.2445  -24.7454   18.9169 C   0  0  0  0  0  0  0  0  0  0  0  0
  -30.4933  -22.7423   16.7978 C   0  0  0  0  0  0  0  0  0  0  0  0
  -27.2225  -27.7587   20.3702 C   0  0  0  0  0  0  0  0  0  0  0  0
  -25.8934  -29.9317   20.2319 C   0  0  0  0  0  0  0  0  0  0  0  0
  -23.6514   -9.9059   22.4921 C   0  0  0  0  0  0  0  0  0  0  0  0
  -23.4788  -16.0085   17.6334 C   0  0  0  0  0  0  0  0  0  0  0  0
  -23.0203  -10.7137   21.5269 C   0  0  0  0  0  0  0  0  0  0  0  0
  -23.7010  -17.0706   18.5215 C   0  0  0  0  0  0  0  0  0  0  0  0
  -17.3388  -24.0505   19.7185 C   0  0  0  0  0  0  0  0  0  0  0  0
  -19.1043  -25.6836   19.4881 C   0  0  0  0  0  0  0  0  0  0  0  0
  -19.0582  -25.9270   20.8608 C   0  0  0  0  0  0  0  0  0  0  0  0
  -29.3775  -26.0959   19.7586 C   0  0  0  0  0  0  0  0  0  0  0  0
  -22.0652  -18.4048   17.3156 C   0  0  0  0  0  0  0  0  0  0  0  0
  -30.4599  -24.7090   18.2007 C   0  0  0  0  0  0  0  0  0  0  0  0
  -30.5212  -23.5526   15.6627 C   0  0  0  0  0  0  0  0  0  0  0  0
  -30.4626  -23.3206   18.0668 C   0  0  0  0  0  0  0  0  0  0  0  0
  -26.1091  -28.6168   20.6863 C   0  0  0  0  0  0  0  0  0  0  0  0
  -24.7057  -30.3049   20.8122 C   0  0  0  0  0  0  0  0  0  0  0  0
  -17.0027  -21.7545   17.0688 C   0  0  0  0  0  0  0  0  0  0  0  0
  -26.6948  -30.7430   19.3630 C   0  0  0  0  0  0  0  0  0  0  0  0
  -23.7041  -14.0708   20.1430 C   0  0  0  0  0  0  0  0  0  0  0  0
  -26.5750  -15.5325   20.5221 C   0  0  0  0  0  0  0  0  0  0  0  0
  -28.5322  -18.2678   19.9440 C   0  0  0  0  0  0  0  0  0  0  0  0
  -19.9916  -27.2235   22.8087 C   0  0  0  0  0  0  0  0  0  0  0  0
  -24.2627  -10.4921   23.7400 C   0  0  0  0  0  0  0  0  0  0  0  0
  -24.2524  -14.7259   17.7711 C   0  0  0  0  0  0  0  0  0  0  0  0
  -24.6860  -16.9630   19.6558 C   0  0  0  0  0  0  0  0  0  0  0  0
  -17.7958  -20.5649   16.5650 C   0  0  0  0  0  0  0  0  0  0  0  0
  -24.5215  -11.9935   23.6442 C   0  0  0  0  0  0  0  0  0  0  0  0
  -22.0073  -29.4827   24.6822 C   0  0  0  0  0  0  0  0  0  0  0  0
  -23.3031  -12.7096   23.0702 C   0  0  0  0  0  0  0  0  0  0  0  0
  -23.2657  -29.6414   23.8258 C   0  0  0  0  0  0  0  0  0  0  0  0
  -19.1580  -20.5375   18.6939 C   0  0  0  0  0  0  0  0  0  0  0  0
  -21.4622  -28.0565   24.6303 C   0  0  0  0  0  0  0  0  0  0  0  0
  -17.8234  -20.9967   19.2788 C   0  0  0  0  0  0  0  0  0  0  0  0
  -22.4920  -27.6867   22.4231 C   0  0  0  0  0  0  0  0  0  0  0  0
  -22.9950  -12.2218   21.6494 C   0  0  1  0  0  0  0  0  0  0  0  0
  -24.7800  -14.4950   19.1838 C   0  0  1  0  0  0  0  0  0  0  0  0
  -19.2032  -20.5984   17.1595 C   0  0  1  0  0  0  0  0  0  0  0  0
  -23.0408  -29.1225   22.3920 C   0  0  2  0  0  0  0  0  0  0  0  0
  -20.0623  -26.4154   18.6049 C   0  0  0  0  0  0  0  0  0  0  0  0
  -30.8202  -19.1870   20.4104 C   0  0  0  0  0  0  0  0  0  0  0  0
  -25.7357  -16.1612   23.3875 C   0  0  0  0  0  0  0  0  0  0  0  0
  -27.5836  -17.8476   23.4848 C   0  0  0  0  0  0  0  0  0  0  0  0
  -28.1156  -15.4361   23.1328 C   0  0  0  0  0  0  0  0  0  0  0  0
  -29.1881  -18.4132   17.0617 C   0  0  0  0  0  0  0  0  0  0  0  0
  -16.4116  -23.0424   19.1035 C   0  0  0  0  0  0  0  0  0  0  0  0
  -20.0755  -19.4847   16.5872 C   0  0  0  0  0  0  0  0  0  1  0  0
  -27.0614  -16.7598   21.2544 C   0  0  1  0  0  0  0  0  0  0  0  0
  -29.9575  -18.3978   19.4380 C   0  0  2  0  0  0  0  0  0  0  0  0
  -27.1040  -16.5528   22.7947 C   0  0  0  0  0  0  0  0  0  0  0  0
  -25.1366  -28.1840   21.4932 N   0  0  0  0  0  0  0  0  0  0  0  0
  -24.2984  -29.2329   21.5504 N   0  0  0  0  0  0  0  0  0  0  0  0
  -17.1358  -21.9709   18.4405 N   0  0  0  0  0  0  0  0  0  0  0  0
  -25.4133  -15.6866   19.7523 N   0  0  0  0  0  0  0  0  0  0  0  0
  -21.2702  -27.6345   23.2412 N   0  0  0  0  0  0  0  0  0  0  0  0
  -23.9807  -31.4424   20.7580 N   0  0  0  0  0  0  0  0  0  0  0  0
  -26.4545  -30.6836   17.9835 N   0  0  0  0  0  0  0  0  0  0  0  0
  -19.9232  -26.8760   21.4600 N   0  0  0  0  0  0  0  0  0  0  0  0
  -23.9072  -12.8225   20.6999 N   0  0  0  0  0  0  0  0  0  0  0  0
  -28.3492  -17.1049   20.6620 N   0  0  0  0  0  0  0  0  0  0  0  0
  -29.9779  -19.0935   18.1202 N   0  3  0  0  0  0  0  0  0  0  0  0
  -16.3061  -22.4218   16.3060 O   0  0  0  0  0  0  0  0  0  0  0  0
  -27.6083  -31.4859   19.7956 O   0  0  0  0  0  0  0  0  0  0  0  0
  -22.7605  -14.8210   20.3628 O   0  0  0  0  0  0  0  0  0  0  0  0
  -27.2067  -14.4778   20.6235 O   0  0  0  0  0  0  0  0  0  0  0  0
  -27.6686  -19.1151   19.7275 O   0  0  0  0  0  0  0  0  0  0  0  0
  -19.0222  -27.2087   23.5717 O   0  0  0  0  0  0  0  0  0  0  0  0
  -30.4286  -25.2845   19.4598 O   0  0  0  0  0  0  0  0  0  0  0  0
  -21.3767  -19.5691   17.1669 O   0  0  0  0  0  0  0  0  0  1  0  0
  -30.5491  -22.9975   14.4440 F   0  0  0  0  0  0  0  0  0  0  0  0
  -30.4348  -22.5370   19.1536 F   0  0  0  0  0  0  0  0  0  0  0  0
  1  2  1  0  0  0  0
  1  5  2  0  0  0  0
  2  6  2  0  0  0  0
  3 10  2  0  0  0  0
  3 18  1  0  0  0  0
  4 11  1  0  0  0  0
  4 18  2  0  0  0  0
  5 20  1  0  0  0  0
  6 22  1  0  0  0  0
  7 12  2  0  0  0  0
  7 21  1  0  0  0  0
  8  9  2  0  0  0  0
  8 24  1  0  0  0  0
  9 26  1  0  0  0  0
 10 27  1  0  0  0  0
 11 27  2  0  0  0  0
 12 28  1  0  0  0  0
 13 14  2  0  0  0  0
 13 29  1  0  0  0  0
 14 30  1  0  0  0  0
 15 23  1  0  0  0  0
 15 28  2  0  0  0  0
 16 24  2  0  0  0  0
 16 25  1  0  0  0  0
 17 30  2  0  0  0  0
 17 31  1  0  0  0  0
 18 32  1  0  0  0  0
 19 32  1  0  0  0  0
 19 33  2  0  0  0  0
 19 35  1  0  0  0  0
 20 22  2  0  0  0  0
 20 40  1  0  0  0  0
 21 23  2  0  0  0  0
 21 41  1  0  0  0  0
 22 52  1  0  0  0  0
 23 42  1  0  0  0  0
 24 62  1  0  0  0  0
 25 26  2  0  0  0  0
 25 56  1  0  0  0  0
 26 74  1  0  0  0  0
 27 84  1  0  0  0  0
 28 85  1  0  0  0  0
 29 31  2  0  0  0  0
 29 84  1  0  0  0  0
 30 86  1  0  0  0  0
 31 87  1  0  0  0  0
 32 67  2  0  0  0  0
 33 68  1  0  0  0  0
 33 72  1  0  0  0  0
 34 43  1  0  0  0  0
 34 69  1  0  0  0  0
 34 78  2  0  0  0  0
 35 73  1  0  0  0  0
 35 79  2  0  0  0  0
 36 53  1  0  0  0  0
 36 75  1  0  0  0  0
 36 80  2  0  0  0  0
 37 64  1  0  0  0  0
 37 70  1  0  0  0  0
 37 81  2  0  0  0  0
 38 65  1  0  0  0  0
 38 76  1  0  0  0  0
 38 82  2  0  0  0  0
 39 71  1  0  0  0  0
 39 74  1  0  0  0  0
 39 83  2  0  0  0  0
 40 44  1  0  0  0  0
 41 53  1  0  0  0  0
 42 70  1  0  0  0  0
 43 54  1  0  0  0  0
 44 46  1  0  0  0  0
 45 47  1  0  0  0  0
 45 49  1  0  0  0  0
 46 52  1  0  0  0  0
 47 55  1  0  0  0  0
 48 50  1  0  0  0  0
 48 54  1  0  0  0  0
 49 71  1  0  0  0  0
 50 69  1  0  0  0  0
 51 55  1  0  0  0  0
 51 71  1  0  0  0  0
 52 75  1  0  0  0  0
 53 70  1  0  0  0  0
 54 63  1  0  0  0  0
 55 68  1  0  0  0  0
 57 65  1  0  0  0  0
 58 66  1  0  0  0  0
 59 66  1  0  0  0  0
 60 66  1  0  0  0  0
 61 77  1  0  0  0  0
 62 69  1  0  0  0  0
 63 85  1  0  0  0  0
 64 66  1  0  0  0  0
 64 76  1  0  0  0  0
 65 77  1  0  0  0  0
 67 68  1  0  0  0  0
M  CHG  1  77   1
M  ISO  4  39 100  63 101  74 100  85 101
M  END
> <Batch ID>
0056

> <Smiles>
CNC(C)C(=O)NC(C(=O)N1Cc2cc([101O:1][101CH2:1]C3CCN(Cc4ccc([100NH:0][100C:0](=O)N5CCCC(n6nc(-c7ccc(Oc8ccc(F)cc8F)cc7)c(C(N)=O)c6N)C5)c(C)c4)C(=O)C3)ccc2CC1C(=O)NC1CCCc2ccccc21)C(C)(C)C

> <Shape>
0.254

> <Color>
0.058

> <Negative vol penalty>
0.000

$$$$

  -OEChem-04042322523D

 84 92  0     1  0  0  0  0  0999 V2000
  -27.2748  -11.9862   17.4898 C   0  0  0  0  0  0  0  0  0  0  0  0
  -26.6050  -13.1237   17.0506 C   0  0  0  0  0  0  0  0  0  0  0  0
  -17.4798  -30.7036   23.4082 C   0  0  0  0  0  0  0  0  0  0  0  0
  -16.7971  -29.6775   22.7550 C   0  0  0  0  0  0  0  0  0  0  0  0
  -27.3627  -24.8888   17.8395 C   0  0  0  0  0  0  0  0  0  0  0  0
  -26.7859  -23.7863   19.9105 C   0  0  0  0  0  0  0  0  0  0  0  0
  -27.0780  -11.5208   18.7892 C   0  0  0  0  0  0  0  0  0  0  0  0
  -25.7371  -13.7959   17.9103 C   0  0  0  0  0  0  0  0  0  0  0  0
  -23.3705  -20.3857   19.4235 C   0  0  0  0  0  0  0  0  0  0  0  0
  -18.7246  -30.4552   23.9865 C   0  0  0  0  0  0  0  0  0  0  0  0
  -17.3591  -28.4031   22.6802 C   0  0  0  0  0  0  0  0  0  0  0  0
  -28.5363  -24.1385   17.7669 C   0  0  0  0  0  0  0  0  0  0  0  0
  -27.9595  -23.0359   19.8379 C   0  0  0  0  0  0  0  0  0  0  0  0
  -22.1791  -21.0927   19.5802 C   0  0  0  0  0  0  0  0  0  0  0  0
  -29.0732  -20.3113   18.1776 C   0  0  0  0  0  0  0  0  0  0  0  0
  -28.9846  -18.9450   18.4443 C   0  0  0  0  0  0  0  0  0  0  0  0
  -21.9776  -20.2428   21.8289 C   0  0  0  0  0  0  0  0  0  0  0  0
  -30.5364  -19.2025   20.2781 C   0  0  0  0  0  0  0  0  0  0  0  0
  -26.4875  -24.7127   18.9114 C   0  0  0  0  0  0  0  0  0  0  0  0
  -24.0158  -25.1503   18.4569 C   0  0  0  0  0  0  0  0  0  0  0  0
  -26.2146  -12.1932   19.6685 C   0  0  0  0  0  0  0  0  0  0  0  0
  -23.8696  -19.5920   20.4663 C   0  0  0  0  0  0  0  0  0  0  0  0
  -25.5274  -13.3383   19.2224 C   0  0  0  0  0  0  0  0  0  0  0  0
  -23.1769  -19.5288   21.6838 C   0  0  0  0  0  0  0  0  0  0  0  0
  -19.2867  -29.1808   23.9117 C   0  0  0  0  0  0  0  0  0  0  0  0
  -18.6039  -28.1547   23.2586 C   0  0  0  0  0  0  0  0  0  0  0  0
  -28.8347  -23.2120   18.7661 C   0  0  0  0  0  0  0  0  0  0  0  0
  -21.4810  -21.0190   20.7820 C   0  0  0  0  0  0  0  0  0  0  0  0
  -29.8934  -21.1231   18.9610 C   0  0  0  0  0  0  0  0  0  0  0  0
  -29.7162  -18.3907   19.4946 C   0  0  0  0  0  0  0  0  0  0  0  0
  -30.6250  -20.5688   20.0113 C   0  0  0  0  0  0  0  0  0  0  0  0
  -25.2753  -25.4879   18.9872 C   0  0  0  0  0  0  0  0  0  0  0  0
  -23.2063  -26.2072   18.7950 C   0  0  0  0  0  0  0  0  0  0  0  0
  -19.4981  -24.5541   22.6855 C   0  0  0  0  0  0  0  0  0  0  0  0
  -19.1447  -23.3731   22.1598 C   0  0  0  0  0  0  0  0  0  0  0  0
  -23.6134  -23.9855   17.7241 C   0  0  0  0  0  0  0  0  0  0  0  0
  -18.5995  -25.7398   22.5587 C   0  0  0  0  0  0  0  0  0  0  0  0
  -24.4783  -16.4938   20.8332 C   0  0  0  0  0  0  0  0  0  0  0  0
  -25.7200  -17.4716   23.6659 C   0  0  0  0  0  0  0  0  0  0  0  0
  -25.7851  -19.8149   26.1462 C   0  0  0  0  0  0  0  0  0  0  0  0
  -22.3523  -29.9845   23.0981 C   0  0  0  0  0  0  0  0  0  0  0  0
  -25.9975  -11.6252   21.0487 C   0  0  0  0  0  0  0  0  0  0  0  0
  -25.1699  -18.8567   20.2907 C   0  0  0  0  0  0  0  0  0  0  0  0
  -23.6807  -18.7071   22.8411 C   0  0  0  0  0  0  0  0  0  0  0  0
  -25.3482  -12.6102   22.0175 C   0  0  0  0  0  0  0  0  0  0  0  0
  -23.9812  -30.9197   20.0734 C   0  0  0  0  0  0  0  0  0  0  0  0
  -24.1573  -13.2998   21.3594 C   0  0  0  0  0  0  0  0  0  0  0  0
  -24.3639  -29.5829   19.4357 C   0  0  0  0  0  0  0  0  0  0  0  0
  -24.1077  -30.8759   21.5946 C   0  0  0  0  0  0  0  0  0  0  0  0
  -23.7587  -28.4363   21.6077 C   0  0  0  0  0  0  0  0  0  0  0  0
  -24.5968  -14.1091   20.1333 C   0  0  1  0  0  0  0  0  0  0  0  0
  -25.3189  -17.6712   21.2392 C   0  0  1  0  0  0  0  0  0  0  0  0
  -23.5934  -28.4140   20.0785 C   0  0  2  0  0  0  0  0  0  0  0  0
  -26.5479  -20.9685   28.2402 C   0  0  0  0  0  0  0  0  0  0  0  0
  -23.9227  -15.4123   25.0219 C   0  0  0  0  0  0  0  0  0  0  0  0
  -24.3285  -16.5907   27.1933 C   0  0  0  0  0  0  0  0  0  0  0  0
  -26.2359  -15.5577   25.9614 C   0  0  0  0  0  0  0  0  0  0  0  0
  -27.8066  -21.3991   24.6756 C   0  0  0  0  0  0  0  0  0  0  0  0
  -20.6215  -28.9437   24.5404 C   0  0  0  0  0  0  0  0  0  0  0  0
  -19.9938  -22.1467   22.2561 C   0  0  0  0  0  0  0  0  0  1  0  0
  -25.1763  -17.6690   25.0603 C   0  0  1  0  0  0  0  0  0  0  0  0
  -26.9395  -20.5118   26.8434 C   0  0  2  0  0  0  0  0  0  0  0  0
  -24.9051  -16.3215   25.7869 C   0  0  0  0  0  0  0  0  0  0  0  0
  -25.2714  -26.6671   19.6145 N   0  0  0  0  0  0  0  0  0  0  0  0
  -23.9995  -27.0797   19.4804 N   0  0  0  0  0  0  0  0  0  0  0  0
  -24.9535  -18.0014   22.6183 N   0  0  0  0  0  0  0  0  0  0  0  0
  -23.3529  -29.7459   22.1417 N   0  0  0  0  0  0  0  0  0  0  0  0
  -21.9007  -26.4659   18.5700 N   0  0  0  0  0  0  0  0  0  0  0  0
  -24.5713  -22.9962   17.4634 N   0  0  0  0  0  0  0  0  0  0  0  0
  -19.1577  -26.8537   23.1720 N   0  0  0  0  0  0  0  0  0  0  0  0
  -25.2066  -15.3560   20.5429 N   0  0  0  0  0  0  0  0  0  0  0  0
  -26.1240  -18.5388   25.7486 N   0  0  0  0  0  0  0  0  0  0  0  0
  -21.6808  -28.8591   23.5599 N   0  0  0  0  0  0  0  0  0  0  0  0
  -27.3716  -21.7054   26.0627 N   0  3  0  0  0  0  0  0  0  0  0  0
  -22.4431  -23.8342   17.2986 O   0  0  0  0  0  0  0  0  0  0  0  0
  -17.5245  -25.6641   21.9754 O   0  0  0  0  0  0  0  0  0  0  0  0
  -23.2591  -16.6087   20.7881 O   0  0  0  0  0  0  0  0  0  0  0  0
  -26.7892  -16.8758   23.5124 O   0  0  0  0  0  0  0  0  0  0  0  0
  -24.6909  -20.3477   25.9749 O   0  0  0  0  0  0  0  0  0  0  0  0
  -22.0739  -31.1173   23.5060 O   0  0  0  0  0  0  0  0  0  0  0  0
  -29.9797  -22.4795   18.6954 O   0  0  0  0  0  0  0  0  0  0  0  0
  -20.3175  -21.7076   20.9374 O   0  0  0  0  0  0  0  0  0  1  0  0
  -29.6298  -17.0789   19.7517 F   0  0  0  0  0  0  0  0  0  0  0  0
  -31.4137  -21.3439   20.7682 F   0  0  0  0  0  0  0  0  0  0  0  0
  1  2  1  0  0  0  0
  1  7  2  0  0  0  0
  2  8  2  0  0  0  0
  3  4  1  0  0  0  0
  3 10  2  0  0  0  0
  4 11  2  0  0  0  0
  5 12  2  0  0  0  0
  5 19  1  0  0  0  0
  6 13  1  0  0  0  0
  6 19  2  0  0  0  0
  7 21  1  0  0  0  0
  8 23  1  0  0  0  0
  9 14  2  0  0  0  0
  9 22  1  0  0  0  0
 10 25  1  0  0  0  0
 11 26  1  0  0  0  0
 12 27  1  0  0  0  0
 13 27  2  0  0  0  0
 14 28  1  0  0  0  0
 15 16  2  0  0  0  0
 15 29  1  0  0  0  0
 16 30  1  0  0  0  0
 17 24  1  0  0  0  0
 17 28  2  0  0  0  0
 18 30  2  0  0  0  0
 18 31  1  0  0  0  0
 19 32  1  0  0  0  0
 20 32  1  0  0  0  0
 20 33  2  0  0  0  0
 20 36  1  0  0  0  0
 21 23  2  0  0  0  0
 21 42  1  0  0  0  0
 22 24  2  0  0  0  0
 22 43  1  0  0  0  0
 23 51  1  0  0  0  0
 24 44  1  0  0  0  0
 25 26  2  0  0  0  0
 25 59  1  0  0  0  0
 26 70  1  0  0  0  0
 27 81  1  0  0  0  0
 28 82  1  0  0  0  0
 29 31  2  0  0  0  0
 29 81  1  0  0  0  0
 30 83  1  0  0  0  0
 31 84  1  0  0  0  0
 32 64  2  0  0  0  0
 33 65  1  0  0  0  0
 33 68  1  0  0  0  0
 34 35  2  0  0  0  0
 34 37  1  0  0  0  0
 35 60  1  0  0  0  0
 36 69  1  0  0  0  0
 36 75  2  0  0  0  0
 37 70  1  0  0  0  0
 37 76  2  0  0  0  0
 38 52  1  0  0  0  0
 38 71  1  0  0  0  0
 38 77  2  0  0  0  0
 39 61  1  0  0  0  0
 39 66  1  0  0  0  0
 39 78  2  0  0  0  0
 40 62  1  0  0  0  0
 40 72  1  0  0  0  0
 40 79  2  0  0  0  0
 41 67  1  0  0  0  0
 41 73  1  0  0  0  0
 41 80  2  0  0  0  0
 42 45  1  0  0  0  0
 43 52  1  0  0  0  0
 44 66  1  0  0  0  0
 45 47  1  0  0  0  0
 46 48  1  0  0  0  0
 46 49  1  0  0  0  0
 47 51  1  0  0  0  0
 48 53  1  0  0  0  0
 49 67  1  0  0  0  0
 50 53  1  0  0  0  0
 50 67  1  0  0  0  0
 51 71  1  0  0  0  0
 52 66  1  0  0  0  0
 53 65  1  0  0  0  0
 54 62  1  0  0  0  0
 55 63  1  0  0  0  0
 56 63  1  0  0  0  0
 57 63  1  0  0  0  0
 58 74  1  0  0  0  0
 59 73  1  0  0  0  0
 60 82  1  0  0  0  0
 61 63  1  0  0  0  0
 61 72  1  0  0  0  0
 62 74  1  0  0  0  0
 64 65  1  0  0  0  0
M  CHG  1  74   1
M  ISO  4  41 100  60 101  73 100  82 101
M  END
> <Batch ID>
0056

> <Smiles>
CNC(C)C(=O)NC(C(=O)N1Cc2cc([101O:1][101CH2:1]C=CC(=O)Nc3ccccc3C[100NH:0][100C:0](=O)N3CCCC(n4nc(-c5ccc(Oc6ccc(F)cc6F)cc5)c(C(N)=O)c4N)C3)ccc2CC1C(=O)NC1CCCc2ccccc21)C(C)(C)C

> <Shape>
0.199

> <Color>
0.070

> <Negative vol penalty>
0.000

$$$$

  -OEChem-04042322523D

 84 92  0     1  0  0  0  0  0999 V2000
  -27.9560  -24.0778   20.2842 C   0  0  0  0  0  0  0  0  0  0  0  0
  -27.7750  -37.0209   25.2436 C   0  0  0  0  0  0  0  0  0  0  0  0
  -28.3590  -36.0923   24.3881 C   0  0  0  0  0  0  0  0  0  0  0  0
  -24.7617   -8.3658   21.5054 C   0  0  0  0  0  0  0  0  0  0  0  0
  -23.2172   -9.9348   20.5105 C   0  0  0  0  0  0  0  0  0  0  0  0
  -26.6704  -36.6593   26.0137 C   0  0  0  0  0  0  0  0  0  0  0  0
  -27.8394  -34.8011   24.3029 C   0  0  0  0  0  0  0  0  0  0  0  0
  -26.9011  -29.4580   19.6245 C   0  0  0  0  0  0  0  0  0  0  0  0
  -25.7143  -19.6152   18.3773 C   0  0  0  0  0  0  0  0  0  0  0  0
  -23.7720   -7.9588   22.4000 C   0  0  0  0  0  0  0  0  0  0  0  0
  -22.2275   -9.5278   21.4051 C   0  0  0  0  0  0  0  0  0  0  0  0
  -27.1506  -28.0936   19.4835 C   0  0  0  0  0  0  0  0  0  0  0  0
  -21.0536   -5.9485   22.3619 C   0  0  0  0  0  0  0  0  0  0  0  0
  -25.0525  -18.5047   17.8534 C   0  0  0  0  0  0  0  0  0  0  0  0
  -20.8917   -4.5789   22.5704 C   0  0  0  0  0  0  0  0  0  0  0  0
  -25.1907  -27.6051   20.8023 C   0  0  0  0  0  0  0  0  0  0  0  0
  -27.5781  -18.2100   19.0011 C   0  0  0  0  0  0  0  0  0  0  0  0
  -21.3808   -4.8783   24.9173 C   0  0  0  0  0  0  0  0  0  0  0  0
  -24.4843   -9.3539   20.5606 C   0  0  0  0  0  0  0  0  0  0  0  0
  -25.7773   -9.2356   18.3647 C   0  0  0  0  0  0  0  0  0  0  0  0
  -26.1310  -35.3659   25.9308 C   0  0  0  0  0  0  0  0  0  0  0  0
  -25.7988  -29.9071   20.3658 C   0  0  0  0  0  0  0  0  0  0  0  0
  -26.7273  -34.4215   25.0736 C   0  0  0  0  0  0  0  0  0  0  0  0
  -24.9280  -28.9757   20.9491 C   0  0  0  0  0  0  0  0  0  0  0  0
  -26.9772  -19.4678   18.9511 C   0  0  0  0  0  0  0  0  0  0  0  0
  -26.9163  -17.0996   18.4771 C   0  0  0  0  0  0  0  0  0  0  0  0
  -22.5049   -8.5398   22.3499 C   0  0  0  0  0  0  0  0  0  0  0  0
  -26.2970  -27.1669   20.0749 C   0  0  0  0  0  0  0  0  0  0  0  0
  -21.3792   -6.7831   23.4311 C   0  0  0  0  0  0  0  0  0  0  0  0
  -21.0553   -4.0438   23.8481 C   0  0  0  0  0  0  0  0  0  0  0  0
  -25.6534  -17.2470   17.9033 C   0  0  0  0  0  0  0  0  0  0  0  0
  -21.5428   -6.2480   24.7088 C   0  0  0  0  0  0  0  0  0  0  0  0
  -25.5064   -9.7751   19.6365 C   0  0  0  0  0  0  0  0  0  0  0  0
  -26.8330   -9.9780   17.8946 C   0  0  0  0  0  0  0  0  0  0  0  0
  -28.1935  -22.8057   20.1581 C   0  0  0  0  0  0  0  0  0  0  0  0
  -27.7236  -25.3443   20.4117 C   0  0  0  0  0  0  0  0  0  1  0  0
  -25.1324   -8.1597   17.6704 C   0  0  0  0  0  0  0  0  0  0  0  0
  -27.1963  -21.9069   19.5141 C   0  0  0  0  0  0  0  0  0  0  0  0
  -25.4248  -31.6624   22.9893 C   0  0  0  0  0  0  0  0  0  0  0  0
  -22.2796  -31.4175   22.2345 C   0  0  0  0  0  0  0  0  0  0  0  0
  -19.8104  -29.6890   20.6337 C   0  0  0  0  0  0  0  0  0  0  0  0
  -28.7772  -15.5060   19.0634 C   0  0  0  0  0  0  0  0  0  0  0  0
  -24.9652  -35.0073   26.8179 C   0  0  0  0  0  0  0  0  0  0  0  0
  -25.5284  -31.3819   20.4860 C   0  0  0  0  0  0  0  0  0  0  0  0
  -23.7193  -29.4059   21.7380 C   0  0  0  0  0  0  0  0  0  0  0  0
  -24.2447  -33.7311   26.3907 C   0  0  0  0  0  0  0  0  0  0  0  0
  -30.6221  -12.4811   19.4150 C   0  0  0  0  0  0  0  0  0  0  0  0
  -25.2511  -32.6244   26.0920 C   0  0  0  0  0  0  0  0  0  0  0  0
  -29.5448  -11.3944   19.3898 C   0  0  0  0  0  0  0  0  0  0  0  0
  -30.1452  -13.7356   20.1447 C   0  0  0  0  0  0  0  0  0  0  0  0
  -27.7943  -13.2001   19.6396 C   0  0  0  0  0  0  0  0  0  0  0  0
  -26.1772  -33.0185   24.9351 C   0  0  1  0  0  0  0  0  0  0  0  0
  -24.6664  -31.7348   21.6943 C   0  0  1  0  0  0  0  0  0  0  0  0
  -28.2051  -11.9411   18.8586 C   0  0  2  0  0  0  0  0  0  0  0  0
  -17.3339  -29.7124   20.2289 C   0  0  0  0  0  0  0  0  0  0  0  0
  -21.8094  -30.3810   25.0655 C   0  0  0  0  0  0  0  0  0  0  0  0
  -19.5731  -29.5440   24.3129 C   0  0  0  0  0  0  0  0  0  0  0  0
  -20.0777  -31.9859   24.2412 C   0  0  0  0  0  0  0  0  0  0  0  0
  -20.1740  -29.9428   17.7076 C   0  0  0  0  0  0  0  0  0  0  0  0
  -21.1738  -30.4440   22.5639 C   0  0  1  0  0  0  0  0  0  0  0  0
  -18.6959  -30.1474   19.7106 C   0  0  2  0  0  0  0  0  0  0  0  0
  -20.6823  -30.5803   24.0327 C   0  0  0  0  0  0  0  0  0  0  0  0
  -26.3241  -10.7823   19.9542 N   0  0  0  0  0  0  0  0  0  0  0  0
  -27.1193  -10.8816   18.8753 N   0  0  0  0  0  0  0  0  0  0  0  0
  -23.5011  -30.8589   21.8324 N   0  0  0  0  0  0  0  0  0  0  0  0
  -28.8735  -14.1986   19.5850 N   0  0  0  0  0  0  0  0  0  0  0  0
  -27.5350   -9.9394   16.7422 N   0  0  0  0  0  0  0  0  0  0  0  0
  -24.0640   -7.5048   18.2980 N   0  0  0  0  0  0  0  0  0  0  0  0
  -27.6490  -20.5956   19.4832 N   0  0  0  0  0  0  0  0  0  0  0  0
  -27.5289  -15.8230   18.5287 N   0  0  0  0  0  0  0  0  0  0  0  0
  -25.4961  -32.8643   23.6675 N   0  0  0  0  0  0  0  0  0  0  0  0
  -20.1330  -30.6548   21.5636 N   0  0  0  0  0  0  0  0  0  0  0  0
  -18.8845  -29.5756   18.3473 N   0  3  0  0  0  0  0  0  0  0  0  0
  -25.5034   -7.7793   16.5341 O   0  0  0  0  0  0  0  0  0  0  0  0
  -26.1343  -22.3495   19.0915 O   0  0  0  0  0  0  0  0  0  0  0  0
  -25.9082  -30.5949   23.3476 O   0  0  0  0  0  0  0  0  0  0  0  0
  -22.0652  -32.6290   22.3236 O   0  0  0  0  0  0  0  0  0  0  0  0
  -20.3392  -28.5834   20.5418 O   0  0  0  0  0  0  0  0  0  0  0  0
  -29.7398  -16.2777   19.0645 O   0  0  0  0  0  0  0  0  0  0  0  0
  -21.5388   -8.1427   23.2226 O   0  0  0  0  0  0  0  0  0  0  0  0
  -26.5386  -25.8346   19.9395 O   0  0  0  0  0  0  0  0  0  1  0  0
  -20.8982   -2.7287   24.0484 F   0  0  0  0  0  0  0  0  0  0  0  0
  -25.0077  -16.1870   17.3969 F   0  0  0  0  0  0  0  0  0  0  0  0
  -21.8544   -7.0449   25.7401 F   0  0  0  0  0  0  0  0  0  0  0  0
  1 35  2  0  0  0  0
  1 36  2  0  0  0  0
  2  3  1  0  0  0  0
  2  6  2  0  0  0  0
  3  7  2  0  0  0  0
  4 10  2  0  0  0  0
  4 19  1  0  0  0  0
  5 11  1  0  0  0  0
  5 19  2  0  0  0  0
  6 21  1  0  0  0  0
  7 23  1  0  0  0  0
  8 12  2  0  0  0  0
  8 22  1  0  0  0  0
  9 14  2  0  0  0  0
  9 25  1  0  0  0  0
 10 27  1  0  0  0  0
 11 27  2  0  0  0  0
 12 28  1  0  0  0  0
 13 15  2  0  0  0  0
 13 29  1  0  0  0  0
 14 31  1  0  0  0  0
 15 30  1  0  0  0  0
 16 24  1  0  0  0  0
 16 28  2  0  0  0  0
 17 25  2  0  0  0  0
 17 26  1  0  0  0  0
 18 30  2  0  0  0  0
 18 32  1  0  0  0  0
 19 33  1  0  0  0  0
 20 33  1  0  0  0  0
 20 34  2  0  0  0  0
 20 37  1  0  0  0  0
 21 23  2  0  0  0  0
 21 43  1  0  0  0  0
 22 24  2  0  0  0  0
 22 44  1  0  0  0  0
 23 52  1  0  0  0  0
 24 45  1  0  0  0  0
 25 69  1  0  0  0  0
 26 31  2  0  0  0  0
 26 70  1  0  0  0  0
 27 80  1  0  0  0  0
 28 81  1  0  0  0  0
 29 32  2  0  0  0  0
 29 80  1  0  0  0  0
 30 82  1  0  0  0  0
 31 83  1  0  0  0  0
 32 84  1  0  0  0  0
 33 63  2  0  0  0  0
 34 64  1  0  0  0  0
 34 67  1  0  0  0  0
 35 38  1  0  0  0  0
 36 81  1  0  0  0  0
 37 68  1  0  0  0  0
 37 74  2  0  0  0  0
 38 69  1  0  0  0  0
 38 75  2  0  0  0  0
 39 53  1  0  0  0  0
 39 71  1  0  0  0  0
 39 76  2  0  0  0  0
 40 60  1  0  0  0  0
 40 65  1  0  0  0  0
 40 77  2  0  0  0  0
 41 61  1  0  0  0  0
 41 72  1  0  0  0  0
 41 78  2  0  0  0  0
 42 66  1  0  0  0  0
 42 70  1  0  0  0  0
 42 79  2  0  0  0  0
 43 46  1  0  0  0  0
 44 53  1  0  0  0  0
 45 65  1  0  0  0  0
 46 48  1  0  0  0  0
 47 49  1  0  0  0  0
 47 50  1  0  0  0  0
 48 52  1  0  0  0  0
 49 54  1  0  0  0  0
 50 66  1  0  0  0  0
 51 54  1  0  0  0  0
 51 66  1  0  0  0  0
 52 71  1  0  0  0  0
 53 65  1  0  0  0  0
 54 64  1  0  0  0  0
 55 61  1  0  0  0  0
 56 62  1  0  0  0  0
 57 62  1  0  0  0  0
 58 62  1  0  0  0  0
 59 73  1  0  0  0  0
 60 62  1  0  0  0  0
 60 72  1  0  0  0  0
 61 73  1  0  0  0  0
 63 64  1  0  0  0  0
M  CHG  1  73   1
M  ISO  4  36 101  42 100  70 100  81 101
M  END
> <Batch ID>
0056

> <Smiles>
CNC(C)C(=O)NC(C(=O)N1Cc2cc([101O:1][101CH:1]=C=CC(=O)Nc3ccc(F)c([100NH:0][100C:0](=O)N4CCCC(n5nc(-c6ccc(Oc7ccc(F)cc7F)cc6)c(C(N)=O)c5N)C4)c3)ccc2CC1C(=O)NC1CCCc2ccccc21)C(C)(C)C

> <Shape>
0.284

> <Color>
0.098

> <Negative vol penalty>
0.000

$$$$

  -OEChem-04042322523D

 89 98  0     1  0  0  0  0  0999 V2000
  -24.6174  -37.0922   21.1727 C   0  0  0  0  0  0  0  0  0  0  0  0
  -25.3650  -36.0207   20.6948 C   0  0  0  0  0  0  0  0  0  0  0  0
  -24.3544   -9.8968   22.4459 C   0  0  0  0  0  0  0  0  0  0  0  0
  -22.6218  -11.1575   21.3299 C   0  0  0  0  0  0  0  0  0  0  0  0
  -23.9464  -36.9845   22.3902 C   0  0  0  0  0  0  0  0  0  0  0  0
  -25.4430  -34.8413   21.4345 C   0  0  0  0  0  0  0  0  0  0  0  0
  -25.7835  -29.1343   19.2391 C   0  0  0  0  0  0  0  0  0  0  0  0
  -25.5825  -22.4813   19.7005 C   0  0  0  0  0  0  0  0  0  0  0  0
  -26.6912  -23.3244   19.6253 C   0  0  0  0  0  0  0  0  0  0  0  0
  -23.3840   -9.0948   23.0465 C   0  0  0  0  0  0  0  0  0  0  0  0
  -21.6513  -10.3555   21.9305 C   0  0  0  0  0  0  0  0  0  0  0  0
  -26.8579  -28.2683   19.0402 C   0  0  0  0  0  0  0  0  0  0  0  0
  -21.3781   -6.4860   24.5910 C   0  0  0  0  0  0  0  0  0  0  0  0
  -21.5896   -5.1073   24.5979 C   0  0  0  0  0  0  0  0  0  0  0  0
  -26.4058  -27.2280   21.1692 C   0  0  0  0  0  0  0  0  0  0  0  0
  -21.6344   -5.1021   22.1823 C   0  0  0  0  0  0  0  0  0  0  0  0
  -23.9733  -10.9282   21.5876 C   0  0  0  0  0  0  0  0  0  0  0  0
  -25.6127  -11.5396   19.7312 C   0  0  0  0  0  0  0  0  0  0  0  0
  -24.0083  -35.7997   23.1406 C   0  0  0  0  0  0  0  0  0  0  0  0
  -25.0176  -29.0607   20.4115 C   0  0  0  0  0  0  0  0  0  0  0  0
  -24.7733  -34.7181   22.6638 C   0  0  0  0  0  0  0  0  0  0  0  0
  -25.3206  -28.0925   21.3794 C   0  0  0  0  0  0  0  0  0  0  0  0
  -25.7262  -21.1817   20.1864 C   0  0  0  0  0  0  0  0  0  0  0  0
  -28.0873  -21.5682   20.5218 C   0  0  0  0  0  0  0  0  0  0  0  0
  -27.9436  -22.8678   20.0360 C   0  0  0  0  0  0  0  0  0  0  0  0
  -26.9786  -20.7252   20.5970 C   0  0  0  0  0  0  0  0  0  0  0  0
  -22.0325   -9.3242   22.7888 C   0  0  0  0  0  0  0  0  0  0  0  0
  -27.1710  -27.3169   20.0066 C   0  0  0  0  0  0  0  0  0  0  0  0
  -21.2946   -7.1727   23.3797 C   0  0  0  0  0  0  0  0  0  0  0  0
  -21.7178   -4.4153   23.3936 C   0  0  0  0  0  0  0  0  0  0  0  0
  -21.4228   -6.4808   22.1754 C   0  0  0  0  0  0  0  0  0  0  0  0
  -24.9752  -11.7574   20.9673 C   0  0  0  0  0  0  0  0  0  0  0  0
  -26.4720  -12.6025   19.5960 C   0  0  0  0  0  0  0  0  0  0  0  0
  -30.9155  -25.0984   20.8755 C   0  0  0  0  0  0  0  0  0  0  0  0
  -31.0332  -25.8024   19.7418 C   0  0  0  0  0  0  0  0  0  0  0  0
  -29.8126  -24.1173   21.0871 C   0  0  0  0  0  0  0  0  0  0  0  0
  -32.4246  -27.5687   20.6023 C   0  0  0  0  0  0  0  0  0  0  0  0
  -32.0857  -26.7749   19.5732 C   0  0  0  0  0  0  0  0  0  0  0  0
  -25.4432  -10.4720   18.7893 C   0  0  0  0  0  0  0  0  0  0  0  0
  -24.4022  -31.0450   22.8171 C   0  0  0  0  0  0  0  0  0  0  0  0
  -22.3552  -28.6956   23.7185 C   0  0  0  0  0  0  0  0  0  0  0  0
  -21.5034  -25.3929   23.6019 C   0  0  0  0  0  0  0  0  0  0  0  0
  -26.3746  -18.2760   20.7434 C   0  0  0  0  0  0  0  0  0  0  0  0
  -23.3047  -35.7471   24.4736 C   0  0  0  0  0  0  0  0  0  0  0  0
  -23.8453  -29.9843   20.5989 C   0  0  0  0  0  0  0  0  0  0  0  0
  -24.5169  -27.9589   22.6462 C   0  0  0  0  0  0  0  0  0  0  0  0
  -23.1328  -34.3306   25.0161 C   0  0  0  0  0  0  0  0  0  0  0  0
  -27.8530  -15.7483   23.2231 C   0  0  0  0  0  0  0  0  0  0  0  0
  -24.4373  -33.5497   24.8926 C   0  0  0  0  0  0  0  0  0  0  0  0
  -27.8807  -14.5073   22.3339 C   0  0  0  0  0  0  0  0  0  0  0  0
  -27.8512  -17.0389   22.4136 C   0  0  0  0  0  0  0  0  0  0  0  0
  -29.5546  -24.1526   18.6168 C   0  0  0  0  0  0  0  0  0  0  0  0
  -26.0500  -15.8446   21.1546 C   0  0  0  0  0  0  0  0  0  0  0  0
  -24.8619  -33.4135   23.4254 C   0  0  1  0  0  0  0  0  0  0  0  0
  -30.0948  -25.5884   18.5851 C   0  0  1  0  0  0  0  0  0  0  0  0
  -23.4511  -30.1601   22.0621 C   0  0  1  0  0  0  0  0  0  0  0  0
  -27.0189  -14.6553   21.0643 C   0  0  2  0  0  0  0  0  0  0  0  0
  -24.5193  -20.3028   20.2549 C   0  0  0  0  0  0  0  0  0  0  0  0
  -29.4332  -21.0796   20.9617 C   0  0  0  0  0  0  0  0  0  0  0  0
  -19.8010  -23.7659   24.4690 C   0  0  0  0  0  0  0  0  0  0  0  0
  -23.7201  -28.7254   26.4473 C   0  0  0  0  0  0  0  0  0  0  0  0
  -22.6623  -26.5067   26.9230 C   0  0  0  0  0  0  0  0  0  0  0  0
  -21.2298  -28.5105   26.5288 C   0  0  0  0  0  0  0  0  0  0  0  0
  -20.5936  -24.7105   20.8696 C   0  0  0  0  0  0  0  0  0  0  0  0
  -28.9561  -26.6136   18.6014 C   0  0  0  0  0  0  0  0  0  1  0  0
  -22.4574  -27.4622   24.5829 C   0  0  1  0  0  0  0  0  0  0  0  0
  -20.1780  -24.7034   23.3325 C   0  0  2  0  0  0  0  0  0  0  0  0
  -22.5339  -27.8047   26.0976 C   0  0  0  0  0  0  0  0  0  0  0  0
  -25.3939  -12.8711   21.5743 N   0  0  0  0  0  0  0  0  0  0  0  0
  -26.3038  -13.3626   20.7160 N   0  0  0  0  0  0  0  0  0  0  0  0
  -29.0756  -23.7564   19.9486 N   0  0  0  0  0  0  0  0  0  0  0  0
  -23.3843  -28.8891   22.7861 N   0  0  0  0  0  0  0  0  0  0  0  0
  -26.7689  -17.0960   21.4204 N   0  0  0  0  0  0  0  0  0  0  0  0
  -27.3475  -12.9518   18.6297 N   0  0  0  0  0  0  0  0  0  0  0  0
  -24.5184   -9.4610   19.0846 N   0  0  0  0  0  0  0  0  0  0  0  0
  -27.1219  -19.4045   21.0911 N   0  0  0  0  0  0  0  0  0  0  0  0
  -24.0815  -32.3882   22.7665 N   0  0  0  0  0  0  0  0  0  0  0  0
  -21.3279  -26.6137   24.2186 N   0  0  0  0  0  0  0  0  0  0  0  0
  -20.2537  -23.9094   22.0736 N   0  3  0  0  0  0  0  0  0  0  0  0
  -29.6629  -23.6793   22.2276 O   0  0  0  0  0  0  0  0  0  0  0  0
  -26.1044  -10.4075   17.7253 O   0  0  0  0  0  0  0  0  0  0  0  0
  -25.3555  -30.5460   23.4035 O   0  0  0  0  0  0  0  0  0  0  0  0
  -21.3939  -29.4555   23.8602 O   0  0  0  0  0  0  0  0  0  0  0  0
  -22.5861  -24.8965   23.2991 O   0  0  0  0  0  0  0  0  0  0  0  0
  -25.4595  -18.2740   19.9173 O   0  0  0  0  0  0  0  0  0  0  0  0
  -21.0853   -8.5416   23.3745 O   0  0  0  0  0  0  0  0  0  0  0  0
  -28.2195  -26.4709   19.8152 O   0  0  0  0  0  0  0  0  0  1  0  0
  -21.9225   -3.0916   23.4004 F   0  0  0  0  0  0  0  0  0  0  0  0
  -21.3446   -7.1352   21.0086 F   0  0  0  0  0  0  0  0  0  0  0  0
  1  2  1  0  0  0  0
  1  5  2  0  0  0  0
  2  6  2  0  0  0  0
  3 10  2  0  0  0  0
  3 17  1  0  0  0  0
  4 11  1  0  0  0  0
  4 17  2  0  0  0  0
  5 19  1  0  0  0  0
  6 21  1  0  0  0  0
  7 12  2  0  0  0  0
  7 20  1  0  0  0  0
  8  9  2  0  0  0  0
  8 23  1  0  0  0  0
  9 25  1  0  0  0  0
 10 27  1  0  0  0  0
 11 27  2  0  0  0  0
 12 28  1  0  0  0  0
 13 14  2  0  0  0  0
 13 29  1  0  0  0  0
 14 30  1  0  0  0  0
 15 22  1  0  0  0  0
 15 28  2  0  0  0  0
 16 30  2  0  0  0  0
 16 31  1  0  0  0  0
 17 32  1  0  0  0  0
 18 32  1  0  0  0  0
 18 33  2  0  0  0  0
 18 39  1  0  0  0  0
 19 21  2  0  0  0  0
 19 44  1  0  0  0  0
 20 22  2  0  0  0  0
 20 45  1  0  0  0  0
 21 54  1  0  0  0  0
 22 46  1  0  0  0  0
 23 26  2  0  0  0  0
 23 58  1  0  0  0  0
 24 25  2  0  0  0  0
 24 26  1  0  0  0  0
 24 59  1  0  0  0  0
 25 71  1  0  0  0  0
 26 76  1  0  0  0  0
 27 86  1  0  0  0  0
 28 87  1  0  0  0  0
 29 31  2  0  0  0  0
 29 86  1  0  0  0  0
 30 88  1  0  0  0  0
 31 89  1  0  0  0  0
 32 69  2  0  0  0  0
 33 70  1  0  0  0  0
 33 74  1  0  0  0  0
 34 35  2  0  0  0  0
 34 36  1  0  0  0  0
 35 38  1  0  0  0  0
 35 55  1  0  0  0  0
 36 71  1  0  0  0  0
 36 80  2  0  0  0  0
 37 38  2  0  0  0  0
 39 75  1  0  0  0  0
 39 81  2  0  0  0  0
 40 56  1  0  0  0  0
 40 77  1  0  0  0  0
 40 82  2  0  0  0  0
 41 66  1  0  0  0  0
 41 72  1  0  0  0  0
 41 83  2  0  0  0  0
 42 67  1  0  0  0  0
 42 78  1  0  0  0  0
 42 84  2  0  0  0  0
 43 73  1  0  0  0  0
 43 76  1  0  0  0  0
 43 85  2  0  0  0  0
 44 47  1  0  0  0  0
 45 56  1  0  0  0  0
 46 72  1  0  0  0  0
 47 49  1  0  0  0  0
 48 50  1  0  0  0  0
 48 51  1  0  0  0  0
 49 54  1  0  0  0  0
 50 57  1  0  0  0  0
 51 73  1  0  0  0  0
 52 55  1  0  0  0  0
 52 71  1  0  0  0  0
 53 57  1  0  0  0  0
 53 73  1  0  0  0  0
 54 77  1  0  0  0  0
 55 65  1  0  0  0  0
 56 72  1  0  0  0  0
 57 70  1  0  0  0  0
 60 67  1  0  0  0  0
 61 68  1  0  0  0  0
 62 68  1  0  0  0  0
 63 68  1  0  0  0  0
 64 79  1  0  0  0  0
 65 87  1  0  0  0  0
 66 68  1  0  0  0  0
 66 78  1  0  0  0  0
 67 79  1  0  0  0  0
 69 70  1  0  0  0  0
M  CHG  1  79   1
M  ISO  4  43 100  65 101  76 100  87 101
M  END
> <Batch ID>
0056

> <Smiles>
C=CC1=CC(=O)N(c2ccc(C)c([100NH:0][100C:0](=O)N3CCCC(n4nc(-c5ccc(Oc6ccc(F)cc6F)cc5)c(C(N)=O)c4N)C3)c2C)CC1[101CH2:1][101O:1]c1ccc2c(c1)CN(C(=O)C(NC(=O)C(C)NC)C(C)(C)C)C(C(=O)NC1CCCc3ccccc31)C2

> <Shape>
0.297

> <Color>
0.068

> <Negative vol penalty>
0.000

$$$$

  -OEChem-04042322523D

 86 94  0     1  0  0  0  0  0999 V2000
  -17.3554  -28.8675   22.1461 C   0  0  0  0  0  0  0  0  0  0  0  0
  -23.0166   -8.2405   20.6998 C   0  0  0  0  0  0  0  0  0  0  0  0
  -22.4206   -9.3799   20.1689 C   0  0  0  0  0  0  0  0  0  0  0  0
  -17.9760  -29.6768   23.0977 C   0  0  0  0  0  0  0  0  0  0  0  0
  -28.6986  -25.4999   20.0632 C   0  0  0  0  0  0  0  0  0  0  0  0
  -26.6129  -24.5869   19.2549 C   0  0  0  0  0  0  0  0  0  0  0  0
  -18.0460  -27.7915   21.5884 C   0  0  0  0  0  0  0  0  0  0  0  0
  -24.0506   -8.3636   21.6269 C   0  0  0  0  0  0  0  0  0  0  0  0
  -22.8577  -10.6433   20.5657 C   0  0  0  0  0  0  0  0  0  0  0  0
  -23.6976  -17.3016   18.0603 C   0  0  0  0  0  0  0  0  0  0  0  0
  -19.2873  -29.4102   23.4914 C   0  0  0  0  0  0  0  0  0  0  0  0
  -29.3174  -24.2665   19.8597 C   0  0  0  0  0  0  0  0  0  0  0  0
  -27.2318  -23.3535   19.0513 C   0  0  0  0  0  0  0  0  0  0  0  0
  -23.3667  -18.6195   18.3723 C   0  0  0  0  0  0  0  0  0  0  0  0
  -29.4973  -21.2807   21.4334 C   0  0  0  0  0  0  0  0  0  0  0  0
  -30.3276  -20.7982   22.4451 C   0  0  0  0  0  0  0  0  0  0  0  0
  -25.2142  -18.7106   19.9207 C   0  0  0  0  0  0  0  0  0  0  0  0
  -32.1895  -20.7746   20.9057 C   0  0  0  0  0  0  0  0  0  0  0  0
  -27.3463  -25.6601   19.7609 C   0  0  0  0  0  0  0  0  0  0  0  0
  -19.3573  -27.5249   21.9822 C   0  0  0  0  0  0  0  0  0  0  0  0
  -26.5989  -27.9936   19.0511 C   0  0  0  0  0  0  0  0  0  0  0  0
  -24.5071   -9.6290   22.0279 C   0  0  0  0  0  0  0  0  0  0  0  0
  -24.7846  -16.6737   18.6853 C   0  0  0  0  0  0  0  0  0  0  0  0
  -23.8979  -10.7834   21.5000 C   0  0  0  0  0  0  0  0  0  0  0  0
  -25.5584  -17.3855   19.6130 C   0  0  0  0  0  0  0  0  0  0  0  0
  -19.9780  -28.3343   22.9337 C   0  0  0  0  0  0  0  0  0  0  0  0
  -28.5840  -23.1933   19.3537 C   0  0  0  0  0  0  0  0  0  0  0  0
  -24.1232  -19.3233   19.3047 C   0  0  0  0  0  0  0  0  0  0  0  0
  -30.0131  -21.5100   20.1578 C   0  0  0  0  0  0  0  0  0  0  0  0
  -31.6737  -20.5452   22.1812 C   0  0  0  0  0  0  0  0  0  0  0  0
  -31.3592  -21.2570   19.8940 C   0  0  0  0  0  0  0  0  0  0  0  0
  -26.7063  -26.9337   19.9714 C   0  0  0  0  0  0  0  0  0  0  0  0
  -25.9084  -28.9683   19.7291 C   0  0  0  0  0  0  0  0  0  0  0  0
  -20.0348  -26.4116   21.3878 C   0  0  0  0  0  0  0  0  0  0  0  0
  -19.5909  -25.1455   21.4405 C   0  0  0  0  0  0  0  0  0  0  0  0
  -27.0800  -28.0885   17.7038 C   0  0  0  0  0  0  0  0  0  0  0  0
  -25.1283  -14.1433   20.5781 C   0  0  0  0  0  0  0  0  0  0  0  0
  -28.2874  -14.7680   20.1875 C   0  0  0  0  0  0  0  0  0  0  0  0
  -30.7216  -17.0455   19.4564 C   0  0  0  0  0  0  0  0  0  0  0  0
  -22.0476  -28.8154   24.2871 C   0  0  0  0  0  0  0  0  0  0  0  0
  -25.5959   -9.7118   23.0683 C   0  0  0  0  0  0  0  0  0  0  0  0
  -25.1448  -15.2603   18.3180 C   0  0  0  0  0  0  0  0  0  0  0  0
  -26.7475  -16.7636   20.2970 C   0  0  0  0  0  0  0  0  0  0  0  0
  -26.2530  -11.0870   23.1542 C   0  0  0  0  0  0  0  0  0  0  0  0
  -25.1223  -30.6063   24.1601 C   0  0  0  0  0  0  0  0  0  0  0  0
  -25.1937  -12.1845   23.1744 C   0  0  0  0  0  0  0  0  0  0  0  0
  -25.8651  -29.9683   22.9839 C   0  0  0  0  0  0  0  0  0  0  0  0
  -24.3188  -29.5748   24.9501 C   0  0  0  0  0  0  0  0  0  0  0  0
  -24.1446  -28.1171   22.9718 C   0  0  0  0  0  0  0  0  0  0  0  0
  -24.3609  -12.1712   21.8869 C   0  0  1  0  0  0  0  0  0  0  0  0
  -25.9602  -14.5522   19.3956 C   0  0  1  0  0  0  0  0  0  0  0  0
  -24.9162  -29.1276   22.1073 C   0  0  2  0  0  0  0  0  0  0  0  0
  -33.2127  -17.2695   19.2533 C   0  0  0  0  0  0  0  0  0  0  0  0
  -28.5310  -14.7905   23.2290 C   0  0  0  0  0  0  0  0  0  0  0  0
  -30.7453  -15.9306   22.9735 C   0  0  0  0  0  0  0  0  0  0  0  0
  -30.4079  -13.6418   22.0405 C   0  0  0  0  0  0  0  0  0  0  0  0
  -30.5376  -17.7948   16.5992 C   0  0  0  0  0  0  0  0  0  0  0  0
  -20.3040  -24.0033   20.7891 C   0  0  0  0  0  0  0  0  0  0  0  0
  -24.1088  -21.0587   20.9308 C   0  0  0  0  0  0  0  0  0  1  0  0
  -23.1423  -22.1564   21.3272 C   0  0  0  0  0  0  0  0  0  0  0  0
  -29.3066  -15.6164   20.9090 C   0  0  1  0  0  0  0  0  0  0  0  0
  -31.9132  -16.9801   18.5183 C   0  0  2  0  0  0  0  0  0  0  0  0
  -29.7242  -15.0062   22.2767 C   0  0  0  0  0  0  0  0  0  0  0  0
  -26.1304  -27.2092   21.1447 N   0  0  0  0  0  0  0  0  0  0  0  0
  -25.6545  -28.4533   20.9662 N   0  0  0  0  0  0  0  0  0  0  0  0
  -27.0557  -15.3772   19.9089 N   0  0  0  0  0  0  0  0  0  0  0  0
  -23.4393  -28.8195   24.0553 N   0  0  0  0  0  0  0  0  0  0  0  0
  -25.4999  -30.2072   19.3818 N   0  0  0  0  0  0  0  0  0  0  0  0
  -27.7695  -26.9951   17.1621 N   0  0  0  0  0  0  0  0  0  0  0  0
  -21.3094  -28.0901   23.3524 N   0  0  0  0  0  0  0  0  0  0  0  0
  -25.0993  -12.7799   20.8011 N   0  0  0  0  0  0  0  0  0  0  0  0
  -30.4127  -15.8066   19.9769 N   0  0  0  0  0  0  0  0  0  0  0  0
  -20.6452  -23.0022   21.8157 N   0  0  0  0  0  0  0  0  0  0  0  0
  -31.7628  -17.9758   17.4197 N   0  3  0  0  0  0  0  0  0  0  0  0
  -26.9181  -29.1187   17.0068 O   0  0  0  0  0  0  0  0  0  0  0  0
  -24.5564  -15.0014   21.2402 O   0  0  0  0  0  0  0  0  0  0  0  0
  -28.5761  -13.6098   19.8762 O   0  0  0  0  0  0  0  0  0  0  0  0
  -30.1267  -18.0917   19.7058 O   0  0  0  0  0  0  0  0  0  0  0  0
  -21.5447  -29.4339   25.2287 O   0  0  0  0  0  0  0  0  0  0  0  0
  -21.0944  -21.2254   19.9894 O   0  0  0  0  0  0  0  0  0  0  0  0
  -21.3492  -20.6091   22.4208 O   0  0  0  0  0  0  0  0  0  0  0  0
  -29.1876  -21.9897   19.1547 O   0  0  0  0  0  0  0  0  0  0  0  0
  -23.8020  -20.6096   19.6116 O   0  0  0  0  0  0  0  0  0  1  0  0
  -32.4712  -20.0834   23.1532 F   0  0  0  0  0  0  0  0  0  0  0  0
  -31.8607  -21.4766   18.6708 F   0  0  0  0  0  0  0  0  0  0  0  0
  -21.4720  -21.5814   21.3470 S   0  0  0  0  0  0  0  0  0  0  0  0
  1  4  1  0  0  0  0
  1  7  2  0  0  0  0
  2  3  1  0  0  0  0
  2  8  2  0  0  0  0
  3  9  2  0  0  0  0
  4 11  2  0  0  0  0
  5 12  2  0  0  0  0
  5 19  1  0  0  0  0
  6 13  1  0  0  0  0
  6 19  2  0  0  0  0
  7 20  1  0  0  0  0
  8 22  1  0  0  0  0
  9 24  1  0  0  0  0
 10 14  2  0  0  0  0
 10 23  1  0  0  0  0
 11 26  1  0  0  0  0
 12 27  1  0  0  0  0
 13 27  2  0  0  0  0
 14 28  1  0  0  0  0
 15 16  2  0  0  0  0
 15 29  1  0  0  0  0
 16 30  1  0  0  0  0
 17 25  1  0  0  0  0
 17 28  2  0  0  0  0
 18 30  2  0  0  0  0
 18 31  1  0  0  0  0
 19 32  1  0  0  0  0
 20 26  2  0  0  0  0
 20 34  1  0  0  0  0
 21 32  1  0  0  0  0
 21 33  2  0  0  0  0
 21 36  1  0  0  0  0
 22 24  2  0  0  0  0
 22 41  1  0  0  0  0
 23 25  2  0  0  0  0
 23 42  1  0  0  0  0
 24 50  1  0  0  0  0
 25 43  1  0  0  0  0
 26 70  1  0  0  0  0
 27 82  1  0  0  0  0
 28 83  1  0  0  0  0
 29 31  2  0  0  0  0
 29 82  1  0  0  0  0
 30 84  1  0  0  0  0
 31 85  1  0  0  0  0
 32 64  2  0  0  0  0
 33 65  1  0  0  0  0
 33 68  1  0  0  0  0
 34 35  2  0  0  0  0
 35 58  1  0  0  0  0
 36 69  1  0  0  0  0
 36 75  2  0  0  0  0
 37 51  1  0  0  0  0
 37 71  1  0  0  0  0
 37 76  2  0  0  0  0
 38 61  1  0  0  0  0
 38 66  1  0  0  0  0
 38 77  2  0  0  0  0
 39 62  1  0  0  0  0
 39 72  1  0  0  0  0
 39 78  2  0  0  0  0
 40 67  1  0  0  0  0
 40 70  1  0  0  0  0
 40 79  2  0  0  0  0
 41 44  1  0  0  0  0
 42 51  1  0  0  0  0
 43 66  1  0  0  0  0
 44 46  1  0  0  0  0
 45 47  1  0  0  0  0
 45 48  1  0  0  0  0
 46 50  1  0  0  0  0
 47 52  1  0  0  0  0
 48 67  1  0  0  0  0
 49 52  1  0  0  0  0
 49 67  1  0  0  0  0
 50 71  1  0  0  0  0
 51 66  1  0  0  0  0
 52 65  1  0  0  0  0
 53 62  1  0  0  0  0
 54 63  1  0  0  0  0
 55 63  1  0  0  0  0
 56 63  1  0  0  0  0
 57 74  1  0  0  0  0
 58 73  1  0  0  0  0
 59 60  1  0  0  0  0
 59 83  1  0  0  0  0
 60 86  1  0  0  0  0
 61 63  1  0  0  0  0
 61 72  1  0  0  0  0
 62 74  1  0  0  0  0
 64 65  1  0  0  0  0
 73 86  1  0  0  0  0
 80 86  2  0  0  0  0
 81 86  2  0  0  0  0
M  CHG  1  74   1
M  ISO  4  40 100  59 101  70 100  83 101
M  END
> <Batch ID>
0056

> <Smiles>
CNC(C)C(=O)NC(C(=O)N1Cc2cc([101O:1][101CH2:1]CS(=O)(=O)NCC=Cc3ccccc3[100NH:0][100C:0](=O)N3CCCC(n4nc(-c5ccc(Oc6ccc(F)cc6F)cc5)c(C(N)=O)c4N)C3)ccc2CC1C(=O)NC1CCCc2ccccc21)C(C)(C)C

> <Shape>
0.248

> <Color>
0.066

> <Negative vol penalty>
0.000

$$$$

  -OEChem-04042322523D

 98107  0     1  0  0  0  0  0999 V2000
  -30.6743  -12.8606   20.5311 C   0  0  0  0  0  0  0  0  0  0  0  0
  -30.6393  -13.9444   21.4026 C   0  0  0  0  0  0  0  0  0  0  0  0
  -22.2292  -16.5800   20.5883 C   0  0  0  0  0  0  0  0  0  0  0  0
  -21.5193  -16.4071   22.8912 C   0  0  0  0  0  0  0  0  0  0  0  0
  -23.9522  -30.3540   20.3691 C   0  0  0  0  0  0  0  0  0  0  0  0
  -30.6620  -13.0747   19.1535 C   0  0  0  0  0  0  0  0  0  0  0  0
  -30.5930  -15.2431   20.8969 C   0  0  0  0  0  0  0  0  0  0  0  0
  -27.9287  -21.7234   22.3882 C   0  0  0  0  0  0  0  0  0  0  0  0
  -25.2491  -30.0779   19.9363 C   0  0  0  0  0  0  0  0  0  0  0  0
  -22.6145  -15.2396   20.6064 C   0  0  0  0  0  0  0  0  0  0  0  0
  -21.9045  -15.0666   22.9093 C   0  0  0  0  0  0  0  0  0  0  0  0
  -28.3332  -23.0518   22.5118 C   0  0  0  0  0  0  0  0  0  0  0  0
  -24.1173  -11.9589   20.1571 C   0  0  0  0  0  0  0  0  0  0  0  0
  -25.3513  -11.6295   19.5965 C   0  0  0  0  0  0  0  0  0  0  0  0
  -18.2672  -28.2684   21.8362 C   0  0  0  0  0  0  0  0  0  0  0  0
  -18.1743  -26.2738   23.1961 C   0  0  0  0  0  0  0  0  0  0  0  0
  -28.2360  -23.2981   20.1140 C   0  0  0  0  0  0  0  0  0  0  0  0
  -26.0552  -30.3135   22.2016 C   0  0  0  0  0  0  0  0  0  0  0  0
  -19.8507  -27.9575   23.6341 C   0  0  0  0  0  0  0  0  0  0  0  0
  -26.4579  -13.0812   21.1793 C   0  0  0  0  0  0  0  0  0  0  0  0
  -21.6816  -17.1638   21.7307 C   0  0  0  0  0  0  0  0  0  0  0  0
  -23.7068  -30.6099   21.7182 C   0  0  0  0  0  0  0  0  0  0  0  0
  -17.6774  -27.0423   22.1435 C   0  0  0  0  0  0  0  0  0  0  0  0
  -20.0225  -19.0664   21.3630 C   0  0  0  0  0  0  0  0  0  0  0  0
  -30.6058  -14.3763   18.6306 C   0  0  0  0  0  0  0  0  0  0  0  0
  -27.6850  -21.1682   21.1238 C   0  0  0  0  0  0  0  0  0  0  0  0
  -30.5813  -15.4748   19.5109 C   0  0  0  0  0  0  0  0  0  0  0  0
  -27.8260  -21.9631   19.9773 C   0  0  0  0  0  0  0  0  0  0  0  0
  -26.3006  -30.0577   20.8525 C   0  0  0  0  0  0  0  0  0  0  0  0
  -19.3539  -28.7260   22.5814 C   0  0  0  0  0  0  0  0  0  0  0  0
  -19.2610  -26.7313   23.9415 C   0  0  0  0  0  0  0  0  0  0  0  0
  -24.7583  -30.5896   22.6344 C   0  0  0  0  0  0  0  0  0  0  0  0
  -22.4521  -14.4829   21.7669 C   0  0  0  0  0  0  0  0  0  0  0  0
  -28.4897  -23.8386   21.3744 C   0  0  0  0  0  0  0  0  0  0  0  0
  -24.0535  -12.8494   21.2288 C   0  0  0  0  0  0  0  0  0  0  0  0
  -26.5216  -12.1907   20.1075 C   0  0  0  0  0  0  0  0  0  0  0  0
  -25.2238  -13.4106   21.7399 C   0  0  0  0  0  0  0  0  0  0  0  0
  -21.2840  -18.5486   21.7128 C   0  0  0  0  0  0  0  0  0  0  0  0
  -20.1571  -20.4256   21.5075 C   0  0  0  0  0  0  0  0  0  0  0  0
  -16.5444  -26.5655   21.3658 C   0  0  0  0  0  0  0  0  0  0  0  0
  -22.3429  -30.8954   22.1430 C   0  0  0  0  0  0  0  0  0  0  0  0
  -18.8351  -18.3800   20.9450 C   0  0  0  0  0  0  0  0  0  0  0  0
  -16.4845  -25.4151   20.6547 C   0  0  0  0  0  0  0  0  0  0  0  0
  -28.9489  -18.7889   19.4371 C   0  0  0  0  0  0  0  0  0  0  0  0
  -26.5163  -19.4601   17.3990 C   0  0  0  0  0  0  0  0  0  0  0  0
  -28.3130  -27.4470   21.0634 C   0  0  0  0  0  0  0  0  0  0  0  0
  -24.2571  -21.7375   16.2344 C   0  0  0  0  0  0  0  0  0  0  0  0
  -21.9372  -24.8609   24.3894 C   0  0  0  0  0  0  0  0  0  0  0  0
  -30.6421  -14.5596   17.1341 C   0  0  0  0  0  0  0  0  0  0  0  0
  -27.2234  -19.7412   21.0092 C   0  0  0  0  0  0  0  0  0  0  0  0
  -27.5572  -21.4206   18.5982 C   0  0  0  0  0  0  0  0  0  0  0  0
  -30.2139  -15.9529   16.6805 C   0  0  0  0  0  0  0  0  0  0  0  0
  -24.2787  -23.2672   22.2320 C   0  0  0  0  0  0  0  0  0  0  0  0
  -30.8994  -17.0231   17.5241 C   0  0  0  0  0  0  0  0  0  0  0  0
  -23.6071  -21.9383   21.8811 C   0  0  0  0  0  0  0  0  0  0  0  0
  -23.9940  -23.6798   23.6744 C   0  0  0  0  0  0  0  0  0  0  0  0
  -21.8933  -22.3912   23.6857 C   0  0  0  0  0  0  0  0  0  0  0  0
  -30.5057  -16.8976   19.0008 C   0  0  1  0  0  0  0  0  0  0  0  0
  -27.5000  -19.1320   19.6382 C   0  0  1  0  0  0  0  0  0  0  0  0
  -22.1054  -21.9612   22.2240 C   0  0  2  0  0  0  0  0  0  0  0  0
  -24.5236  -30.8594   24.0849 C   0  0  0  0  0  0  0  0  0  0  0  0
  -15.2459  -25.0562   19.8782 C   0  0  0  0  0  0  0  0  0  0  0  0
  -17.5883  -24.3966   20.5711 C   0  0  0  0  0  0  0  0  0  0  0  0
  -22.4262  -22.0065   14.5394 C   0  0  0  0  0  0  0  0  0  0  0  0
  -28.6036  -19.7061   15.1870 C   0  0  0  0  0  0  0  0  0  0  0  0
  -26.8861  -20.8781   13.7924 C   0  0  0  0  0  0  0  0  0  0  0  0
  -26.5063  -18.5210   14.5152 C   0  0  0  0  0  0  0  0  0  0  0  0
  -22.2376  -22.2756   18.3299 C   0  0  0  0  0  0  0  0  0  0  0  0
  -27.6964  -29.7594   20.3868 C   0  0  0  0  0  0  0  0  0  0  0  0
  -19.9890  -30.0456   22.2506 C   0  0  0  0  0  0  0  0  0  0  0  0
  -19.7923  -25.9095   25.0669 C   0  0  0  0  0  0  0  0  0  0  0  0
  -28.4243  -26.0478   20.4963 C   0  0  0  0  0  0  0  0  0  1  0  0
  -26.3349  -20.3823   16.2176 C   0  0  1  0  0  0  0  0  0  0  0  0
  -22.7651  -21.6339   15.9744 C   0  0  2  0  0  0  0  0  0  0  0  0
  -27.0898  -19.8818   14.9538 C   0  0  0  0  0  0  0  0  0  0  0  0
  -22.1559  -19.5013   22.0537 N   0  0  0  0  0  0  0  0  0  0  0  0
  -21.4412  -20.6314   21.9186 N   0  0  0  0  0  0  0  0  0  0  0  0
  -27.1143  -20.0178   18.5379 N   0  0  0  0  0  0  0  0  0  0  0  0
  -22.5523  -23.6830   23.9340 N   0  0  0  0  0  0  0  0  0  0  0  0
  -19.3013  -21.4529   21.3215 N   0  0  0  0  0  0  0  0  0  0  0  0
  -18.8698  -16.9821   20.8500 N   0  0  0  0  0  0  0  0  0  0  0  0
  -21.3859  -29.9028   21.9085 N   0  0  0  0  0  0  0  0  0  0  0  0
  -29.1838  -17.4446   19.2197 N   0  0  0  0  0  0  0  0  0  0  0  0
  -27.8846  -28.3546   20.1074 N   0  0  0  0  0  0  0  0  0  0  0  0
  -24.8954  -20.5319   16.0337 N   0  0  0  0  0  0  0  0  0  0  0  0
  -20.5669  -24.7794   24.6045 N   0  0  0  0  0  0  0  0  0  0  0  0
  -22.0159  -22.5444   16.8858 N   0  3  0  0  0  0  0  0  0  0  0  0
  -22.0632  -31.9863   22.6683 O   0  0  0  0  0  0  0  0  0  0  0  0
  -17.7796  -18.9895   20.6483 O   0  0  0  0  0  0  0  0  0  0  0  0
  -29.7913  -19.6781   19.4748 O   0  0  0  0  0  0  0  0  0  0  0  0
  -26.1347  -18.2899   17.3168 O   0  0  0  0  0  0  0  0  0  0  0  0
  -28.5787  -27.7131   22.2324 O   0  0  0  0  0  0  0  0  0  0  0  0
  -24.8023  -22.7842   16.5774 O   0  0  0  0  0  0  0  0  0  0  0  0
  -22.5620  -25.9090   24.5843 O   0  0  0  0  0  0  0  0  0  0  0  0
  -22.8277  -13.1748   21.7849 O   0  0  0  0  0  0  0  0  0  0  0  0
  -28.8850  -25.1354   21.4921 O   0  0  0  0  0  0  0  0  0  1  0  0
  -27.7067  -11.8732   19.5700 F   0  0  0  0  0  0  0  0  0  0  0  0
  -25.1690  -14.2658   22.7702 F   0  0  0  0  0  0  0  0  0  0  0  0
  1  2  1  0  0  0  0
  1  6  2  0  0  0  0
  2  7  2  0  0  0  0
  3 10  2  0  0  0  0
  3 21  1  0  0  0  0
  4 11  1  0  0  0  0
  4 21  2  0  0  0  0
  5  9  2  0  0  0  0
  5 22  1  0  0  0  0
  6 25  1  0  0  0  0
  7 27  1  0  0  0  0
  8 12  2  0  0  0  0
  8 26  1  0  0  0  0
  9 29  1  0  0  0  0
 10 33  1  0  0  0  0
 11 33  2  0  0  0  0
 12 34  1  0  0  0  0
 13 14  2  0  0  0  0
 13 35  1  0  0  0  0
 14 36  1  0  0  0  0
 15 23  2  0  0  0  0
 15 30  1  0  0  0  0
 16 23  1  0  0  0  0
 16 31  2  0  0  0  0
 17 28  1  0  0  0  0
 17 34  2  0  0  0  0
 18 29  2  0  0  0  0
 18 32  1  0  0  0  0
 19 30  2  0  0  0  0
 19 31  1  0  0  0  0
 20 36  2  0  0  0  0
 20 37  1  0  0  0  0
 21 38  1  0  0  0  0
 22 32  2  0  0  0  0
 22 41  1  0  0  0  0
 23 40  1  0  0  0  0
 24 38  1  0  0  0  0
 24 39  2  0  0  0  0
 24 42  1  0  0  0  0
 25 27  2  0  0  0  0
 25 49  1  0  0  0  0
 26 28  2  0  0  0  0
 26 50  1  0  0  0  0
 27 58  1  0  0  0  0
 28 51  1  0  0  0  0
 29 69  1  0  0  0  0
 30 70  1  0  0  0  0
 31 71  1  0  0  0  0
 32 61  1  0  0  0  0
 33 95  1  0  0  0  0
 34 96  1  0  0  0  0
 35 37  2  0  0  0  0
 35 95  1  0  0  0  0
 36 97  1  0  0  0  0
 37 98  1  0  0  0  0
 38 76  2  0  0  0  0
 39 77  1  0  0  0  0
 39 80  1  0  0  0  0
 40 43  2  0  0  0  0
 41 82  1  0  0  0  0
 41 88  2  0  0  0  0
 42 81  1  0  0  0  0
 42 89  2  0  0  0  0
 43 62  1  0  0  0  0
 43 63  1  0  0  0  0
 44 59  1  0  0  0  0
 44 83  1  0  0  0  0
 44 90  2  0  0  0  0
 45 73  1  0  0  0  0
 45 78  1  0  0  0  0
 45 91  2  0  0  0  0
 46 72  1  0  0  0  0
 46 84  1  0  0  0  0
 46 92  2  0  0  0  0
 47 74  1  0  0  0  0
 47 85  1  0  0  0  0
 47 93  2  0  0  0  0
 48 79  1  0  0  0  0
 48 86  1  0  0  0  0
 48 94  2  0  0  0  0
 49 52  1  0  0  0  0
 50 59  1  0  0  0  0
 51 78  1  0  0  0  0
 52 54  1  0  0  0  0
 53 55  1  0  0  0  0
 53 56  1  0  0  0  0
 54 58  1  0  0  0  0
 55 60  1  0  0  0  0
 56 79  1  0  0  0  0
 57 60  1  0  0  0  0
 57 79  1  0  0  0  0
 58 83  1  0  0  0  0
 59 78  1  0  0  0  0
 60 77  1  0  0  0  0
 64 74  1  0  0  0  0
 65 75  1  0  0  0  0
 66 75  1  0  0  0  0
 67 75  1  0  0  0  0
 68 87  1  0  0  0  0
 69 84  1  0  0  0  0
 70 82  1  0  0  0  0
 71 86  1  0  0  0  0
 72 96  1  0  0  0  0
 73 75  1  0  0  0  0
 73 85  1  0  0  0  0
 74 87  1  0  0  0  0
 76 77  1  0  0  0  0
M  CHG  1  87   1
M  ISO  4  48 100  72 101  86 100  96 101
M  END
> <Batch ID>
0056

> <Smiles>
CNC(C)C(=O)NC(C(=O)N1Cc2cc([101O:1][101CH2:1]C(=O)NCc3ccc(C(=O)NCc4cc(C=C(C)C)cc(C[100NH:0][100C:0](=O)N5CCCC(n6nc(-c7ccc(Oc8ccc(F)cc8F)cc7)c(C(N)=O)c6N)C5)c4)c(C)c3)ccc2CC1C(=O)NC1CCCc2ccccc21)C(C)(C)C

> <Shape>
0.233

> <Color>
0.062

> <Negative vol penalty>
0.000

$$$$

  -OEChem-04042322523D

 86 94  0     1  0  0  0  0  0999 V2000
  -24.1938  -32.4532   27.5355 C   0  0  0  0  0  0  0  0  0  0  0  0
  -24.6084  -31.1268   27.4712 C   0  0  0  0  0  0  0  0  0  0  0  0
  -23.2869   -9.7587   20.2074 C   0  0  0  0  0  0  0  0  0  0  0  0
  -23.8165  -10.1269   22.5357 C   0  0  0  0  0  0  0  0  0  0  0  0
  -23.8876  -33.1442   26.3639 C   0  0  0  0  0  0  0  0  0  0  0  0
  -24.7159  -30.4902   26.2353 C   0  0  0  0  0  0  0  0  0  0  0  0
  -28.9899  -27.8097   25.7960 C   0  0  0  0  0  0  0  0  0  0  0  0
  -32.8253  -15.7530   24.0471 C   0  0  0  0  0  0  0  0  0  0  0  0
  -32.3008  -14.8948   23.0807 C   0  0  0  0  0  0  0  0  0  0  0  0
  -22.5722   -8.6114   20.5514 C   0  0  0  0  0  0  0  0  0  0  0  0
  -23.1017   -8.9796   22.8797 C   0  0  0  0  0  0  0  0  0  0  0  0
  -29.0314  -26.5689   26.4305 C   0  0  0  0  0  0  0  0  0  0  0  0
  -19.5323   -7.8592   21.8267 C   0  0  0  0  0  0  0  0  0  0  0  0
  -18.2827   -7.6725   21.2358 C   0  0  0  0  0  0  0  0  0  0  0  0
  -28.5711  -25.4838   24.3258 C   0  0  0  0  0  0  0  0  0  0  0  0
  -31.3267  -14.8149   25.6937 C   0  0  0  0  0  0  0  0  0  0  0  0
  -19.0525   -5.5993   20.2630 C   0  0  0  0  0  0  0  0  0  0  0  0
  -23.9092  -10.5165   21.1996 C   0  0  0  0  0  0  0  0  0  0  0  0
  -24.1527  -13.0157   20.7499 C   0  0  0  0  0  0  0  0  0  0  0  0
  -24.0007  -32.5186   25.1122 C   0  0  0  0  0  0  0  0  0  0  0  0
  -28.7274  -27.8976   24.4213 C   0  0  0  0  0  0  0  0  0  0  0  0
  -24.4096  -31.1730   25.0459 C   0  0  0  0  0  0  0  0  0  0  0  0
  -28.5293  -26.7267   23.6757 C   0  0  0  0  0  0  0  0  0  0  0  0
  -32.3383  -15.7130   25.3536 C   0  0  0  0  0  0  0  0  0  0  0  0
  -31.2892  -13.9966   23.4208 C   0  0  0  0  0  0  0  0  0  0  0  0
  -22.4795   -8.2218   21.8875 C   0  0  0  0  0  0  0  0  0  0  0  0
  -28.8191  -25.4060   25.6960 C   0  0  0  0  0  0  0  0  0  0  0  0
  -20.5421   -6.9160   21.6357 C   0  0  0  0  0  0  0  0  0  0  0  0
  -18.0427   -6.5425   20.4540 C   0  0  0  0  0  0  0  0  0  0  0  0
  -30.8022  -13.9566   24.7273 C   0  0  0  0  0  0  0  0  0  0  0  0
  -20.3021   -5.7861   20.8538 C   0  0  0  0  0  0  0  0  0  0  0  0
  -24.6482  -11.7015   20.8448 C   0  0  0  0  0  0  0  0  0  0  0  0
  -25.2421  -13.7678   20.3840 C   0  0  0  0  0  0  0  0  0  0  0  0
  -30.8866  -21.1028   25.9735 C   0  0  0  0  0  0  0  0  0  0  0  0
  -31.0038  -19.8833   26.5172 C   0  0  0  0  0  0  0  0  0  0  0  0
  -29.9076  -22.0666   26.4231 C   0  0  0  0  0  0  0  0  0  0  0  0
  -29.7849  -23.2842   25.8861 C   0  0  0  0  0  0  0  0  0  1  0  0
  -22.8262  -13.5123   20.9726 C   0  0  0  0  0  0  0  0  0  0  0  0
  -32.0328  -18.9333   26.0098 C   0  0  0  0  0  0  0  0  0  0  0  0
  -26.4403  -29.2210   22.6545 C   0  0  0  0  0  0  0  0  0  0  0  0
  -28.3487  -28.3051   20.1965 C   0  0  0  0  0  0  0  0  0  0  0  0
  -30.7858  -26.2118   19.0453 C   0  0  0  0  0  0  0  0  0  0  0  0
  -31.1301  -13.0397   21.0958 C   0  0  0  0  0  0  0  0  0  0  0  0
  -23.6132  -33.2918   23.8766 C   0  0  0  0  0  0  0  0  0  0  0  0
  -28.7125  -29.2419   23.7467 C   0  0  0  0  0  0  0  0  0  0  0  0
  -28.2639  -26.7657   22.1936 C   0  0  0  0  0  0  0  0  0  0  0  0
  -24.1131  -32.6590   22.5805 C   0  0  0  0  0  0  0  0  0  0  0  0
  -29.3915  -13.4435   18.0150 C   0  0  0  0  0  0  0  0  0  0  0  0
  -23.8297  -31.1602   22.5742 C   0  0  0  0  0  0  0  0  0  0  0  0
  -27.9319  -13.1681   18.3837 C   0  0  0  0  0  0  0  0  0  0  0  0
  -30.3517  -12.5420   18.7890 C   0  0  0  0  0  0  0  0  0  0  0  0
  -28.7193  -12.2826   20.6159 C   0  0  0  0  0  0  0  0  0  0  0  0
  -24.5624  -30.4555   23.7223 C   0  0  1  0  0  0  0  0  0  0  0  0
  -27.9271  -29.2454   22.4388 C   0  0  1  0  0  0  0  0  0  0  0  0
  -27.7182  -13.2113   19.9095 C   0  0  2  0  0  0  0  0  0  0  0  0
  -32.1123  -25.6790   16.9828 C   0  0  0  0  0  0  0  0  0  0  0  0
  -25.9223  -26.8905   19.0043 C   0  0  0  0  0  0  0  0  0  0  0  0
  -27.4821  -25.6230   17.5114 C   0  0  0  0  0  0  0  0  0  0  0  0
  -27.3408  -28.1078   17.3428 C   0  0  0  0  0  0  0  0  0  0  0  0
  -33.3452  -26.8558   20.3844 C   0  0  0  0  0  0  0  0  0  0  0  0
  -32.9019  -16.6375   26.3938 C   0  0  0  0  0  0  0  0  0  0  0  0
  -28.4755  -27.0639   19.3466 C   0  0  1  0  0  0  0  0  0  0  0  0
  -32.0642  -26.4828   18.2729 C   0  0  2  0  0  0  0  0  0  0  0  0
  -27.3082  -26.9203   18.3296 C   0  0  0  0  0  0  0  0  0  0  0  0
  -25.9510  -11.6199   20.5619 N   0  0  0  0  0  0  0  0  0  0  0  0
  -26.2833  -12.8924   20.2855 N   0  0  0  0  0  0  0  0  0  0  0  0
  -28.2528  -28.1043   21.5809 N   0  0  0  0  0  0  0  0  0  0  0  0
  -30.0932  -12.6379   20.2274 N   0  0  0  0  0  0  0  0  0  0  0  0
  -25.4015  -15.0860   20.1401 N   0  0  0  0  0  0  0  0  0  0  0  0
  -21.8259  -12.6032   21.3431 N   0  0  0  0  0  0  0  0  0  0  0  0
  -30.7579  -13.1263   22.4369 N   0  0  0  0  0  0  0  0  0  0  0  0
  -32.0023  -17.7288   26.6920 N   0  0  0  0  0  0  0  0  0  0  0  0
  -25.9622  -30.2830   23.3982 N   0  0  0  0  0  0  0  0  0  0  0  0
  -29.7982  -27.1222   18.7338 N   0  0  0  0  0  0  0  0  0  0  0  0
  -33.2531  -26.1220   19.0960 N   0  3  0  0  0  0  0  0  0  0  0  0
  -22.5329  -14.7237   20.8309 O   0  0  0  0  0  0  0  0  0  0  0  0
  -32.8008  -19.2181   25.0967 O   0  0  0  0  0  0  0  0  0  0  0  0
  -25.7759  -28.3072   22.1800 O   0  0  0  0  0  0  0  0  0  0  0  0
  -28.3424  -29.4123   19.6528 O   0  0  0  0  0  0  0  0  0  0  0  0
  -30.6732  -25.2829   19.8422 O   0  0  0  0  0  0  0  0  0  0  0  0
  -32.2574  -13.3151   20.6769 O   0  0  0  0  0  0  0  0  0  0  0  0
  -21.7819   -7.1025   22.2236 O   0  0  0  0  0  0  0  0  0  0  0  0
  -28.8584  -24.1937   26.3130 O   0  0  0  0  0  0  0  0  0  1  0  0
  -16.8422   -6.3626   19.8879 F   0  0  0  0  0  0  0  0  0  0  0  0
  -29.8291  -13.0984   25.0650 F   0  0  0  0  0  0  0  0  0  0  0  0
  -21.2679   -4.8759   20.6677 F   0  0  0  0  0  0  0  0  0  0  0  0
  1  2  1  0  0  0  0
  1  5  2  0  0  0  0
  2  6  2  0  0  0  0
  3 10  2  0  0  0  0
  3 18  1  0  0  0  0
  4 11  1  0  0  0  0
  4 18  2  0  0  0  0
  5 20  1  0  0  0  0
  6 22  1  0  0  0  0
  7 12  2  0  0  0  0
  7 21  1  0  0  0  0
  8  9  2  0  0  0  0
  8 24  1  0  0  0  0
  9 25  1  0  0  0  0
 10 26  1  0  0  0  0
 11 26  2  0  0  0  0
 12 27  1  0  0  0  0
 13 14  2  0  0  0  0
 13 28  1  0  0  0  0
 14 29  1  0  0  0  0
 15 23  1  0  0  0  0
 15 27  2  0  0  0  0
 16 24  2  0  0  0  0
 16 30  1  0  0  0  0
 17 29  2  0  0  0  0
 17 31  1  0  0  0  0
 18 32  1  0  0  0  0
 19 32  1  0  0  0  0
 19 33  2  0  0  0  0
 19 38  1  0  0  0  0
 20 22  2  0  0  0  0
 20 44  1  0  0  0  0
 21 23  2  0  0  0  0
 21 45  1  0  0  0  0
 22 53  1  0  0  0  0
 23 46  1  0  0  0  0
 24 61  1  0  0  0  0
 25 30  2  0  0  0  0
 25 71  1  0  0  0  0
 26 82  1  0  0  0  0
 27 83  1  0  0  0  0
 28 31  2  0  0  0  0
 28 82  1  0  0  0  0
 29 84  1  0  0  0  0
 30 85  1  0  0  0  0
 31 86  1  0  0  0  0
 32 65  2  0  0  0  0
 33 66  1  0  0  0  0
 33 69  1  0  0  0  0
 34 35  2  0  0  0  0
 34 36  1  0  0  0  0
 35 39  1  0  0  0  0
 36 37  2  0  0  0  0
 37 83  1  0  0  0  0
 38 70  1  0  0  0  0
 38 76  2  0  0  0  0
 39 72  1  0  0  0  0
 39 77  2  0  0  0  0
 40 54  1  0  0  0  0
 40 73  1  0  0  0  0
 40 78  2  0  0  0  0
 41 62  1  0  0  0  0
 41 67  1  0  0  0  0
 41 79  2  0  0  0  0
 42 63  1  0  0  0  0
 42 74  1  0  0  0  0
 42 80  2  0  0  0  0
 43 68  1  0  0  0  0
 43 71  1  0  0  0  0
 43 81  2  0  0  0  0
 44 47  1  0  0  0  0
 45 54  1  0  0  0  0
 46 67  1  0  0  0  0
 47 49  1  0  0  0  0
 48 50  1  0  0  0  0
 48 51  1  0  0  0  0
 49 53  1  0  0  0  0
 50 55  1  0  0  0  0
 51 68  1  0  0  0  0
 52 55  1  0  0  0  0
 52 68  1  0  0  0  0
 53 73  1  0  0  0  0
 54 67  1  0  0  0  0
 55 66  1  0  0  0  0
 56 63  1  0  0  0  0
 57 64  1  0  0  0  0
 58 64  1  0  0  0  0
 59 64  1  0  0  0  0
 60 75  1  0  0  0  0
 61 72  1  0  0  0  0
 62 64  1  0  0  0  0
 62 74  1  0  0  0  0
 63 75  1  0  0  0  0
 65 66  1  0  0  0  0
M  CHG  1  75   1
M  ISO  4  37 101  43 100  71 100  83 101
M  END
> <Batch ID>
0056

> <Smiles>
CNC(C)C(=O)NC(C(=O)N1Cc2cc([101O:1][101CH:1]=CC=CC(=O)NCc3ccc([100NH:0][100C:0](=O)N4CCCC(n5nc(-c6ccc(Oc7ccc(F)cc7F)cc6)c(C(N)=O)c5N)C4)c(F)c3)ccc2CC1C(=O)NC1CCCc2ccccc21)C(C)(C)C

> <Shape>
0.233

> <Color>
0.181

> <Negative vol penalty>
0.000

$$$$

  -OEChem-04042322523D

 86 94  0     1  0  0  0  0  0999 V2000
  -23.8567  -10.8397   18.0273 C   0  0  0  0  0  0  0  0  0  0  0  0
  -23.3392  -12.1002   17.7469 C   0  0  0  0  0  0  0  0  0  0  0  0
  -28.3191  -24.8442   19.6033 C   0  0  0  0  0  0  0  0  0  0  0  0
  -29.5428  -26.7445   18.7495 C   0  0  0  0  0  0  0  0  0  0  0  0
  -24.6254  -10.6421   19.1736 C   0  0  0  0  0  0  0  0  0  0  0  0
  -23.5894  -13.1638   18.6133 C   0  0  0  0  0  0  0  0  0  0  0  0
  -24.6059  -20.2549   18.6001 C   0  0  0  0  0  0  0  0  0  0  0  0
  -29.4558  -24.0484   19.4614 C   0  0  0  0  0  0  0  0  0  0  0  0
  -30.6795  -25.9487   18.6076 C   0  0  0  0  0  0  0  0  0  0  0  0
  -24.1297  -21.4124   19.2142 C   0  0  0  0  0  0  0  0  0  0  0  0
  -31.8520  -23.6456   16.4276 C   0  0  0  0  0  0  0  0  0  0  0  0
  -32.5755  -23.7550   15.2402 C   0  0  0  0  0  0  0  0  0  0  0  0
  -18.3066  -31.1001   22.3380 C   0  0  0  0  0  0  0  0  0  0  0  0
  -19.2934  -32.0364   22.0293 C   0  0  0  0  0  0  0  0  0  0  0  0
  -25.5372  -20.9715   21.1230 C   0  0  0  0  0  0  0  0  0  0  0  0
  -34.5250  -24.4416   16.4912 C   0  0  0  0  0  0  0  0  0  0  0  0
  -28.3626  -26.1923   19.2474 C   0  0  0  0  0  0  0  0  0  0  0  0
  -25.9381  -26.8289   18.7738 C   0  0  0  0  0  0  0  0  0  0  0  0
  -24.8932  -11.7060   20.0494 C   0  0  0  0  0  0  0  0  0  0  0  0
  -25.5448  -19.4398   19.2485 C   0  0  0  0  0  0  0  0  0  0  0  0
  -24.3613  -12.9800   19.7731 C   0  0  0  0  0  0  0  0  0  0  0  0
  -26.0257  -19.8055   20.5139 C   0  0  0  0  0  0  0  0  0  0  0  0
  -20.0030  -29.5734   23.1306 C   0  0  0  0  0  0  0  0  0  0  0  0
  -20.9898  -30.5097   22.8219 C   0  0  0  0  0  0  0  0  0  0  0  0
  -30.6361  -24.6006   18.9635 C   0  0  0  0  0  0  0  0  0  0  0  0
  -24.5931  -21.7693   20.4771 C   0  0  0  0  0  0  0  0  0  0  0  0
  -32.4650  -23.9343   17.6470 C   0  0  0  0  0  0  0  0  0  0  0  0
  -33.9120  -24.1530   15.2719 C   0  0  0  0  0  0  0  0  0  0  0  0
  -18.6614  -29.8686   22.8887 C   0  0  0  0  0  0  0  0  0  0  0  0
  -20.6350  -31.7412   22.2713 C   0  0  0  0  0  0  0  0  0  0  0  0
  -33.8015  -24.3323   17.6787 C   0  0  0  0  0  0  0  0  0  0  0  0
  -27.1885  -27.0147   19.3933 C   0  0  0  0  0  0  0  0  0  0  0  0
  -25.1685  -27.8688   19.2351 C   0  0  0  0  0  0  0  0  0  0  0  0
  -21.8291  -25.3395   21.8305 C   0  0  0  0  0  0  0  0  0  0  0  0
  -22.2400  -24.0671   21.9188 C   0  0  0  0  0  0  0  0  0  0  0  0
  -25.5105  -25.8076   17.8628 C   0  0  0  0  0  0  0  0  0  0  0  0
  -21.2872  -26.0399   23.0274 C   0  0  0  0  0  0  0  0  0  0  0  0
  -25.5721  -16.4338   20.2815 C   0  0  0  0  0  0  0  0  0  0  0  0
  -28.6875  -17.0871   20.9058 C   0  0  0  0  0  0  0  0  0  0  0  0
  -31.0833  -19.4300   21.5520 C   0  0  0  0  0  0  0  0  0  0  0  0
  -23.3679  -31.1360   23.3686 C   0  0  0  0  0  0  0  0  0  0  0  0
  -25.6898  -11.4333   21.3007 C   0  0  0  0  0  0  0  0  0  0  0  0
  -26.0686  -18.2087   18.5612 C   0  0  0  0  0  0  0  0  0  0  0  0
  -27.0487  -18.9754   21.2438 C   0  0  0  0  0  0  0  0  0  0  0  0
  -26.2215  -12.6971   21.9718 C   0  0  0  0  0  0  0  0  0  0  0  0
  -26.4546  -32.0202   21.8300 C   0  0  0  0  0  0  0  0  0  0  0  0
  -25.1244  -13.7524   22.0681 C   0  0  0  0  0  0  0  0  0  0  0  0
  -26.8179  -30.7815   21.0079 C   0  0  0  0  0  0  0  0  0  0  0  0
  -25.7902  -31.6473   23.1541 C   0  0  0  0  0  0  0  0  0  0  0  0
  -24.9958  -29.5127   22.2151 C   0  0  0  0  0  0  0  0  0  0  0  0
  -24.6313  -14.1643   20.6757 C   0  0  1  0  0  0  0  0  0  0  0  0
  -26.6396  -17.1796   19.5320 C   0  0  1  0  0  0  0  0  0  0  0  0
  -25.6089  -29.8397   20.8436 C   0  0  2  0  0  0  0  0  0  0  0  0
  -33.3774  -20.3662   21.9493 C   0  0  0  0  0  0  0  0  0  0  0  0
  -28.1839  -16.1400   23.7622 C   0  0  0  0  0  0  0  0  0  0  0  0
  -30.3204  -17.2581   24.4355 C   0  0  0  0  0  0  0  0  0  0  0  0
  -30.3593  -15.3900   22.7828 C   0  0  0  0  0  0  0  0  0  0  0  0
  -31.5426  -19.8425   18.6576 C   0  0  0  0  0  0  0  0  0  0  0  0
  -20.3592  -28.2406   23.7230 C   0  0  0  0  0  0  0  0  0  0  0  0
  -22.7988  -23.3040   20.7613 C   0  0  0  0  0  0  0  0  0  1  0  0
  -29.4476  -17.6428   22.0858 C   0  0  1  0  0  0  0  0  0  0  0  0
  -32.4687  -19.6415   20.9686 C   0  0  2  0  0  0  0  0  0  0  0  0
  -29.5571  -16.6225   23.2539 C   0  0  0  0  0  0  0  0  0  0  0  0
  -27.2161  -28.0883   20.1874 N   0  0  0  0  0  0  0  0  0  0  0  0
  -25.9735  -28.5865   20.0700 N   0  0  0  0  0  0  0  0  0  0  0  0
  -27.5256  -17.7776   20.5329 N   0  0  0  0  0  0  0  0  0  0  0  0
  -24.6509  -30.7574   22.9198 N   0  0  0  0  0  0  0  0  0  0  0  0
  -23.8885  -28.2302   19.0038 N   0  0  0  0  0  0  0  0  0  0  0  0
  -25.6788  -26.0250   16.4885 N   0  0  0  0  0  0  0  0  0  0  0  0
  -22.3574  -30.2258   23.0604 N   0  0  0  0  0  0  0  0  0  0  0  0
  -20.9173  -27.3422   22.7372 N   0  0  0  0  0  0  0  0  0  0  0  0
  -25.5727  -15.0708   20.0539 N   0  0  0  0  0  0  0  0  0  0  0  0
  -30.7332  -18.0964   21.5662 N   0  0  0  0  0  0  0  0  0  0  0  0
  -32.3867  -20.4493   19.7189 N   0  3  0  0  0  0  0  0  0  0  0  0
  -24.9794  -24.7411   18.2552 O   0  0  0  0  0  0  0  0  0  0  0  0
  -21.1930  -25.4959   24.1228 O   0  0  0  0  0  0  0  0  0  0  0  0
  -24.8055  -17.0491   21.0132 O   0  0  0  0  0  0  0  0  0  0  0  0
  -29.1130  -16.0817   20.3315 O   0  0  0  0  0  0  0  0  0  0  0  0
  -30.3833  -20.3550   21.9583 O   0  0  0  0  0  0  0  0  0  0  0  0
  -23.1750  -32.2028   23.9574 O   0  0  0  0  0  0  0  0  0  0  0  0
  -31.7455  -23.8244   18.8251 O   0  0  0  0  0  0  0  0  0  0  0  0
  -24.1295  -22.8982   21.0791 O   0  0  0  0  0  0  0  0  0  1  0  0
  -34.6072  -24.2565   14.1317 F   0  0  0  0  0  0  0  0  0  0  0  0
  -17.7051  -28.9761   23.1813 F   0  0  0  0  0  0  0  0  0  0  0  0
  -21.5739  -32.6495   21.9700 F   0  0  0  0  0  0  0  0  0  0  0  0
  -34.3961  -24.6098   18.8472 F   0  0  0  0  0  0  0  0  0  0  0  0
  1  2  1  0  0  0  0
  1  5  2  0  0  0  0
  2  6  2  0  0  0  0
  3  8  2  0  0  0  0
  3 17  1  0  0  0  0
  4  9  1  0  0  0  0
  4 17  2  0  0  0  0
  5 19  1  0  0  0  0
  6 21  1  0  0  0  0
  7 10  2  0  0  0  0
  7 20  1  0  0  0  0
  8 25  1  0  0  0  0
  9 25  2  0  0  0  0
 10 26  1  0  0  0  0
 11 12  2  0  0  0  0
 11 27  1  0  0  0  0
 12 28  1  0  0  0  0
 13 14  1  0  0  0  0
 13 29  2  0  0  0  0
 14 30  2  0  0  0  0
 15 22  1  0  0  0  0
 15 26  2  0  0  0  0
 16 28  2  0  0  0  0
 16 31  1  0  0  0  0
 17 32  1  0  0  0  0
 18 32  1  0  0  0  0
 18 33  2  0  0  0  0
 18 36  1  0  0  0  0
 19 21  2  0  0  0  0
 19 42  1  0  0  0  0
 20 22  2  0  0  0  0
 20 43  1  0  0  0  0
 21 51  1  0  0  0  0
 22 44  1  0  0  0  0
 23 24  2  0  0  0  0
 23 29  1  0  0  0  0
 23 59  1  0  0  0  0
 24 30  1  0  0  0  0
 24 70  1  0  0  0  0
 25 81  1  0  0  0  0
 26 82  1  0  0  0  0
 27 31  2  0  0  0  0
 27 81  1  0  0  0  0
 28 83  1  0  0  0  0
 29 84  1  0  0  0  0
 30 85  1  0  0  0  0
 31 86  1  0  0  0  0
 32 64  2  0  0  0  0
 33 65  1  0  0  0  0
 33 68  1  0  0  0  0
 34 35  2  0  0  0  0
 34 37  1  0  0  0  0
 35 60  1  0  0  0  0
 36 69  1  0  0  0  0
 36 75  2  0  0  0  0
 37 71  1  0  0  0  0
 37 76  2  0  0  0  0
 38 52  1  0  0  0  0
 38 72  1  0  0  0  0
 38 77  2  0  0  0  0
 39 61  1  0  0  0  0
 39 66  1  0  0  0  0
 39 78  2  0  0  0  0
 40 62  1  0  0  0  0
 40 73  1  0  0  0  0
 40 79  2  0  0  0  0
 41 67  1  0  0  0  0
 41 70  1  0  0  0  0
 41 80  2  0  0  0  0
 42 45  1  0  0  0  0
 43 52  1  0  0  0  0
 44 66  1  0  0  0  0
 45 47  1  0  0  0  0
 46 48  1  0  0  0  0
 46 49  1  0  0  0  0
 47 51  1  0  0  0  0
 48 53  1  0  0  0  0
 49 67  1  0  0  0  0
 50 53  1  0  0  0  0
 50 67  1  0  0  0  0
 51 72  1  0  0  0  0
 52 66  1  0  0  0  0
 53 65  1  0  0  0  0
 54 62  1  0  0  0  0
 55 63  1  0  0  0  0
 56 63  1  0  0  0  0
 57 63  1  0  0  0  0
 58 74  1  0  0  0  0
 59 71  1  0  0  0  0
 60 82  1  0  0  0  0
 61 63  1  0  0  0  0
 61 73  1  0  0  0  0
 62 74  1  0  0  0  0
 64 65  1  0  0  0  0
M  CHG  1  74   1
M  ISO  4  41 100  60 101  70 100  82 101
M  END
> <Batch ID>
0056

> <Smiles>
CNC(C)C(=O)NC(C(=O)N1Cc2cc([101O:1][101CH2:1]C=CC(=O)NCc3c(F)ccc(F)c3[100NH:0][100C:0](=O)N3CCCC(n4nc(-c5ccc(Oc6ccc(F)cc6F)cc5)c(C(N)=O)c4N)C3)ccc2CC1C(=O)NC1CCCc2ccccc21)C(C)(C)C

> <Shape>
0.228

> <Color>
0.064

> <Negative vol penalty>
0.000

$$$$

  -OEChem-04042322523D

 88 97  0     1  0  0  0  0  0999 V2000
  -17.0006  -29.1261   24.7693 C   0  0  0  0  0  0  0  0  0  0  0  0
  -17.4053  -28.0509   23.9848 C   0  0  0  0  0  0  0  0  0  0  0  0
  -26.7669  -12.3559   21.7227 C   0  0  0  0  0  0  0  0  0  0  0  0
  -26.0301  -14.2145   20.3663 C   0  0  0  0  0  0  0  0  0  0  0  0
  -17.5641  -30.3855   24.5680 C   0  0  0  0  0  0  0  0  0  0  0  0
  -18.3729  -28.2346   22.9976 C   0  0  0  0  0  0  0  0  0  0  0  0
  -22.6573  -24.2227   21.2500 C   0  0  0  0  0  0  0  0  0  0  0  0
  -25.4591  -11.8733   21.7718 C   0  0  0  0  0  0  0  0  0  0  0  0
  -24.7223  -13.7319   20.4154 C   0  0  0  0  0  0  0  0  0  0  0  0
  -22.7264  -23.3302   20.1812 C   0  0  0  0  0  0  0  0  0  0  0  0
  -23.3617  -10.1518   19.7543 C   0  0  0  0  0  0  0  0  0  0  0  0
  -23.1661   -8.7870   19.5433 C   0  0  0  0  0  0  0  0  0  0  0  0
  -23.9878  -24.9516   18.9167 C   0  0  0  0  0  0  0  0  0  0  0  0
  -29.3608  -20.9176   17.7432 C   0  0  0  0  0  0  0  0  0  0  0  0
  -29.8524  -22.4895   19.5108 C   0  0  0  0  0  0  0  0  0  0  0  0
  -22.1795   -8.5889   21.7398 C   0  0  0  0  0  0  0  0  0  0  0  0
  -27.0524  -13.5265   21.0199 C   0  0  0  0  0  0  0  0  0  0  0  0
  -29.5340  -13.3670   20.4511 C   0  0  0  0  0  0  0  0  0  0  0  0
  -18.5460  -30.5826   23.5843 C   0  0  0  0  0  0  0  0  0  0  0  0
  -23.2446  -25.4926   21.1560 C   0  0  0  0  0  0  0  0  0  0  0  0
  -18.9490  -29.4980   22.7820 C   0  0  0  0  0  0  0  0  0  0  0  0
  -23.9270  -25.8574   19.9867 C   0  0  0  0  0  0  0  0  0  0  0  0
  -28.9142  -21.9642   16.9365 C   0  0  0  0  0  0  0  0  0  0  0  0
  -28.9368  -23.2735   17.4169 C   0  0  0  0  0  0  0  0  0  0  0  0
  -29.8298  -21.1802   19.0303 C   0  0  0  0  0  0  0  0  0  0  0  0
  -24.4368  -12.5613   21.1182 C   0  0  0  0  0  0  0  0  0  0  0  0
  -23.3892  -23.6957   19.0132 C   0  0  0  0  0  0  0  0  0  0  0  0
  -22.9664  -10.7352   20.9581 C   0  0  0  0  0  0  0  0  0  0  0  0
  -22.5749   -8.0055   20.5360 C   0  0  0  0  0  0  0  0  0  0  0  0
  -29.4058  -23.5362   18.7041 C   0  0  0  0  0  0  0  0  0  0  0  0
  -22.3752   -9.9537   21.9508 C   0  0  0  0  0  0  0  0  0  0  0  0
  -28.4030  -14.0259   20.9693 C   0  0  0  0  0  0  0  0  0  0  0  0
  -30.5643  -14.2561   20.6367 C   0  0  0  0  0  0  0  0  0  0  0  0
  -26.3618  -22.5973   14.5695 C   0  0  0  0  0  0  0  0  0  0  0  0
  -29.6435  -12.0676   19.8551 C   0  0  0  0  0  0  0  0  0  0  0  0
  -22.1610  -28.4788   21.2665 C   0  0  0  0  0  0  0  0  0  0  0  0
  -25.3190  -29.2147   21.1780 C   0  0  0  0  0  0  0  0  0  0  0  0
  -28.4880  -28.2832   20.3195 C   0  0  0  0  0  0  0  0  0  0  0  0
  -30.7799  -20.2055   21.1502 C   0  0  0  0  0  0  0  0  0  0  0  0
  -19.0919  -31.9724   23.3718 C   0  0  0  0  0  0  0  0  0  0  0  0
  -23.1843  -26.4337   22.3278 C   0  0  0  0  0  0  0  0  0  0  0  0
  -24.5916  -27.2013   19.8429 C   0  0  0  0  0  0  0  0  0  0  0  0
  -24.8474  -22.5565   14.4771 C   0  0  0  0  0  0  0  0  0  0  0  0
  -20.3822  -32.0020   22.5568 C   0  0  0  0  0  0  0  0  0  0  0  0
  -31.9626  -17.8199   23.5139 C   0  0  0  0  0  0  0  0  0  0  0  0
  -20.2548  -31.1141   21.3230 C   0  0  0  0  0  0  0  0  0  0  0  0
  -31.2917  -16.5151   23.0788 C   0  0  0  0  0  0  0  0  0  0  0  0
  -24.7452  -20.8520   16.2671 C   0  0  0  0  0  0  0  0  0  0  0  0
  -31.0416  -19.0232   23.3201 C   0  0  0  0  0  0  0  0  0  0  0  0
  -26.2349  -21.0034   16.5191 C   0  0  0  0  0  0  0  0  0  0  0  0
  -29.8055  -17.8567   21.5368 C   0  0  0  0  0  0  0  0  0  0  0  0
  -20.0138  -29.6521   21.7179 C   0  0  1  0  0  0  0  0  0  0  0  0
  -23.3751  -27.8944   21.9315 C   0  0  1  0  0  0  0  0  0  0  0  0
  -24.1300  -22.1492   15.7573 C   0  0  1  0  0  0  0  0  0  0  0  0
  -30.7179  -16.6248   21.6526 C   0  0  2  0  0  0  0  0  0  0  0  0
  -28.4642  -24.4084   16.5687 C   0  0  0  0  0  0  0  0  0  0  0  0
  -30.8571  -29.1104   20.3364 C   0  0  0  0  0  0  0  0  0  0  0  0
  -24.7043  -31.0167   18.7937 C   0  0  0  0  0  0  0  0  0  0  0  0
  -27.1539  -31.0515   18.2773 C   0  0  0  0  0  0  0  0  0  0  0  0
  -26.3234  -31.9793   20.4388 C   0  0  0  0  0  0  0  0  0  0  0  0
  -29.3702  -26.0712   22.0766 C   0  0  0  0  0  0  0  0  0  0  0  0
  -28.4143  -21.6573   15.5545 C   0  0  0  0  0  0  0  0  0  0  0  0
  -24.1523  -23.2667   16.8019 C   0  0  0  0  0  0  0  0  0  1  0  0
  -26.3256  -29.4761   20.0837 C   0  0  1  0  0  0  0  0  0  0  0  0
  -29.7946  -28.3267   21.0911 C   0  0  2  0  0  0  0  0  0  0  0  0
  -26.1127  -30.8562   19.4001 C   0  0  0  0  0  0  0  0  0  0  0  0
  -28.6878  -15.2397   21.4483 N   0  0  0  0  0  0  0  0  0  0  0  0
  -30.0095  -15.3506   21.2320 N   0  0  0  0  0  0  0  0  0  0  0  0
  -26.9611  -21.7230   15.4732 N   0  0  0  0  0  0  0  0  0  0  0  0
  -24.4997  -28.0888   21.0140 N   0  0  0  0  0  0  0  0  0  0  0  0
  -30.5397  -19.0647   21.9449 N   0  0  0  0  0  0  0  0  0  0  0  0
  -31.8818  -14.2005   20.3473 N   0  0  0  0  0  0  0  0  0  0  0  0
  -28.4864  -11.2849   19.7418 N   0  0  0  0  0  0  0  0  0  0  0  0
  -30.2838  -20.1172   19.8499 N   0  0  0  0  0  0  0  0  0  0  0  0
  -21.2505  -29.0337   22.1454 N   0  0  0  0  0  0  0  0  0  0  0  0
  -27.6415  -29.3065   20.6905 N   0  0  0  0  0  0  0  0  0  0  0  0
  -30.3052  -26.9460   21.3233 N   0  3  0  0  0  0  0  0  0  0  0  0
  -26.9870  -23.3313   13.7990 O   0  0  0  0  0  0  0  0  0  0  0  0
  -30.7380  -11.6074   19.4504 O   0  0  0  0  0  0  0  0  0  0  0  0
  -22.0587  -28.4311   20.0463 O   0  0  0  0  0  0  0  0  0  0  0  0
  -25.2667  -29.9771   22.1463 O   0  0  0  0  0  0  0  0  0  0  0  0
  -28.2442  -27.4293   19.4698 O   0  0  0  0  0  0  0  0  0  0  0  0
  -31.4051  -21.1774   21.5820 O   0  0  0  0  0  0  0  0  0  0  0  0
  -23.1606  -12.0905   21.1658 O   0  0  0  0  0  0  0  0  0  0  0  0
  -23.4575  -22.8267   17.9682 O   0  0  0  0  0  0  0  0  0  1  0  0
  -22.3857   -6.6952   20.3326 F   0  0  0  0  0  0  0  0  0  0  0  0
  -29.4341  -24.7912   19.1743 F   0  0  0  0  0  0  0  0  0  0  0  0
  -21.9923  -10.5087   23.1088 F   0  0  0  0  0  0  0  0  0  0  0  0
  1  2  1  0  0  0  0
  1  5  2  0  0  0  0
  2  6  2  0  0  0  0
  3  8  2  0  0  0  0
  3 17  1  0  0  0  0
  4  9  1  0  0  0  0
  4 17  2  0  0  0  0
  5 19  1  0  0  0  0
  6 21  1  0  0  0  0
  7 10  2  0  0  0  0
  7 20  1  0  0  0  0
  8 26  1  0  0  0  0
  9 26  2  0  0  0  0
 10 27  1  0  0  0  0
 11 12  2  0  0  0  0
 11 28  1  0  0  0  0
 12 29  1  0  0  0  0
 13 22  1  0  0  0  0
 13 27  2  0  0  0  0
 14 23  1  0  0  0  0
 14 25  2  0  0  0  0
 15 25  1  0  0  0  0
 15 30  2  0  0  0  0
 16 29  2  0  0  0  0
 16 31  1  0  0  0  0
 17 32  1  0  0  0  0
 18 32  1  0  0  0  0
 18 33  2  0  0  0  0
 18 35  1  0  0  0  0
 19 21  2  0  0  0  0
 19 40  1  0  0  0  0
 20 22  2  0  0  0  0
 20 41  1  0  0  0  0
 21 52  1  0  0  0  0
 22 42  1  0  0  0  0
 23 24  2  0  0  0  0
 23 62  1  0  0  0  0
 24 30  1  0  0  0  0
 24 56  1  0  0  0  0
 25 74  1  0  0  0  0
 26 84  1  0  0  0  0
 27 85  1  0  0  0  0
 28 31  2  0  0  0  0
 28 84  1  0  0  0  0
 29 86  1  0  0  0  0
 30 87  1  0  0  0  0
 31 88  1  0  0  0  0
 32 67  2  0  0  0  0
 33 68  1  0  0  0  0
 33 72  1  0  0  0  0
 34 43  1  0  0  0  0
 34 69  1  0  0  0  0
 34 78  2  0  0  0  0
 35 73  1  0  0  0  0
 35 79  2  0  0  0  0
 36 53  1  0  0  0  0
 36 75  1  0  0  0  0
 36 80  2  0  0  0  0
 37 64  1  0  0  0  0
 37 70  1  0  0  0  0
 37 81  2  0  0  0  0
 38 65  1  0  0  0  0
 38 76  1  0  0  0  0
 38 82  2  0  0  0  0
 39 71  1  0  0  0  0
 39 74  1  0  0  0  0
 39 83  2  0  0  0  0
 40 44  1  0  0  0  0
 41 53  1  0  0  0  0
 42 70  1  0  0  0  0
 43 54  1  0  0  0  0
 44 46  1  0  0  0  0
 45 47  1  0  0  0  0
 45 49  1  0  0  0  0
 46 52  1  0  0  0  0
 47 55  1  0  0  0  0
 48 50  1  0  0  0  0
 48 54  1  0  0  0  0
 49 71  1  0  0  0  0
 50 69  1  0  0  0  0
 51 55  1  0  0  0  0
 51 71  1  0  0  0  0
 52 75  1  0  0  0  0
 53 70  1  0  0  0  0
 54 63  1  0  0  0  0
 55 68  1  0  0  0  0
 57 65  1  0  0  0  0
 58 66  1  0  0  0  0
 59 66  1  0  0  0  0
 60 66  1  0  0  0  0
 61 77  1  0  0  0  0
 62 69  1  0  0  0  0
 63 85  1  0  0  0  0
 64 66  1  0  0  0  0
 64 76  1  0  0  0  0
 65 77  1  0  0  0  0
 67 68  1  0  0  0  0
M  CHG  1  77   1
M  ISO  4  39 100  63 101  74 100  85 101
M  END
> <Batch ID>
0056

> <Smiles>
CNC(C)C(=O)NC(C(=O)N1Cc2cc([101O:1][101CH2:1]C3CCN(Cc4cc([100NH:0][100C:0](=O)N5CCCC(n6nc(-c7ccc(Oc8ccc(F)cc8F)cc7)c(C(N)=O)c6N)C5)cc(F)c4C)C(=O)C3)ccc2CC1C(=O)NC1CCCc2ccccc21)C(C)(C)C

> <Shape>
0.288

> <Color>
0.080

> <Negative vol penalty>
0.000

$$$$

  -OEChem-04042322523D

 87 95  0     1  0  0  0  0  0999 V2000
  -22.9793  -32.4370   31.0581 C   0  0  0  0  0  0  0  0  0  0  0  0
  -23.4945  -31.3645   30.3373 C   0  0  0  0  0  0  0  0  0  0  0  0
  -32.4297  -17.9929   23.1554 C   0  0  0  0  0  0  0  0  0  0  0  0
  -23.1356   -9.8190   20.1748 C   0  0  0  0  0  0  0  0  0  0  0  0
  -23.7591  -10.1457   22.4860 C   0  0  0  0  0  0  0  0  0  0  0  0
  -22.4129  -33.5193   30.3860 C   0  0  0  0  0  0  0  0  0  0  0  0
  -23.4426  -31.3731   28.9439 C   0  0  0  0  0  0  0  0  0  0  0  0
  -27.7995  -29.8944   26.8283 C   0  0  0  0  0  0  0  0  0  0  0  0
  -31.8847  -16.9935   22.3494 C   0  0  0  0  0  0  0  0  0  0  0  0
  -31.5980  -18.9467   23.7421 C   0  0  0  0  0  0  0  0  0  0  0  0
  -22.3906   -8.6961   20.5345 C   0  0  0  0  0  0  0  0  0  0  0  0
  -23.0140   -9.0227   22.8457 C   0  0  0  0  0  0  0  0  0  0  0  0
  -28.0626  -28.5256   26.8028 C   0  0  0  0  0  0  0  0  0  0  0  0
  -19.7646   -8.2532   23.3651 C   0  0  0  0  0  0  0  0  0  0  0  0
  -18.9405   -8.3558   24.4857 C   0  0  0  0  0  0  0  0  0  0  0  0
  -27.3433  -28.4362   24.5020 C   0  0  0  0  0  0  0  0  0  0  0  0
  -20.1568   -6.5570   25.5449 C   0  0  0  0  0  0  0  0  0  0  0  0
  -23.8199  -10.5439   21.1506 C   0  0  0  0  0  0  0  0  0  0  0  0
  -24.1415  -13.0363   20.7125 C   0  0  0  0  0  0  0  0  0  0  0  0
  -22.3627  -33.5456   28.9834 C   0  0  0  0  0  0  0  0  0  0  0  0
  -27.2951  -30.5435   25.6922 C   0  0  0  0  0  0  0  0  0  0  0  0
  -22.8737  -32.4561   28.2524 C   0  0  0  0  0  0  0  0  0  0  0  0
  -27.0770  -29.8139   24.5148 C   0  0  0  0  0  0  0  0  0  0  0  0
  -29.6762  -17.9017   22.7166 C   0  0  0  0  0  0  0  0  0  0  0  0
  -30.5079  -16.9478   22.1300 C   0  0  0  0  0  0  0  0  0  0  0  0
  -30.2212  -18.9011   23.5227 C   0  0  0  0  0  0  0  0  0  0  0  0
  -22.3297   -8.2979   21.8699 C   0  0  0  0  0  0  0  0  0  0  0  0
  -27.8318  -27.7956   25.6405 C   0  0  0  0  0  0  0  0  0  0  0  0
  -20.7848   -7.3024   23.3343 C   0  0  0  0  0  0  0  0  0  0  0  0
  -19.1366   -7.5078   25.5757 C   0  0  0  0  0  0  0  0  0  0  0  0
  -20.9809   -6.4544   24.4242 C   0  0  0  0  0  0  0  0  0  0  0  0
  -24.5902  -11.7037   20.7796 C   0  0  0  0  0  0  0  0  0  0  0  0
  -25.2452  -13.7506   20.3147 C   0  0  0  0  0  0  0  0  0  0  0  0
  -22.8432  -13.5799   20.9854 C   0  0  0  0  0  0  0  0  0  0  0  0
  -24.6256  -32.1308   25.0155 C   0  0  0  0  0  0  0  0  0  0  0  0
  -28.7163  -21.9067   25.1755 C   0  0  0  0  0  0  0  0  0  0  0  0
  -26.1524  -32.7277   22.2163 C   0  0  0  0  0  0  0  0  0  0  0  0
  -28.5311  -31.7894   19.9563 C   0  0  0  0  0  0  0  0  0  0  0  0
  -30.6802  -14.9104   20.6584 C   0  0  0  0  0  0  0  0  0  0  0  0
  -21.6980  -34.7158   28.3025 C   0  0  0  0  0  0  0  0  0  0  0  0
  -27.0417  -32.0257   25.7277 C   0  0  0  0  0  0  0  0  0  0  0  0
  -26.5555  -30.4673   23.2620 C   0  0  0  0  0  0  0  0  0  0  0  0
  -22.0199  -34.8175   26.8138 C   0  0  0  0  0  0  0  0  0  0  0  0
  -29.7328  -12.1823   18.5759 C   0  0  0  0  0  0  0  0  0  0  0  0
  -21.8764  -33.4554   26.1423 C   0  0  0  0  0  0  0  0  0  0  0  0
  -28.2735  -11.9242   18.9580 C   0  0  0  0  0  0  0  0  0  0  0  0
  -30.5731  -12.5860   19.7861 C   0  0  0  0  0  0  0  0  0  0  0  0
  -28.5805  -13.4530   20.9468 C   0  0  0  0  0  0  0  0  0  0  0  0
  -22.8582  -32.4398   26.7393 C   0  0  1  0  0  0  0  0  0  0  0  0
  -26.0438  -32.4868   24.6699 C   0  0  1  0  0  0  0  0  0  0  0  0
  -27.6806  -13.1064   19.7495 C   0  0  2  0  0  0  0  0  0  0  0  0
  -28.1982  -17.8531   22.4813 C   0  0  0  0  0  0  0  0  0  0  0  0
  -29.5215  -32.4538   17.7483 C   0  0  0  0  0  0  0  0  0  0  0  0
  -23.6935  -31.6258   20.7846 C   0  0  0  0  0  0  0  0  0  0  0  0
  -25.0780  -31.4264   18.7082 C   0  0  0  0  0  0  0  0  0  0  0  0
  -24.6857  -33.6665   19.7332 C   0  0  0  0  0  0  0  0  0  0  0  0
  -31.2156  -32.1687   21.1431 C   0  0  0  0  0  0  0  0  0  0  0  0
  -29.8802  -21.1247   24.6019 C   0  0  0  0  0  0  0  0  0  0  0  0
  -29.0497  -23.2747   25.7353 C   0  0  0  0  0  0  0  0  0  0  0  0
  -26.2410  -32.0348   20.8780 C   0  0  1  0  0  0  0  0  0  0  0  0
  -29.6260  -32.5777   19.2604 C   0  0  2  0  0  0  0  0  0  0  0  0
  -24.9326  -32.1754   20.0501 C   0  0  0  0  0  0  0  0  0  0  0  0
  -25.8784  -11.5762   20.4506 N   0  0  0  0  0  0  0  0  0  0  0  0
  -26.2486  -12.8379   20.1729 N   0  0  0  0  0  0  0  0  0  0  0  0
  -26.3172  -31.9175   23.3487 N   0  0  0  0  0  0  0  0  0  0  0  0
  -29.9525  -13.7142   20.4840 N   0  0  0  0  0  0  0  0  0  0  0  0
  -25.4454  -15.0641   20.0758 N   0  0  0  0  0  0  0  0  0  0  0  0
  -21.8228  -12.7054   21.3835 N   0  0  0  0  0  0  0  0  0  0  0  0
  -29.9760  -15.9242   21.3071 N   0  0  0  0  0  0  0  0  0  0  0  0
  -29.4084  -19.8617   24.1177 N   0  0  0  0  0  0  0  0  0  0  0  0
  -24.1901  -32.6571   26.2167 N   0  0  0  0  0  0  0  0  0  0  0  0
  -27.4263  -32.5717   20.2182 N   0  0  0  0  0  0  0  0  0  0  0  0
  -27.8218  -23.9099   26.2545 N   0  0  0  0  0  0  0  0  0  0  0  0
  -30.9675  -32.0832   19.6809 N   0  3  0  0  0  0  0  0  0  0  0  0
  -22.5909  -14.8027   20.8636 O   0  0  0  0  0  0  0  0  0  0  0  0
  -23.9741  -31.4317   24.2484 O   0  0  0  0  0  0  0  0  0  0  0  0
  -27.5904  -21.4182   25.2780 O   0  0  0  0  0  0  0  0  0  0  0  0
  -25.9516  -33.9441   22.2554 O   0  0  0  0  0  0  0  0  0  0  0  0
  -28.6432  -30.5979   20.2360 O   0  0  0  0  0  0  0  0  0  0  0  0
  -31.8330  -15.0359   20.2374 O   0  0  0  0  0  0  0  0  0  0  0  0
  -29.2295  -25.5491   27.6562 O   0  0  0  0  0  0  0  0  0  0  0  0
  -26.7209  -25.7840   27.6040 O   0  0  0  0  0  0  0  0  0  0  0  0
  -21.6026   -7.2023   22.2213 O   0  0  0  0  0  0  0  0  0  0  0  0
  -28.0872  -26.4593   25.6131 O   0  0  0  0  0  0  0  0  0  1  0  0
  -18.3461   -7.6075   26.6524 F   0  0  0  0  0  0  0  0  0  0  0  0
  -21.9601   -5.5398   24.4009 F   0  0  0  0  0  0  0  0  0  0  0  0
  -27.9731  -25.4880   26.9305 S   0  0  0  0  0  0  0  0  0  1  0  0
  1  2  1  0  0  0  0
  1  6  2  0  0  0  0
  2  7  2  0  0  0  0
  3  9  1  0  0  0  0
  3 10  2  0  0  0  0
  4 11  2  0  0  0  0
  4 18  1  0  0  0  0
  5 12  1  0  0  0  0
  5 18  2  0  0  0  0
  6 20  1  0  0  0  0
  7 22  1  0  0  0  0
  8 13  2  0  0  0  0
  8 21  1  0  0  0  0
  9 25  2  0  0  0  0
 10 26  1  0  0  0  0
 11 27  1  0  0  0  0
 12 27  2  0  0  0  0
 13 28  1  0  0  0  0
 14 15  2  0  0  0  0
 14 29  1  0  0  0  0
 15 30  1  0  0  0  0
 16 23  1  0  0  0  0
 16 28  2  0  0  0  0
 17 30  2  0  0  0  0
 17 31  1  0  0  0  0
 18 32  1  0  0  0  0
 19 32  1  0  0  0  0
 19 33  2  0  0  0  0
 19 34  1  0  0  0  0
 20 22  2  0  0  0  0
 20 40  1  0  0  0  0
 21 23  2  0  0  0  0
 21 41  1  0  0  0  0
 22 49  1  0  0  0  0
 23 42  1  0  0  0  0
 24 25  1  0  0  0  0
 24 26  2  0  0  0  0
 24 52  1  0  0  0  0
 25 69  1  0  0  0  0
 26 70  1  0  0  0  0
 27 83  1  0  0  0  0
 28 84  1  0  0  0  0
 29 31  2  0  0  0  0
 29 83  1  0  0  0  0
 30 85  1  0  0  0  0
 31 86  1  0  0  0  0
 32 63  2  0  0  0  0
 33 64  1  0  0  0  0
 33 67  1  0  0  0  0
 34 68  1  0  0  0  0
 34 75  2  0  0  0  0
 35 50  1  0  0  0  0
 35 71  1  0  0  0  0
 35 76  2  0  0  0  0
 36 58  1  0  0  0  0
 36 59  1  0  0  0  0
 36 77  2  0  0  0  0
 37 60  1  0  0  0  0
 37 65  1  0  0  0  0
 37 78  2  0  0  0  0
 38 61  1  0  0  0  0
 38 72  1  0  0  0  0
 38 79  2  0  0  0  0
 39 66  1  0  0  0  0
 39 69  1  0  0  0  0
 39 80  2  0  0  0  0
 40 43  1  0  0  0  0
 41 50  1  0  0  0  0
 42 65  1  0  0  0  0
 43 45  1  0  0  0  0
 44 46  1  0  0  0  0
 44 47  1  0  0  0  0
 45 49  1  0  0  0  0
 46 51  1  0  0  0  0
 47 66  1  0  0  0  0
 48 51  1  0  0  0  0
 48 66  1  0  0  0  0
 49 71  1  0  0  0  0
 50 65  1  0  0  0  0
 51 64  1  0  0  0  0
 53 61  1  0  0  0  0
 54 62  1  0  0  0  0
 55 62  1  0  0  0  0
 56 62  1  0  0  0  0
 57 74  1  0  0  0  0
 58 70  1  0  0  0  0
 59 73  1  0  0  0  0
 60 62  1  0  0  0  0
 60 72  1  0  0  0  0
 61 74  1  0  0  0  0
 63 64  1  0  0  0  0
 73 87  1  0  0  0  0
 81 87  2  0  0  0  0
 82 87  2  0  0  0  0
 84 87  1  0  0  0  0
M  CHG  1  74   1
M  ISO  4  39 100  69 100  84 101  87 101
M  END
> <Batch ID>
0056

> <Smiles>
CNC(C)C(=O)NC(C(=O)N1Cc2cc([101O:1][101S:1](=O)(=O)NCC(=O)CNc3cccc([100NH:0][100C:0](=O)N4CCCC(n5nc(-c6ccc(Oc7ccc(F)cc7F)cc6)c(C(N)=O)c5N)C4)c3C)ccc2CC1C(=O)NC1CCCc2ccccc21)C(C)(C)C

> <Shape>
0.253

> <Color>
0.185

> <Negative vol penalty>
0.000

$$$$

  -OEChem-04042322523D

 91 99  0     1  0  0  0  0  0999 V2000
  -25.6436  -37.0332   23.7742 C   0  0  0  0  0  0  0  0  0  0  0  0
  -26.2383  -35.9095   24.3389 C   0  0  0  0  0  0  0  0  0  0  0  0
  -23.0938   -9.7887   20.2678 C   0  0  0  0  0  0  0  0  0  0  0  0
  -23.7244  -10.1575   22.5707 C   0  0  0  0  0  0  0  0  0  0  0  0
  -24.3386  -36.9604   23.2890 C   0  0  0  0  0  0  0  0  0  0  0  0
  -25.5279  -34.7124   24.4197 C   0  0  0  0  0  0  0  0  0  0  0  0
  -27.7909  -29.0457   23.8966 C   0  0  0  0  0  0  0  0  0  0  0  0
  -32.4773  -17.9269   23.0760 C   0  0  0  0  0  0  0  0  0  0  0  0
  -31.9387  -16.9091   22.2890 C   0  0  0  0  0  0  0  0  0  0  0  0
  -22.3342   -8.6840   20.6527 C   0  0  0  0  0  0  0  0  0  0  0  0
  -22.9647   -9.0528   22.9556 C   0  0  0  0  0  0  0  0  0  0  0  0
  -28.1584  -28.0913   24.8441 C   0  0  0  0  0  0  0  0  0  0  0  0
  -19.9384   -5.9825   21.0739 C   0  0  0  0  0  0  0  0  0  0  0  0
  -18.6620   -5.8510   20.5272 C   0  0  0  0  0  0  0  0  0  0  0  0
  -29.7275  -17.8259   22.6165 C   0  0  0  0  0  0  0  0  0  0  0  0
  -25.9929  -27.0508   24.6272 C   0  0  0  0  0  0  0  0  0  0  0  0
  -18.0290   -7.9723   21.4949 C   0  0  0  0  0  0  0  0  0  0  0  0
  -23.7890  -10.5254   21.2268 C   0  0  0  0  0  0  0  0  0  0  0  0
  -30.2662  -18.8437   23.4036 C   0  0  0  0  0  0  0  0  0  0  0  0
  -24.1436  -13.0031   20.7338 C   0  0  0  0  0  0  0  0  0  0  0  0
  -23.6151  -35.7592   23.3552 C   0  0  0  0  0  0  0  0  0  0  0  0
  -26.5155  -29.0162   23.3143 C   0  0  0  0  0  0  0  0  0  0  0  0
  -24.2114  -34.6237   23.9362 C   0  0  0  0  0  0  0  0  0  0  0  0
  -25.6125  -28.0044   23.6707 C   0  0  0  0  0  0  0  0  0  0  0  0
  -31.6411  -18.8942   23.6334 C   0  0  0  0  0  0  0  0  0  0  0  0
  -30.5638  -16.8585   22.0592 C   0  0  0  0  0  0  0  0  0  0  0  0
  -22.2696   -8.3161   21.9966 C   0  0  0  0  0  0  0  0  0  0  0  0
  -27.2584  -27.0954   25.2117 C   0  0  0  0  0  0  0  0  0  0  0  0
  -20.2602   -7.1089   21.8312 C   0  0  0  0  0  0  0  0  0  0  0  0
  -17.7072   -6.8459   20.7377 C   0  0  0  0  0  0  0  0  0  0  0  0
  -19.3055   -8.1038   22.0417 C   0  0  0  0  0  0  0  0  0  0  0  0
  -24.5744  -11.6663   20.8297 C   0  0  0  0  0  0  0  0  0  0  0  0
  -25.2563  -13.6935   20.3194 C   0  0  0  0  0  0  0  0  0  0  0  0
  -29.3639  -19.8582   23.9844 C   0  0  0  0  0  0  0  0  0  0  0  0
  -22.8530  -13.5701   20.9959 C   0  0  0  0  0  0  0  0  0  0  0  0
  -24.0296  -30.9963   23.2567 C   0  0  0  0  0  0  0  0  0  0  0  0
  -22.8422  -28.8213   21.1635 C   0  0  0  0  0  0  0  0  0  0  0  0
  -29.1402  -22.9383   24.5789 C   0  0  0  0  0  0  0  0  0  0  0  0
  -22.8508  -25.6116   20.0040 C   0  0  0  0  0  0  0  0  0  0  0  0
  -30.7069  -14.7871   20.6326 C   0  0  0  0  0  0  0  0  0  0  0  0
  -22.1904  -35.7416   22.8605 C   0  0  0  0  0  0  0  0  0  0  0  0
  -26.1439  -30.0371   22.2741 C   0  0  0  0  0  0  0  0  0  0  0  0
  -24.2385  -27.9166   23.0601 C   0  0  0  0  0  0  0  0  0  0  0  0
  -21.6383  -34.3350   22.6437 C   0  0  0  0  0  0  0  0  0  0  0  0
  -29.7202  -12.0271   18.6113 C   0  0  0  0  0  0  0  0  0  0  0  0
  -21.9660  -33.4431   23.8369 C   0  0  0  0  0  0  0  0  0  0  0  0
  -28.2581  -11.7971   19.0004 C   0  0  0  0  0  0  0  0  0  0  0  0
  -30.5674  -12.4459   19.8116 C   0  0  0  0  0  0  0  0  0  0  0  0
  -28.5881  -13.3650   20.9549 C   0  0  0  0  0  0  0  0  0  0  0  0
  -23.4818  -33.3005   24.0193 C   0  0  1  0  0  0  0  0  0  0  0  0
  -24.6363  -30.2165   22.1247 C   0  0  1  0  0  0  0  0  0  0  0  0
  -27.6822  -13.0044   19.7662 C   0  0  2  0  0  0  0  0  0  0  0  0
  -32.2418  -19.9746   24.4718 C   0  0  0  0  0  0  0  0  0  0  0  0
  -21.7448  -24.1257   18.3109 C   0  0  0  0  0  0  0  0  0  0  0  0
  -20.3548  -28.6707   22.9242 C   0  0  0  0  0  0  0  0  0  0  0  0
  -19.7385  -26.5461   21.7516 C   0  0  0  0  0  0  0  0  0  0  0  0
  -19.8940  -28.6783   20.4661 C   0  0  0  0  0  0  0  0  0  0  0  0
  -26.5738  -23.8469   22.9880 C   0  0  0  0  0  0  0  0  0  0  0  0
  -28.6286  -23.3778   21.6422 C   0  0  0  0  0  0  0  0  0  0  0  0
  -26.7736  -21.7141   21.6958 C   0  0  0  0  0  0  0  0  0  0  0  0
  -25.4162  -25.0716   18.6306 C   0  0  0  0  0  0  0  0  0  0  0  0
  -29.1319  -24.3619   26.6204 C   0  0  0  0  0  0  0  0  0  0  0  0
  -28.9970  -25.8182   26.2127 C   0  0  0  0  0  0  0  0  0  1  0  0
  -22.0126  -27.5656   21.2821 C   0  0  1  0  0  0  0  0  0  0  0  0
  -28.2356  -22.0414   23.7449 C   0  0  1  0  0  0  0  0  0  0  0  0
  -22.9188  -25.0496   18.5954 C   0  0  2  0  0  0  0  0  0  0  0  0
  -20.5251  -27.8677   21.6191 C   0  0  0  0  0  0  0  0  0  0  0  0
  -27.5492  -22.7411   22.5433 C   0  0  0  0  0  0  0  0  0  0  0  0
  -25.8604  -11.5143   20.5024 N   0  0  0  0  0  0  0  0  0  0  0  0
  -26.2472  -12.7645   20.1968 N   0  0  0  0  0  0  0  0  0  0  0  0
  -23.9198  -28.9415   22.0523 N   0  0  0  0  0  0  0  0  0  0  0  0
  -29.9629  -13.5974   20.4851 N   0  0  0  0  0  0  0  0  0  0  0  0
  -25.4739  -14.9986   20.0516 N   0  0  0  0  0  0  0  0  0  0  0  0
  -28.8446  -19.6210   25.1890 N   0  0  0  0  0  0  0  0  0  0  0  0
  -21.8215  -12.7183   21.4140 N   0  0  0  0  0  0  0  0  0  0  0  0
  -30.0172  -15.8244   21.2595 N   0  0  0  0  0  0  0  0  0  0  0  0
  -24.0207  -32.3635   23.0569 N   0  0  0  0  0  0  0  0  0  0  0  0
  -28.4899  -23.4817   25.6805 N   0  0  0  0  0  0  0  0  0  0  0  0
  -22.2056  -26.8297   20.0372 N   0  0  0  0  0  0  0  0  0  0  0  0
  -29.1121  -20.9605   23.2729 N   0  3  0  0  0  0  0  0  0  0  0  0
  -24.1801  -24.2789   18.4056 N   0  3  0  0  0  0  0  0  0  0  0  0
  -22.6171  -14.7931   20.8475 O   0  0  0  0  0  0  0  0  0  0  0  0
  -23.5999  -30.4014   24.2382 O   0  0  0  0  0  0  0  0  0  0  0  0
  -22.5492  -29.6612   20.3088 O   0  0  0  0  0  0  0  0  0  0  0  0
  -30.3170  -23.1451   24.2886 O   0  0  0  0  0  0  0  0  0  0  0  0
  -23.3195  -25.0265   20.9779 O   0  0  0  0  0  0  0  0  0  0  0  0
  -31.8608  -14.8879   20.2079 O   0  0  0  0  0  0  0  0  0  0  0  0
  -21.5282   -7.2383   22.3726 O   0  0  0  0  0  0  0  0  0  0  0  0
  -27.6144  -26.1630   26.1368 O   0  0  0  0  0  0  0  0  0  1  0  0
  -16.4819   -6.7202   20.2114 F   0  0  0  0  0  0  0  0  0  0  0  0
  -19.6091   -9.1887   22.7673 F   0  0  0  0  0  0  0  0  0  0  0  0
  1  2  1  0  0  0  0
  1  5  2  0  0  0  0
  2  6  2  0  0  0  0
  3 10  2  0  0  0  0
  3 18  1  0  0  0  0
  4 11  1  0  0  0  0
  4 18  2  0  0  0  0
  5 21  1  0  0  0  0
  6 23  1  0  0  0  0
  7 12  2  0  0  0  0
  7 22  1  0  0  0  0
  8  9  2  0  0  0  0
  8 25  1  0  0  0  0
  9 26  1  0  0  0  0
 10 27  1  0  0  0  0
 11 27  2  0  0  0  0
 12 28  1  0  0  0  0
 13 14  2  0  0  0  0
 13 29  1  0  0  0  0
 14 30  1  0  0  0  0
 15 19  1  0  0  0  0
 15 26  2  0  0  0  0
 16 24  1  0  0  0  0
 16 28  2  0  0  0  0
 17 30  2  0  0  0  0
 17 31  1  0  0  0  0
 18 32  1  0  0  0  0
 19 25  2  0  0  0  0
 19 34  1  0  0  0  0
 20 32  1  0  0  0  0
 20 33  2  0  0  0  0
 20 35  1  0  0  0  0
 21 23  2  0  0  0  0
 21 41  1  0  0  0  0
 22 24  2  0  0  0  0
 22 42  1  0  0  0  0
 23 50  1  0  0  0  0
 24 43  1  0  0  0  0
 25 53  1  0  0  0  0
 26 76  1  0  0  0  0
 27 88  1  0  0  0  0
 28 89  1  0  0  0  0
 29 31  2  0  0  0  0
 29 88  1  0  0  0  0
 30 90  1  0  0  0  0
 31 91  1  0  0  0  0
 32 69  2  0  0  0  0
 33 70  1  0  0  0  0
 33 73  1  0  0  0  0
 34 74  1  0  0  0  0
 34 80  2  0  0  0  0
 35 75  1  0  0  0  0
 35 82  2  0  0  0  0
 36 51  1  0  0  0  0
 36 77  1  0  0  0  0
 36 83  2  0  0  0  0
 37 64  1  0  0  0  0
 37 71  1  0  0  0  0
 37 84  2  0  0  0  0
 38 65  1  0  0  0  0
 38 78  1  0  0  0  0
 38 85  2  0  0  0  0
 39 66  1  0  0  0  0
 39 79  1  0  0  0  0
 39 86  2  0  0  0  0
 40 72  1  0  0  0  0
 40 76  1  0  0  0  0
 40 87  2  0  0  0  0
 41 44  1  0  0  0  0
 42 51  1  0  0  0  0
 43 71  1  0  0  0  0
 44 46  1  0  0  0  0
 45 47  1  0  0  0  0
 45 48  1  0  0  0  0
 46 50  1  0  0  0  0
 47 52  1  0  0  0  0
 48 72  1  0  0  0  0
 49 52  1  0  0  0  0
 49 72  1  0  0  0  0
 50 77  1  0  0  0  0
 51 71  1  0  0  0  0
 52 70  1  0  0  0  0
 54 66  1  0  0  0  0
 55 67  1  0  0  0  0
 56 67  1  0  0  0  0
 57 67  1  0  0  0  0
 58 68  1  0  0  0  0
 59 68  1  0  0  0  0
 60 68  1  0  0  0  0
 61 81  1  0  0  0  0
 62 63  1  0  0  0  0
 62 78  1  0  0  0  0
 63 89  1  0  0  0  0
 64 67  1  0  0  0  0
 64 79  1  0  0  0  0
 65 68  1  0  0  0  0
 65 80  1  0  0  0  0
 66 81  1  0  0  0  0
 69 70  1  0  0  0  0
M  CHG  2  80   1  81   1
M  ISO  4  40 100  63 101  76 100  89 101
M  END
> <Batch ID>
0056

> <Smiles>
CNC(C)C(=O)NC(C(=O)N1Cc2cc([101O:1][101CH2:1]CNC(=O)C(NC(=N)c3cc([100NH:0][100C:0](=O)N4CCCC(n5nc(-c6ccc(Oc7ccc(F)cc7F)cc6)c(C(N)=O)c5N)C4)ccc3C)C(C)(C)C)ccc2CC1C(=O)NC1CCCc2ccccc21)C(C)(C)C

> <Shape>
0.280

> <Color>
0.160

> <Negative vol penalty>
0.000

$$$$

  -OEChem-04042322523D

 89 97  0     1  0  0  0  0  0999 V2000
  -22.2721  -10.7491   21.1978 C   0  0  0  0  0  0  0  0  0  0  0  0
  -21.8069  -12.0572   21.2867 C   0  0  0  0  0  0  0  0  0  0  0  0
  -29.9511  -26.9471   20.4458 C   0  0  0  0  0  0  0  0  0  0  0  0
  -28.4402  -25.2758   21.3181 C   0  0  0  0  0  0  0  0  0  0  0  0
  -23.6356  -10.5045   21.0397 C   0  0  0  0  0  0  0  0  0  0  0  0
  -22.7052  -13.1215   21.2186 C   0  0  0  0  0  0  0  0  0  0  0  0
  -21.0812  -16.8437   18.1932 C   0  0  0  0  0  0  0  0  0  0  0  0
  -31.0362  -26.2262   20.9440 C   0  0  0  0  0  0  0  0  0  0  0  0
  -29.5254  -24.5548   21.8163 C   0  0  0  0  0  0  0  0  0  0  0  0
  -20.1117  -17.7042   18.7064 C   0  0  0  0  0  0  0  0  0  0  0  0
  -34.2262  -24.6422   21.6721 C   0  0  0  0  0  0  0  0  0  0  0  0
  -35.3302  -24.4720   20.8368 C   0  0  0  0  0  0  0  0  0  0  0  0
  -17.8465  -27.3685   23.4297 C   0  0  0  0  0  0  0  0  0  0  0  0
  -21.8219  -19.3378   19.1816 C   0  0  0  0  0  0  0  0  0  0  0  0
  -19.4775  -29.1507   23.4553 C   0  0  0  0  0  0  0  0  0  0  0  0
  -33.9367  -23.3292   19.2277 C   0  0  0  0  0  0  0  0  0  0  0  0
  -28.6530  -26.4719   20.6329 C   0  0  0  0  0  0  0  0  0  0  0  0
  -18.5706  -26.7201   22.4294 C   0  0  0  0  0  0  0  0  0  0  0  0
  -26.9376  -27.0903   18.8489 C   0  0  0  0  0  0  0  0  0  0  0  0
  -24.5500  -11.5667   20.9600 C   0  0  0  0  0  0  0  0  0  0  0  0
  -22.4320  -17.2201   18.1803 C   0  0  0  0  0  0  0  0  0  0  0  0
  -24.0824  -12.8910   21.0606 C   0  0  0  0  0  0  0  0  0  0  0  0
  -22.8062  -18.4813   18.6653 C   0  0  0  0  0  0  0  0  0  0  0  0
  -19.7483  -27.2870   21.9420 C   0  0  0  0  0  0  0  0  0  0  0  0
  -20.2017  -28.5023   22.4550 C   0  0  0  0  0  0  0  0  0  0  0  0
  -30.8234  -25.0300   21.6292 C   0  0  0  0  0  0  0  0  0  0  0  0
  -20.4823  -18.9503   19.2034 C   0  0  0  0  0  0  0  0  0  0  0  0
  -32.9774  -24.1557   21.2853 C   0  0  0  0  0  0  0  0  0  0  0  0
  -35.1855  -23.8156   19.6146 C   0  0  0  0  0  0  0  0  0  0  0  0
  -18.2999  -28.5838   23.9427 C   0  0  0  0  0  0  0  0  0  0  0  0
  -32.8326  -23.4993   20.0630 C   0  0  0  0  0  0  0  0  0  0  0  0
  -27.5316  -27.2165   20.1190 C   0  0  0  0  0  0  0  0  0  0  0  0
  -25.9192  -28.0119   18.8531 C   0  0  0  0  0  0  0  0  0  0  0  0
  -18.8028  -21.8436   20.6469 C   0  0  0  0  0  0  0  0  0  0  0  0
  -18.6334  -22.2840   21.9026 C   0  0  0  0  0  0  0  0  0  0  0  0
  -18.0702  -25.4349   21.9017 C   0  0  0  0  0  0  0  0  0  0  0  0
  -27.2761  -26.2180   17.7626 C   0  0  0  0  0  0  0  0  0  0  0  0
  -25.0873  -16.0936   19.5160 C   0  0  0  0  0  0  0  0  0  0  0  0
  -26.5051  -18.3756   17.6980 C   0  0  0  0  0  0  0  0  0  0  0  0
  -26.2248  -21.3406   16.0317 C   0  0  0  0  0  0  0  0  0  0  0  0
  -21.9669  -30.2985   22.3901 C   0  0  0  0  0  0  0  0  0  0  0  0
  -26.0197  -11.2516   20.8364 C   0  0  0  0  0  0  0  0  0  0  0  0
  -23.4622  -16.2912   17.5986 C   0  0  0  0  0  0  0  0  0  0  0  0
  -24.2404  -18.9412   18.6555 C   0  0  0  0  0  0  0  0  0  0  0  0
  -26.8637  -12.4453   20.3970 C   0  0  0  0  0  0  0  0  0  0  0  0
  -24.9122  -32.0810   21.4821 C   0  0  0  0  0  0  0  0  0  0  0  0
  -26.4890  -13.6880   21.1983 C   0  0  0  0  0  0  0  0  0  0  0  0
  -25.8311  -30.9973   20.9135 C   0  0  0  0  0  0  0  0  0  0  0  0
  -24.0878  -31.5649   22.6601 C   0  0  0  0  0  0  0  0  0  0  0  0
  -24.2479  -29.2520   21.8270 C   0  0  0  0  0  0  0  0  0  0  0  0
  -25.0228  -14.0728   20.9661 C   0  0  1  0  0  0  0  0  0  0  0  0
  -24.8732  -16.5703   18.1072 C   0  0  1  0  0  0  0  0  0  0  0  0
  -25.0511  -29.7061   20.5972 C   0  0  2  0  0  0  0  0  0  0  0  0
  -20.5223  -26.5884   20.8681 C   0  0  0  0  0  0  0  0  0  0  0  0
  -27.5640  -22.9711   14.6733 C   0  0  0  0  0  0  0  0  0  0  0  0
  -17.4894  -22.2142   24.7734 C   0  0  0  0  0  0  0  0  0  0  0  0
  -15.4183  -23.2799   23.8541 C   0  0  0  0  0  0  0  0  0  0  0  0
  -27.8367  -19.4001   20.2450 C   0  0  0  0  0  0  0  0  0  0  0  0
  -28.3670  -21.5241   19.0302 C   0  0  0  0  0  0  0  0  0  0  0  0
  -29.3226  -19.3619   18.2337 C   0  0  0  0  0  0  0  0  0  0  0  0
  -24.4857  -20.9753   13.6651 C   0  0  0  0  0  0  0  0  0  0  0  0
  -19.9882  -21.0532   20.1982 C   0  0  0  0  0  0  0  0  0  1  0  0
  -17.4437  -23.0886   22.3474 C   0  0  1  0  0  0  0  0  0  0  0  0
  -26.8614  -19.8295   17.8933 C   0  0  1  0  0  0  0  0  0  0  0  0
  -26.6511  -21.7554   14.6351 C   0  0  2  0  0  0  0  0  0  0  0  0
  -16.6556  -22.4439   23.5082 C   0  0  0  0  0  0  0  0  0  0  0  0
  -28.0701  -20.0198   18.8527 C   0  0  0  0  0  0  0  0  0  0  0  0
  -26.9399  -28.1452   20.8749 N   0  0  0  0  0  0  0  0  0  0  0  0
  -25.9636  -28.6110   20.0775 N   0  0  0  0  0  0  0  0  0  0  0  0
  -25.2116  -17.9947   18.0823 N   0  0  0  0  0  0  0  0  0  0  0  0
  -23.3732  -30.3426   22.2854 N   0  0  0  0  0  0  0  0  0  0  0  0
  -24.9991  -28.3602   17.9287 N   0  0  0  0  0  0  0  0  0  0  0  0
  -17.7835  -25.3585   20.6021 N   0  0  0  0  0  0  0  0  0  0  0  0
  -28.3506  -25.3331   17.9261 N   0  0  0  0  0  0  0  0  0  0  0  0
  -21.3952  -29.0962   21.9749 N   0  0  0  0  0  0  0  0  0  0  0  0
  -24.8713  -14.7400   19.6908 N   0  0  0  0  0  0  0  0  0  0  0  0
  -27.0649  -20.3827   16.5588 N   0  0  0  0  0  0  0  0  0  0  0  0
  -17.9284  -24.4162   22.7533 N   0  3  0  0  0  0  0  0  0  0  0  0
  -25.4579  -22.0895   13.8070 N   0  3  0  0  0  0  0  0  0  0  0  0
  -26.6548  -26.2346   16.6729 O   0  0  0  0  0  0  0  0  0  0  0  0
  -25.4250  -16.8943   20.3800 O   0  0  0  0  0  0  0  0  0  0  0  0
  -27.3411  -17.6076   17.2154 O   0  0  0  0  0  0  0  0  0  0  0  0
  -25.2467  -21.8213   16.5999 O   0  0  0  0  0  0  0  0  0  0  0  0
  -21.3153  -31.2663   22.7911 O   0  0  0  0  0  0  0  0  0  0  0  0
  -31.8821  -24.3261   22.1153 O   0  0  0  0  0  0  0  0  0  0  0  0
  -19.5381  -19.7918   19.7056 O   0  0  0  0  0  0  0  0  0  1  0  0
  -36.2455  -23.6537   18.8119 F   0  0  0  0  0  0  0  0  0  0  0  0
  -17.6048  -29.2061   24.9039 F   0  0  0  0  0  0  0  0  0  0  0  0
  -31.6352  -23.0309   19.6855 F   0  0  0  0  0  0  0  0  0  0  0  0
  1  2  1  0  0  0  0
  1  5  2  0  0  0  0
  2  6  2  0  0  0  0
  3  8  2  0  0  0  0
  3 17  1  0  0  0  0
  4  9  1  0  0  0  0
  4 17  2  0  0  0  0
  5 20  1  0  0  0  0
  6 22  1  0  0  0  0
  7 10  2  0  0  0  0
  7 21  1  0  0  0  0
  8 26  1  0  0  0  0
  9 26  2  0  0  0  0
 10 27  1  0  0  0  0
 11 12  2  0  0  0  0
 11 28  1  0  0  0  0
 12 29  1  0  0  0  0
 13 18  1  0  0  0  0
 13 30  2  0  0  0  0
 14 23  1  0  0  0  0
 14 27  2  0  0  0  0
 15 25  2  0  0  0  0
 15 30  1  0  0  0  0
 16 29  2  0  0  0  0
 16 31  1  0  0  0  0
 17 32  1  0  0  0  0
 18 24  2  0  0  0  0
 18 36  1  0  0  0  0
 19 32  1  0  0  0  0
 19 33  2  0  0  0  0
 19 37  1  0  0  0  0
 20 22  2  0  0  0  0
 20 42  1  0  0  0  0
 21 23  2  0  0  0  0
 21 43  1  0  0  0  0
 22 51  1  0  0  0  0
 23 44  1  0  0  0  0
 24 25  1  0  0  0  0
 24 54  1  0  0  0  0
 25 75  1  0  0  0  0
 26 85  1  0  0  0  0
 27 86  1  0  0  0  0
 28 31  2  0  0  0  0
 28 85  1  0  0  0  0
 29 87  1  0  0  0  0
 30 88  1  0  0  0  0
 31 89  1  0  0  0  0
 32 68  2  0  0  0  0
 33 69  1  0  0  0  0
 33 72  1  0  0  0  0
 34 35  2  0  0  0  0
 34 62  1  0  0  0  0
 35 63  1  0  0  0  0
 36 73  1  0  0  0  0
 36 78  2  0  0  0  0
 37 74  1  0  0  0  0
 37 80  2  0  0  0  0
 38 52  1  0  0  0  0
 38 76  1  0  0  0  0
 38 81  2  0  0  0  0
 39 64  1  0  0  0  0
 39 70  1  0  0  0  0
 39 82  2  0  0  0  0
 40 65  1  0  0  0  0
 40 77  1  0  0  0  0
 40 83  2  0  0  0  0
 41 71  1  0  0  0  0
 41 75  1  0  0  0  0
 41 84  2  0  0  0  0
 42 45  1  0  0  0  0
 43 52  1  0  0  0  0
 44 70  1  0  0  0  0
 45 47  1  0  0  0  0
 46 48  1  0  0  0  0
 46 49  1  0  0  0  0
 47 51  1  0  0  0  0
 48 53  1  0  0  0  0
 49 71  1  0  0  0  0
 50 53  1  0  0  0  0
 50 71  1  0  0  0  0
 51 76  1  0  0  0  0
 52 70  1  0  0  0  0
 53 69  1  0  0  0  0
 55 65  1  0  0  0  0
 56 66  1  0  0  0  0
 57 66  1  0  0  0  0
 58 67  1  0  0  0  0
 59 67  1  0  0  0  0
 60 67  1  0  0  0  0
 61 79  1  0  0  0  0
 62 86  1  0  0  0  0
 63 66  1  0  0  0  0
 63 78  1  0  0  0  0
 64 67  1  0  0  0  0
 64 77  1  0  0  0  0
 65 79  1  0  0  0  0
 68 69  1  0  0  0  0
M  CHG  2  78   1  79   1
M  ISO  4  41 100  62 101  75 100  86 101
M  END
> <Batch ID>
0056

> <Smiles>
CNC(C)C(=O)NC(C(=O)N1Cc2cc([101O:1][101CH2:1]C=CC(NC(=N)c3cc(F)cc([100NH:0][100C:0](=O)N4CCCC(n5nc(-c6ccc(Oc7ccc(F)cc7F)cc6)c(C(N)=O)c5N)C4)c3C)C(C)C)ccc2CC1C(=O)NC1CCCc2ccccc21)C(C)(C)C

> <Shape>
0.229

> <Color>
0.071

> <Negative vol penalty>
0.000

$$$$

  -OEChem-04042322523D

 86 94  0     1  0  0  0  0  0999 V2000
  -29.1805  -12.6011   21.4286 C   0  0  0  0  0  0  0  0  0  0  0  0
  -29.1676  -13.9453   21.0704 C   0  0  0  0  0  0  0  0  0  0  0  0
  -19.9058  -28.4248   23.8423 C   0  0  0  0  0  0  0  0  0  0  0  0
  -20.3491  -26.9762   21.9602 C   0  0  0  0  0  0  0  0  0  0  0  0
  -28.0252  -11.8329   21.2904 C   0  0  0  0  0  0  0  0  0  0  0  0
  -27.9995  -14.5219   20.5729 C   0  0  0  0  0  0  0  0  0  0  0  0
  -27.0355  -19.0459   22.6342 C   0  0  0  0  0  0  0  0  0  0  0  0
  -18.5910  -28.5888   23.4064 C   0  0  0  0  0  0  0  0  0  0  0  0
  -19.0343  -27.1402   21.5243 C   0  0  0  0  0  0  0  0  0  0  0  0
  -27.7669  -20.1323   22.1561 C   0  0  0  0  0  0  0  0  0  0  0  0
  -15.6929  -26.8888   20.1136 C   0  0  0  0  0  0  0  0  0  0  0  0
  -14.9980  -25.7509   19.7041 C   0  0  0  0  0  0  0  0  0  0  0  0
  -29.0942  -25.0579   20.2971 C   0  0  0  0  0  0  0  0  0  0  0  0
  -25.8968  -20.7757   20.7748 C   0  0  0  0  0  0  0  0  0  0  0  0
  -30.6283  -26.9243   20.3111 C   0  0  0  0  0  0  0  0  0  0  0  0
  -15.2834  -24.7861   21.9006 C   0  0  0  0  0  0  0  0  0  0  0  0
  -20.7849  -27.6185   23.1192 C   0  0  0  0  0  0  0  0  0  0  0  0
  -30.1000  -24.2349   19.7904 C   0  0  0  0  0  0  0  0  0  0  0  0
  -22.6322  -26.4610   24.4441 C   0  0  0  0  0  0  0  0  0  0  0  0
  -26.8397  -12.4028   20.8000 C   0  0  0  0  0  0  0  0  0  0  0  0
  -25.7310  -18.8096   22.1772 C   0  0  0  0  0  0  0  0  0  0  0  0
  -26.8276  -13.7603   20.4268 C   0  0  0  0  0  0  0  0  0  0  0  0
  -25.1501  -19.6870   21.2506 C   0  0  0  0  0  0  0  0  0  0  0  0
  -31.6341  -26.1013   19.8044 C   0  0  0  0  0  0  0  0  0  0  0  0
  -31.3700  -24.7566   19.5441 C   0  0  0  0  0  0  0  0  0  0  0  0
  -29.3583  -26.4026   20.5574 C   0  0  0  0  0  0  0  0  0  0  0  0
  -18.1553  -27.9465   22.2474 C   0  0  0  0  0  0  0  0  0  0  0  0
  -27.1986  -20.9958   21.2241 C   0  0  0  0  0  0  0  0  0  0  0  0
  -16.1832  -26.9754   21.4166 C   0  0  0  0  0  0  0  0  0  0  0  0
  -14.7932  -24.6995   20.5976 C   0  0  0  0  0  0  0  0  0  0  0  0
  -15.9784  -25.9240   22.3101 C   0  0  0  0  0  0  0  0  0  0  0  0
  -22.1434  -27.4492   23.5686 C   0  0  0  0  0  0  0  0  0  0  0  0
  -23.9746  -26.7310   24.5514 C   0  0  0  0  0  0  0  0  0  0  0  0
  -29.7875  -22.8013   19.5221 C   0  0  0  0  0  0  0  0  0  0  0  0
  -21.9351  -25.3944   25.1014 C   0  0  0  0  0  0  0  0  0  0  0  0
  -24.2994  -16.4492   20.6015 C   0  0  0  0  0  0  0  0  0  0  0  0
  -29.6110  -21.0615   18.0100 C   0  0  0  0  0  0  0  0  0  0  0  0
  -21.6298  -18.1925   21.1989 C   0  0  0  0  0  0  0  0  0  0  0  0
  -20.2530  -21.2368   21.8943 C   0  0  0  0  0  0  0  0  0  0  0  0
  -28.4321  -28.5939   21.3859 C   0  0  0  0  0  0  0  0  0  0  0  0
  -25.6290  -11.5208   20.6239 C   0  0  0  0  0  0  0  0  0  0  0  0
  -24.9457  -17.6486   22.7228 C   0  0  0  0  0  0  0  0  0  0  0  0
  -23.7458  -19.4889   20.7435 C   0  0  0  0  0  0  0  0  0  0  0  0
  -24.3292  -12.3001   20.4412 C   0  0  0  0  0  0  0  0  0  0  0  0
  -26.8048  -30.7085   23.7434 C   0  0  0  0  0  0  0  0  0  0  0  0
  -24.5184  -13.4236   19.4269 C   0  0  0  0  0  0  0  0  0  0  0  0
  -25.4843  -29.9883   24.0254 C   0  0  0  0  0  0  0  0  0  0  0  0
  -27.2238  -30.5725   22.2806 C   0  0  0  0  0  0  0  0  0  0  0  0
  -25.9518  -28.4747   22.0563 C   0  0  0  0  0  0  0  0  0  0  0  0
  -25.5732  -14.4280   19.9066 C   0  0  1  0  0  0  0  0  0  0  0  0
  -23.8112  -17.2092   21.8023 C   0  0  1  0  0  0  0  0  0  0  0  0
  -25.5216  -28.5288   23.5313 C   0  0  2  0  0  0  0  0  0  0  0  0
  -32.9857  -26.6842   19.5494 C   0  0  0  0  0  0  0  0  0  0  0  0
  -32.4507  -23.8763   18.9997 C   0  0  0  0  0  0  0  0  0  0  0  0
  -30.7765  -20.2826   17.4626 C   0  0  0  0  0  0  0  0  0  0  0  0
  -18.4784  -22.9089   22.4878 C   0  0  0  0  0  0  0  0  0  0  0  0
  -21.0471  -18.0939   18.2055 C   0  0  0  0  0  0  0  0  0  0  0  0
  -19.4195  -19.9682   18.5313 C   0  0  0  0  0  0  0  0  0  0  0  0
  -19.0436  -17.7803   19.6692 C   0  0  0  0  0  0  0  0  0  0  0  0
  -20.6764  -20.8302   24.7951 C   0  0  0  0  0  0  0  0  0  0  0  0
  -29.3290  -21.9295   20.6843 C   0  0  2  0  0  0  0  0  0  1  0  0
  -20.8934  -19.2993   20.4835 C   0  0  1  0  0  0  0  0  0  0  0  0
  -19.2353  -21.6680   22.9350 C   0  0  2  0  0  0  0  0  0  0  0  0
  -20.1281  -18.7883   19.2303 C   0  0  0  0  0  0  0  0  0  0  0  0
  -23.0976  -28.2847   23.1497 N   0  0  0  0  0  0  0  0  0  0  0  0
  -29.9226  -22.3669   18.3031 N   0  0  0  0  0  0  0  0  0  0  0  0
  -24.1994  -27.8222   23.7646 N   0  0  0  0  0  0  0  0  0  0  0  0
  -23.0207  -18.3358   21.3022 N   0  0  0  0  0  0  0  0  0  0  0  0
  -27.2409  -29.1627   21.8843 N   0  0  0  0  0  0  0  0  0  0  0  0
  -24.9728  -26.1392   25.2411 N   0  0  0  0  0  0  0  0  0  0  0  0
  -20.5575  -25.2606   24.8808 N   0  0  0  0  0  0  0  0  0  0  0  0
  -28.3367  -27.2385   21.0726 N   0  0  0  0  0  0  0  0  0  0  0  0
  -25.0138  -15.3075   20.9106 N   0  0  0  0  0  0  0  0  0  0  0  0
  -20.0440  -19.9372   21.4835 N   0  0  0  0  0  0  0  0  0  0  0  0
  -19.9127  -21.9709   24.2274 N   0  3  0  0  0  0  0  0  0  0  0  0
  -22.5136  -24.5939   25.8747 O   0  0  0  0  0  0  0  0  0  0  0  0
  -24.0453  -16.8669   19.4778 O   0  0  0  0  0  0  0  0  0  0  0  0
  -28.4954  -20.5580   18.1144 O   0  0  0  0  0  0  0  0  0  0  0  0
  -20.9935  -17.2396   21.6557 O   0  0  0  0  0  0  0  0  0  0  0  0
  -21.1419  -21.9797   21.4840 O   0  0  0  0  0  0  0  0  0  0  0  0
  -29.4684  -29.2536   21.2728 O   0  0  0  0  0  0  0  0  0  0  0  0
  -16.8723  -28.1061   21.8219 O   0  0  0  0  0  0  0  0  0  0  0  0
  -27.9105  -22.0566   20.7553 O   0  0  0  0  0  0  0  0  0  1  0  0
  -14.1245  -23.6075   20.2046 F   0  0  0  0  0  0  0  0  0  0  0  0
  -16.4460  -26.0019   23.5635 F   0  0  0  0  0  0  0  0  0  0  0  0
  -29.8627  -22.3404   21.8677 F   0  0  0  0  0  0  0  0  0  0  0  0
  1  2  1  0  0  0  0
  1  5  2  0  0  0  0
  2  6  2  0  0  0  0
  3  8  2  0  0  0  0
  3 17  1  0  0  0  0
  4  9  1  0  0  0  0
  4 17  2  0  0  0  0
  5 20  1  0  0  0  0
  6 22  1  0  0  0  0
  7 10  2  0  0  0  0
  7 21  1  0  0  0  0
  8 27  1  0  0  0  0
  9 27  2  0  0  0  0
 10 28  1  0  0  0  0
 11 12  2  0  0  0  0
 11 29  1  0  0  0  0
 12 30  1  0  0  0  0
 13 18  1  0  0  0  0
 13 26  2  0  0  0  0
 14 23  1  0  0  0  0
 14 28  2  0  0  0  0
 15 24  2  0  0  0  0
 15 26  1  0  0  0  0
 16 30  2  0  0  0  0
 16 31  1  0  0  0  0
 17 32  1  0  0  0  0
 18 25  2  0  0  0  0
 18 34  1  0  0  0  0
 19 32  1  0  0  0  0
 19 33  2  0  0  0  0
 19 35  1  0  0  0  0
 20 22  2  0  0  0  0
 20 41  1  0  0  0  0
 21 23  2  0  0  0  0
 21 42  1  0  0  0  0
 22 50  1  0  0  0  0
 23 43  1  0  0  0  0
 24 25  1  0  0  0  0
 24 53  1  0  0  0  0
 25 54  1  0  0  0  0
 26 72  1  0  0  0  0
 27 82  1  0  0  0  0
 28 83  1  0  0  0  0
 29 31  2  0  0  0  0
 29 82  1  0  0  0  0
 30 84  1  0  0  0  0
 31 85  1  0  0  0  0
 32 65  2  0  0  0  0
 33 67  1  0  0  0  0
 33 70  1  0  0  0  0
 34 61  1  0  0  0  0
 34 66  2  0  0  0  0
 35 71  1  0  0  0  0
 35 76  2  0  0  0  0
 36 51  1  0  0  0  0
 36 73  1  0  0  0  0
 36 77  2  0  0  0  0
 37 55  1  0  0  0  0
 37 66  1  0  0  0  0
 37 78  2  0  0  0  0
 38 62  1  0  0  0  0
 38 68  1  0  0  0  0
 38 79  2  0  0  0  0
 39 63  1  0  0  0  0
 39 74  1  0  0  0  0
 39 80  2  0  0  0  0
 40 69  1  0  0  0  0
 40 72  1  0  0  0  0
 40 81  2  0  0  0  0
 41 44  1  0  0  0  0
 42 51  1  0  0  0  0
 43 68  1  0  0  0  0
 44 46  1  0  0  0  0
 45 47  1  0  0  0  0
 45 48  1  0  0  0  0
 46 50  1  0  0  0  0
 47 52  1  0  0  0  0
 48 69  1  0  0  0  0
 49 52  1  0  0  0  0
 49 69  1  0  0  0  0
 50 73  1  0  0  0  0
 51 68  1  0  0  0  0
 52 67  1  0  0  0  0
 56 63  1  0  0  0  0
 57 64  1  0  0  0  0
 58 64  1  0  0  0  0
 59 64  1  0  0  0  0
 60 75  1  0  0  0  0
 61 83  1  0  0  0  0
 61 86  1  0  0  0  0
 62 64  1  0  0  0  0
 62 74  1  0  0  0  0
 63 75  1  0  0  0  0
 65 67  1  0  0  0  0
M  CHG  1  75   1
M  ISO  4  40 100  61 101  72 100  83 101
M  END
> <Batch ID>
0056

> <Smiles>
CNC(C)C(=O)NC(C(=O)N1Cc2cc([101O:1][101CH:1](F)C(=NC(C)=O)c3cc([100NH:0][100C:0](=O)N4CCCC(n5nc(-c6ccc(Oc7ccc(F)cc7F)cc6)c(C(N)=O)c5N)C4)cc(C)c3C)ccc2CC1C(=O)NC1CCCc2ccccc21)C(C)(C)C

> <Shape>
0.215

> <Color>
0.060

> <Negative vol penalty>
0.000

$$$$

  -OEChem-04042322523D

 89 97  0     1  0  0  0  0  0999 V2000
  -21.1046  -34.2838   15.6901 C   0  0  0  0  0  0  0  0  0  0  0  0
  -21.9688  -33.1936   15.7066 C   0  0  0  0  0  0  0  0  0  0  0  0
  -24.4306   -8.7307   20.5070 C   0  0  0  0  0  0  0  0  0  0  0  0
  -23.0991  -10.7248   20.8034 C   0  0  0  0  0  0  0  0  0  0  0  0
  -21.1798  -35.2467   16.6956 C   0  0  0  0  0  0  0  0  0  0  0  0
  -22.9094  -33.0664   16.7281 C   0  0  0  0  0  0  0  0  0  0  0  0
  -24.8834  -27.8648   19.2879 C   0  0  0  0  0  0  0  0  0  0  0  0
  -23.3623   -7.9514   20.9509 C   0  0  0  0  0  0  0  0  0  0  0  0
  -22.0308   -9.9455   21.2473 C   0  0  0  0  0  0  0  0  0  0  0  0
  -26.0238  -27.0904   19.0791 C   0  0  0  0  0  0  0  0  0  0  0  0
  -21.9513   -7.1111   23.9051 C   0  0  0  0  0  0  0  0  0  0  0  0
  -22.2262   -6.1001   24.8259 C   0  0  0  0  0  0  0  0  0  0  0  0
  -27.1071  -28.1982   20.9280 C   0  0  0  0  0  0  0  0  0  0  0  0
  -31.6102  -17.6962   22.1853 C   0  0  0  0  0  0  0  0  0  0  0  0
  -31.4903  -19.8698   21.1375 C   0  0  0  0  0  0  0  0  0  0  0  0
  -21.3815   -4.4546   23.2715 C   0  0  0  0  0  0  0  0  0  0  0  0
  -24.2990  -10.1174   20.4333 C   0  0  0  0  0  0  0  0  0  0  0  0
  -25.6821  -11.3071   18.6502 C   0  0  0  0  0  0  0  0  0  0  0  0
  -22.1154  -35.1262   17.7352 C   0  0  0  0  0  0  0  0  0  0  0  0
  -24.8501  -28.8208   20.3131 C   0  0  0  0  0  0  0  0  0  0  0  0
  -22.9981  -34.0293   17.7477 C   0  0  0  0  0  0  0  0  0  0  0  0
  -25.9641  -28.9815   21.1494 C   0  0  0  0  0  0  0  0  0  0  0  0
  -32.0073  -18.5749   21.1774 C   0  0  0  0  0  0  0  0  0  0  0  0
  -30.6961  -18.1124   23.1533 C   0  0  0  0  0  0  0  0  0  0  0  0
  -30.1792  -19.4073   23.1134 C   0  0  0  0  0  0  0  0  0  0  0  0
  -30.5762  -20.2860   22.1055 C   0  0  0  0  0  0  0  0  0  0  0  0
  -22.1624   -8.5587   21.3210 C   0  0  0  0  0  0  0  0  0  0  0  0
  -27.1369  -27.2591   19.8973 C   0  0  0  0  0  0  0  0  0  0  0  0
  -21.3914   -6.7938   22.6675 C   0  0  0  0  0  0  0  0  0  0  0  0
  -21.9414   -4.7719   24.5091 C   0  0  0  0  0  0  0  0  0  0  0  0
  -21.1065   -5.4656   22.3507 C   0  0  0  0  0  0  0  0  0  0  0  0
  -25.4024  -10.9230   19.9754 C   0  0  0  0  0  0  0  0  0  0  0  0
  -26.8277  -12.0588   18.7451 C   0  0  0  0  0  0  0  0  0  0  0  0
  -29.6179  -23.8454   21.3951 C   0  0  0  0  0  0  0  0  0  0  0  0
  -29.7671  -24.9188   20.6066 C   0  0  0  0  0  0  0  0  0  0  0  0
  -24.9701  -11.0108   17.4415 C   0  0  0  0  0  0  0  0  0  0  0  0
  -30.3666  -22.5853   21.1101 C   0  0  0  0  0  0  0  0  0  0  0  0
  -24.5088  -31.9791   20.4249 C   0  0  0  0  0  0  0  0  0  0  0  0
  -24.4467  -31.4684   23.6276 C   0  0  0  0  0  0  0  0  0  0  0  0
  -25.2967  -29.4692   26.2596 C   0  0  0  0  0  0  0  0  0  0  0  0
  -29.0795  -15.2550   23.1688 C   0  0  0  0  0  0  0  0  0  0  0  0
  -22.1908  -36.2169   18.7740 C   0  0  0  0  0  0  0  0  0  0  0  0
  -23.6027  -29.6294   20.5423 C   0  0  0  0  0  0  0  0  0  0  0  0
  -25.9719  -29.9801   22.2769 C   0  0  0  0  0  0  0  0  0  0  0  0
  -22.9647  -35.8130   20.0263 C   0  0  0  0  0  0  0  0  0  0  0  0
  -30.7616  -12.5678   21.4233 C   0  0  0  0  0  0  0  0  0  0  0  0
  -24.2744  -35.1291   19.6470 C   0  0  0  0  0  0  0  0  0  0  0  0
  -29.5886  -11.8775   20.7250 C   0  0  0  0  0  0  0  0  0  0  0  0
  -30.3655  -13.0616   22.8116 C   0  0  0  0  0  0  0  0  0  0  0  0
  -28.0063  -13.2761   22.1322 C   0  0  0  0  0  0  0  0  0  0  0  0
  -24.0153  -33.8433   18.8525 C   0  0  1  0  0  0  0  0  0  0  0  0
  -23.8646  -30.9331   21.2901 C   0  0  1  0  0  0  0  0  0  0  0  0
  -28.3363  -12.7741   20.7147 C   0  0  2  0  0  0  0  0  0  0  0  0
  -32.9835  -18.1294   20.1417 C   0  0  0  0  0  0  0  0  0  0  0  0
  -27.8316  -20.2151   23.5492 C   0  0  0  0  0  0  0  0  0  0  0  0
  -29.7306  -21.0178   24.9999 C   0  0  0  0  0  0  0  0  0  0  0  0
  -31.1829  -17.2256   25.4637 C   0  0  0  0  0  0  0  0  0  0  0  0
  -25.1432  -29.3340   28.7607 C   0  0  0  0  0  0  0  0  0  0  0  0
  -26.6804  -33.5323   23.8738 C   0  0  0  0  0  0  0  0  0  0  0  0
  -27.1250  -32.6731   26.1830 C   0  0  0  0  0  0  0  0  0  0  0  0
  -24.9141  -33.6913   25.6371 C   0  0  0  0  0  0  0  0  0  0  0  0
  -23.7161  -26.9697   26.1435 C   0  0  0  0  0  0  0  0  0  0  0  0
  -29.0531  -26.2113   20.8388 C   0  0  0  0  0  0  0  0  0  1  0  0
  -29.1979  -19.8485   24.1538 C   0  0  0  0  0  0  0  0  0  0  0  0
  -30.2862  -17.1510   24.2205 C   0  0  2  0  0  0  0  0  0  0  0  0
  -25.4862  -31.4056   24.7206 C   0  0  1  0  0  0  0  0  0  0  0  0
  -24.4890  -28.9600   27.4398 C   0  0  2  0  0  0  0  0  0  0  0  0
  -26.0523  -32.8081   25.0813 C   0  0  0  0  0  0  0  0  0  0  0  0
  -26.2981  -11.3920   20.8481 N   0  0  0  0  0  0  0  0  0  0  0  0
  -27.1520  -12.0784   20.0697 N   0  0  0  0  0  0  0  0  0  0  0  0
  -24.7307  -30.7513   22.4567 N   0  0  0  0  0  0  0  0  0  0  0  0
  -29.1785  -13.9244   22.7296 N   0  0  0  0  0  0  0  0  0  0  0  0
  -27.5791  -12.6984   17.8239 N   0  0  0  0  0  0  0  0  0  0  0  0
  -23.8125  -10.2248   17.5235 N   0  0  0  0  0  0  0  0  0  0  0  0
  -30.0646  -21.6057   22.0469 N   0  0  0  0  0  0  0  0  0  0  0  0
  -23.6100  -32.7741   19.7396 N   0  0  0  0  0  0  0  0  0  0  0  0
  -24.8610  -30.7079   25.8389 N   0  0  0  0  0  0  0  0  0  0  0  0
  -30.2321  -15.7922   23.7288 N   0  0  0  0  0  0  0  0  0  0  0  0
  -24.3644  -27.4761   27.3806 N   0  3  0  0  0  0  0  0  0  0  0  0
  -25.3582  -11.4169   16.3199 O   0  0  0  0  0  0  0  0  0  0  0  0
  -31.1304  -22.5010   20.1557 O   0  0  0  0  0  0  0  0  0  0  0  0
  -25.7309  -32.0600   20.3833 O   0  0  0  0  0  0  0  0  0  0  0  0
  -23.4173  -32.1234   23.8090 O   0  0  0  0  0  0  0  0  0  0  0  0
  -26.2241  -28.8334   25.7632 O   0  0  0  0  0  0  0  0  0  0  0  0
  -28.0417  -15.9177   23.0646 O   0  0  0  0  0  0  0  0  0  0  0  0
  -21.1197   -7.7986   21.7540 O   0  0  0  0  0  0  0  0  0  0  0  0
  -28.2516  -26.5051   19.6953 O   0  0  0  0  0  0  0  0  0  1  0  0
  -22.2069   -3.8010   25.3929 F   0  0  0  0  0  0  0  0  0  0  0  0
  -20.5697   -5.1546   21.1629 F   0  0  0  0  0  0  0  0  0  0  0  0
  1  2  1  0  0  0  0
  1  5  2  0  0  0  0
  2  6  2  0  0  0  0
  3  8  2  0  0  0  0
  3 17  1  0  0  0  0
  4  9  1  0  0  0  0
  4 17  2  0  0  0  0
  5 19  1  0  0  0  0
  6 21  1  0  0  0  0
  7 10  2  0  0  0  0
  7 20  1  0  0  0  0
  8 27  1  0  0  0  0
  9 27  2  0  0  0  0
 10 28  1  0  0  0  0
 11 12  2  0  0  0  0
 11 29  1  0  0  0  0
 12 30  1  0  0  0  0
 13 22  1  0  0  0  0
 13 28  2  0  0  0  0
 14 23  1  0  0  0  0
 14 24  2  0  0  0  0
 15 23  2  0  0  0  0
 15 26  1  0  0  0  0
 16 30  2  0  0  0  0
 16 31  1  0  0  0  0
 17 32  1  0  0  0  0
 18 32  1  0  0  0  0
 18 33  2  0  0  0  0
 18 36  1  0  0  0  0
 19 21  2  0  0  0  0
 19 42  1  0  0  0  0
 20 22  2  0  0  0  0
 20 43  1  0  0  0  0
 21 51  1  0  0  0  0
 22 44  1  0  0  0  0
 23 54  1  0  0  0  0
 24 25  1  0  0  0  0
 24 65  1  0  0  0  0
 25 26  2  0  0  0  0
 25 64  1  0  0  0  0
 26 75  1  0  0  0  0
 27 86  1  0  0  0  0
 28 87  1  0  0  0  0
 29 31  2  0  0  0  0
 29 86  1  0  0  0  0
 30 88  1  0  0  0  0
 31 89  1  0  0  0  0
 32 69  2  0  0  0  0
 33 70  1  0  0  0  0
 33 73  1  0  0  0  0
 34 35  2  0  0  0  0
 34 37  1  0  0  0  0
 35 63  1  0  0  0  0
 36 74  1  0  0  0  0
 36 80  2  0  0  0  0
 37 75  1  0  0  0  0
 37 81  2  0  0  0  0
 38 52  1  0  0  0  0
 38 76  1  0  0  0  0
 38 82  2  0  0  0  0
 39 66  1  0  0  0  0
 39 71  1  0  0  0  0
 39 83  2  0  0  0  0
 40 67  1  0  0  0  0
 40 77  1  0  0  0  0
 40 84  2  0  0  0  0
 41 72  1  0  0  0  0
 41 78  1  0  0  0  0
 41 85  2  0  0  0  0
 42 45  1  0  0  0  0
 43 52  1  0  0  0  0
 44 71  1  0  0  0  0
 45 47  1  0  0  0  0
 46 48  1  0  0  0  0
 46 49  1  0  0  0  0
 47 51  1  0  0  0  0
 48 53  1  0  0  0  0
 49 72  1  0  0  0  0
 50 53  1  0  0  0  0
 50 72  1  0  0  0  0
 51 76  1  0  0  0  0
 52 71  1  0  0  0  0
 53 70  1  0  0  0  0
 55 64  1  0  0  0  0
 56 64  1  0  0  0  0
 57 65  1  0  0  0  0
 58 67  1  0  0  0  0
 59 68  1  0  0  0  0
 60 68  1  0  0  0  0
 61 68  1  0  0  0  0
 62 79  1  0  0  0  0
 63 87  1  0  0  0  0
 65 78  1  0  0  0  0
 66 68  1  0  0  0  0
 66 77  1  0  0  0  0
 67 79  1  0  0  0  0
 69 70  1  0  0  0  0
M  CHG  1  79   1
M  ISO  4  41 100  63 101  78 100  87 101
M  END
> <Batch ID>
0056

> <Smiles>
CNC(C)C(=O)NC(C(=O)N1Cc2cc([101O:1][101CH2:1]C=CC(=O)Nc3cc(C)cc(C(C)[100NH:0][100C:0](=O)N4CCCC(n5nc(-c6ccc(Oc7ccc(F)cc7F)cc6)c(C(N)=O)c5N)C4)c3C(C)C)ccc2CC1C(=O)NC1CCCc2ccccc21)C(C)(C)C

> <Shape>
0.271

> <Color>
0.125

> <Negative vol penalty>
0.000

$$$$

  -OEChem-04042322523D

 87 95  0     1  0  0  0  0  0999 V2000
  -29.8878  -25.1463   16.8710 C   0  0  0  0  0  0  0  0  0  0  0  0
  -28.8011  -25.0192   17.7304 C   0  0  0  0  0  0  0  0  0  0  0  0
  -28.2432  -23.1702   22.7200 C   0  0  0  0  0  0  0  0  0  0  0  0
  -25.0436  -11.0514   20.4914 C   0  0  0  0  0  0  0  0  0  0  0  0
  -25.4181  -11.8030   22.7568 C   0  0  0  0  0  0  0  0  0  0  0  0
  -27.0312  -23.5314   23.3082 C   0  0  0  0  0  0  0  0  0  0  0  0
  -30.8843  -26.0827   17.1430 C   0  0  0  0  0  0  0  0  0  0  0  0
  -28.7110  -25.8278   18.8628 C   0  0  0  0  0  0  0  0  0  0  0  0
  -24.0714  -27.7507   19.5126 C   0  0  0  0  0  0  0  0  0  0  0  0
  -28.3349  -21.9923   21.9783 C   0  0  0  0  0  0  0  0  0  0  0  0
  -25.0585   -9.7269   20.9283 C   0  0  0  0  0  0  0  0  0  0  0  0
  -25.4329  -10.4784   23.1938 C   0  0  0  0  0  0  0  0  0  0  0  0
  -23.1009  -26.9050   20.0480 C   0  0  0  0  0  0  0  0  0  0  0  0
  -24.6376   -6.1619   21.5021 C   0  0  0  0  0  0  0  0  0  0  0  0
  -23.6475   -5.3078   21.0167 C   0  0  0  0  0  0  0  0  0  0  0  0
  -23.4218  -27.9177   22.2138 C   0  0  0  0  0  0  0  0  0  0  0  0
  -21.9483   -6.7309   21.9783 C   0  0  0  0  0  0  0  0  0  0  0  0
  -25.2235  -12.0895   21.4056 C   0  0  0  0  0  0  0  0  0  0  0  0
  -25.9108  -22.7148   23.1550 C   0  0  0  0  0  0  0  0  0  0  0  0
  -24.0917  -14.3089   20.8573 C   0  0  0  0  0  0  0  0  0  0  0  0
  -30.8015  -26.9098   18.2742 C   0  0  0  0  0  0  0  0  0  0  0  0
  -24.7333  -28.6804   20.3275 C   0  0  0  0  0  0  0  0  0  0  0  0
  -29.7080  -26.7752   19.1509 C   0  0  0  0  0  0  0  0  0  0  0  0
  -24.3985  -28.7758   21.6857 C   0  0  0  0  0  0  0  0  0  0  0  0
  -26.0024  -21.5369   22.4134 C   0  0  0  0  0  0  0  0  0  0  0  0
  -27.2145  -21.1757   21.8251 C   0  0  0  0  0  0  0  0  0  0  0  0
  -25.2530   -9.4403   22.2795 C   0  0  0  0  0  0  0  0  0  0  0  0
  -22.7780  -26.9864   21.3994 C   0  0  0  0  0  0  0  0  0  0  0  0
  -24.2832   -7.3006   22.2257 C   0  0  0  0  0  0  0  0  0  0  0  0
  -22.3028   -5.5923   21.2548 C   0  0  0  0  0  0  0  0  0  0  0  0
  -22.9385   -7.5851   22.4638 C   0  0  0  0  0  0  0  0  0  0  0  0
  -25.2089  -13.4579   20.9547 C   0  0  0  0  0  0  0  0  0  0  0  0
  -24.6018  -15.4920   20.3813 C   0  0  0  0  0  0  0  0  0  0  0  0
  -24.6389  -23.1185   23.7873 C   0  0  0  0  0  0  0  0  0  0  0  0
  -22.7159  -14.0529   21.1691 C   0  0  0  0  0  0  0  0  0  0  0  0
  -27.7535  -29.1474   21.2017 C   0  0  0  0  0  0  0  0  0  0  0  0
  -26.5342  -31.8220   22.5736 C   0  0  0  0  0  0  0  0  0  0  0  0
  -23.8199  -33.4321   23.8724 C   0  0  0  0  0  0  0  0  0  0  0  0
  -28.4693  -19.4975   20.4268 C   0  0  0  0  0  0  0  0  0  0  0  0
  -31.9269  -27.8746   18.5521 C   0  0  0  0  0  0  0  0  0  0  0  0
  -25.7587  -29.6038   19.7290 C   0  0  0  0  0  0  0  0  0  0  0  0
  -25.0654  -29.7707   22.5989 C   0  0  0  0  0  0  0  0  0  0  0  0
  -31.5676  -28.9523   19.5718 C   0  0  0  0  0  0  0  0  0  0  0  0
  -29.1702  -16.5884   18.4973 C   0  0  0  0  0  0  0  0  0  0  0  0
  -30.8747  -28.3328   20.7814 C   0  0  0  0  0  0  0  0  0  0  0  0
  -28.1102  -15.5846   18.9566 C   0  0  0  0  0  0  0  0  0  0  0  0
  -29.6627  -17.4607   19.6506 C   0  0  0  0  0  0  0  0  0  0  0  0
  -27.5458  -17.1379   20.8685 C   0  0  0  0  0  0  0  0  0  0  0  0
  -29.5621  -27.6513   20.3762 C   0  0  1  0  0  0  0  0  0  0  0  0
  -26.7356  -30.1606   20.7601 C   0  0  1  0  0  0  0  0  0  0  0  0
  -26.9721  -16.2805   19.7286 C   0  0  2  0  0  0  0  0  0  0  0  0
  -24.7988  -20.6616   22.2536 C   0  0  0  0  0  0  0  0  0  0  0  0
  -20.6071  -21.2806   22.4408 C   0  0  0  0  0  0  0  0  0  0  0  0
  -23.1418  -35.5940   24.9513 C   0  0  0  0  0  0  0  0  0  0  0  0
  -27.8324  -30.9234   25.1845 C   0  0  0  0  0  0  0  0  0  0  0  0
  -26.3671  -32.5542   26.3933 C   0  0  0  0  0  0  0  0  0  0  0  0
  -28.0209  -33.3725   24.7146 C   0  0  0  0  0  0  0  0  0  0  0  0
  -19.8848  -24.2455   22.9625 C   0  0  0  0  0  0  0  0  0  0  0  0
  -21.9143  -34.0551   21.6954 C   0  0  0  0  0  0  0  0  0  0  0  0
  -21.0806  -22.4625   21.6033 C   0  0  0  0  0  0  0  0  0  0  0  0
  -22.2612  -23.7237   23.5108 C   0  0  0  0  0  0  0  0  0  0  0  0
  -21.6806  -24.8780   21.3198 C   0  0  0  0  0  0  0  0  0  1  0  0
  -25.9486  -32.1592   23.9235 C   0  0  1  0  0  0  0  0  0  0  0  0
  -23.2726  -34.8294   23.6432 C   0  0  2  0  0  0  0  0  0  0  0  0
  -27.0309  -32.2321   25.0375 C   0  0  0  0  0  0  0  0  0  0  0  0
  -21.2378  -23.8136   22.3574 C   0  0  2  0  0  0  0  0  0  0  0  0
  -26.3431  -14.0500   20.5713 N   0  0  0  0  0  0  0  0  0  0  0  0
  -25.9413  -15.2857   20.2283 N   0  0  0  0  0  0  0  0  0  0  0  0
  -26.0659  -30.6474   21.9679 N   0  0  0  0  0  0  0  0  0  0  0  0
  -28.5303  -18.0910   20.3326 N   0  0  0  0  0  0  0  0  0  0  0  0
  -24.0308  -16.6783   20.0829 N   0  0  0  0  0  0  0  0  0  0  0  0
  -24.6140  -23.2622   25.1124 N   0  0  0  0  0  0  0  0  0  0  0  0
  -22.3643  -12.7834   21.6476 N   0  0  0  0  0  0  0  0  0  0  0  0
  -27.3304  -19.9836   21.0680 N   0  0  0  0  0  0  0  0  0  0  0  0
  -28.5224  -28.6373   20.1731 N   0  0  0  0  0  0  0  0  0  0  0  0
  -25.1922  -33.3936   23.7436 N   0  0  0  0  0  0  0  0  0  0  0  0
  -23.5739  -23.3181   23.0020 N   0  3  0  0  0  0  0  0  0  0  0  0
  -21.9288  -34.7608   23.0026 N   0  3  0  0  0  0  0  0  0  0  0  0
  -21.8222  -14.9190   21.0121 O   0  0  0  0  0  0  0  0  0  0  0  0
  -27.8362  -28.8515   22.3879 O   0  0  0  0  0  0  0  0  0  0  0  0
  -27.3708  -32.5768   22.0716 O   0  0  0  0  0  0  0  0  0  0  0  0
  -23.1022  -32.4717   24.1427 O   0  0  0  0  0  0  0  0  0  0  0  0
  -29.3484  -20.2186   19.9481 O   0  0  0  0  0  0  0  0  0  0  0  0
  -25.2673   -8.1480   22.7063 O   0  0  0  0  0  0  0  0  0  0  0  0
  -21.8316  -26.1616   21.9246 O   0  0  0  0  0  0  0  0  0  1  0  0
  -21.3520   -4.7728   20.7872 F   0  0  0  0  0  0  0  0  0  0  0  0
  -22.5918   -8.6781   23.1573 F   0  0  0  0  0  0  0  0  0  0  0  0
  1  2  1  0  0  0  0
  1  7  2  0  0  0  0
  2  8  2  0  0  0  0
  3  6  2  0  0  0  0
  3 10  1  0  0  0  0
  4 11  2  0  0  0  0
  4 18  1  0  0  0  0
  5 12  1  0  0  0  0
  5 18  2  0  0  0  0
  6 19  1  0  0  0  0
  7 21  1  0  0  0  0
  8 23  1  0  0  0  0
  9 13  2  0  0  0  0
  9 22  1  0  0  0  0
 10 26  2  0  0  0  0
 11 27  1  0  0  0  0
 12 27  2  0  0  0  0
 13 28  1  0  0  0  0
 14 15  2  0  0  0  0
 14 29  1  0  0  0  0
 15 30  1  0  0  0  0
 16 24  1  0  0  0  0
 16 28  2  0  0  0  0
 17 30  2  0  0  0  0
 17 31  1  0  0  0  0
 18 32  1  0  0  0  0
 19 25  2  0  0  0  0
 19 34  1  0  0  0  0
 20 32  1  0  0  0  0
 20 33  2  0  0  0  0
 20 35  1  0  0  0  0
 21 23  2  0  0  0  0
 21 40  1  0  0  0  0
 22 24  2  0  0  0  0
 22 41  1  0  0  0  0
 23 49  1  0  0  0  0
 24 42  1  0  0  0  0
 25 26  1  0  0  0  0
 25 52  1  0  0  0  0
 26 74  1  0  0  0  0
 27 84  1  0  0  0  0
 28 85  1  0  0  0  0
 29 31  2  0  0  0  0
 29 84  1  0  0  0  0
 30 86  1  0  0  0  0
 31 87  1  0  0  0  0
 32 67  2  0  0  0  0
 33 68  1  0  0  0  0
 33 71  1  0  0  0  0
 34 72  1  0  0  0  0
 34 77  2  0  0  0  0
 35 73  1  0  0  0  0
 35 79  2  0  0  0  0
 36 50  1  0  0  0  0
 36 75  1  0  0  0  0
 36 80  2  0  0  0  0
 37 63  1  0  0  0  0
 37 69  1  0  0  0  0
 37 81  2  0  0  0  0
 38 64  1  0  0  0  0
 38 76  1  0  0  0  0
 38 82  2  0  0  0  0
 39 70  1  0  0  0  0
 39 74  1  0  0  0  0
 39 83  2  0  0  0  0
 40 43  1  0  0  0  0
 41 50  1  0  0  0  0
 42 69  1  0  0  0  0
 43 45  1  0  0  0  0
 44 46  1  0  0  0  0
 44 47  1  0  0  0  0
 45 49  1  0  0  0  0
 46 51  1  0  0  0  0
 47 70  1  0  0  0  0
 48 51  1  0  0  0  0
 48 70  1  0  0  0  0
 49 75  1  0  0  0  0
 50 69  1  0  0  0  0
 51 68  1  0  0  0  0
 53 60  1  0  0  0  0
 54 64  1  0  0  0  0
 55 65  1  0  0  0  0
 56 65  1  0  0  0  0
 57 65  1  0  0  0  0
 58 66  1  0  0  0  0
 59 78  1  0  0  0  0
 60 66  1  0  0  0  0
 61 66  1  0  0  0  0
 61 77  1  0  0  0  0
 62 66  1  0  0  0  0
 62 85  1  0  0  0  0
 63 65  1  0  0  0  0
 63 76  1  0  0  0  0
 64 78  1  0  0  0  0
 67 68  1  0  0  0  0
M  CHG  2  77   1  78   1
M  ISO  4  39 100  62 101  74 100  85 101
M  END
> <Batch ID>
0056

> <Smiles>
CCC(C)(CNC(=N)c1cccc([100NH:0][100C:0](=O)N2CCCC(n3nc(-c4ccc(Oc5ccc(F)cc5F)cc4)c(C(N)=O)c3N)C2)c1C)[101CH2:1][101O:1]c1ccc2c(c1)CN(C(=O)C(NC(=O)C(C)NC)C(C)(C)C)C(C(=O)NC1CCCc3ccccc31)C2

> <Shape>
0.291

> <Color>
0.082

> <Negative vol penalty>
0.000

$$$$

  -OEChem-04042322523D

 85 93  0     1  0  0  0  0  0999 V2000
  -28.7219  -24.8990   17.2261 C   0  0  0  0  0  0  0  0  0  0  0  0
  -27.5273  -25.0261   17.9276 C   0  0  0  0  0  0  0  0  0  0  0  0
  -30.7191  -17.9372   20.8186 C   0  0  0  0  0  0  0  0  0  0  0  0
  -28.4526  -17.4370   20.1478 C   0  0  0  0  0  0  0  0  0  0  0  0
  -29.8696  -25.5453   17.6832 C   0  0  0  0  0  0  0  0  0  0  0  0
  -27.4801  -25.7988   19.0875 C   0  0  0  0  0  0  0  0  0  0  0  0
  -23.4131  -28.8119   19.2502 C   0  0  0  0  0  0  0  0  0  0  0  0
  -21.7579  -21.3086   26.4918 C   0  0  0  0  0  0  0  0  0  0  0  0
  -31.1620  -16.7735   20.1898 C   0  0  0  0  0  0  0  0  0  0  0  0
  -28.8955  -16.2734   19.5189 C   0  0  0  0  0  0  0  0  0  0  0  0
  -22.1987  -28.2238   19.6011 C   0  0  0  0  0  0  0  0  0  0  0  0
  -29.7961  -13.1420   20.4214 C   0  0  0  0  0  0  0  0  0  0  0  0
  -20.3631  -21.3121   26.4835 C   0  0  0  0  0  0  0  0  0  0  0  0
  -29.0627  -11.9739   20.6290 C   0  0  0  0  0  0  0  0  0  0  0  0
  -21.7733  -21.8152   24.1296 C   0  0  0  0  0  0  0  0  0  0  0  0
  -22.4500  -29.0609   21.8496 C   0  0  0  0  0  0  0  0  0  0  0  0
  -28.6436  -11.8150   18.2549 C   0  0  0  0  0  0  0  0  0  0  0  0
  -29.3644  -18.2689   20.7976 C   0  0  0  0  0  0  0  0  0  0  0  0
  -20.3785  -21.8187   24.1212 C   0  0  0  0  0  0  0  0  0  0  0  0
  -28.7910  -20.7533   20.8793 C   0  0  0  0  0  0  0  0  0  0  0  0
  -29.8341  -26.3341   18.8438 C   0  0  0  0  0  0  0  0  0  0  0  0
  -24.1616  -29.5208   20.2008 C   0  0  0  0  0  0  0  0  0  0  0  0
  -28.6287  -26.4551   19.5613 C   0  0  0  0  0  0  0  0  0  0  0  0
  -23.6724  -29.6591   21.5075 C   0  0  0  0  0  0  0  0  0  0  0  0
  -22.4630  -21.5602   25.3149 C   0  0  0  0  0  0  0  0  0  0  0  0
  -30.2503  -15.9417   19.5399 C   0  0  0  0  0  0  0  0  0  0  0  0
  -21.7183  -28.3458   20.9017 C   0  0  0  0  0  0  0  0  0  0  0  0
  -29.9531  -13.6468   19.1306 C   0  0  0  0  0  0  0  0  0  0  0  0
  -28.4865  -11.3103   19.5458 C   0  0  0  0  0  0  0  0  0  0  0  0
  -19.6734  -21.5671   25.2982 C   0  0  0  0  0  0  0  0  0  0  0  0
  -29.3769  -12.9833   18.0474 C   0  0  0  0  0  0  0  0  0  0  0  0
  -28.9061  -19.4705   21.4475 C   0  0  0  0  0  0  0  0  0  0  0  0
  -28.3146  -21.5394   21.8998 C   0  0  0  0  0  0  0  0  0  0  0  0
  -19.6507  -22.0882   22.8649 C   0  0  0  0  0  0  0  0  0  0  0  0
  -29.0882  -21.1948   19.5479 C   0  0  0  0  0  0  0  0  0  0  0  0
  -27.0492  -29.1849   21.4865 C   0  0  0  0  0  0  0  0  0  0  0  0
  -26.3449  -32.0407   22.8542 C   0  0  0  0  0  0  0  0  0  0  0  0
  -23.9555  -34.2467   23.8891 C   0  0  0  0  0  0  0  0  0  0  0  0
  -24.7173  -21.3192   26.4133 C   0  0  0  0  0  0  0  0  0  0  0  0
  -31.1116  -26.9751   19.3252 C   0  0  0  0  0  0  0  0  0  0  0  0
  -25.4568  -30.1719   19.7994 C   0  0  0  0  0  0  0  0  0  0  0  0
  -24.4279  -30.4270   22.5600 C   0  0  0  0  0  0  0  0  0  0  0  0
  -30.8885  -28.0792   20.3555 C   0  0  0  0  0  0  0  0  0  0  0  0
  -28.2501  -21.1827   26.8346 C   0  0  0  0  0  0  0  0  0  0  0  0
  -29.9008  -27.6208   21.4238 C   0  0  0  0  0  0  0  0  0  0  0  0
  -28.7699  -20.8528   25.4335 C   0  0  0  0  0  0  0  0  0  0  0  0
  -26.9360  -20.4644   27.1357 C   0  0  0  0  0  0  0  0  0  0  0  0
  -26.3977  -20.3310   24.7354 C   0  0  0  0  0  0  0  0  0  0  0  0
  -28.5316  -27.3046   20.8099 C   0  0  1  0  0  0  0  0  0  0  0  0
  -26.3850  -30.4344   20.9813 C   0  0  1  0  0  0  0  0  0  0  0  0
  -27.6860  -21.0821   24.3619 C   0  0  2  0  0  0  0  0  0  0  0  0
  -23.6853  -36.4782   25.0047 C   0  0  0  0  0  0  0  0  0  0  0  0
  -27.0000  -30.7697   25.5497 C   0  0  0  0  0  0  0  0  0  0  0  0
  -25.8258  -32.6829   26.6585 C   0  0  0  0  0  0  0  0  0  0  0  0
  -27.8500  -33.1042   25.2630 C   0  0  0  0  0  0  0  0  0  0  0  0
  -22.5890  -35.3922   21.5269 C   0  0  0  0  0  0  0  0  0  0  0  0
  -18.8830  -24.4169   20.7406 C   0  0  0  0  0  0  0  0  0  0  0  0
  -19.2917  -25.7105   21.4447 C   0  0  0  0  0  0  0  0  0  0  0  0
  -18.0499  -23.5095   21.6345 C   0  0  0  0  0  0  0  0  0  0  0  0
  -20.1581  -26.5861   20.5483 C   0  0  0  0  0  0  0  0  0  1  0  0
  -25.6759  -32.4765   24.1354 C   0  0  1  0  0  0  0  0  0  0  0  0
  -23.8071  -35.7428   23.6791 C   0  0  2  0  0  0  0  0  0  0  0  0
  -26.5744  -32.2421   25.3825 C   0  0  0  0  0  0  0  0  0  0  0  0
  -28.5330  -19.4391   22.7296 N   0  0  0  0  0  0  0  0  0  0  0  0
  -28.1789  -20.7120   22.9755 N   0  0  0  0  0  0  0  0  0  0  0  0
  -25.6922  -31.0401   22.1204 N   0  0  0  0  0  0  0  0  0  0  0  0
  -25.9559  -20.7311   26.0806 N   0  0  0  0  0  0  0  0  0  0  0  0
  -28.0028  -22.8508   21.9730 N   0  0  0  0  0  0  0  0  0  0  0  0
  -19.8514  -21.2670   21.8342 N   0  0  0  0  0  0  0  0  0  0  0  0
  -29.5693  -20.2566   18.6246 N   0  0  0  0  0  0  0  0  0  0  0  0
  -23.8799  -21.5554   25.3235 N   0  0  0  0  0  0  0  0  0  0  0  0
  -27.8061  -28.5265   20.5362 N   0  0  0  0  0  0  0  0  0  0  0  0
  -25.2800  -33.8665   23.9369 N   0  0  0  0  0  0  0  0  0  0  0  0
  -18.8270  -23.1432   22.8190 N   0  3  0  0  0  0  0  0  0  0  0  0
  -22.5921  -36.0339   22.8668 N   0  3  0  0  0  0  0  0  0  0  0  0
  -28.9472  -22.3895   19.1924 O   0  0  0  0  0  0  0  0  0  0  0  0
  -26.8882  -28.8442   22.6525 O   0  0  0  0  0  0  0  0  0  0  0  0
  -27.4039  -32.5737   22.5133 O   0  0  0  0  0  0  0  0  0  0  0  0
  -22.9927  -33.4914   24.0032 O   0  0  0  0  0  0  0  0  0  0  0  0
  -24.4322  -21.6182   27.5757 O   0  0  0  0  0  0  0  0  0  0  0  0
  -30.6822  -14.8063   18.9260 O   0  0  0  0  0  0  0  0  0  0  0  0
  -20.5336  -27.7723   21.2471 O   0  0  0  0  0  0  0  0  0  1  0  0
  -27.7836  -10.1877   19.7452 F   0  0  0  0  0  0  0  0  0  0  0  0
  -18.3330  -21.5681   25.2998 F   0  0  0  0  0  0  0  0  0  0  0  0
  -29.5254  -13.4627   16.8048 F   0  0  0  0  0  0  0  0  0  0  0  0
  1  2  1  0  0  0  0
  1  5  2  0  0  0  0
  2  6  2  0  0  0  0
  3  9  2  0  0  0  0
  3 18  1  0  0  0  0
  4 10  1  0  0  0  0
  4 18  2  0  0  0  0
  5 21  1  0  0  0  0
  6 23  1  0  0  0  0
  7 11  2  0  0  0  0
  7 22  1  0  0  0  0
  8 13  2  0  0  0  0
  8 25  1  0  0  0  0
  9 26  1  0  0  0  0
 10 26  2  0  0  0  0
 11 27  1  0  0  0  0
 12 14  2  0  0  0  0
 12 28  1  0  0  0  0
 13 30  1  0  0  0  0
 14 29  1  0  0  0  0
 15 19  1  0  0  0  0
 15 25  2  0  0  0  0
 16 24  1  0  0  0  0
 16 27  2  0  0  0  0
 17 29  2  0  0  0  0
 17 31  1  0  0  0  0
 18 32  1  0  0  0  0
 19 30  2  0  0  0  0
 19 34  1  0  0  0  0
 20 32  1  0  0  0  0
 20 33  2  0  0  0  0
 20 35  1  0  0  0  0
 21 23  2  0  0  0  0
 21 40  1  0  0  0  0
 22 24  2  0  0  0  0
 22 41  1  0  0  0  0
 23 49  1  0  0  0  0
 24 42  1  0  0  0  0
 25 71  1  0  0  0  0
 26 81  1  0  0  0  0
 27 82  1  0  0  0  0
 28 31  2  0  0  0  0
 28 81  1  0  0  0  0
 29 83  1  0  0  0  0
 30 84  1  0  0  0  0
 31 85  1  0  0  0  0
 32 64  2  0  0  0  0
 33 65  1  0  0  0  0
 33 68  1  0  0  0  0
 34 69  1  0  0  0  0
 34 74  2  0  0  0  0
 35 70  1  0  0  0  0
 35 76  2  0  0  0  0
 36 50  1  0  0  0  0
 36 72  1  0  0  0  0
 36 77  2  0  0  0  0
 37 61  1  0  0  0  0
 37 66  1  0  0  0  0
 37 78  2  0  0  0  0
 38 62  1  0  0  0  0
 38 73  1  0  0  0  0
 38 79  2  0  0  0  0
 39 67  1  0  0  0  0
 39 71  1  0  0  0  0
 39 80  2  0  0  0  0
 40 43  1  0  0  0  0
 41 50  1  0  0  0  0
 42 66  1  0  0  0  0
 43 45  1  0  0  0  0
 44 46  1  0  0  0  0
 44 47  1  0  0  0  0
 45 49  1  0  0  0  0
 46 51  1  0  0  0  0
 47 67  1  0  0  0  0
 48 51  1  0  0  0  0
 48 67  1  0  0  0  0
 49 72  1  0  0  0  0
 50 66  1  0  0  0  0
 51 65  1  0  0  0  0
 52 62  1  0  0  0  0
 53 63  1  0  0  0  0
 54 63  1  0  0  0  0
 55 63  1  0  0  0  0
 56 75  1  0  0  0  0
 57 58  1  0  0  0  0
 57 59  1  0  0  0  0
 58 60  1  0  0  0  0
 59 74  1  0  0  0  0
 60 82  1  0  0  0  0
 61 63  1  0  0  0  0
 61 73  1  0  0  0  0
 62 75  1  0  0  0  0
 64 65  1  0  0  0  0
M  CHG  2  74   1  75   1
M  ISO  4  39 100  60 101  71 100  82 101
M  END
> <Batch ID>
0056

> <Smiles>
CNC(C)C(=O)NC(C(=O)N1Cc2cc([101O:1][101CH2:1]CCCNC(=N)c3cc([100NH:0][100C:0](=O)N4CCCC(n5nc(-c6ccc(Oc7ccc(F)cc7F)cc6)c(C(N)=O)c5N)C4)ccc3F)ccc2CC1C(=O)NC1CCCc2ccccc21)C(C)(C)C

> <Shape>
0.299

> <Color>
0.073

> <Negative vol penalty>
0.000

$$$$

  -OEChem-04042322523D

 88 96  0     1  0  0  0  0  0999 V2000
  -26.3479  -19.4768   14.0832 C   0  0  0  0  0  0  0  0  0  0  0  0
  -27.2544  -18.9146   14.9763 C   0  0  0  0  0  0  0  0  0  0  0  0
  -22.2857  -28.2873   20.8312 C   0  0  0  0  0  0  0  0  0  0  0  0
  -23.2393  -26.8823   22.5498 C   0  0  0  0  0  0  0  0  0  0  0  0
  -25.0466  -19.7584   14.4972 C   0  0  0  0  0  0  0  0  0  0  0  0
  -26.8604  -18.6347   16.2843 C   0  0  0  0  0  0  0  0  0  0  0  0
  -28.7093  -13.9452   19.7623 C   0  0  0  0  0  0  0  0  0  0  0  0
  -29.7867  -19.5876   19.1834 C   0  0  0  0  0  0  0  0  0  0  0  0
  -29.4348  -20.8427   18.6869 C   0  0  0  0  0  0  0  0  0  0  0  0
  -21.0220  -28.1238   21.3987 C   0  0  0  0  0  0  0  0  0  0  0  0
  -21.9756  -26.7188   23.1173 C   0  0  0  0  0  0  0  0  0  0  0  0
  -29.6742  -13.8432   20.7635 C   0  0  0  0  0  0  0  0  0  0  0  0
  -19.2857  -29.3763   24.0158 C   0  0  0  0  0  0  0  0  0  0  0  0
  -18.4884  -30.5115   24.1607 C   0  0  0  0  0  0  0  0  0  0  0  0
  -29.2948  -21.6959   20.9429 C   0  0  0  0  0  0  0  0  0  0  0  0
  -27.9661  -14.1727   22.4348 C   0  0  0  0  0  0  0  0  0  0  0  0
  -16.8029  -29.5078   22.7505 C   0  0  0  0  0  0  0  0  0  0  0  0
  -23.3943  -27.6665   21.4067 C   0  0  0  0  0  0  0  0  0  0  0  0
  -29.6466  -20.4408   21.4394 C   0  0  0  0  0  0  0  0  0  0  0  0
  -25.6423  -28.8372   21.1177 C   0  0  0  0  0  0  0  0  0  0  0  0
  -24.6336  -19.4728   15.8081 C   0  0  0  0  0  0  0  0  0  0  0  0
  -27.3650  -14.1730   20.0899 C   0  0  0  0  0  0  0  0  0  0  0  0
  -25.5527  -18.9139   16.7166 C   0  0  0  0  0  0  0  0  0  0  0  0
  -26.9857  -14.2747   21.4360 C   0  0  0  0  0  0  0  0  0  0  0  0
  -29.8925  -19.3866   20.5597 C   0  0  0  0  0  0  0  0  0  0  0  0
  -29.1889  -21.8969   19.5667 C   0  0  0  0  0  0  0  0  0  0  0  0
  -20.8670  -27.3396   22.5417 C   0  0  0  0  0  0  0  0  0  0  0  0
  -29.3031  -13.9599   22.0998 C   0  0  0  0  0  0  0  0  0  0  0  0
  -18.8417  -28.3067   23.2382 C   0  0  0  0  0  0  0  0  0  0  0  0
  -17.2470  -30.5773   23.5281 C   0  0  0  0  0  0  0  0  0  0  0  0
  -17.6002  -28.3725   22.6056 C   0  0  0  0  0  0  0  0  0  0  0  0
  -24.6998  -27.8345   20.8207 C   0  0  0  0  0  0  0  0  0  0  0  0
  -26.7094  -28.5586   20.2990 C   0  0  0  0  0  0  0  0  0  0  0  0
  -29.7529  -20.2546   22.9095 C   0  0  0  0  0  0  0  0  0  0  0  0
  -25.5605  -29.9232   22.0502 C   0  0  0  0  0  0  0  0  0  0  0  0
  -25.2709  -16.4877   19.4891 C   0  0  0  0  0  0  0  0  0  0  0  0
  -23.1981  -14.4548   20.9359 C   0  0  0  0  0  0  0  0  0  0  0  0
  -31.8452  -17.1988   24.3164 C   0  0  0  0  0  0  0  0  0  0  0  0
  -22.7202  -11.8573   23.0973 C   0  0  0  0  0  0  0  0  0  0  0  0
  -28.6787  -23.5385   17.7251 C   0  0  0  0  0  0  0  0  0  0  0  0
  -23.2305  -19.8385   16.2231 C   0  0  0  0  0  0  0  0  0  0  0  0
  -26.3322  -14.2539   18.9993 C   0  0  0  0  0  0  0  0  0  0  0  0
  -25.5526  -14.4992   21.8413 C   0  0  0  0  0  0  0  0  0  0  0  0
  -22.7835  -19.1654   17.5182 C   0  0  0  0  0  0  0  0  0  0  0  0
  -27.7695  -26.5611   16.0776 C   0  0  0  0  0  0  0  0  0  0  0  0
  -23.8703  -19.2802   18.5823 C   0  0  0  0  0  0  0  0  0  0  0  0
  -26.9701  -27.3246   17.1360 C   0  0  0  0  0  0  0  0  0  0  0  0
  -27.5082  -25.0575   16.1448 C   0  0  0  0  0  0  0  0  0  0  0  0
  -26.9014  -25.2158   18.5272 C   0  0  0  0  0  0  0  0  0  0  0  0
  -25.1558  -18.5729   18.1365 C   0  0  1  0  0  0  0  0  0  0  0  0
  -25.0713  -14.9998   19.4247 C   0  0  1  0  0  0  0  0  0  0  0  0
  -27.1814  -26.7275   18.5411 C   0  0  2  0  0  0  0  0  0  0  0  0
  -30.2710  -18.0324   21.0646 C   0  0  0  0  0  0  0  0  0  0  0  0
  -20.9106  -10.4406   24.1050 C   0  0  0  0  0  0  0  0  0  0  0  0
  -22.4402  -16.7509   22.7969 C   0  0  0  0  0  0  0  0  0  0  0  0
  -21.3895  -15.0712   24.3276 C   0  0  0  0  0  0  0  0  0  0  0  0
  -20.5123  -15.3653   22.0109 C   0  0  0  0  0  0  0  0  0  0  0  0
  -23.8417   -9.3837   21.9214 C   0  0  0  0  0  0  0  0  0  0  0  0
  -30.9670  -18.1515   25.1076 C   0  0  0  0  0  0  0  0  0  0  0  0
  -31.2493  -19.6116   24.7812 C   0  0  0  0  0  0  0  0  0  0  0  0
  -32.2643  -14.7642   24.0167 C   0  0  0  0  0  0  0  0  0  0  0  0
  -31.5653  -14.2893   22.7555 C   0  0  0  0  0  0  0  0  0  1  0  0
  -22.7421  -14.2249   22.3565 C   0  0  1  0  0  0  0  0  0  0  0  0
  -21.9146  -10.5769   22.9709 C   0  0  2  0  0  0  0  0  0  0  0  0
  -21.7984  -15.3508   22.8656 C   0  0  0  0  0  0  0  0  0  0  0  0
  -25.1303  -26.9827   19.8862 N   0  0  0  0  0  0  0  0  0  0  0  0
  -26.3549  -27.4495   19.5889 N   0  0  0  0  0  0  0  0  0  0  0  0
  -24.5808  -14.5776   20.7382 N   0  0  0  0  0  0  0  0  0  0  0  0
  -27.7323  -24.5614   17.5044 N   0  0  0  0  0  0  0  0  0  0  0  0
  -27.9070  -29.1568   20.1245 N   0  0  0  0  0  0  0  0  0  0  0  0
  -24.3924  -30.0633   22.8118 N   0  0  0  0  0  0  0  0  0  0  0  0
  -28.8295  -23.1712   19.0619 N   0  0  0  0  0  0  0  0  0  0  0  0
  -30.9949  -19.8572   23.3827 N   0  0  0  0  0  0  0  0  0  0  0  0
  -25.0258  -17.1404   18.2960 N   0  0  0  0  0  0  0  0  0  0  0  0
  -31.5750  -15.8705   24.6261 N   0  0  0  0  0  0  0  0  0  0  0  0
  -22.1509  -12.8914   22.3847 N   0  0  0  0  0  0  0  0  0  0  0  0
  -22.8178   -9.3918   22.9978 N   0  3  0  0  0  0  0  0  0  0  0  0
  -28.7608  -20.4359   23.6105 O   0  0  0  0  0  0  0  0  0  0  0  0
  -26.4891  -30.7546   22.1917 O   0  0  0  0  0  0  0  0  0  0  0  0
  -25.6200  -17.0053   20.5435 O   0  0  0  0  0  0  0  0  0  0  0  0
  -22.3590  -14.5158   20.0338 O   0  0  0  0  0  0  0  0  0  0  0  0
  -32.6854  -17.5764   23.5044 O   0  0  0  0  0  0  0  0  0  0  0  0
  -23.7495  -11.9336   23.7646 O   0  0  0  0  0  0  0  0  0  0  0  0
  -29.3287  -23.0450   16.7999 O   0  0  0  0  0  0  0  0  0  0  0  0
  -19.6341  -27.1800   23.0959 O   0  0  0  0  0  0  0  0  0  0  0  0
  -30.2429  -13.8614   23.0790 O   0  0  0  0  0  0  0  0  0  1  0  0
  -16.4807  -31.6669   23.6686 F   0  0  0  0  0  0  0  0  0  0  0  0
  -17.1678  -27.3477   21.8582 F   0  0  0  0  0  0  0  0  0  0  0  0
  1  2  1  0  0  0  0
  1  5  2  0  0  0  0
  2  6  2  0  0  0  0
  3 10  2  0  0  0  0
  3 18  1  0  0  0  0
  4 11  1  0  0  0  0
  4 18  2  0  0  0  0
  5 21  1  0  0  0  0
  6 23  1  0  0  0  0
  7 12  2  0  0  0  0
  7 22  1  0  0  0  0
  8  9  2  0  0  0  0
  8 25  1  0  0  0  0
  9 26  1  0  0  0  0
 10 27  1  0  0  0  0
 11 27  2  0  0  0  0
 12 28  1  0  0  0  0
 13 14  2  0  0  0  0
 13 29  1  0  0  0  0
 14 30  1  0  0  0  0
 15 19  1  0  0  0  0
 15 26  2  0  0  0  0
 16 24  1  0  0  0  0
 16 28  2  0  0  0  0
 17 30  2  0  0  0  0
 17 31  1  0  0  0  0
 18 32  1  0  0  0  0
 19 25  2  0  0  0  0
 19 34  1  0  0  0  0
 20 32  1  0  0  0  0
 20 33  2  0  0  0  0
 20 35  1  0  0  0  0
 21 23  2  0  0  0  0
 21 41  1  0  0  0  0
 22 24  2  0  0  0  0
 22 42  1  0  0  0  0
 23 50  1  0  0  0  0
 24 43  1  0  0  0  0
 25 53  1  0  0  0  0
 26 72  1  0  0  0  0
 27 85  1  0  0  0  0
 28 86  1  0  0  0  0
 29 31  2  0  0  0  0
 29 85  1  0  0  0  0
 30 87  1  0  0  0  0
 31 88  1  0  0  0  0
 32 66  2  0  0  0  0
 33 67  1  0  0  0  0
 33 70  1  0  0  0  0
 34 73  1  0  0  0  0
 34 78  2  0  0  0  0
 35 71  1  0  0  0  0
 35 79  2  0  0  0  0
 36 51  1  0  0  0  0
 36 74  1  0  0  0  0
 36 80  2  0  0  0  0
 37 63  1  0  0  0  0
 37 68  1  0  0  0  0
 37 81  2  0  0  0  0
 38 59  1  0  0  0  0
 38 75  1  0  0  0  0
 38 82  2  0  0  0  0
 39 64  1  0  0  0  0
 39 76  1  0  0  0  0
 39 83  2  0  0  0  0
 40 69  1  0  0  0  0
 40 72  1  0  0  0  0
 40 84  2  0  0  0  0
 41 44  1  0  0  0  0
 42 51  1  0  0  0  0
 43 68  1  0  0  0  0
 44 46  1  0  0  0  0
 45 47  1  0  0  0  0
 45 48  1  0  0  0  0
 46 50  1  0  0  0  0
 47 52  1  0  0  0  0
 48 69  1  0  0  0  0
 49 52  1  0  0  0  0
 49 69  1  0  0  0  0
 50 74  1  0  0  0  0
 51 68  1  0  0  0  0
 52 67  1  0  0  0  0
 54 64  1  0  0  0  0
 55 65  1  0  0  0  0
 56 65  1  0  0  0  0
 57 65  1  0  0  0  0
 58 77  1  0  0  0  0
 59 60  1  0  0  0  0
 60 73  1  0  0  0  0
 61 62  1  0  0  0  0
 61 75  1  0  0  0  0
 62 86  1  0  0  0  0
 63 65  1  0  0  0  0
 63 76  1  0  0  0  0
 64 77  1  0  0  0  0
 66 67  1  0  0  0  0
M  CHG  1  77   1
M  ISO  4  40 100  62 101  72 100  86 101
M  END
> <Batch ID>
0056

> <Smiles>
CNC(C)C(=O)NC(C(=O)N1Cc2cc([101O:1][101CH2:1]CNC(=O)CCNC(=O)c3cc([100NH:0][100C:0](=O)N4CCCC(n5nc(-c6ccc(Oc7ccc(F)cc7F)cc6)c(C(N)=O)c5N)C4)ccc3C)ccc2CC1C(=O)NC1CCCc2ccccc21)C(C)(C)C

> <Shape>
0.249

> <Color>
0.061

> <Negative vol penalty>
0.000

$$$$

  -OEChem-04042322523D

 86 94  0     1  0  0  0  0  0999 V2000
  -26.1999  -38.6749   25.2365 C   0  0  0  0  0  0  0  0  0  0  0  0
  -27.0124  -37.6590   25.7297 C   0  0  0  0  0  0  0  0  0  0  0  0
  -24.7302   -8.3429   20.6856 C   0  0  0  0  0  0  0  0  0  0  0  0
  -23.1078  -10.0317   20.0915 C   0  0  0  0  0  0  0  0  0  0  0  0
  -24.9200  -38.3779   24.7701 C   0  0  0  0  0  0  0  0  0  0  0  0
  -26.5449  -36.3456   25.7578 C   0  0  0  0  0  0  0  0  0  0  0  0
  -28.8388  -29.5887   25.1259 C   0  0  0  0  0  0  0  0  0  0  0  0
  -23.9169  -19.0728   21.2734 C   0  0  0  0  0  0  0  0  0  0  0  0
  -24.6975  -17.9615   20.9553 C   0  0  0  0  0  0  0  0  0  0  0  0
  -23.7047   -7.5237   21.1577 C   0  0  0  0  0  0  0  0  0  0  0  0
  -22.0822   -9.2125   20.5635 C   0  0  0  0  0  0  0  0  0  0  0  0
  -28.7918  -28.3680   25.7978 C   0  0  0  0  0  0  0  0  0  0  0  0
  -21.7803   -7.2879   23.9263 C   0  0  0  0  0  0  0  0  0  0  0  0
  -21.9711   -6.6543   25.1542 C   0  0  0  0  0  0  0  0  0  0  0  0
  -26.5932  -27.9610   24.8924 C   0  0  0  0  0  0  0  0  0  0  0  0
  -26.2779  -18.5794   22.6751 C   0  0  0  0  0  0  0  0  0  0  0  0
  -21.7380   -4.5027   24.0803 C   0  0  0  0  0  0  0  0  0  0  0  0
  -24.4318   -9.5969   20.1526 C   0  0  0  0  0  0  0  0  0  0  0  0
  -26.0126  -10.4857   18.3585 C   0  0  0  0  0  0  0  0  0  0  0  0
  -24.4402  -37.0587   24.7836 C   0  0  0  0  0  0  0  0  0  0  0  0
  -27.7570  -30.0104   24.3395 C   0  0  0  0  0  0  0  0  0  0  0  0
  -25.2569  -36.0308   25.2924 C   0  0  0  0  0  0  0  0  0  0  0  0
  -26.6300  -29.1863   24.2095 C   0  0  0  0  0  0  0  0  0  0  0  0
  -24.3168  -19.9375   22.2922 C   0  0  0  0  0  0  0  0  0  0  0  0
  -25.8780  -17.7147   21.6562 C   0  0  0  0  0  0  0  0  0  0  0  0
  -25.4973  -19.6908   22.9931 C   0  0  0  0  0  0  0  0  0  0  0  0
  -22.3807   -7.9585   21.0966 C   0  0  0  0  0  0  0  0  0  0  0  0
  -27.6678  -27.5553   25.6835 C   0  0  0  0  0  0  0  0  0  0  0  0
  -21.5682   -6.5288   22.7754 C   0  0  0  0  0  0  0  0  0  0  0  0
  -21.9500   -5.2618   25.2313 C   0  0  0  0  0  0  0  0  0  0  0  0
  -21.5471   -5.1363   22.8524 C   0  0  0  0  0  0  0  0  0  0  0  0
  -25.4907  -10.4438   19.6653 C   0  0  0  0  0  0  0  0  0  0  0  0
  -26.9925  -11.4467   18.4107 C   0  0  0  0  0  0  0  0  0  0  0  0
  -27.4129  -24.0061   26.1393 C   0  0  0  0  0  0  0  0  0  0  0  0
  -27.2590  -22.8045   25.3485 C   0  0  0  0  0  0  0  0  0  0  0  0
  -27.4721  -25.2262   25.5957 C   0  0  0  0  0  0  0  0  0  1  0  0
  -25.6444   -9.7241   17.2009 C   0  0  0  0  0  0  0  0  0  0  0  0
  -27.1913  -21.5453   25.8181 C   0  0  0  0  0  0  0  0  0  0  0  0
  -27.0623  -20.4412   24.8096 C   0  0  0  0  0  0  0  0  0  0  0  0
  -25.7501  -32.4740   24.4214 C   0  0  0  0  0  0  0  0  0  0  0  0
  -24.7357  -31.2406   21.5980 C   0  0  0  0  0  0  0  0  0  0  0  0
  -24.4539  -28.5175   19.5602 C   0  0  0  0  0  0  0  0  0  0  0  0
  -27.8692  -16.1959   21.9295 C   0  0  0  0  0  0  0  0  0  0  0  0
  -23.0321  -36.7935   24.3127 C   0  0  0  0  0  0  0  0  0  0  0  0
  -27.8342  -31.3176   23.5996 C   0  0  0  0  0  0  0  0  0  0  0  0
  -25.4505  -29.5839   23.3614 C   0  0  0  0  0  0  0  0  0  0  0  0
  -22.7519  -35.3199   24.0296 C   0  0  0  0  0  0  0  0  0  0  0  0
  -30.1008  -13.4644   21.4442 C   0  0  0  0  0  0  0  0  0  0  0  0
  -23.2751  -34.4489   25.1673 C   0  0  0  0  0  0  0  0  0  0  0  0
  -29.2208  -12.3858   20.8084 C   0  0  0  0  0  0  0  0  0  0  0  0
  -29.3388  -14.2728   22.4927 C   0  0  0  0  0  0  0  0  0  0  0  0
  -27.1912  -13.7733   21.3937 C   0  0  0  0  0  0  0  0  0  0  0  0
  -24.7948  -34.5900   25.3162 C   0  0  1  0  0  0  0  0  0  0  0  0
  -26.4635  -31.8820   23.2390 C   0  0  1  0  0  0  0  0  0  0  0  0
  -27.8964  -12.9753   20.2849 C   0  0  2  0  0  0  0  0  0  0  0  0
  -23.4610  -21.1201   22.6113 C   0  0  0  0  0  0  0  0  0  0  0  0
  -27.2742  -21.0888   27.2428 C   0  0  0  0  0  0  0  0  0  0  0  0
  -23.5430  -27.8110   17.3312 C   0  0  0  0  0  0  0  0  0  0  0  0
  -21.9112  -31.2491   22.7522 C   0  0  0  0  0  0  0  0  0  0  0  0
  -21.2289  -29.6962   20.9107 C   0  0  0  0  0  0  0  0  0  0  0  0
  -22.0653  -31.9824   20.3663 C   0  0  0  0  0  0  0  0  0  0  0  0
  -27.1369  -27.7453   18.5784 C   0  0  0  0  0  0  0  0  0  0  0  0
  -23.6928  -30.2298   21.1860 C   0  0  1  0  0  0  0  0  0  0  0  0
  -24.7586  -28.3273   18.0853 C   0  0  2  0  0  0  0  0  0  0  0  0
  -22.2458  -30.7825   21.3214 C   0  0  0  0  0  0  0  0  0  0  0  0
  -26.0897  -11.3092   20.4877 N   0  0  0  0  0  0  0  0  0  0  0  0
  -26.9981  -11.9039   19.6957 N   0  0  0  0  0  0  0  0  0  0  0  0
  -25.5711  -30.8741   22.6627 N   0  0  0  0  0  0  0  0  0  0  0  0
  -28.0978  -14.8036   21.9241 N   0  0  0  0  0  0  0  0  0  0  0  0
  -27.8414  -11.9367   17.4825 N   0  0  0  0  0  0  0  0  0  0  0  0
  -24.6170   -8.7786   17.3222 N   0  0  0  0  0  0  0  0  0  0  0  0
  -25.9200  -20.5569   24.0303 N   0  0  0  0  0  0  0  0  0  0  0  0
  -26.6706  -16.5856   21.3327 N   0  0  0  0  0  0  0  0  0  0  0  0
  -25.4760  -33.8225   24.2958 N   0  0  0  0  0  0  0  0  0  0  0  0
  -24.0464  -29.8057   19.8356 N   0  0  0  0  0  0  0  0  0  0  0  0
  -25.8711  -27.3518   17.9077 N   0  3  0  0  0  0  0  0  0  0  0  0
  -26.2209   -9.8659   16.0959 O   0  0  0  0  0  0  0  0  0  0  0  0
  -27.9028  -19.5478   24.7920 O   0  0  0  0  0  0  0  0  0  0  0  0
  -25.4678  -31.7599   25.3764 O   0  0  0  0  0  0  0  0  0  0  0  0
  -24.8111  -32.3127   20.9926 O   0  0  0  0  0  0  0  0  0  0  0  0
  -24.5627  -27.6128   20.3849 O   0  0  0  0  0  0  0  0  0  0  0  0
  -28.6896  -16.9865   22.4026 O   0  0  0  0  0  0  0  0  0  0  0  0
  -21.3797   -7.1593   21.5569 O   0  0  0  0  0  0  0  0  0  0  0  0
  -27.6191  -26.3637   26.3389 O   0  0  0  0  0  0  0  0  0  1  0  0
  -22.1348   -4.6535   26.4102 F   0  0  0  0  0  0  0  0  0  0  0  0
  -21.3450   -4.4017   21.7499 F   0  0  0  0  0  0  0  0  0  0  0  0
  1  2  1  0  0  0  0
  1  5  2  0  0  0  0
  2  6  2  0  0  0  0
  3 10  2  0  0  0  0
  3 18  1  0  0  0  0
  4 11  1  0  0  0  0
  4 18  2  0  0  0  0
  5 20  1  0  0  0  0
  6 22  1  0  0  0  0
  7 12  2  0  0  0  0
  7 21  1  0  0  0  0
  8  9  2  0  0  0  0
  8 24  1  0  0  0  0
  9 25  1  0  0  0  0
 10 27  1  0  0  0  0
 11 27  2  0  0  0  0
 12 28  1  0  0  0  0
 13 14  2  0  0  0  0
 13 29  1  0  0  0  0
 14 30  1  0  0  0  0
 15 23  1  0  0  0  0
 15 28  2  0  0  0  0
 16 25  2  0  0  0  0
 16 26  1  0  0  0  0
 17 30  2  0  0  0  0
 17 31  1  0  0  0  0
 18 32  1  0  0  0  0
 19 32  1  0  0  0  0
 19 33  2  0  0  0  0
 19 37  1  0  0  0  0
 20 22  2  0  0  0  0
 20 44  1  0  0  0  0
 21 23  2  0  0  0  0
 21 45  1  0  0  0  0
 22 53  1  0  0  0  0
 23 46  1  0  0  0  0
 24 26  2  0  0  0  0
 24 56  1  0  0  0  0
 25 73  1  0  0  0  0
 26 72  1  0  0  0  0
 27 83  1  0  0  0  0
 28 84  1  0  0  0  0
 29 31  2  0  0  0  0
 29 83  1  0  0  0  0
 30 85  1  0  0  0  0
 31 86  1  0  0  0  0
 32 66  2  0  0  0  0
 33 67  1  0  0  0  0
 33 70  1  0  0  0  0
 34 35  1  0  0  0  0
 34 36  2  0  0  0  0
 35 38  2  0  0  0  0
 36 84  1  0  0  0  0
 37 71  1  0  0  0  0
 37 77  2  0  0  0  0
 38 39  1  0  0  0  0
 38 57  1  0  0  0  0
 39 72  1  0  0  0  0
 39 78  2  0  0  0  0
 40 54  1  0  0  0  0
 40 74  1  0  0  0  0
 40 79  2  0  0  0  0
 41 63  1  0  0  0  0
 41 68  1  0  0  0  0
 41 80  2  0  0  0  0
 42 64  1  0  0  0  0
 42 75  1  0  0  0  0
 42 81  2  0  0  0  0
 43 69  1  0  0  0  0
 43 73  1  0  0  0  0
 43 82  2  0  0  0  0
 44 47  1  0  0  0  0
 45 54  1  0  0  0  0
 46 68  1  0  0  0  0
 47 49  1  0  0  0  0
 48 50  1  0  0  0  0
 48 51  1  0  0  0  0
 49 53  1  0  0  0  0
 50 55  1  0  0  0  0
 51 69  1  0  0  0  0
 52 55  1  0  0  0  0
 52 69  1  0  0  0  0
 53 74  1  0  0  0  0
 54 68  1  0  0  0  0
 55 67  1  0  0  0  0
 58 64  1  0  0  0  0
 59 65  1  0  0  0  0
 60 65  1  0  0  0  0
 61 65  1  0  0  0  0
 62 76  1  0  0  0  0
 63 65  1  0  0  0  0
 63 75  1  0  0  0  0
 64 76  1  0  0  0  0
 66 67  1  0  0  0  0
M  CHG  1  76   1
M  ISO  4  36 101  43 100  73 100  84 101
M  END
> <Batch ID>
0056

> <Smiles>
CNC(C)C(=O)NC(C(=O)N1Cc2cc([101O:1][101CH:1]=CC=C(C)C(=O)Nc3cc([100NH:0][100C:0](=O)N4CCCC(n5nc(-c6ccc(Oc7ccc(F)cc7F)cc6)c(C(N)=O)c5N)C4)ccc3C)ccc2CC1C(=O)NC1CCCc2ccccc21)C(C)(C)C

> <Shape>
0.263

> <Color>
0.071

> <Negative vol penalty>
0.000

$$$$

  -OEChem-04042322523D

 90 99  0     1  0  0  0  0  0999 V2000
  -16.8821  -29.0772   24.5201 C   0  0  0  0  0  0  0  0  0  0  0  0
  -17.3134  -28.0332   23.7081 C   0  0  0  0  0  0  0  0  0  0  0  0
  -26.1459  -13.1383   19.3140 C   0  0  0  0  0  0  0  0  0  0  0  0
  -25.9953  -13.1848   21.7248 C   0  0  0  0  0  0  0  0  0  0  0  0
  -29.5435  -23.4266   19.0537 C   0  0  0  0  0  0  0  0  0  0  0  0
  -17.4915  -30.3279   24.4282 C   0  0  0  0  0  0  0  0  0  0  0  0
  -18.3537  -28.2396   22.8027 C   0  0  0  0  0  0  0  0  0  0  0  0
  -22.6450  -24.1982   21.1423 C   0  0  0  0  0  0  0  0  0  0  0  0
  -29.9013  -22.3183   19.8213 C   0  0  0  0  0  0  0  0  0  0  0  0
  -24.8245  -12.6976   19.2399 C   0  0  0  0  0  0  0  0  0  0  0  0
  -24.6739  -12.7443   21.6508 C   0  0  0  0  0  0  0  0  0  0  0  0
  -22.7669  -23.3618   20.0335 C   0  0  0  0  0  0  0  0  0  0  0  0
  -23.0459   -9.8224   21.1575 C   0  0  0  0  0  0  0  0  0  0  0  0
  -22.6524   -8.8049   22.0266 C   0  0  0  0  0  0  0  0  0  0  0  0
  -24.1580  -25.0089   18.9514 C   0  0  0  0  0  0  0  0  0  0  0  0
  -29.4909  -20.8746   17.9280 C   0  0  0  0  0  0  0  0  0  0  0  0
  -20.9824  -10.2664   22.9816 C   0  0  0  0  0  0  0  0  0  0  0  0
  -26.7313  -13.3818   20.5564 C   0  0  0  0  0  0  0  0  0  0  0  0
  -29.1594  -23.2590   17.7233 C   0  0  0  0  0  0  0  0  0  0  0  0
  -29.2420  -13.1718   20.1563 C   0  0  0  0  0  0  0  0  0  0  0  0
  -18.5462  -30.5470   23.5281 C   0  0  0  0  0  0  0  0  0  0  0  0
  -23.2708  -25.4530   21.1595 C   0  0  0  0  0  0  0  0  0  0  0  0
  -18.9769  -29.4947   22.6977 C   0  0  0  0  0  0  0  0  0  0  0  0
  -24.0446  -25.8583   20.0626 C   0  0  0  0  0  0  0  0  0  0  0  0
  -29.1331  -21.9830   17.1604 C   0  0  0  0  0  0  0  0  0  0  0  0
  -29.8750  -21.0423   19.2585 C   0  0  0  0  0  0  0  0  0  0  0  0
  -24.0885  -12.5007   20.4083 C   0  0  0  0  0  0  0  0  0  0  0  0
  -23.5211  -23.7683   18.9367 C   0  0  0  0  0  0  0  0  0  0  0  0
  -22.4077  -11.0620   21.2005 C   0  0  0  0  0  0  0  0  0  0  0  0
  -21.6207   -9.0268   22.9386 C   0  0  0  0  0  0  0  0  0  0  0  0
  -21.3760  -11.2840   22.1125 C   0  0  0  0  0  0  0  0  0  0  0  0
  -28.0964  -13.8364   20.6336 C   0  0  0  0  0  0  0  0  0  0  0  0
  -30.2822  -14.0118   20.4707 C   0  0  0  0  0  0  0  0  0  0  0  0
  -26.7742  -22.8171   14.6586 C   0  0  0  0  0  0  0  0  0  0  0  0
  -30.0498  -27.0655   14.6886 C   0  0  0  0  0  0  0  0  0  0  0  0
  -28.7919  -24.4361   16.9475 C   0  0  0  0  0  0  0  0  0  0  0  0
  -29.2157  -26.3328   15.4351 C   0  0  0  0  0  0  0  0  0  0  0  0
  -29.6357  -25.1757   16.1935 C   0  0  0  0  0  0  0  0  0  0  0  0
  -29.3556  -11.9082   19.4884 C   0  0  0  0  0  0  0  0  0  0  0  0
  -22.2612  -28.4605   21.3574 C   0  0  0  0  0  0  0  0  0  0  0  0
  -25.4358  -29.1044   21.5309 C   0  0  0  0  0  0  0  0  0  0  0  0
  -28.6324  -28.1244   20.8468 C   0  0  0  0  0  0  0  0  0  0  0  0
  -30.6381  -19.9077   21.3743 C   0  0  0  0  0  0  0  0  0  0  0  0
  -19.1424  -31.9290   23.4309 C   0  0  0  0  0  0  0  0  0  0  0  0
  -23.1516  -26.3322   22.3740 C   0  0  0  0  0  0  0  0  0  0  0  0
  -24.7530  -27.1873   20.0397 C   0  0  0  0  0  0  0  0  0  0  0  0
  -25.2698  -22.8270   14.4583 C   0  0  0  0  0  0  0  0  0  0  0  0
  -20.4881  -31.9627   22.7111 C   0  0  0  0  0  0  0  0  0  0  0  0
  -31.5729  -17.3429   23.6601 C   0  0  0  0  0  0  0  0  0  0  0  0
  -20.4259  -31.1455   21.4246 C   0  0  0  0  0  0  0  0  0  0  0  0
  -30.8967  -16.0909   23.0965 C   0  0  0  0  0  0  0  0  0  0  0  0
  -24.9948  -21.0341   16.1405 C   0  0  0  0  0  0  0  0  0  0  0  0
  -30.7050  -18.5868   23.4781 C   0  0  0  0  0  0  0  0  0  0  0  0
  -26.4661  -21.1269   16.5042 C   0  0  0  0  0  0  0  0  0  0  0  0
  -29.5679  -17.5748   21.5410 C   0  0  0  0  0  0  0  0  0  0  0  0
  -20.1189  -29.6726   21.7208 C   0  0  1  0  0  0  0  0  0  0  0  0
  -23.4088  -27.8055   22.0727 C   0  0  1  0  0  0  0  0  0  0  0  0
  -24.4521  -22.3744   15.6608 C   0  0  1  0  0  0  0  0  0  0  0  0
  -30.4321  -16.3073   21.6430 C   0  0  2  0  0  0  0  0  0  0  0  0
  -31.0152  -28.8776   21.0750 C   0  0  0  0  0  0  0  0  0  0  0  0
  -25.0410  -31.0476   19.2119 C   0  0  0  0  0  0  0  0  0  0  0  0
  -27.5213  -31.0357   18.8711 C   0  0  0  0  0  0  0  0  0  0  0  0
  -26.5630  -31.8726   21.0167 C   0  0  0  0  0  0  0  0  0  0  0  0
  -29.3279  -25.7970   22.5374 C   0  0  0  0  0  0  0  0  0  0  0  0
  -28.7255  -21.7648   15.7320 C   0  0  0  0  0  0  0  0  0  0  0  0
  -24.4290  -23.4340   16.7641 C   0  0  0  0  0  0  0  0  0  1  0  0
  -26.5246  -29.3928   20.5259 C   0  0  1  0  0  0  0  0  0  0  0  0
  -29.8811  -28.0876   21.7093 C   0  0  2  0  0  0  0  0  0  0  0  0
  -26.3977  -30.8129   19.9057 C   0  0  0  0  0  0  0  0  0  0  0  0
  -28.3817  -15.0082   21.2077 N   0  0  0  0  0  0  0  0  0  0  0  0
  -29.7184  -15.0864   21.0932 N   0  0  0  0  0  0  0  0  0  0  0  0
  -27.2840  -21.8785   15.5528 N   0  0  0  0  0  0  0  0  0  0  0  0
  -24.6008  -28.0140   21.2483 N   0  0  0  0  0  0  0  0  0  0  0  0
  -30.3064  -18.7295   22.0761 N   0  0  0  0  0  0  0  0  0  0  0  0
  -31.6149  -13.9286   20.2726 N   0  0  0  0  0  0  0  0  0  0  0  0
  -28.1869  -11.1743   19.2437 N   0  0  0  0  0  0  0  0  0  0  0  0
  -30.2358  -19.9162   20.0391 N   0  0  0  0  0  0  0  0  0  0  0  0
  -21.3050  -28.9954   22.1994 N   0  0  0  0  0  0  0  0  0  0  0  0
  -27.7887  -29.1517   21.2131 N   0  0  0  0  0  0  0  0  0  0  0  0
  -30.3372  -26.6818   21.9006 N   0  3  0  0  0  0  0  0  0  0  0  0
  -27.4721  -23.5716   13.9753 O   0  0  0  0  0  0  0  0  0  0  0  0
  -30.4625  -11.4362   19.1341 O   0  0  0  0  0  0  0  0  0  0  0  0
  -22.2453  -28.4805   20.1322 O   0  0  0  0  0  0  0  0  0  0  0  0
  -25.3344  -29.8158   22.5336 O   0  0  0  0  0  0  0  0  0  0  0  0
  -28.4277  -27.3243   19.9366 O   0  0  0  0  0  0  0  0  0  0  0  0
  -31.2590  -20.8293   21.9103 O   0  0  0  0  0  0  0  0  0  0  0  0
  -22.7990  -12.0710   20.3365 O   0  0  0  0  0  0  0  0  0  0  0  0
  -23.6411  -22.9541   17.8529 O   0  0  0  0  0  0  0  0  0  1  0  0
  -21.2418   -8.0491   23.7721 F   0  0  0  0  0  0  0  0  0  0  0  0
  -20.7583  -12.4724   22.1577 F   0  0  0  0  0  0  0  0  0  0  0  0
  1  2  1  0  0  0  0
  1  6  2  0  0  0  0
  2  7  2  0  0  0  0
  3 10  2  0  0  0  0
  3 18  1  0  0  0  0
  4 11  1  0  0  0  0
  4 18  2  0  0  0  0
  5  9  2  0  0  0  0
  5 19  1  0  0  0  0
  6 21  1  0  0  0  0
  7 23  1  0  0  0  0
  8 12  2  0  0  0  0
  8 22  1  0  0  0  0
  9 26  1  0  0  0  0
 10 27  1  0  0  0  0
 11 27  2  0  0  0  0
 12 28  1  0  0  0  0
 13 14  2  0  0  0  0
 13 29  1  0  0  0  0
 14 30  1  0  0  0  0
 15 24  1  0  0  0  0
 15 28  2  0  0  0  0
 16 25  1  0  0  0  0
 16 26  2  0  0  0  0
 17 30  2  0  0  0  0
 17 31  1  0  0  0  0
 18 32  1  0  0  0  0
 19 25  2  0  0  0  0
 19 36  1  0  0  0  0
 20 32  1  0  0  0  0
 20 33  2  0  0  0  0
 20 39  1  0  0  0  0
 21 23  2  0  0  0  0
 21 44  1  0  0  0  0
 22 24  2  0  0  0  0
 22 45  1  0  0  0  0
 23 56  1  0  0  0  0
 24 46  1  0  0  0  0
 25 65  1  0  0  0  0
 26 77  1  0  0  0  0
 27 87  1  0  0  0  0
 28 88  1  0  0  0  0
 29 31  2  0  0  0  0
 29 87  1  0  0  0  0
 30 89  1  0  0  0  0
 31 90  1  0  0  0  0
 32 70  2  0  0  0  0
 33 71  1  0  0  0  0
 33 75  1  0  0  0  0
 34 47  1  0  0  0  0
 34 72  1  0  0  0  0
 34 81  2  0  0  0  0
 35 37  2  0  0  0  0
 36 38  2  0  0  0  0
 37 38  1  0  0  0  0
 39 76  1  0  0  0  0
 39 82  2  0  0  0  0
 40 57  1  0  0  0  0
 40 78  1  0  0  0  0
 40 83  2  0  0  0  0
 41 67  1  0  0  0  0
 41 73  1  0  0  0  0
 41 84  2  0  0  0  0
 42 68  1  0  0  0  0
 42 79  1  0  0  0  0
 42 85  2  0  0  0  0
 43 74  1  0  0  0  0
 43 77  1  0  0  0  0
 43 86  2  0  0  0  0
 44 48  1  0  0  0  0
 45 57  1  0  0  0  0
 46 73  1  0  0  0  0
 47 58  1  0  0  0  0
 48 50  1  0  0  0  0
 49 51  1  0  0  0  0
 49 53  1  0  0  0  0
 50 56  1  0  0  0  0
 51 59  1  0  0  0  0
 52 54  1  0  0  0  0
 52 58  1  0  0  0  0
 53 74  1  0  0  0  0
 54 72  1  0  0  0  0
 55 59  1  0  0  0  0
 55 74  1  0  0  0  0
 56 78  1  0  0  0  0
 57 73  1  0  0  0  0
 58 66  1  0  0  0  0
 59 71  1  0  0  0  0
 60 68  1  0  0  0  0
 61 69  1  0  0  0  0
 62 69  1  0  0  0  0
 63 69  1  0  0  0  0
 64 80  1  0  0  0  0
 65 72  1  0  0  0  0
 66 88  1  0  0  0  0
 67 69  1  0  0  0  0
 67 79  1  0  0  0  0
 68 80  1  0  0  0  0
 70 71  1  0  0  0  0
M  CHG  1  80   1
M  ISO  4  43 100  66 101  77 100  88 101
M  END
> <Batch ID>
0056

> <Smiles>
C=CC=Cc1ccc([100NH:0][100C:0](=O)N2CCCC(n3nc(-c4ccc(Oc5ccc(F)cc5F)cc4)c(C(N)=O)c3N)C2)cc1CN1CCC([101CH2:1][101O:1]c2ccc3c(c2)CN(C(=O)C(NC(=O)C(C)NC)C(C)(C)C)C(C(=O)NC2CCCc4ccccc42)C3)CC1=O

> <Shape>
0.283

> <Color>
0.076

> <Negative vol penalty>
0.000

$$$$

  -OEChem-04042322523D

 85 93  0     1  0  0  0  0  0999 V2000
  -29.6034  -23.6215   17.8498 C   0  0  0  0  0  0  0  0  0  0  0  0
  -28.4300  -23.6894   18.5940 C   0  0  0  0  0  0  0  0  0  0  0  0
  -28.3730  -14.5925   20.6705 C   0  0  0  0  0  0  0  0  0  0  0  0
  -26.1786  -15.5968   20.7863 C   0  0  0  0  0  0  0  0  0  0  0  0
  -30.6723  -24.4623   18.1576 C   0  0  0  0  0  0  0  0  0  0  0  0
  -28.3251  -24.5974   19.6471 C   0  0  0  0  0  0  0  0  0  0  0  0
  -23.9050  -27.0688   19.6483 C   0  0  0  0  0  0  0  0  0  0  0  0
  -27.7896  -13.3296   20.5686 C   0  0  0  0  0  0  0  0  0  0  0  0
  -25.5953  -14.3339   20.6844 C   0  0  0  0  0  0  0  0  0  0  0  0
  -22.7930  -26.3845   20.1371 C   0  0  0  0  0  0  0  0  0  0  0  0
  -24.9887  -11.6987   22.7139 C   0  0  0  0  0  0  0  0  0  0  0  0
  -23.9369  -11.3989   23.5796 C   0  0  0  0  0  0  0  0  0  0  0  0
  -23.6959  -22.7776   27.6240 C   0  0  0  0  0  0  0  0  0  0  0  0
  -23.0166  -27.5382   22.2438 C   0  0  0  0  0  0  0  0  0  0  0  0
  -26.0545  -22.2650   27.5163 C   0  0  0  0  0  0  0  0  0  0  0  0
  -22.4794  -11.0435   21.6858 C   0  0  0  0  0  0  0  0  0  0  0  0
  -27.5675  -15.7261   20.7794 C   0  0  0  0  0  0  0  0  0  0  0  0
  -23.5616  -22.4429   26.2766 C   0  0  0  0  0  0  0  0  0  0  0  0
  -28.5104  -17.8980   19.8299 C   0  0  0  0  0  0  0  0  0  0  0  0
  -30.5769  -25.3877   19.2088 C   0  0  0  0  0  0  0  0  0  0  0  0
  -24.5888  -27.9865   20.4587 C   0  0  0  0  0  0  0  0  0  0  0  0
  -29.3941  -25.4504   19.9700 C   0  0  0  0  0  0  0  0  0  0  0  0
  -24.1354  -28.2348   21.7621 C   0  0  0  0  0  0  0  0  0  0  0  0
  -24.9424  -22.6887   28.2439 C   0  0  0  0  0  0  0  0  0  0  0  0
  -25.9201  -21.9302   26.1689 C   0  0  0  0  0  0  0  0  0  0  0  0
  -26.4008  -13.2003   20.5755 C   0  0  0  0  0  0  0  0  0  0  0  0
  -22.3504  -26.6170   21.4360 C   0  0  0  0  0  0  0  0  0  0  0  0
  -24.7858  -11.6710   21.3341 C   0  0  0  0  0  0  0  0  0  0  0  0
  -22.6823  -11.0713   23.0656 C   0  0  0  0  0  0  0  0  0  0  0  0
  -23.5312  -11.3434   20.8201 C   0  0  0  0  0  0  0  0  0  0  0  0
  -24.6737  -22.0192   25.5490 C   0  0  0  0  0  0  0  0  0  0  0  0
  -28.1695  -17.0309   20.8852 C   0  0  0  0  0  0  0  0  0  0  0  0
  -29.0465  -18.9998   20.4503 C   0  0  0  0  0  0  0  0  0  0  0  0
  -22.2321  -22.5380   25.6206 C   0  0  0  0  0  0  0  0  0  0  0  0
  -28.3562  -17.7231   18.4152 C   0  0  0  0  0  0  0  0  0  0  0  0
  -27.5420  -28.1912   21.6164 C   0  0  0  0  0  0  0  0  0  0  0  0
  -26.5192  -31.0919   22.6468 C   0  0  0  0  0  0  0  0  0  0  0  0
  -23.9003  -33.0973   23.5223 C   0  0  0  0  0  0  0  0  0  0  0  0
  -28.3580  -21.3555   25.8984 C   0  0  0  0  0  0  0  0  0  0  0  0
  -31.7759  -26.2429   19.5341 C   0  0  0  0  0  0  0  0  0  0  0  0
  -25.7705  -28.7363   19.9075 C   0  0  0  0  0  0  0  0  0  0  0  0
  -24.8223  -29.2250   22.6655 C   0  0  0  0  0  0  0  0  0  0  0  0
  -31.4481  -27.4372   20.4264 C   0  0  0  0  0  0  0  0  0  0  0  0
  -31.4112  -20.2871   24.4108 C   0  0  0  0  0  0  0  0  0  0  0  0
  -30.5708  -27.0044   21.5968 C   0  0  0  0  0  0  0  0  0  0  0  0
  -30.9574  -19.4146   23.2382 C   0  0  0  0  0  0  0  0  0  0  0  0
  -30.4990  -20.1241   25.6253 C   0  0  0  0  0  0  0  0  0  0  0  0
  -28.6151  -19.4532   24.1865 C   0  0  0  0  0  0  0  0  0  0  0  0
  -29.2330  -26.4394   21.1040 C   0  0  1  0  0  0  0  0  0  0  0  0
  -26.7000  -29.2687   20.9938 C   0  0  1  0  0  0  0  0  0  0  0  0
  -29.4655  -19.6323   22.9182 C   0  0  2  0  0  0  0  0  0  0  0  0
  -25.0861  -23.0468   29.6847 C   0  0  0  0  0  0  0  0  0  0  0  0
  -23.3803  -35.4055   24.3585 C   0  0  0  0  0  0  0  0  0  0  0  0
  -27.4379  -30.2837   25.4419 C   0  0  0  0  0  0  0  0  0  0  0  0
  -26.0642  -32.1641   26.3614 C   0  0  0  0  0  0  0  0  0  0  0  0
  -27.9608  -32.6475   24.8148 C   0  0  0  0  0  0  0  0  0  0  0  0
  -22.3060  -33.7369   21.1123 C   0  0  0  0  0  0  0  0  0  0  0  0
  -20.4309  -24.4179   23.5634 C   0  0  0  0  0  0  0  0  0  0  0  0
  -20.3485  -24.0439   25.0372 C   0  0  0  0  0  0  0  0  0  0  0  0
  -21.2299  -25.6922   23.3189 C   0  0  0  0  0  0  0  0  0  1  0  0
  -25.8475  -31.6066   23.8970 C   0  0  1  0  0  0  0  0  0  0  0  0
  -23.5478  -34.5215   23.1325 C   0  0  2  0  0  0  0  0  0  0  0  0
  -26.8156  -31.6553   25.1126 C   0  0  0  0  0  0  0  0  0  0  0  0
  -28.4644  -17.5382   22.0851 N   0  0  0  0  0  0  0  0  0  0  0  0
  -28.9964  -18.7359   21.7875 N   0  0  0  0  0  0  0  0  0  0  0  0
  -25.9770  -29.9284   22.0829 N   0  0  0  0  0  0  0  0  0  0  0  0
  -29.1021  -20.3490   25.2473 N   0  0  0  0  0  0  0  0  0  0  0  0
  -29.5513  -20.1590   19.9771 N   0  0  0  0  0  0  0  0  0  0  0  0
  -27.7867  -16.5309   17.9475 N   0  0  0  0  0  0  0  0  0  0  0  0
  -27.0515  -21.4992   25.4326 N   0  0  0  0  0  0  0  0  0  0  0  0
  -21.6420  -23.7969   25.6117 N   0  0  0  0  0  0  0  0  0  0  0  0
  -28.3427  -27.5128   20.7174 N   0  0  0  0  0  0  0  0  0  0  0  0
  -25.2643  -32.8968   23.5454 N   0  0  0  0  0  0  0  0  0  0  0  0
  -22.2752  -34.5465   22.3575 N   0  3  0  0  0  0  0  0  0  0  0  0
  -21.7220  -21.5252   25.1487 O   0  0  0  0  0  0  0  0  0  0  0  0
  -28.7279  -18.5912   17.5895 O   0  0  0  0  0  0  0  0  0  0  0  0
  -27.4717  -27.9911   22.8234 O   0  0  0  0  0  0  0  0  0  0  0  0
  -27.4848  -31.7039   22.1834 O   0  0  0  0  0  0  0  0  0  0  0  0
  -23.0506  -32.2487   23.7841 O   0  0  0  0  0  0  0  0  0  0  0  0
  -28.8524  -22.0579   26.7839 O   0  0  0  0  0  0  0  0  0  0  0  0
  -25.8312  -11.9681   20.4759 O   0  0  0  0  0  0  0  0  0  0  0  0
  -21.2656  -25.9499   21.9158 O   0  0  0  0  0  0  0  0  0  1  0  0
  -21.6728  -10.7819   23.8970 F   0  0  0  0  0  0  0  0  0  0  0  0
  -23.3306  -11.3139   19.4954 F   0  0  0  0  0  0  0  0  0  0  0  0
  -24.5444  -21.6972   24.2529 F   0  0  0  0  0  0  0  0  0  0  0  0
  1  2  1  0  0  0  0
  1  5  2  0  0  0  0
  2  6  2  0  0  0  0
  3  8  2  0  0  0  0
  3 17  1  0  0  0  0
  4  9  1  0  0  0  0
  4 17  2  0  0  0  0
  5 20  1  0  0  0  0
  6 22  1  0  0  0  0
  7 10  2  0  0  0  0
  7 21  1  0  0  0  0
  8 26  1  0  0  0  0
  9 26  2  0  0  0  0
 10 27  1  0  0  0  0
 11 12  2  0  0  0  0
 11 28  1  0  0  0  0
 12 29  1  0  0  0  0
 13 18  1  0  0  0  0
 13 24  2  0  0  0  0
 14 23  1  0  0  0  0
 14 27  2  0  0  0  0
 15 24  1  0  0  0  0
 15 25  2  0  0  0  0
 16 29  2  0  0  0  0
 16 30  1  0  0  0  0
 17 32  1  0  0  0  0
 18 31  2  0  0  0  0
 18 34  1  0  0  0  0
 19 32  1  0  0  0  0
 19 33  2  0  0  0  0
 19 35  1  0  0  0  0
 20 22  2  0  0  0  0
 20 40  1  0  0  0  0
 21 23  2  0  0  0  0
 21 41  1  0  0  0  0
 22 49  1  0  0  0  0
 23 42  1  0  0  0  0
 24 52  1  0  0  0  0
 25 31  1  0  0  0  0
 25 70  1  0  0  0  0
 26 81  1  0  0  0  0
 27 82  1  0  0  0  0
 28 30  2  0  0  0  0
 28 81  1  0  0  0  0
 29 83  1  0  0  0  0
 30 84  1  0  0  0  0
 31 85  1  0  0  0  0
 32 64  2  0  0  0  0
 33 65  1  0  0  0  0
 33 68  1  0  0  0  0
 34 71  1  0  0  0  0
 34 75  2  0  0  0  0
 35 69  1  0  0  0  0
 35 76  2  0  0  0  0
 36 50  1  0  0  0  0
 36 72  1  0  0  0  0
 36 77  2  0  0  0  0
 37 61  1  0  0  0  0
 37 66  1  0  0  0  0
 37 78  2  0  0  0  0
 38 62  1  0  0  0  0
 38 73  1  0  0  0  0
 38 79  2  0  0  0  0
 39 67  1  0  0  0  0
 39 70  1  0  0  0  0
 39 80  2  0  0  0  0
 40 43  1  0  0  0  0
 41 50  1  0  0  0  0
 42 66  1  0  0  0  0
 43 45  1  0  0  0  0
 44 46  1  0  0  0  0
 44 47  1  0  0  0  0
 45 49  1  0  0  0  0
 46 51  1  0  0  0  0
 47 67  1  0  0  0  0
 48 51  1  0  0  0  0
 48 67  1  0  0  0  0
 49 72  1  0  0  0  0
 50 66  1  0  0  0  0
 51 65  1  0  0  0  0
 53 62  1  0  0  0  0
 54 63  1  0  0  0  0
 55 63  1  0  0  0  0
 56 63  1  0  0  0  0
 57 74  1  0  0  0  0
 58 59  1  0  0  0  0
 58 60  1  0  0  0  0
 59 71  1  0  0  0  0
 60 82  1  0  0  0  0
 61 63  1  0  0  0  0
 61 73  1  0  0  0  0
 62 74  1  0  0  0  0
 64 65  1  0  0  0  0
M  CHG  1  74   1
M  ISO  4  39 100  60 101  70 100  82 101
M  END
> <Batch ID>
0056

> <Smiles>
CNC(C)C(=O)NC(C(=O)N1Cc2cc([101O:1][101CH2:1]CCNC(=O)c3cc(C)cc([100NH:0][100C:0](=O)N4CCCC(n5nc(-c6ccc(Oc7ccc(F)cc7F)cc6)c(C(N)=O)c5N)C4)c3F)ccc2CC1C(=O)NC1CCCc2ccccc21)C(C)(C)C

> <Shape>
0.263

> <Color>
0.073

> <Negative vol penalty>
0.000

$$$$

  -OEChem-04042322523D

 94103  0     1  0  0  0  0  0999 V2000
  -23.0744  -35.3025   22.0108 C   0  0  0  0  0  0  0  0  0  0  0  0
  -24.1115  -34.3948   21.8212 C   0  0  0  0  0  0  0  0  0  0  0  0
  -28.1932  -20.0035   22.9580 C   0  0  0  0  0  0  0  0  0  0  0  0
  -23.5490   -9.6703   19.8397 C   0  0  0  0  0  0  0  0  0  0  0  0
  -23.7433   -9.8928   22.2375 C   0  0  0  0  0  0  0  0  0  0  0  0
  -29.1937  -20.6774   22.2577 C   0  0  0  0  0  0  0  0  0  0  0  0
  -21.9536  -34.9335   22.7533 C   0  0  0  0  0  0  0  0  0  0  0  0
  -24.0287  -33.1177   22.3750 C   0  0  0  0  0  0  0  0  0  0  0  0
  -25.4284  -29.4960   19.1240 C   0  0  0  0  0  0  0  0  0  0  0  0
  -28.2038  -18.6101   23.0216 C   0  0  0  0  0  0  0  0  0  0  0  0
  -22.9154   -8.4388   20.0052 C   0  0  0  0  0  0  0  0  0  0  0  0
  -23.1096   -8.6613   22.4031 C   0  0  0  0  0  0  0  0  0  0  0  0
  -26.7961  -29.3131   18.9248 C   0  0  0  0  0  0  0  0  0  0  0  0
  -19.9540   -7.4547   22.3217 C   0  0  0  0  0  0  0  0  0  0  0  0
  -18.9545   -7.3670   23.2907 C   0  0  0  0  0  0  0  0  0  0  0  0
  -30.2156  -18.5645   21.6845 C   0  0  0  0  0  0  0  0  0  0  0  0
  -26.7577  -27.4300   20.4321 C   0  0  0  0  0  0  0  0  0  0  0  0
  -20.2180   -5.6575   24.4390 C   0  0  0  0  0  0  0  0  0  0  0  0
  -23.9630  -10.3973   20.9558 C   0  0  0  0  0  0  0  0  0  0  0  0
  -30.2049  -19.9579   21.6209 C   0  0  0  0  0  0  0  0  0  0  0  0
  -24.0092  -12.9368   20.7174 C   0  0  0  0  0  0  0  0  0  0  0  0
  -21.8527  -33.6480   23.3083 C   0  0  0  0  0  0  0  0  0  0  0  0
  -24.7160  -28.6526   19.9887 C   0  0  0  0  0  0  0  0  0  0  0  0
  -22.9060  -32.7316   23.1267 C   0  0  0  0  0  0  0  0  0  0  0  0
  -25.3805  -27.6028   20.6386 C   0  0  0  0  0  0  0  0  0  0  0  0
  -29.2150  -17.8906   22.3848 C   0  0  0  0  0  0  0  0  0  0  0  0
  -22.6956   -7.9343   21.2869 C   0  0  0  0  0  0  0  0  0  0  0  0
  -27.4615  -28.2818   19.5811 C   0  0  0  0  0  0  0  0  0  0  0  0
  -21.0854   -6.6438   22.4113 C   0  0  0  0  0  0  0  0  0  0  0  0
  -19.0865   -6.4684   24.3494 C   0  0  0  0  0  0  0  0  0  0  0  0
  -21.2174   -5.7453   23.4700 C   0  0  0  0  0  0  0  0  0  0  0  0
  -24.6181  -11.6693   20.7854 C   0  0  0  0  0  0  0  0  0  0  0  0
  -25.0551  -13.8117   20.5523 C   0  0  0  0  0  0  0  0  0  0  0  0
  -32.2703  -23.4656   17.0469 C   0  0  0  0  0  0  0  0  0  0  0  0
  -32.2551  -24.6287   17.7067 C   0  0  0  0  0  0  0  0  0  0  0  0
  -31.4279  -22.3225   17.2797 C   0  0  0  0  0  0  0  0  0  0  0  0
  -30.9077  -24.1284   19.7272 C   0  0  0  0  0  0  0  0  0  0  0  0
  -30.9007  -21.9012   18.4395 C   0  0  0  0  0  0  0  0  0  0  0  0
  -31.4137  -24.9847   18.8268 C   0  0  0  0  0  0  0  0  0  0  0  0
  -31.0336  -22.6450   19.7331 C   0  0  0  0  0  0  0  0  0  0  0  0
  -31.2743  -20.6800   20.8723 C   0  0  0  0  0  0  0  0  0  0  0  0
  -22.6223  -13.2915   20.7964 C   0  0  0  0  0  0  0  0  0  0  0  0
  -23.0736  -29.0677   22.6783 C   0  0  0  0  0  0  0  0  0  0  0  0
  -22.3417  -25.9359   22.2559 C   0  0  0  0  0  0  0  0  0  0  0  0
  -31.1991  -27.2523   17.9655 C   0  0  0  0  0  0  0  0  0  0  0  0
  -23.1781  -22.9245   20.8854 C   0  0  0  0  0  0  0  0  0  0  0  0
  -30.1561  -15.6102   21.8745 C   0  0  0  0  0  0  0  0  0  0  0  0
  -20.6427  -33.3107   24.1431 C   0  0  0  0  0  0  0  0  0  0  0  0
  -23.2357  -28.8466   20.1721 C   0  0  0  0  0  0  0  0  0  0  0  0
  -24.6575  -26.6572   21.5615 C   0  0  0  0  0  0  0  0  0  0  0  0
  -20.4649  -31.8133   24.3807 C   0  0  0  0  0  0  0  0  0  0  0  0
  -29.9344  -12.9542   19.5136 C   0  0  0  0  0  0  0  0  0  0  0  0
  -21.7883  -31.1776   24.7946 C   0  0  0  0  0  0  0  0  0  0  0  0
  -28.4814  -12.4874   19.6284 C   0  0  0  0  0  0  0  0  0  0  0  0
  -30.5069  -13.3650   20.8690 C   0  0  0  0  0  0  0  0  0  0  0  0
  -28.2549  -13.8845   21.7222 C   0  0  0  0  0  0  0  0  0  0  0  0
  -22.8420  -31.3287   23.6907 C   0  0  1  0  0  0  0  0  0  0  0  0
  -22.7112  -28.2468   21.4731 C   0  0  1  0  0  0  0  0  0  0  0  0
  -27.6143  -13.5219   20.3724 C   0  0  2  0  0  0  0  0  0  0  0  0
  -30.1039  -20.6261   18.4990 C   0  0  0  0  0  0  0  0  0  0  0  0
  -31.6813  -29.6686   17.5567 C   0  0  0  0  0  0  0  0  0  0  0  0
  -22.4058  -20.5409   20.7463 C   0  0  0  0  0  0  0  0  0  0  0  0
  -23.3463  -25.4473   25.0952 C   0  0  0  0  0  0  0  0  0  0  0  0
  -23.4466  -23.0026   24.5644 C   0  0  0  0  0  0  0  0  0  0  0  0
  -21.2609  -24.2029   24.4979 C   0  0  0  0  0  0  0  0  0  0  0  0
  -22.8840  -23.0697   17.9441 C   0  0  0  0  0  0  0  0  0  0  0  0
  -29.4530  -29.0056   18.5013 C   0  0  0  0  0  0  0  0  0  1  0  0
  -22.9634  -24.6265   22.6775 C   0  0  1  0  0  0  0  0  0  0  0  0
  -30.9477  -28.6797   18.4615 C   0  0  1  0  0  0  0  0  0  0  0  0
  -22.3630  -21.9154   20.0969 C   0  0  2  0  0  0  0  0  0  0  0  0
  -22.7686  -24.3387   24.1929 C   0  0  0  0  0  0  0  0  0  0  0  0
  -25.9477  -11.7292   20.6726 N   0  0  0  0  0  0  0  0  0  0  0  0
  -31.1590  -22.0490   20.8797 N   0  0  0  0  0  0  0  0  0  0  0  0
  -26.1828  -13.0449   20.5319 N   0  0  0  0  0  0  0  0  0  0  0  0
  -23.2120  -26.8919   21.7131 N   0  0  0  0  0  0  0  0  0  0  0  0
  -29.6351  -14.3497   21.5133 N   0  0  0  0  0  0  0  0  0  0  0  0
  -25.1108  -15.1544   20.4239 N   0  0  0  0  0  0  0  0  0  0  0  0
  -21.6796  -12.2685   20.9669 N   0  0  0  0  0  0  0  0  0  0  0  0
  -29.2259  -16.4752   22.4499 N   0  0  0  0  0  0  0  0  0  0  0  0
  -31.2093  -26.3296   19.0047 N   0  0  0  0  0  0  0  0  0  0  0  0
  -22.6082  -30.3681   22.6339 N   0  0  0  0  0  0  0  0  0  0  0  0
  -22.4019  -23.6063   21.7985 N   0  0  0  0  0  0  0  0  0  0  0  0
  -22.8899  -21.7956   18.7081 N   0  3  0  0  0  0  0  0  0  0  0  0
  -32.1535  -20.0244   20.3196 O   0  0  0  0  0  0  0  0  0  0  0  0
  -22.2292  -14.4790   20.7016 O   0  0  0  0  0  0  0  0  0  0  0  0
  -23.7258  -28.5587   23.5822 O   0  0  0  0  0  0  0  0  0  0  0  0
  -21.1274  -26.1018   22.3961 O   0  0  0  0  0  0  0  0  0  0  0  0
  -31.3755  -26.9834   16.7788 O   0  0  0  0  0  0  0  0  0  0  0  0
  -24.3837  -23.0886   20.7114 O   0  0  0  0  0  0  0  0  0  0  0  0
  -31.3336  -15.9107   21.6622 O   0  0  0  0  0  0  0  0  0  0  0  0
  -22.0772   -6.7327   21.4489 O   0  0  0  0  0  0  0  0  0  0  0  0
  -28.7966  -28.1014   19.3890 O   0  0  0  0  0  0  0  0  0  1  0  0
  -18.1274   -6.3853   25.2807 F   0  0  0  0  0  0  0  0  0  0  0  0
  -22.3026   -4.9645   23.5620 F   0  0  0  0  0  0  0  0  0  0  0  0
  1  2  1  0  0  0  0
  1  7  2  0  0  0  0
  2  8  2  0  0  0  0
  3  6  2  0  0  0  0
  3 10  1  0  0  0  0
  4 11  2  0  0  0  0
  4 19  1  0  0  0  0
  5 12  1  0  0  0  0
  5 19  2  0  0  0  0
  6 20  1  0  0  0  0
  7 22  1  0  0  0  0
  8 24  1  0  0  0  0
  9 13  2  0  0  0  0
  9 23  1  0  0  0  0
 10 26  2  0  0  0  0
 11 27  1  0  0  0  0
 12 27  2  0  0  0  0
 13 28  1  0  0  0  0
 14 15  2  0  0  0  0
 14 29  1  0  0  0  0
 15 30  1  0  0  0  0
 16 20  2  0  0  0  0
 16 26  1  0  0  0  0
 17 25  1  0  0  0  0
 17 28  2  0  0  0  0
 18 30  2  0  0  0  0
 18 31  1  0  0  0  0
 19 32  1  0  0  0  0
 20 41  1  0  0  0  0
 21 32  1  0  0  0  0
 21 33  2  0  0  0  0
 21 42  1  0  0  0  0
 22 24  2  0  0  0  0
 22 48  1  0  0  0  0
 23 25  2  0  0  0  0
 23 49  1  0  0  0  0
 24 57  1  0  0  0  0
 25 50  1  0  0  0  0
 26 79  1  0  0  0  0
 27 91  1  0  0  0  0
 28 92  1  0  0  0  0
 29 31  2  0  0  0  0
 29 91  1  0  0  0  0
 30 93  1  0  0  0  0
 31 94  1  0  0  0  0
 32 72  2  0  0  0  0
 33 74  1  0  0  0  0
 33 77  1  0  0  0  0
 34 35  2  0  0  0  0
 34 36  1  0  0  0  0
 35 39  1  0  0  0  0
 36 38  2  0  0  0  0
 37 39  2  0  0  0  0
 37 40  1  0  0  0  0
 38 40  1  0  0  0  0
 38 60  1  0  0  0  0
 39 80  1  0  0  0  0
 40 73  2  0  0  0  0
 41 73  1  0  0  0  0
 41 84  2  0  0  0  0
 42 78  1  0  0  0  0
 42 85  2  0  0  0  0
 43 58  1  0  0  0  0
 43 81  1  0  0  0  0
 43 86  2  0  0  0  0
 44 68  1  0  0  0  0
 44 75  1  0  0  0  0
 44 87  2  0  0  0  0
 45 69  1  0  0  0  0
 45 80  1  0  0  0  0
 45 88  2  0  0  0  0
 46 70  1  0  0  0  0
 46 82  1  0  0  0  0
 46 89  2  0  0  0  0
 47 76  1  0  0  0  0
 47 79  1  0  0  0  0
 47 90  2  0  0  0  0
 48 51  1  0  0  0  0
 49 58  1  0  0  0  0
 50 75  1  0  0  0  0
 51 53  1  0  0  0  0
 52 54  1  0  0  0  0
 52 55  1  0  0  0  0
 53 57  1  0  0  0  0
 54 59  1  0  0  0  0
 55 76  1  0  0  0  0
 56 59  1  0  0  0  0
 56 76  1  0  0  0  0
 57 81  1  0  0  0  0
 58 75  1  0  0  0  0
 59 74  1  0  0  0  0
 61 69  1  0  0  0  0
 62 70  1  0  0  0  0
 63 71  1  0  0  0  0
 64 71  1  0  0  0  0
 65 71  1  0  0  0  0
 66 83  1  0  0  0  0
 67 69  1  0  0  0  0
 67 92  1  0  0  0  0
 68 71  1  0  0  0  0
 68 82  1  0  0  0  0
 70 83  1  0  0  0  0
 72 74  1  0  0  0  0
M  CHG  1  83   1
M  ISO  4  47 100  67 101  79 100  92 101
M  END
> <Batch ID>
0056

> <Smiles>
CNC(C)C(=O)NC(C(=O)N1Cc2cc([101O:1][101CH2:1]C(C)C(=O)Nc3cccc(C)c(=NC(=O)c4cccc([100NH:0][100C:0](=O)N5CCCC(n6nc(-c7ccc(Oc8ccc(F)cc8F)cc7)c(C(N)=O)c6N)C5)c4)c3)ccc2CC1C(=O)NC1CCCc2ccccc21)C(C)(C)C

> <Shape>
0.274

> <Color>
0.170

> <Negative vol penalty>
0.000

$$$$

  -OEChem-04042322523D

 84 92  0     1  0  0  0  0  0999 V2000
  -21.3188  -32.1611   17.6322 C   0  0  0  0  0  0  0  0  0  0  0  0
  -21.5211  -30.7994   17.8329 C   0  0  0  0  0  0  0  0  0  0  0  0
  -31.1206  -19.6146   19.4361 C   0  0  0  0  0  0  0  0  0  0  0  0
  -23.0434   -9.9032   19.9158 C   0  0  0  0  0  0  0  0  0  0  0  0
  -23.8806   -9.7855   22.1790 C   0  0  0  0  0  0  0  0  0  0  0  0
  -21.6766  -33.0717   18.6255 C   0  0  0  0  0  0  0  0  0  0  0  0
  -22.0825  -30.3476   19.0268 C   0  0  0  0  0  0  0  0  0  0  0  0
  -20.7747  -25.1392   21.9708 C   0  0  0  0  0  0  0  0  0  0  0  0
  -31.4157  -18.5161   20.2435 C   0  0  0  0  0  0  0  0  0  0  0  0
  -29.8821  -20.2471   19.5443 C   0  0  0  0  0  0  0  0  0  0  0  0
  -22.3171   -8.7306   20.1234 C   0  0  0  0  0  0  0  0  0  0  0  0
  -23.1543   -8.6129   22.3867 C   0  0  0  0  0  0  0  0  0  0  0  0
  -21.4072  -23.8972   22.0058 C   0  0  0  0  0  0  0  0  0  0  0  0
  -23.4510   -5.3313   21.6290 C   0  0  0  0  0  0  0  0  0  0  0  0
  -24.0982   -4.2723   22.2655 C   0  0  0  0  0  0  0  0  0  0  0  0
  -22.5484  -24.5423   24.0308 C   0  0  0  0  0  0  0  0  0  0  0  0
  -29.2337  -18.6825   21.2673 C   0  0  0  0  0  0  0  0  0  0  0  0
  -22.4544   -4.3315   24.0352 C   0  0  0  0  0  0  0  0  0  0  0  0
  -23.8252  -10.4306   20.9435 C   0  0  0  0  0  0  0  0  0  0  0  0
  -24.1439  -12.9616   20.9582 C   0  0  0  0  0  0  0  0  0  0  0  0
  -22.2337  -32.6301   19.8360 C   0  0  0  0  0  0  0  0  0  0  0  0
  -21.0330  -26.0977   22.9612 C   0  0  0  0  0  0  0  0  0  0  0  0
  -22.4493  -31.2533   20.0366 C   0  0  0  0  0  0  0  0  0  0  0  0
  -21.9159  -25.7947   24.0075 C   0  0  0  0  0  0  0  0  0  0  0  0
  -30.4723  -18.0501   21.1591 C   0  0  0  0  0  0  0  0  0  0  0  0
  -28.9387  -19.7810   20.4599 C   0  0  0  0  0  0  0  0  0  0  0  0
  -22.3725   -8.0855   21.3589 C   0  0  0  0  0  0  0  0  0  0  0  0
  -22.2965  -23.5997   23.0343 C   0  0  0  0  0  0  0  0  0  0  0  0
  -22.3056   -5.8905   22.1955 C   0  0  0  0  0  0  0  0  0  0  0  0
  -23.5999   -3.7724   23.4686 C   0  0  0  0  0  0  0  0  0  0  0  0
  -21.8073   -5.3906   23.3986 C   0  0  0  0  0  0  0  0  0  0  0  0
  -24.5762  -11.6415   20.7294 C   0  0  0  0  0  0  0  0  0  0  0  0
  -25.2174  -13.7410   20.6025 C   0  0  0  0  0  0  0  0  0  0  0  0
  -25.4785  -21.0143   21.2338 C   0  0  0  0  0  0  0  0  0  0  0  0
  -24.3638  -20.8655   21.9627 C   0  0  0  0  0  0  0  0  0  0  0  0
  -22.8845  -13.4405   21.4485 C   0  0  0  0  0  0  0  0  0  0  0  0
  -26.6369  -20.0912   21.4228 C   0  0  0  0  0  0  0  0  0  0  0  0
  -22.2658  -29.0274   22.9802 C   0  0  0  0  0  0  0  0  0  0  0  0
  -21.3986  -28.9508   26.1050 C   0  0  0  0  0  0  0  0  0  0  0  0
  -20.6835  -27.0800   28.8683 C   0  0  0  0  0  0  0  0  0  0  0  0
  -30.6966  -14.7993   20.6659 C   0  0  0  0  0  0  0  0  0  0  0  0
  -22.6483  -33.6557   20.8612 C   0  0  0  0  0  0  0  0  0  0  0  0
  -20.3222  -27.4227   22.9239 C   0  0  0  0  0  0  0  0  0  0  0  0
  -22.2120  -26.7815   25.1061 C   0  0  0  0  0  0  0  0  0  0  0  0
  -22.8913  -33.0666   22.2483 C   0  0  0  0  0  0  0  0  0  0  0  0
  -29.4966  -12.5453   18.1848 C   0  0  0  0  0  0  0  0  0  0  0  0
  -23.7427  -31.8046   22.1507 C   0  0  0  0  0  0  0  0  0  0  0  0
  -28.0769  -12.2136   18.6478 C   0  0  0  0  0  0  0  0  0  0  0  0
  -30.4522  -12.7053   19.3650 C   0  0  0  0  0  0  0  0  0  0  0  0
  -28.5932  -13.3375   20.8544 C   0  0  0  0  0  0  0  0  0  0  0  0
  -23.0328  -30.7225   21.3281 C   0  0  1  0  0  0  0  0  0  0  0  0
  -21.0516  -28.5141   23.7012 C   0  0  1  0  0  0  0  0  0  0  0  0
  -27.5810  -13.2217   19.7019 C   0  0  2  0  0  0  0  0  0  0  0  0
  -20.0454  -27.3004   31.2852 C   0  0  0  0  0  0  0  0  0  0  0  0
  -24.2726  -29.7111   26.7919 C   0  0  0  0  0  0  0  0  0  0  0  0
  -23.8253  -28.9941   29.1486 C   0  0  0  0  0  0  0  0  0  0  0  0
  -22.5305  -30.8798   28.1535 C   0  0  0  0  0  0  0  0  0  0  0  0
  -18.1316  -25.6419   28.4457 C   0  0  0  0  0  0  0  0  0  0  0  0
  -30.7883  -16.8757   22.0221 C   0  0  0  0  0  0  0  0  0  0  0  0
  -23.1673  -21.7500   21.8194 C   0  0  0  0  0  0  0  0  0  1  0  0
  -22.0633  -28.5157   27.3887 C   0  0  1  0  0  0  0  0  0  0  0  0
  -19.5365  -27.1464   29.8604 C   0  0  2  0  0  0  0  0  0  0  0  0
  -23.1691  -29.5071   27.8491 C   0  0  0  0  0  0  0  0  0  0  0  0
  -25.8268  -11.5819   20.2642 N   0  0  0  0  0  0  0  0  0  0  0  0
  -26.1895  -12.8742   20.1977 N   0  0  0  0  0  0  0  0  0  0  0  0
  -21.4970  -28.0658   25.0221 N   0  0  0  0  0  0  0  0  0  0  0  0
  -29.9244  -13.6760   20.3269 N   0  0  0  0  0  0  0  0  0  0  0  0
  -25.4152  -15.0764   20.5995 N   0  0  0  0  0  0  0  0  0  0  0  0
  -21.8914  -12.5039   21.7663 N   0  0  0  0  0  0  0  0  0  0  0  0
  -27.6812  -20.4240   20.5701 N   0  0  0  0  0  0  0  0  0  0  0  0
  -22.0073  -30.0773   22.1198 N   0  0  0  0  0  0  0  0  0  0  0  0
  -20.9910  -28.3240   28.3591 N   0  0  0  0  0  0  0  0  0  0  0  0
  -30.1194  -15.6725   21.5798 N   0  0  0  0  0  0  0  0  0  0  0  0
  -18.7150  -25.9052   29.7863 N   0  3  0  0  0  0  0  0  0  0  0  0
  -22.6411  -14.6635   21.5847 O   0  0  0  0  0  0  0  0  0  0  0  0
  -26.5983  -19.1813   22.2426 O   0  0  0  0  0  0  0  0  0  0  0  0
  -23.3568  -28.5103   23.1902 O   0  0  0  0  0  0  0  0  0  0  0  0
  -20.8074  -30.0328   26.0667 O   0  0  0  0  0  0  0  0  0  0  0  0
  -21.2524  -26.0302   28.5771 O   0  0  0  0  0  0  0  0  0  0  0  0
  -31.8151  -15.0112   20.1854 O   0  0  0  0  0  0  0  0  0  0  0  0
  -21.6638   -6.9414   21.5620 O   0  0  0  0  0  0  0  0  0  0  0  0
  -22.9157  -22.3885   23.0705 O   0  0  0  0  0  0  0  0  0  1  0  0
  -24.2206   -2.7543   24.0789 F   0  0  0  0  0  0  0  0  0  0  0  0
  -20.7066   -5.9229   23.9471 F   0  0  0  0  0  0  0  0  0  0  0  0
  1  2  1  0  0  0  0
  1  6  2  0  0  0  0
  2  7  2  0  0  0  0
  3  9  1  0  0  0  0
  3 10  2  0  0  0  0
  4 11  2  0  0  0  0
  4 19  1  0  0  0  0
  5 12  1  0  0  0  0
  5 19  2  0  0  0  0
  6 21  1  0  0  0  0
  7 23  1  0  0  0  0
  8 13  2  0  0  0  0
  8 22  1  0  0  0  0
  9 25  2  0  0  0  0
 10 26  1  0  0  0  0
 11 27  1  0  0  0  0
 12 27  2  0  0  0  0
 13 28  1  0  0  0  0
 14 15  2  0  0  0  0
 14 29  1  0  0  0  0
 15 30  1  0  0  0  0
 16 24  1  0  0  0  0
 16 28  2  0  0  0  0
 17 25  1  0  0  0  0
 17 26  2  0  0  0  0
 18 30  2  0  0  0  0
 18 31  1  0  0  0  0
 19 32  1  0  0  0  0
 20 32  1  0  0  0  0
 20 33  2  0  0  0  0
 20 36  1  0  0  0  0
 21 23  2  0  0  0  0
 21 42  1  0  0  0  0
 22 24  2  0  0  0  0
 22 43  1  0  0  0  0
 23 51  1  0  0  0  0
 24 44  1  0  0  0  0
 25 59  1  0  0  0  0
 26 70  1  0  0  0  0
 27 81  1  0  0  0  0
 28 82  1  0  0  0  0
 29 31  2  0  0  0  0
 29 81  1  0  0  0  0
 30 83  1  0  0  0  0
 31 84  1  0  0  0  0
 32 64  2  0  0  0  0
 33 65  1  0  0  0  0
 33 68  1  0  0  0  0
 34 35  2  0  0  0  0
 34 37  1  0  0  0  0
 35 60  1  0  0  0  0
 36 69  1  0  0  0  0
 36 75  2  0  0  0  0
 37 70  1  0  0  0  0
 37 76  2  0  0  0  0
 38 52  1  0  0  0  0
 38 71  1  0  0  0  0
 38 77  2  0  0  0  0
 39 61  1  0  0  0  0
 39 66  1  0  0  0  0
 39 78  2  0  0  0  0
 40 62  1  0  0  0  0
 40 72  1  0  0  0  0
 40 79  2  0  0  0  0
 41 67  1  0  0  0  0
 41 73  1  0  0  0  0
 41 80  2  0  0  0  0
 42 45  1  0  0  0  0
 43 52  1  0  0  0  0
 44 66  1  0  0  0  0
 45 47  1  0  0  0  0
 46 48  1  0  0  0  0
 46 49  1  0  0  0  0
 47 51  1  0  0  0  0
 48 53  1  0  0  0  0
 49 67  1  0  0  0  0
 50 53  1  0  0  0  0
 50 67  1  0  0  0  0
 51 71  1  0  0  0  0
 52 66  1  0  0  0  0
 53 65  1  0  0  0  0
 54 62  1  0  0  0  0
 55 63  1  0  0  0  0
 56 63  1  0  0  0  0
 57 63  1  0  0  0  0
 58 74  1  0  0  0  0
 59 73  1  0  0  0  0
 60 82  1  0  0  0  0
 61 63  1  0  0  0  0
 61 72  1  0  0  0  0
 62 74  1  0  0  0  0
 64 65  1  0  0  0  0
M  CHG  1  74   1
M  ISO  4  41 100  60 101  73 100  82 101
M  END
> <Batch ID>
0056

> <Smiles>
CNC(C)C(=O)NC(C(=O)N1Cc2cc([101O:1][101CH2:1]C=CC(=O)Nc3cccc(C[100NH:0][100C:0](=O)N4CCCC(n5nc(-c6ccc(Oc7ccc(F)cc7F)cc6)c(C(N)=O)c5N)C4)c3)ccc2CC1C(=O)NC1CCCc2ccccc21)C(C)(C)C

> <Shape>
0.272

> <Color>
0.222

> <Negative vol penalty>
0.000

$$$$

  -OEChem-04042322523D

 90 98  0     1  0  0  0  0  0999 V2000
  -27.7490  -31.4176   23.0436 C   0  0  0  0  0  0  0  0  0  0  0  0
  -27.1469  -30.4933   23.8912 C   0  0  0  0  0  0  0  0  0  0  0  0
  -26.6413  -12.2826   21.7699 C   0  0  0  0  0  0  0  0  0  0  0  0
  -25.8932  -13.7936   20.0395 C   0  0  0  0  0  0  0  0  0  0  0  0
  -27.1746  -31.7044   21.8059 C   0  0  0  0  0  0  0  0  0  0  0  0
  -25.9693  -29.8559   23.5021 C   0  0  0  0  0  0  0  0  0  0  0  0
  -25.6188  -22.6761   23.0340 C   0  0  0  0  0  0  0  0  0  0  0  0
  -27.7400  -22.7646   19.4125 C   0  0  0  0  0  0  0  0  0  0  0  0
  -25.3807  -11.6861   21.7941 C   0  0  0  0  0  0  0  0  0  0  0  0
  -24.6326  -13.1971   20.0637 C   0  0  0  0  0  0  0  0  0  0  0  0
  -25.4103  -21.2997   23.1240 C   0  0  0  0  0  0  0  0  0  0  0  0
  -23.6531   -9.4377   19.9521 C   0  0  0  0  0  0  0  0  0  0  0  0
  -27.7486  -23.8604   20.2756 C   0  0  0  0  0  0  0  0  0  0  0  0
  -23.5957   -8.0443   19.9775 C   0  0  0  0  0  0  0  0  0  0  0  0
  -23.1477  -21.5790   22.3172 C   0  0  0  0  0  0  0  0  0  0  0  0
  -28.9526  -22.5585   21.9165 C   0  0  0  0  0  0  0  0  0  0  0  0
  -22.4099   -8.1314   22.0807 C   0  0  0  0  0  0  0  0  0  0  0  0
  -26.8976  -13.3364   20.8926 C   0  0  0  0  0  0  0  0  0  0  0  0
  -29.2995  -13.5851   20.0701 C   0  0  0  0  0  0  0  0  0  0  0  0
  -25.9946  -31.0630   21.3974 C   0  0  0  0  0  0  0  0  0  0  0  0
  -24.5964  -23.5085   22.5701 C   0  0  0  0  0  0  0  0  0  0  0  0
  -25.3778  -30.1354   22.2584 C   0  0  0  0  0  0  0  0  0  0  0  0
  -23.3549  -22.9571   22.2131 C   0  0  0  0  0  0  0  0  0  0  0  0
  -28.3377  -21.5658   19.8015 C   0  0  0  0  0  0  0  0  0  0  0  0
  -28.9440  -21.4628   21.0535 C   0  0  0  0  0  0  0  0  0  0  0  0
  -24.3764  -12.1433   20.9410 C   0  0  0  0  0  0  0  0  0  0  0  0
  -24.1777  -20.7526   22.7667 C   0  0  0  0  0  0  0  0  0  0  0  0
  -23.0890  -10.1780   20.9911 C   0  0  0  0  0  0  0  0  0  0  0  0
  -28.3549  -23.7574   21.5275 C   0  0  0  0  0  0  0  0  0  0  0  0
  -22.9741   -7.3911   21.0417 C   0  0  0  0  0  0  0  0  0  0  0  0
  -22.4674   -9.5248   22.0554 C   0  0  0  0  0  0  0  0  0  0  0  0
  -28.1995  -13.9534   20.8676 C   0  0  0  0  0  0  0  0  0  0  0  0
  -30.2880  -14.4733   20.4172 C   0  0  0  0  0  0  0  0  0  0  0  0
  -28.9174  -20.1545   15.0424 C   0  0  0  0  0  0  0  0  0  0  0  0
  -25.8264  -19.1341   19.6425 C   0  0  0  0  0  0  0  0  0  0  0  0
  -27.7702  -20.0477   15.7221 C   0  0  0  0  0  0  0  0  0  0  0  0
  -24.9962  -18.0938   19.8016 C   0  0  0  0  0  0  0  0  0  0  0  0
  -29.4173  -12.5340   19.1020 C   0  0  0  0  0  0  0  0  0  0  0  0
  -25.8934  -19.8387   18.3297 C   0  0  0  0  0  0  0  0  0  0  0  0
  -23.5000  -26.9971   21.7312 C   0  0  0  0  0  0  0  0  0  0  0  0
  -22.3713  -25.1594   19.5496 C   0  0  0  0  0  0  0  0  0  0  0  0
  -22.2243  -23.1019   17.1731 C   0  0  0  0  0  0  0  0  0  0  0  0
  -30.1966  -20.0028   22.6802 C   0  0  0  0  0  0  0  0  0  0  0  0
  -25.3852  -31.4406   20.0704 C   0  0  0  0  0  0  0  0  0  0  0  0
  -24.7562  -25.0036   22.5151 C   0  0  0  0  0  0  0  0  0  0  0  0
  -22.2727  -23.8948   21.7522 C   0  0  0  0  0  0  0  0  0  0  0  0
  -24.3400  -30.4446   19.5747 C   0  0  0  0  0  0  0  0  0  0  0  0
  -31.7953  -17.1511   24.0903 C   0  0  0  0  0  0  0  0  0  0  0  0
  -23.3754  -30.0793   20.6985 C   0  0  0  0  0  0  0  0  0  0  0  0
  -31.1591  -15.9742   23.3470 C   0  0  0  0  0  0  0  0  0  0  0  0
  -30.7856  -18.2660   24.3569 C   0  0  0  0  0  0  0  0  0  0  0  0
  -29.4210  -17.5633   22.4300 C   0  0  0  0  0  0  0  0  0  0  0  0
  -24.1133  -29.4049   21.8614 C   0  0  1  0  0  0  0  0  0  0  0  0
  -24.0154  -25.6465   21.3290 C   0  0  1  0  0  0  0  0  0  0  0  0
  -30.4147  -16.4431   22.0815 C   0  0  2  0  0  0  0  0  0  0  0  0
  -21.8372  -21.7362   15.1037 C   0  0  0  0  0  0  0  0  0  0  0  0
  -19.6536  -25.2217   20.9332 C   0  0  0  0  0  0  0  0  0  0  0  0
  -18.6865  -24.0735   18.9296 C   0  0  0  0  0  0  0  0  0  0  0  0
  -19.7109  -26.3359   18.6950 C   0  0  0  0  0  0  0  0  0  0  0  0
  -24.2121  -24.6614   15.6320 C   0  0  0  0  0  0  0  0  0  0  0  0
  -28.3111  -20.4017   18.8537 C   0  0  0  0  0  0  0  0  0  0  0  0
  -24.8903  -17.3104   21.0787 C   0  0  0  0  0  0  0  0  0  0  0  0
  -27.2875  -21.0623   16.7062 C   0  0  0  0  0  0  0  0  0  0  0  0
  -23.4796  -17.3867   21.6597 C   0  0  0  0  0  0  0  0  0  0  0  0
  -23.0620  -18.8256   21.9303 C   0  0  0  0  0  0  0  0  0  1  0  0
  -21.2053  -24.3316   19.0715 C   0  0  1  0  0  0  0  0  0  0  0  0
  -22.2761  -23.0834   15.6561 C   0  0  2  0  0  0  0  0  0  0  0  0
  -19.8357  -24.9790   19.4216 C   0  0  0  0  0  0  0  0  0  0  0  0
  -28.4638  -14.9944   21.6616 N   0  0  0  0  0  0  0  0  0  0  0  0
  -29.7412  -15.2877   21.3648 N   0  0  0  0  0  0  0  0  0  0  0  0
  -22.8373  -24.9066   20.8455 N   0  0  0  0  0  0  0  0  0  0  0  0
  -30.1228  -18.6618   23.1124 N   0  0  0  0  0  0  0  0  0  0  0  0
  -31.5627  -14.6293   20.0012 N   0  0  0  0  0  0  0  0  0  0  0  0
  -28.3053  -11.7138   18.8676 N   0  0  0  0  0  0  0  0  0  0  0  0
  -29.5563  -20.2537   21.4670 N   0  0  0  0  0  0  0  0  0  0  0  0
  -24.4051  -28.0239   21.5419 N   0  0  0  0  0  0  0  0  0  0  0  0
  -21.4164  -24.1151   17.6443 N   0  0  0  0  0  0  0  0  0  0  0  0
  -27.1232  -20.4167   18.0022 N   0  0  0  0  0  0  0  0  0  0  0  0
  -23.6622  -23.3568   15.1818 N   0  3  0  0  0  0  0  0  0  0  0  0
  -30.4825  -12.3180   18.4756 O   0  0  0  0  0  0  0  0  0  0  0  0
  -24.9031  -19.8623   17.5974 O   0  0  0  0  0  0  0  0  0  0  0  0
  -22.3641  -27.1015   22.1792 O   0  0  0  0  0  0  0  0  0  0  0  0
  -22.8540  -26.0117   18.7987 O   0  0  0  0  0  0  0  0  0  0  0  0
  -22.8361  -22.2956   17.8704 O   0  0  0  0  0  0  0  0  0  0  0  0
  -30.8076  -20.8595   23.3242 O   0  0  0  0  0  0  0  0  0  0  0  0
  -23.1462  -11.5613   20.9641 O   0  0  0  0  0  0  0  0  0  0  0  0
  -23.9823  -19.4075   22.8527 O   0  0  0  0  0  0  0  0  0  1  0  0
  -28.3625  -24.8102   22.3556 F   0  0  0  0  0  0  0  0  0  0  0  0
  -22.9176   -6.0530   21.0651 F   0  0  0  0  0  0  0  0  0  0  0  0
  -21.9226  -10.2307   23.0558 F   0  0  0  0  0  0  0  0  0  0  0  0
  1  2  1  0  0  0  0
  1  5  2  0  0  0  0
  2  6  2  0  0  0  0
  3  9  2  0  0  0  0
  3 18  1  0  0  0  0
  4 10  1  0  0  0  0
  4 18  2  0  0  0  0
  5 20  1  0  0  0  0
  6 22  1  0  0  0  0
  7 11  2  0  0  0  0
  7 21  1  0  0  0  0
  8 13  2  0  0  0  0
  8 24  1  0  0  0  0
  9 26  1  0  0  0  0
 10 26  2  0  0  0  0
 11 27  1  0  0  0  0
 12 14  2  0  0  0  0
 12 28  1  0  0  0  0
 13 29  1  0  0  0  0
 14 30  1  0  0  0  0
 15 23  1  0  0  0  0
 15 27  2  0  0  0  0
 16 25  1  0  0  0  0
 16 29  2  0  0  0  0
 17 30  2  0  0  0  0
 17 31  1  0  0  0  0
 18 32  1  0  0  0  0
 19 32  1  0  0  0  0
 19 33  2  0  0  0  0
 19 38  1  0  0  0  0
 20 22  2  0  0  0  0
 20 44  1  0  0  0  0
 21 23  2  0  0  0  0
 21 45  1  0  0  0  0
 22 53  1  0  0  0  0
 23 46  1  0  0  0  0
 24 25  2  0  0  0  0
 24 61  1  0  0  0  0
 25 75  1  0  0  0  0
 26 86  1  0  0  0  0
 27 87  1  0  0  0  0
 28 31  2  0  0  0  0
 28 86  1  0  0  0  0
 29 88  1  0  0  0  0
 30 89  1  0  0  0  0
 31 90  1  0  0  0  0
 32 69  2  0  0  0  0
 33 70  1  0  0  0  0
 33 73  1  0  0  0  0
 34 36  2  0  0  0  0
 35 37  2  0  0  0  0
 35 39  1  0  0  0  0
 36 63  1  0  0  0  0
 37 62  1  0  0  0  0
 38 74  1  0  0  0  0
 38 80  2  0  0  0  0
 39 78  1  0  0  0  0
 39 81  2  0  0  0  0
 40 54  1  0  0  0  0
 40 76  1  0  0  0  0
 40 82  2  0  0  0  0
 41 66  1  0  0  0  0
 41 71  1  0  0  0  0
 41 83  2  0  0  0  0
 42 67  1  0  0  0  0
 42 77  1  0  0  0  0
 42 84  2  0  0  0  0
 43 72  1  0  0  0  0
 43 75  1  0  0  0  0
 43 85  2  0  0  0  0
 44 47  1  0  0  0  0
 45 54  1  0  0  0  0
 46 71  1  0  0  0  0
 47 49  1  0  0  0  0
 48 50  1  0  0  0  0
 48 51  1  0  0  0  0
 49 53  1  0  0  0  0
 50 55  1  0  0  0  0
 51 72  1  0  0  0  0
 52 55  1  0  0  0  0
 52 72  1  0  0  0  0
 53 76  1  0  0  0  0
 54 71  1  0  0  0  0
 55 70  1  0  0  0  0
 56 67  1  0  0  0  0
 57 68  1  0  0  0  0
 58 68  1  0  0  0  0
 59 68  1  0  0  0  0
 60 79  1  0  0  0  0
 61 78  1  0  0  0  0
 62 64  1  0  0  0  0
 63 78  1  0  0  0  0
 64 65  1  0  0  0  0
 65 87  1  0  0  0  0
 66 68  1  0  0  0  0
 66 77  1  0  0  0  0
 67 79  1  0  0  0  0
 69 70  1  0  0  0  0
M  CHG  1  79   1
M  ISO  4  43 100  65 101  75 100  87 101
M  END
> <Batch ID>
0056

> <Smiles>
C=CCN(Cc1ccc(F)cc1[100NH:0][100C:0](=O)N1CCCC(n2nc(-c3ccc(Oc4ccc(F)cc4F)cc3)c(C(N)=O)c2N)C1)C(=O)C=CCC[101CH2:1][101O:1]c1ccc2c(c1)CN(C(=O)C(NC(=O)C(C)NC)C(C)(C)C)C(C(=O)NC1CCCc3ccccc31)C2

> <Shape>
0.224

> <Color>
0.066

> <Negative vol penalty>
0.000

$$$$

  -OEChem-04042322523D

 86 94  0     1  0  0  0  0  0999 V2000
  -24.7094  -23.0383   23.5044 C   0  0  0  0  0  0  0  0  0  0  0  0
  -25.6826  -22.4693   22.6891 C   0  0  0  0  0  0  0  0  0  0  0  0
  -27.0536  -28.9764   20.5203 C   0  0  0  0  0  0  0  0  0  0  0  0
  -25.5122  -27.1452   20.1922 C   0  0  0  0  0  0  0  0  0  0  0  0
  -24.0810  -22.2664   24.4807 C   0  0  0  0  0  0  0  0  0  0  0  0
  -26.0286  -21.1282   22.8505 C   0  0  0  0  0  0  0  0  0  0  0  0
  -28.1931  -15.4294   19.0880 C   0  0  0  0  0  0  0  0  0  0  0  0
  -26.0533  -29.8818   20.1665 C   0  0  0  0  0  0  0  0  0  0  0  0
  -24.5118  -28.0506   19.8384 C   0  0  0  0  0  0  0  0  0  0  0  0
  -29.1966  -14.4616   19.0806 C   0  0  0  0  0  0  0  0  0  0  0  0
  -21.4497  -29.9030   19.1976 C   0  0  0  0  0  0  0  0  0  0  0  0
  -20.1821  -29.7183   19.7495 C   0  0  0  0  0  0  0  0  0  0  0  0
  -27.9880  -13.2042   20.7471 C   0  0  0  0  0  0  0  0  0  0  0  0
  -30.9945  -17.5693   22.3675 C   0  0  0  0  0  0  0  0  0  0  0  0
  -32.8383  -19.0232   20.8612 C   0  0  0  0  0  0  0  0  0  0  0  0
  -21.1113  -29.9643   21.9661 C   0  0  0  0  0  0  0  0  0  0  0  0
  -26.7830  -27.6081   20.5331 C   0  0  0  0  0  0  0  0  0  0  0  0
  -28.1114  -26.1923   22.1880 C   0  0  0  0  0  0  0  0  0  0  0  0
  -24.4127  -20.9126   24.6476 C   0  0  0  0  0  0  0  0  0  0  0  0
  -27.0830  -15.2972   19.9345 C   0  0  0  0  0  0  0  0  0  0  0  0
  -25.4050  -20.3378   23.8308 C   0  0  0  0  0  0  0  0  0  0  0  0
  -26.9705  -14.1705   20.7616 C   0  0  0  0  0  0  0  0  0  0  0  0
  -32.3020  -17.1042   22.2275 C   0  0  0  0  0  0  0  0  0  0  0  0
  -30.6088  -18.7613   21.7543 C   0  0  0  0  0  0  0  0  0  0  0  0
  -33.2239  -17.8311   21.4743 C   0  0  0  0  0  0  0  0  0  0  0  0
  -31.5307  -19.4883   21.0012 C   0  0  0  0  0  0  0  0  0  0  0  0
  -24.7824  -29.4189   19.8256 C   0  0  0  0  0  0  0  0  0  0  0  0
  -29.0956  -13.3503   19.9123 C   0  0  0  0  0  0  0  0  0  0  0  0
  -22.5482  -30.1182   20.0300 C   0  0  0  0  0  0  0  0  0  0  0  0
  -20.0129  -29.7490   21.1337 C   0  0  0  0  0  0  0  0  0  0  0  0
  -22.3790  -30.1489   21.4142 C   0  0  0  0  0  0  0  0  0  0  0  0
  -27.8161  -26.6722   20.8980 C   0  0  0  0  0  0  0  0  0  0  0  0
  -29.1682  -25.3350   22.0019 C   0  0  0  0  0  0  0  0  0  0  0  0
  -27.4862  -26.4944   23.4425 C   0  0  0  0  0  0  0  0  0  0  0  0
  -25.8850  -16.9894   22.3438 C   0  0  0  0  0  0  0  0  0  0  0  0
  -23.4657  -14.8381   22.1396 C   0  0  0  0  0  0  0  0  0  0  0  0
  -32.5042  -13.4190   22.3002 C   0  0  0  0  0  0  0  0  0  0  0  0
  -22.4238  -11.7320   21.1842 C   0  0  0  0  0  0  0  0  0  0  0  0
  -31.6777  -21.2351   19.1919 C   0  0  0  0  0  0  0  0  0  0  0  0
  -23.7400  -20.1308   25.7480 C   0  0  0  0  0  0  0  0  0  0  0  0
  -25.9960  -16.3366   19.9112 C   0  0  0  0  0  0  0  0  0  0  0  0
  -25.7890  -13.9714   21.6741 C   0  0  0  0  0  0  0  0  0  0  0  0
  -23.8970  -18.6191   25.6048 C   0  0  0  0  0  0  0  0  0  0  0  0
  -32.0942  -24.5450   17.9477 C   0  0  0  0  0  0  0  0  0  0  0  0
  -25.3457  -18.2605   25.2893 C   0  0  0  0  0  0  0  0  0  0  0  0
  -31.0426  -25.3540   18.7104 C   0  0  0  0  0  0  0  0  0  0  0  0
  -31.5919  -23.1440   17.6033 C   0  0  0  0  0  0  0  0  0  0  0  0
  -30.0251  -23.1810   19.5040 C   0  0  0  0  0  0  0  0  0  0  0  0
  -25.7902  -18.8799   23.9587 C   0  0  1  0  0  0  0  0  0  0  0  0
  -25.1617  -16.3574   21.1883 C   0  0  1  0  0  0  0  0  0  0  0  0
  -30.5090  -24.5768   19.9298 C   0  0  2  0  0  0  0  0  0  0  0  0
  -29.2016  -19.2358   21.9213 C   0  0  0  0  0  0  0  0  0  0  0  0
  -34.6291  -17.3527   21.3103 C   0  0  0  0  0  0  0  0  0  0  0  0
  -20.4010  -10.2469   21.1819 C   0  0  0  0  0  0  0  0  0  0  0  0
  -23.8618  -14.2982   25.1165 C   0  0  0  0  0  0  0  0  0  0  0  0
  -22.5237  -12.1999   24.8427 C   0  0  0  0  0  0  0  0  0  0  0  0
  -21.4727  -14.4157   24.3864 C   0  0  0  0  0  0  0  0  0  0  0  0
  -22.4024  -11.5703   18.2292 C   0  0  0  0  0  0  0  0  0  0  0  0
  -32.6939  -15.8184   22.8963 C   0  0  0  0  0  0  0  0  0  0  0  0
  -32.6957  -12.4739   21.1276 C   0  0  0  0  0  0  0  0  0  0  0  0
  -31.7586  -11.2729   21.1876 C   0  0  0  0  0  0  0  0  0  0  0  0
  -30.2980  -11.6954   21.1254 C   0  0  0  0  0  0  0  0  0  1  0  0
  -23.1757  -13.4933   22.7611 C   0  0  1  0  0  0  0  0  0  0  0  0
  -21.2061  -11.2744   20.4017 C   0  0  2  0  0  0  0  0  0  0  0  0
  -22.7818  -13.6062   24.2610 C   0  0  0  0  0  0  0  0  0  0  0  0
  -28.6204  -26.1623   19.9615 N   0  0  0  0  0  0  0  0  0  0  0  0
  -29.4316  -25.3531   20.6638 N   0  0  0  0  0  0  0  0  0  0  0  0
  -24.7554  -15.0184   21.6198 N   0  0  0  0  0  0  0  0  0  0  0  0
  -31.1061  -22.4664   18.8074 N   0  0  0  0  0  0  0  0  0  0  0  0
  -29.8886  -24.5750   22.8539 N   0  0  0  0  0  0  0  0  0  0  0  0
  -26.4135  -27.3962   23.4543 N   0  0  0  0  0  0  0  0  0  0  0  0
  -31.1582  -20.7014   20.3708 N   0  0  0  0  0  0  0  0  0  0  0  0
  -25.2652  -18.1177   22.8461 N   0  0  0  0  0  0  0  0  0  0  0  0
  -32.7993  -14.7295   21.9541 N   0  0  0  0  0  0  0  0  0  0  0  0
  -22.1600  -12.8664   21.9222 N   0  0  0  0  0  0  0  0  0  0  0  0
  -21.6217  -10.6621   19.1082 N   0  3  0  0  0  0  0  0  0  0  0  0
  -27.8782  -25.9923   24.5231 O   0  0  0  0  0  0  0  0  0  0  0  0
  -26.9273  -16.4896   22.7505 O   0  0  0  0  0  0  0  0  0  0  0  0
  -22.5785  -15.6946   22.1098 O   0  0  0  0  0  0  0  0  0  0  0  0
  -32.1322  -13.0496   23.4108 O   0  0  0  0  0  0  0  0  0  0  0  0
  -23.5002  -11.1399   21.1476 O   0  0  0  0  0  0  0  0  0  0  0  0
  -32.5819  -20.7074   18.5393 O   0  0  0  0  0  0  0  0  0  0  0  0
  -23.8060  -30.3022   19.4805 O   0  0  0  0  0  0  0  0  0  0  0  0
  -30.0740  -12.4044   19.9075 O   0  0  0  0  0  0  0  0  0  1  0  0
  -18.7952  -29.5732   21.6635 F   0  0  0  0  0  0  0  0  0  0  0  0
  -23.4303  -30.3565   22.2188 F   0  0  0  0  0  0  0  0  0  0  0  0
  1  2  1  0  0  0  0
  1  5  2  0  0  0  0
  2  6  2  0  0  0  0
  3  8  2  0  0  0  0
  3 17  1  0  0  0  0
  4  9  1  0  0  0  0
  4 17  2  0  0  0  0
  5 19  1  0  0  0  0
  6 21  1  0  0  0  0
  7 10  2  0  0  0  0
  7 20  1  0  0  0  0
  8 27  1  0  0  0  0
  9 27  2  0  0  0  0
 10 28  1  0  0  0  0
 11 12  2  0  0  0  0
 11 29  1  0  0  0  0
 12 30  1  0  0  0  0
 13 22  1  0  0  0  0
 13 28  2  0  0  0  0
 14 23  1  0  0  0  0
 14 24  2  0  0  0  0
 15 25  1  0  0  0  0
 15 26  2  0  0  0  0
 16 30  2  0  0  0  0
 16 31  1  0  0  0  0
 17 32  1  0  0  0  0
 18 32  1  0  0  0  0
 18 33  2  0  0  0  0
 18 34  1  0  0  0  0
 19 21  2  0  0  0  0
 19 40  1  0  0  0  0
 20 22  2  0  0  0  0
 20 41  1  0  0  0  0
 21 49  1  0  0  0  0
 22 42  1  0  0  0  0
 23 25  2  0  0  0  0
 23 59  1  0  0  0  0
 24 26  1  0  0  0  0
 24 52  1  0  0  0  0
 25 53  1  0  0  0  0
 26 72  1  0  0  0  0
 27 83  1  0  0  0  0
 28 84  1  0  0  0  0
 29 31  2  0  0  0  0
 29 83  1  0  0  0  0
 30 85  1  0  0  0  0
 31 86  1  0  0  0  0
 32 66  2  0  0  0  0
 33 67  1  0  0  0  0
 33 70  1  0  0  0  0
 34 71  1  0  0  0  0
 34 77  2  0  0  0  0
 35 50  1  0  0  0  0
 35 73  1  0  0  0  0
 35 78  2  0  0  0  0
 36 63  1  0  0  0  0
 36 68  1  0  0  0  0
 36 79  2  0  0  0  0
 37 60  1  0  0  0  0
 37 74  1  0  0  0  0
 37 80  2  0  0  0  0
 38 64  1  0  0  0  0
 38 75  1  0  0  0  0
 38 81  2  0  0  0  0
 39 69  1  0  0  0  0
 39 72  1  0  0  0  0
 39 82  2  0  0  0  0
 40 43  1  0  0  0  0
 41 50  1  0  0  0  0
 42 68  1  0  0  0  0
 43 45  1  0  0  0  0
 44 46  1  0  0  0  0
 44 47  1  0  0  0  0
 45 49  1  0  0  0  0
 46 51  1  0  0  0  0
 47 69  1  0  0  0  0
 48 51  1  0  0  0  0
 48 69  1  0  0  0  0
 49 73  1  0  0  0  0
 50 68  1  0  0  0  0
 51 67  1  0  0  0  0
 54 64  1  0  0  0  0
 55 65  1  0  0  0  0
 56 65  1  0  0  0  0
 57 65  1  0  0  0  0
 58 76  1  0  0  0  0
 59 74  1  0  0  0  0
 60 61  1  0  0  0  0
 61 62  1  0  0  0  0
 62 84  1  0  0  0  0
 63 65  1  0  0  0  0
 63 75  1  0  0  0  0
 64 76  1  0  0  0  0
 66 67  1  0  0  0  0
M  CHG  1  76   1
M  ISO  4  39 100  62 101  72 100  84 101
M  END
> <Batch ID>
0056

> <Smiles>
CNC(C)C(=O)NC(C(=O)N1Cc2cc([101O:1][101CH2:1]CCC(=O)NCc3cc(C)c([100NH:0][100C:0](=O)N4CCCC(n5nc(-c6ccc(Oc7ccc(F)cc7F)cc6)c(C(N)=O)c5N)C4)cc3C)ccc2CC1C(=O)NC1CCCc2ccccc21)C(C)(C)C

> <Shape>
0.205

> <Color>
0.049

> <Negative vol penalty>
0.000

$$$$

  -OEChem-04042322523D

 86 94  0     1  0  0  0  0  0999 V2000
  -16.7215  -26.0585   22.6037 C   0  0  0  0  0  0  0  0  0  0  0  0
  -17.9904  -25.5663   22.3156 C   0  0  0  0  0  0  0  0  0  0  0  0
  -32.2875  -21.2246   14.6810 C   0  0  0  0  0  0  0  0  0  0  0  0
  -26.4964  -13.1435   21.3869 C   0  0  0  0  0  0  0  0  0  0  0  0
  -26.3728  -13.6169   19.0210 C   0  0  0  0  0  0  0  0  0  0  0  0
  -16.5689  -27.3700   23.0518 C   0  0  0  0  0  0  0  0  0  0  0  0
  -19.1074  -26.3857   22.4744 C   0  0  0  0  0  0  0  0  0  0  0  0
  -22.9374  -24.0207   24.7946 C   0  0  0  0  0  0  0  0  0  0  0  0
  -32.9761  -20.5459   15.6864 C   0  0  0  0  0  0  0  0  0  0  0  0
  -30.9311  -21.5109   14.8357 C   0  0  0  0  0  0  0  0  0  0  0  0
  -25.2099  -12.6060   21.3466 C   0  0  0  0  0  0  0  0  0  0  0  0
  -25.0863  -13.0794   18.9806 C   0  0  0  0  0  0  0  0  0  0  0  0
  -23.7006  -23.1411   24.0279 C   0  0  0  0  0  0  0  0  0  0  0  0
  -23.7483   -9.7121   20.3865 C   0  0  0  0  0  0  0  0  0  0  0  0
  -23.5300   -8.5027   21.0461 C   0  0  0  0  0  0  0  0  0  0  0  0
  -25.3925  -24.8415   23.7724 C   0  0  0  0  0  0  0  0  0  0  0  0
  -21.8798   -9.5678   22.4531 C   0  0  0  0  0  0  0  0  0  0  0  0
  -27.0779  -13.6490   20.2241 C   0  0  0  0  0  0  0  0  0  0  0  0
  -29.6207  -13.5211   20.0648 C   0  0  0  0  0  0  0  0  0  0  0  0
  -17.6855  -28.2028   23.2254 C   0  0  0  0  0  0  0  0  0  0  0  0
  -23.3918  -25.3230   25.0472 C   0  0  0  0  0  0  0  0  0  0  0  0
  -18.9695  -27.7099   22.9240 C   0  0  0  0  0  0  0  0  0  0  0  0
  -24.6344  -25.7348   24.5446 C   0  0  0  0  0  0  0  0  0  0  0  0
  -32.3083  -20.1534   16.8464 C   0  0  0  0  0  0  0  0  0  0  0  0
  -30.2633  -21.1185   15.9957 C   0  0  0  0  0  0  0  0  0  0  0  0
  -30.9519  -20.4397   17.0011 C   0  0  0  0  0  0  0  0  0  0  0  0
  -24.5048  -12.5739   20.1435 C   0  0  0  0  0  0  0  0  0  0  0  0
  -24.9270  -23.5524   23.5143 C   0  0  0  0  0  0  0  0  0  0  0  0
  -23.0323  -10.8495   20.7601 C   0  0  0  0  0  0  0  0  0  0  0  0
  -22.5958   -8.4305   22.0794 C   0  0  0  0  0  0  0  0  0  0  0  0
  -22.0981  -10.7773   21.7934 C   0  0  0  0  0  0  0  0  0  0  0  0
  -28.4065  -14.2048   20.2653 C   0  0  0  0  0  0  0  0  0  0  0  0
  -30.5864  -14.4873   20.2069 C   0  0  0  0  0  0  0  0  0  0  0  0
  -29.8546  -12.1363   19.7760 C   0  0  0  0  0  0  0  0  0  0  0  0
  -22.3285  -28.2408   24.3691 C   0  0  0  0  0  0  0  0  0  0  0  0
  -24.8146  -29.1585   26.2399 C   0  0  0  0  0  0  0  0  0  0  0  0
  -27.7235  -21.8493   18.3544 C   0  0  0  0  0  0  0  0  0  0  0  0
  -27.8709  -28.4177   27.5654 C   0  0  0  0  0  0  0  0  0  0  0  0
  -30.5623  -20.4195   19.4899 C   0  0  0  0  0  0  0  0  0  0  0  0
  -17.4664  -29.6281   23.6670 C   0  0  0  0  0  0  0  0  0  0  0  0
  -22.5690  -26.2509   25.8983 C   0  0  0  0  0  0  0  0  0  0  0  0
  -25.1766  -27.1158   24.8041 C   0  0  0  0  0  0  0  0  0  0  0  0
  -18.7359  -30.3130   24.1668 C   0  0  0  0  0  0  0  0  0  0  0  0
  -31.4328  -18.6353   22.4456 C   0  0  0  0  0  0  0  0  0  0  0  0
  -19.8934  -30.0577   23.2067 C   0  0  0  0  0  0  0  0  0  0  0  0
  -30.8713  -17.2328   22.2011 C   0  0  0  0  0  0  0  0  0  0  0  0
  -30.5205  -19.7191   21.8737 C   0  0  0  0  0  0  0  0  0  0  0  0
  -29.6031  -18.1457   20.2148 C   0  0  0  0  0  0  0  0  0  0  0  0
  -20.2079  -28.5602   23.1074 C   0  0  1  0  0  0  0  0  0  0  0  0
  -22.8924  -27.7230   25.6620 C   0  0  1  0  0  0  0  0  0  0  0  0
  -30.5196  -17.0176   20.7160 C   0  0  2  0  0  0  0  0  0  0  0  0
  -33.0732  -19.4277   17.9057 C   0  0  0  0  0  0  0  0  0  0  0  0
  -29.6705  -29.3802   29.0256 C   0  0  0  0  0  0  0  0  0  0  0  0
  -25.7283  -30.9385   23.9362 C   0  0  0  0  0  0  0  0  0  0  0  0
  -27.9618  -31.1184   25.0531 C   0  0  0  0  0  0  0  0  0  0  0  0
  -25.9222  -31.9816   26.2009 C   0  0  0  0  0  0  0  0  0  0  0  0
  -29.1785  -23.5875   17.2838 C   0  0  0  0  0  0  0  0  0  0  0  0
  -27.5766  -26.2482   29.5568 C   0  0  0  0  0  0  0  0  0  0  0  0
  -28.8035  -21.4417   16.1325 C   0  0  0  0  0  0  0  0  0  0  0  0
  -27.5408  -22.8351   19.5011 C   0  0  0  0  0  0  0  0  0  0  0  0
  -26.6410  -22.2888   20.6076 C   0  0  0  0  0  0  0  0  0  0  0  0
  -26.5111  -23.2709   21.7629 C   0  0  0  0  0  0  0  0  0  1  0  0
  -26.2689  -29.4853   26.0007 C   0  0  1  0  0  0  0  0  0  0  0  0
  -28.4096  -28.5313   28.9801 C   0  0  2  0  0  0  0  0  0  0  0  0
  -26.4595  -30.8555   25.2910 C   0  0  0  0  0  0  0  0  0  0  0  0
  -28.5823  -15.5050   20.5157 N   0  0  0  0  0  0  0  0  0  0  0  0
  -29.9181  -15.6459   20.4737 N   0  0  0  0  0  0  0  0  0  0  0  0
  -24.3322  -27.9884   25.6366 N   0  0  0  0  0  0  0  0  0  0  0  0
  -30.2339  -19.4516   20.4627 N   0  0  0  0  0  0  0  0  0  0  0  0
  -31.9336  -14.4504   20.1284 N   0  0  0  0  0  0  0  0  0  0  0  0
  -28.7497  -11.2814   19.6634 N   0  0  0  0  0  0  0  0  0  0  0  0
  -30.2733  -20.0408   18.1793 N   0  0  0  0  0  0  0  0  0  0  0  0
  -20.9555  -28.1228   24.2668 N   0  0  0  0  0  0  0  0  0  0  0  0
  -26.9280  -29.3878   27.2986 N   0  0  0  0  0  0  0  0  0  0  0  0
  -28.5362  -22.2752   17.2982 N   0  0  0  0  0  0  0  0  0  0  0  0
  -28.7325  -27.1808   29.5214 N   0  3  0  0  0  0  0  0  0  0  0  0
  -31.0100  -11.6676   19.6385 O   0  0  0  0  0  0  0  0  0  0  0  0
  -23.0830  -28.7138   23.5274 O   0  0  0  0  0  0  0  0  0  0  0  0
  -24.1335  -29.9099   26.9421 O   0  0  0  0  0  0  0  0  0  0  0  0
  -27.1729  -20.7455   18.3848 O   0  0  0  0  0  0  0  0  0  0  0  0
  -28.2513  -27.5570   26.7748 O   0  0  0  0  0  0  0  0  0  0  0  0
  -31.0880  -21.4932   19.7944 O   0  0  0  0  0  0  0  0  0  0  0  0
  -23.2496  -12.0493   20.1037 O   0  0  0  0  0  0  0  0  0  0  0  0
  -25.6736  -22.6961   22.7651 O   0  0  0  0  0  0  0  0  0  1  0  0
  -22.3853   -7.2686   22.7117 F   0  0  0  0  0  0  0  0  0  0  0  0
  -21.4064  -11.8663   22.1561 F   0  0  0  0  0  0  0  0  0  0  0  0
  1  2  1  0  0  0  0
  1  6  2  0  0  0  0
  2  7  2  0  0  0  0
  3  9  1  0  0  0  0
  3 10  2  0  0  0  0
  4 11  2  0  0  0  0
  4 18  1  0  0  0  0
  5 12  1  0  0  0  0
  5 18  2  0  0  0  0
  6 20  1  0  0  0  0
  7 22  1  0  0  0  0
  8 13  2  0  0  0  0
  8 21  1  0  0  0  0
  9 24  2  0  0  0  0
 10 25  1  0  0  0  0
 11 27  1  0  0  0  0
 12 27  2  0  0  0  0
 13 28  1  0  0  0  0
 14 15  2  0  0  0  0
 14 29  1  0  0  0  0
 15 30  1  0  0  0  0
 16 23  1  0  0  0  0
 16 28  2  0  0  0  0
 17 30  2  0  0  0  0
 17 31  1  0  0  0  0
 18 32  1  0  0  0  0
 19 32  1  0  0  0  0
 19 33  2  0  0  0  0
 19 34  1  0  0  0  0
 20 22  2  0  0  0  0
 20 40  1  0  0  0  0
 21 23  2  0  0  0  0
 21 41  1  0  0  0  0
 22 49  1  0  0  0  0
 23 42  1  0  0  0  0
 24 26  1  0  0  0  0
 24 52  1  0  0  0  0
 25 26  2  0  0  0  0
 25 59  1  0  0  0  0
 26 72  1  0  0  0  0
 27 83  1  0  0  0  0
 28 84  1  0  0  0  0
 29 31  2  0  0  0  0
 29 83  1  0  0  0  0
 30 85  1  0  0  0  0
 31 86  1  0  0  0  0
 32 66  2  0  0  0  0
 33 67  1  0  0  0  0
 33 70  1  0  0  0  0
 34 71  1  0  0  0  0
 34 77  2  0  0  0  0
 35 50  1  0  0  0  0
 35 73  1  0  0  0  0
 35 78  2  0  0  0  0
 36 63  1  0  0  0  0
 36 68  1  0  0  0  0
 36 79  2  0  0  0  0
 37 60  1  0  0  0  0
 37 75  1  0  0  0  0
 37 80  2  0  0  0  0
 38 64  1  0  0  0  0
 38 74  1  0  0  0  0
 38 81  2  0  0  0  0
 39 69  1  0  0  0  0
 39 72  1  0  0  0  0
 39 82  2  0  0  0  0
 40 43  1  0  0  0  0
 41 50  1  0  0  0  0
 42 68  1  0  0  0  0
 43 45  1  0  0  0  0
 44 46  1  0  0  0  0
 44 47  1  0  0  0  0
 45 49  1  0  0  0  0
 46 51  1  0  0  0  0
 47 69  1  0  0  0  0
 48 51  1  0  0  0  0
 48 69  1  0  0  0  0
 49 73  1  0  0  0  0
 50 68  1  0  0  0  0
 51 67  1  0  0  0  0
 53 64  1  0  0  0  0
 54 65  1  0  0  0  0
 55 65  1  0  0  0  0
 56 65  1  0  0  0  0
 57 75  1  0  0  0  0
 58 76  1  0  0  0  0
 59 75  1  0  0  0  0
 60 61  1  0  0  0  0
 61 62  1  0  0  0  0
 62 84  1  0  0  0  0
 63 65  1  0  0  0  0
 63 74  1  0  0  0  0
 64 76  1  0  0  0  0
 66 67  1  0  0  0  0
M  CHG  1  76   1
M  ISO  4  39 100  62 101  72 100  84 101
M  END
> <Batch ID>
0056

> <Smiles>
CNC(C)C(=O)NC(C(=O)N1Cc2cc([101O:1][101CH2:1]CCC(=O)N(C)Cc3cccc(C)c3[100NH:0][100C:0](=O)N3CCCC(n4nc(-c5ccc(Oc6ccc(F)cc6F)cc5)c(C(N)=O)c4N)C3)ccc2CC1C(=O)NC1CCCc2ccccc21)C(C)(C)C

> <Shape>
0.256

> <Color>
0.085

> <Negative vol penalty>
0.000

$$$$

  -OEChem-04042322523D

 86 94  0     1  0  0  0  0  0999 V2000
  -23.4163  -20.0931   24.6017 C   0  0  0  0  0  0  0  0  0  0  0  0
  -24.0957  -20.8864   23.6827 C   0  0  0  0  0  0  0  0  0  0  0  0
  -27.4414  -11.7081   22.3437 C   0  0  0  0  0  0  0  0  0  0  0  0
  -27.9494  -12.3864   20.0812 C   0  0  0  0  0  0  0  0  0  0  0  0
  -22.1754  -20.5004   25.0895 C   0  0  0  0  0  0  0  0  0  0  0  0
  -23.5338  -22.0871   23.2501 C   0  0  0  0  0  0  0  0  0  0  0  0
  -26.8837  -25.8841   23.1766 C   0  0  0  0  0  0  0  0  0  0  0  0
  -27.4075  -22.5814   18.2869 C   0  0  0  0  0  0  0  0  0  0  0  0
  -27.6904  -21.8354   19.4311 C   0  0  0  0  0  0  0  0  0  0  0  0
  -26.6158  -10.6957   21.8549 C   0  0  0  0  0  0  0  0  0  0  0  0
  -27.1238  -11.3740   19.5923 C   0  0  0  0  0  0  0  0  0  0  0  0
  -27.7766  -25.9248   22.1066 C   0  0  0  0  0  0  0  0  0  0  0  0
  -24.0912   -8.1602   21.2061 C   0  0  0  0  0  0  0  0  0  0  0  0
  -22.8444   -7.9907   21.8080 C   0  0  0  0  0  0  0  0  0  0  0  0
  -26.4102  -27.6010   21.0378 C   0  0  0  0  0  0  0  0  0  0  0  0
  -28.5948  -20.9652   16.9395 C   0  0  0  0  0  0  0  0  0  0  0  0
  -22.2424  -10.2493   21.1971 C   0  0  0  0  0  0  0  0  0  0  0  0
  -28.1082  -12.5535   21.4569 C   0  0  0  0  0  0  0  0  0  0  0  0
  -30.3371  -13.5127   22.2439 C   0  0  0  0  0  0  0  0  0  0  0  0
  -21.6025  -21.7114   24.6701 C   0  0  0  0  0  0  0  0  0  0  0  0
  -25.7397  -26.6950   23.1801 C   0  0  0  0  0  0  0  0  0  0  0  0
  -22.2834  -22.5104   23.7318 C   0  0  0  0  0  0  0  0  0  0  0  0
  -25.5056  -27.5706   22.1102 C   0  0  0  0  0  0  0  0  0  0  0  0
  -27.8596  -22.1463   17.0411 C   0  0  0  0  0  0  0  0  0  0  0  0
  -28.4256  -20.6544   19.3295 C   0  0  0  0  0  0  0  0  0  0  0  0
  -26.4570  -10.5286   20.4792 C   0  0  0  0  0  0  0  0  0  0  0  0
  -27.5384  -26.7812   21.0357 C   0  0  0  0  0  0  0  0  0  0  0  0
  -24.4136   -9.3743   20.5997 C   0  0  0  0  0  0  0  0  0  0  0  0
  -21.9200   -9.0352   21.8035 C   0  0  0  0  0  0  0  0  0  0  0  0
  -28.8778  -20.2193   18.0837 C   0  0  0  0  0  0  0  0  0  0  0  0
  -23.4892  -10.4188   20.5951 C   0  0  0  0  0  0  0  0  0  0  0  0
  -28.9608  -13.5998   21.9613 C   0  0  0  0  0  0  0  0  0  0  0  0
  -30.6751  -14.7654   22.6945 C   0  0  0  0  0  0  0  0  0  0  0  0
  -28.1916  -25.6106   16.7696 C   0  0  0  0  0  0  0  0  0  0  0  0
  -28.6944  -26.4807   17.6567 C   0  0  0  0  0  0  0  0  0  0  0  0
  -31.2303  -12.3990   22.1111 C   0  0  0  0  0  0  0  0  0  0  0  0
  -29.0881  -24.9717   15.7632 C   0  0  0  0  0  0  0  0  0  0  0  0
  -22.6075  -26.1549   23.2168 C   0  0  0  0  0  0  0  0  0  0  0  0
  -22.4490  -29.3798   23.5288 C   0  0  0  0  0  0  0  0  0  0  0  0
  -23.9347  -32.4138   23.0449 C   0  0  0  0  0  0  0  0  0  0  0  0
  -28.3372  -20.1920   21.8043 C   0  0  0  0  0  0  0  0  0  0  0  0
  -20.2372  -22.0869   25.1894 C   0  0  0  0  0  0  0  0  0  0  0  0
  -24.8003  -26.6588   24.3542 C   0  0  0  0  0  0  0  0  0  0  0  0
  -24.3028  -28.4764   22.0752 C   0  0  0  0  0  0  0  0  0  0  0  0
  -19.8827  -23.5546   24.9649 C   0  0  0  0  0  0  0  0  0  0  0  0
  -28.8151  -18.5668   24.9360 C   0  0  0  0  0  0  0  0  0  0  0  0
  -20.2168  -23.9721   23.5363 C   0  0  0  0  0  0  0  0  0  0  0  0
  -29.0380  -17.1017   24.5539 C   0  0  0  0  0  0  0  0  0  0  0  0
  -27.7835  -19.2383   24.0312 C   0  0  0  0  0  0  0  0  0  0  0  0
  -28.2713  -17.6529   22.2097 C   0  0  0  0  0  0  0  0  0  0  0  0
  -21.7181  -23.8315   23.2573 C   0  0  1  0  0  0  0  0  0  0  0  0
  -23.3982  -27.1540   24.0132 C   0  0  1  0  0  0  0  0  0  0  0  0
  -29.3499  -16.9522   23.0519 C   0  0  2  0  0  0  0  0  0  0  0  0
  -23.5450  -34.8718   23.3670 C   0  0  0  0  0  0  0  0  0  0  0  0
  -20.5717  -29.3948   21.1235 C   0  0  0  0  0  0  0  0  0  0  0  0
  -20.9771  -31.8562   20.9105 C   0  0  0  0  0  0  0  0  0  0  0  0
  -19.9106  -30.9435   22.9726 C   0  0  0  0  0  0  0  0  0  0  0  0
  -29.5679  -22.9891   14.3789 C   0  0  0  0  0  0  0  0  0  0  0  0
  -26.2649  -32.6645   24.8522 C   0  0  0  0  0  0  0  0  0  0  0  0
  -27.5561  -22.9496   15.8096 C   0  0  0  0  0  0  0  0  0  0  0  0
  -27.8688  -27.1477   18.7092 C   0  0  0  0  0  0  0  0  0  1  0  0
  -22.3745  -30.5442   22.5709 C   0  0  1  0  0  0  0  0  0  0  0  0
  -24.1240  -33.6018   23.9708 C   0  0  2  0  0  0  0  0  0  0  0  0
  -20.9802  -30.6663   21.8938 C   0  0  0  0  0  0  0  0  0  0  0  0
  -28.4587  -14.8120   22.2114 N   0  0  0  0  0  0  0  0  0  0  0  0
  -29.5253  -15.4981   22.6561 N   0  0  0  0  0  0  0  0  0  0  0  0
  -23.4104  -28.3998   23.2437 N   0  0  0  0  0  0  0  0  0  0  0  0
  -28.1467  -19.0592   22.6237 N   0  0  0  0  0  0  0  0  0  0  0  0
  -31.8405  -15.3007   23.1159 N   0  0  0  0  0  0  0  0  0  0  0  0
  -30.7182  -11.1852   21.6330 N   0  0  0  0  0  0  0  0  0  0  0  0
  -28.7120  -19.8989   20.4935 N   0  0  0  0  0  0  0  0  0  0  0  0
  -22.4469  -24.9348   23.8454 N   0  0  0  0  0  0  0  0  0  0  0  0
  -22.7756  -31.7236   23.3301 N   0  0  0  0  0  0  0  0  0  0  0  0
  -28.7245  -23.6907   15.3382 N   0  0  0  0  0  0  0  0  0  0  0  0
  -25.5733  -33.8260   24.2361 N   0  3  0  0  0  0  0  0  0  0  0  0
  -32.4430  -12.4733   22.4230 O   0  0  0  0  0  0  0  0  0  0  0  0
  -30.0951  -25.5668   15.3766 O   0  0  0  0  0  0  0  0  0  0  0  0
  -22.1738  -26.4682   22.1143 O   0  0  0  0  0  0  0  0  0  0  0  0
  -21.6873  -29.3447   24.4984 O   0  0  0  0  0  0  0  0  0  0  0  0
  -24.7332  -32.1289   22.1550 O   0  0  0  0  0  0  0  0  0  0  0  0
  -28.2061  -21.3383   22.2410 O   0  0  0  0  0  0  0  0  0  0  0  0
  -25.6516   -9.5407   20.0018 O   0  0  0  0  0  0  0  0  0  0  0  0
  -28.4080  -26.8225   19.9897 O   0  0  0  0  0  0  0  0  0  1  0  0
  -20.7221   -8.8718   22.3803 F   0  0  0  0  0  0  0  0  0  0  0  0
  -29.5864  -19.0864   17.9745 F   0  0  0  0  0  0  0  0  0  0  0  0
  -23.7929  -11.5871   20.0131 F   0  0  0  0  0  0  0  0  0  0  0  0
  1  2  1  0  0  0  0
  1  5  2  0  0  0  0
  2  6  2  0  0  0  0
  3 10  2  0  0  0  0
  3 18  1  0  0  0  0
  4 11  1  0  0  0  0
  4 18  2  0  0  0  0
  5 20  1  0  0  0  0
  6 22  1  0  0  0  0
  7 12  2  0  0  0  0
  7 21  1  0  0  0  0
  8  9  2  0  0  0  0
  8 24  1  0  0  0  0
  9 25  1  0  0  0  0
 10 26  1  0  0  0  0
 11 26  2  0  0  0  0
 12 27  1  0  0  0  0
 13 14  2  0  0  0  0
 13 28  1  0  0  0  0
 14 29  1  0  0  0  0
 15 23  1  0  0  0  0
 15 27  2  0  0  0  0
 16 24  2  0  0  0  0
 16 30  1  0  0  0  0
 17 29  2  0  0  0  0
 17 31  1  0  0  0  0
 18 32  1  0  0  0  0
 19 32  1  0  0  0  0
 19 33  2  0  0  0  0
 19 36  1  0  0  0  0
 20 22  2  0  0  0  0
 20 42  1  0  0  0  0
 21 23  2  0  0  0  0
 21 43  1  0  0  0  0
 22 51  1  0  0  0  0
 23 44  1  0  0  0  0
 24 60  1  0  0  0  0
 25 30  2  0  0  0  0
 25 71  1  0  0  0  0
 26 82  1  0  0  0  0
 27 83  1  0  0  0  0
 28 31  2  0  0  0  0
 28 82  1  0  0  0  0
 29 84  1  0  0  0  0
 30 85  1  0  0  0  0
 31 86  1  0  0  0  0
 32 65  2  0  0  0  0
 33 66  1  0  0  0  0
 33 69  1  0  0  0  0
 34 35  2  0  0  0  0
 34 37  1  0  0  0  0
 35 61  1  0  0  0  0
 36 70  1  0  0  0  0
 36 76  2  0  0  0  0
 37 74  1  0  0  0  0
 37 77  2  0  0  0  0
 38 52  1  0  0  0  0
 38 72  1  0  0  0  0
 38 78  2  0  0  0  0
 39 62  1  0  0  0  0
 39 67  1  0  0  0  0
 39 79  2  0  0  0  0
 40 63  1  0  0  0  0
 40 73  1  0  0  0  0
 40 80  2  0  0  0  0
 41 68  1  0  0  0  0
 41 71  1  0  0  0  0
 41 81  2  0  0  0  0
 42 45  1  0  0  0  0
 43 52  1  0  0  0  0
 44 67  1  0  0  0  0
 45 47  1  0  0  0  0
 46 48  1  0  0  0  0
 46 49  1  0  0  0  0
 47 51  1  0  0  0  0
 48 53  1  0  0  0  0
 49 68  1  0  0  0  0
 50 53  1  0  0  0  0
 50 68  1  0  0  0  0
 51 72  1  0  0  0  0
 52 67  1  0  0  0  0
 53 66  1  0  0  0  0
 54 63  1  0  0  0  0
 55 64  1  0  0  0  0
 56 64  1  0  0  0  0
 57 64  1  0  0  0  0
 58 74  1  0  0  0  0
 59 75  1  0  0  0  0
 60 74  1  0  0  0  0
 61 83  1  0  0  0  0
 62 64  1  0  0  0  0
 62 73  1  0  0  0  0
 63 75  1  0  0  0  0
 65 66  1  0  0  0  0
M  CHG  1  75   1
M  ISO  4  41 100  61 101  71 100  83 101
M  END
> <Batch ID>
0056

> <Smiles>
CNC(C)C(=O)NC(C(=O)N1Cc2cc([101O:1][101CH2:1]C=CC(=O)N(C)Cc3ccc([100NH:0][100C:0](=O)N4CCCC(n5nc(-c6ccc(Oc7ccc(F)cc7F)cc6)c(C(N)=O)c5N)C4)c(F)c3)ccc2CC1C(=O)NC1CCCc2ccccc21)C(C)(C)C

> <Shape>
0.196

> <Color>
0.058

> <Negative vol penalty>
0.000

$$$$

  -OEChem-04042322523D

 84 92  0     1  0  0  0  0  0999 V2000
  -31.1990  -26.9257   15.9678 C   0  0  0  0  0  0  0  0  0  0  0  0
  -29.8213  -26.7445   16.0355 C   0  0  0  0  0  0  0  0  0  0  0  0
  -28.2543  -15.5334   19.9278 C   0  0  0  0  0  0  0  0  0  0  0  0
  -27.5716  -17.1609   21.5777 C   0  0  0  0  0  0  0  0  0  0  0  0
  -31.9176  -27.2362   17.1215 C   0  0  0  0  0  0  0  0  0  0  0  0
  -29.1615  -26.8728   17.2573 C   0  0  0  0  0  0  0  0  0  0  0  0
  -23.5303  -29.0941   18.1849 C   0  0  0  0  0  0  0  0  0  0  0  0
  -17.5516  -19.7995   21.3204 C   0  0  0  0  0  0  0  0  0  0  0  0
  -19.0515  -20.0947   23.1913 C   0  0  0  0  0  0  0  0  0  0  0  0
  -18.2323  -18.6373   20.9580 C   0  0  0  0  0  0  0  0  0  0  0  0
  -19.7322  -18.9324   22.8289 C   0  0  0  0  0  0  0  0  0  0  0  0
  -29.3660  -16.3160   19.6158 C   0  0  0  0  0  0  0  0  0  0  0  0
  -28.6833  -17.9435   21.2658 C   0  0  0  0  0  0  0  0  0  0  0  0
  -22.2953  -28.4733   18.3673 C   0  0  0  0  0  0  0  0  0  0  0  0
  -29.5986  -20.1184   18.8444 C   0  0  0  0  0  0  0  0  0  0  0  0
  -29.4018  -21.4902   18.6869 C   0  0  0  0  0  0  0  0  0  0  0  0
  -22.5638  -28.6550   20.7578 C   0  0  0  0  0  0  0  0  0  0  0  0
  -30.9485  -21.9195   20.4926 C   0  0  0  0  0  0  0  0  0  0  0  0
  -27.3570  -15.9559   20.9087 C   0  0  0  0  0  0  0  0  0  0  0  0
  -26.1291  -14.1314   22.2015 C   0  0  0  0  0  0  0  0  0  0  0  0
  -31.2650  -27.3778   18.3563 C   0  0  0  0  0  0  0  0  0  0  0  0
  -24.2975  -29.4909   19.2896 C   0  0  0  0  0  0  0  0  0  0  0  0
  -29.8723  -27.1842   18.4288 C   0  0  0  0  0  0  0  0  0  0  0  0
  -23.8070  -29.2829   20.5867 C   0  0  0  0  0  0  0  0  0  0  0  0
  -17.9612  -20.5283   22.4370 C   0  0  0  0  0  0  0  0  0  0  0  0
  -19.3226  -18.2037   21.7123 C   0  0  0  0  0  0  0  0  0  0  0  0
  -29.5805  -17.5210   20.2848 C   0  0  0  0  0  0  0  0  0  0  0  0
  -21.8132  -28.2510   19.6539 C   0  0  0  0  0  0  0  0  0  0  0  0
  -30.4703  -19.6470   19.8261 C   0  0  0  0  0  0  0  0  0  0  0  0
  -30.0768  -22.3908   19.5109 C   0  0  0  0  0  0  0  0  0  0  0  0
  -31.1453  -20.5476   20.6502 C   0  0  0  0  0  0  0  0  0  0  0  0
  -26.2082  -15.1482   21.2310 C   0  0  0  0  0  0  0  0  0  0  0  0
  -24.8361  -13.6760   22.1169 C   0  0  0  0  0  0  0  0  0  0  0  0
  -27.1345  -13.6425   23.0991 C   0  0  0  0  0  0  0  0  0  0  0  0
  -27.1662  -28.7205   20.4213 C   0  0  0  0  0  0  0  0  0  0  0  0
  -26.5509  -31.1155   22.5208 C   0  0  0  0  0  0  0  0  0  0  0  0
  -18.2753  -23.7247   21.7008 C   0  0  0  0  0  0  0  0  0  0  0  0
  -24.2313  -33.0327   24.1302 C   0  0  0  0  0  0  0  0  0  0  0  0
  -19.7376  -16.1831   20.2662 C   0  0  0  0  0  0  0  0  0  0  0  0
  -32.0906  -27.6678   19.5847 C   0  0  0  0  0  0  0  0  0  0  0  0
  -25.6155  -30.1834   19.0756 C   0  0  0  0  0  0  0  0  0  0  0  0
  -24.5827  -29.7083   21.8056 C   0  0  0  0  0  0  0  0  0  0  0  0
  -31.2648  -28.1549   20.7726 C   0  0  0  0  0  0  0  0  0  0  0  0
  -21.2274  -13.2057   19.0040 C   0  0  0  0  0  0  0  0  0  0  0  0
  -30.0313  -27.2776   20.9610 C   0  0  0  0  0  0  0  0  0  0  0  0
  -22.6648  -13.2704   19.5253 C   0  0  0  0  0  0  0  0  0  0  0  0
  -20.6999  -14.5876   18.6220 C   0  0  0  0  0  0  0  0  0  0  0  0
  -22.2578  -15.6742   20.1909 C   0  0  0  0  0  0  0  0  0  0  0  0
  -29.1174  -27.3393   19.7312 C   0  0  1  0  0  0  0  0  0  0  0  0
  -26.5463  -30.0819   20.2800 C   0  0  1  0  0  0  0  0  0  0  0  0
  -22.8101  -14.3147   20.6495 C   0  0  2  0  0  0  0  0  0  0  0  0
  -24.0303  -34.8820   25.8146 C   0  0  0  0  0  0  0  0  0  0  0  0
  -27.1507  -29.1350   24.7632 C   0  0  0  0  0  0  0  0  0  0  0  0
  -26.0356  -30.7101   26.3581 C   0  0  0  0  0  0  0  0  0  0  0  0
  -28.0793  -31.4293   25.1216 C   0  0  0  0  0  0  0  0  0  0  0  0
  -22.9148  -34.8251   22.1775 C   0  0  0  0  0  0  0  0  0  0  0  0
  -17.2284  -21.7794   22.8269 C   0  0  0  0  0  0  0  0  0  0  0  0
  -19.2322  -24.8722   21.9704 C   0  0  0  0  0  0  0  0  0  0  0  0
  -19.4457  -25.7535   20.7450 C   0  0  0  0  0  0  0  0  0  0  0  0
  -20.4433  -26.8690   21.0211 C   0  0  0  0  0  0  0  0  0  1  0  0
  -25.8908  -31.2064   23.8754 C   0  0  1  0  0  0  0  0  0  0  0  0
  -24.1338  -34.5333   24.3379 C   0  0  2  0  0  0  0  0  0  0  0  0
  -26.7751  -30.6103   25.0068 C   0  0  0  0  0  0  0  0  0  0  0  0
  -25.0571  -15.3282   20.5778 N   0  0  0  0  0  0  0  0  0  0  0  0
  -24.2425  -14.4184   21.1389 N   0  0  0  0  0  0  0  0  0  0  0  0
  -25.8687  -30.3758   21.5444 N   0  0  0  0  0  0  0  0  0  0  0  0
  -20.8665  -15.5228   19.7366 N   0  0  0  0  0  0  0  0  0  0  0  0
  -24.1603  -12.7167   22.7845 N   0  0  0  0  0  0  0  0  0  0  0  0
  -28.4097  -14.2223   23.0538 N   0  0  0  0  0  0  0  0  0  0  0  0
  -20.0141  -17.0229   21.3446 N   0  0  0  0  0  0  0  0  0  0  0  0
  -28.3533  -28.5684   19.7305 N   0  0  0  0  0  0  0  0  0  0  0  0
  -18.0941  -22.9348   22.8267 N   0  0  0  0  0  0  0  0  0  0  0  0
  -25.5423  -32.6101   24.0662 N   0  0  0  0  0  0  0  0  0  0  0  0
  -22.9329  -35.0757   23.6417 N   0  3  0  0  0  0  0  0  0  0  0  0
  -26.9134  -12.7077   23.9058 O   0  0  0  0  0  0  0  0  0  0  0  0
  -26.6096  -27.8714   21.1075 O   0  0  0  0  0  0  0  0  0  0  0  0
  -27.6286  -31.6858   22.3338 O   0  0  0  0  0  0  0  0  0  0  0  0
  -17.7374  -23.5361   20.6130 O   0  0  0  0  0  0  0  0  0  0  0  0
  -23.2434  -32.3075   24.0379 O   0  0  0  0  0  0  0  0  0  0  0  0
  -18.6049  -15.9950   19.8151 O   0  0  0  0  0  0  0  0  0  0  0  0
  -30.6653  -18.2848   19.9808 O   0  0  0  0  0  0  0  0  0  0  0  0
  -20.6085  -27.6447   19.8347 O   0  0  0  0  0  0  0  0  0  1  0  0
  -29.8888  -23.7082   19.3585 F   0  0  0  0  0  0  0  0  0  0  0  0
  -31.9849  -20.1008   21.5943 F   0  0  0  0  0  0  0  0  0  0  0  0
  1  2  1  0  0  0  0
  1  5  2  0  0  0  0
  2  6  2  0  0  0  0
  3 12  2  0  0  0  0
  3 19  1  0  0  0  0
  4 13  1  0  0  0  0
  4 19  2  0  0  0  0
  5 21  1  0  0  0  0
  6 23  1  0  0  0  0
  7 14  2  0  0  0  0
  7 22  1  0  0  0  0
  8 10  2  0  0  0  0
  8 25  1  0  0  0  0
  9 11  1  0  0  0  0
  9 25  2  0  0  0  0
 10 26  1  0  0  0  0
 11 26  2  0  0  0  0
 12 27  1  0  0  0  0
 13 27  2  0  0  0  0
 14 28  1  0  0  0  0
 15 16  2  0  0  0  0
 15 29  1  0  0  0  0
 16 30  1  0  0  0  0
 17 24  1  0  0  0  0
 17 28  2  0  0  0  0
 18 30  2  0  0  0  0
 18 31  1  0  0  0  0
 19 32  1  0  0  0  0
 20 32  1  0  0  0  0
 20 33  2  0  0  0  0
 20 34  1  0  0  0  0
 21 23  2  0  0  0  0
 21 40  1  0  0  0  0
 22 24  2  0  0  0  0
 22 41  1  0  0  0  0
 23 49  1  0  0  0  0
 24 42  1  0  0  0  0
 25 57  1  0  0  0  0
 26 70  1  0  0  0  0
 27 81  1  0  0  0  0
 28 82  1  0  0  0  0
 29 31  2  0  0  0  0
 29 81  1  0  0  0  0
 30 83  1  0  0  0  0
 31 84  1  0  0  0  0
 32 64  2  0  0  0  0
 33 65  1  0  0  0  0
 33 68  1  0  0  0  0
 34 69  1  0  0  0  0
 34 75  2  0  0  0  0
 35 50  1  0  0  0  0
 35 71  1  0  0  0  0
 35 76  2  0  0  0  0
 36 61  1  0  0  0  0
 36 66  1  0  0  0  0
 36 77  2  0  0  0  0
 37 58  1  0  0  0  0
 37 72  1  0  0  0  0
 37 78  2  0  0  0  0
 38 62  1  0  0  0  0
 38 73  1  0  0  0  0
 38 79  2  0  0  0  0
 39 67  1  0  0  0  0
 39 70  1  0  0  0  0
 39 80  2  0  0  0  0
 40 43  1  0  0  0  0
 41 50  1  0  0  0  0
 42 66  1  0  0  0  0
 43 45  1  0  0  0  0
 44 46  1  0  0  0  0
 44 47  1  0  0  0  0
 45 49  1  0  0  0  0
 46 51  1  0  0  0  0
 47 67  1  0  0  0  0
 48 51  1  0  0  0  0
 48 67  1  0  0  0  0
 49 71  1  0  0  0  0
 50 66  1  0  0  0  0
 51 65  1  0  0  0  0
 52 62  1  0  0  0  0
 53 63  1  0  0  0  0
 54 63  1  0  0  0  0
 55 63  1  0  0  0  0
 56 74  1  0  0  0  0
 57 72  1  0  0  0  0
 58 59  1  0  0  0  0
 59 60  1  0  0  0  0
 60 82  1  0  0  0  0
 61 63  1  0  0  0  0
 61 73  1  0  0  0  0
 62 74  1  0  0  0  0
 64 65  1  0  0  0  0
M  CHG  1  74   1
M  ISO  4  39 100  60 101  70 100  82 101
M  END
> <Batch ID>
0056

> <Smiles>
CNC(C)C(=O)NC(C(=O)N1Cc2cc([101O:1][101CH2:1]CCC(=O)NCc3ccc([100NH:0][100C:0](=O)N4CCCC(n5nc(-c6ccc(Oc7ccc(F)cc7F)cc6)c(C(N)=O)c5N)C4)cc3)ccc2CC1C(=O)NC1CCCc2ccccc21)C(C)(C)C

> <Shape>
0.241

> <Color>
0.066

> <Negative vol penalty>
0.000

$$$$

  -OEChem-04042322523D

 84 92  0     1  0  0  0  0  0999 V2000
  -23.1715  -18.7593   23.8205 C   0  0  0  0  0  0  0  0  0  0  0  0
  -24.4848  -18.8571   24.2688 C   0  0  0  0  0  0  0  0  0  0  0  0
  -23.0734   -9.8699   19.9416 C   0  0  0  0  0  0  0  0  0  0  0  0
  -23.8314   -9.8779   22.2356 C   0  0  0  0  0  0  0  0  0  0  0  0
  -22.3349  -19.8736   23.8687 C   0  0  0  0  0  0  0  0  0  0  0  0
  -24.9627  -20.0697   24.7645 C   0  0  0  0  0  0  0  0  0  0  0  0
  -27.6245  -19.5086   29.0359 C   0  0  0  0  0  0  0  0  0  0  0  0
  -22.3284   -8.7175   20.1917 C   0  0  0  0  0  0  0  0  0  0  0  0
  -23.0863   -8.7256   22.4858 C   0  0  0  0  0  0  0  0  0  0  0  0
  -28.9355  -19.0502   28.9136 C   0  0  0  0  0  0  0  0  0  0  0  0
  -19.3782   -7.9245   21.6411 C   0  0  0  0  0  0  0  0  0  0  0  0
  -18.0717   -7.8790   21.1548 C   0  0  0  0  0  0  0  0  0  0  0  0
  -29.7415  -21.3120   29.1452 C   0  0  0  0  0  0  0  0  0  0  0  0
  -29.8804  -17.4567   23.1397 C   0  0  0  0  0  0  0  0  0  0  0  0
  -32.0640  -16.6054   22.5526 C   0  0  0  0  0  0  0  0  0  0  0  0
  -18.6309   -5.9345   19.8344 C   0  0  0  0  0  0  0  0  0  0  0  0
  -23.8250  -10.4501   20.9635 C   0  0  0  0  0  0  0  0  0  0  0  0
  -31.8540  -18.3572   24.2031 C   0  0  0  0  0  0  0  0  0  0  0  0
  -24.1690  -12.9748   20.8419 C   0  0  0  0  0  0  0  0  0  0  0  0
  -22.7998  -21.0979   24.3742 C   0  0  0  0  0  0  0  0  0  0  0  0
  -27.3612  -20.8758   29.2031 C   0  0  0  0  0  0  0  0  0  0  0  0
  -24.1319  -21.2018   24.8182 C   0  0  0  0  0  0  0  0  0  0  0  0
  -28.4264  -21.7849   29.2720 C   0  0  0  0  0  0  0  0  0  0  0  0
  -30.4683  -18.3407   24.0443 C   0  0  0  0  0  0  0  0  0  0  0  0
  -30.6783  -16.5889   22.3938 C   0  0  0  0  0  0  0  0  0  0  0  0
  -22.3348   -8.1454   21.4638 C   0  0  0  0  0  0  0  0  0  0  0  0
  -29.9941  -19.9523   28.9654 C   0  0  0  0  0  0  0  0  0  0  0  0
  -20.3112   -6.9750   21.2240 C   0  0  0  0  0  0  0  0  0  0  0  0
  -17.6981   -6.8840   20.2515 C   0  0  0  0  0  0  0  0  0  0  0  0
  -32.6519  -17.4896   23.4573 C   0  0  0  0  0  0  0  0  0  0  0  0
  -19.9375   -5.9800   20.3207 C   0  0  0  0  0  0  0  0  0  0  0  0
  -24.5953  -11.6401   20.7055 C   0  0  0  0  0  0  0  0  0  0  0  0
  -25.2621  -13.7231   20.4790 C   0  0  0  0  0  0  0  0  0  0  0  0
  -32.5022  -19.2895   25.1611 C   0  0  0  0  0  0  0  0  0  0  0  0
  -22.8986  -13.4920   21.2594 C   0  0  0  0  0  0  0  0  0  0  0  0
  -25.7957  -23.0796   27.5309 C   0  0  0  0  0  0  0  0  0  0  0  0
  -26.4216  -24.9295   30.1210 C   0  0  0  0  0  0  0  0  0  0  0  0
  -28.3867  -25.5297   32.8458 C   0  0  0  0  0  0  0  0  0  0  0  0
  -30.7290  -14.7643   20.6576 C   0  0  0  0  0  0  0  0  0  0  0  0
  -21.8725  -22.2873   24.3625 C   0  0  0  0  0  0  0  0  0  0  0  0
  -25.9428  -21.3510   29.3603 C   0  0  0  0  0  0  0  0  0  0  0  0
  -28.1982  -23.2604   29.4704 C   0  0  0  0  0  0  0  0  0  0  0  0
  -22.3443  -23.4362   25.2499 C   0  0  0  0  0  0  0  0  0  0  0  0
  -29.6146  -12.3497   18.2902 C   0  0  0  0  0  0  0  0  0  0  0  0
  -23.8266  -23.7141   25.0205 C   0  0  0  0  0  0  0  0  0  0  0  0
  -28.1743  -12.0596   18.7187 C   0  0  0  0  0  0  0  0  0  0  0  0
  -30.5289  -12.5786   19.4924 C   0  0  0  0  0  0  0  0  0  0  0  0
  -28.6213  -13.3057   20.8715 C   0  0  0  0  0  0  0  0  0  0  0  0
  -24.6797  -22.4933   25.3858 C   0  0  1  0  0  0  0  0  0  0  0  0
  -25.7645  -22.8255   29.0115 C   0  0  1  0  0  0  0  0  0  0  0  0
  -27.6494  -13.1324   19.6930 C   0  0  2  0  0  0  0  0  0  0  0  0
  -29.5901  -19.2593   24.8300 C   0  0  0  0  0  0  0  0  0  0  0  0
  -28.6744  -27.1369   34.7515 C   0  0  0  0  0  0  0  0  0  0  0  0
  -27.6424  -26.9719   28.2110 C   0  0  0  0  0  0  0  0  0  0  0  0
  -28.7336  -28.0609   30.1838 C   0  0  0  0  0  0  0  0  0  0  0  0
  -26.2456  -27.9561   30.0371 C   0  0  0  0  0  0  0  0  0  0  0  0
  -27.9505  -23.4032   34.8574 C   0  0  0  0  0  0  0  0  0  0  0  0
  -33.2652  -19.6050   27.5008 C   0  0  0  0  0  0  0  0  0  0  0  0
  -32.2208  -20.4021   28.2617 C   0  0  0  0  0  0  0  0  0  1  0  0
  -27.5479  -25.8465   30.5327 C   0  0  1  0  0  0  0  0  0  0  0  0
  -28.0382  -25.8344   34.2916 C   0  0  2  0  0  0  0  0  0  0  0  0
  -27.5469  -27.1813   29.7355 C   0  0  0  0  0  0  0  0  0  0  0  0
  -25.8604  -11.5429   20.2884 N   0  0  0  0  0  0  0  0  0  0  0  0
  -26.2385  -12.8261   20.1595 N   0  0  0  0  0  0  0  0  0  0  0  0
  -26.7932  -23.6768   29.6126 N   0  0  0  0  0  0  0  0  0  0  0  0
  -29.9700  -13.6105   20.3686 N   0  0  0  0  0  0  0  0  0  0  0  0
  -25.4737  -15.0544   20.4052 N   0  0  0  0  0  0  0  0  0  0  0  0
  -21.8856  -12.5839   21.5965 N   0  0  0  0  0  0  0  0  0  0  0  0
  -30.0817  -15.6905   21.4748 N   0  0  0  0  0  0  0  0  0  0  0  0
  -32.6757  -18.8127   26.4544 N   0  0  0  0  0  0  0  0  0  0  0  0
  -24.8290  -22.3924   26.8217 N   0  0  0  0  0  0  0  0  0  0  0  0
  -27.4311  -26.0133   31.9774 N   0  0  0  0  0  0  0  0  0  0  0  0
  -28.5155  -24.7384   35.1815 N   0  3  0  0  0  0  0  0  0  0  0  0
  -32.8255  -20.4117   24.7808 O   0  0  0  0  0  0  0  0  0  0  0  0
  -22.6633  -14.7229   21.3156 O   0  0  0  0  0  0  0  0  0  0  0  0
  -26.6336  -23.8436   27.0665 O   0  0  0  0  0  0  0  0  0  0  0  0
  -25.2549  -25.3079   30.2524 O   0  0  0  0  0  0  0  0  0  0  0  0
  -29.4066  -24.9266   32.5194 O   0  0  0  0  0  0  0  0  0  0  0  0
  -31.8586  -14.9318   20.1908 O   0  0  0  0  0  0  0  0  0  0  0  0
  -21.6077   -7.0211   21.7084 O   0  0  0  0  0  0  0  0  0  0  0  0
  -31.2746  -19.5076   28.8456 O   0  0  0  0  0  0  0  0  0  1  0  0
  -16.4430   -6.8395   19.7857 F   0  0  0  0  0  0  0  0  0  0  0  0
  -33.9848  -17.4955   23.6011 F   0  0  0  0  0  0  0  0  0  0  0  0
  -20.8290   -5.0644   19.9173 F   0  0  0  0  0  0  0  0  0  0  0  0
  1  2  1  0  0  0  0
  1  5  2  0  0  0  0
  2  6  2  0  0  0  0
  3  8  2  0  0  0  0
  3 17  1  0  0  0  0
  4  9  1  0  0  0  0
  4 17  2  0  0  0  0
  5 20  1  0  0  0  0
  6 22  1  0  0  0  0
  7 10  2  0  0  0  0
  7 21  1  0  0  0  0
  8 26  1  0  0  0  0
  9 26  2  0  0  0  0
 10 27  1  0  0  0  0
 11 12  2  0  0  0  0
 11 28  1  0  0  0  0
 12 29  1  0  0  0  0
 13 23  1  0  0  0  0
 13 27  2  0  0  0  0
 14 24  2  0  0  0  0
 14 25  1  0  0  0  0
 15 25  2  0  0  0  0
 15 30  1  0  0  0  0
 16 29  2  0  0  0  0
 16 31  1  0  0  0  0
 17 32  1  0  0  0  0
 18 24  1  0  0  0  0
 18 30  2  0  0  0  0
 18 34  1  0  0  0  0
 19 32  1  0  0  0  0
 19 33  2  0  0  0  0
 19 35  1  0  0  0  0
 20 22  2  0  0  0  0
 20 40  1  0  0  0  0
 21 23  2  0  0  0  0
 21 41  1  0  0  0  0
 22 49  1  0  0  0  0
 23 42  1  0  0  0  0
 24 52  1  0  0  0  0
 25 69  1  0  0  0  0
 26 80  1  0  0  0  0
 27 81  1  0  0  0  0
 28 31  2  0  0  0  0
 28 80  1  0  0  0  0
 29 82  1  0  0  0  0
 30 83  1  0  0  0  0
 31 84  1  0  0  0  0
 32 63  2  0  0  0  0
 33 64  1  0  0  0  0
 33 67  1  0  0  0  0
 34 70  1  0  0  0  0
 34 74  2  0  0  0  0
 35 68  1  0  0  0  0
 35 75  2  0  0  0  0
 36 50  1  0  0  0  0
 36 71  1  0  0  0  0
 36 76  2  0  0  0  0
 37 60  1  0  0  0  0
 37 65  1  0  0  0  0
 37 77  2  0  0  0  0
 38 61  1  0  0  0  0
 38 72  1  0  0  0  0
 38 78  2  0  0  0  0
 39 66  1  0  0  0  0
 39 69  1  0  0  0  0
 39 79  2  0  0  0  0
 40 43  1  0  0  0  0
 41 50  1  0  0  0  0
 42 65  1  0  0  0  0
 43 45  1  0  0  0  0
 44 46  1  0  0  0  0
 44 47  1  0  0  0  0
 45 49  1  0  0  0  0
 46 51  1  0  0  0  0
 47 66  1  0  0  0  0
 48 51  1  0  0  0  0
 48 66  1  0  0  0  0
 49 71  1  0  0  0  0
 50 65  1  0  0  0  0
 51 64  1  0  0  0  0
 53 61  1  0  0  0  0
 54 62  1  0  0  0  0
 55 62  1  0  0  0  0
 56 62  1  0  0  0  0
 57 73  1  0  0  0  0
 58 59  1  0  0  0  0
 58 70  1  0  0  0  0
 59 81  1  0  0  0  0
 60 62  1  0  0  0  0
 60 72  1  0  0  0  0
 61 73  1  0  0  0  0
 63 64  1  0  0  0  0
M  CHG  1  73   1
M  ISO  4  39 100  59 101  69 100  81 101
M  END
> <Batch ID>
0056

> <Smiles>
CNC(C)C(=O)NC(C(=O)N1Cc2cc([101O:1][101CH2:1]CNC(=O)c3c(C)cc([100NH:0][100C:0](=O)N4CCCC(n5nc(-c6ccc(Oc7ccc(F)cc7F)cc6)c(C(N)=O)c5N)C4)cc3F)ccc2CC1C(=O)NC1CCCc2ccccc21)C(C)(C)C

> <Shape>
0.146

> <Color>
0.191

> <Negative vol penalty>
0.000

$$$$

  -OEChem-04042322523D

 86 94  0     1  0  0  0  0  0999 V2000
  -16.9720  -26.3214   22.1870 C   0  0  0  0  0  0  0  0  0  0  0  0
  -18.2290  -25.9828   21.6962 C   0  0  0  0  0  0  0  0  0  0  0  0
  -30.1557  -25.2849   18.0102 C   0  0  0  0  0  0  0  0  0  0  0  0
  -29.6383  -25.5734   19.2730 C   0  0  0  0  0  0  0  0  0  0  0  0
  -25.9445  -13.6753   21.8954 C   0  0  0  0  0  0  0  0  0  0  0  0
  -24.7749  -14.9590   20.2157 C   0  0  0  0  0  0  0  0  0  0  0  0
  -16.8124  -27.4732   22.9562 C   0  0  0  0  0  0  0  0  0  0  0  0
  -19.3269  -26.7966   21.9734 C   0  0  0  0  0  0  0  0  0  0  0  0
  -23.4124  -24.1426   23.3553 C   0  0  0  0  0  0  0  0  0  0  0  0
  -30.4103  -23.9626   17.6463 C   0  0  0  0  0  0  0  0  0  0  0  0
  -29.3757  -24.5397   20.1720 C   0  0  0  0  0  0  0  0  0  0  0  0
  -24.9225  -12.7262   21.8818 C   0  0  0  0  0  0  0  0  0  0  0  0
  -23.7528  -14.0099   20.2021 C   0  0  0  0  0  0  0  0  0  0  0  0
  -24.1394  -23.5192   22.3420 C   0  0  0  0  0  0  0  0  0  0  0  0
  -22.7958   -9.7816   22.0275 C   0  0  0  0  0  0  0  0  0  0  0  0
  -23.1610   -8.4356   22.0022 C   0  0  0  0  0  0  0  0  0  0  0  0
  -25.7460  -25.3179   22.3966 C   0  0  0  0  0  0  0  0  0  0  0  0
  -24.3185   -8.7890   19.9111 C   0  0  0  0  0  0  0  0  0  0  0  0
  -25.8707  -14.7918   21.0624 C   0  0  0  0  0  0  0  0  0  0  0  0
  -28.0855  -15.7855   20.2783 C   0  0  0  0  0  0  0  0  0  0  0  0
  -17.9106  -28.2963   23.2511 C   0  0  0  0  0  0  0  0  0  0  0  0
  -23.8416  -25.3657   23.8901 C   0  0  0  0  0  0  0  0  0  0  0  0
  -19.1815  -27.9612   22.7462 C   0  0  0  0  0  0  0  0  0  0  0  0
  -25.0241  -25.9534   23.4183 C   0  0  0  0  0  0  0  0  0  0  0  0
  -30.1478  -22.9289   18.5452 C   0  0  0  0  0  0  0  0  0  0  0  0
  -29.6304  -23.2174   19.8081 C   0  0  0  0  0  0  0  0  0  0  0  0
  -23.8266  -12.8935   21.0352 C   0  0  0  0  0  0  0  0  0  0  0  0
  -25.3049  -24.1083   21.8605 C   0  0  0  0  0  0  0  0  0  0  0  0
  -23.1919  -10.6312   20.9945 C   0  0  0  0  0  0  0  0  0  0  0  0
  -23.9223   -7.9393   20.9440 C   0  0  0  0  0  0  0  0  0  0  0  0
  -23.9533  -10.1349   19.9364 C   0  0  0  0  0  0  0  0  0  0  0  0
  -26.9259  -15.7728   21.0764 C   0  0  0  0  0  0  0  0  0  0  0  0
  -28.7602  -16.9156   20.6709 C   0  0  0  0  0  0  0  0  0  0  0  0
  -26.4347  -21.6609   17.9869 C   0  0  0  0  0  0  0  0  0  0  0  0
  -25.9797  -22.7527   18.6175 C   0  0  0  0  0  0  0  0  0  0  0  0
  -28.5144  -14.8586   19.2719 C   0  0  0  0  0  0  0  0  0  0  0  0
  -27.1374  -21.7955   16.6782 C   0  0  0  0  0  0  0  0  0  0  0  0
  -22.6279  -28.2999   24.0349 C   0  0  0  0  0  0  0  0  0  0  0  0
  -25.2266  -28.8627   25.8929 C   0  0  0  0  0  0  0  0  0  0  0  0
  -28.4048  -27.9835   26.7721 C   0  0  0  0  0  0  0  0  0  0  0  0
  -28.8428  -22.3159   22.0247 C   0  0  0  0  0  0  0  0  0  0  0  0
  -17.6803  -29.5565   24.0471 C   0  0  0  0  0  0  0  0  0  0  0  0
  -23.0605  -26.0120   25.0013 C   0  0  0  0  0  0  0  0  0  0  0  0
  -25.5386  -27.2557   23.9731 C   0  0  0  0  0  0  0  0  0  0  0  0
  -18.9625  -30.1647   24.6094 C   0  0  0  0  0  0  0  0  0  0  0  0
  -27.9939  -20.0108   24.6021 C   0  0  0  0  0  0  0  0  0  0  0  0
  -20.0453  -30.2141   23.5361 C   0  0  0  0  0  0  0  0  0  0  0  0
  -27.7357  -18.7038   23.8489 C   0  0  0  0  0  0  0  0  0  0  0  0
  -27.5068  -21.2253   23.8137 C   0  0  0  0  0  0  0  0  0  0  0  0
  -27.7555  -20.0098   21.6854 C   0  0  0  0  0  0  0  0  0  0  0  0
  -20.4012  -28.8053   23.0462 C   0  0  1  0  0  0  0  0  0  0  0  0
  -23.3132  -27.5121   25.1153 C   0  0  1  0  0  0  0  0  0  0  0  0
  -28.2878  -18.7634   22.4111 C   0  0  2  0  0  0  0  0  0  0  0  0
  -30.2846  -28.6536   28.2935 C   0  0  0  0  0  0  0  0  0  0  0  0
  -25.8872  -31.1983   24.0440 C   0  0  0  0  0  0  0  0  0  0  0  0
  -28.1975  -31.2178   25.0086 C   0  0  0  0  0  0  0  0  0  0  0  0
  -26.2309  -31.6642   26.4769 C   0  0  0  0  0  0  0  0  0  0  0  0
  -29.2149  -21.4495   15.3971 C   0  0  0  0  0  0  0  0  0  0  0  0
  -28.3489  -25.3801   28.1785 C   0  0  0  0  0  0  0  0  0  0  0  0
  -30.4332  -21.5082   18.1242 C   0  0  0  0  0  0  0  0  0  0  0  0
  -25.2847  -22.7058   19.9399 C   0  0  0  0  0  0  0  0  0  1  0  0
  -29.1713  -20.7305   17.7586 C   0  0  0  0  0  0  0  0  0  0  0  0
  -26.6444  -29.3148   25.6394 C   0  0  1  0  0  0  0  0  0  0  0  0
  -29.0537  -27.7758   28.1286 C   0  0  2  0  0  0  0  0  0  0  0  0
  -26.7295  -30.8252   25.2802 C   0  0  0  0  0  0  0  0  0  0  0  0
  -26.8644  -16.8122   21.9129 N   0  0  0  0  0  0  0  0  0  0  0  0
  -27.9938  -17.4886   21.6427 N   0  0  0  0  0  0  0  0  0  0  0  0
  -24.7363  -27.8518   25.0541 N   0  0  0  0  0  0  0  0  0  0  0  0
  -28.0738  -21.2173   22.4634 N   0  0  0  0  0  0  0  0  0  0  0  0
  -29.9285  -17.4650   20.2763 N   0  0  0  0  0  0  0  0  0  0  0  0
  -27.7014  -13.7516   18.9931 N   0  0  0  0  0  0  0  0  0  0  0  0
  -29.3571  -22.1815   20.7355 N   0  0  0  0  0  0  0  0  0  0  0  0
  -21.2559  -28.1378   24.0045 N   0  0  0  0  0  0  0  0  0  0  0  0
  -27.4108  -28.9378   26.8221 N   0  0  0  0  0  0  0  0  0  0  0  0
  -28.4527  -21.3246   16.6328 N   0  0  0  0  0  0  0  0  0  0  0  0
  -29.4656  -26.3530   28.2934 N   0  3  0  0  0  0  0  0  0  0  0  0
  -29.5949  -14.9990   18.6503 O   0  0  0  0  0  0  0  0  0  0  0  0
  -26.5600  -22.3220   15.7258 O   0  0  0  0  0  0  0  0  0  0  0  0
  -23.2942  -29.0040   23.2853 O   0  0  0  0  0  0  0  0  0  0  0  0
  -24.5804  -29.3820   26.8063 O   0  0  0  0  0  0  0  0  0  0  0  0
  -28.7480  -27.3639   25.7676 O   0  0  0  0  0  0  0  0  0  0  0  0
  -29.0540  -23.2912   22.7500 O   0  0  0  0  0  0  0  0  0  0  0  0
  -22.8292  -11.9674   21.0215 O   0  0  0  0  0  0  0  0  0  0  0  0
  -26.0160  -23.5023   20.8711 O   0  0  0  0  0  0  0  0  0  1  0  0
  -24.2742   -6.6471   20.9207 F   0  0  0  0  0  0  0  0  0  0  0  0
  -24.3378  -10.9466   18.9419 F   0  0  0  0  0  0  0  0  0  0  0  0
  1  2  1  0  0  0  0
  1  7  2  0  0  0  0
  2  8  2  0  0  0  0
  3  4  1  0  0  0  0
  3 10  2  0  0  0  0
  4 11  2  0  0  0  0
  5 12  2  0  0  0  0
  5 19  1  0  0  0  0
  6 13  1  0  0  0  0
  6 19  2  0  0  0  0
  7 21  1  0  0  0  0
  8 23  1  0  0  0  0
  9 14  2  0  0  0  0
  9 22  1  0  0  0  0
 10 25  1  0  0  0  0
 11 26  1  0  0  0  0
 12 27  1  0  0  0  0
 13 27  2  0  0  0  0
 14 28  1  0  0  0  0
 15 16  2  0  0  0  0
 15 29  1  0  0  0  0
 16 30  1  0  0  0  0
 17 24  1  0  0  0  0
 17 28  2  0  0  0  0
 18 30  2  0  0  0  0
 18 31  1  0  0  0  0
 19 32  1  0  0  0  0
 20 32  1  0  0  0  0
 20 33  2  0  0  0  0
 20 36  1  0  0  0  0
 21 23  2  0  0  0  0
 21 42  1  0  0  0  0
 22 24  2  0  0  0  0
 22 43  1  0  0  0  0
 23 51  1  0  0  0  0
 24 44  1  0  0  0  0
 25 26  2  0  0  0  0
 25 60  1  0  0  0  0
 26 72  1  0  0  0  0
 27 83  1  0  0  0  0
 28 84  1  0  0  0  0
 29 31  2  0  0  0  0
 29 83  1  0  0  0  0
 30 85  1  0  0  0  0
 31 86  1  0  0  0  0
 32 66  2  0  0  0  0
 33 67  1  0  0  0  0
 33 70  1  0  0  0  0
 34 35  2  0  0  0  0
 34 37  1  0  0  0  0
 35 61  1  0  0  0  0
 36 71  1  0  0  0  0
 36 77  2  0  0  0  0
 37 75  1  0  0  0  0
 37 78  2  0  0  0  0
 38 52  1  0  0  0  0
 38 73  1  0  0  0  0
 38 79  2  0  0  0  0
 39 63  1  0  0  0  0
 39 68  1  0  0  0  0
 39 80  2  0  0  0  0
 40 64  1  0  0  0  0
 40 74  1  0  0  0  0
 40 81  2  0  0  0  0
 41 69  1  0  0  0  0
 41 72  1  0  0  0  0
 41 82  2  0  0  0  0
 42 45  1  0  0  0  0
 43 52  1  0  0  0  0
 44 68  1  0  0  0  0
 45 47  1  0  0  0  0
 46 48  1  0  0  0  0
 46 49  1  0  0  0  0
 47 51  1  0  0  0  0
 48 53  1  0  0  0  0
 49 69  1  0  0  0  0
 50 53  1  0  0  0  0
 50 69  1  0  0  0  0
 51 73  1  0  0  0  0
 52 68  1  0  0  0  0
 53 67  1  0  0  0  0
 54 64  1  0  0  0  0
 55 65  1  0  0  0  0
 56 65  1  0  0  0  0
 57 65  1  0  0  0  0
 58 75  1  0  0  0  0
 59 76  1  0  0  0  0
 60 62  1  0  0  0  0
 61 84  1  0  0  0  0
 62 75  1  0  0  0  0
 63 65  1  0  0  0  0
 63 74  1  0  0  0  0
 64 76  1  0  0  0  0
 66 67  1  0  0  0  0
M  CHG  1  76   1
M  ISO  4  41 100  61 101  72 100  84 101
M  END
> <Batch ID>
0056

> <Smiles>
CNC(C)C(=O)NC(C(=O)N1Cc2cc([101O:1][101CH2:1]C=CC(=O)N(C)CCc3ccccc3[100NH:0][100C:0](=O)N3CCCC(n4nc(-c5ccc(Oc6ccc(F)cc6F)cc5)c(C(N)=O)c4N)C3)ccc2CC1C(=O)NC1CCCc2ccccc21)C(C)(C)C

> <Shape>
0.250

> <Color>
0.078

> <Negative vol penalty>
0.000

$$$$

  -OEChem-04042322523D

 91100  0     1  0  0  0  0  0999 V2000
  -17.0631  -29.4404   24.5204 C   0  0  0  0  0  0  0  0  0  0  0  0
  -17.2085  -28.1741   23.9629 C   0  0  0  0  0  0  0  0  0  0  0  0
  -24.2351   -9.6103   21.9697 C   0  0  0  0  0  0  0  0  0  0  0  0
  -22.6936  -10.3726   20.2727 C   0  0  0  0  0  0  0  0  0  0  0  0
  -17.8265  -30.5039   24.0408 C   0  0  0  0  0  0  0  0  0  0  0  0
  -18.1168  -27.9709   22.9246 C   0  0  0  0  0  0  0  0  0  0  0  0
  -22.5409  -23.0011   20.2701 C   0  0  0  0  0  0  0  0  0  0  0  0
  -23.5439   -8.4018   22.0548 C   0  0  0  0  0  0  0  0  0  0  0  0
  -22.0023   -9.1640   20.3578 C   0  0  0  0  0  0  0  0  0  0  0  0
  -22.8365  -22.3515   19.0724 C   0  0  0  0  0  0  0  0  0  0  0  0
  -23.3447   -5.5172   20.3021 C   0  0  0  0  0  0  0  0  0  0  0  0
  -24.0953   -4.3419   20.3335 C   0  0  0  0  0  0  0  0  0  0  0  0
  -24.1589  -24.2458   18.3783 C   0  0  0  0  0  0  0  0  0  0  0  0
  -26.2754  -19.2977   18.2666 C   0  0  0  0  0  0  0  0  0  0  0  0
  -26.4466  -20.5357   20.3343 C   0  0  0  0  0  0  0  0  0  0  0  0
  -23.1520   -3.7973   22.4901 C   0  0  0  0  0  0  0  0  0  0  0  0
  -23.8100  -10.5957   21.0786 C   0  0  0  0  0  0  0  0  0  0  0  0
  -25.6057  -12.1473   20.1430 C   0  0  0  0  0  0  0  0  0  0  0  0
  -18.7516  -30.3115   23.0026 C   0  0  0  0  0  0  0  0  0  0  0  0
  -23.0440  -24.2847   20.5266 C   0  0  0  0  0  0  0  0  0  0  0  0
  -18.8924  -29.0331   22.4297 C   0  0  0  0  0  0  0  0  0  0  0  0
  -23.8703  -24.9085   19.5810 C   0  0  0  0  0  0  0  0  0  0  0  0
  -27.2290  -20.1344   17.6868 C   0  0  0  0  0  0  0  0  0  0  0  0
  -27.4002  -21.3723   19.7544 C   0  0  0  0  0  0  0  0  0  0  0  0
  -27.7914  -21.1717   18.4306 C   0  0  0  0  0  0  0  0  0  0  0  0
  -25.8842  -19.4984   19.5904 C   0  0  0  0  0  0  0  0  0  0  0  0
  -22.4275   -8.1786   21.2489 C   0  0  0  0  0  0  0  0  0  0  0  0
  -23.6432  -22.9749   18.1251 C   0  0  0  0  0  0  0  0  0  0  0  0
  -22.4979   -5.8326   21.3647 C   0  0  0  0  0  0  0  0  0  0  0  0
  -23.9989   -3.4819   21.4275 C   0  0  0  0  0  0  0  0  0  0  0  0
  -22.4015   -4.9727   22.4587 C   0  0  0  0  0  0  0  0  0  0  0  0
  -24.5233  -11.8445   20.9906 C   0  0  0  0  0  0  0  0  0  0  0  0
  -25.9210  -13.4505   20.4409 C   0  0  0  0  0  0  0  0  0  0  0  0
  -27.1540  -22.6263   13.6583 C   0  0  0  0  0  0  0  0  0  0  0  0
  -25.8468  -22.8708   13.7964 C   0  0  0  0  0  0  0  0  0  0  0  0
  -27.8575  -21.6736   14.5574 C   0  0  0  0  0  0  0  0  0  0  0  0
  -26.2671  -11.3242   19.1731 C   0  0  0  0  0  0  0  0  0  0  0  0
  -21.7472  -27.1403   21.0439 C   0  0  0  0  0  0  0  0  0  0  0  0
  -24.8210  -27.9989   21.6241 C   0  0  0  0  0  0  0  0  0  0  0  0
  -28.1423  -27.3863   21.1331 C   0  0  0  0  0  0  0  0  0  0  0  0
  -24.4176  -18.7099   21.4809 C   0  0  0  0  0  0  0  0  0  0  0  0
  -19.5204  -31.5015   22.4855 C   0  0  0  0  0  0  0  0  0  0  0  0
  -22.7377  -24.9610   21.8347 C   0  0  0  0  0  0  0  0  0  0  0  0
  -24.4521  -26.2776   19.8168 C   0  0  0  0  0  0  0  0  0  0  0  0
  -20.7306  -31.1225   21.6357 C   0  0  0  0  0  0  0  0  0  0  0  0
  -24.3617  -16.4356   24.2198 C   0  0  0  0  0  0  0  0  0  0  0  0
  -20.3541  -30.0491   20.6194 C   0  0  0  0  0  0  0  0  0  0  0  0
  -24.4878  -15.0633   23.5541 C   0  0  0  0  0  0  0  0  0  0  0  0
  -23.5141  -17.3947   23.3859 C   0  0  0  0  0  0  0  0  0  0  0  0
  -25.5979  -20.8106   15.1615 C   0  0  0  0  0  0  0  0  0  0  0  0
  -24.0620  -16.1676   21.3211 C   0  0  0  0  0  0  0  0  0  0  0  0
  -19.8851  -28.7675   21.3187 C   0  0  1  0  0  0  0  0  0  0  0  0
  -24.9831  -22.1632   14.7968 C   0  0  1  0  0  0  0  0  0  0  0  0
  -22.8831  -26.4783   21.7713 C   0  0  1  0  0  0  0  0  0  0  0  0
  -24.9608  -15.1873   22.0924 C   0  0  2  0  0  0  0  0  0  0  0  0
  -28.8144  -22.0684   17.8088 C   0  0  0  0  0  0  0  0  0  0  0  0
  -30.6232  -27.6429   21.4100 C   0  0  0  0  0  0  0  0  0  0  0  0
  -24.4536  -30.2288   19.5741 C   0  0  0  0  0  0  0  0  0  0  0  0
  -26.9447  -30.4630   19.4858 C   0  0  0  0  0  0  0  0  0  0  0  0
  -25.7283  -30.8928   21.6208 C   0  0  0  0  0  0  0  0  0  0  0  0
  -28.1962  -25.5183   23.4279 C   0  0  0  0  0  0  0  0  0  0  0  0
  -27.6323  -19.8976   16.2601 C   0  0  0  0  0  0  0  0  0  0  0  0
  -24.7655  -23.0405   16.0293 C   0  0  0  0  0  0  0  0  0  1  0  0
  -25.9627  -28.5186   20.7841 C   0  0  1  0  0  0  0  0  0  0  0  0
  -29.3084  -27.3198   22.1027 C   0  0  2  0  0  0  0  0  0  0  0  0
  -27.9871  -22.4756   20.5727 C   0  0  0  0  0  0  0  0  0  0  0  0
  -25.7600  -30.0008   20.3606 C   0  0  0  0  0  0  0  0  0  0  0  0
  -24.1744  -12.8726   21.7687 N   0  0  0  0  0  0  0  0  0  0  0  0
  -25.0426  -13.8341   21.4112 N   0  0  0  0  0  0  0  0  0  0  0  0
  -27.0446  -20.8764   15.3585 N   0  0  0  0  0  0  0  0  0  0  0  0
  -24.1186  -26.9005   21.1084 N   0  0  0  0  0  0  0  0  0  0  0  0
  -24.0237  -17.4647   22.0146 N   0  0  0  0  0  0  0  0  0  0  0  0
  -26.8611  -14.2943   19.9649 N   0  0  0  0  0  0  0  0  0  0  0  0
  -25.8159  -10.0095   18.9935 N   0  0  0  0  0  0  0  0  0  0  0  0
  -24.9163  -18.6480   20.1801 N   0  0  0  0  0  0  0  0  0  0  0  0
  -21.0192  -28.0215   21.8204 N   0  0  0  0  0  0  0  0  0  0  0  0
  -27.1784  -28.2780   21.5539 N   0  0  0  0  0  0  0  0  0  0  0  0
  -29.4121  -25.9563   22.6954 N   0  3  0  0  0  0  0  0  0  0  0  0
  -29.0875  -21.6522   14.5468 O   0  0  0  0  0  0  0  0  0  0  0  0
  -27.2402  -11.7369   18.4977 O   0  0  0  0  0  0  0  0  0  0  0  0
  -21.5471  -26.8726   19.8649 O   0  0  0  0  0  0  0  0  0  0  0  0
  -24.5666  -28.5427   22.7017 O   0  0  0  0  0  0  0  0  0  0  0  0
  -28.0932  -26.7172   20.1033 O   0  0  0  0  0  0  0  0  0  0  0  0
  -24.3453  -19.7505   22.1397 O   0  0  0  0  0  0  0  0  0  0  0  0
  -21.7528   -6.9994   21.3316 O   0  0  0  0  0  0  0  0  0  0  0  0
  -23.9328  -22.3433   16.9550 O   0  0  0  0  0  0  0  0  0  1  0  0
  -24.7185   -2.3526   21.4569 F   0  0  0  0  0  0  0  0  0  0  0  0
  -21.5888   -5.2697   23.4819 F   0  0  0  0  0  0  0  0  0  0  0  0
  -27.4955  -22.5317   21.8449 F   0  0  0  0  0  0  0  0  0  0  0  0
  -29.3416  -22.3860   20.7159 F   0  0  0  0  0  0  0  0  0  0  0  0
  -27.7545  -23.7069   20.0337 F   0  0  0  0  0  0  0  0  0  0  0  0
  1  2  1  0  0  0  0
  1  5  2  0  0  0  0
  2  6  2  0  0  0  0
  3  8  2  0  0  0  0
  3 17  1  0  0  0  0
  4  9  1  0  0  0  0
  4 17  2  0  0  0  0
  5 19  1  0  0  0  0
  6 21  1  0  0  0  0
  7 10  2  0  0  0  0
  7 20  1  0  0  0  0
  8 27  1  0  0  0  0
  9 27  2  0  0  0  0
 10 28  1  0  0  0  0
 11 12  2  0  0  0  0
 11 29  1  0  0  0  0
 12 30  1  0  0  0  0
 13 22  1  0  0  0  0
 13 28  2  0  0  0  0
 14 23  1  0  0  0  0
 14 26  2  0  0  0  0
 15 24  2  0  0  0  0
 15 26  1  0  0  0  0
 16 30  2  0  0  0  0
 16 31  1  0  0  0  0
 17 32  1  0  0  0  0
 18 32  1  0  0  0  0
 18 33  2  0  0  0  0
 18 37  1  0  0  0  0
 19 21  2  0  0  0  0
 19 42  1  0  0  0  0
 20 22  2  0  0  0  0
 20 43  1  0  0  0  0
 21 52  1  0  0  0  0
 22 44  1  0  0  0  0
 23 25  2  0  0  0  0
 23 62  1  0  0  0  0
 24 25  1  0  0  0  0
 24 66  1  0  0  0  0
 25 56  1  0  0  0  0
 26 75  1  0  0  0  0
 27 85  1  0  0  0  0
 28 86  1  0  0  0  0
 29 31  2  0  0  0  0
 29 85  1  0  0  0  0
 30 87  1  0  0  0  0
 31 88  1  0  0  0  0
 32 68  2  0  0  0  0
 33 69  1  0  0  0  0
 33 73  1  0  0  0  0
 34 35  2  0  0  0  0
 34 36  1  0  0  0  0
 35 53  1  0  0  0  0
 36 70  1  0  0  0  0
 36 79  2  0  0  0  0
 37 74  1  0  0  0  0
 37 80  2  0  0  0  0
 38 54  1  0  0  0  0
 38 76  1  0  0  0  0
 38 81  2  0  0  0  0
 39 64  1  0  0  0  0
 39 71  1  0  0  0  0
 39 82  2  0  0  0  0
 40 65  1  0  0  0  0
 40 77  1  0  0  0  0
 40 83  2  0  0  0  0
 41 72  1  0  0  0  0
 41 75  1  0  0  0  0
 41 84  2  0  0  0  0
 42 45  1  0  0  0  0
 43 54  1  0  0  0  0
 44 71  1  0  0  0  0
 45 47  1  0  0  0  0
 46 48  1  0  0  0  0
 46 49  1  0  0  0  0
 47 52  1  0  0  0  0
 48 55  1  0  0  0  0
 49 72  1  0  0  0  0
 50 53  1  0  0  0  0
 50 70  1  0  0  0  0
 51 55  1  0  0  0  0
 51 72  1  0  0  0  0
 52 76  1  0  0  0  0
 53 63  1  0  0  0  0
 54 71  1  0  0  0  0
 55 69  1  0  0  0  0
 57 65  1  0  0  0  0
 58 67  1  0  0  0  0
 59 67  1  0  0  0  0
 60 67  1  0  0  0  0
 61 78  1  0  0  0  0
 62 70  1  0  0  0  0
 63 86  1  0  0  0  0
 64 67  1  0  0  0  0
 64 77  1  0  0  0  0
 65 78  1  0  0  0  0
 66 89  1  0  0  0  0
 66 90  1  0  0  0  0
 66 91  1  0  0  0  0
 68 69  1  0  0  0  0
M  CHG  1  78   1
M  ISO  4  41 100  63 101  75 100  86 101
M  END
> <Batch ID>
0056

> <Smiles>
CNC(C)C(=O)NC(C(=O)N1Cc2cc([101O:1][101CH2:1]C3=CCC(=O)N(Cc4cc([100NH:0][100C:0](=O)N5CCCC(n6nc(-c7ccc(Oc8ccc(F)cc8F)cc7)c(C(N)=O)c6N)C5)cc(C(F)(F)F)c4C)C3)ccc2CC1C(=O)NC1CCCc2ccccc21)C(C)(C)C

> <Shape>
0.230

> <Color>
0.099

> <Negative vol penalty>
0.000

$$$$

  -OEChem-04042322523D

 88 96  0     1  0  0  0  0  0999 V2000
  -19.0048  -31.8041   15.3968 C   0  0  0  0  0  0  0  0  0  0  0  0
  -20.0476  -30.9000   15.5716 C   0  0  0  0  0  0  0  0  0  0  0  0
  -24.8939   -8.1830   21.0552 C   0  0  0  0  0  0  0  0  0  0  0  0
  -23.2802   -9.7115   20.1083 C   0  0  0  0  0  0  0  0  0  0  0  0
  -19.1239  -33.1061   15.8810 C   0  0  0  0  0  0  0  0  0  0  0  0
  -21.2108  -31.2979   16.2297 C   0  0  0  0  0  0  0  0  0  0  0  0
  -24.7368  -27.8639   19.8740 C   0  0  0  0  0  0  0  0  0  0  0  0
  -23.8705   -7.2793   21.3408 C   0  0  0  0  0  0  0  0  0  0  0  0
  -22.2567   -8.8079   20.3939 C   0  0  0  0  0  0  0  0  0  0  0  0
  -25.9254  -27.1712   19.6476 C   0  0  0  0  0  0  0  0  0  0  0  0
  -21.4662   -6.8996   23.6859 C   0  0  0  0  0  0  0  0  0  0  0  0
  -21.4655   -6.2990   24.9448 C   0  0  0  0  0  0  0  0  0  0  0  0
  -28.2801  -19.0622   19.2654 C   0  0  0  0  0  0  0  0  0  0  0  0
  -28.2292  -20.0182   17.0473 C   0  0  0  0  0  0  0  0  0  0  0  0
  -27.1750  -29.0460   20.5095 C   0  0  0  0  0  0  0  0  0  0  0  0
  -28.2364  -17.6187   17.3286 C   0  0  0  0  0  0  0  0  0  0  0  0
  -21.6360   -4.1238   23.9071 C   0  0  0  0  0  0  0  0  0  0  0  0
  -24.5988   -9.3991   20.4390 C   0  0  0  0  0  0  0  0  0  0  0  0
  -28.2608  -20.1807   18.4323 C   0  0  0  0  0  0  0  0  0  0  0  0
  -26.4190  -10.4083   18.9638 C   0  0  0  0  0  0  0  0  0  0  0  0
  -20.2853  -33.5173   16.5539 C   0  0  0  0  0  0  0  0  0  0  0  0
  -24.7590  -29.1593   20.4106 C   0  0  0  0  0  0  0  0  0  0  0  0
  -21.3462  -32.6071   16.7222 C   0  0  0  0  0  0  0  0  0  0  0  0
  -25.9852  -29.7520   20.7441 C   0  0  0  0  0  0  0  0  0  0  0  0
  -28.2680  -17.7812   18.7136 C   0  0  0  0  0  0  0  0  0  0  0  0
  -22.5519   -7.5918   21.0101 C   0  0  0  0  0  0  0  0  0  0  0  0
  -27.1449  -27.7634   19.9626 C   0  0  0  0  0  0  0  0  0  0  0  0
  -21.5516   -6.1123   22.5376 C   0  0  0  0  0  0  0  0  0  0  0  0
  -21.5505   -4.9111   25.0554 C   0  0  0  0  0  0  0  0  0  0  0  0
  -28.2171  -18.7372   16.4954 C   0  0  0  0  0  0  0  0  0  0  0  0
  -21.6366   -4.7244   22.6482 C   0  0  0  0  0  0  0  0  0  0  0  0
  -25.6555  -10.3332   20.1442 C   0  0  0  0  0  0  0  0  0  0  0  0
  -27.2823  -11.4546   19.1793 C   0  0  0  0  0  0  0  0  0  0  0  0
  -29.6292  -23.2409   22.9176 C   0  0  0  0  0  0  0  0  0  0  0  0
  -30.1752  -23.0224   21.7157 C   0  0  0  0  0  0  0  0  0  0  0  0
  -29.5829  -25.2547   18.9476 C   0  0  0  0  0  0  0  0  0  0  0  0
  -28.2749  -21.5371   19.0158 C   0  0  0  0  0  0  0  0  0  0  0  0
  -26.3535   -9.6043   17.7785 C   0  0  0  0  0  0  0  0  0  0  0  0
  -30.1533  -24.1528   19.4764 C   0  0  0  0  0  0  0  0  0  0  0  0
  -23.8305  -32.0244   19.3945 C   0  0  0  0  0  0  0  0  0  0  0  0
  -24.6382  -32.9231   22.4049 C   0  0  0  0  0  0  0  0  0  0  0  0
  -26.4737  -32.3127   25.2165 C   0  0  0  0  0  0  0  0  0  0  0  0
  -28.3165  -16.6299   20.9538 C   0  0  0  0  0  0  0  0  0  0  0  0
  -20.3871  -34.9488   17.0179 C   0  0  0  0  0  0  0  0  0  0  0  0
  -23.4668  -29.8826   20.6737 C   0  0  0  0  0  0  0  0  0  0  0  0
  -26.0623  -31.1325   21.3413 C   0  0  0  0  0  0  0  0  0  0  0  0
  -21.5023  -35.1819   18.0339 C   0  0  0  0  0  0  0  0  0  0  0  0
  -28.3318  -14.0433   23.4005 C   0  0  0  0  0  0  0  0  0  0  0  0
  -22.7929  -34.5120   17.5731 C   0  0  0  0  0  0  0  0  0  0  0  0
  -27.6997  -12.8537   22.6743 C   0  0  0  0  0  0  0  0  0  0  0  0
  -27.6814  -15.3652   22.9964 C   0  0  0  0  0  0  0  0  0  0  0  0
  -26.9977  -14.4255   20.8241 C   0  0  0  0  0  0  0  0  0  0  0  0
  -22.6138  -32.9938   17.4526 C   0  0  1  0  0  0  0  0  0  0  0  0
  -23.6338  -31.3973   20.7457 C   0  0  1  0  0  0  0  0  0  0  0  0
  -27.6633  -13.0785   21.1500 C   0  0  2  0  0  0  0  0  0  0  0  0
  -31.5847  -23.8226   19.1239 C   0  0  0  0  0  0  0  0  0  0  0  0
  -26.9520  -33.2434   27.4974 C   0  0  0  0  0  0  0  0  0  0  0  0
  -26.4075  -35.0716   21.1545 C   0  0  0  0  0  0  0  0  0  0  0  0
  -27.5528  -35.3175   23.3672 C   0  0  0  0  0  0  0  0  0  0  0  0
  -25.1181  -35.8203   23.1624 C   0  0  0  0  0  0  0  0  0  0  0  0
  -25.4431  -29.8810   26.5520 C   0  0  0  0  0  0  0  0  0  0  0  0
  -28.2022  -25.7800   19.1854 C   0  0  0  0  0  0  0  0  0  1  0  0
  -29.4396  -23.2025   20.4182 C   0  0  1  0  0  0  0  0  0  0  0  0
  -25.8995  -33.4176   23.0708 C   0  0  1  0  0  0  0  0  0  0  0  0
  -26.0896  -32.2900   26.6850 C   0  0  2  0  0  0  0  0  0  0  0  0
  -26.2435  -34.8815   22.6757 C   0  0  0  0  0  0  0  0  0  0  0  0
  -26.0034  -11.2579   21.0430 N   0  0  0  0  0  0  0  0  0  0  0  0
  -26.9949  -11.9240   20.4272 N   0  0  0  0  0  0  0  0  0  0  0  0
  -24.7718  -31.8017   21.5738 N   0  0  0  0  0  0  0  0  0  0  0  0
  -27.6866  -15.5113   21.5391 N   0  0  0  0  0  0  0  0  0  0  0  0
  -28.2517  -12.0095   18.4212 N   0  0  0  0  0  0  0  0  0  0  0  0
  -27.2503  -22.3467   18.7482 N   0  0  0  0  0  0  0  0  0  0  0  0
  -25.4082   -8.5710   17.7234 N   0  0  0  0  0  0  0  0  0  0  0  0
  -28.2863  -16.6448   19.5597 N   0  0  0  0  0  0  0  0  0  0  0  0
  -22.6540  -32.3748   18.7602 N   0  0  0  0  0  0  0  0  0  0  0  0
  -25.7118  -33.2137   24.5032 N   0  0  0  0  0  0  0  0  0  0  0  0
  -29.3139  -21.8826   19.7789 N   0  3  0  0  0  0  0  0  0  0  0  0
  -26.2534  -30.9174   27.2420 N   0  3  0  0  0  0  0  0  0  0  0  0
  -27.1219   -9.7859   16.8038 O   0  0  0  0  0  0  0  0  0  0  0  0
  -24.9658  -32.1803   18.9602 O   0  0  0  0  0  0  0  0  0  0  0  0
  -23.5724  -33.5057   22.6199 O   0  0  0  0  0  0  0  0  0  0  0  0
  -27.3634  -31.6048   24.7497 O   0  0  0  0  0  0  0  0  0  0  0  0
  -28.8677  -17.4961   21.6379 O   0  0  0  0  0  0  0  0  0  0  0  0
  -21.5529   -6.7101   21.2885 O   0  0  0  0  0  0  0  0  0  0  0  0
  -28.3066  -27.0898   19.7420 O   0  0  0  0  0  0  0  0  0  1  0  0
  -21.5514   -4.3346   26.2645 F   0  0  0  0  0  0  0  0  0  0  0  0
  -28.1868  -18.5813   15.1654 F   0  0  0  0  0  0  0  0  0  0  0  0
  -21.7201   -3.9630   21.5487 F   0  0  0  0  0  0  0  0  0  0  0  0
  1  2  1  0  0  0  0
  1  5  2  0  0  0  0
  2  6  2  0  0  0  0
  3  8  2  0  0  0  0
  3 18  1  0  0  0  0
  4  9  1  0  0  0  0
  4 18  2  0  0  0  0
  5 21  1  0  0  0  0
  6 23  1  0  0  0  0
  7 10  2  0  0  0  0
  7 22  1  0  0  0  0
  8 26  1  0  0  0  0
  9 26  2  0  0  0  0
 10 27  1  0  0  0  0
 11 12  2  0  0  0  0
 11 28  1  0  0  0  0
 12 29  1  0  0  0  0
 13 19  2  0  0  0  0
 13 25  1  0  0  0  0
 14 19  1  0  0  0  0
 14 30  2  0  0  0  0
 15 24  1  0  0  0  0
 15 27  2  0  0  0  0
 16 25  2  0  0  0  0
 16 30  1  0  0  0  0
 17 29  2  0  0  0  0
 17 31  1  0  0  0  0
 18 32  1  0  0  0  0
 19 37  1  0  0  0  0
 20 32  1  0  0  0  0
 20 33  2  0  0  0  0
 20 38  1  0  0  0  0
 21 23  2  0  0  0  0
 21 44  1  0  0  0  0
 22 24  2  0  0  0  0
 22 45  1  0  0  0  0
 23 53  1  0  0  0  0
 24 46  1  0  0  0  0
 25 74  1  0  0  0  0
 26 84  1  0  0  0  0
 27 85  1  0  0  0  0
 28 31  2  0  0  0  0
 28 84  1  0  0  0  0
 29 86  1  0  0  0  0
 30 87  1  0  0  0  0
 31 88  1  0  0  0  0
 32 67  2  0  0  0  0
 33 68  1  0  0  0  0
 33 71  1  0  0  0  0
 34 35  2  0  0  0  0
 35 63  1  0  0  0  0
 36 39  2  0  0  0  0
 36 62  1  0  0  0  0
 37 72  1  0  0  0  0
 37 77  2  0  0  0  0
 38 73  1  0  0  0  0
 38 79  2  0  0  0  0
 39 56  1  0  0  0  0
 39 63  1  0  0  0  0
 40 54  1  0  0  0  0
 40 75  1  0  0  0  0
 40 80  2  0  0  0  0
 41 64  1  0  0  0  0
 41 69  1  0  0  0  0
 41 81  2  0  0  0  0
 42 65  1  0  0  0  0
 42 76  1  0  0  0  0
 42 82  2  0  0  0  0
 43 70  1  0  0  0  0
 43 74  1  0  0  0  0
 43 83  2  0  0  0  0
 44 47  1  0  0  0  0
 45 54  1  0  0  0  0
 46 69  1  0  0  0  0
 47 49  1  0  0  0  0
 48 50  1  0  0  0  0
 48 51  1  0  0  0  0
 49 53  1  0  0  0  0
 50 55  1  0  0  0  0
 51 70  1  0  0  0  0
 52 55  1  0  0  0  0
 52 70  1  0  0  0  0
 53 75  1  0  0  0  0
 54 69  1  0  0  0  0
 55 68  1  0  0  0  0
 57 65  1  0  0  0  0
 58 66  1  0  0  0  0
 59 66  1  0  0  0  0
 60 66  1  0  0  0  0
 61 78  1  0  0  0  0
 62 85  1  0  0  0  0
 63 77  1  0  0  0  0
 64 66  1  0  0  0  0
 64 76  1  0  0  0  0
 65 78  1  0  0  0  0
 67 68  1  0  0  0  0
M  CHG  2  77   1  78   1
M  ISO  4  43 100  62 101  74 100  85 101
M  END
> <Batch ID>
0056

> <Smiles>
C=CC(NC(=N)c1cc(F)cc([100NH:0][100C:0](=O)N2CCCC(n3nc(-c4ccc(Oc5ccc(F)cc5F)cc4)c(C(N)=O)c3N)C2)c1)C(C)=C[101CH2:1][101O:1]c1ccc2c(c1)CN(C(=O)C(NC(=O)C(C)NC)C(C)(C)C)C(C(=O)NC1CCCc3ccccc31)C2

> <Shape>
0.318

> <Color>
0.116

> <Negative vol penalty>
0.000

$$$$

  -OEChem-04042322523D

 90 98  0     1  0  0  0  0  0999 V2000
  -24.8622  -25.2850   28.0183 C   0  0  0  0  0  0  0  0  0  0  0  0
  -26.0511  -24.8984   27.4082 C   0  0  0  0  0  0  0  0  0  0  0  0
  -23.0722   -9.8708   19.9436 C   0  0  0  0  0  0  0  0  0  0  0  0
  -23.8298   -9.8804   22.2378 C   0  0  0  0  0  0  0  0  0  0  0  0
  -23.7580  -25.6252   27.2380 C   0  0  0  0  0  0  0  0  0  0  0  0
  -26.1362  -24.8506   26.0172 C   0  0  0  0  0  0  0  0  0  0  0  0
  -30.4117  -26.9189   24.2602 C   0  0  0  0  0  0  0  0  0  0  0  0
  -32.6548  -17.4878   23.4542 C   0  0  0  0  0  0  0  0  0  0  0  0
  -32.0666  -16.6031   22.5503 C   0  0  0  0  0  0  0  0  0  0  0  0
  -22.3264   -8.7192   20.1947 C   0  0  0  0  0  0  0  0  0  0  0  0
  -23.0840   -8.7287   22.4889 C   0  0  0  0  0  0  0  0  0  0  0  0
  -31.5733  -26.1532   24.3503 C   0  0  0  0  0  0  0  0  0  0  0  0
  -20.5077   -5.5707   20.1395 C   0  0  0  0  0  0  0  0  0  0  0  0
  -20.5704   -4.5387   19.2033 C   0  0  0  0  0  0  0  0  0  0  0  0
  -31.3475  -25.5478   22.0262 C   0  0  0  0  0  0  0  0  0  0  0  0
  -29.8834  -17.4560   23.1363 C   0  0  0  0  0  0  0  0  0  0  0  0
  -22.9546   -4.3657   19.5537 C   0  0  0  0  0  0  0  0  0  0  0  0
  -23.8240  -10.4514   20.9652 C   0  0  0  0  0  0  0  0  0  0  0  0
  -24.1696  -12.9759   20.8415 C   0  0  0  0  0  0  0  0  0  0  0  0
  -23.8325  -25.5909   25.8366 C   0  0  0  0  0  0  0  0  0  0  0  0
  -29.7020  -26.9962   23.0532 C   0  0  0  0  0  0  0  0  0  0  0  0
  -25.0316  -25.1893   25.2173 C   0  0  0  0  0  0  0  0  0  0  0  0
  -30.1785  -26.3172   21.9226 C   0  0  0  0  0  0  0  0  0  0  0  0
  -31.8572  -18.3565   24.1992 C   0  0  0  0  0  0  0  0  0  0  0  0
  -30.6809  -16.5872   22.3913 C   0  0  0  0  0  0  0  0  0  0  0  0
  -30.4716  -18.3406   24.0402 C   0  0  0  0  0  0  0  0  0  0  0  0
  -22.3323   -8.1481   21.4673 C   0  0  0  0  0  0  0  0  0  0  0  0
  -32.0398  -25.4652   23.2340 C   0  0  0  0  0  0  0  0  0  0  0  0
  -21.6685   -6.0003   20.7828 C   0  0  0  0  0  0  0  0  0  0  0  0
  -21.7939   -3.9362   18.9104 C   0  0  0  0  0  0  0  0  0  0  0  0
  -22.8919   -5.3978   20.4900 C   0  0  0  0  0  0  0  0  0  0  0  0
  -24.5951  -11.6408   20.7063 C   0  0  0  0  0  0  0  0  0  0  0  0
  -25.2632  -13.7232   20.4781 C   0  0  0  0  0  0  0  0  0  0  0  0
  -26.4580  -20.6120   25.7889 C   0  0  0  0  0  0  0  0  0  0  0  0
  -27.7658  -20.3572   25.6816 C   0  0  0  0  0  0  0  0  0  0  0  0
  -33.6750  -21.3076   23.4246 C   0  0  0  0  0  0  0  0  0  0  0  0
  -34.1109  -22.5420   23.1367 C   0  0  0  0  0  0  0  0  0  0  0  0
  -22.8995  -13.4942   21.2583 C   0  0  0  0  0  0  0  0  0  0  0  0
  -28.2606  -19.3132   24.7379 C   0  0  0  0  0  0  0  0  0  0  0  0
  -34.5781  -20.3410   24.1138 C   0  0  0  0  0  0  0  0  0  0  0  0
  -26.7767  -26.1803   22.1148 C   0  0  0  0  0  0  0  0  0  0  0  0
  -27.6676  -27.6578   19.3679 C   0  0  0  0  0  0  0  0  0  0  0  0
  -30.1963  -28.6826   17.3180 C   0  0  0  0  0  0  0  0  0  0  0  0
  -30.7308  -14.7611   20.6567 C   0  0  0  0  0  0  0  0  0  0  0  0
  -22.5982  -25.9218   25.0356 C   0  0  0  0  0  0  0  0  0  0  0  0
  -28.4654  -27.8479   22.9652 C   0  0  0  0  0  0  0  0  0  0  0  0
  -29.4645  -26.3838   20.5981 C   0  0  0  0  0  0  0  0  0  0  0  0
  -22.8853  -26.2058   23.5635 C   0  0  0  0  0  0  0  0  0  0  0  0
  -29.6152  -12.3451   18.2911 C   0  0  0  0  0  0  0  0  0  0  0  0
  -23.8186  -25.1457   22.9874 C   0  0  0  0  0  0  0  0  0  0  0  0
  -28.1747  -12.0563   18.7197 C   0  0  0  0  0  0  0  0  0  0  0  0
  -30.5294  -12.5745   19.4933 C   0  0  0  0  0  0  0  0  0  0  0  0
  -28.6222  -13.3039   20.8715 C   0  0  0  0  0  0  0  0  0  0  0  0
  -25.1706  -25.1489   23.7110 C   0  0  1  0  0  0  0  0  0  0  0  0
  -27.5398  -27.4412   21.8228 C   0  0  1  0  0  0  0  0  0  0  0  0
  -27.6503  -13.1302   19.6930 C   0  0  2  0  0  0  0  0  0  0  0  0
  -30.6123  -29.8296   15.1251 C   0  0  0  0  0  0  0  0  0  0  0  0
  -26.8758  -25.1097   17.8878 C   0  0  0  0  0  0  0  0  0  0  0  0
  -28.1698  -25.9388   15.9114 C   0  0  0  0  0  0  0  0  0  0  0  0
  -26.2057  -27.2310   16.7451 C   0  0  0  0  0  0  0  0  0  0  0  0
  -34.7765  -18.4362   25.6659 C   0  0  0  0  0  0  0  0  0  0  0  0
  -31.6827  -30.8859   18.6200 C   0  0  0  0  0  0  0  0  0  0  0  0
  -32.5177  -19.2977   25.1646 C   0  0  0  0  0  0  0  0  0  0  0  0
  -33.2633  -23.5754   22.4675 C   0  0  0  0  0  0  0  0  0  1  0  0
  -28.3457  -27.2226   18.0913 C   0  0  1  0  0  0  0  0  0  0  0  0
  -30.4584  -30.0089   16.6274 C   0  0  2  0  0  0  0  0  0  0  0  0
  -27.4119  -26.3725   17.1842 C   0  0  0  0  0  0  0  0  0  0  0  0
  -25.8602  -11.5424   20.2895 N   0  0  0  0  0  0  0  0  0  0  0  0
  -26.2391  -12.8252   20.1595 N   0  0  0  0  0  0  0  0  0  0  0  0
  -28.2565  -27.2248   20.5643 N   0  0  0  0  0  0  0  0  0  0  0  0
  -29.9711  -13.6075   20.3685 N   0  0  0  0  0  0  0  0  0  0  0  0
  -25.4757  -15.0542   20.4032 N   0  0  0  0  0  0  0  0  0  0  0  0
  -21.8859  -12.5871   21.5960 N   0  0  0  0  0  0  0  0  0  0  0  0
  -29.6562  -19.2030   24.7775 N   0  0  0  0  0  0  0  0  0  0  0  0
  -30.0839  -15.6884   21.4729 N   0  0  0  0  0  0  0  0  0  0  0  0
  -25.9890  -26.2491   23.2481 N   0  0  0  0  0  0  0  0  0  0  0  0
  -28.8466  -28.4387   17.4601 N   0  0  0  0  0  0  0  0  0  0  0  0
  -33.9580  -19.3951   24.9350 N   0  0  0  0  0  0  0  0  0  0  0  0
  -31.7049  -30.6310   17.1566 N   0  3  0  0  0  0  0  0  0  0  0  0
  -22.6650  -14.7253   21.3134 O   0  0  0  0  0  0  0  0  0  0  0  0
  -27.4861  -18.6675   24.0417 O   0  0  0  0  0  0  0  0  0  0  0  0
  -35.7972  -20.4260   23.9582 O   0  0  0  0  0  0  0  0  0  0  0  0
  -26.8928  -25.2168   21.3666 O   0  0  0  0  0  0  0  0  0  0  0  0
  -26.6568  -28.3621   19.3060 O   0  0  0  0  0  0  0  0  0  0  0  0
  -31.0986  -27.9359   17.6906 O   0  0  0  0  0  0  0  0  0  0  0  0
  -31.8606  -14.9274   20.1899 O   0  0  0  0  0  0  0  0  0  0  0  0
  -21.6044   -7.0245   21.7127 O   0  0  0  0  0  0  0  0  0  0  0  0
  -33.1730  -24.7166   23.3195 O   0  0  0  0  0  0  0  0  0  1  0  0
  -21.8537   -2.9441   18.0124 F   0  0  0  0  0  0  0  0  0  0  0  0
  -24.0102   -5.8053   21.1056 F   0  0  0  0  0  0  0  0  0  0  0  0
  1  2  1  0  0  0  0
  1  5  2  0  0  0  0
  2  6  2  0  0  0  0
  3 10  2  0  0  0  0
  3 18  1  0  0  0  0
  4 11  1  0  0  0  0
  4 18  2  0  0  0  0
  5 20  1  0  0  0  0
  6 22  1  0  0  0  0
  7 12  2  0  0  0  0
  7 21  1  0  0  0  0
  8  9  2  0  0  0  0
  8 24  1  0  0  0  0
  9 25  1  0  0  0  0
 10 27  1  0  0  0  0
 11 27  2  0  0  0  0
 12 28  1  0  0  0  0
 13 14  2  0  0  0  0
 13 29  1  0  0  0  0
 14 30  1  0  0  0  0
 15 23  1  0  0  0  0
 15 28  2  0  0  0  0
 16 25  2  0  0  0  0
 16 26  1  0  0  0  0
 17 30  2  0  0  0  0
 17 31  1  0  0  0  0
 18 32  1  0  0  0  0
 19 32  1  0  0  0  0
 19 33  2  0  0  0  0
 19 38  1  0  0  0  0
 20 22  2  0  0  0  0
 20 45  1  0  0  0  0
 21 23  2  0  0  0  0
 21 46  1  0  0  0  0
 22 54  1  0  0  0  0
 23 47  1  0  0  0  0
 24 26  2  0  0  0  0
 24 63  1  0  0  0  0
 25 75  1  0  0  0  0
 26 74  1  0  0  0  0
 27 87  1  0  0  0  0
 28 88  1  0  0  0  0
 29 31  2  0  0  0  0
 29 87  1  0  0  0  0
 30 89  1  0  0  0  0
 31 90  1  0  0  0  0
 32 68  2  0  0  0  0
 33 69  1  0  0  0  0
 33 72  1  0  0  0  0
 34 35  2  0  0  0  0
 35 39  1  0  0  0  0
 36 37  2  0  0  0  0
 36 40  1  0  0  0  0
 37 64  1  0  0  0  0
 38 73  1  0  0  0  0
 38 80  2  0  0  0  0
 39 74  1  0  0  0  0
 39 81  2  0  0  0  0
 40 78  1  0  0  0  0
 40 82  2  0  0  0  0
 41 55  1  0  0  0  0
 41 76  1  0  0  0  0
 41 83  2  0  0  0  0
 42 65  1  0  0  0  0
 42 70  1  0  0  0  0
 42 84  2  0  0  0  0
 43 66  1  0  0  0  0
 43 77  1  0  0  0  0
 43 85  2  0  0  0  0
 44 71  1  0  0  0  0
 44 75  1  0  0  0  0
 44 86  2  0  0  0  0
 45 48  1  0  0  0  0
 46 55  1  0  0  0  0
 47 70  1  0  0  0  0
 48 50  1  0  0  0  0
 49 51  1  0  0  0  0
 49 52  1  0  0  0  0
 50 54  1  0  0  0  0
 51 56  1  0  0  0  0
 52 71  1  0  0  0  0
 53 56  1  0  0  0  0
 53 71  1  0  0  0  0
 54 76  1  0  0  0  0
 55 70  1  0  0  0  0
 56 69  1  0  0  0  0
 57 66  1  0  0  0  0
 58 67  1  0  0  0  0
 59 67  1  0  0  0  0
 60 67  1  0  0  0  0
 61 78  1  0  0  0  0
 62 79  1  0  0  0  0
 63 78  1  0  0  0  0
 64 88  1  0  0  0  0
 65 67  1  0  0  0  0
 65 77  1  0  0  0  0
 66 79  1  0  0  0  0
 68 69  1  0  0  0  0
M  CHG  1  79   1
M  ISO  4  44 100  64 101  75 100  88 101
M  END
> <Batch ID>
0056

> <Smiles>
C=CC(=O)Nc1cc([100NH:0][100C:0](=O)N2CCCC(n3nc(-c4ccc(Oc5ccc(F)cc5F)cc4)c(C(N)=O)c3N)C2)ccc1CN(C)C(=O)C=C[101CH2:1][101O:1]c1ccc2c(c1)CN(C(=O)C(NC(=O)C(C)NC)C(C)(C)C)C(C(=O)NC1CCCc3ccccc31)C2

> <Shape>
0.188

> <Color>
0.184

> <Negative vol penalty>
0.000

$$$$

  -OEChem-04042322523D

 92101  0     1  0  0  0  0  0999 V2000
  -30.6894  -18.0581   23.8999 C   0  0  0  0  0  0  0  0  0  0  0  0
  -29.3387  -18.3784   23.8085 C   0  0  0  0  0  0  0  0  0  0  0  0
  -17.6953  -29.0549   22.7854 C   0  0  0  0  0  0  0  0  0  0  0  0
  -29.4776  -28.4272   20.2282 C   0  0  0  0  0  0  0  0  0  0  0  0
  -27.7436  -27.1023   19.1913 C   0  0  0  0  0  0  0  0  0  0  0  0
  -31.2465  -17.1329   23.0181 C   0  0  0  0  0  0  0  0  0  0  0  0
  -28.5444  -17.7746   22.8343 C   0  0  0  0  0  0  0  0  0  0  0  0
  -22.6460  -16.2080   23.3447 C   0  0  0  0  0  0  0  0  0  0  0  0
  -16.6172  -22.3137   18.5058 C   0  0  0  0  0  0  0  0  0  0  0  0
  -17.4650  -27.8165   22.1864 C   0  0  0  0  0  0  0  0  0  0  0  0
  -19.0009  -29.5161   22.9540 C   0  0  0  0  0  0  0  0  0  0  0  0
  -17.2884  -21.2981   19.1866 C   0  0  0  0  0  0  0  0  0  0  0  0
  -30.3728  -27.3671   20.0858 C   0  0  0  0  0  0  0  0  0  0  0  0
  -28.6389  -26.0421   19.0489 C   0  0  0  0  0  0  0  0  0  0  0  0
  -21.4703  -16.8335   22.9322 C   0  0  0  0  0  0  0  0  0  0  0  0
  -29.9531  -23.6122   20.9980 C   0  0  0  0  0  0  0  0  0  0  0  0
  -29.5068  -22.3363   21.3424 C   0  0  0  0  0  0  0  0  0  0  0  0
  -17.7897  -22.8337   20.9832 C   0  0  0  0  0  0  0  0  0  0  0  0
  -21.4657  -15.4899   20.9287 C   0  0  0  0  0  0  0  0  0  0  0  0
  -29.9210  -21.5820   19.0848 C   0  0  0  0  0  0  0  0  0  0  0  0
  -28.1630  -28.2948   19.7810 C   0  0  0  0  0  0  0  0  0  0  0  0
  -17.1184  -23.8494   20.3023 C   0  0  0  0  0  0  0  0  0  0  0  0
  -26.9947  -30.4269   19.0084 C   0  0  0  0  0  0  0  0  0  0  0  0
  -30.4565  -16.5102   22.0388 C   0  0  0  0  0  0  0  0  0  0  0  0
  -23.2474  -15.2248   22.5458 C   0  0  0  0  0  0  0  0  0  0  0  0
  -29.0918  -16.8412   21.9377 C   0  0  0  0  0  0  0  0  0  0  0  0
  -22.6477  -14.8517   21.3346 C   0  0  0  0  0  0  0  0  0  0  0  0
  -16.5322  -23.5894   19.0636 C   0  0  0  0  0  0  0  0  0  0  0  0
  -19.8459  -27.5002   21.9248 C   0  0  0  0  0  0  0  0  0  0  0  0
  -17.8746  -21.5581   20.4253 C   0  0  0  0  0  0  0  0  0  0  0  0
  -18.5403  -27.0391   21.7561 C   0  0  0  0  0  0  0  0  0  0  0  0
  -20.0762  -28.7387   22.5238 C   0  0  0  0  0  0  0  0  0  0  0  0
  -29.9535  -26.1746   19.4961 C   0  0  0  0  0  0  0  0  0  0  0  0
  -20.8815  -16.4765   21.7226 C   0  0  0  0  0  0  0  0  0  0  0  0
  -30.3833  -23.8730   19.6969 C   0  0  0  0  0  0  0  0  0  0  0  0
  -29.4907  -21.3212   20.3858 C   0  0  0  0  0  0  0  0  0  0  0  0
  -30.3673  -22.8579   18.7404 C   0  0  0  0  0  0  0  0  0  0  0  0
  -27.2376  -29.3893   19.9284 C   0  0  0  0  0  0  0  0  0  0  0  0
  -26.0376  -31.2047   19.6129 C   0  0  0  0  0  0  0  0  0  0  0  0
  -17.0439  -25.1722   20.9076 C   0  0  0  0  0  0  0  0  0  0  0  0
  -27.5816  -30.6661   17.7223 C   0  0  0  0  0  0  0  0  0  0  0  0
  -26.0459  -14.9397   21.0658 C   0  0  0  0  0  0  0  0  0  0  0  0
  -24.9669  -11.9461   20.4361 C   0  0  0  0  0  0  0  0  0  0  0  0
  -18.7383  -19.2109   20.7062 C   0  0  0  0  0  0  0  0  0  0  0  0
  -22.3038   -9.8439   20.0687 C   0  0  0  0  0  0  0  0  0  0  0  0
  -21.8501  -30.0677   23.7211 C   0  0  0  0  0  0  0  0  0  0  0  0
  -31.1138  -15.5518   21.0775 C   0  0  0  0  0  0  0  0  0  0  0  0
  -24.5010  -14.5406   23.0177 C   0  0  0  0  0  0  0  0  0  0  0  0
  -23.2424  -13.7876   20.4499 C   0  0  0  0  0  0  0  0  0  0  0  0
  -30.1214  -14.6772   20.3155 C   0  0  0  0  0  0  0  0  0  0  0  0
  -24.4460  -32.4945   23.9417 C   0  0  0  0  0  0  0  0  0  0  0  0
  -28.9733  -15.5216   19.7720 C   0  0  0  0  0  0  0  0  0  0  0  0
  -25.4314  -32.0716   22.8497 C   0  0  0  0  0  0  0  0  0  0  0  0
  -23.8134  -31.2880   24.6329 C   0  0  0  0  0  0  0  0  0  0  0  0
  -24.1762  -29.8883   22.6383 C   0  0  0  0  0  0  0  0  0  0  0  0
  -28.1922  -16.1889   20.9104 C   0  0  1  0  0  0  0  0  0  0  0  0
  -25.3056  -13.9175   21.8812 C   0  0  1  0  0  0  0  0  0  0  0  0
  -24.7905  -31.0695   21.8696 C   0  0  2  0  0  0  0  0  0  0  0  0
  -15.8074  -24.6588   18.3132 C   0  0  0  0  0  0  0  0  0  0  0  0
  -21.0004  -26.6652   21.4636 C   0  0  0  0  0  0  0  0  0  0  0  0
  -21.7350   -7.4630   19.5162 C   0  0  0  0  0  0  0  0  0  0  0  0
  -25.5311  -12.4979   17.4887 C   0  0  0  0  0  0  0  0  0  0  0  0
  -24.0964  -10.5273   16.9170 C   0  0  0  0  0  0  0  0  0  0  0  0
  -26.1724  -10.2079   18.2627 C   0  0  0  0  0  0  0  0  0  0  0  0
  -21.0199   -9.4179   22.7010 C   0  0  0  0  0  0  0  0  0  0  0  0
  -19.5297  -18.4331   21.7412 C   0  0  0  0  0  0  0  0  0  1  0  0
  -24.1623  -11.3108   19.3280 C   0  0  1  0  0  0  0  0  0  0  0  0
  -22.0289   -8.4593   20.6270 C   0  0  2  0  0  0  0  0  0  0  0  0
  -24.9801  -11.1574   18.0146 C   0  0  0  0  0  0  0  0  0  0  0  0
  -26.4948  -29.4956   21.0334 N   0  0  0  0  0  0  0  0  0  0  0  0
  -25.7759  -30.6092   20.8117 N   0  0  0  0  0  0  0  0  0  0  0  0
  -24.4720  -13.1523   20.9518 N   0  0  0  0  0  0  0  0  0  0  0  0
  -23.2226  -30.3851   23.6426 N   0  0  0  0  0  0  0  0  0  0  0  0
  -25.4029  -32.3332   19.2308 N   0  0  0  0  0  0  0  0  0  0  0  0
  -28.5497  -29.7683   17.2523 N   0  0  0  0  0  0  0  0  0  0  0  0
  -18.2827  -25.7830   21.1513 N   0  0  0  0  0  0  0  0  0  0  0  0
  -18.5573  -20.5279   21.1147 N   0  0  0  0  0  0  0  0  0  0  0  0
  -21.3940  -29.2263   22.7069 N   0  0  0  0  0  0  0  0  0  0  0  0
  -27.3084  -15.2342   21.5444 N   0  0  0  0  0  0  0  0  0  0  0  0
  -23.6511  -10.0538   19.8638 N   0  0  0  0  0  0  0  0  0  0  0  0
  -20.8579   -8.4952   21.5480 N   0  3  0  0  0  0  0  0  0  0  0  0
  -15.9599  -25.6875   21.2096 O   0  0  0  0  0  0  0  0  0  0  0  0
  -27.2690  -31.6560   17.0182 O   0  0  0  0  0  0  0  0  0  0  0  0
  -25.5119  -15.4243   20.0750 O   0  0  0  0  0  0  0  0  0  0  0  0
  -25.9929  -11.3890   20.8344 O   0  0  0  0  0  0  0  0  0  0  0  0
  -18.3427  -18.6847   19.6712 O   0  0  0  0  0  0  0  0  0  0  0  0
  -21.4121  -10.6566   19.8340 O   0  0  0  0  0  0  0  0  0  0  0  0
  -21.1263  -30.5315   24.6059 O   0  0  0  0  0  0  0  0  0  0  0  0
  -30.8268  -25.1400   19.3568 O   0  0  0  0  0  0  0  0  0  0  0  0
  -19.7343  -17.0859   21.3172 O   0  0  0  0  0  0  0  0  0  1  0  0
  -29.0636  -20.0957   20.7171 F   0  0  0  0  0  0  0  0  0  0  0  0
  -30.7805  -23.1021   17.4892 F   0  0  0  0  0  0  0  0  0  0  0  0
  1  2  1  0  0  0  0
  1  6  2  0  0  0  0
  2  7  2  0  0  0  0
  3 10  2  0  0  0  0
  3 11  1  0  0  0  0
  4 13  2  0  0  0  0
  4 21  1  0  0  0  0
  5 14  1  0  0  0  0
  5 21  2  0  0  0  0
  6 24  1  0  0  0  0
  7 26  1  0  0  0  0
  8 15  2  0  0  0  0
  8 25  1  0  0  0  0
  9 12  2  0  0  0  0
  9 28  1  0  0  0  0
 10 31  1  0  0  0  0
 11 32  2  0  0  0  0
 12 30  1  0  0  0  0
 13 33  1  0  0  0  0
 14 33  2  0  0  0  0
 15 34  1  0  0  0  0
 16 17  2  0  0  0  0
 16 35  1  0  0  0  0
 17 36  1  0  0  0  0
 18 22  1  0  0  0  0
 18 30  2  0  0  0  0
 19 27  1  0  0  0  0
 19 34  2  0  0  0  0
 20 36  2  0  0  0  0
 20 37  1  0  0  0  0
 21 38  1  0  0  0  0
 22 28  2  0  0  0  0
 22 40  1  0  0  0  0
 23 38  1  0  0  0  0
 23 39  2  0  0  0  0
 23 41  1  0  0  0  0
 24 26  2  0  0  0  0
 24 47  1  0  0  0  0
 25 27  2  0  0  0  0
 25 48  1  0  0  0  0
 26 56  1  0  0  0  0
 27 49  1  0  0  0  0
 28 59  1  0  0  0  0
 29 31  2  0  0  0  0
 29 32  1  0  0  0  0
 29 60  1  0  0  0  0
 30 77  1  0  0  0  0
 31 76  1  0  0  0  0
 32 78  1  0  0  0  0
 33 89  1  0  0  0  0
 34 90  1  0  0  0  0
 35 37  2  0  0  0  0
 35 89  1  0  0  0  0
 36 91  1  0  0  0  0
 37 92  1  0  0  0  0
 38 70  2  0  0  0  0
 39 71  1  0  0  0  0
 39 74  1  0  0  0  0
 40 76  1  0  0  0  0
 40 82  2  0  0  0  0
 41 75  1  0  0  0  0
 41 83  2  0  0  0  0
 42 57  1  0  0  0  0
 42 79  1  0  0  0  0
 42 84  2  0  0  0  0
 43 67  1  0  0  0  0
 43 72  1  0  0  0  0
 43 85  2  0  0  0  0
 44 66  1  0  0  0  0
 44 77  1  0  0  0  0
 44 86  2  0  0  0  0
 45 68  1  0  0  0  0
 45 80  1  0  0  0  0
 45 87  2  0  0  0  0
 46 73  1  0  0  0  0
 46 78  1  0  0  0  0
 46 88  2  0  0  0  0
 47 50  1  0  0  0  0
 48 57  1  0  0  0  0
 49 72  1  0  0  0  0
 50 52  1  0  0  0  0
 51 53  1  0  0  0  0
 51 54  1  0  0  0  0
 52 56  1  0  0  0  0
 53 58  1  0  0  0  0
 54 73  1  0  0  0  0
 55 58  1  0  0  0  0
 55 73  1  0  0  0  0
 56 79  1  0  0  0  0
 57 72  1  0  0  0  0
 58 71  1  0  0  0  0
 61 68  1  0  0  0  0
 62 69  1  0  0  0  0
 63 69  1  0  0  0  0
 64 69  1  0  0  0  0
 65 81  1  0  0  0  0
 66 90  1  0  0  0  0
 67 69  1  0  0  0  0
 67 80  1  0  0  0  0
 68 81  1  0  0  0  0
 70 71  1  0  0  0  0
M  CHG  1  81   1
M  ISO  4  46 100  66 101  78 100  90 101
M  END
> <Batch ID>
0056

> <Smiles>
CNC(C)C(=O)NC(C(=O)N1Cc2cc([101O:1][101CH2:1]C(=O)Nc3ccc(C)c(C(=O)Nc4cccc([100NH:0][100C:0](=O)N5CCCC(n6nc(-c7ccc(Oc8ccc(F)cc8F)cc7)c(C(N)=O)c6N)C5)c4C)c3)ccc2CC1C(=O)NC1CCCc2ccccc21)C(C)(C)C

> <Shape>
0.293

> <Color>
0.074

> <Negative vol penalty>
0.000

$$$$

  -OEChem-04042322523D

 89 97  0     1  0  0  0  0  0999 V2000
  -24.1259  -37.6135   18.0896 C   0  0  0  0  0  0  0  0  0  0  0  0
  -24.1818  -36.3705   17.4674 C   0  0  0  0  0  0  0  0  0  0  0  0
  -24.1118   -6.2607   19.1946 C   0  0  0  0  0  0  0  0  0  0  0  0
  -25.8606   -6.8546   20.7521 C   0  0  0  0  0  0  0  0  0  0  0  0
  -24.7634  -37.8081   19.3142 C   0  0  0  0  0  0  0  0  0  0  0  0
  -24.8763  -35.3215   18.0689 C   0  0  0  0  0  0  0  0  0  0  0  0
  -24.7156  -28.1939   18.7670 C   0  0  0  0  0  0  0  0  0  0  0  0
  -28.8897  -15.2824   22.6467 C   0  0  0  0  0  0  0  0  0  0  0  0
  -27.7044  -14.6167   22.3347 C   0  0  0  0  0  0  0  0  0  0  0  0
  -24.8705   -5.1754   18.7564 C   0  0  0  0  0  0  0  0  0  0  0  0
  -26.6194   -5.7693   20.3140 C   0  0  0  0  0  0  0  0  0  0  0  0
  -25.5350  -27.0773   18.6071 C   0  0  0  0  0  0  0  0  0  0  0  0
  -28.6022   -5.0168   17.6809 C   0  0  0  0  0  0  0  0  0  0  0  0
  -29.9573   -5.2325   17.4301 C   0  0  0  0  0  0  0  0  0  0  0  0
  -26.5312  -27.5073   20.7616 C   0  0  0  0  0  0  0  0  0  0  0  0
  -27.2615  -16.2247   20.5866 C   0  0  0  0  0  0  0  0  0  0  0  0
  -30.5291   -3.5832   19.1003 C   0  0  0  0  0  0  0  0  0  0  0  0
  -24.6068   -7.1003   20.1924 C   0  0  0  0  0  0  0  0  0  0  0  0
  -22.8851   -8.2352   21.6942 C   0  0  0  0  0  0  0  0  0  0  0  0
  -25.4578  -36.7583   19.9358 C   0  0  0  0  0  0  0  0  0  0  0  0
  -24.8057  -28.9832   19.9226 C   0  0  0  0  0  0  0  0  0  0  0  0
  -25.5248  -35.5026   19.3024 C   0  0  0  0  0  0  0  0  0  0  0  0
  -25.7101  -28.6319   20.9349 C   0  0  0  0  0  0  0  0  0  0  0  0
  -29.2610  -16.4193   21.9287 C   0  0  0  0  0  0  0  0  0  0  0  0
  -26.8903  -15.0878   21.3046 C   0  0  0  0  0  0  0  0  0  0  0  0
  -28.4469  -16.8904   20.8987 C   0  0  0  0  0  0  0  0  0  0  0  0
  -26.1243   -4.9297   19.3161 C   0  0  0  0  0  0  0  0  0  0  0  0
  -26.4450  -26.7355   19.6032 C   0  0  0  0  0  0  0  0  0  0  0  0
  -28.2106   -4.0843   18.6416 C   0  0  0  0  0  0  0  0  0  0  0  0
  -30.9207   -4.5157   18.1397 C   0  0  0  0  0  0  0  0  0  0  0  0
  -29.1740   -3.3675   19.3512 C   0  0  0  0  0  0  0  0  0  0  0  0
  -23.8237   -8.2219   20.6451 C   0  0  0  0  0  0  0  0  0  0  0  0
  -22.4212   -9.5277   21.7236 C   0  0  0  0  0  0  0  0  0  0  0  0
  -28.8167  -19.8316   18.5954 C   0  0  0  0  0  0  0  0  0  0  0  0
  -28.3038  -20.5439   17.5822 C   0  0  0  0  0  0  0  0  0  0  0  0
  -22.4697   -7.1742   22.5645 C   0  0  0  0  0  0  0  0  0  0  0  0
  -28.1024  -18.6269   19.1134 C   0  0  0  0  0  0  0  0  0  0  0  0
  -25.5623  -32.0129   20.5162 C   0  0  0  0  0  0  0  0  0  0  0  0
  -24.6728  -31.2357   23.5373 C   0  0  0  0  0  0  0  0  0  0  0  0
  -28.0717  -23.7362   18.2450 C   0  0  0  0  0  0  0  0  0  0  0  0
  -24.2209  -28.8050   25.8897 C   0  0  0  0  0  0  0  0  0  0  0  0
  -24.7646  -14.7460   19.9965 C   0  0  0  0  0  0  0  0  0  0  0  0
  -26.1711  -37.0297   21.2366 C   0  0  0  0  0  0  0  0  0  0  0  0
  -23.8961  -30.1691   20.0917 C   0  0  0  0  0  0  0  0  0  0  0  0
  -25.8315  -29.4347   22.2034 C   0  0  0  0  0  0  0  0  0  0  0  0
  -26.5701  -35.7624   21.9884 C   0  0  0  0  0  0  0  0  0  0  0  0
  -21.7020  -13.3136   18.8803 C   0  0  0  0  0  0  0  0  0  0  0  0
  -27.2216  -34.7615   21.0394 C   0  0  0  0  0  0  0  0  0  0  0  0
  -21.8105  -11.8479   19.3071 C   0  0  0  0  0  0  0  0  0  0  0  0
  -23.0488  -13.8730   18.4253 C   0  0  0  0  0  0  0  0  0  0  0  0
  -24.2577  -12.2314   19.8084 C   0  0  0  0  0  0  0  0  0  0  0  0
  -26.2473  -34.3333   19.9354 C   0  0  1  0  0  0  0  0  0  0  0  0
  -24.4335  -31.1981   21.0815 C   0  0  1  0  0  0  0  0  0  0  0  0
  -22.9392  -11.6427   20.3364 C   0  0  2  0  0  0  0  0  0  0  0  0
  -30.5361  -17.1122   22.2848 C   0  0  0  0  0  0  0  0  0  0  0  0
  -23.5214  -28.4804   28.2777 C   0  0  0  0  0  0  0  0  0  0  0  0
  -27.3814  -32.2855   24.4709 C   0  0  0  0  0  0  0  0  0  0  0  0
  -27.0185  -31.0904   26.6408 C   0  0  0  0  0  0  0  0  0  0  0  0
  -25.4578  -32.9071   25.9432 C   0  0  0  0  0  0  0  0  0  0  0  0
  -27.1866  -23.1096   15.9919 C   0  0  0  0  0  0  0  0  0  0  0  0
  -21.9332  -27.0975   25.1089 C   0  0  0  0  0  0  0  0  0  0  0  0
  -28.9723  -21.7531   17.0115 C   0  0  0  0  0  0  0  0  0  0  0  0
  -27.1019  -24.8990   18.2423 C   0  0  0  0  0  0  0  0  0  1  0  0
  -25.3792  -30.6796   24.7501 C   0  0  1  0  0  0  0  0  0  0  0  0
  -23.0636  -28.5138   26.8279 C   0  0  2  0  0  0  0  0  0  0  0  0
  -26.3085  -31.7264   25.4266 C   0  0  0  0  0  0  0  0  0  0  0  0
  -23.9497   -9.4114   20.0508 N   0  0  0  0  0  0  0  0  0  0  0  0
  -23.0841  -10.1843   20.7287 N   0  0  0  0  0  0  0  0  0  0  0  0
  -24.9248  -30.5889   22.3192 N   0  0  0  0  0  0  0  0  0  0  0  0
  -24.0681  -13.6463   19.4522 N   0  0  0  0  0  0  0  0  0  0  0  0
  -21.5150  -10.1552   22.5029 N   0  0  0  0  0  0  0  0  0  0  0  0
  -23.0474   -5.9082   22.3975 N   0  0  0  0  0  0  0  0  0  0  0  0
  -28.8067  -18.0432   20.1583 N   0  0  0  0  0  0  0  0  0  0  0  0
  -25.6862  -14.4112   20.9881 N   0  0  0  0  0  0  0  0  0  0  0  0
  -25.2981  -33.3674   20.4457 N   0  0  0  0  0  0  0  0  0  0  0  0
  -24.3364  -30.1530   25.6240 N   0  0  0  0  0  0  0  0  0  0  0  0
  -28.0761  -22.9006   17.1277 N   0  0  0  0  0  0  0  0  0  0  0  0
  -22.4486  -27.1969   26.4987 N   0  3  0  0  0  0  0  0  0  0  0  0
  -21.5997   -7.3396   23.4529 O   0  0  0  0  0  0  0  0  0  0  0  0
  -27.0376  -18.2614   18.6295 O   0  0  0  0  0  0  0  0  0  0  0  0
  -26.5969  -31.4543   20.1709 O   0  0  0  0  0  0  0  0  0  0  0  0
  -23.9196  -32.2039   23.6673 O   0  0  0  0  0  0  0  0  0  0  0  0
  -28.8127  -23.5841   19.2210 O   0  0  0  0  0  0  0  0  0  0  0  0
  -24.9520  -27.9249   25.4407 O   0  0  0  0  0  0  0  0  0  0  0  0
  -24.5393  -15.9024   19.6307 O   0  0  0  0  0  0  0  0  0  0  0  0
  -26.8649   -3.8706   18.8889 O   0  0  0  0  0  0  0  0  0  0  0  0
  -27.2464  -25.6465   19.4493 O   0  0  0  0  0  0  0  0  0  1  0  0
  -32.2219   -4.7219   17.8976 F   0  0  0  0  0  0  0  0  0  0  0  0
  -28.8039   -2.4694   20.2744 F   0  0  0  0  0  0  0  0  0  0  0  0
  1  2  1  0  0  0  0
  1  5  2  0  0  0  0
  2  6  2  0  0  0  0
  3 10  2  0  0  0  0
  3 18  1  0  0  0  0
  4 11  1  0  0  0  0
  4 18  2  0  0  0  0
  5 20  1  0  0  0  0
  6 22  1  0  0  0  0
  7 12  2  0  0  0  0
  7 21  1  0  0  0  0
  8  9  2  0  0  0  0
  8 24  1  0  0  0  0
  9 25  1  0  0  0  0
 10 27  1  0  0  0  0
 11 27  2  0  0  0  0
 12 28  1  0  0  0  0
 13 14  2  0  0  0  0
 13 29  1  0  0  0  0
 14 30  1  0  0  0  0
 15 23  1  0  0  0  0
 15 28  2  0  0  0  0
 16 25  2  0  0  0  0
 16 26  1  0  0  0  0
 17 30  2  0  0  0  0
 17 31  1  0  0  0  0
 18 32  1  0  0  0  0
 19 32  1  0  0  0  0
 19 33  2  0  0  0  0
 19 36  1  0  0  0  0
 20 22  2  0  0  0  0
 20 43  1  0  0  0  0
 21 23  2  0  0  0  0
 21 44  1  0  0  0  0
 22 52  1  0  0  0  0
 23 45  1  0  0  0  0
 24 26  2  0  0  0  0
 24 55  1  0  0  0  0
 25 74  1  0  0  0  0
 26 73  1  0  0  0  0
 27 86  1  0  0  0  0
 28 87  1  0  0  0  0
 29 31  2  0  0  0  0
 29 86  1  0  0  0  0
 30 88  1  0  0  0  0
 31 89  1  0  0  0  0
 32 67  2  0  0  0  0
 33 68  1  0  0  0  0
 33 71  1  0  0  0  0
 34 35  2  0  0  0  0
 34 37  1  0  0  0  0
 35 62  1  0  0  0  0
 36 72  1  0  0  0  0
 36 79  2  0  0  0  0
 37 73  1  0  0  0  0
 37 80  2  0  0  0  0
 38 53  1  0  0  0  0
 38 75  1  0  0  0  0
 38 81  2  0  0  0  0
 39 64  1  0  0  0  0
 39 69  1  0  0  0  0
 39 82  2  0  0  0  0
 40 63  1  0  0  0  0
 40 77  1  0  0  0  0
 40 83  2  0  0  0  0
 41 65  1  0  0  0  0
 41 76  1  0  0  0  0
 41 84  2  0  0  0  0
 42 70  1  0  0  0  0
 42 74  1  0  0  0  0
 42 85  2  0  0  0  0
 43 46  1  0  0  0  0
 44 53  1  0  0  0  0
 45 69  1  0  0  0  0
 46 48  1  0  0  0  0
 47 49  1  0  0  0  0
 47 50  1  0  0  0  0
 48 52  1  0  0  0  0
 49 54  1  0  0  0  0
 50 70  1  0  0  0  0
 51 54  1  0  0  0  0
 51 70  1  0  0  0  0
 52 75  1  0  0  0  0
 53 69  1  0  0  0  0
 54 68  1  0  0  0  0
 56 65  1  0  0  0  0
 57 66  1  0  0  0  0
 58 66  1  0  0  0  0
 59 66  1  0  0  0  0
 60 77  1  0  0  0  0
 61 78  1  0  0  0  0
 62 77  1  0  0  0  0
 63 87  1  0  0  0  0
 64 66  1  0  0  0  0
 64 76  1  0  0  0  0
 65 78  1  0  0  0  0
 67 68  1  0  0  0  0
M  CHG  1  78   1
M  ISO  4  42 100  63 101  74 100  87 101
M  END
> <Batch ID>
0056

> <Smiles>
CNC(C)C(=O)NC(C(=O)N1Cc2cc([101O:1][101CH2:1]C(=O)N(C)CC=CC(=O)Nc3cc([100NH:0][100C:0](=O)N4CCCC(n5nc(-c6ccc(Oc7ccc(F)cc7F)cc6)c(C(N)=O)c5N)C4)ccc3C)ccc2CC1C(=O)NC1CCCc2ccccc21)C(C)(C)C

> <Shape>
0.228

> <Color>
0.100

> <Negative vol penalty>
0.000

$$$$

  -OEChem-04042322523D

 86 94  0     1  0  0  0  0  0999 V2000
  -19.6189  -32.6825   19.1576 C   0  0  0  0  0  0  0  0  0  0  0  0
  -20.6288  -31.7775   18.8468 C   0  0  0  0  0  0  0  0  0  0  0  0
  -25.6790  -12.7042   22.0535 C   0  0  0  0  0  0  0  0  0  0  0  0
  -25.7189  -13.5431   19.7882 C   0  0  0  0  0  0  0  0  0  0  0  0
  -19.3502  -32.9951   20.4895 C   0  0  0  0  0  0  0  0  0  0  0  0
  -21.3714  -31.1855   19.8678 C   0  0  0  0  0  0  0  0  0  0  0  0
  -22.0022  -26.2087   19.1762 C   0  0  0  0  0  0  0  0  0  0  0  0
  -24.6179  -11.8615   21.7228 C   0  0  0  0  0  0  0  0  0  0  0  0
  -24.6577  -12.7003   19.4574 C   0  0  0  0  0  0  0  0  0  0  0  0
  -22.9684  -25.8115   18.2530 C   0  0  0  0  0  0  0  0  0  0  0  0
  -24.1851   -8.9039   20.1421 C   0  0  0  0  0  0  0  0  0  0  0  0
  -24.2452   -7.5821   20.5835 C   0  0  0  0  0  0  0  0  0  0  0  0
  -24.5085  -25.3809   20.0590 C   0  0  0  0  0  0  0  0  0  0  0  0
  -22.1964   -7.9029   21.8231 C   0  0  0  0  0  0  0  0  0  0  0  0
  -26.2295  -13.5451   21.0862 C   0  0  0  0  0  0  0  0  0  0  0  0
  -28.7002  -14.1256   21.3437 C   0  0  0  0  0  0  0  0  0  0  0  0
  -20.0835  -32.3992   21.5278 C   0  0  0  0  0  0  0  0  0  0  0  0
  -22.2860  -26.2053   20.5495 C   0  0  0  0  0  0  0  0  0  0  0  0
  -21.1132  -31.4914   21.2148 C   0  0  0  0  0  0  0  0  0  0  0  0
  -23.5433  -25.7760   20.9978 C   0  0  0  0  0  0  0  0  0  0  0  0
  -24.1073  -11.8595   20.4248 C   0  0  0  0  0  0  0  0  0  0  0  0
  -24.2228  -25.4003   18.6941 C   0  0  0  0  0  0  0  0  0  0  0  0
  -23.1306   -9.7253   20.5413 C   0  0  0  0  0  0  0  0  0  0  0  0
  -23.2508   -7.0816   21.4239 C   0  0  0  0  0  0  0  0  0  0  0  0
  -22.1363   -9.2247   21.3817 C   0  0  0  0  0  0  0  0  0  0  0  0
  -27.3253  -14.4163   21.4274 C   0  0  0  0  0  0  0  0  0  0  0  0
  -29.3204  -15.2716   21.7781 C   0  0  0  0  0  0  0  0  0  0  0  0
  -31.9486  -23.4537   20.8968 C   0  0  0  0  0  0  0  0  0  0  0  0
  -32.0214  -24.6431   20.2959 C   0  0  0  0  0  0  0  0  0  0  0  0
  -30.7698  -22.7158   21.2606 C   0  0  0  0  0  0  0  0  0  0  0  0
  -29.7036  -25.5750   20.8694 C   0  0  0  0  0  0  0  0  0  0  0  0
  -29.1396  -24.5816   21.5796 C   0  0  0  0  0  0  0  0  0  0  0  0
  -29.5415  -23.1745   21.5541 C   0  0  0  0  0  0  0  0  0  0  0  0
  -30.8957  -25.5498   19.9814 C   0  0  0  0  0  0  0  0  0  0  0  0
  -29.3579  -12.9270   20.9119 C   0  0  0  0  0  0  0  0  0  0  0  0
  -22.4104  -28.4265   22.8198 C   0  0  0  0  0  0  0  0  0  0  0  0
  -29.9434  -27.1971   18.7606 C   0  0  0  0  0  0  0  0  0  0  0  0
  -22.8540  -25.8641   24.7589 C   0  0  0  0  0  0  0  0  0  0  0  0
  -23.8777  -22.6256   25.0919 C   0  0  0  0  0  0  0  0  0  0  0  0
  -28.5806  -20.9531   21.3346 C   0  0  0  0  0  0  0  0  0  0  0  0
  -19.7882  -32.8043   22.9502 C   0  0  0  0  0  0  0  0  0  0  0  0
  -21.2239  -26.6111   21.5343 C   0  0  0  0  0  0  0  0  0  0  0  0
  -23.8912  -25.7347   22.4627 C   0  0  0  0  0  0  0  0  0  0  0  0
  -20.3710  -31.8493   23.9889 C   0  0  0  0  0  0  0  0  0  0  0  0
  -27.9907  -19.1492   24.5059 C   0  0  0  0  0  0  0  0  0  0  0  0
  -21.8209  -31.5153   23.6529 C   0  0  0  0  0  0  0  0  0  0  0  0
  -27.8363  -17.7168   24.0038 C   0  0  0  0  0  0  0  0  0  0  0  0
  -27.4486  -20.1694   23.5055 C   0  0  0  0  0  0  0  0  0  0  0  0
  -27.8792  -18.5977   21.6381 C   0  0  0  0  0  0  0  0  0  0  0  0
  -21.9241  -30.8096   22.2953 C   0  0  1  0  0  0  0  0  0  0  0  0
  -21.7935  -27.0576   22.8772 C   0  0  1  0  0  0  0  0  0  0  0  0
  -28.4633  -17.5610   22.6101 C   0  0  2  0  0  0  0  0  0  0  0  0
  -27.9614  -24.9387   22.4627 C   0  0  0  0  0  0  0  0  0  0  0  0
  -29.8427  -28.5279   19.4512 C   0  0  0  0  0  0  0  0  0  0  0  0
  -24.1583  -20.8147   26.8063 C   0  0  0  0  0  0  0  0  0  0  0  0
  -25.3592  -27.2520   25.8113 C   0  0  0  0  0  0  0  0  0  0  0  0
  -26.0877  -25.0571   26.7704 C   0  0  0  0  0  0  0  0  0  0  0  0
  -23.9772  -26.1241   27.5641 C   0  0  0  0  0  0  0  0  0  0  0  0
  -21.9717  -20.8455   23.6928 C   0  0  0  0  0  0  0  0  0  0  0  0
  -27.3458  -25.4321   16.8767 C   0  0  0  0  0  0  0  0  0  0  0  0
  -28.8217  -25.6942   17.1369 C   0  0  0  0  0  0  0  0  0  0  0  0
  -26.5321  -25.2321   18.1516 C   0  0  0  0  0  0  0  0  0  1  0  0
  -24.0538  -25.0947   25.2561 C   0  0  1  0  0  0  0  0  0  0  0  0
  -23.2323  -21.4297   25.7685 C   0  0  2  0  0  0  0  0  0  0  0  0
  -24.8639  -25.8845   26.3227 C   0  0  0  0  0  0  0  0  0  0  0  0
  -27.0856  -15.6500   21.8795 N   0  0  0  0  0  0  0  0  0  0  0  0
  -31.0213  -26.3879   18.9978 N   0  0  0  0  0  0  0  0  0  0  0  0
  -28.3183  -16.1448   22.0839 N   0  0  0  0  0  0  0  0  0  0  0  0
  -22.8213  -26.1471   23.3861 N   0  0  0  0  0  0  0  0  0  0  0  0
  -28.0126  -19.9633   22.1617 N   0  0  0  0  0  0  0  0  0  0  0  0
  -30.6197  -15.6073   21.9245 N   0  0  0  0  0  0  0  0  0  0  0  0
  -28.5698  -11.8445   20.4979 N   0  0  0  0  0  0  0  0  0  0  0  0
  -28.5884  -22.2433   21.8576 N   0  0  0  0  0  0  0  0  0  0  0  0
  -21.5384  -29.4201   22.4174 N   0  0  0  0  0  0  0  0  0  0  0  0
  -23.5491  -23.8075   25.7216 N   0  0  0  0  0  0  0  0  0  0  0  0
  -28.9807  -26.9041   17.9475 N   0  3  0  0  0  0  0  0  0  0  0  0
  -22.8951  -20.3843   24.7612 N   0  3  0  0  0  0  0  0  0  0  0  0
  -30.6071  -12.8135   20.9092 O   0  0  0  0  0  0  0  0  0  0  0  0
  -23.5897  -28.5708   23.1199 O   0  0  0  0  0  0  0  0  0  0  0  0
  -21.9745  -26.1954   25.5579 O   0  0  0  0  0  0  0  0  0  0  0  0
  -24.6039  -22.5214   24.1058 O   0  0  0  0  0  0  0  0  0  0  0  0
  -29.0348  -20.6981   20.2133 O   0  0  0  0  0  0  0  0  0  0  0  0
  -23.0720  -11.0371   20.1016 O   0  0  0  0  0  0  0  0  0  0  0  0
  -25.1679  -25.0128   17.7950 O   0  0  0  0  0  0  0  0  0  1  0  0
  -23.3078   -5.8118   21.8464 F   0  0  0  0  0  0  0  0  0  0  0  0
  -21.1202  -10.0087   21.7676 F   0  0  0  0  0  0  0  0  0  0  0  0
  1  2  1  0  0  0  0
  1  5  2  0  0  0  0
  2  6  2  0  0  0  0
  3  8  2  0  0  0  0
  3 15  1  0  0  0  0
  4  9  1  0  0  0  0
  4 15  2  0  0  0  0
  5 17  1  0  0  0  0
  6 19  1  0  0  0  0
  7 10  2  0  0  0  0
  7 18  1  0  0  0  0
  8 21  1  0  0  0  0
  9 21  2  0  0  0  0
 10 22  1  0  0  0  0
 11 12  2  0  0  0  0
 11 23  1  0  0  0  0
 12 24  1  0  0  0  0
 13 20  1  0  0  0  0
 13 22  2  0  0  0  0
 14 24  2  0  0  0  0
 14 25  1  0  0  0  0
 15 26  1  0  0  0  0
 16 26  1  0  0  0  0
 16 27  2  0  0  0  0
 16 35  1  0  0  0  0
 17 19  2  0  0  0  0
 17 41  1  0  0  0  0
 18 20  2  0  0  0  0
 18 42  1  0  0  0  0
 19 50  1  0  0  0  0
 20 43  1  0  0  0  0
 21 83  1  0  0  0  0
 22 84  1  0  0  0  0
 23 25  2  0  0  0  0
 23 83  1  0  0  0  0
 24 85  1  0  0  0  0
 25 86  1  0  0  0  0
 26 66  2  0  0  0  0
 27 68  1  0  0  0  0
 27 71  1  0  0  0  0
 28 29  2  0  0  0  0
 28 30  1  0  0  0  0
 29 34  1  0  0  0  0
 30 33  2  0  0  0  0
 31 32  2  0  0  0  0
 31 34  1  0  0  0  0
 32 33  1  0  0  0  0
 32 53  1  0  0  0  0
 33 73  1  0  0  0  0
 34 67  2  0  0  0  0
 35 72  1  0  0  0  0
 35 78  2  0  0  0  0
 36 51  1  0  0  0  0
 36 74  1  0  0  0  0
 36 79  2  0  0  0  0
 37 54  1  0  0  0  0
 37 67  1  0  0  0  0
 37 76  2  0  0  0  0
 38 63  1  0  0  0  0
 38 69  1  0  0  0  0
 38 80  2  0  0  0  0
 39 64  1  0  0  0  0
 39 75  1  0  0  0  0
 39 81  2  0  0  0  0
 40 70  1  0  0  0  0
 40 73  1  0  0  0  0
 40 82  2  0  0  0  0
 41 44  1  0  0  0  0
 42 51  1  0  0  0  0
 43 69  1  0  0  0  0
 44 46  1  0  0  0  0
 45 47  1  0  0  0  0
 45 48  1  0  0  0  0
 46 50  1  0  0  0  0
 47 52  1  0  0  0  0
 48 70  1  0  0  0  0
 49 52  1  0  0  0  0
 49 70  1  0  0  0  0
 50 74  1  0  0  0  0
 51 69  1  0  0  0  0
 52 68  1  0  0  0  0
 55 64  1  0  0  0  0
 56 65  1  0  0  0  0
 57 65  1  0  0  0  0
 58 65  1  0  0  0  0
 59 77  1  0  0  0  0
 60 61  1  0  0  0  0
 60 62  1  0  0  0  0
 61 76  1  0  0  0  0
 62 84  1  0  0  0  0
 63 65  1  0  0  0  0
 63 75  1  0  0  0  0
 64 77  1  0  0  0  0
 66 68  1  0  0  0  0
M  CHG  2  76   1  77   1
M  ISO  4  40 100  62 101  73 100  84 101
M  END
> <Batch ID>
0056

> <Smiles>
CNC(C)C(=O)NC(C(=O)N1Cc2cc([101O:1][101CH2:1]CCNC(C)=Nc3cccc(=[100N:0][100C:0](=O)N4CCCC(n5nc(-c6ccc(Oc7ccc(F)cc7F)cc6)c(C(N)=O)c5N)C4)c(C)c3)ccc2CC1C(=O)NC1CCCc2ccccc21)C(C)(C)C

> <Shape>
0.195

> <Color>
0.083

> <Negative vol penalty>
0.000

$$$$

  -OEChem-04042322523D

 91100  0     1  0  0  0  0  0999 V2000
  -23.5252   -8.2711   21.9685 C   0  0  0  0  0  0  0  0  0  0  0  0
  -24.6516   -9.0842   21.8950 C   0  0  0  0  0  0  0  0  0  0  0  0
  -19.4038  -28.8669   23.3894 C   0  0  0  0  0  0  0  0  0  0  0  0
  -20.3911  -26.8385   22.5247 C   0  0  0  0  0  0  0  0  0  0  0  0
  -22.3883   -8.5882   21.2262 C   0  0  0  0  0  0  0  0  0  0  0  0
  -24.6423  -10.2143   21.0782 C   0  0  0  0  0  0  0  0  0  0  0  0
  -27.4439  -15.5538   22.1491 C   0  0  0  0  0  0  0  0  0  0  0  0
  -31.3306  -22.1006   18.5955 C   0  0  0  0  0  0  0  0  0  0  0  0
  -31.5006  -23.3655   18.0327 C   0  0  0  0  0  0  0  0  0  0  0  0
  -18.1316  -28.3632   23.1184 C   0  0  0  0  0  0  0  0  0  0  0  0
  -19.1189  -26.3347   22.2538 C   0  0  0  0  0  0  0  0  0  0  0  0
  -28.6513  -16.0863   21.6992 C   0  0  0  0  0  0  0  0  0  0  0  0
  -16.5907  -24.9002   23.9773 C   0  0  0  0  0  0  0  0  0  0  0  0
  -16.3283  -23.5786   24.3380 C   0  0  0  0  0  0  0  0  0  0  0  0
  -27.4749  -17.2618   19.9518 C   0  0  0  0  0  0  0  0  0  0  0  0
  -29.1697  -22.7688   19.4446 C   0  0  0  0  0  0  0  0  0  0  0  0
  -15.8573  -23.0423   22.0299 C   0  0  0  0  0  0  0  0  0  0  0  0
  -20.5336  -28.1046   23.0924 C   0  0  0  0  0  0  0  0  0  0  0  0
  -22.3619  -29.0085   24.6247 C   0  0  0  0  0  0  0  0  0  0  0  0
  -22.3617   -9.7281   20.4074 C   0  0  0  0  0  0  0  0  0  0  0  0
  -26.2422  -15.8631   21.4959 C   0  0  0  0  0  0  0  0  0  0  0  0
  -23.5045  -10.5462   20.3232 C   0  0  0  0  0  0  0  0  0  0  0  0
  -26.2533  -16.7339   20.3969 C   0  0  0  0  0  0  0  0  0  0  0  0
  -30.1651  -21.8023   19.3015 C   0  0  0  0  0  0  0  0  0  0  0  0
  -30.5051  -24.3321   18.1759 C   0  0  0  0  0  0  0  0  0  0  0  0
  -29.3397  -24.0338   18.8818 C   0  0  0  0  0  0  0  0  0  0  0  0
  -17.9892  -27.0971   22.5506 C   0  0  0  0  0  0  0  0  0  0  0  0
  -28.6673  -16.9381   20.5987 C   0  0  0  0  0  0  0  0  0  0  0  0
  -16.4863  -25.2929   22.6429 C   0  0  0  0  0  0  0  0  0  0  0  0
  -15.9616  -22.6496   23.3643 C   0  0  0  0  0  0  0  0  0  0  0  0
  -16.1196  -24.3639   21.6692 C   0  0  0  0  0  0  0  0  0  0  0  0
  -21.8480  -28.6246   23.3716 C   0  0  0  0  0  0  0  0  0  0  0  0
  -23.6416  -29.4294   24.3567 C   0  0  0  0  0  0  0  0  0  0  0  0
  -31.1626  -20.9232   22.0106 C   0  0  0  0  0  0  0  0  0  0  0  0
  -21.7383  -28.9865   25.9156 C   0  0  0  0  0  0  0  0  0  0  0  0
  -24.0371  -14.1826   19.9412 C   0  0  0  0  0  0  0  0  0  0  0  0
  -22.4751  -17.0249   19.8783 C   0  0  0  0  0  0  0  0  0  0  0  0
  -22.6506  -20.4307   20.0066 C   0  0  0  0  0  0  0  0  0  0  0  0
  -27.5199  -28.1549   19.9766 C   0  0  0  0  0  0  0  0  0  0  0  0
  -21.1264  -10.0041   19.5872 C   0  0  0  0  0  0  0  0  0  0  0  0
  -24.9449  -15.3017   22.0099 C   0  0  0  0  0  0  0  0  0  0  0  0
  -24.9881  -17.1135   19.6731 C   0  0  0  0  0  0  0  0  0  0  0  0
  -32.3884  -20.6898   22.8738 C   0  0  0  0  0  0  0  0  0  0  0  0
  -21.0671  -11.4259   19.0349 C   0  0  0  0  0  0  0  0  0  0  0  0
  -32.9530  -19.2852   22.8338 C   0  0  0  0  0  0  0  0  0  0  0  0
  -26.2935  -31.3728   20.8809 C   0  0  0  0  0  0  0  0  0  0  0  0
  -22.4067  -11.8154   18.4180 C   0  0  0  0  0  0  0  0  0  0  0  0
  -25.0615  -31.0680   21.7349 C   0  0  0  0  0  0  0  0  0  0  0  0
  -33.0969  -18.8312   21.3937 C   0  0  0  0  0  0  0  0  0  0  0  0
  -26.4472  -30.3748   19.7354 C   0  0  0  0  0  0  0  0  0  0  0  0
  -25.2168  -28.6530   20.9985 C   0  0  0  0  0  0  0  0  0  0  0  0
  -23.5244  -11.7944   19.4677 C   0  0  1  0  0  0  0  0  0  0  0  0
  -23.8446  -15.2762   20.9535 C   0  0  1  0  0  0  0  0  0  0  0  0
  -25.0509  -29.5994   22.1998 C   0  0  2  0  0  0  0  0  0  0  0  0
  -31.7416  -18.8497   20.6857 C   0  0  1  0  0  0  0  0  0  0  0  0
  -30.7101  -25.6797   17.5655 C   0  0  0  0  0  0  0  0  0  0  0  0
  -21.2113  -22.4831   19.8907 C   0  0  0  0  0  0  0  0  0  0  0  0
  -22.2412  -16.6871   16.8548 C   0  0  0  0  0  0  0  0  0  0  0  0
  -21.6798  -19.1219   16.6963 C   0  0  0  0  0  0  0  0  0  0  0  0
  -20.1866  -17.5796   17.9668 C   0  0  0  0  0  0  0  0  0  0  0  0
  -23.4271  -21.2707   22.7362 C   0  0  0  0  0  0  0  0  0  0  0  0
  -29.9826  -20.4408   19.9076 C   0  0  0  0  0  0  0  0  0  0  0  0
  -30.8661  -17.6721   21.1304 C   0  0  0  0  0  0  0  0  0  1  0  0
  -28.4706  -25.8877   20.3155 C   0  0  0  0  0  0  0  0  0  0  0  0
  -22.4372  -18.2033   18.9354 C   0  0  1  0  0  0  0  0  0  0  0  0
  -21.8566  -21.4510   20.8023 C   0  0  2  0  0  0  0  0  0  0  0  0
  -28.2605  -25.0527   19.0483 C   0  0  0  0  0  0  0  0  0  0  0  0
  -21.6605  -17.8895   17.6256 C   0  0  0  0  0  0  0  0  0  0  0  0
  -22.7292  -28.7873   22.3811 N   0  0  0  0  0  0  0  0  0  0  0  0
  -23.8097  -29.2782   23.0117 N   0  0  0  0  0  0  0  0  0  0  0  0
  -31.0312  -20.1277   20.8725 N   0  0  0  0  0  0  0  0  0  0  0  0
  -23.7458  -16.5338   20.2098 N   0  0  0  0  0  0  0  0  0  0  0  0
  -26.4310  -29.0010   20.2438 N   0  0  0  0  0  0  0  0  0  0  0  0
  -24.6281  -29.9104   25.1427 N   0  0  0  0  0  0  0  0  0  0  0  0
  -20.4188  -28.5241   26.0123 N   0  0  0  0  0  0  0  0  0  0  0  0
  -23.4607  -12.9783   20.2975 N   0  0  0  0  0  0  0  0  0  0  0  0
  -21.8928  -19.3203   19.6998 N   0  0  0  0  0  0  0  0  0  0  0  0
  -27.4270  -26.8713   20.5004 N   0  0  0  0  0  0  0  0  0  0  0  0
  -22.7450  -22.1631   21.7639 N   0  3  0  0  0  0  0  0  0  0  0  0
  -30.4038  -21.8553   22.2921 O   0  0  0  0  0  0  0  0  0  0  0  0
  -22.3280  -29.3812   26.9500 O   0  0  0  0  0  0  0  0  0  0  0  0
  -24.6610  -14.4146   18.9123 O   0  0  0  0  0  0  0  0  0  0  0  0
  -21.4166  -16.5619   20.3104 O   0  0  0  0  0  0  0  0  0  0  0  0
  -23.8244  -20.6032   19.6859 O   0  0  0  0  0  0  0  0  0  0  0  0
  -28.5044  -28.5183   19.3243 O   0  0  0  0  0  0  0  0  0  0  0  0
  -16.7479  -26.6052   22.2864 O   0  0  0  0  0  0  0  0  0  0  0  0
  -29.8445  -17.4588   20.1571 O   0  0  0  0  0  0  0  0  0  1  0  0
  -15.7112  -21.3802   23.7106 F   0  0  0  0  0  0  0  0  0  0  0  0
  -16.0188  -24.7350   20.3855 F   0  0  0  0  0  0  0  0  0  0  0  0
  -28.1842  -25.9196   17.9882 F   0  0  0  0  0  0  0  0  0  0  0  0
  -27.0114  -24.4913   19.1238 F   0  0  0  0  0  0  0  0  0  0  0  0
  1  2  1  0  0  0  0
  1  5  2  0  0  0  0
  2  6  2  0  0  0  0
  3 10  2  0  0  0  0
  3 18  1  0  0  0  0
  4 11  1  0  0  0  0
  4 18  2  0  0  0  0
  5 20  1  0  0  0  0
  6 22  1  0  0  0  0
  7 12  2  0  0  0  0
  7 21  1  0  0  0  0
  8  9  2  0  0  0  0
  8 24  1  0  0  0  0
  9 25  1  0  0  0  0
 10 27  1  0  0  0  0
 11 27  2  0  0  0  0
 12 28  1  0  0  0  0
 13 14  2  0  0  0  0
 13 29  1  0  0  0  0
 14 30  1  0  0  0  0
 15 23  1  0  0  0  0
 15 28  2  0  0  0  0
 16 24  2  0  0  0  0
 16 26  1  0  0  0  0
 17 30  2  0  0  0  0
 17 31  1  0  0  0  0
 18 32  1  0  0  0  0
 19 32  1  0  0  0  0
 19 33  2  0  0  0  0
 19 35  1  0  0  0  0
 20 22  2  0  0  0  0
 20 40  1  0  0  0  0
 21 23  2  0  0  0  0
 21 41  1  0  0  0  0
 22 52  1  0  0  0  0
 23 42  1  0  0  0  0
 24 62  1  0  0  0  0
 25 26  2  0  0  0  0
 25 56  1  0  0  0  0
 26 67  1  0  0  0  0
 27 86  1  0  0  0  0
 28 87  1  0  0  0  0
 29 31  2  0  0  0  0
 29 86  1  0  0  0  0
 30 88  1  0  0  0  0
 31 89  1  0  0  0  0
 32 69  2  0  0  0  0
 33 70  1  0  0  0  0
 33 74  1  0  0  0  0
 34 43  1  0  0  0  0
 34 71  1  0  0  0  0
 34 80  2  0  0  0  0
 35 75  1  0  0  0  0
 35 81  2  0  0  0  0
 36 53  1  0  0  0  0
 36 76  1  0  0  0  0
 36 82  2  0  0  0  0
 37 65  1  0  0  0  0
 37 72  1  0  0  0  0
 37 83  2  0  0  0  0
 38 66  1  0  0  0  0
 38 77  1  0  0  0  0
 38 84  2  0  0  0  0
 39 73  1  0  0  0  0
 39 78  1  0  0  0  0
 39 85  2  0  0  0  0
 40 44  1  0  0  0  0
 41 53  1  0  0  0  0
 42 72  1  0  0  0  0
 43 45  1  0  0  0  0
 44 47  1  0  0  0  0
 45 49  1  0  0  0  0
 46 48  1  0  0  0  0
 46 50  1  0  0  0  0
 47 52  1  0  0  0  0
 48 54  1  0  0  0  0
 49 55  1  0  0  0  0
 50 73  1  0  0  0  0
 51 54  1  0  0  0  0
 51 73  1  0  0  0  0
 52 76  1  0  0  0  0
 53 72  1  0  0  0  0
 54 70  1  0  0  0  0
 55 63  1  0  0  0  0
 55 71  1  0  0  0  0
 57 66  1  0  0  0  0
 58 68  1  0  0  0  0
 59 68  1  0  0  0  0
 60 68  1  0  0  0  0
 61 79  1  0  0  0  0
 62 71  1  0  0  0  0
 63 87  1  0  0  0  0
 64 67  1  0  0  0  0
 64 78  1  0  0  0  0
 65 68  1  0  0  0  0
 65 77  1  0  0  0  0
 66 79  1  0  0  0  0
 67 90  1  0  0  0  0
 67 91  1  0  0  0  0
 69 70  1  0  0  0  0
M  CHG  1  79   1
M  ISO  4  39 100  63 101  78 100  87 101
M  END
> <Batch ID>
0056

> <Smiles>
CNC(C)C(=O)NC(C(=O)N1Cc2cc([101O:1][101CH2:1]C3CCCC(=O)N3Cc3ccc(C)c(C(F)(F)C[100NH:0][100C:0](=O)N4CCCC(n5nc(-c6ccc(Oc7ccc(F)cc7F)cc6)c(C(N)=O)c5N)C4)c3)ccc2CC1C(=O)NC1CCCc2ccccc21)C(C)(C)C

> <Shape>
0.248

> <Color>
0.061

> <Negative vol penalty>
0.000

$$$$

  -OEChem-04042322523D

 92101  0     1  0  0  0  0  0999 V2000
  -23.0364  -18.5471   26.1945 C   0  0  0  0  0  0  0  0  0  0  0  0
  -24.2171  -19.1578   26.6049 C   0  0  0  0  0  0  0  0  0  0  0  0
  -23.0759   -9.8688   19.9407 C   0  0  0  0  0  0  0  0  0  0  0  0
  -23.8349   -9.8759   22.2343 C   0  0  0  0  0  0  0  0  0  0  0  0
  -22.5512  -18.7658   24.9058 C   0  0  0  0  0  0  0  0  0  0  0  0
  -24.9138  -19.9869   25.7265 C   0  0  0  0  0  0  0  0  0  0  0  0
  -28.0966  -25.0198   27.1568 C   0  0  0  0  0  0  0  0  0  0  0  0
  -32.3857  -18.5461   21.9878 C   0  0  0  0  0  0  0  0  0  0  0  0
  -31.8692  -17.3266   21.5500 C   0  0  0  0  0  0  0  0  0  0  0  0
  -22.3317   -8.7158   20.1905 C   0  0  0  0  0  0  0  0  0  0  0  0
  -23.0907   -8.7229   22.4842 C   0  0  0  0  0  0  0  0  0  0  0  0
  -29.4581  -25.2433   27.3570 C   0  0  0  0  0  0  0  0  0  0  0  0
  -19.8622   -7.9257   23.0857 C   0  0  0  0  0  0  0  0  0  0  0  0
  -19.1049   -7.8860   24.2563 C   0  0  0  0  0  0  0  0  0  0  0  0
  -29.6672  -25.9814   25.0700 C   0  0  0  0  0  0  0  0  0  0  0  0
  -33.0359  -22.6310   23.2231 C   0  0  0  0  0  0  0  0  0  0  0  0
  -20.3457   -5.9485   24.9934 C   0  0  0  0  0  0  0  0  0  0  0  0
  -32.3517  -20.9393   24.5422 C   0  0  0  0  0  0  0  0  0  0  0  0
  -23.8275  -10.4488   20.9626 C   0  0  0  0  0  0  0  0  0  0  0  0
  -24.1698  -12.9739   20.8424 C   0  0  0  0  0  0  0  0  0  0  0  0
  -23.2373  -19.6056   24.0144 C   0  0  0  0  0  0  0  0  0  0  0  0
  -27.5113  -25.2655   25.9064 C   0  0  0  0  0  0  0  0  0  0  0  0
  -24.4381  -20.2160   24.4242 C   0  0  0  0  0  0  0  0  0  0  0  0
  -28.2975  -25.7627   24.8572 C   0  0  0  0  0  0  0  0  0  0  0  0
  -30.3352  -18.9838   23.1881 C   0  0  0  0  0  0  0  0  0  0  0  0
  -29.8186  -17.7643   22.7503 C   0  0  0  0  0  0  0  0  0  0  0  0
  -31.6187  -19.3747   22.8069 C   0  0  0  0  0  0  0  0  0  0  0  0
  -30.5857  -16.9357   21.9312 C   0  0  0  0  0  0  0  0  0  0  0  0
  -32.8971  -22.2039   24.5668 C   0  0  0  0  0  0  0  0  0  0  0  0
  -22.3391   -8.1429   21.4623 C   0  0  0  0  0  0  0  0  0  0  0  0
  -30.2442  -25.7214   26.3128 C   0  0  0  0  0  0  0  0  0  0  0  0
  -20.8613   -6.9767   22.8688 C   0  0  0  0  0  0  0  0  0  0  0  0
  -19.3466   -6.8974   25.2102 C   0  0  0  0  0  0  0  0  0  0  0  0
  -21.1030   -5.9881   23.8227 C   0  0  0  0  0  0  0  0  0  0  0  0
  -24.5969  -11.6395   20.7050 C   0  0  0  0  0  0  0  0  0  0  0  0
  -25.2622  -13.7231   20.4794 C   0  0  0  0  0  0  0  0  0  0  0  0
  -32.5709  -21.6144   22.4183 C   0  0  0  0  0  0  0  0  0  0  0  0
  -22.8993  -13.4900   21.2608 C   0  0  0  0  0  0  0  0  0  0  0  0
  -26.0241  -23.4816   23.7362 C   0  0  0  0  0  0  0  0  0  0  0  0
  -25.5125  -26.3454   22.3013 C   0  0  0  0  0  0  0  0  0  0  0  0
  -26.4884  -29.5877   21.8749 C   0  0  0  0  0  0  0  0  0  0  0  0
  -30.7286  -14.7678   20.6560 C   0  0  0  0  0  0  0  0  0  0  0  0
  -22.6988  -19.7742   22.6157 C   0  0  0  0  0  0  0  0  0  0  0  0
  -26.0359  -25.0448   25.7142 C   0  0  0  0  0  0  0  0  0  0  0  0
  -27.7135  -26.0617   23.5014 C   0  0  0  0  0  0  0  0  0  0  0  0
  -23.2990  -20.9642   21.8713 C   0  0  0  0  0  0  0  0  0  0  0  0
  -29.6146  -12.3539   18.2876 C   0  0  0  0  0  0  0  0  0  0  0  0
  -24.8154  -20.9864   22.0347 C   0  0  0  0  0  0  0  0  0  0  0  0
  -28.1747  -12.0626   18.7167 C   0  0  0  0  0  0  0  0  0  0  0  0
  -30.5293  -12.5827   19.4895 C   0  0  0  0  0  0  0  0  0  0  0  0
  -28.6220  -13.3077   20.8700 C   0  0  0  0  0  0  0  0  0  0  0  0
  -25.2093  -21.1417   23.5086 C   0  0  1  0  0  0  0  0  0  0  0  0
  -25.6476  -24.8413   24.2530 C   0  0  1  0  0  0  0  0  0  0  0  0
  -27.6495  -13.1344   19.6919 C   0  0  2  0  0  0  0  0  0  0  0  0
  -29.5066  -19.8699   24.0661 C   0  0  0  0  0  0  0  0  0  0  0  0
  -25.8969  -31.6728   20.6099 C   0  0  0  0  0  0  0  0  0  0  0  0
  -27.5181  -17.1367   21.9464 C   0  0  0  0  0  0  0  0  0  0  0  0
  -28.4571  -16.0753   24.0255 C   0  0  0  0  0  0  0  0  0  0  0  0
  -26.7389  -25.1565   19.7730 C   0  0  0  0  0  0  0  0  0  0  0  0
  -26.9942  -27.4839   18.8862 C   0  0  0  0  0  0  0  0  0  0  0  0
  -24.7218  -26.5826   19.3830 C   0  0  0  0  0  0  0  0  0  0  0  0
  -25.9887  -31.0988   24.3700 C   0  0  0  0  0  0  0  0  0  0  0  0
  -33.6843  -24.9239   27.0266 C   0  0  0  0  0  0  0  0  0  0  0  0
  -33.8140  -24.2468   25.6676 C   0  0  0  0  0  0  0  0  0  0  0  0
  -32.2357  -25.1128   27.4614 C   0  0  0  0  0  0  0  0  0  1  0  0
  -26.2612  -27.1862   21.2956 C   0  0  1  0  0  0  0  0  0  0  0  0
  -25.7038  -30.8871   21.8976 C   0  0  2  0  0  0  0  0  0  0  0  0
  -28.4406  -17.3464   23.1593 C   0  0  0  0  0  0  0  0  0  0  0  0
  -26.1907  -26.5949   19.8593 C   0  0  0  0  0  0  0  0  0  0  0  0
  -25.8619  -11.5434   20.2872 N   0  0  0  0  0  0  0  0  0  0  0  0
  -32.1573  -20.5913   23.2310 N   0  0  0  0  0  0  0  0  0  0  0  0
  -26.2391  -12.8269   20.1588 N   0  0  0  0  0  0  0  0  0  0  0  0
  -26.2674  -25.8236   23.3613 N   0  0  0  0  0  0  0  0  0  0  0  0
  -29.9702  -13.6137   20.3666 N   0  0  0  0  0  0  0  0  0  0  0  0
  -25.4729  -15.0546   20.4063 N   0  0  0  0  0  0  0  0  0  0  0  0
  -21.8871  -12.5810   21.5978 N   0  0  0  0  0  0  0  0  0  0  0  0
  -30.0811  -15.6931   21.4741 N   0  0  0  0  0  0  0  0  0  0  0  0
  -33.2443  -22.9214   25.7009 N   0  0  0  0  0  0  0  0  0  0  0  0
  -25.0539  -22.5171   23.9310 N   0  0  0  0  0  0  0  0  0  0  0  0
  -25.7238  -28.5375   21.4125 N   0  0  0  0  0  0  0  0  0  0  0  0
  -26.1449  -31.7386   23.0384 N   0  3  0  0  0  0  0  0  0  0  0  0
  -22.6632  -14.7206   21.3179 O   0  0  0  0  0  0  0  0  0  0  0  0
  -27.1137  -23.3197   23.1992 O   0  0  0  0  0  0  0  0  0  0  0  0
  -24.3010  -26.1643   22.1558 O   0  0  0  0  0  0  0  0  0  0  0  0
  -27.6632  -29.5126   22.2281 O   0  0  0  0  0  0  0  0  0  0  0  0
  -31.8578  -14.9363   20.1888 O   0  0  0  0  0  0  0  0  0  0  0  0
  -32.4902  -21.5306   21.0960 O   0  0  0  0  0  0  0  0  0  0  0  0
  -21.6129   -7.0179   21.7065 O   0  0  0  0  0  0  0  0  0  0  0  0
  -31.5735  -25.9397   26.5054 O   0  0  0  0  0  0  0  0  0  1  0  0
  -18.6203   -6.8604   26.3350 F   0  0  0  0  0  0  0  0  0  0  0  0
  -22.0623   -5.0745   23.6206 F   0  0  0  0  0  0  0  0  0  0  0  0
  -27.8038  -18.2981   23.9329 F   0  0  0  0  0  0  0  0  0  0  0  0
  1  2  1  0  0  0  0
  1  5  2  0  0  0  0
  2  6  2  0  0  0  0
  3 10  2  0  0  0  0
  3 19  1  0  0  0  0
  4 11  1  0  0  0  0
  4 19  2  0  0  0  0
  5 21  1  0  0  0  0
  6 23  1  0  0  0  0
  7 12  2  0  0  0  0
  7 22  1  0  0  0  0
  8  9  2  0  0  0  0
  8 27  1  0  0  0  0
  9 28  1  0  0  0  0
 10 30  1  0  0  0  0
 11 30  2  0  0  0  0
 12 31  1  0  0  0  0
 13 14  2  0  0  0  0
 13 32  1  0  0  0  0
 14 33  1  0  0  0  0
 15 24  1  0  0  0  0
 15 31  2  0  0  0  0
 16 29  1  0  0  0  0
 16 37  2  0  0  0  0
 17 33  2  0  0  0  0
 17 34  1  0  0  0  0
 18 29  2  0  0  0  0
 18 71  1  0  0  0  0
 19 35  1  0  0  0  0
 20 35  1  0  0  0  0
 20 36  2  0  0  0  0
 20 38  1  0  0  0  0
 21 23  2  0  0  0  0
 21 43  1  0  0  0  0
 22 24  2  0  0  0  0
 22 44  1  0  0  0  0
 23 52  1  0  0  0  0
 24 45  1  0  0  0  0
 25 26  1  0  0  0  0
 25 27  2  0  0  0  0
 25 55  1  0  0  0  0
 26 28  2  0  0  0  0
 26 68  1  0  0  0  0
 27 71  1  0  0  0  0
 28 77  1  0  0  0  0
 29 78  1  0  0  0  0
 30 88  1  0  0  0  0
 31 89  1  0  0  0  0
 32 34  2  0  0  0  0
 32 88  1  0  0  0  0
 33 90  1  0  0  0  0
 34 91  1  0  0  0  0
 35 70  2  0  0  0  0
 36 72  1  0  0  0  0
 36 75  1  0  0  0  0
 37 71  1  0  0  0  0
 37 87  1  0  0  0  0
 38 76  1  0  0  0  0
 38 82  2  0  0  0  0
 39 53  1  0  0  0  0
 39 79  1  0  0  0  0
 39 83  2  0  0  0  0
 40 66  1  0  0  0  0
 40 73  1  0  0  0  0
 40 84  2  0  0  0  0
 41 67  1  0  0  0  0
 41 80  1  0  0  0  0
 41 85  2  0  0  0  0
 42 74  1  0  0  0  0
 42 77  1  0  0  0  0
 42 86  2  0  0  0  0
 43 46  1  0  0  0  0
 44 53  1  0  0  0  0
 45 73  1  0  0  0  0
 46 48  1  0  0  0  0
 47 49  1  0  0  0  0
 47 50  1  0  0  0  0
 48 52  1  0  0  0  0
 49 54  1  0  0  0  0
 50 74  1  0  0  0  0
 51 54  1  0  0  0  0
 51 74  1  0  0  0  0
 52 79  1  0  0  0  0
 53 73  1  0  0  0  0
 54 72  1  0  0  0  0
 56 67  1  0  0  0  0
 57 68  1  0  0  0  0
 58 68  1  0  0  0  0
 59 69  1  0  0  0  0
 60 69  1  0  0  0  0
 61 69  1  0  0  0  0
 62 81  1  0  0  0  0
 63 64  1  0  0  0  0
 63 65  1  0  0  0  0
 64 78  1  0  0  0  0
 65 89  1  0  0  0  0
 66 69  1  0  0  0  0
 66 80  1  0  0  0  0
 67 81  1  0  0  0  0
 68 92  1  0  0  0  0
 70 72  1  0  0  0  0
M  CHG  1  81   1
M  ISO  4  42 100  65 101  77 100  89 101
M  END
> <Batch ID>
0056

> <Smiles>
CNC(C)C(=O)NC(C(=O)N1Cc2cc([101O:1][101CH2:1]CCN=C3CC(=O)N(c4ccc([100NH:0][100C:0](=O)N5CCCC(n6nc(-c7ccc(Oc8ccc(F)cc8F)cc7)c(C(N)=O)c6N)C5)c(C(C)(C)F)c4C)C3)ccc2CC1C(=O)NC1CCCc2ccccc21)C(C)(C)C

> <Shape>
0.228

> <Color>
0.180

> <Negative vol penalty>
0.000

$$$$

  -OEChem-04042322523D

 89 97  0     1  0  0  0  0  0999 V2000
  -20.1439  -21.9913   20.0494 C   0  0  0  0  0  0  0  0  0  0  0  0
  -21.4120  -22.3086   20.5254 C   0  0  0  0  0  0  0  0  0  0  0  0
  -24.3688  -10.4511   23.1465 C   0  0  0  0  0  0  0  0  0  0  0  0
  -24.3361  -12.2147   24.7975 C   0  0  0  0  0  0  0  0  0  0  0  0
  -19.5211  -22.8233   19.1200 C   0  0  0  0  0  0  0  0  0  0  0  0
  -22.0585  -23.4577   20.0716 C   0  0  0  0  0  0  0  0  0  0  0  0
  -24.2151  -26.0846   23.8257 C   0  0  0  0  0  0  0  0  0  0  0  0
  -23.8865   -9.5519   24.0975 C   0  0  0  0  0  0  0  0  0  0  0  0
  -23.8537  -11.3155   25.7485 C   0  0  0  0  0  0  0  0  0  0  0  0
  -25.4274  -25.6074   24.3221 C   0  0  0  0  0  0  0  0  0  0  0  0
  -20.9154   -8.7823   25.5164 C   0  0  0  0  0  0  0  0  0  0  0  0
  -19.8822   -7.9267   25.1341 C   0  0  0  0  0  0  0  0  0  0  0  0
  -26.6066  -27.2426   22.9975 C   0  0  0  0  0  0  0  0  0  0  0  0
  -29.0087  -22.2569   20.6202 C   0  0  0  0  0  0  0  0  0  0  0  0
  -30.1500  -20.1295   20.7111 C   0  0  0  0  0  0  0  0  0  0  0  0
  -27.7552  -20.2032   20.4009 C   0  0  0  0  0  0  0  0  0  0  0  0
  -21.2852   -6.0188   25.6126 C   0  0  0  0  0  0  0  0  0  0  0  0
  -24.5937  -11.7825   23.4965 C   0  0  0  0  0  0  0  0  0  0  0  0
  -24.3342  -13.5149   21.6420 C   0  0  0  0  0  0  0  0  0  0  0  0
  -20.1563  -23.9883   18.6618 C   0  0  0  0  0  0  0  0  0  0  0  0
  -24.1901  -27.1390   22.9015 C   0  0  0  0  0  0  0  0  0  0  0  0
  -21.4442  -24.3054   19.1342 C   0  0  0  0  0  0  0  0  0  0  0  0
  -25.3926  -27.7331   22.4928 C   0  0  0  0  0  0  0  0  0  0  0  0
  -30.1874  -21.5232   20.7539 C   0  0  0  0  0  0  0  0  0  0  0  0
  -27.7925  -21.5969   20.4437 C   0  0  0  0  0  0  0  0  0  0  0  0
  -28.9339  -19.4694   20.5346 C   0  0  0  0  0  0  0  0  0  0  0  0
  -23.6289   -9.9841   25.3985 C   0  0  0  0  0  0  0  0  0  0  0  0
  -26.6235  -26.1845   23.9058 C   0  0  0  0  0  0  0  0  0  0  0  0
  -22.1335   -8.2562   25.9467 C   0  0  0  0  0  0  0  0  0  0  0  0
  -20.0671   -6.5450   25.1823 C   0  0  0  0  0  0  0  0  0  0  0  0
  -22.3184   -6.8745   25.9948 C   0  0  0  0  0  0  0  0  0  0  0  0
  -25.0925  -12.7117   22.5147 C   0  0  0  0  0  0  0  0  0  0  0  0
  -25.2695  -14.2120   20.9170 C   0  0  0  0  0  0  0  0  0  0  0  0
  -30.7292  -24.1838   22.9478 C   0  0  0  0  0  0  0  0  0  0  0  0
  -29.8922  -24.7160   23.8494 C   0  0  0  0  0  0  0  0  0  0  0  0
  -22.9115  -13.6213   21.4995 C   0  0  0  0  0  0  0  0  0  0  0  0
  -31.6290  -23.0605   23.3392 C   0  0  0  0  0  0  0  0  0  0  0  0
  -23.1909  -27.4697   19.9022 C   0  0  0  0  0  0  0  0  0  0  0  0
  -23.9255  -30.5877   20.4126 C   0  0  0  0  0  0  0  0  0  0  0  0
  -25.7359  -32.8880   22.1669 C   0  0  0  0  0  0  0  0  0  0  0  0
  -29.9731  -17.1757   20.6074 C   0  0  0  0  0  0  0  0  0  0  0  0
  -19.4631  -24.8318   17.6213 C   0  0  0  0  0  0  0  0  0  0  0  0
  -22.8727  -27.6599   22.3959 C   0  0  0  0  0  0  0  0  0  0  0  0
  -25.4189  -28.8809   21.5179 C   0  0  0  0  0  0  0  0  0  0  0  0
  -20.0600  -26.2289   17.4732 C   0  0  0  0  0  0  0  0  0  0  0  0
  -30.2869  -13.6291   20.5893 C   0  0  0  0  0  0  0  0  0  0  0  0
  -21.5817  -26.1543   17.3997 C   0  0  0  0  0  0  0  0  0  0  0  0
  -28.9011  -13.1404   21.0168 C   0  0  0  0  0  0  0  0  0  0  0  0
  -30.6893  -14.9067   21.3239 C   0  0  0  0  0  0  0  0  0  0  0  0
  -28.3271  -15.5121   21.6745 C   0  0  0  0  0  0  0  0  0  0  0  0
  -22.1675  -25.5563   18.6845 C   0  0  1  0  0  0  0  0  0  0  0  0
  -22.9928  -28.3986   21.0665 C   0  0  1  0  0  0  0  0  0  0  0  0
  -27.8508  -14.2637   20.9140 C   0  0  2  0  0  0  0  0  0  0  0  0
  -26.1513  -35.3573   22.3325 C   0  0  0  0  0  0  0  0  0  0  0  0
  -26.2510  -23.2606   21.5336 C   0  0  0  0  0  0  0  0  0  0  0  0
  -26.5329  -23.2572   19.0333 C   0  0  0  0  0  0  0  0  0  0  0  0
  -25.6477  -30.4641   17.8970 C   0  0  0  0  0  0  0  0  0  0  0  0
  -26.7516  -32.5875   18.6326 C   0  0  0  0  0  0  0  0  0  0  0  0
  -24.3061  -32.5606   18.1409 C   0  0  0  0  0  0  0  0  0  0  0  0
  -32.8150  -21.0159   22.6393 C   0  0  0  0  0  0  0  0  0  0  0  0
  -24.7592  -32.9827   24.9591 C   0  0  0  0  0  0  0  0  0  0  0  0
  -31.4963  -22.2336   20.9441 C   0  0  0  0  0  0  0  0  0  0  0  0
  -28.9451  -25.8280   23.5326 C   0  0  0  0  0  0  0  0  0  1  0  0
  -25.1610  -31.4373   20.2383 C   0  0  1  0  0  0  0  0  0  0  0  0
  -25.3305  -34.1842   22.8452 C   0  0  2  0  0  0  0  0  0  0  0  0
  -26.5323  -22.3816   20.3006 C   0  0  0  0  0  0  0  0  0  0  0  0
  -25.4665  -31.7395   18.7441 C   0  0  0  0  0  0  0  0  0  0  0  0
  -26.4082  -12.8818   22.3598 N   0  0  0  0  0  0  0  0  0  0  0  0
  -26.4839  -13.7999   21.3813 N   0  0  0  0  0  0  0  0  0  0  0  0
  -24.1054  -29.3505   21.0473 N   0  0  0  0  0  0  0  0  0  0  0  0
  -29.6489  -15.9272   21.1790 N   0  0  0  0  0  0  0  0  0  0  0  0
  -25.1634  -15.1312   19.9340 N   0  0  0  0  0  0  0  0  0  0  0  0
  -22.0966  -12.8335   22.3238 N   0  0  0  0  0  0  0  0  0  0  0  0
  -28.8959  -18.0537   20.4909 N   0  0  0  0  0  0  0  0  0  0  0  0
  -22.1777  -26.5437   19.7426 N   0  0  0  0  0  0  0  0  0  0  0  0
  -24.9579  -32.6263   21.0590 N   0  0  0  0  0  0  0  0  0  0  0  0
  -31.9644  -22.1571   22.3267 N   0  0  0  0  0  0  0  0  0  0  0  0
  -25.5273  -34.0813   24.3188 N   0  3  0  0  0  0  0  0  0  0  0  0
  -22.3789  -14.3801   20.6544 O   0  0  0  0  0  0  0  0  0  0  0  0
  -32.0093  -22.9604   24.5067 O   0  0  0  0  0  0  0  0  0  0  0  0
  -24.1883  -27.5855   19.1997 O   0  0  0  0  0  0  0  0  0  0  0  0
  -22.8394  -31.0094   20.0073 O   0  0  0  0  0  0  0  0  0  0  0  0
  -26.6535  -32.1805   22.5767 O   0  0  0  0  0  0  0  0  0  0  0  0
  -31.1159  -17.4362   20.2226 O   0  0  0  0  0  0  0  0  0  0  0  0
  -23.1579   -9.1070   26.3266 O   0  0  0  0  0  0  0  0  0  0  0  0
  -27.8082  -25.7202   24.3884 O   0  0  0  0  0  0  0  0  0  1  0  0
  -19.0744   -5.7234   24.8166 F   0  0  0  0  0  0  0  0  0  0  0  0
  -23.4860   -6.3632   26.4085 F   0  0  0  0  0  0  0  0  0  0  0  0
  -25.4112  -21.5796   20.1752 F   0  0  0  0  0  0  0  0  0  0  0  0
  1  2  1  0  0  0  0
  1  5  2  0  0  0  0
  2  6  2  0  0  0  0
  3  8  2  0  0  0  0
  3 18  1  0  0  0  0
  4  9  1  0  0  0  0
  4 18  2  0  0  0  0
  5 20  1  0  0  0  0
  6 22  1  0  0  0  0
  7 10  2  0  0  0  0
  7 21  1  0  0  0  0
  8 27  1  0  0  0  0
  9 27  2  0  0  0  0
 10 28  1  0  0  0  0
 11 12  2  0  0  0  0
 11 29  1  0  0  0  0
 12 30  1  0  0  0  0
 13 23  1  0  0  0  0
 13 28  2  0  0  0  0
 14 24  2  0  0  0  0
 14 25  1  0  0  0  0
 15 24  1  0  0  0  0
 15 26  2  0  0  0  0
 16 25  2  0  0  0  0
 16 26  1  0  0  0  0
 17 30  2  0  0  0  0
 17 31  1  0  0  0  0
 18 32  1  0  0  0  0
 19 32  1  0  0  0  0
 19 33  2  0  0  0  0
 19 36  1  0  0  0  0
 20 22  2  0  0  0  0
 20 42  1  0  0  0  0
 21 23  2  0  0  0  0
 21 43  1  0  0  0  0
 22 51  1  0  0  0  0
 23 44  1  0  0  0  0
 24 62  1  0  0  0  0
 25 66  1  0  0  0  0
 26 74  1  0  0  0  0
 27 85  1  0  0  0  0
 28 86  1  0  0  0  0
 29 31  2  0  0  0  0
 29 85  1  0  0  0  0
 30 87  1  0  0  0  0
 31 88  1  0  0  0  0
 32 68  2  0  0  0  0
 33 69  1  0  0  0  0
 33 72  1  0  0  0  0
 34 35  2  0  0  0  0
 34 37  1  0  0  0  0
 35 63  1  0  0  0  0
 36 73  1  0  0  0  0
 36 79  2  0  0  0  0
 37 77  1  0  0  0  0
 37 80  2  0  0  0  0
 38 52  1  0  0  0  0
 38 75  1  0  0  0  0
 38 81  2  0  0  0  0
 39 64  1  0  0  0  0
 39 70  1  0  0  0  0
 39 82  2  0  0  0  0
 40 65  1  0  0  0  0
 40 76  1  0  0  0  0
 40 83  2  0  0  0  0
 41 71  1  0  0  0  0
 41 74  1  0  0  0  0
 41 84  2  0  0  0  0
 42 45  1  0  0  0  0
 43 52  1  0  0  0  0
 44 70  1  0  0  0  0
 45 47  1  0  0  0  0
 46 48  1  0  0  0  0
 46 49  1  0  0  0  0
 47 51  1  0  0  0  0
 48 53  1  0  0  0  0
 49 71  1  0  0  0  0
 50 53  1  0  0  0  0
 50 71  1  0  0  0  0
 51 75  1  0  0  0  0
 52 70  1  0  0  0  0
 53 69  1  0  0  0  0
 54 65  1  0  0  0  0
 55 66  1  0  0  0  0
 56 66  1  0  0  0  0
 57 67  1  0  0  0  0
 58 67  1  0  0  0  0
 59 67  1  0  0  0  0
 60 77  1  0  0  0  0
 61 78  1  0  0  0  0
 62 77  1  0  0  0  0
 63 86  1  0  0  0  0
 64 67  1  0  0  0  0
 64 76  1  0  0  0  0
 65 78  1  0  0  0  0
 66 89  1  0  0  0  0
 68 69  1  0  0  0  0
M  CHG  1  78   1
M  ISO  4  41 100  63 101  74 100  86 101
M  END
> <Batch ID>
0056

> <Smiles>
CNC(C)C(=O)NC(C(=O)N1Cc2cc([101O:1][101CH2:1]C=CC(=O)N(C)Cc3cc([100NH:0][100C:0](=O)N4CCCC(n5nc(-c6ccc(Oc7ccc(F)cc7F)cc6)c(C(N)=O)c5N)C4)cc(C(C)(C)F)c3)ccc2CC1C(=O)NC1CCCc2ccccc21)C(C)(C)C

> <Shape>
0.201

> <Color>
0.097

> <Negative vol penalty>
0.000

$$$$
