
  -OEChem-04042322553D

 87 96  0     1  0  0  0  0  0999 V2000
  -32.3502  -14.4626   20.9916 C   0  0  0  0  0  0  0  0  0  0  0  0
  -31.5151  -15.5492   21.2310 C   0  0  0  0  0  0  0  0  0  0  0  0
  -29.0075  -23.1663   18.5310 C   0  0  0  0  0  0  0  0  0  0  0  0
  -26.9671  -22.6219   19.7047 C   0  0  0  0  0  0  0  0  0  0  0  0
  -31.8483  -13.3247   20.3614 C   0  0  0  0  0  0  0  0  0  0  0  0
  -30.1778  -15.4989   20.8394 C   0  0  0  0  0  0  0  0  0  0  0  0
  -25.3995  -18.0180   23.7253 C   0  0  0  0  0  0  0  0  0  0  0  0
  -19.4038  -27.9752   23.6035 C   0  0  0  0  0  0  0  0  0  0  0  0
  -20.5811  -28.3270   22.9434 C   0  0  0  0  0  0  0  0  0  0  0  0
  -29.5794  -21.9728   18.9717 C   0  0  0  0  0  0  0  0  0  0  0  0
  -27.5390  -21.4284   20.1453 C   0  0  0  0  0  0  0  0  0  0  0  0
  -24.6989  -19.2057   23.5191 C   0  0  0  0  0  0  0  0  0  0  0  0
  -29.4499  -18.6957   18.1490 C   0  0  0  0  0  0  0  0  0  0  0  0
  -30.1506  -17.9299   17.2173 C   0  0  0  0  0  0  0  0  0  0  0  0
  -23.0534  -18.0037   22.2281 C   0  0  0  0  0  0  0  0  0  0  0  0
  -20.2582  -26.5013   21.3944 C   0  0  0  0  0  0  0  0  0  0  0  0
  -32.1514  -18.1314   18.5564 C   0  0  0  0  0  0  0  0  0  0  0  0
  -27.7014  -23.4909   18.8976 C   0  0  0  0  0  0  0  0  0  0  0  0
  -26.9005  -25.1255   17.1103 C   0  0  0  0  0  0  0  0  0  0  0  0
  -30.5017  -13.2567   19.9706 C   0  0  0  0  0  0  0  0  0  0  0  0
  -24.9374  -16.8142   23.1743 C   0  0  0  0  0  0  0  0  0  0  0  0
  -29.6577  -14.3595   20.2023 C   0  0  0  0  0  0  0  0  0  0  0  0
  -23.7486  -16.8018   22.4309 C   0  0  0  0  0  0  0  0  0  0  0  0
  -18.6537  -26.8864   23.1591 C   0  0  0  0  0  0  0  0  0  0  0  0
  -19.0809  -26.1495   22.0546 C   0  0  0  0  0  0  0  0  0  0  0  0
  -21.0083  -27.5901   21.8389 C   0  0  0  0  0  0  0  0  0  0  0  0
  -28.8451  -21.1039   19.7788 C   0  0  0  0  0  0  0  0  0  0  0  0
  -23.5272  -19.1991   22.7680 C   0  0  0  0  0  0  0  0  0  0  0  0
  -30.1000  -19.1795   19.2844 C   0  0  0  0  0  0  0  0  0  0  0  0
  -31.5013  -17.6477   17.4210 C   0  0  0  0  0  0  0  0  0  0  0  0
  -31.4507  -18.8974   19.4881 C   0  0  0  0  0  0  0  0  0  0  0  0
  -27.1103  -24.7238   18.4431 C   0  0  0  0  0  0  0  0  0  0  0  0
  -26.3149  -26.3636   17.2129 C   0  0  0  0  0  0  0  0  0  0  0  0
  -19.3265  -23.0688   20.3911 C   0  0  0  0  0  0  0  0  0  0  0  0
  -27.2075  -24.4406   15.8887 C   0  0  0  0  0  0  0  0  0  0  0  0
  -26.0857  -14.7208   21.0761 C   0  0  0  0  0  0  0  0  0  0  0  0
  -23.4522  -13.0234   21.9164 C   0  0  0  0  0  0  0  0  0  0  0  0
  -20.2829  -13.0305   23.1822 C   0  0  0  0  0  0  0  0  0  0  0  0
  -23.0638  -29.0009   21.4767 C   0  0  0  0  0  0  0  0  0  0  0  0
  -30.0163  -12.0238   19.2501 C   0  0  0  0  0  0  0  0  0  0  0  0
  -25.6903  -15.5371   23.4284 C   0  0  0  0  0  0  0  0  0  0  0  0
  -23.1992  -15.5323   21.8349 C   0  0  0  0  0  0  0  0  0  0  0  0
  -20.0758  -21.7542   20.4999 C   0  0  0  0  0  0  0  0  0  0  0  0
  -28.4951  -11.9048   19.2036 C   0  0  0  0  0  0  0  0  0  0  0  0
  -26.1206  -30.1875   20.0895 C   0  0  0  0  0  0  0  0  0  0  0  0
  -27.8678  -13.2343   18.7965 C   0  0  0  0  0  0  0  0  0  0  0  0
  -26.6993  -28.9592   19.3834 C   0  0  0  0  0  0  0  0  0  0  0  0
  -20.2488  -22.0083   22.9526 C   0  0  0  0  0  0  0  0  0  0  0  0
  -25.4108  -29.8126   21.3892 C   0  0  0  0  0  0  0  0  0  0  0  0
  -19.7137  -23.4259   22.8542 C   0  0  0  0  0  0  0  0  0  0  0  0
  -24.9670  -27.5383   20.5527 C   0  0  0  0  0  0  0  0  0  0  0  0
  -28.1951  -14.3333   19.8146 C   0  0  1  0  0  0  0  0  0  0  0  0
  -25.4039  -14.4578   22.3889 C   0  0  1  0  0  0  0  0  0  0  0  0
  -21.0253  -21.6673   21.6876 C   0  0  1  0  0  0  0  0  0  0  0  0
  -25.6355  -27.8581   19.2057 C   0  0  2  0  0  0  0  0  0  0  0  0
  -17.3971  -26.5284   23.8825 C   0  0  0  0  0  0  0  0  0  0  0  0
  -18.3701  -11.4951   23.7125 C   0  0  0  0  0  0  0  0  0  0  0  0
  -22.7648  -12.8586   18.9482 C   0  0  0  0  0  0  0  0  0  0  0  0
  -20.4427  -12.1820   19.5949 C   0  0  0  0  0  0  0  0  0  0  0  0
  -22.3805  -10.7440   20.2270 C   0  0  0  0  0  0  0  0  0  0  0  0
  -20.3772  -13.7178   26.0593 C   0  0  0  0  0  0  0  0  0  0  0  0
  -18.2888  -24.9750   21.5571 C   0  0  0  0  0  0  0  0  0  0  0  0
  -21.6491  -20.2775   21.7853 C   0  0  0  0  0  0  0  0  0  1  0  0
  -22.0283  -12.9444   21.4213 C   0  0  1  0  0  0  0  0  0  0  0  0
  -19.6216  -12.1740   24.2469 C   0  0  2  0  0  0  0  0  0  0  0  0
  -21.9152  -12.2067   20.0574 C   0  0  0  0  0  0  0  0  0  0  0  0
  -26.6920  -25.6332   19.3276 N   0  0  0  0  0  0  0  0  0  0  0  0
  -26.2137  -26.6185   18.5489 N   0  0  0  0  0  0  0  0  0  0  0  0
  -19.0662  -23.7431   21.5821 N   0  0  0  0  0  0  0  0  0  0  0  0
  -23.9747  -14.3106   22.1059 N   0  0  0  0  0  0  0  0  0  0  0  0
  -24.4146  -28.7677   21.1428 N   0  0  0  0  0  0  0  0  0  0  0  0
  -25.8818  -27.2483   16.2897 N   0  0  0  0  0  0  0  0  0  0  0  0
  -27.8080  -23.1764   15.9642 N   0  0  0  0  0  0  0  0  0  0  0  0
  -22.2032  -27.9483   21.1668 N   0  0  0  0  0  0  0  0  0  0  0  0
  -27.3618  -14.1977   20.9901 N   0  0  0  0  0  0  0  0  0  0  0  0
  -21.2554  -12.3331   22.4971 N   0  0  0  0  0  0  0  0  0  0  0  0
  -19.2384  -13.0099   25.4197 N   0  3  0  0  0  0  0  0  0  0  0  0
  -18.9190  -23.4349   19.2852 O   0  0  0  0  0  0  0  0  0  0  0  0
  -26.9718  -24.9421   14.7633 O   0  0  0  0  0  0  0  0  0  0  0  0
  -25.4970  -15.3504   20.2050 O   0  0  0  0  0  0  0  0  0  0  0  0
  -24.0755  -11.9814   22.1341 O   0  0  0  0  0  0  0  0  0  0  0  0
  -19.9658  -14.1999   22.9761 O   0  0  0  0  0  0  0  0  0  0  0  0
  -22.6930  -30.0672   21.9742 O   0  0  0  0  0  0  0  0  0  0  0  0
  -29.4028  -19.9391   20.2088 O   0  0  0  0  0  0  0  0  0  0  0  0
  -22.8418  -20.3570   22.5647 O   0  0  0  0  0  0  0  0  0  1  0  0
  -32.1737  -16.9109   16.5270 F   0  0  0  0  0  0  0  0  0  0  0  0
  -32.0804  -19.3584   20.5775 F   0  0  0  0  0  0  0  0  0  0  0  0
  1  2  1  0  0  0  0
  1  5  2  0  0  0  0
  2  6  2  0  0  0  0
  3 10  2  0  0  0  0
  3 18  1  0  0  0  0
  4 11  1  0  0  0  0
  4 18  2  0  0  0  0
  5 20  1  0  0  0  0
  6 22  1  0  0  0  0
  7 12  2  0  0  0  0
  7 21  1  0  0  0  0
  8  9  2  0  0  0  0
  8 24  1  0  0  0  0
  9 26  1  0  0  0  0
 10 27  1  0  0  0  0
 11 27  2  0  0  0  0
 12 28  1  0  0  0  0
 13 14  2  0  0  0  0
 13 29  1  0  0  0  0
 14 30  1  0  0  0  0
 15 23  1  0  0  0  0
 15 28  2  0  0  0  0
 16 25  1  0  0  0  0
 16 26  2  0  0  0  0
 17 30  2  0  0  0  0
 17 31  1  0  0  0  0
 18 32  1  0  0  0  0
 19 32  1  0  0  0  0
 19 33  2  0  0  0  0
 19 35  1  0  0  0  0
 20 22  2  0  0  0  0
 20 40  1  0  0  0  0
 21 23  2  0  0  0  0
 21 41  1  0  0  0  0
 22 52  1  0  0  0  0
 23 42  1  0  0  0  0
 24 25  2  0  0  0  0
 24 56  1  0  0  0  0
 25 62  1  0  0  0  0
 26 74  1  0  0  0  0
 27 84  1  0  0  0  0
 28 85  1  0  0  0  0
 29 31  2  0  0  0  0
 29 84  1  0  0  0  0
 30 86  1  0  0  0  0
 31 87  1  0  0  0  0
 32 67  2  0  0  0  0
 33 68  1  0  0  0  0
 33 72  1  0  0  0  0
 34 43  1  0  0  0  0
 34 69  1  0  0  0  0
 34 78  2  0  0  0  0
 35 73  1  0  0  0  0
 35 79  2  0  0  0  0
 36 53  1  0  0  0  0
 36 75  1  0  0  0  0
 36 80  2  0  0  0  0
 37 64  1  0  0  0  0
 37 70  1  0  0  0  0
 37 81  2  0  0  0  0
 38 65  1  0  0  0  0
 38 76  1  0  0  0  0
 38 82  2  0  0  0  0
 39 71  1  0  0  0  0
 39 74  1  0  0  0  0
 39 83  2  0  0  0  0
 40 44  1  0  0  0  0
 41 53  1  0  0  0  0
 42 70  1  0  0  0  0
 43 54  1  0  0  0  0
 44 46  1  0  0  0  0
 45 47  1  0  0  0  0
 45 49  1  0  0  0  0
 46 52  1  0  0  0  0
 47 55  1  0  0  0  0
 48 50  1  0  0  0  0
 48 54  1  0  0  0  0
 49 71  1  0  0  0  0
 50 69  1  0  0  0  0
 51 55  1  0  0  0  0
 51 71  1  0  0  0  0
 52 75  1  0  0  0  0
 53 70  1  0  0  0  0
 54 63  1  0  0  0  0
 55 68  1  0  0  0  0
 57 65  1  0  0  0  0
 58 66  1  0  0  0  0
 59 66  1  0  0  0  0
 60 66  1  0  0  0  0
 61 77  1  0  0  0  0
 62 69  1  0  0  0  0
 63 85  1  0  0  0  0
 64 66  1  0  0  0  0
 64 76  1  0  0  0  0
 65 77  1  0  0  0  0
 67 68  1  0  0  0  0
M  CHG  1  77   1
M  ISO  4  39 100  63 101  74 100  85 101
M  END
> <Batch ID>
0057

> <Smiles>
CNC(C)C(=O)NC(C(=O)N1Cc2cc([101O:1][101CH2:1]C3CCN(Cc4cc([100NH:0][100C:0](=O)N5CCCC(n6nc(-c7ccc(Oc8ccc(F)cc8F)cc7)c(C(N)=O)c6N)C5)ccc4C)C(=O)C3)ccc2CC1C(=O)NC1CCCc2ccccc21)C(C)(C)C

> <Shape>
0.238

> <Color>
0.080

> <Negative vol penalty>
0.000

$$$$

  -OEChem-04042322553D

 86 94  0     1  0  0  0  0  0999 V2000
  -23.6939  -23.9638   18.6932 C   0  0  0  0  0  0  0  0  0  0  0  0
  -24.7868  -23.1861   19.0622 C   0  0  0  0  0  0  0  0  0  0  0  0
  -20.6322  -28.4881   19.9816 C   0  0  0  0  0  0  0  0  0  0  0  0
  -21.1588  -26.9014   21.7258 C   0  0  0  0  0  0  0  0  0  0  0  0
  -22.4115  -23.6009   19.1029 C   0  0  0  0  0  0  0  0  0  0  0  0
  -24.5982  -22.0457   19.8420 C   0  0  0  0  0  0  0  0  0  0  0  0
  -27.2444  -18.0742   18.1481 C   0  0  0  0  0  0  0  0  0  0  0  0
  -31.4591  -23.5246   21.4628 C   0  0  0  0  0  0  0  0  0  0  0  0
  -31.5800  -22.1400   21.5798 C   0  0  0  0  0  0  0  0  0  0  0  0
  -19.3308  -27.9897   19.9211 C   0  0  0  0  0  0  0  0  0  0  0  0
  -19.8574  -26.4031   21.6654 C   0  0  0  0  0  0  0  0  0  0  0  0
  -28.6063  -18.0431   18.4450 C   0  0  0  0  0  0  0  0  0  0  0  0
  -16.7959  -27.2953   22.7840 C   0  0  0  0  0  0  0  0  0  0  0  0
  -16.1325  -27.0716   23.9904 C   0  0  0  0  0  0  0  0  0  0  0  0
  -28.1704  -16.5104   20.2560 C   0  0  0  0  0  0  0  0  0  0  0  0
  -31.9658  -23.3696   19.1056 C   0  0  0  0  0  0  0  0  0  0  0  0
  -15.9058  -24.7319   23.4320 C   0  0  0  0  0  0  0  0  0  0  0  0
  -21.5462  -27.9439   20.8839 C   0  0  0  0  0  0  0  0  0  0  0  0
  -23.3631  -29.5067   21.7581 C   0  0  0  0  0  0  0  0  0  0  0  0
  -22.2060  -22.4501   19.8801 C   0  0  0  0  0  0  0  0  0  0  0  0
  -26.3325  -17.3308   18.9111 C   0  0  0  0  0  0  0  0  0  0  0  0
  -23.3120  -21.6678   20.2636 C   0  0  0  0  0  0  0  0  0  0  0  0
  -26.7977  -16.5317   19.9652 C   0  0  0  0  0  0  0  0  0  0  0  0
  -31.6519  -24.1395   20.2256 C   0  0  0  0  0  0  0  0  0  0  0  0
  -32.0868  -21.9849   19.2226 C   0  0  0  0  0  0  0  0  0  0  0  0
  -31.8938  -21.3701   20.4598 C   0  0  0  0  0  0  0  0  0  0  0  0
  -18.9434  -26.9472   20.7630 C   0  0  0  0  0  0  0  0  0  0  0  0
  -29.0691  -17.2634   19.5009 C   0  0  0  0  0  0  0  0  0  0  0  0
  -17.0141  -26.2373   21.9015 C   0  0  0  0  0  0  0  0  0  0  0  0
  -15.6875  -25.7899   24.3145 C   0  0  0  0  0  0  0  0  0  0  0  0
  -16.5691  -24.9556   22.2255 C   0  0  0  0  0  0  0  0  0  0  0  0
  -22.8908  -28.4579   20.9465 C   0  0  0  0  0  0  0  0  0  0  0  0
  -24.6973  -29.6070   21.4477 C   0  0  0  0  0  0  0  0  0  0  0  0
  -22.6588  -30.3177   22.7079 C   0  0  0  0  0  0  0  0  0  0  0  0
  -23.8472  -18.0456   20.7595 C   0  0  0  0  0  0  0  0  0  0  0  0
  -23.4974  -14.8225   20.8678 C   0  0  0  0  0  0  0  0  0  0  0  0
  -31.8503  -19.2124   21.7572 C   0  0  0  0  0  0  0  0  0  0  0  0
  -24.9351  -11.7409   20.5786 C   0  0  0  0  0  0  0  0  0  0  0  0
  -29.1292  -26.2593   20.1974 C   0  0  0  0  0  0  0  0  0  0  0  0
  -20.8066  -22.1242   20.3387 C   0  0  0  0  0  0  0  0  0  0  0  0
  -24.8698  -17.3542   18.5612 C   0  0  0  0  0  0  0  0  0  0  0  0
  -25.8622  -15.6994   20.8021 C   0  0  0  0  0  0  0  0  0  0  0  0
  -20.6505  -20.6941   20.8492 C   0  0  0  0  0  0  0  0  0  0  0  0
  -27.5001  -28.2098   17.6208 C   0  0  0  0  0  0  0  0  0  0  0  0
  -21.7890  -20.3395   21.8004 C   0  0  0  0  0  0  0  0  0  0  0  0
  -26.1816  -28.5760   18.3045 C   0  0  0  0  0  0  0  0  0  0  0  0
  -27.9381  -26.7947   17.9867 C   0  0  0  0  0  0  0  0  0  0  0  0
  -26.7388  -26.9108   20.1365 C   0  0  0  0  0  0  0  0  0  0  0  0
  -23.1452  -20.4099   21.0882 C   0  0  1  0  0  0  0  0  0  0  0  0
  -23.9699  -16.9597   19.7282 C   0  0  1  0  0  0  0  0  0  0  0  0
  -26.2536  -28.3381   19.8245 C   0  0  2  0  0  0  0  0  0  0  0  0
  -32.4268  -21.1855   18.0067 C   0  0  0  0  0  0  0  0  0  0  0  0
  -24.4046   -9.2948   20.7597 C   0  0  0  0  0  0  0  0  0  0  0  0
  -23.4986  -15.0501   23.9105 C   0  0  0  0  0  0  0  0  0  0  0  0
  -23.9241  -12.5855   24.0251 C   0  0  0  0  0  0  0  0  0  0  0  0
  -21.8236  -13.4398   22.9855 C   0  0  0  0  0  0  0  0  0  0  0  0
  -34.0000  -17.6542   23.0582 C   0  0  0  0  0  0  0  0  0  0  0  0
  -25.6560  -11.2564   17.7494 C   0  0  0  0  0  0  0  0  0  0  0  0
  -31.5250  -25.6204   20.1011 C   0  0  0  0  0  0  0  0  0  0  0  0
  -30.7579  -17.0105   21.1562 C   0  0  0  0  0  0  0  0  0  1  0  0
  -24.0166  -13.7201   21.7590 C   0  0  1  0  0  0  0  0  0  0  0  0
  -32.0632  -17.7285   21.4827 C   0  0  2  0  0  0  0  0  0  0  0  0
  -24.5021  -10.4937   19.8292 C   0  0  2  0  0  0  0  0  0  0  0  0
  -23.3334  -13.7159   23.1557 C   0  0  0  0  0  0  0  0  0  0  0  0
  -23.8472  -27.9298   20.1780 N   0  0  0  0  0  0  0  0  0  0  0  0
  -24.9338  -28.6498   20.5054 N   0  0  0  0  0  0  0  0  0  0  0  0
  -24.4404  -15.7606   20.4246 N   0  0  0  0  0  0  0  0  0  0  0  0
  -28.0045  -26.6400   19.4468 N   0  0  0  0  0  0  0  0  0  0  0  0
  -25.6795  -30.4198   21.8915 N   0  0  0  0  0  0  0  0  0  0  0  0
  -21.2914  -30.0811   22.9045 N   0  0  0  0  0  0  0  0  0  0  0  0
  -32.0121  -19.9669   20.5991 N   0  0  0  0  0  0  0  0  0  0  0  0
  -23.3462  -19.2354   20.2668 N   0  0  0  0  0  0  0  0  0  0  0  0
  -23.8532  -12.4788   21.0101 N   0  0  0  0  0  0  0  0  0  0  0  0
  -30.2862  -26.0145   19.4678 N   0  0  0  0  0  0  0  0  0  0  0  0
  -32.6954  -17.0666   22.6604 N   0  3  0  0  0  0  0  0  0  0  0  0
  -25.4785  -10.1728   18.7500 N   0  3  0  0  0  0  0  0  0  0  0  0
  -23.2216  -31.2361   23.3507 O   0  0  0  0  0  0  0  0  0  0  0  0
  -24.1810  -17.8201   21.9169 O   0  0  0  0  0  0  0  0  0  0  0  0
  -22.3006  -14.8461   20.5698 O   0  0  0  0  0  0  0  0  0  0  0  0
  -31.5723  -19.6243   22.8797 O   0  0  0  0  0  0  0  0  0  0  0  0
  -26.1150  -12.0296   20.7659 O   0  0  0  0  0  0  0  0  0  0  0  0
  -29.1058  -26.1508   21.4282 O   0  0  0  0  0  0  0  0  0  0  0  0
  -17.6736  -26.4608   20.7045 O   0  0  0  0  0  0  0  0  0  0  0  0
  -30.3978  -17.2317   19.7932 O   0  0  0  0  0  0  0  0  0  1  0  0
  -15.0518  -25.5750   25.4737 F   0  0  0  0  0  0  0  0  0  0  0  0
  -16.7770  -23.9351   21.3823 F   0  0  0  0  0  0  0  0  0  0  0  0
  1  2  1  0  0  0  0
  1  5  2  0  0  0  0
  2  6  2  0  0  0  0
  3 10  2  0  0  0  0
  3 18  1  0  0  0  0
  4 11  1  0  0  0  0
  4 18  2  0  0  0  0
  5 20  1  0  0  0  0
  6 22  1  0  0  0  0
  7 12  2  0  0  0  0
  7 21  1  0  0  0  0
  8  9  2  0  0  0  0
  8 24  1  0  0  0  0
  9 26  1  0  0  0  0
 10 27  1  0  0  0  0
 11 27  2  0  0  0  0
 12 28  1  0  0  0  0
 13 14  2  0  0  0  0
 13 29  1  0  0  0  0
 14 30  1  0  0  0  0
 15 23  1  0  0  0  0
 15 28  2  0  0  0  0
 16 24  2  0  0  0  0
 16 25  1  0  0  0  0
 17 30  2  0  0  0  0
 17 31  1  0  0  0  0
 18 32  1  0  0  0  0
 19 32  1  0  0  0  0
 19 33  2  0  0  0  0
 19 34  1  0  0  0  0
 20 22  2  0  0  0  0
 20 40  1  0  0  0  0
 21 23  2  0  0  0  0
 21 41  1  0  0  0  0
 22 49  1  0  0  0  0
 23 42  1  0  0  0  0
 24 59  1  0  0  0  0
 25 26  2  0  0  0  0
 25 52  1  0  0  0  0
 26 71  1  0  0  0  0
 27 83  1  0  0  0  0
 28 84  1  0  0  0  0
 29 31  2  0  0  0  0
 29 83  1  0  0  0  0
 30 85  1  0  0  0  0
 31 86  1  0  0  0  0
 32 65  2  0  0  0  0
 33 66  1  0  0  0  0
 33 69  1  0  0  0  0
 34 70  1  0  0  0  0
 34 77  2  0  0  0  0
 35 50  1  0  0  0  0
 35 72  1  0  0  0  0
 35 78  2  0  0  0  0
 36 61  1  0  0  0  0
 36 67  1  0  0  0  0
 36 79  2  0  0  0  0
 37 62  1  0  0  0  0
 37 71  1  0  0  0  0
 37 80  2  0  0  0  0
 38 63  1  0  0  0  0
 38 73  1  0  0  0  0
 38 81  2  0  0  0  0
 39 68  1  0  0  0  0
 39 74  1  0  0  0  0
 39 82  2  0  0  0  0
 40 43  1  0  0  0  0
 41 50  1  0  0  0  0
 42 67  1  0  0  0  0
 43 45  1  0  0  0  0
 44 46  1  0  0  0  0
 44 47  1  0  0  0  0
 45 49  1  0  0  0  0
 46 51  1  0  0  0  0
 47 68  1  0  0  0  0
 48 51  1  0  0  0  0
 48 68  1  0  0  0  0
 49 72  1  0  0  0  0
 50 67  1  0  0  0  0
 51 66  1  0  0  0  0
 53 63  1  0  0  0  0
 54 64  1  0  0  0  0
 55 64  1  0  0  0  0
 56 64  1  0  0  0  0
 57 75  1  0  0  0  0
 58 76  1  0  0  0  0
 59 74  1  0  0  0  0
 60 62  1  0  0  0  0
 60 84  1  0  0  0  0
 61 64  1  0  0  0  0
 61 73  1  0  0  0  0
 62 75  1  0  0  0  0
 63 76  1  0  0  0  0
 65 66  1  0  0  0  0
M  CHG  2  75   1  76   1
M  ISO  4  39 100  60 101  74 100  84 101
M  END
> <Batch ID>
0057

> <Smiles>
CNC(C)C(=O)NC(C(=O)N1Cc2cc([101O:1][101CH2:1]C(NC)C(=O)Nc3ccc(C[100NH:0][100C:0](=O)N4CCCC(n5nc(-c6ccc(Oc7ccc(F)cc7F)cc6)c(C(N)=O)c5N)C4)cc3C)ccc2CC1C(=O)NC1CCCc2ccccc21)C(C)(C)C

> <Shape>
0.211

> <Color>
0.065

> <Negative vol penalty>
0.000

$$$$

  -OEChem-04042322553D

 87 95  0     1  0  0  0  0  0999 V2000
  -35.6301  -29.5220   22.6708 C   0  0  0  0  0  0  0  0  0  0  0  0
  -35.7984  -28.4760   21.7691 C   0  0  0  0  0  0  0  0  0  0  0  0
  -23.0715   -9.8042   19.9733 C   0  0  0  0  0  0  0  0  0  0  0  0
  -23.7804   -9.8995   22.2810 C   0  0  0  0  0  0  0  0  0  0  0  0
  -34.3677  -29.7896   23.1986 C   0  0  0  0  0  0  0  0  0  0  0  0
  -34.7045  -27.6962   21.3955 C   0  0  0  0  0  0  0  0  0  0  0  0
  -33.6871  -25.1677   15.9113 C   0  0  0  0  0  0  0  0  0  0  0  0
  -29.4593  -19.4011   22.2433 C   0  0  0  0  0  0  0  0  0  0  0  0
  -29.3163  -18.0140   22.2764 C   0  0  0  0  0  0  0  0  0  0  0  0
  -22.3429   -8.6463   20.2448 C   0  0  0  0  0  0  0  0  0  0  0  0
  -23.0517   -8.7415   22.5526 C   0  0  0  0  0  0  0  0  0  0  0  0
  -33.8973  -23.8806   15.4182 C   0  0  0  0  0  0  0  0  0  0  0  0
  -23.4138   -5.4092   22.1108 C   0  0  0  0  0  0  0  0  0  0  0  0
  -24.0314   -4.4192   22.8751 C   0  0  0  0  0  0  0  0  0  0  0  0
  -31.5983  -23.3284   15.8970 C   0  0  0  0  0  0  0  0  0  0  0  0
  -30.9899  -17.8001   20.5471 C   0  0  0  0  0  0  0  0  0  0  0  0
  -22.2899   -4.6165   24.5380 C   0  0  0  0  0  0  0  0  0  0  0  0
  -23.7903  -10.4309   20.9913 C   0  0  0  0  0  0  0  0  0  0  0  0
  -24.0898  -12.9567   20.7960 C   0  0  0  0  0  0  0  0  0  0  0  0
  -33.2559  -29.0187   22.8239 C   0  0  0  0  0  0  0  0  0  0  0  0
  -32.4318  -25.5420   16.4118 C   0  0  0  0  0  0  0  0  0  0  0  0
  -33.4262  -27.9529   21.9198 C   0  0  0  0  0  0  0  0  0  0  0  0
  -31.3742  -24.6216   16.3935 C   0  0  0  0  0  0  0  0  0  0  0  0
  -30.3676  -19.9877   21.3620 C   0  0  0  0  0  0  0  0  0  0  0  0
  -30.0816  -17.2135   21.4284 C   0  0  0  0  0  0  0  0  0  0  0  0
  -22.3330   -8.1149   21.5345 C   0  0  0  0  0  0  0  0  0  0  0  0
  -32.8536  -22.9599   15.4138 C   0  0  0  0  0  0  0  0  0  0  0  0
  -22.2343   -6.0029   22.5602 C   0  0  0  0  0  0  0  0  0  0  0  0
  -23.4694   -4.0228   24.0887 C   0  0  0  0  0  0  0  0  0  0  0  0
  -21.6723   -5.6066   23.7738 C   0  0  0  0  0  0  0  0  0  0  0  0
  -31.1329  -19.1872   20.5140 C   0  0  0  0  0  0  0  0  0  0  0  0
  -24.5436  -11.6268   20.7113 C   0  0  0  0  0  0  0  0  0  0  0  0
  -25.1763  -13.7140   20.4319 C   0  0  0  0  0  0  0  0  0  0  0  0
  -22.8015  -13.4622   21.1704 C   0  0  0  0  0  0  0  0  0  0  0  0
  -31.3391  -26.5015   19.2383 C   0  0  0  0  0  0  0  0  0  0  0  0
  -28.5856  -26.9530   17.5840 C   0  0  0  0  0  0  0  0  0  0  0  0
  -34.0691  -18.9730   17.5332 C   0  0  0  0  0  0  0  0  0  0  0  0
  -26.6630  -26.1449   14.8826 C   0  0  0  0  0  0  0  0  0  0  0  0
  -30.6178  -14.8655   20.6897 C   0  0  0  0  0  0  0  0  0  0  0  0
  -31.9198  -29.3159   23.4572 C   0  0  0  0  0  0  0  0  0  0  0  0
  -32.2142  -26.9425   16.9154 C   0  0  0  0  0  0  0  0  0  0  0  0
  -30.0021  -24.9801   16.9008 C   0  0  0  0  0  0  0  0  0  0  0  0
  -30.7426  -28.6793   22.7230 C   0  0  0  0  0  0  0  0  0  0  0  0
  -29.5990  -12.3561   18.3784 C   0  0  0  0  0  0  0  0  0  0  0  0
  -31.0428  -27.2197   22.3972 C   0  0  0  0  0  0  0  0  0  0  0  0
  -28.1557  -12.0520   18.7862 C   0  0  0  0  0  0  0  0  0  0  0  0
  -30.4832  -12.6405   19.5913 C   0  0  0  0  0  0  0  0  0  0  0  0
  -28.5336  -13.3740   20.9067 C   0  0  0  0  0  0  0  0  0  0  0  0
  -32.2593  -27.1001   21.4712 C   0  0  1  0  0  0  0  0  0  0  0  0
  -31.0339  -27.0556   17.8754 C   0  0  1  0  0  0  0  0  0  0  0  0
  -27.5903  -13.1448   19.7146 C   0  0  2  0  0  0  0  0  0  0  0  0
  -30.4968  -21.4758   21.3521 C   0  0  0  0  0  0  0  0  0  0  0  0
  -24.4463  -26.6503   13.8205 C   0  0  0  0  0  0  0  0  0  0  0  0
  -27.1915  -25.2258   19.6776 C   0  0  0  0  0  0  0  0  0  0  0  0
  -25.2675  -24.9821   18.0941 C   0  0  0  0  0  0  0  0  0  0  0  0
  -25.8949  -27.2382   18.9539 C   0  0  0  0  0  0  0  0  0  0  0  0
  -27.9458  -27.1747   12.4223 C   0  0  0  0  0  0  0  0  0  0  0  0
  -33.0234  -18.5399   18.5309 C   0  0  0  0  0  0  0  0  0  0  0  0
  -34.2855  -19.6477   15.1490 C   0  0  0  0  0  0  0  0  0  0  0  0
  -34.3699  -21.1613   15.0649 C   0  0  0  0  0  0  0  0  0  1  0  0
  -27.3835  -26.1008   17.2561 C   0  0  1  0  0  0  0  0  0  0  0  0
  -25.9229  -27.0096   13.8781 C   0  0  2  0  0  0  0  0  0  0  0  0
  -26.4606  -25.8790   18.4876 C   0  0  0  0  0  0  0  0  0  0  0  0
  -25.8189  -11.5408   20.3237 N   0  0  0  0  0  0  0  0  0  0  0  0
  -33.3923  -20.5366   20.2735 N   0  0  0  0  0  0  0  0  0  0  0  0
  -26.1757  -12.8263   20.1614 N   0  0  0  0  0  0  0  0  0  0  0  0
  -29.8409  -26.3597   17.3889 N   0  0  0  0  0  0  0  0  0  0  0  0
  -29.8867  -13.6887   20.4222 N   0  0  0  0  0  0  0  0  0  0  0  0
  -25.3646  -15.0461   20.3198 N   0  0  0  0  0  0  0  0  0  0  0  0
  -21.7986  -12.5459   21.5154 N   0  0  0  0  0  0  0  0  0  0  0  0
  -29.9362  -15.8044   21.4632 N   0  0  0  0  0  0  0  0  0  0  0  0
  -31.8911  -27.4216   20.1090 N   0  0  0  0  0  0  0  0  0  0  0  0
  -33.5113  -19.2174   16.2829 N   0  0  0  0  0  0  0  0  0  0  0  0
  -26.7247  -26.7427   16.1236 N   0  0  0  0  0  0  0  0  0  0  0  0
  -26.5029  -26.8339   12.5167 N   0  3  0  0  0  0  0  0  0  0  0  0
  -22.5422  -14.6895   21.1822 O   0  0  0  0  0  0  0  0  0  0  0  0
  -31.0908  -25.3266   19.4823 O   0  0  0  0  0  0  0  0  0  0  0  0
  -28.4172  -28.1051   17.9912 O   0  0  0  0  0  0  0  0  0  0  0  0
  -35.2599  -19.0937   17.8070 O   0  0  0  0  0  0  0  0  0  0  0  0
  -27.1357  -25.0472   14.5960 O   0  0  0  0  0  0  0  0  0  0  0  0
  -31.7538  -15.0398   20.2411 O   0  0  0  0  0  0  0  0  0  0  0  0
  -31.5140  -20.6160   18.3841 O   0  0  0  0  0  0  0  0  0  0  0  0
  -21.6219   -6.9851   21.7999 O   0  0  0  0  0  0  0  0  0  0  0  0
  -33.0562  -21.7027   14.9337 O   0  0  0  0  0  0  0  0  0  1  0  0
  -24.0618   -3.0710   24.8217 F   0  0  0  0  0  0  0  0  0  0  0  0
  -20.5387   -6.1725   24.2101 F   0  0  0  0  0  0  0  0  0  0  0  0
  -32.2993  -19.9006   19.3810 S   0  0  2  0  0  0  0  0  0  0  0  0
  1  2  1  0  0  0  0
  1  5  2  0  0  0  0
  2  6  2  0  0  0  0
  3 10  2  0  0  0  0
  3 18  1  0  0  0  0
  4 11  1  0  0  0  0
  4 18  2  0  0  0  0
  5 20  1  0  0  0  0
  6 22  1  0  0  0  0
  7 12  2  0  0  0  0
  7 21  1  0  0  0  0
  8  9  2  0  0  0  0
  8 24  1  0  0  0  0
  9 25  1  0  0  0  0
 10 26  1  0  0  0  0
 11 26  2  0  0  0  0
 12 27  1  0  0  0  0
 13 14  2  0  0  0  0
 13 28  1  0  0  0  0
 14 29  1  0  0  0  0
 15 23  1  0  0  0  0
 15 27  2  0  0  0  0
 16 25  2  0  0  0  0
 16 31  1  0  0  0  0
 17 29  2  0  0  0  0
 17 30  1  0  0  0  0
 18 32  1  0  0  0  0
 19 32  1  0  0  0  0
 19 33  2  0  0  0  0
 19 34  1  0  0  0  0
 20 22  2  0  0  0  0
 20 40  1  0  0  0  0
 21 23  2  0  0  0  0
 21 41  1  0  0  0  0
 22 49  1  0  0  0  0
 23 42  1  0  0  0  0
 24 31  2  0  0  0  0
 24 52  1  0  0  0  0
 25 71  1  0  0  0  0
 26 83  1  0  0  0  0
 27 84  1  0  0  0  0
 28 30  2  0  0  0  0
 28 83  1  0  0  0  0
 29 85  1  0  0  0  0
 30 86  1  0  0  0  0
 31 87  1  0  0  0  0
 32 64  2  0  0  0  0
 33 66  1  0  0  0  0
 33 69  1  0  0  0  0
 34 70  1  0  0  0  0
 34 76  2  0  0  0  0
 35 50  1  0  0  0  0
 35 72  1  0  0  0  0
 35 77  2  0  0  0  0
 36 61  1  0  0  0  0
 36 67  1  0  0  0  0
 36 78  2  0  0  0  0
 37 58  1  0  0  0  0
 37 73  1  0  0  0  0
 37 79  2  0  0  0  0
 38 62  1  0  0  0  0
 38 74  1  0  0  0  0
 38 80  2  0  0  0  0
 39 68  1  0  0  0  0
 39 71  1  0  0  0  0
 39 81  2  0  0  0  0
 40 43  1  0  0  0  0
 41 50  1  0  0  0  0
 42 67  1  0  0  0  0
 43 45  1  0  0  0  0
 44 46  1  0  0  0  0
 44 47  1  0  0  0  0
 45 49  1  0  0  0  0
 46 51  1  0  0  0  0
 47 68  1  0  0  0  0
 48 51  1  0  0  0  0
 48 68  1  0  0  0  0
 49 72  1  0  0  0  0
 50 67  1  0  0  0  0
 51 66  1  0  0  0  0
 53 62  1  0  0  0  0
 54 63  1  0  0  0  0
 55 63  1  0  0  0  0
 56 63  1  0  0  0  0
 57 75  1  0  0  0  0
 58 87  1  0  0  0  0
 59 60  1  0  0  0  0
 59 73  1  0  0  0  0
 60 84  1  0  0  0  0
 61 63  1  0  0  0  0
 61 74  1  0  0  0  0
 62 75  1  0  0  0  0
 64 66  1  0  0  0  0
 65 87  2  0  0  0  0
 82 87  2  0  0  0  0
M  CHG  1  75   1
M  ISO  4  39 100  60 101  71 100  84 101
M  END
> <Batch ID>
0057

> <Smiles>
CNC(C)C(=O)NC(C(=O)N1Cc2cc([101O:1][101CH2:1]CNC(=O)CS(=N)(=O)c3cc([100NH:0][100C:0](=O)N4CCCC(n5nc(-c6ccc(Oc7ccc(F)cc7F)cc6)c(C(N)=O)c5N)C4)ccc3C)ccc2CC1C(=O)NC1CCCc2ccccc21)C(C)(C)C

> <Shape>
0.234

> <Color>
0.213

> <Negative vol penalty>
0.000

$$$$

  -OEChem-04042322553D

 90 98  0     1  0  0  0  0  0999 V2000
  -26.4428  -23.1580   29.2569 C   0  0  0  0  0  0  0  0  0  0  0  0
  -27.4879  -23.2569   28.3441 C   0  0  0  0  0  0  0  0  0  0  0  0
  -26.5374  -12.7264   21.6713 C   0  0  0  0  0  0  0  0  0  0  0  0
  -26.0286  -13.8300   19.5831 C   0  0  0  0  0  0  0  0  0  0  0  0
  -25.1996  -23.7119   28.9543 C   0  0  0  0  0  0  0  0  0  0  0  0
  -27.2901  -23.9089   27.1274 C   0  0  0  0  0  0  0  0  0  0  0  0
  -30.7609  -27.9244   22.3164 C   0  0  0  0  0  0  0  0  0  0  0  0
  -25.2736  -12.1361   21.6673 C   0  0  0  0  0  0  0  0  0  0  0  0
  -24.7648  -13.2397   19.5791 C   0  0  0  0  0  0  0  0  0  0  0  0
  -31.0289  -27.9761   20.9492 C   0  0  0  0  0  0  0  0  0  0  0  0
  -23.7453   -9.5323   20.1451 C   0  0  0  0  0  0  0  0  0  0  0  0
  -23.6627   -8.1752   20.4567 C   0  0  0  0  0  0  0  0  0  0  0  0
  -28.8615  -28.9639   20.5677 C   0  0  0  0  0  0  0  0  0  0  0  0
  -27.9990  -23.7124   17.8808 C   0  0  0  0  0  0  0  0  0  0  0  0
  -28.9717  -22.8310   19.9090 C   0  0  0  0  0  0  0  0  0  0  0  0
  -28.6151  -21.3799   18.0105 C   0  0  0  0  0  0  0  0  0  0  0  0
  -22.2328   -8.6933   22.3339 C   0  0  0  0  0  0  0  0  0  0  0  0
  -26.9149  -13.5734   20.6292 C   0  0  0  0  0  0  0  0  0  0  0  0
  -29.4024  -13.6661   20.0711 C   0  0  0  0  0  0  0  0  0  0  0  0
  -24.9892  -24.3794   27.7374 C   0  0  0  0  0  0  0  0  0  0  0  0
  -29.5347  -28.3828   22.8192 C   0  0  0  0  0  0  0  0  0  0  0  0
  -26.0426  -24.4711   26.8076 C   0  0  0  0  0  0  0  0  0  0  0  0
  -28.5813  -28.9193   21.9420 C   0  0  0  0  0  0  0  0  0  0  0  0
  -28.4421  -23.9023   19.1897 C   0  0  0  0  0  0  0  0  0  0  0  0
  -28.0855  -22.4512   17.2912 C   0  0  0  0  0  0  0  0  0  0  0  0
  -29.0582  -21.5697   19.3194 C   0  0  0  0  0  0  0  0  0  0  0  0
  -24.3873  -12.3928   20.6212 C   0  0  0  0  0  0  0  0  0  0  0  0
  -30.0781  -28.4932   20.0743 C   0  0  0  0  0  0  0  0  0  0  0  0
  -23.0717  -10.4699   20.9280 C   0  0  0  0  0  0  0  0  0  0  0  0
  -22.9064   -7.7557   21.5511 C   0  0  0  0  0  0  0  0  0  0  0  0
  -22.3155  -10.0504   22.0224 C   0  0  0  0  0  0  0  0  0  0  0  0
  -28.2201  -14.1838   20.6331 C   0  0  0  0  0  0  0  0  0  0  0  0
  -30.3558  -14.6173   20.3405 C   0  0  0  0  0  0  0  0  0  0  0  0
  -29.5977  -25.4869   15.1489 C   0  0  0  0  0  0  0  0  0  0  0  0
  -28.7925  -24.5652   14.6048 C   0  0  0  0  0  0  0  0  0  0  0  0
  -29.6194  -12.4354   19.3683 C   0  0  0  0  0  0  0  0  0  0  0  0
  -29.0582  -26.8340   15.4867 C   0  0  0  0  0  0  0  0  0  0  0  0
  -29.3369  -23.2107   14.2942 C   0  0  0  0  0  0  0  0  0  0  0  0
  -27.1117  -27.0471   24.3840 C   0  0  0  0  0  0  0  0  0  0  0  0
  -26.0372  -30.1038   24.5406 C   0  0  0  0  0  0  0  0  0  0  0  0
  -26.0554  -33.2522   23.2239 C   0  0  0  0  0  0  0  0  0  0  0  0
  -30.0810  -20.4990   21.3576 C   0  0  0  0  0  0  0  0  0  0  0  0
  -23.6145  -24.9209   27.4346 C   0  0  0  0  0  0  0  0  0  0  0  0
  -29.2715  -28.3448   24.2996 C   0  0  0  0  0  0  0  0  0  0  0  0
  -27.2575  -29.4431   22.4335 C   0  0  0  0  0  0  0  0  0  0  0  0
  -23.5943  -25.9219   26.2824 C   0  0  0  0  0  0  0  0  0  0  0  0
  -31.4510  -18.0256   23.5214 C   0  0  0  0  0  0  0  0  0  0  0  0
  -24.4037  -25.3939   25.1022 C   0  0  0  0  0  0  0  0  0  0  0  0
  -30.8904  -16.7121   22.9714 C   0  0  0  0  0  0  0  0  0  0  0  0
  -30.4347  -19.1618   23.4219 C   0  0  0  0  0  0  0  0  0  0  0  0
  -29.3020  -18.0542   21.5353 C   0  0  0  0  0  0  0  0  0  0  0  0
  -25.8741  -25.1922   25.4879 C   0  0  1  0  0  0  0  0  0  0  0  0
  -27.7852  -28.3650   24.6430 C   0  0  1  0  0  0  0  0  0  0  0  0
  -30.3123  -16.8955   21.5545 C   0  0  2  0  0  0  0  0  0  0  0  0
  -28.3495  -25.2508   19.8200 C   0  0  0  0  0  0  0  0  0  0  0  0
  -25.0482  -35.5280   23.5459 C   0  0  0  0  0  0  0  0  0  0  0  0
  -23.4166  -29.1121   23.3326 C   0  0  0  0  0  0  0  0  0  0  0  0
  -22.8406  -31.4908   22.8048 C   0  0  0  0  0  0  0  0  0  0  0  0
  -23.1500  -30.7809   25.1761 C   0  0  0  0  0  0  0  0  0  0  0  0
  -29.2154  -20.7841   14.7104 C   0  0  0  0  0  0  0  0  0  0  0  0
  -28.7060  -34.4890   23.6755 C   0  0  0  0  0  0  0  0  0  0  0  0
  -27.6086  -22.2470   15.8823 C   0  0  0  0  0  0  0  0  0  0  0  0
  -29.7655  -29.0134   16.4515 C   0  0  0  0  0  0  0  0  0  0  0  0
  -29.3178  -29.0864   17.9004 C   0  0  0  0  0  0  0  0  0  1  0  0
  -25.1694  -30.9780   23.6678 C   0  0  1  0  0  0  0  0  0  0  0  0
  -26.2192  -34.6146   23.8731 C   0  0  2  0  0  0  0  0  0  0  0  0
  -23.6682  -30.5788   23.7355 C   0  0  0  0  0  0  0  0  0  0  0  0
  -28.4032  -15.3717   21.2157 N   0  0  0  0  0  0  0  0  0  0  0  0
  -29.7118  -15.6082   21.0213 N   0  0  0  0  0  0  0  0  0  0  0  0
  -27.0447  -29.3785   23.8889 N   0  0  0  0  0  0  0  0  0  0  0  0
  -29.9338  -19.2790   22.0507 N   0  0  0  0  0  0  0  0  0  0  0  0
  -31.6739  -14.6943   20.0593 N   0  0  0  0  0  0  0  0  0  0  0  0
  -28.5307  -11.5732   19.1788 N   0  0  0  0  0  0  0  0  0  0  0  0
  -29.5963  -20.4815   20.0501 N   0  0  0  0  0  0  0  0  0  0  0  0
  -30.0272  -27.6596   16.0401 N   0  0  0  0  0  0  0  0  0  0  0  0
  -26.5690  -26.4614   25.5118 N   0  0  0  0  0  0  0  0  0  0  0  0
  -25.4406  -32.3538   24.0701 N   0  0  0  0  0  0  0  0  0  0  0  0
  -28.7199  -22.1352   14.9395 N   0  0  0  0  0  0  0  0  0  0  0  0
  -27.4717  -35.2677   23.3978 N   0  3  0  0  0  0  0  0  0  0  0  0
  -30.7488  -12.1022   18.9359 O   0  0  0  0  0  0  0  0  0  0  0  0
  -27.8893  -27.1462   15.2844 O   0  0  0  0  0  0  0  0  0  0  0  0
  -30.2934  -23.0977   13.5262 O   0  0  0  0  0  0  0  0  0  0  0  0
  -27.0850  -26.5957   23.2450 O   0  0  0  0  0  0  0  0  0  0  0  0
  -25.8333  -30.0713   25.7567 O   0  0  0  0  0  0  0  0  0  0  0  0
  -26.4316  -33.0103   22.0791 O   0  0  0  0  0  0  0  0  0  0  0  0
  -30.6234  -21.4785   21.8757 O   0  0  0  0  0  0  0  0  0  0  0  0
  -23.1541  -11.8168   20.6169 O   0  0  0  0  0  0  0  0  0  0  0  0
  -30.3369  -28.5442   18.7393 O   0  0  0  0  0  0  0  0  0  1  0  0
  -22.8259   -6.4523   21.8492 F   0  0  0  0  0  0  0  0  0  0  0  0
  -21.6652  -10.9464   22.7775 F   0  0  0  0  0  0  0  0  0  0  0  0
  1  2  1  0  0  0  0
  1  5  2  0  0  0  0
  2  6  2  0  0  0  0
  3  8  2  0  0  0  0
  3 18  1  0  0  0  0
  4  9  1  0  0  0  0
  4 18  2  0  0  0  0
  5 20  1  0  0  0  0
  6 22  1  0  0  0  0
  7 10  2  0  0  0  0
  7 21  1  0  0  0  0
  8 27  1  0  0  0  0
  9 27  2  0  0  0  0
 10 28  1  0  0  0  0
 11 12  2  0  0  0  0
 11 29  1  0  0  0  0
 12 30  1  0  0  0  0
 13 23  1  0  0  0  0
 13 28  2  0  0  0  0
 14 24  2  0  0  0  0
 14 25  1  0  0  0  0
 15 24  1  0  0  0  0
 15 26  2  0  0  0  0
 16 25  2  0  0  0  0
 16 26  1  0  0  0  0
 17 30  2  0  0  0  0
 17 31  1  0  0  0  0
 18 32  1  0  0  0  0
 19 32  1  0  0  0  0
 19 33  2  0  0  0  0
 19 36  1  0  0  0  0
 20 22  2  0  0  0  0
 20 43  1  0  0  0  0
 21 23  2  0  0  0  0
 21 44  1  0  0  0  0
 22 52  1  0  0  0  0
 23 45  1  0  0  0  0
 24 55  1  0  0  0  0
 25 62  1  0  0  0  0
 26 74  1  0  0  0  0
 27 87  1  0  0  0  0
 28 88  1  0  0  0  0
 29 31  2  0  0  0  0
 29 87  1  0  0  0  0
 30 89  1  0  0  0  0
 31 90  1  0  0  0  0
 32 68  2  0  0  0  0
 33 69  1  0  0  0  0
 33 72  1  0  0  0  0
 34 35  2  0  0  0  0
 34 37  1  0  0  0  0
 35 38  1  0  0  0  0
 36 73  1  0  0  0  0
 36 80  2  0  0  0  0
 37 75  1  0  0  0  0
 37 81  2  0  0  0  0
 38 78  1  0  0  0  0
 38 82  2  0  0  0  0
 39 53  1  0  0  0  0
 39 76  1  0  0  0  0
 39 83  2  0  0  0  0
 40 65  1  0  0  0  0
 40 70  1  0  0  0  0
 40 84  2  0  0  0  0
 41 66  1  0  0  0  0
 41 77  1  0  0  0  0
 41 85  2  0  0  0  0
 42 71  1  0  0  0  0
 42 74  1  0  0  0  0
 42 86  2  0  0  0  0
 43 46  1  0  0  0  0
 44 53  1  0  0  0  0
 45 70  1  0  0  0  0
 46 48  1  0  0  0  0
 47 49  1  0  0  0  0
 47 50  1  0  0  0  0
 48 52  1  0  0  0  0
 49 54  1  0  0  0  0
 50 71  1  0  0  0  0
 51 54  1  0  0  0  0
 51 71  1  0  0  0  0
 52 76  1  0  0  0  0
 53 70  1  0  0  0  0
 54 69  1  0  0  0  0
 56 66  1  0  0  0  0
 57 67  1  0  0  0  0
 58 67  1  0  0  0  0
 59 67  1  0  0  0  0
 60 78  1  0  0  0  0
 61 79  1  0  0  0  0
 62 78  1  0  0  0  0
 63 64  1  0  0  0  0
 63 75  1  0  0  0  0
 64 88  1  0  0  0  0
 65 67  1  0  0  0  0
 65 77  1  0  0  0  0
 66 79  1  0  0  0  0
 68 69  1  0  0  0  0
M  CHG  1  79   1
M  ISO  4  42 100  64 101  74 100  88 101
M  END
> <Batch ID>
0057

> <Smiles>
CNC(C)C(=O)NC(C(=O)N1Cc2cc([101O:1][101CH2:1]CNC(=O)C=CC(=O)N(C)Cc3cc(C)cc([100NH:0][100C:0](=O)N4CCCC(n5nc(-c6ccc(Oc7ccc(F)cc7F)cc6)c(C(N)=O)c5N)C4)c3)ccc2CC1C(=O)NC1CCCc2ccccc21)C(C)(C)C

> <Shape>
0.258

> <Color>
0.052

> <Negative vol penalty>
0.000

$$$$

  -OEChem-04042322553D

 83 91  0     1  0  0  0  0  0999 V2000
  -19.9030  -20.1280   22.5449 C   0  0  0  0  0  0  0  0  0  0  0  0
  -20.7407  -20.3940   21.4665 C   0  0  0  0  0  0  0  0  0  0  0  0
  -26.0175  -14.1923   21.8716 C   0  0  0  0  0  0  0  0  0  0  0  0
  -24.8886  -15.4676   20.1580 C   0  0  0  0  0  0  0  0  0  0  0  0
  -19.2449  -21.1744   23.1897 C   0  0  0  0  0  0  0  0  0  0  0  0
  -20.9199  -21.7067   21.0316 C   0  0  0  0  0  0  0  0  0  0  0  0
  -26.0411  -24.1570   18.7348 C   0  0  0  0  0  0  0  0  0  0  0  0
  -30.3633  -25.7064   18.5985 C   0  0  0  0  0  0  0  0  0  0  0  0
  -30.9937  -23.9553   17.0579 C   0  0  0  0  0  0  0  0  0  0  0  0
  -30.0544  -24.7469   19.5626 C   0  0  0  0  0  0  0  0  0  0  0  0
  -30.6848  -22.9958   18.0221 C   0  0  0  0  0  0  0  0  0  0  0  0
  -24.9409  -13.3069   21.9219 C   0  0  0  0  0  0  0  0  0  0  0  0
  -23.8120  -14.5822   20.2083 C   0  0  0  0  0  0  0  0  0  0  0  0
  -26.4620  -24.3961   17.4274 C   0  0  0  0  0  0  0  0  0  0  0  0
  -23.7756  -10.6970   20.1155 C   0  0  0  0  0  0  0  0  0  0  0  0
  -24.0598   -9.3317   20.1413 C   0  0  0  0  0  0  0  0  0  0  0  0
  -25.6661  -26.6673   17.5929 C   0  0  0  0  0  0  0  0  0  0  0  0
  -22.9318   -9.1371   22.2690 C   0  0  0  0  0  0  0  0  0  0  0  0
  -25.9914  -15.2727   20.9896 C   0  0  0  0  0  0  0  0  0  0  0  0
  -28.2430  -16.0950   20.1170 C   0  0  0  0  0  0  0  0  0  0  0  0
  -19.4238  -22.5016   22.7686 C   0  0  0  0  0  0  0  0  0  0  0  0
  -25.4186  -25.1698   19.4786 C   0  0  0  0  0  0  0  0  0  0  0  0
  -20.2626  -22.7717   21.6705 C   0  0  0  0  0  0  0  0  0  0  0  0
  -25.2405  -26.4393   18.9104 C   0  0  0  0  0  0  0  0  0  0  0  0
  -30.8329  -25.3105   17.3460 C   0  0  0  0  0  0  0  0  0  0  0  0
  -30.2152  -23.3917   19.2745 C   0  0  0  0  0  0  0  0  0  0  0  0
  -23.8381  -13.5018   21.0903 C   0  0  0  0  0  0  0  0  0  0  0  0
  -26.2720  -25.6505   16.8552 C   0  0  0  0  0  0  0  0  0  0  0  0
  -23.0695  -11.2824   21.1665 C   0  0  0  0  0  0  0  0  0  0  0  0
  -23.6379   -8.5517   21.2181 C   0  0  0  0  0  0  0  0  0  0  0  0
  -22.6476  -10.5025   22.2432 C   0  0  0  0  0  0  0  0  0  0  0  0
  -27.1029  -16.1880   20.9376 C   0  0  0  0  0  0  0  0  0  0  0  0
  -28.9922  -17.1988   20.4437 C   0  0  0  0  0  0  0  0  0  0  0  0
  -28.5935  -15.0998   19.1462 C   0  0  0  0  0  0  0  0  0  0  0  0
  -22.5560  -25.5382   20.8103 C   0  0  0  0  0  0  0  0  0  0  0  0
  -23.8882  -28.2470   21.9977 C   0  0  0  0  0  0  0  0  0  0  0  0
  -29.3733  -26.3800   14.5770 C   0  0  0  0  0  0  0  0  0  0  0  0
  -26.2678  -30.6755   21.7028 C   0  0  0  0  0  0  0  0  0  0  0  0
  -29.4255  -22.6395   21.5454 C   0  0  0  0  0  0  0  0  0  0  0  0
  -18.6543  -23.5947   23.4669 C   0  0  0  0  0  0  0  0  0  0  0  0
  -24.9945  -24.9037   20.8969 C   0  0  0  0  0  0  0  0  0  0  0  0
  -24.5959  -27.5664   19.6737 C   0  0  0  0  0  0  0  0  0  0  0  0
  -19.1907  -24.9951   23.1813 C   0  0  0  0  0  0  0  0  0  0  0  0
  -28.4993  -20.5076   24.2425 C   0  0  0  0  0  0  0  0  0  0  0  0
  -19.4448  -25.1752   21.6881 C   0  0  0  0  0  0  0  0  0  0  0  0
  -28.1473  -19.1861   23.5556 C   0  0  0  0  0  0  0  0  0  0  0  0
  -28.0676  -21.7127   23.4088 C   0  0  0  0  0  0  0  0  0  0  0  0
  -28.1959  -20.3903   21.3342 C   0  0  0  0  0  0  0  0  0  0  0  0
  -20.5020  -24.1849   21.1849 C   0  0  1  0  0  0  0  0  0  0  0  0
  -23.9076  -25.8569   21.3843 C   0  0  1  0  0  0  0  0  0  0  0  0
  -28.6695  -19.1478   22.1060 C   0  0  2  0  0  0  0  0  0  0  0  0
  -27.0835  -32.7781   22.8033 C   0  0  0  0  0  0  0  0  0  0  0  0
  -21.5202  -29.7750   20.8281 C   0  0  0  0  0  0  0  0  0  0  0  0
  -22.8338  -31.8877   21.1096 C   0  0  0  0  0  0  0  0  0  0  0  0
  -22.2226  -30.5255   23.1080 C   0  0  0  0  0  0  0  0  0  0  0  0
  -28.9347  -29.5043   22.2272 C   0  0  0  0  0  0  0  0  0  0  0  0
  -31.1653  -26.3434   16.3083 C   0  0  0  0  0  0  0  0  0  0  0  0
  -28.1452  -27.1820   14.1759 C   0  0  0  0  0  0  0  0  0  0  0  0
  -27.0797  -27.2192   15.2605 C   0  0  0  0  0  0  0  0  0  1  0  0
  -24.0037  -29.6768   21.5271 C   0  0  1  0  0  0  0  0  0  0  0  0
  -27.2336  -31.2674   22.7135 C   0  0  2  0  0  0  0  0  0  0  0  0
  -22.6555  -30.4446   21.6279 C   0  0  0  0  0  0  0  0  0  0  0  0
  -27.1220  -17.2657   21.7264 N   0  0  0  0  0  0  0  0  0  0  0  0
  -28.2832  -17.8599   21.4030 N   0  0  0  0  0  0  0  0  0  0  0  0
  -24.1925  -27.2549   21.0549 N   0  0  0  0  0  0  0  0  0  0  0  0
  -28.6027  -21.6101   22.0494 N   0  0  0  0  0  0  0  0  0  0  0  0
  -30.1819  -17.6586   20.0012 N   0  0  0  0  0  0  0  0  0  0  0  0
  -27.7101  -14.0324   18.9347 N   0  0  0  0  0  0  0  0  0  0  0  0
  -29.9018  -22.4168   20.2538 N   0  0  0  0  0  0  0  0  0  0  0  0
  -21.8283  -24.6300   21.5554 N   0  0  0  0  0  0  0  0  0  0  0  0
  -29.9782  -26.9087   15.7083 N   0  0  0  0  0  0  0  0  0  0  0  0
  -25.0901  -30.2733   22.2966 N   0  0  0  0  0  0  0  0  0  0  0  0
  -28.6397  -30.9567   22.3298 N   0  3  0  0  0  0  0  0  0  0  0  0
  -29.6661  -15.1467   18.4975 O   0  0  0  0  0  0  0  0  0  0  0  0
  -22.1992  -26.0775   19.7694 O   0  0  0  0  0  0  0  0  0  0  0  0
  -23.5476  -28.0190   23.1612 O   0  0  0  0  0  0  0  0  0  0  0  0
  -29.7625  -25.3911   13.9617 O   0  0  0  0  0  0  0  0  0  0  0  0
  -26.5303  -30.5827   20.5058 O   0  0  0  0  0  0  0  0  0  0  0  0
  -29.7104  -23.6319   22.2207 O   0  0  0  0  0  0  0  0  0  0  0  0
  -22.7875  -12.6379   21.1390 O   0  0  0  0  0  0  0  0  0  0  0  0
  -26.6813  -25.8864   15.5790 O   0  0  0  0  0  0  0  0  0  1  0  0
  -23.9095   -7.2403   21.2420 F   0  0  0  0  0  0  0  0  0  0  0  0
  -21.9679  -11.0591   23.2551 F   0  0  0  0  0  0  0  0  0  0  0  0
  1  2  1  0  0  0  0
  1  5  2  0  0  0  0
  2  6  2  0  0  0  0
  3 12  2  0  0  0  0
  3 19  1  0  0  0  0
  4 13  1  0  0  0  0
  4 19  2  0  0  0  0
  5 21  1  0  0  0  0
  6 23  1  0  0  0  0
  7 14  2  0  0  0  0
  7 22  1  0  0  0  0
  8 10  2  0  0  0  0
  8 25  1  0  0  0  0
  9 11  1  0  0  0  0
  9 25  2  0  0  0  0
 10 26  1  0  0  0  0
 11 26  2  0  0  0  0
 12 27  1  0  0  0  0
 13 27  2  0  0  0  0
 14 28  1  0  0  0  0
 15 16  2  0  0  0  0
 15 29  1  0  0  0  0
 16 30  1  0  0  0  0
 17 24  1  0  0  0  0
 17 28  2  0  0  0  0
 18 30  2  0  0  0  0
 18 31  1  0  0  0  0
 19 32  1  0  0  0  0
 20 32  1  0  0  0  0
 20 33  2  0  0  0  0
 20 34  1  0  0  0  0
 21 23  2  0  0  0  0
 21 40  1  0  0  0  0
 22 24  2  0  0  0  0
 22 41  1  0  0  0  0
 23 49  1  0  0  0  0
 24 42  1  0  0  0  0
 25 57  1  0  0  0  0
 26 69  1  0  0  0  0
 27 80  1  0  0  0  0
 28 81  1  0  0  0  0
 29 31  2  0  0  0  0
 29 80  1  0  0  0  0
 30 82  1  0  0  0  0
 31 83  1  0  0  0  0
 32 63  2  0  0  0  0
 33 64  1  0  0  0  0
 33 67  1  0  0  0  0
 34 68  1  0  0  0  0
 34 74  2  0  0  0  0
 35 50  1  0  0  0  0
 35 70  1  0  0  0  0
 35 75  2  0  0  0  0
 36 60  1  0  0  0  0
 36 65  1  0  0  0  0
 36 76  2  0  0  0  0
 37 58  1  0  0  0  0
 37 71  1  0  0  0  0
 37 77  2  0  0  0  0
 38 61  1  0  0  0  0
 38 72  1  0  0  0  0
 38 78  2  0  0  0  0
 39 66  1  0  0  0  0
 39 69  1  0  0  0  0
 39 79  2  0  0  0  0
 40 43  1  0  0  0  0
 41 50  1  0  0  0  0
 42 65  1  0  0  0  0
 43 45  1  0  0  0  0
 44 46  1  0  0  0  0
 44 47  1  0  0  0  0
 45 49  1  0  0  0  0
 46 51  1  0  0  0  0
 47 66  1  0  0  0  0
 48 51  1  0  0  0  0
 48 66  1  0  0  0  0
 49 70  1  0  0  0  0
 50 65  1  0  0  0  0
 51 64  1  0  0  0  0
 52 61  1  0  0  0  0
 53 62  1  0  0  0  0
 54 62  1  0  0  0  0
 55 62  1  0  0  0  0
 56 73  1  0  0  0  0
 57 71  1  0  0  0  0
 58 59  1  0  0  0  0
 59 81  1  0  0  0  0
 60 62  1  0  0  0  0
 60 72  1  0  0  0  0
 61 73  1  0  0  0  0
 63 64  1  0  0  0  0
M  CHG  1  73   1
M  ISO  4  39 100  59 101  69 100  81 101
M  END
> <Batch ID>
0057

> <Smiles>
CNC(C)C(=O)NC(C(=O)N1Cc2cc([101O:1][101CH2:1]CC(=O)NCc3ccc([100NH:0][100C:0](=O)N4CCCC(n5nc(-c6ccc(Oc7ccc(F)cc7F)cc6)c(C(N)=O)c5N)C4)cc3)ccc2CC1C(=O)NC1CCCc2ccccc21)C(C)(C)C

> <Shape>
0.232

> <Color>
0.040

> <Negative vol penalty>
0.000

$$$$

  -OEChem-04042322553D

 85 93  0     1  0  0  0  0  0999 V2000
  -29.2839  -16.5526   19.0504 C   0  0  0  0  0  0  0  0  0  0  0  0
  -28.0523  -17.1503   18.8024 C   0  0  0  0  0  0  0  0  0  0  0  0
  -28.7384  -26.3743   19.2499 C   0  0  0  0  0  0  0  0  0  0  0  0
  -26.6479  -25.3650   18.5806 C   0  0  0  0  0  0  0  0  0  0  0  0
  -29.3389  -15.2417   19.5220 C   0  0  0  0  0  0  0  0  0  0  0  0
  -26.8750  -16.4369   19.0248 C   0  0  0  0  0  0  0  0  0  0  0  0
  -23.3698  -19.1781   21.4423 C   0  0  0  0  0  0  0  0  0  0  0  0
  -18.3877  -28.1459   24.1903 C   0  0  0  0  0  0  0  0  0  0  0  0
  -19.5852  -28.7933   23.8861 C   0  0  0  0  0  0  0  0  0  0  0  0
  -29.3617  -25.1283   19.1820 C   0  0  0  0  0  0  0  0  0  0  0  0
  -27.2711  -24.1190   18.5127 C   0  0  0  0  0  0  0  0  0  0  0  0
  -22.6556  -20.1072   20.6870 C   0  0  0  0  0  0  0  0  0  0  0  0
  -29.5791  -22.3453   21.0879 C   0  0  0  0  0  0  0  0  0  0  0  0
  -30.4251  -21.9867   22.1372 C   0  0  0  0  0  0  0  0  0  0  0  0
  -19.5394  -27.8358   21.6684 C   0  0  0  0  0  0  0  0  0  0  0  0
  -20.8110  -18.5598   20.5388 C   0  0  0  0  0  0  0  0  0  0  0  0
  -32.2671  -21.7930   20.5860 C   0  0  0  0  0  0  0  0  0  0  0  0
  -27.3815  -26.4926   18.9492 C   0  0  0  0  0  0  0  0  0  0  0  0
  -18.3419  -27.1884   21.9726 C   0  0  0  0  0  0  0  0  0  0  0  0
  -26.6115  -28.7252   17.9846 C   0  0  0  0  0  0  0  0  0  0  0  0
  -28.1614  -14.5152   19.7594 C   0  0  0  0  0  0  0  0  0  0  0  0
  -22.8133  -17.9265   21.7427 C   0  0  0  0  0  0  0  0  0  0  0  0
  -26.9143  -15.1146   19.4987 C   0  0  0  0  0  0  0  0  0  0  0  0
  -21.5191  -17.6175   21.3002 C   0  0  0  0  0  0  0  0  0  0  0  0
  -17.7661  -27.3434   23.2336 C   0  0  0  0  0  0  0  0  0  0  0  0
  -20.1610  -28.6383   22.6251 C   0  0  0  0  0  0  0  0  0  0  0  0
  -28.6281  -24.0006   18.8134 C   0  0  0  0  0  0  0  0  0  0  0  0
  -21.3771  -19.7971   20.2327 C   0  0  0  0  0  0  0  0  0  0  0  0
  -30.0770  -22.4277   19.7875 C   0  0  0  0  0  0  0  0  0  0  0  0
  -31.7691  -21.7106   21.8863 C   0  0  0  0  0  0  0  0  0  0  0  0
  -31.4211  -22.1516   19.5366 C   0  0  0  0  0  0  0  0  0  0  0  0
  -26.7369  -27.7794   19.0197 C   0  0  0  0  0  0  0  0  0  0  0  0
  -25.9242  -29.7689   18.5545 C   0  0  0  0  0  0  0  0  0  0  0  0
  -18.0019  -22.7488   20.2051 C   0  0  0  0  0  0  0  0  0  0  0  0
  -18.7216  -22.0365   19.3260 C   0  0  0  0  0  0  0  0  0  0  0  0
  -17.6996  -26.3435   20.9459 C   0  0  0  0  0  0  0  0  0  0  0  0
  -27.0747  -28.6656   16.6290 C   0  0  0  0  0  0  0  0  0  0  0  0
  -23.5855  -14.9131   21.0896 C   0  0  0  0  0  0  0  0  0  0  0  0
  -21.1091  -14.2567   23.0793 C   0  0  0  0  0  0  0  0  0  0  0  0
  -18.1886  -15.2923   24.5094 C   0  0  0  0  0  0  0  0  0  0  0  0
  -22.1233  -30.1279   23.1511 C   0  0  0  0  0  0  0  0  0  0  0  0
  -28.2723  -13.0847   20.2244 C   0  0  0  0  0  0  0  0  0  0  0  0
  -23.5861  -16.9456   22.5812 C   0  0  0  0  0  0  0  0  0  0  0  0
  -20.8686  -16.2956   21.6128 C   0  0  0  0  0  0  0  0  0  0  0  0
  -26.9695  -12.5255   20.7904 C   0  0  0  0  0  0  0  0  0  0  0  0
  -25.1857  -31.9051   22.7765 C   0  0  0  0  0  0  0  0  0  0  0  0
  -25.7996  -12.8643   19.8721 C   0  0  0  0  0  0  0  0  0  0  0  0
  -25.9170  -31.1385   21.6721 C   0  0  0  0  0  0  0  0  0  0  0  0
  -24.3985  -30.9685   23.6913 C   0  0  0  0  0  0  0  0  0  0  0  0
  -24.2073  -29.2910   21.8973 C   0  0  0  0  0  0  0  0  0  0  0  0
  -25.6146  -14.3818   19.7512 C   0  0  1  0  0  0  0  0  0  0  0  0
  -23.1244  -15.5039   22.3919 C   0  0  1  0  0  0  0  0  0  0  0  0
  -24.9618  -30.1980   20.9115 C   0  0  2  0  0  0  0  0  0  0  0  0
  -16.4840  -26.6614   23.5830 C   0  0  0  0  0  0  0  0  0  0  0  0
  -16.3742  -14.5223   26.0625 C   0  0  0  0  0  0  0  0  0  0  0  0
  -19.9457  -12.5213   20.8557 C   0  0  0  0  0  0  0  0  0  0  0  0
  -17.7540  -12.5627   22.0653 C   0  0  0  0  0  0  0  0  0  0  0  0
  -19.7560  -11.5433   23.1496 C   0  0  0  0  0  0  0  0  0  0  0  0
  -18.7567  -17.4649   26.4371 C   0  0  0  0  0  0  0  0  0  0  0  0
  -17.4590  -24.1100   19.9211 C   0  0  0  0  0  0  0  0  0  0  0  0
  -19.2558  -20.6698   19.6050 C   0  0  0  0  0  0  0  0  0  1  0  0
  -19.6229  -14.0563   22.9064 C   0  0  1  0  0  0  0  0  0  0  0  0
  -17.7020  -15.2545   25.9469 C   0  0  2  0  0  0  0  0  0  0  0  0
  -19.2824  -12.6951   22.2366 C   0  0  0  0  0  0  0  0  0  0  0  0
  -26.1746  -28.1863   20.1609 N   0  0  0  0  0  0  0  0  0  0  0  0
  -25.6892  -29.3993   19.8461 N   0  0  0  0  0  0  0  0  0  0  0  0
  -21.6670  -15.3674   22.4305 N   0  0  0  0  0  0  0  0  0  0  0  0
  -23.5119  -30.1111   22.9017 N   0  0  0  0  0  0  0  0  0  0  0  0
  -25.5041  -30.9575   18.0718 N   0  0  0  0  0  0  0  0  0  0  0  0
  -16.8239  -26.9156   20.1196 N   0  0  0  0  0  0  0  0  0  0  0  0
  -27.7635  -27.5198   16.2080 N   0  0  0  0  0  0  0  0  0  0  0  0
  -21.3774  -29.2962   22.3166 N   0  0  0  0  0  0  0  0  0  0  0  0
  -24.9580  -14.9063   20.9294 N   0  0  0  0  0  0  0  0  0  0  0  0
  -19.0302  -14.2372   24.2272 N   0  0  0  0  0  0  0  0  0  0  0  0
  -18.0240  -25.0447   20.8938 N   0  3  0  0  0  0  0  0  0  0  0  0
  -17.5226  -16.6385   26.4696 N   0  3  0  0  0  0  0  0  0  0  0  0
  -26.8979  -29.6076   15.8197 O   0  0  0  0  0  0  0  0  0  0  0  0
  -22.7574  -14.4930   20.2899 O   0  0  0  0  0  0  0  0  0  0  0  0
  -21.7502  -13.4613   23.7707 O   0  0  0  0  0  0  0  0  0  0  0  0
  -17.8526  -16.1681   23.7153 O   0  0  0  0  0  0  0  0  0  0  0  0
  -21.6290  -30.8491   24.0216 O   0  0  0  0  0  0  0  0  0  0  0  0
  -29.2360  -22.7847   18.7469 O   0  0  0  0  0  0  0  0  0  0  0  0
  -20.6781  -20.7019   19.4948 O   0  0  0  0  0  0  0  0  0  1  0  0
  -32.5818  -21.3677   22.8944 F   0  0  0  0  0  0  0  0  0  0  0  0
  -31.9055  -22.2303   18.2896 F   0  0  0  0  0  0  0  0  0  0  0  0
  1  2  1  0  0  0  0
  1  5  2  0  0  0  0
  2  6  2  0  0  0  0
  3 10  2  0  0  0  0
  3 18  1  0  0  0  0
  4 11  1  0  0  0  0
  4 18  2  0  0  0  0
  5 21  1  0  0  0  0
  6 23  1  0  0  0  0
  7 12  2  0  0  0  0
  7 22  1  0  0  0  0
  8  9  2  0  0  0  0
  8 25  1  0  0  0  0
  9 26  1  0  0  0  0
 10 27  1  0  0  0  0
 11 27  2  0  0  0  0
 12 28  1  0  0  0  0
 13 14  2  0  0  0  0
 13 29  1  0  0  0  0
 14 30  1  0  0  0  0
 15 19  1  0  0  0  0
 15 26  2  0  0  0  0
 16 24  1  0  0  0  0
 16 28  2  0  0  0  0
 17 30  2  0  0  0  0
 17 31  1  0  0  0  0
 18 32  1  0  0  0  0
 19 25  2  0  0  0  0
 19 36  1  0  0  0  0
 20 32  1  0  0  0  0
 20 33  2  0  0  0  0
 20 37  1  0  0  0  0
 21 23  2  0  0  0  0
 21 42  1  0  0  0  0
 22 24  2  0  0  0  0
 22 43  1  0  0  0  0
 23 51  1  0  0  0  0
 24 44  1  0  0  0  0
 25 54  1  0  0  0  0
 26 72  1  0  0  0  0
 27 82  1  0  0  0  0
 28 83  1  0  0  0  0
 29 31  2  0  0  0  0
 29 82  1  0  0  0  0
 30 84  1  0  0  0  0
 31 85  1  0  0  0  0
 32 65  2  0  0  0  0
 33 66  1  0  0  0  0
 33 69  1  0  0  0  0
 34 35  2  0  0  0  0
 34 60  1  0  0  0  0
 35 61  1  0  0  0  0
 36 70  1  0  0  0  0
 36 75  2  0  0  0  0
 37 71  1  0  0  0  0
 37 77  2  0  0  0  0
 38 52  1  0  0  0  0
 38 73  1  0  0  0  0
 38 78  2  0  0  0  0
 39 62  1  0  0  0  0
 39 67  1  0  0  0  0
 39 79  2  0  0  0  0
 40 63  1  0  0  0  0
 40 74  1  0  0  0  0
 40 80  2  0  0  0  0
 41 68  1  0  0  0  0
 41 72  1  0  0  0  0
 41 81  2  0  0  0  0
 42 45  1  0  0  0  0
 43 52  1  0  0  0  0
 44 67  1  0  0  0  0
 45 47  1  0  0  0  0
 46 48  1  0  0  0  0
 46 49  1  0  0  0  0
 47 51  1  0  0  0  0
 48 53  1  0  0  0  0
 49 68  1  0  0  0  0
 50 53  1  0  0  0  0
 50 68  1  0  0  0  0
 51 73  1  0  0  0  0
 52 67  1  0  0  0  0
 53 66  1  0  0  0  0
 55 63  1  0  0  0  0
 56 64  1  0  0  0  0
 57 64  1  0  0  0  0
 58 64  1  0  0  0  0
 59 76  1  0  0  0  0
 60 75  1  0  0  0  0
 61 83  1  0  0  0  0
 62 64  1  0  0  0  0
 62 74  1  0  0  0  0
 63 76  1  0  0  0  0
 65 66  1  0  0  0  0
M  CHG  2  75   1  76   1
M  ISO  4  41 100  61 101  72 100  83 101
M  END
> <Batch ID>
0057

> <Smiles>
CNC(C)C(=O)NC(C(=O)N1Cc2cc([101O:1][101CH2:1]C=CCNC(=N)c3cc([100NH:0][100C:0](=O)N4CCCC(n5nc(-c6ccc(Oc7ccc(F)cc7F)cc6)c(C(N)=O)c5N)C4)ccc3C)ccc2CC1C(=O)NC1CCCc2ccccc21)C(C)(C)C

> <Shape>
0.203

> <Color>
0.082

> <Negative vol penalty>
0.000

$$$$

  -OEChem-04042322553D

 86 94  0     1  0  0  0  0  0999 V2000
  -16.6160  -30.2970   23.4050 C   0  0  0  0  0  0  0  0  0  0  0  0
  -17.7313  -31.0254   23.8064 C   0  0  0  0  0  0  0  0  0  0  0  0
  -24.2649  -14.2279   21.5460 C   0  0  0  0  0  0  0  0  0  0  0  0
  -26.6404  -14.0686   21.9569 C   0  0  0  0  0  0  0  0  0  0  0  0
  -16.7652  -28.9832   22.9629 C   0  0  0  0  0  0  0  0  0  0  0  0
  -18.9962  -30.4400   23.7668 C   0  0  0  0  0  0  0  0  0  0  0  0
  -25.8761  -32.0845   22.6355 C   0  0  0  0  0  0  0  0  0  0  0  0
  -30.2996  -23.1212   26.8120 C   0  0  0  0  0  0  0  0  0  0  0  0
  -29.3288  -22.4951   26.0303 C   0  0  0  0  0  0  0  0  0  0  0  0
  -24.2784  -12.9555   20.9748 C   0  0  0  0  0  0  0  0  0  0  0  0
  -26.6538  -12.7961   21.3857 C   0  0  0  0  0  0  0  0  0  0  0  0
  -27.1291  -31.9435   23.2304 C   0  0  0  0  0  0  0  0  0  0  0  0
  -24.3345   -9.7471   22.0406 C   0  0  0  0  0  0  0  0  0  0  0  0
  -23.3242   -8.8595   22.4110 C   0  0  0  0  0  0  0  0  0  0  0  0
  -29.8746  -23.9544   24.1837 C   0  0  0  0  0  0  0  0  0  0  0  0
  -27.2759  -29.6933   22.3733 C   0  0  0  0  0  0  0  0  0  0  0  0
  -22.6095   -8.7119   20.1078 C   0  0  0  0  0  0  0  0  0  0  0  0
  -25.4459  -14.7845   22.0370 C   0  0  0  0  0  0  0  0  0  0  0  0
  -30.8454  -24.5805   24.9655 C   0  0  0  0  0  0  0  0  0  0  0  0
  -25.2204  -16.4215   23.9805 C   0  0  0  0  0  0  0  0  0  0  0  0
  -18.0338  -28.3845   22.9087 C   0  0  0  0  0  0  0  0  0  0  0  0
  -25.3078  -31.0255   21.9131 C   0  0  0  0  0  0  0  0  0  0  0  0
  -19.1623  -29.1165   23.3248 C   0  0  0  0  0  0  0  0  0  0  0  0
  -26.0166  -29.8244   21.7681 C   0  0  0  0  0  0  0  0  0  0  0  0
  -31.0579  -24.1639   26.2796 C   0  0  0  0  0  0  0  0  0  0  0  0
  -29.1163  -22.9117   24.7161 C   0  0  0  0  0  0  0  0  0  0  0  0
  -25.4728  -12.2395   20.8947 C   0  0  0  0  0  0  0  0  0  0  0  0
  -27.8279  -30.7467   23.1018 C   0  0  0  0  0  0  0  0  0  0  0  0
  -24.4822  -10.1171   20.7038 C   0  0  0  0  0  0  0  0  0  0  0  0
  -22.4617   -8.3419   21.4446 C   0  0  0  0  0  0  0  0  0  0  0  0
  -23.6198   -9.5995   19.7374 C   0  0  0  0  0  0  0  0  0  0  0  0
  -25.4328  -16.0991   22.6267 C   0  0  0  0  0  0  0  0  0  0  0  0
  -25.3055  -17.7917   24.0246 C   0  0  0  0  0  0  0  0  0  0  0  0
  -31.3373  -30.6551   26.3890 C   0  0  0  0  0  0  0  0  0  0  0  0
  -30.8668  -29.5972   25.7181 C   0  0  0  0  0  0  0  0  0  0  0  0
  -31.6376  -25.6822   24.3832 C   0  0  0  0  0  0  0  0  0  0  0  0
  -24.9688  -15.5595   25.0982 C   0  0  0  0  0  0  0  0  0  0  0  0
  -22.6841  -29.2568   22.2156 C   0  0  0  0  0  0  0  0  0  0  0  0
  -23.6327  -28.0580   19.3546 C   0  0  0  0  0  0  0  0  0  0  0  0
  -26.1793  -27.4724   17.1595 C   0  0  0  0  0  0  0  0  0  0  0  0
  -27.7923  -22.5658   22.6010 C   0  0  0  0  0  0  0  0  0  0  0  0
  -18.1395  -26.9460   22.4683 C   0  0  0  0  0  0  0  0  0  0  0  0
  -23.9670  -31.2029   21.2549 C   0  0  0  0  0  0  0  0  0  0  0  0
  -25.4595  -28.6642   20.9858 C   0  0  0  0  0  0  0  0  0  0  0  0
  -19.5600  -26.5238   22.1021 C   0  0  0  0  0  0  0  0  0  0  0  0
  -25.4509  -21.2049   20.2895 C   0  0  0  0  0  0  0  0  0  0  0  0
  -20.5476  -26.9949   23.1649 C   0  0  0  0  0  0  0  0  0  0  0  0
  -25.2200  -19.7817   20.8029 C   0  0  0  0  0  0  0  0  0  0  0  0
  -26.9025  -21.6448   20.4714 C   0  0  0  0  0  0  0  0  0  0  0  0
  -27.1983  -20.0761   22.3478 C   0  0  0  0  0  0  0  0  0  0  0  0
  -20.5541  -28.5245   23.2728 C   0  0  1  0  0  0  0  0  0  0  0  0
  -23.2590  -29.8808   20.9755 C   0  0  1  0  0  0  0  0  0  0  0  0
  -25.7361  -19.6123   22.2453 C   0  0  2  0  0  0  0  0  0  0  0  0
  -32.0920  -24.8179   27.1362 C   0  0  0  0  0  0  0  0  0  0  0  0
  -26.6528  -26.4411   14.9213 C   0  0  0  0  0  0  0  0  0  0  0  0
  -23.4457  -25.2782   20.5987 C   0  0  0  0  0  0  0  0  0  0  0  0
  -24.8062  -24.4069   18.6861 C   0  0  0  0  0  0  0  0  0  0  0  0
  -22.5739  -25.4352   18.2599 C   0  0  0  0  0  0  0  0  0  0  0  0
  -27.1240  -30.0458   16.0439 C   0  0  0  0  0  0  0  0  0  0  0  0
  -31.8704  -28.1058   23.9724 C   0  0  0  0  0  0  0  0  0  0  0  0
  -29.7111  -29.3528   23.5099 C   0  0  0  0  0  0  0  0  0  1  0  0
  -31.0631  -29.3817   24.2345 C   0  0  1  0  0  0  0  0  0  0  0  0
  -24.5161  -26.9158   18.9139 C   0  0  1  0  0  0  0  0  0  0  0  0
  -26.2988  -27.7187   15.6663 C   0  0  2  0  0  0  0  0  0  0  0  0
  -23.8454  -25.5300   19.1311 C   0  0  0  0  0  0  0  0  0  0  0  0
  -25.6373  -17.1776   21.8657 N   0  0  0  0  0  0  0  0  0  0  0  0
  -25.5537  -18.1911   22.7443 N   0  0  0  0  0  0  0  0  0  0  0  0
  -24.1422  -28.8843   20.3662 N   0  0  0  0  0  0  0  0  0  0  0  0
  -27.3207  -21.4598   21.8627 N   0  0  0  0  0  0  0  0  0  0  0  0
  -25.1915  -18.6817   25.0332 N   0  0  0  0  0  0  0  0  0  0  0  0
  -32.7760  -25.3765   23.7606 N   0  0  0  0  0  0  0  0  0  0  0  0
  -24.9137  -14.1767   24.8764 N   0  0  0  0  0  0  0  0  0  0  0  0
  -28.1300  -22.2753   23.9224 N   0  0  0  0  0  0  0  0  0  0  0  0
  -21.3110  -29.1047   22.1843 N   0  0  0  0  0  0  0  0  0  0  0  0
  -24.8806  -27.1927   17.5287 N   0  0  0  0  0  0  0  0  0  0  0  0
  -31.1769  -26.9320   24.5102 N   0  3  0  0  0  0  0  0  0  0  0  0
  -27.3568  -28.7316   15.3914 N   0  3  0  0  0  0  0  0  0  0  0  0
  -24.7816  -16.0035   26.2564 O   0  0  0  0  0  0  0  0  0  0  0  0
  -23.4312  -28.9356   23.1324 O   0  0  0  0  0  0  0  0  0  0  0  0
  -22.5342  -28.2156   18.8160 O   0  0  0  0  0  0  0  0  0  0  0  0
  -27.1425  -27.5195   17.9215 O   0  0  0  0  0  0  0  0  0  0  0  0
  -27.8638  -23.6936   22.1060 O   0  0  0  0  0  0  0  0  0  0  0  0
  -25.4862  -10.9977   20.3376 O   0  0  0  0  0  0  0  0  0  0  0  0
  -29.0508  -30.6061   23.6819 O   0  0  0  0  0  0  0  0  0  1  0  0
  -21.4925   -7.4885   21.8002 F   0  0  0  0  0  0  0  0  0  0  0  0
  -23.7576   -9.9504   18.4515 F   0  0  0  0  0  0  0  0  0  0  0  0
  1  2  1  0  0  0  0
  1  5  2  0  0  0  0
  2  6  2  0  0  0  0
  3 10  2  0  0  0  0
  3 18  1  0  0  0  0
  4 11  1  0  0  0  0
  4 18  2  0  0  0  0
  5 21  1  0  0  0  0
  6 23  1  0  0  0  0
  7 12  2  0  0  0  0
  7 22  1  0  0  0  0
  8  9  2  0  0  0  0
  8 25  1  0  0  0  0
  9 26  1  0  0  0  0
 10 27  1  0  0  0  0
 11 27  2  0  0  0  0
 12 28  1  0  0  0  0
 13 14  2  0  0  0  0
 13 29  1  0  0  0  0
 14 30  1  0  0  0  0
 15 19  1  0  0  0  0
 15 26  2  0  0  0  0
 16 24  1  0  0  0  0
 16 28  2  0  0  0  0
 17 30  2  0  0  0  0
 17 31  1  0  0  0  0
 18 32  1  0  0  0  0
 19 25  2  0  0  0  0
 19 36  1  0  0  0  0
 20 32  1  0  0  0  0
 20 33  2  0  0  0  0
 20 37  1  0  0  0  0
 21 23  2  0  0  0  0
 21 42  1  0  0  0  0
 22 24  2  0  0  0  0
 22 43  1  0  0  0  0
 23 51  1  0  0  0  0
 24 44  1  0  0  0  0
 25 54  1  0  0  0  0
 26 73  1  0  0  0  0
 27 83  1  0  0  0  0
 28 84  1  0  0  0  0
 29 31  2  0  0  0  0
 29 83  1  0  0  0  0
 30 85  1  0  0  0  0
 31 86  1  0  0  0  0
 32 66  2  0  0  0  0
 33 67  1  0  0  0  0
 33 70  1  0  0  0  0
 34 35  2  0  0  0  0
 35 62  1  0  0  0  0
 36 71  1  0  0  0  0
 36 76  2  0  0  0  0
 37 72  1  0  0  0  0
 37 78  2  0  0  0  0
 38 52  1  0  0  0  0
 38 74  1  0  0  0  0
 38 79  2  0  0  0  0
 39 63  1  0  0  0  0
 39 68  1  0  0  0  0
 39 80  2  0  0  0  0
 40 64  1  0  0  0  0
 40 75  1  0  0  0  0
 40 81  2  0  0  0  0
 41 69  1  0  0  0  0
 41 73  1  0  0  0  0
 41 82  2  0  0  0  0
 42 45  1  0  0  0  0
 43 52  1  0  0  0  0
 44 68  1  0  0  0  0
 45 47  1  0  0  0  0
 46 48  1  0  0  0  0
 46 49  1  0  0  0  0
 47 51  1  0  0  0  0
 48 53  1  0  0  0  0
 49 69  1  0  0  0  0
 50 53  1  0  0  0  0
 50 69  1  0  0  0  0
 51 74  1  0  0  0  0
 52 68  1  0  0  0  0
 53 67  1  0  0  0  0
 55 64  1  0  0  0  0
 56 65  1  0  0  0  0
 57 65  1  0  0  0  0
 58 65  1  0  0  0  0
 59 77  1  0  0  0  0
 60 62  1  0  0  0  0
 60 76  1  0  0  0  0
 61 62  1  0  0  0  0
 61 84  1  0  0  0  0
 63 65  1  0  0  0  0
 63 75  1  0  0  0  0
 64 77  1  0  0  0  0
 66 67  1  0  0  0  0
M  CHG  2  76   1  77   1
M  ISO  4  41 100  61 101  73 100  84 101
M  END
> <Batch ID>
0057

> <Smiles>
C=CC(CNC(=N)c1cc([100NH:0][100C:0](=O)N2CCCC(n3nc(-c4ccc(Oc5ccc(F)cc5F)cc4)c(C(N)=O)c3N)C2)ccc1C)[101CH2:1][101O:1]c1ccc2c(c1)CN(C(=O)C(NC(=O)C(C)NC)C(C)(C)C)C(C(=O)NC1CCCc3ccccc31)C2

> <Shape>
0.218

> <Color>
0.120

> <Negative vol penalty>
0.000

$$$$

  -OEChem-04042322553D

 88 96  0     1  0  0  0  0  0999 V2000
  -18.8502  -26.0471   13.5053 C   0  0  0  0  0  0  0  0  0  0  0  0
  -19.1347  -25.9140   14.8605 C   0  0  0  0  0  0  0  0  0  0  0  0
  -25.0430  -31.3601   21.6757 C   0  0  0  0  0  0  0  0  0  0  0  0
  -28.4778  -20.0991   19.9076 C   0  0  0  0  0  0  0  0  0  0  0  0
  -30.2362  -20.4469   18.2876 C   0  0  0  0  0  0  0  0  0  0  0  0
  -23.7132  -30.9423   21.7266 C   0  0  0  0  0  0  0  0  0  0  0  0
  -18.2661  -24.9893   12.8096 C   0  0  0  0  0  0  0  0  0  0  0  0
  -18.8343  -24.7233   15.5212 C   0  0  0  0  0  0  0  0  0  0  0  0
  -22.5991  -23.1677   18.5297 C   0  0  0  0  0  0  0  0  0  0  0  0
  -25.9909  -30.5895   21.0024 C   0  0  0  0  0  0  0  0  0  0  0  0
  -29.0539  -18.8821   20.2717 C   0  0  0  0  0  0  0  0  0  0  0  0
  -30.8123  -19.2299   18.6517 C   0  0  0  0  0  0  0  0  0  0  0  0
  -22.7363  -23.8076   19.7607 C   0  0  0  0  0  0  0  0  0  0  0  0
  -29.1807  -15.7270   19.0658 C   0  0  0  0  0  0  0  0  0  0  0  0
  -28.3341  -14.6283   19.2128 C   0  0  0  0  0  0  0  0  0  0  0  0
  -21.6106  -21.9655   20.8370 C   0  0  0  0  0  0  0  0  0  0  0  0
  -29.0146  -14.4128   21.5210 C   0  0  0  0  0  0  0  0  0  0  0  0
  -29.0689  -20.8815   18.9155 C   0  0  0  0  0  0  0  0  0  0  0  0
  -23.3313  -29.7539   21.1042 C   0  0  0  0  0  0  0  0  0  0  0  0
  -27.1827  -22.3454   18.0174 C   0  0  0  0  0  0  0  0  0  0  0  0
  -17.9673  -23.7817   13.4599 C   0  0  0  0  0  0  0  0  0  0  0  0
  -21.9559  -21.9247   18.4414 C   0  0  0  0  0  0  0  0  0  0  0  0
  -18.2445  -23.6489   14.8339 C   0  0  0  0  0  0  0  0  0  0  0  0
  -21.4688  -21.3107   19.6041 C   0  0  0  0  0  0  0  0  0  0  0  0
  -24.2792  -28.9832   20.4309 C   0  0  0  0  0  0  0  0  0  0  0  0
  -25.6090  -29.4011   20.3800 C   0  0  0  0  0  0  0  0  0  0  0  0
  -30.2212  -18.4475   19.6438 C   0  0  0  0  0  0  0  0  0  0  0  0
  -22.2395  -23.2080   20.9142 C   0  0  0  0  0  0  0  0  0  0  0  0
  -29.9443  -16.1686   20.1463 C   0  0  0  0  0  0  0  0  0  0  0  0
  -28.2510  -13.9712   20.4404 C   0  0  0  0  0  0  0  0  0  0  0  0
  -29.8613  -15.5115   21.3739 C   0  0  0  0  0  0  0  0  0  0  0  0
  -28.4739  -22.1385   18.5386 C   0  0  0  0  0  0  0  0  0  0  0  0
  -27.1029  -23.7033   17.8269 C   0  0  0  0  0  0  0  0  0  0  0  0
  -21.8500  -25.7450   23.4169 C   0  0  0  0  0  0  0  0  0  0  0  0
  -21.9176  -29.3325   21.1720 C   0  0  0  0  0  0  0  0  0  0  0  0
  -26.1479  -21.3952   17.7310 C   0  0  0  0  0  0  0  0  0  0  0  0
  -20.7985  -26.5584   23.6480 C   0  0  0  0  0  0  0  0  0  0  0  0
  -19.3527  -20.8457   16.9709 C   0  0  0  0  0  0  0  0  0  0  0  0
  -20.3970  -17.9767   18.0665 C   0  0  0  0  0  0  0  0  0  0  0  0
  -22.2430  -16.2481   20.3580 C   0  0  0  0  0  0  0  0  0  0  0  0
  -27.9460  -28.9241   19.5693 C   0  0  0  0  0  0  0  0  0  0  0  0
  -17.2929  -22.6831   12.6769 C   0  0  0  0  0  0  0  0  0  0  0  0
  -21.8396  -21.2350   17.1098 C   0  0  0  0  0  0  0  0  0  0  0  0
  -20.7882  -19.9676   19.5660 C   0  0  0  0  0  0  0  0  0  0  0  0
  -17.3497  -21.3216   13.3648 C   0  0  0  0  0  0  0  0  0  0  0  0
  -30.6881  -27.2717   18.0112 C   0  0  0  0  0  0  0  0  0  0  0  0
  -16.9730  -21.4514   14.8373 C   0  0  0  0  0  0  0  0  0  0  0  0
  -30.2503  -25.8060   17.9667 C   0  0  0  0  0  0  0  0  0  0  0  0
  -30.2211  -27.9645   19.2902 C   0  0  0  0  0  0  0  0  0  0  0  0
  -28.3462  -26.3837   19.5247 C   0  0  0  0  0  0  0  0  0  0  0  0
  -17.9562  -22.3642   15.5799 C   0  0  1  0  0  0  0  0  0  0  0  0
  -20.7108  -20.2098   17.0645 C   0  0  1  0  0  0  0  0  0  0  0  0
  -28.7377  -25.6615   18.2252 C   0  0  2  0  0  0  0  0  0  0  0  0
  -23.8661  -27.7070   19.7667 C   0  0  0  0  0  0  0  0  0  0  0  0
  -20.4503  -26.9092   25.0765 C   0  0  0  0  0  0  0  0  0  0  0  0
  -18.4702  -26.6699   22.6731 C   0  0  0  0  0  0  0  0  0  0  0  0
  -22.8736  -13.9114   21.0212 C   0  0  0  0  0  0  0  0  0  0  0  0
  -17.6366  -17.5863   19.3065 C   0  0  0  0  0  0  0  0  0  0  0  0
  -18.6038  -15.7539   20.7120 C   0  0  0  0  0  0  0  0  0  0  0  0
  -18.5933  -15.5437   18.2263 C   0  0  0  0  0  0  0  0  0  0  0  0
  -25.1193  -16.7685   19.8944 C   0  0  0  0  0  0  0  0  0  0  0  0
  -22.3922  -25.2576   22.1106 C   0  0  0  0  0  0  0  0  0  1  0  0
  -19.9856  -28.6975   22.5722 C   0  0  0  0  0  0  0  0  0  0  0  0
  -19.9176  -27.1649   22.5599 C   0  0  1  0  0  0  0  0  0  0  0  0
  -20.1849  -17.1716   19.3258 C   0  0  1  0  0  0  0  0  0  0  0  0
  -23.2580  -15.1307   20.1977 C   0  0  2  0  0  0  0  0  0  0  0  0
  -18.7657  -16.5401   19.3935 C   0  0  0  0  0  0  0  0  0  0  0  0
  -29.1648  -23.2739   18.6707 N   0  0  0  0  0  0  0  0  0  0  0  0
  -28.3045  -24.2075   18.2296 N   0  0  0  0  0  0  0  0  0  0  0  0
  -20.6932  -19.3362   18.2395 N   0  0  0  0  0  0  0  0  0  0  0  0
  -28.7779  -27.7891   19.4670 N   0  0  0  0  0  0  0  0  0  0  0  0
  -26.1228  -24.5033   17.3559 N   0  0  0  0  0  0  0  0  0  0  0  0
  -21.2504  -29.1855   20.0274 N   0  0  0  0  0  0  0  0  0  0  0  0
  -26.1055  -20.8179   16.4546 N   0  0  0  0  0  0  0  0  0  0  0  0
  -26.5885  -28.6338   19.7020 N   0  0  0  0  0  0  0  0  0  0  0  0
  -19.1862  -21.6568   15.8646 N   0  0  0  0  0  0  0  0  0  0  0  0
  -21.2736  -16.2019   19.3786 N   0  0  0  0  0  0  0  0  0  0  0  0
  -21.3753  -29.1213   22.3766 N   0  3  0  0  0  0  0  0  0  0  0  0
  -24.6064  -15.5887   20.6373 N   0  3  0  0  0  0  0  0  0  0  0  0
  -25.2766  -21.0801   18.5766 O   0  0  0  0  0  0  0  0  0  0  0  0
  -18.5171  -20.6161   17.8374 O   0  0  0  0  0  0  0  0  0  0  0  0
  -20.3104  -17.4183   16.9700 O   0  0  0  0  0  0  0  0  0  0  0  0
  -22.3020  -17.0766   21.2639 O   0  0  0  0  0  0  0  0  0  0  0  0
  -28.4011  -30.0694   19.5138 O   0  0  0  0  0  0  0  0  0  0  0  0
  -30.7838  -17.2601   19.9989 O   0  0  0  0  0  0  0  0  0  0  0  0
  -22.3715  -23.8308   22.1169 O   0  0  0  0  0  0  0  0  0  1  0  0
  -27.4368  -12.9171   20.5819 F   0  0  0  0  0  0  0  0  0  0  0  0
  -30.5916  -15.9319   22.4159 F   0  0  0  0  0  0  0  0  0  0  0  0
  1  2  1  0  0  0  0
  1  7  2  0  0  0  0
  2  8  2  0  0  0  0
  3  6  2  0  0  0  0
  3 10  1  0  0  0  0
  4 11  2  0  0  0  0
  4 18  1  0  0  0  0
  5 12  1  0  0  0  0
  5 18  2  0  0  0  0
  6 19  1  0  0  0  0
  7 21  1  0  0  0  0
  8 23  1  0  0  0  0
  9 13  2  0  0  0  0
  9 22  1  0  0  0  0
 10 26  2  0  0  0  0
 11 27  1  0  0  0  0
 12 27  2  0  0  0  0
 13 28  1  0  0  0  0
 14 15  2  0  0  0  0
 14 29  1  0  0  0  0
 15 30  1  0  0  0  0
 16 24  1  0  0  0  0
 16 28  2  0  0  0  0
 17 30  2  0  0  0  0
 17 31  1  0  0  0  0
 18 32  1  0  0  0  0
 19 25  2  0  0  0  0
 19 35  1  0  0  0  0
 20 32  1  0  0  0  0
 20 33  2  0  0  0  0
 20 36  1  0  0  0  0
 21 23  2  0  0  0  0
 21 42  1  0  0  0  0
 22 24  2  0  0  0  0
 22 43  1  0  0  0  0
 23 51  1  0  0  0  0
 24 44  1  0  0  0  0
 25 26  1  0  0  0  0
 25 54  1  0  0  0  0
 26 75  1  0  0  0  0
 27 85  1  0  0  0  0
 28 86  1  0  0  0  0
 29 31  2  0  0  0  0
 29 85  1  0  0  0  0
 30 87  1  0  0  0  0
 31 88  1  0  0  0  0
 32 68  2  0  0  0  0
 33 69  1  0  0  0  0
 33 72  1  0  0  0  0
 34 37  2  0  0  0  0
 34 62  1  0  0  0  0
 35 73  1  0  0  0  0
 35 78  2  0  0  0  0
 36 74  1  0  0  0  0
 36 80  2  0  0  0  0
 37 55  1  0  0  0  0
 37 64  1  0  0  0  0
 38 52  1  0  0  0  0
 38 76  1  0  0  0  0
 38 81  2  0  0  0  0
 39 65  1  0  0  0  0
 39 70  1  0  0  0  0
 39 82  2  0  0  0  0
 40 66  1  0  0  0  0
 40 77  1  0  0  0  0
 40 83  2  0  0  0  0
 41 71  1  0  0  0  0
 41 75  1  0  0  0  0
 41 84  2  0  0  0  0
 42 45  1  0  0  0  0
 43 52  1  0  0  0  0
 44 70  1  0  0  0  0
 45 47  1  0  0  0  0
 46 48  1  0  0  0  0
 46 49  1  0  0  0  0
 47 51  1  0  0  0  0
 48 53  1  0  0  0  0
 49 71  1  0  0  0  0
 50 53  1  0  0  0  0
 50 71  1  0  0  0  0
 51 76  1  0  0  0  0
 52 70  1  0  0  0  0
 53 69  1  0  0  0  0
 56 64  1  0  0  0  0
 57 66  1  0  0  0  0
 58 67  1  0  0  0  0
 59 67  1  0  0  0  0
 60 67  1  0  0  0  0
 61 79  1  0  0  0  0
 62 86  1  0  0  0  0
 63 64  1  0  0  0  0
 63 78  1  0  0  0  0
 65 67  1  0  0  0  0
 65 77  1  0  0  0  0
 66 79  1  0  0  0  0
 68 69  1  0  0  0  0
M  CHG  2  78   1  79   1
M  ISO  4  41 100  62 101  75 100  86 101
M  END
> <Batch ID>
0057

> <Smiles>
CNC(C)C(=O)NC(C(=O)N1Cc2cc([101O:1][101CH2:1]C=C(C)C(C)CNC(=N)c3cccc([100NH:0][100C:0](=O)N4CCCC(n5nc(-c6ccc(Oc7ccc(F)cc7F)cc6)c(C(N)=O)c5N)C4)c3C)ccc2CC1C(=O)NC1CCCc2ccccc21)C(C)(C)C

> <Shape>
0.208

> <Color>
0.071

> <Negative vol penalty>
0.000

$$$$

  -OEChem-04042322553D

 88 96  0     1  0  0  0  0  0999 V2000
  -28.7298  -33.2456   26.0828 C   0  0  0  0  0  0  0  0  0  0  0  0
  -28.7321  -32.0480   25.3749 C   0  0  0  0  0  0  0  0  0  0  0  0
  -24.7595   -8.7335   21.5911 C   0  0  0  0  0  0  0  0  0  0  0  0
  -23.0766  -10.2826   20.8131 C   0  0  0  0  0  0  0  0  0  0  0  0
  -27.5244  -33.7935   26.5196 C   0  0  0  0  0  0  0  0  0  0  0  0
  -27.5290  -31.3970   25.1044 C   0  0  0  0  0  0  0  0  0  0  0  0
  -27.2434  -29.7501   20.3241 C   0  0  0  0  0  0  0  0  0  0  0  0
  -24.1414  -19.2550   19.3383 C   0  0  0  0  0  0  0  0  0  0  0  0
  -24.8505  -18.0595   19.2225 C   0  0  0  0  0  0  0  0  0  0  0  0
  -23.8167   -8.1256   22.4201 C   0  0  0  0  0  0  0  0  0  0  0  0
  -22.1338   -9.6747   21.6420 C   0  0  0  0  0  0  0  0  0  0  0  0
  -27.9375  -28.5823   20.0104 C   0  0  0  0  0  0  0  0  0  0  0  0
  -21.2812   -5.9111   22.1038 C   0  0  0  0  0  0  0  0  0  0  0  0
  -21.2398   -4.5170   22.1251 C   0  0  0  0  0  0  0  0  0  0  0  0
  -26.6933  -19.0341   20.4437 C   0  0  0  0  0  0  0  0  0  0  0  0
  -25.8852  -27.3253   20.1758 C   0  0  0  0  0  0  0  0  0  0  0  0
  -21.7227   -4.5388   24.4922 C   0  0  0  0  0  0  0  0  0  0  0  0
  -24.3895   -9.8121   20.7876 C   0  0  0  0  0  0  0  0  0  0  0  0
  -25.9842  -20.2297   20.5594 C   0  0  0  0  0  0  0  0  0  0  0  0
  -25.6678  -10.1031   18.5993 C   0  0  0  0  0  0  0  0  0  0  0  0
  -26.3052  -33.1539   26.2459 C   0  0  0  0  0  0  0  0  0  0  0  0
  -25.8647  -29.7124   20.5771 C   0  0  0  0  0  0  0  0  0  0  0  0
  -26.3063  -31.9362   25.5391 C   0  0  0  0  0  0  0  0  0  0  0  0
  -25.1755  -28.4944   20.4899 C   0  0  0  0  0  0  0  0  0  0  0  0
  -24.7083  -20.3402   20.0067 C   0  0  0  0  0  0  0  0  0  0  0  0
  -26.1264  -17.9490   19.7752 C   0  0  0  0  0  0  0  0  0  0  0  0
  -22.5039   -8.5961   22.4455 C   0  0  0  0  0  0  0  0  0  0  0  0
  -27.2590  -27.3692   19.9390 C   0  0  0  0  0  0  0  0  0  0  0  0
  -21.5435   -6.6190   23.2767 C   0  0  0  0  0  0  0  0  0  0  0  0
  -21.4604   -3.8308   23.3193 C   0  0  0  0  0  0  0  0  0  0  0  0
  -21.7642   -5.9329   24.4709 C   0  0  0  0  0  0  0  0  0  0  0  0
  -25.3630  -10.4408   19.9315 C   0  0  0  0  0  0  0  0  0  0  0  0
  -26.6512  -10.9905   18.2364 C   0  0  0  0  0  0  0  0  0  0  0  0
  -28.5544  -24.0480   20.3489 C   0  0  0  0  0  0  0  0  0  0  0  0
  -27.9248  -25.2110   20.5468 C   0  0  0  0  0  0  0  0  0  1  0  0
  -26.6114  -21.3694   21.2770 C   0  0  0  0  0  0  0  0  0  0  0  0
  -25.1115   -9.0788   17.7644 C   0  0  0  0  0  0  0  0  0  0  0  0
  -24.0233  -30.3940   23.0768 C   0  0  0  0  0  0  0  0  0  0  0  0
  -21.6231  -29.8281   20.9694 C   0  0  0  0  0  0  0  0  0  0  0  0
  -20.5879  -28.2985   18.0996 C   0  0  0  0  0  0  0  0  0  0  0  0
  -28.1229  -16.4580   20.1458 C   0  0  0  0  0  0  0  0  0  0  0  0
  -25.0315  -33.7602   26.7795 C   0  0  0  0  0  0  0  0  0  0  0  0
  -25.1257  -30.9851   20.8879 C   0  0  0  0  0  0  0  0  0  0  0  0
  -23.6919  -28.4035   20.7328 C   0  0  0  0  0  0  0  0  0  0  0  0
  -23.7702  -33.2001   26.1270 C   0  0  0  0  0  0  0  0  0  0  0  0
  -30.2245  -13.5844   20.0907 C   0  0  0  0  0  0  0  0  0  0  0  0
  -23.8350  -31.6776   26.0599 C   0  0  0  0  0  0  0  0  0  0  0  0
  -29.2445  -12.4219   19.9162 C   0  0  0  0  0  0  0  0  0  0  0  0
  -29.6481  -14.6832   20.9818 C   0  0  0  0  0  0  0  0  0  0  0  0
  -27.3474  -14.0192   20.4029 C   0  0  0  0  0  0  0  0  0  0  0  0
  -25.0198  -31.2129   25.2046 C   0  0  1  0  0  0  0  0  0  0  0  0
  -23.8149  -30.7486   21.6316 C   0  0  1  0  0  0  0  0  0  0  0  0
  -27.8580  -12.9172   19.4602 C   0  0  2  0  0  0  0  0  0  0  0  0
  -23.9271  -21.6090   20.1162 C   0  0  0  0  0  0  0  0  0  0  0  0
  -18.5610  -27.9900   16.6527 C   0  0  0  0  0  0  0  0  0  0  0  0
  -29.8956  -21.2803   22.8208 C   0  0  0  0  0  0  0  0  0  0  0  0
  -30.6628  -23.6467   22.5551 C   0  0  0  0  0  0  0  0  0  0  0  0
  -30.8392  -22.0621   20.6378 C   0  0  0  0  0  0  0  0  0  0  0  0
  -20.4874  -27.8420   22.9881 C   0  0  0  0  0  0  0  0  0  0  0  0
  -19.0662  -26.8986   21.1555 C   0  0  0  0  0  0  0  0  0  0  0  0
  -18.7768  -29.2745   21.8584 C   0  0  0  0  0  0  0  0  0  0  0  0
  -21.9085  -29.5727   15.7776 C   0  0  0  0  0  0  0  0  0  0  0  0
  -28.5488  -22.9178   21.3475 C   0  0  2  0  0  0  0  0  0  0  0  0
  -20.8349  -28.6115   20.5482 C   0  0  1  0  0  0  0  0  0  0  0  0
  -19.8104  -28.8196   16.9045 C   0  0  2  0  0  0  0  0  0  0  0  0
  -29.9632  -22.4692   21.8417 C   0  0  0  0  0  0  0  0  0  0  0  0
  -19.8196  -28.1577   21.6348 C   0  0  0  0  0  0  0  0  0  0  0  0
  -26.0938  -11.4630   20.3844 N   0  0  0  0  0  0  0  0  0  0  0  0
  -26.8676  -11.7751   19.3309 N   0  0  0  0  0  0  0  0  0  0  0  0
  -23.0150  -29.6744   21.0395 N   0  0  0  0  0  0  0  0  0  0  0  0
  -28.3362  -15.1055   20.4864 N   0  0  0  0  0  0  0  0  0  0  0  0
  -27.3435  -11.1685   17.0912 N   0  0  0  0  0  0  0  0  0  0  0  0
  -24.1093   -8.2553   18.2951 N   0  0  0  0  0  0  0  0  0  0  0  0
  -26.8471  -16.7349   19.6556 N   0  0  0  0  0  0  0  0  0  0  0  0
  -27.8049  -21.8310   20.7477 N   0  0  0  0  0  0  0  0  0  0  0  0
  -24.7121  -31.3511   23.7972 N   0  0  0  0  0  0  0  0  0  0  0  0
  -20.2274  -28.9432   19.2640 N   0  0  0  0  0  0  0  0  0  0  0  0
  -20.6566  -28.7790   15.6784 N   0  3  0  0  0  0  0  0  0  0  0  0
  -26.0678  -21.8171   22.2833 O   0  0  0  0  0  0  0  0  0  0  0  0
  -25.5036   -8.8884   16.5881 O   0  0  0  0  0  0  0  0  0  0  0  0
  -23.5900  -29.3315   23.5068 O   0  0  0  0  0  0  0  0  0  0  0  0
  -21.0265  -30.8783   21.2198 O   0  0  0  0  0  0  0  0  0  0  0  0
  -21.4282  -27.4062   18.0099 O   0  0  0  0  0  0  0  0  0  0  0  0
  -29.0154  -17.3029   20.2536 O   0  0  0  0  0  0  0  0  0  0  0  0
  -21.5836   -8.0030   23.2541 O   0  0  0  0  0  0  0  0  0  0  0  0
  -27.9341  -26.2278   19.6337 O   0  0  0  0  0  0  0  0  0  1  0  0
  -21.4191   -2.4922   23.3399 F   0  0  0  0  0  0  0  0  0  0  0  0
  -22.0154   -6.6075   25.6012 F   0  0  0  0  0  0  0  0  0  0  0  0
  1  2  1  0  0  0  0
  1  5  2  0  0  0  0
  2  6  2  0  0  0  0
  3 10  2  0  0  0  0
  3 18  1  0  0  0  0
  4 11  1  0  0  0  0
  4 18  2  0  0  0  0
  5 21  1  0  0  0  0
  6 23  1  0  0  0  0
  7 12  2  0  0  0  0
  7 22  1  0  0  0  0
  8  9  2  0  0  0  0
  8 25  1  0  0  0  0
  9 26  1  0  0  0  0
 10 27  1  0  0  0  0
 11 27  2  0  0  0  0
 12 28  1  0  0  0  0
 13 14  2  0  0  0  0
 13 29  1  0  0  0  0
 14 30  1  0  0  0  0
 15 19  1  0  0  0  0
 15 26  2  0  0  0  0
 16 24  1  0  0  0  0
 16 28  2  0  0  0  0
 17 30  2  0  0  0  0
 17 31  1  0  0  0  0
 18 32  1  0  0  0  0
 19 25  2  0  0  0  0
 19 36  1  0  0  0  0
 20 32  1  0  0  0  0
 20 33  2  0  0  0  0
 20 37  1  0  0  0  0
 21 23  2  0  0  0  0
 21 42  1  0  0  0  0
 22 24  2  0  0  0  0
 22 43  1  0  0  0  0
 23 51  1  0  0  0  0
 24 44  1  0  0  0  0
 25 54  1  0  0  0  0
 26 74  1  0  0  0  0
 27 85  1  0  0  0  0
 28 86  1  0  0  0  0
 29 31  2  0  0  0  0
 29 85  1  0  0  0  0
 30 87  1  0  0  0  0
 31 88  1  0  0  0  0
 32 68  2  0  0  0  0
 33 69  1  0  0  0  0
 33 72  1  0  0  0  0
 34 35  2  0  0  0  0
 34 63  1  0  0  0  0
 35 86  1  0  0  0  0
 36 75  1  0  0  0  0
 36 79  2  0  0  0  0
 37 73  1  0  0  0  0
 37 80  2  0  0  0  0
 38 52  1  0  0  0  0
 38 76  1  0  0  0  0
 38 81  2  0  0  0  0
 39 64  1  0  0  0  0
 39 70  1  0  0  0  0
 39 82  2  0  0  0  0
 40 65  1  0  0  0  0
 40 77  1  0  0  0  0
 40 83  2  0  0  0  0
 41 71  1  0  0  0  0
 41 74  1  0  0  0  0
 41 84  2  0  0  0  0
 42 45  1  0  0  0  0
 43 52  1  0  0  0  0
 44 70  1  0  0  0  0
 45 47  1  0  0  0  0
 46 48  1  0  0  0  0
 46 49  1  0  0  0  0
 47 51  1  0  0  0  0
 48 53  1  0  0  0  0
 49 71  1  0  0  0  0
 50 53  1  0  0  0  0
 50 71  1  0  0  0  0
 51 76  1  0  0  0  0
 52 70  1  0  0  0  0
 53 69  1  0  0  0  0
 55 65  1  0  0  0  0
 56 66  1  0  0  0  0
 57 66  1  0  0  0  0
 58 66  1  0  0  0  0
 59 67  1  0  0  0  0
 60 67  1  0  0  0  0
 61 67  1  0  0  0  0
 62 78  1  0  0  0  0
 63 66  1  0  0  0  0
 63 75  1  0  0  0  0
 64 67  1  0  0  0  0
 64 77  1  0  0  0  0
 65 78  1  0  0  0  0
 68 69  1  0  0  0  0
M  CHG  1  78   1
M  ISO  4  35 101  41 100  74 100  86 101
M  END
> <Batch ID>
0057

> <Smiles>
CNC(C)C(=O)NC(C(=O)N1Cc2cc([101O:1][101CH:1]=CC(NC(=O)c3cc([100NH:0][100C:0](=O)N4CCCC(n5nc(-c6ccc(Oc7ccc(F)cc7F)cc6)c(C(N)=O)c5N)C4)ccc3C)C(C)(C)C)ccc2CC1C(=O)NC1CCCc2ccccc21)C(C)(C)C

> <Shape>
0.321

> <Color>
0.110

> <Negative vol penalty>
0.000

$$$$

  -OEChem-04042322553D

 85 93  0     1  0  0  0  0  0999 V2000
  -34.4979  -30.5208   22.4370 C   0  0  0  0  0  0  0  0  0  0  0  0
  -33.7052  -29.4524   22.8440 C   0  0  0  0  0  0  0  0  0  0  0  0
  -32.8215  -17.0867   23.7339 C   0  0  0  0  0  0  0  0  0  0  0  0
  -23.0229   -9.9483   19.8493 C   0  0  0  0  0  0  0  0  0  0  0  0
  -23.8669   -9.7155   22.1011 C   0  0  0  0  0  0  0  0  0  0  0  0
  -32.0805  -17.8838   24.6062 C   0  0  0  0  0  0  0  0  0  0  0  0
  -34.5796  -30.8514   21.0850 C   0  0  0  0  0  0  0  0  0  0  0  0
  -32.9929  -28.7147   21.8992 C   0  0  0  0  0  0  0  0  0  0  0  0
  -33.3566  -23.7209   22.6573 C   0  0  0  0  0  0  0  0  0  0  0  0
  -32.1708  -16.3127   22.7731 C   0  0  0  0  0  0  0  0  0  0  0  0
  -22.2769   -8.7805   20.0082 C   0  0  0  0  0  0  0  0  0  0  0  0
  -23.1208   -8.5477   22.2600 C   0  0  0  0  0  0  0  0  0  0  0  0
  -32.5700  -23.1715   23.6688 C   0  0  0  0  0  0  0  0  0  0  0  0
  -21.1582   -5.7012   23.3842 C   0  0  0  0  0  0  0  0  0  0  0  0
  -20.4452   -5.5429   24.5726 C   0  0  0  0  0  0  0  0  0  0  0  0
  -30.9747  -22.4310   22.0178 C   0  0  0  0  0  0  0  0  0  0  0  0
  -19.1947   -7.5530   24.0901 C   0  0  0  0  0  0  0  0  0  0  0  0
  -23.8180  -10.4158   20.8957 C   0  0  0  0  0  0  0  0  0  0  0  0
  -30.6886  -17.9069   24.5178 C   0  0  0  0  0  0  0  0  0  0  0  0
  -24.1814  -12.9376   21.0212 C   0  0  0  0  0  0  0  0  0  0  0  0
  -33.8754  -30.1113   20.1221 C   0  0  0  0  0  0  0  0  0  0  0  0
  -32.9520  -23.6389   21.3171 C   0  0  0  0  0  0  0  0  0  0  0  0
  -33.0641  -29.0365   20.5331 C   0  0  0  0  0  0  0  0  0  0  0  0
  -31.7592  -22.9779   20.9909 C   0  0  0  0  0  0  0  0  0  0  0  0
  -30.0378  -17.1328   23.5571 C   0  0  0  0  0  0  0  0  0  0  0  0
  -30.7789  -16.3357   22.6847 C   0  0  0  0  0  0  0  0  0  0  0  0
  -22.3258   -8.0802   21.2135 C   0  0  0  0  0  0  0  0  0  0  0  0
  -31.3774  -22.5289   23.3494 C   0  0  0  0  0  0  0  0  0  0  0  0
  -20.8895   -6.7855   22.5488 C   0  0  0  0  0  0  0  0  0  0  0  0
  -19.4635   -6.4688   24.9255 C   0  0  0  0  0  0  0  0  0  0  0  0
  -19.9078   -7.7113   22.9017 C   0  0  0  0  0  0  0  0  0  0  0  0
  -24.5894  -11.6217   20.7320 C   0  0  0  0  0  0  0  0  0  0  0  0
  -25.2671  -13.7132   20.6954 C   0  0  0  0  0  0  0  0  0  0  0  0
  -29.9409  -18.7568   25.4516 C   0  0  0  0  0  0  0  0  0  0  0  0
  -22.9327  -13.4162   21.5383 C   0  0  0  0  0  0  0  0  0  0  0  0
  -29.5889  -20.0356   25.2332 C   0  0  0  0  0  0  0  0  0  0  0  0
  -28.8091  -20.6986   26.3797 C   0  0  0  0  0  0  0  0  0  0  0  0
  -32.2104  -25.7552   19.0644 C   0  0  0  0  0  0  0  0  0  0  0  0
  -32.0684  -23.1178   17.1813 C   0  0  0  0  0  0  0  0  0  0  0  0
  -31.6323  -19.7407   16.9533 C   0  0  0  0  0  0  0  0  0  0  0  0
  -30.7466  -14.6995   20.7694 C   0  0  0  0  0  0  0  0  0  0  0  0
  -33.9577  -30.5359   18.6772 C   0  0  0  0  0  0  0  0  0  0  0  0
  -33.8251  -24.2132   20.2353 C   0  0  0  0  0  0  0  0  0  0  0  0
  -31.2904  -22.8451   19.5657 C   0  0  0  0  0  0  0  0  0  0  0  0
  -33.4669  -29.4704   17.7004 C   0  0  0  0  0  0  0  0  0  0  0  0
  -29.5206  -12.5482   18.2109 C   0  0  0  0  0  0  0  0  0  0  0  0
  -32.1409  -28.8830   18.1731 C   0  0  0  0  0  0  0  0  0  0  0  0
  -28.0949  -12.2237   18.6625 C   0  0  0  0  0  0  0  0  0  0  0  0
  -30.4818  -12.6468   19.3943 C   0  0  0  0  0  0  0  0  0  0  0  0
  -28.6347  -13.2385   20.9132 C   0  0  0  0  0  0  0  0  0  0  0  0
  -32.2959  -28.1968   19.5357 C   0  0  1  0  0  0  0  0  0  0  0  0
  -33.0608  -24.5216   18.9515 C   0  0  1  0  0  0  0  0  0  0  0  0
  -27.6173  -13.1932   19.7615 C   0  0  2  0  0  0  0  0  0  0  0  0
  -28.0580  -17.9979   22.2848 C   0  0  0  0  0  0  0  0  0  0  0  0
  -31.5321  -17.8761   15.2768 C   0  0  0  0  0  0  0  0  0  0  0  0
  -29.2637  -24.0026   16.3683 C   0  0  0  0  0  0  0  0  0  0  0  0
  -28.8661  -21.6931   15.4870 C   0  0  0  0  0  0  0  0  0  0  0  0
  -30.6610  -23.1131   14.4947 C   0  0  0  0  0  0  0  0  0  0  0  0
  -33.9550  -18.3674   18.1689 C   0  0  0  0  0  0  0  0  0  0  0  0
  -28.5429  -17.1525   23.4563 C   0  0  0  0  0  0  0  0  0  0  0  0
  -29.8225  -20.8497   23.9963 C   0  0  0  0  0  0  0  0  0  1  0  0
  -30.9899  -22.1321   16.8015 C   0  0  1  0  0  0  0  0  0  0  0  0
  -32.4212  -18.6703   16.2210 C   0  0  2  0  0  0  0  0  0  0  0  0
  -29.9528  -22.7392   15.8150 C   0  0  0  0  0  0  0  0  0  0  0  0
  -25.8369  -11.5609   20.2587 N   0  0  0  0  0  0  0  0  0  0  0  0
  -26.2221  -12.8484   20.2479 N   0  0  0  0  0  0  0  0  0  0  0  0
  -32.1756  -23.4286   18.5442 N   0  0  0  0  0  0  0  0  0  0  0  0
  -29.9663  -13.5860   20.3927 N   0  0  0  0  0  0  0  0  0  0  0  0
  -25.4885  -15.0437   20.7508 N   0  0  0  0  0  0  0  0  0  0  0  0
  -21.9245  -12.4839   21.8190 N   0  0  0  0  0  0  0  0  0  0  0  0
  -30.1395  -15.5402   21.7018 N   0  0  0  0  0  0  0  0  0  0  0  0
  -32.9179  -26.8993   19.3803 N   0  0  0  0  0  0  0  0  0  0  0  0
  -31.6776  -20.9503   16.2929 N   0  0  0  0  0  0  0  0  0  0  0  0
  -33.0372  -17.7242   17.1938 N   0  3  0  0  0  0  0  0  0  0  0  0
  -29.4132  -20.7522   27.4896 O   0  5  0  0  0  0  0  0  0  0  0  0
  -22.7115  -14.6360   21.7298 O   0  0  0  0  0  0  0  0  0  0  0  0
  -27.6592  -21.1229   26.0681 O   0  0  0  0  0  0  0  0  0  0  0  0
  -31.0020  -25.6752   18.8772 O   0  0  0  0  0  0  0  0  0  0  0  0
  -32.7938  -23.5890   16.3018 O   0  0  0  0  0  0  0  0  0  0  0  0
  -31.0324  -19.5244   18.0040 O   0  0  0  0  0  0  0  0  0  0  0  0
  -31.8594  -14.9078   20.2792 O   0  0  0  0  0  0  0  0  0  0  0  0
  -21.5977   -6.9408   21.3690 O   0  0  0  0  0  0  0  0  0  0  0  0
  -30.6074  -21.9924   24.3348 O   0  0  0  0  0  0  0  0  0  1  0  0
  -18.7778   -6.3158   26.0660 F   0  0  0  0  0  0  0  0  0  0  0  0
  -19.6443   -8.7543   22.1026 F   0  0  0  0  0  0  0  0  0  0  0  0
  1  2  1  0  0  0  0
  1  7  2  0  0  0  0
  2  8  2  0  0  0  0
  3  6  1  0  0  0  0
  3 10  2  0  0  0  0
  4 11  2  0  0  0  0
  4 18  1  0  0  0  0
  5 12  1  0  0  0  0
  5 18  2  0  0  0  0
  6 19  2  0  0  0  0
  7 21  1  0  0  0  0
  8 23  1  0  0  0  0
  9 13  2  0  0  0  0
  9 22  1  0  0  0  0
 10 26  1  0  0  0  0
 11 27  1  0  0  0  0
 12 27  2  0  0  0  0
 13 28  1  0  0  0  0
 14 15  2  0  0  0  0
 14 29  1  0  0  0  0
 15 30  1  0  0  0  0
 16 24  1  0  0  0  0
 16 28  2  0  0  0  0
 17 30  2  0  0  0  0
 17 31  1  0  0  0  0
 18 32  1  0  0  0  0
 19 25  1  0  0  0  0
 19 34  1  0  0  0  0
 20 32  1  0  0  0  0
 20 33  2  0  0  0  0
 20 35  1  0  0  0  0
 21 23  2  0  0  0  0
 21 42  1  0  0  0  0
 22 24  2  0  0  0  0
 22 43  1  0  0  0  0
 23 51  1  0  0  0  0
 24 44  1  0  0  0  0
 25 26  2  0  0  0  0
 25 60  1  0  0  0  0
 26 71  1  0  0  0  0
 27 82  1  0  0  0  0
 28 83  1  0  0  0  0
 29 31  2  0  0  0  0
 29 82  1  0  0  0  0
 30 84  1  0  0  0  0
 31 85  1  0  0  0  0
 32 65  2  0  0  0  0
 33 66  1  0  0  0  0
 33 69  1  0  0  0  0
 34 36  2  0  0  0  0
 35 70  1  0  0  0  0
 35 76  2  0  0  0  0
 36 37  1  0  0  0  0
 36 61  1  0  0  0  0
 37 75  1  0  0  0  0
 37 77  2  0  0  0  0
 38 52  1  0  0  0  0
 38 72  1  0  0  0  0
 38 78  2  0  0  0  0
 39 62  1  0  0  0  0
 39 67  1  0  0  0  0
 39 79  2  0  0  0  0
 40 63  1  0  0  0  0
 40 73  1  0  0  0  0
 40 80  2  0  0  0  0
 41 68  1  0  0  0  0
 41 71  1  0  0  0  0
 41 81  2  0  0  0  0
 42 45  1  0  0  0  0
 43 52  1  0  0  0  0
 44 67  1  0  0  0  0
 45 47  1  0  0  0  0
 46 48  1  0  0  0  0
 46 49  1  0  0  0  0
 47 51  1  0  0  0  0
 48 53  1  0  0  0  0
 49 68  1  0  0  0  0
 50 53  1  0  0  0  0
 50 68  1  0  0  0  0
 51 72  1  0  0  0  0
 52 67  1  0  0  0  0
 53 66  1  0  0  0  0
 54 60  1  0  0  0  0
 55 63  1  0  0  0  0
 56 64  1  0  0  0  0
 57 64  1  0  0  0  0
 58 64  1  0  0  0  0
 59 74  1  0  0  0  0
 61 83  1  0  0  0  0
 62 64  1  0  0  0  0
 62 73  1  0  0  0  0
 63 74  1  0  0  0  0
 65 66  1  0  0  0  0
M  CHG  2  74   1  75  -1
M  ISO  4  41 100  61 101  71 100  83 101
M  END
> <Batch ID>
0057

> <Smiles>
CCc1c(C=C(C(=O)O)[101CH2:1][101O:1]c2ccc3c(c2)CN(C(=O)C(NC(=O)C(C)NC)C(C)(C)C)C(C(=O)NC2CCCc4ccccc42)C3)cccc1[100NH:0][100C:0](=O)N1CCCC(n2nc(-c3ccc(Oc4ccc(F)cc4F)cc3)c(C(N)=O)c2N)C1

> <Shape>
0.194

> <Color>
0.188

> <Negative vol penalty>
0.000

$$$$

  -OEChem-04042322553D

 88 96  0     1  0  0  0  0  0999 V2000
  -26.3280  -26.0359   17.5587 C   0  0  0  0  0  0  0  0  0  0  0  0
  -26.4437  -25.1778   18.6475 C   0  0  0  0  0  0  0  0  0  0  0  0
  -32.6775  -17.4611   23.4364 C   0  0  0  0  0  0  0  0  0  0  0  0
  -23.0745   -9.8699   19.9400 C   0  0  0  0  0  0  0  0  0  0  0  0
  -23.8352   -9.8742   22.2331 C   0  0  0  0  0  0  0  0  0  0  0  0
  -31.8989  -18.3354   24.1947 C   0  0  0  0  0  0  0  0  0  0  0  0
  -27.3011  -27.0085   17.3326 C   0  0  0  0  0  0  0  0  0  0  0  0
  -27.5332  -25.2911   19.5104 C   0  0  0  0  0  0  0  0  0  0  0  0
  -26.1833  -25.0541   24.3855 C   0  0  0  0  0  0  0  0  0  0  0  0
  -32.0685  -16.5866   22.5363 C   0  0  0  0  0  0  0  0  0  0  0  0
  -22.3300   -8.7170   20.1891 C   0  0  0  0  0  0  0  0  0  0  0  0
  -23.0906   -8.7212   22.4823 C   0  0  0  0  0  0  0  0  0  0  0  0
  -25.9088  -23.7916   24.9095 C   0  0  0  0  0  0  0  0  0  0  0  0
  -19.8622   -7.9248   23.0851 C   0  0  0  0  0  0  0  0  0  0  0  0
  -19.1056   -7.8842   24.2562 C   0  0  0  0  0  0  0  0  0  0  0  0
  -28.1083  -23.7304   25.8983 C   0  0  0  0  0  0  0  0  0  0  0  0
  -20.3461   -5.9453   24.9903 C   0  0  0  0  0  0  0  0  0  0  0  0
  -23.8271  -10.4485   20.9620 C   0  0  0  0  0  0  0  0  0  0  0  0
  -30.5113  -18.3351   24.0530 C   0  0  0  0  0  0  0  0  0  0  0  0
  -24.1705  -12.9735   20.8443 C   0  0  0  0  0  0  0  0  0  0  0  0
  -28.3980  -27.1401   18.1986 C   0  0  0  0  0  0  0  0  0  0  0  0
  -27.4285  -25.6605   24.6052 C   0  0  0  0  0  0  0  0  0  0  0  0
  -28.5226  -26.2654   19.2949 C   0  0  0  0  0  0  0  0  0  0  0  0
  -28.3952  -25.0017   25.3781 C   0  0  0  0  0  0  0  0  0  0  0  0
  -29.9022  -17.4606   23.1530 C   0  0  0  0  0  0  0  0  0  0  0  0
  -30.6809  -16.5864   22.3946 C   0  0  0  0  0  0  0  0  0  0  0  0
  -22.3380   -8.1426   21.4602 C   0  0  0  0  0  0  0  0  0  0  0  0
  -26.8724  -23.1283   25.6636 C   0  0  0  0  0  0  0  0  0  0  0  0
  -20.8607   -6.9756   22.8665 C   0  0  0  0  0  0  0  0  0  0  0  0
  -19.3476   -6.8945   25.2089 C   0  0  0  0  0  0  0  0  0  0  0  0
  -21.1026   -5.9859   23.8192 C   0  0  0  0  0  0  0  0  0  0  0  0
  -24.5969  -11.6391   20.7052 C   0  0  0  0  0  0  0  0  0  0  0  0
  -25.2630  -13.7227   20.4814 C   0  0  0  0  0  0  0  0  0  0  0  0
  -26.4586  -18.8184   24.6676 C   0  0  0  0  0  0  0  0  0  0  0  0
  -26.0812  -19.6378   25.6592 C   0  0  0  0  0  0  0  0  0  0  0  0
  -29.7239  -19.2517   24.8512 C   0  0  0  0  0  0  0  0  0  0  0  0
  -22.9005  -13.4897   21.2642 C   0  0  0  0  0  0  0  0  0  0  0  0
  -26.7977  -17.3967   24.9650 C   0  0  0  0  0  0  0  0  0  0  0  0
  -29.8111  -26.6315   22.7386 C   0  0  0  0  0  0  0  0  0  0  0  0
  -30.9969  -27.8015   25.5220 C   0  0  0  0  0  0  0  0  0  0  0  0
  -31.0848  -27.6381   28.9297 C   0  0  0  0  0  0  0  0  0  0  0  0
  -30.7299  -14.7647   20.6552 C   0  0  0  0  0  0  0  0  0  0  0  0
  -29.4492  -28.1756   17.8865 C   0  0  0  0  0  0  0  0  0  0  0  0
  -27.6993  -27.0342   24.0555 C   0  0  0  0  0  0  0  0  0  0  0  0
  -29.7402  -25.6181   25.6599 C   0  0  0  0  0  0  0  0  0  0  0  0
  -30.3774  -28.4744   19.0610 C   0  0  0  0  0  0  0  0  0  0  0  0
  -29.6132  -12.3539   18.2850 C   0  0  0  0  0  0  0  0  0  0  0  0
  -30.8557  -27.1779   19.7067 C   0  0  0  0  0  0  0  0  0  0  0  0
  -28.1735  -12.0628   18.7148 C   0  0  0  0  0  0  0  0  0  0  0  0
  -30.5288  -12.5810   19.4866 C   0  0  0  0  0  0  0  0  0  0  0  0
  -28.6228  -13.3053   20.8692 C   0  0  0  0  0  0  0  0  0  0  0  0
  -29.6769  -26.3732   20.2675 C   0  0  1  0  0  0  0  0  0  0  0  0
  -29.1875  -27.3367   23.9097 C   0  0  1  0  0  0  0  0  0  0  0  0
  -27.6495  -13.1338   19.6915 C   0  0  2  0  0  0  0  0  0  0  0  0
  -32.1760  -28.6985   30.9252 C   0  0  0  0  0  0  0  0  0  0  0  0
  -33.5721  -26.2801   24.9191 C   0  0  0  0  0  0  0  0  0  0  0  0
  -34.2308  -26.5848   27.3152 C   0  0  0  0  0  0  0  0  0  0  0  0
  -33.9107  -28.5770   25.8485 C   0  0  0  0  0  0  0  0  0  0  0  0
  -28.1079  -15.4049   24.3384 C   0  0  0  0  0  0  0  0  0  0  0  0
  -28.4838  -28.5328   30.0220 C   0  0  0  0  0  0  0  0  0  0  0  0
  -28.4081  -17.4611   23.0053 C   0  0  0  0  0  0  0  0  0  0  0  0
  -25.7052  -21.0681   25.4425 C   0  0  0  0  0  0  0  0  0  1  0  0
  -31.8904  -27.2635   26.6134 C   0  0  1  0  0  0  0  0  0  0  0  0
  -30.9746  -28.7159   29.9930 C   0  0  2  0  0  0  0  0  0  0  0  0
  -33.3765  -27.1636   26.1673 C   0  0  0  0  0  0  0  0  0  0  0  0
  -25.8615  -11.5429   20.2864 N   0  0  0  0  0  0  0  0  0  0  0  0
  -26.2392  -12.8264   20.1592 N   0  0  0  0  0  0  0  0  0  0  0  0
  -29.9596  -26.9600   25.0955 N   0  0  0  0  0  0  0  0  0  0  0  0
  -29.9708  -13.6113   20.3651 N   0  0  0  0  0  0  0  0  0  0  0  0
  -25.4742  -15.0541   20.4096 N   0  0  0  0  0  0  0  0  0  0  0  0
  -29.2698  -18.8823   26.0594 N   0  0  0  0  0  0  0  0  0  0  0  0
  -21.8881  -12.5808   21.6009 N   0  0  0  0  0  0  0  0  0  0  0  0
  -30.0834  -15.6894   21.4748 N   0  0  0  0  0  0  0  0  0  0  0  0
  -29.2307  -26.9387   21.5227 N   0  0  0  0  0  0  0  0  0  0  0  0
  -31.6718  -28.1158   27.7771 N   0  0  0  0  0  0  0  0  0  0  0  0
  -27.7471  -16.8012   24.1297 N   0  0  0  0  0  0  0  0  0  0  0  0
  -29.4413  -20.4814   24.3922 N   0  3  0  0  0  0  0  0  0  0  0  0
  -29.7438  -28.5148   30.8088 N   0  3  0  0  0  0  0  0  0  0  0  0
  -22.6650  -14.7204   21.3228 O   0  0  0  0  0  0  0  0  0  0  0  0
  -26.2287  -16.8130   25.8887 O   0  0  0  0  0  0  0  0  0  0  0  0
  -30.7503  -25.8665   22.9241 O   0  0  0  0  0  0  0  0  0  0  0  0
  -31.2070  -28.9297   25.0696 O   0  0  0  0  0  0  0  0  0  0  0  0
  -30.6929  -26.4865   29.1054 O   0  0  0  0  0  0  0  0  0  0  0  0
  -31.8589  -14.9332   20.1874 O   0  0  0  0  0  0  0  0  0  0  0  0
  -21.6115   -7.0177   21.7037 O   0  0  0  0  0  0  0  0  0  0  0  0
  -26.6072  -21.8957   26.1757 O   0  0  0  0  0  0  0  0  0  1  0  0
  -18.6220   -6.8565   26.3342 F   0  0  0  0  0  0  0  0  0  0  0  0
  -22.0613   -5.0720   23.6153 F   0  0  0  0  0  0  0  0  0  0  0  0
  1  2  1  0  0  0  0
  1  7  2  0  0  0  0
  2  8  2  0  0  0  0
  3  6  2  0  0  0  0
  3 10  1  0  0  0  0
  4 11  2  0  0  0  0
  4 18  1  0  0  0  0
  5 12  1  0  0  0  0
  5 18  2  0  0  0  0
  6 19  1  0  0  0  0
  7 21  1  0  0  0  0
  8 23  1  0  0  0  0
  9 13  2  0  0  0  0
  9 22  1  0  0  0  0
 10 26  2  0  0  0  0
 11 27  1  0  0  0  0
 12 27  2  0  0  0  0
 13 28  1  0  0  0  0
 14 15  2  0  0  0  0
 14 29  1  0  0  0  0
 15 30  1  0  0  0  0
 16 24  1  0  0  0  0
 16 28  2  0  0  0  0
 17 30  2  0  0  0  0
 17 31  1  0  0  0  0
 18 32  1  0  0  0  0
 19 25  2  0  0  0  0
 19 36  1  0  0  0  0
 20 32  1  0  0  0  0
 20 33  2  0  0  0  0
 20 37  1  0  0  0  0
 21 23  2  0  0  0  0
 21 43  1  0  0  0  0
 22 24  2  0  0  0  0
 22 44  1  0  0  0  0
 23 52  1  0  0  0  0
 24 45  1  0  0  0  0
 25 26  1  0  0  0  0
 25 61  1  0  0  0  0
 26 73  1  0  0  0  0
 27 85  1  0  0  0  0
 28 86  1  0  0  0  0
 29 31  2  0  0  0  0
 29 85  1  0  0  0  0
 30 87  1  0  0  0  0
 31 88  1  0  0  0  0
 32 66  2  0  0  0  0
 33 67  1  0  0  0  0
 33 70  1  0  0  0  0
 34 35  2  0  0  0  0
 34 38  1  0  0  0  0
 35 62  1  0  0  0  0
 36 71  1  0  0  0  0
 36 77  2  0  0  0  0
 37 72  1  0  0  0  0
 37 79  2  0  0  0  0
 38 76  1  0  0  0  0
 38 80  2  0  0  0  0
 39 53  1  0  0  0  0
 39 74  1  0  0  0  0
 39 81  2  0  0  0  0
 40 63  1  0  0  0  0
 40 68  1  0  0  0  0
 40 82  2  0  0  0  0
 41 64  1  0  0  0  0
 41 75  1  0  0  0  0
 41 83  2  0  0  0  0
 42 69  1  0  0  0  0
 42 73  1  0  0  0  0
 42 84  2  0  0  0  0
 43 46  1  0  0  0  0
 44 53  1  0  0  0  0
 45 68  1  0  0  0  0
 46 48  1  0  0  0  0
 47 49  1  0  0  0  0
 47 50  1  0  0  0  0
 48 52  1  0  0  0  0
 49 54  1  0  0  0  0
 50 69  1  0  0  0  0
 51 54  1  0  0  0  0
 51 69  1  0  0  0  0
 52 74  1  0  0  0  0
 53 68  1  0  0  0  0
 54 67  1  0  0  0  0
 55 64  1  0  0  0  0
 56 65  1  0  0  0  0
 57 65  1  0  0  0  0
 58 65  1  0  0  0  0
 59 76  1  0  0  0  0
 60 78  1  0  0  0  0
 61 76  1  0  0  0  0
 62 86  1  0  0  0  0
 63 65  1  0  0  0  0
 63 75  1  0  0  0  0
 64 78  1  0  0  0  0
 66 67  1  0  0  0  0
M  CHG  2  77   1  78   1
M  ISO  4  42 100  62 101  73 100  86 101
M  END
> <Batch ID>
0057

> <Smiles>
CNC(C)C(=O)NC(C(=O)N1Cc2cc([101O:1][101CH2:1]C=CC(=O)N(C)Cc3c([100NH:0][100C:0](=O)N4CCCC(n5nc(-c6ccc(Oc7ccc(F)cc7F)cc6)c(C(N)=O)c5N)C4)cccc3C(=N)N)ccc2CC1C(=O)NC1CCCc2ccccc21)C(C)(C)C

> <Shape>
0.205

> <Color>
0.184

> <Negative vol penalty>
0.000

$$$$

  -OEChem-04042322553D

 86 95  0     1  0  0  0  0  0999 V2000
  -23.8857   -7.9083   21.4738 C   0  0  0  0  0  0  0  0  0  0  0  0
  -24.4938   -8.9832   20.8332 C   0  0  0  0  0  0  0  0  0  0  0  0
  -26.0724  -33.3378   22.9022 C   0  0  0  0  0  0  0  0  0  0  0  0
  -24.6701  -31.9354   24.2819 C   0  0  0  0  0  0  0  0  0  0  0  0
  -22.5856   -8.0337   21.9615 C   0  0  0  0  0  0  0  0  0  0  0  0
  -23.8016  -10.1838   20.6790 C   0  0  0  0  0  0  0  0  0  0  0  0
  -26.6450  -14.2229   21.7950 C   0  0  0  0  0  0  0  0  0  0  0  0
  -31.1037  -23.6084   18.6886 C   0  0  0  0  0  0  0  0  0  0  0  0
  -29.9974  -24.3460   19.1103 C   0  0  0  0  0  0  0  0  0  0  0  0
  -26.3998  -34.1082   24.0179 C   0  0  0  0  0  0  0  0  0  0  0  0
  -24.9975  -32.7058   25.3977 C   0  0  0  0  0  0  0  0  0  0  0  0
  -27.5656  -14.6386   20.8341 C   0  0  0  0  0  0  0  0  0  0  0  0
  -27.3211  -36.6617   26.4375 C   0  0  0  0  0  0  0  0  0  0  0  0
  -27.3008  -38.0494   26.2979 C   0  0  0  0  0  0  0  0  0  0  0  0
  -26.0399  -16.3692   20.1298 C   0  0  0  0  0  0  0  0  0  0  0  0
  -28.5859  -22.4114   18.7911 C   0  0  0  0  0  0  0  0  0  0  0  0
  -24.9584  -37.9562   25.7132 C   0  0  0  0  0  0  0  0  0  0  0  0
  -25.2075  -32.2514   23.0342 C   0  0  0  0  0  0  0  0  0  0  0  0
  -24.2363  -31.8931   20.7026 C   0  0  0  0  0  0  0  0  0  0  0  0
  -21.8806   -9.2395   21.8218 C   0  0  0  0  0  0  0  0  0  0  0  0
  -25.4084  -14.8714   21.9235 C   0  0  0  0  0  0  0  0  0  0  0  0
  -22.4903  -10.3250   21.1641 C   0  0  0  0  0  0  0  0  0  0  0  0
  -25.1064  -15.9615   21.0948 C   0  0  0  0  0  0  0  0  0  0  0  0
  -30.9510  -22.2723   18.3181 C   0  0  0  0  0  0  0  0  0  0  0  0
  -29.6921  -21.6738   18.3694 C   0  0  0  0  0  0  0  0  0  0  0  0
  -28.7386  -23.7475   19.1616 C   0  0  0  0  0  0  0  0  0  0  0  0
  -25.8623  -33.7922   25.2656 C   0  0  0  0  0  0  0  0  0  0  0  0
  -27.2620  -15.7101   19.9993 C   0  0  0  0  0  0  0  0  0  0  0  0
  -26.1601  -35.9212   26.2149 C   0  0  0  0  0  0  0  0  0  0  0  0
  -26.1195  -38.6967   25.9358 C   0  0  0  0  0  0  0  0  0  0  0  0
  -24.9788  -36.5685   25.8528 C   0  0  0  0  0  0  0  0  0  0  0  0
  -24.8685  -31.4555   21.8819 C   0  0  0  0  0  0  0  0  0  0  0  0
  -24.1422  -30.7651   19.9247 C   0  0  0  0  0  0  0  0  0  0  0  0
  -30.1941  -19.2622   18.6662 C   0  0  0  0  0  0  0  0  0  0  0  0
  -23.7753  -33.2021   20.3427 C   0  0  0  0  0  0  0  0  0  0  0  0
  -22.3705  -13.9914   21.6066 C   0  0  0  0  0  0  0  0  0  0  0  0
  -21.7939  -16.9874   22.7084 C   0  0  0  0  0  0  0  0  0  0  0  0
  -22.9016  -20.1907   23.1075 C   0  0  0  0  0  0  0  0  0  0  0  0
  -27.5834  -25.8346   19.9946 C   0  0  0  0  0  0  0  0  0  0  0  0
  -20.4601   -9.3123   22.3233 C   0  0  0  0  0  0  0  0  0  0  0  0
  -24.4371  -14.4278   22.9829 C   0  0  0  0  0  0  0  0  0  0  0  0
  -23.8009  -16.7043   21.2059 C   0  0  0  0  0  0  0  0  0  0  0  0
  -30.2039  -17.8995   17.9953 C   0  0  0  0  0  0  0  0  0  0  0  0
  -19.9317  -10.7387   22.4515 C   0  0  0  0  0  0  0  0  0  0  0  0
  -23.9167  -26.0764   21.0996 C   0  0  0  0  0  0  0  0  0  0  0  0
  -20.2644  -11.5456   21.2005 C   0  0  0  0  0  0  0  0  0  0  0  0
  -23.5936  -27.4827   20.6001 C   0  0  0  0  0  0  0  0  0  0  0  0
  -28.5868  -18.6557   16.2995 C   0  0  0  0  0  0  0  0  0  0  0  0
  -25.0879  -25.4526   20.3511 C   0  0  0  0  0  0  0  0  0  0  0  0
  -28.4475  -19.9899   17.0160 C   0  0  0  0  0  0  0  0  0  0  0  0
  -26.1318  -27.6755   20.8256 C   0  0  0  0  0  0  0  0  0  0  0  0
  -21.7810  -11.6516   20.9995 C   0  0  1  0  0  0  0  0  0  0  0  0
  -22.9977  -14.8334   22.6814 C   0  0  1  0  0  0  0  0  0  0  0  0
  -28.9219  -17.5315   17.2669 C   0  0  2  0  0  0  0  0  0  0  0  0
  -24.8514  -28.3039   20.2538 C   0  0  2  0  0  0  0  0  0  0  0  0
  -32.1535  -21.5066   17.8703 C   0  0  0  0  0  0  0  0  0  0  0  0
  -22.1923  -22.4222   24.0101 C   0  0  0  0  0  0  0  0  0  0  0  0
  -20.0225  -17.4118   20.2606 C   0  0  0  0  0  0  0  0  0  0  0  0
  -20.1214  -19.8742   20.7025 C   0  0  0  0  0  0  0  0  0  0  0  0
  -19.1012  -18.3460   22.3897 C   0  0  0  0  0  0  0  0  0  0  0  0
  -25.1110  -20.2265   25.0763 C   0  0  0  0  0  0  0  0  0  0  0  0
  -27.7819  -17.2219   18.2387 C   0  0  0  0  0  0  0  0  0  1  0  0
  -21.6094  -18.3436   22.0716 C   0  0  1  0  0  0  0  0  0  0  0  0
  -22.9039  -21.1128   24.3133 C   0  0  2  0  0  0  0  0  0  0  0  0
  -20.2375  -18.4789   21.3524 C   0  0  0  0  0  0  0  0  0  0  0  0
  -25.1556  -30.1512   21.8596 N   0  0  0  0  0  0  0  0  0  0  0  0
  -24.7016  -29.7595   20.6568 N   0  0  0  0  0  0  0  0  0  0  0  0
  -29.5130  -20.2881   17.9887 N   0  0  0  0  0  0  0  0  0  0  0  0
  -22.8816  -16.2288   22.2530 N   0  0  0  0  0  0  0  0  0  0  0  0
  -26.2951  -26.2915   20.3658 N   0  0  0  0  0  0  0  0  0  0  0  0
  -23.6362  -30.5451   18.6926 N   0  0  0  0  0  0  0  0  0  0  0  0
  -22.4612  -33.5616   20.6714 N   0  0  0  0  0  0  0  0  0  0  0  0
  -27.6148  -24.4974   19.5902 N   0  0  0  0  0  0  0  0  0  0  0  0
  -22.3416  -12.6404   21.8953 N   0  0  0  0  0  0  0  0  0  0  0  0
  -21.8290  -19.3244   23.1290 N   0  0  0  0  0  0  0  0  0  0  0  0
  -24.3021  -21.4223   24.7260 N   0  3  0  0  0  0  0  0  0  0  0  0
  -30.8250  -19.3942   19.7185 O   0  0  0  0  0  0  0  0  0  0  0  0
  -24.5019  -34.0227   19.7325 O   0  0  0  0  0  0  0  0  0  0  0  0
  -21.9429  -14.5280   20.5912 O   0  0  0  0  0  0  0  0  0  0  0  0
  -21.0065  -16.6178   23.5830 O   0  0  0  0  0  0  0  0  0  0  0  0
  -23.7629  -20.2368   22.2319 O   0  0  0  0  0  0  0  0  0  0  0  0
  -28.5672  -26.5770   20.0234 O   0  0  0  0  0  0  0  0  0  0  0  0
  -26.1817  -34.5437   26.3546 O   0  0  0  0  0  0  0  0  0  0  0  0
  -28.1585  -16.1174   19.0601 O   0  0  0  0  0  0  0  0  0  1  0  0
  -26.0997  -40.0294   25.8033 F   0  0  0  0  0  0  0  0  0  0  0  0
  -23.8600  -35.8626   25.6387 F   0  0  0  0  0  0  0  0  0  0  0  0
  1  2  1  0  0  0  0
  1  5  2  0  0  0  0
  2  6  2  0  0  0  0
  3 10  2  0  0  0  0
  3 18  1  0  0  0  0
  4 11  1  0  0  0  0
  4 18  2  0  0  0  0
  5 20  1  0  0  0  0
  6 22  1  0  0  0  0
  7 12  2  0  0  0  0
  7 21  1  0  0  0  0
  8  9  2  0  0  0  0
  8 24  1  0  0  0  0
  9 26  1  0  0  0  0
 10 27  1  0  0  0  0
 11 27  2  0  0  0  0
 12 28  1  0  0  0  0
 13 14  2  0  0  0  0
 13 29  1  0  0  0  0
 14 30  1  0  0  0  0
 15 23  1  0  0  0  0
 15 28  2  0  0  0  0
 16 25  1  0  0  0  0
 16 26  2  0  0  0  0
 17 30  2  0  0  0  0
 17 31  1  0  0  0  0
 18 32  1  0  0  0  0
 19 32  1  0  0  0  0
 19 33  2  0  0  0  0
 19 35  1  0  0  0  0
 20 22  2  0  0  0  0
 20 40  1  0  0  0  0
 21 23  2  0  0  0  0
 21 41  1  0  0  0  0
 22 52  1  0  0  0  0
 23 42  1  0  0  0  0
 24 25  2  0  0  0  0
 24 56  1  0  0  0  0
 25 68  1  0  0  0  0
 26 73  1  0  0  0  0
 27 83  1  0  0  0  0
 28 84  1  0  0  0  0
 29 31  2  0  0  0  0
 29 83  1  0  0  0  0
 30 85  1  0  0  0  0
 31 86  1  0  0  0  0
 32 66  2  0  0  0  0
 33 67  1  0  0  0  0
 33 71  1  0  0  0  0
 34 43  1  0  0  0  0
 34 68  1  0  0  0  0
 34 77  2  0  0  0  0
 35 72  1  0  0  0  0
 35 78  2  0  0  0  0
 36 53  1  0  0  0  0
 36 74  1  0  0  0  0
 36 79  2  0  0  0  0
 37 63  1  0  0  0  0
 37 69  1  0  0  0  0
 37 80  2  0  0  0  0
 38 64  1  0  0  0  0
 38 75  1  0  0  0  0
 38 81  2  0  0  0  0
 39 70  1  0  0  0  0
 39 73  1  0  0  0  0
 39 82  2  0  0  0  0
 40 44  1  0  0  0  0
 41 53  1  0  0  0  0
 42 69  1  0  0  0  0
 43 54  1  0  0  0  0
 44 46  1  0  0  0  0
 45 47  1  0  0  0  0
 45 49  1  0  0  0  0
 46 52  1  0  0  0  0
 47 55  1  0  0  0  0
 48 50  1  0  0  0  0
 48 54  1  0  0  0  0
 49 70  1  0  0  0  0
 50 68  1  0  0  0  0
 51 55  1  0  0  0  0
 51 70  1  0  0  0  0
 52 74  1  0  0  0  0
 53 69  1  0  0  0  0
 54 62  1  0  0  0  0
 55 67  1  0  0  0  0
 57 64  1  0  0  0  0
 58 65  1  0  0  0  0
 59 65  1  0  0  0  0
 60 65  1  0  0  0  0
 61 76  1  0  0  0  0
 62 84  1  0  0  0  0
 63 65  1  0  0  0  0
 63 75  1  0  0  0  0
 64 76  1  0  0  0  0
 66 67  1  0  0  0  0
M  CHG  1  76   1
M  ISO  4  39 100  62 101  73 100  84 101
M  END
> <Batch ID>
0057

> <Smiles>
CNC(C)C(=O)NC(C(=O)N1Cc2cc([101O:1][101CH2:1]C3CCN(c4cc([100NH:0][100C:0](=O)N5CCCC(n6nc(-c7ccc(Oc8ccc(F)cc8F)cc7)c(C(N)=O)c6N)C5)ccc4C)C(=O)C3)ccc2CC1C(=O)NC1CCCc2ccccc21)C(C)(C)C

> <Shape>
0.219

> <Color>
0.085

> <Negative vol penalty>
0.000

$$$$

  -OEChem-04042322553D

 87 96  0     1  0  0  0  0  0999 V2000
  -21.1564  -20.3096   15.7124 C   0  0  0  0  0  0  0  0  0  0  0  0
  -21.7817  -20.4718   16.9445 C   0  0  0  0  0  0  0  0  0  0  0  0
  -23.0394   -9.8787   20.0725 C   0  0  0  0  0  0  0  0  0  0  0  0
  -23.7443  -10.0454   22.3774 C   0  0  0  0  0  0  0  0  0  0  0  0
  -20.8688  -21.4243   14.9257 C   0  0  0  0  0  0  0  0  0  0  0  0
  -22.1208  -21.7488   17.3902 C   0  0  0  0  0  0  0  0  0  0  0  0
  -20.9135  -22.4941   22.2514 C   0  0  0  0  0  0  0  0  0  0  0  0
  -22.2559   -8.7699   20.3923 C   0  0  0  0  0  0  0  0  0  0  0  0
  -22.9608   -8.9366   22.6972 C   0  0  0  0  0  0  0  0  0  0  0  0
  -21.7621  -21.9420   23.2101 C   0  0  0  0  0  0  0  0  0  0  0  0
  -19.6969   -8.2785   23.2758 C   0  0  0  0  0  0  0  0  0  0  0  0
  -18.9115   -8.3520   24.4261 C   0  0  0  0  0  0  0  0  0  0  0  0
  -22.8017  -24.0963   23.5218 C   0  0  0  0  0  0  0  0  0  0  0  0
  -29.5342  -18.8780   21.7765 C   0  0  0  0  0  0  0  0  0  0  0  0
  -28.9888  -18.4803   24.4834 C   0  0  0  0  0  0  0  0  0  0  0  0
  -20.0770   -6.4450   25.3438 C   0  0  0  0  0  0  0  0  0  0  0  0
  -23.7837  -10.5165   21.0651 C   0  0  0  0  0  0  0  0  0  0  0  0
  -24.2030  -13.0139   20.7571 C   0  0  0  0  0  0  0  0  0  0  0  0
  -21.1959  -22.7164   15.3663 C   0  0  0  0  0  0  0  0  0  0  0  0
  -21.0102  -23.8513   21.9124 C   0  0  0  0  0  0  0  0  0  0  0  0
  -21.8386  -22.8817   16.6081 C   0  0  0  0  0  0  0  0  0  0  0  0
  -21.9515  -24.6638   22.5604 C   0  0  0  0  0  0  0  0  0  0  0  0
  -30.0689  -17.7743   22.4408 C   0  0  0  0  0  0  0  0  0  0  0  0
  -28.7268  -19.7830   22.4656 C   0  0  0  0  0  0  0  0  0  0  0  0
  -29.7962  -17.5754   23.7942 C   0  0  0  0  0  0  0  0  0  0  0  0
  -28.4541  -19.5841   23.8190 C   0  0  0  0  0  0  0  0  0  0  0  0
  -22.2166   -8.2989   21.7046 C   0  0  0  0  0  0  0  0  0  0  0  0
  -22.7083  -22.7425   23.8434 C   0  0  0  0  0  0  0  0  0  0  0  0
  -20.6724   -7.2882   23.1594 C   0  0  0  0  0  0  0  0  0  0  0  0
  -19.1015   -7.4353   25.4601 C   0  0  0  0  0  0  0  0  0  0  0  0
  -20.8624   -6.3715   24.1934 C   0  0  0  0  0  0  0  0  0  0  0  0
  -24.5936  -11.6616   20.7352 C   0  0  0  0  0  0  0  0  0  0  0  0
  -25.3252  -13.7018   20.3650 C   0  0  0  0  0  0  0  0  0  0  0  0
  -26.2864  -20.8224   24.2625 C   0  0  0  0  0  0  0  0  0  0  0  0
  -22.9388  -13.5961   21.1012 C   0  0  0  0  0  0  0  0  0  0  0  0
  -21.6895  -25.4564   19.2542 C   0  0  0  0  0  0  0  0  0  0  0  0
  -20.9048  -28.0271   21.0702 C   0  0  0  0  0  0  0  0  0  0  0  0
  -20.5901  -29.3867   24.1846 C   0  0  0  0  0  0  0  0  0  0  0  0
  -30.8308  -14.5803   20.6161 C   0  0  0  0  0  0  0  0  0  0  0  0
  -20.9079  -23.8870   14.4600 C   0  0  0  0  0  0  0  0  0  0  0  0
  -20.0696  -24.4375   20.8955 C   0  0  0  0  0  0  0  0  0  0  0  0
  -22.0821  -26.1311   22.2470 C   0  0  0  0  0  0  0  0  0  0  0  0
  -20.9617  -25.2362   15.1721 C   0  0  0  0  0  0  0  0  0  0  0  0
  -29.6801  -12.0475   18.3941 C   0  0  0  0  0  0  0  0  0  0  0  0
  -22.2089  -25.3296   16.0454 C   0  0  0  0  0  0  0  0  0  0  0  0
  -28.2247  -11.8287   18.8110 C   0  0  0  0  0  0  0  0  0  0  0  0
  -27.1066  -22.3132   25.9266 C   0  0  0  0  0  0  0  0  0  0  0  0
  -30.5745  -12.3368   19.5975 C   0  0  0  0  0  0  0  0  0  0  0  0
  -28.0992  -21.1847   25.7309 C   0  0  0  0  0  0  0  0  0  0  0  0
  -28.6628  -13.2273   20.8727 C   0  0  0  0  0  0  0  0  0  0  0  0
  -22.1997  -24.2528   17.1371 C   0  0  1  0  0  0  0  0  0  0  0  0
  -25.8094  -21.7320   25.3833 C   0  0  1  0  0  0  0  0  0  0  0  0
  -20.6016  -25.7170   20.2573 C   0  0  1  0  0  0  0  0  0  0  0  0
  -27.7122  -12.9875   19.6873 C   0  0  2  0  0  0  0  0  0  0  0  0
  -28.1674  -20.9565   21.7287 C   0  0  0  0  0  0  0  0  0  0  0  0
  -30.3578  -16.4010   24.5264 C   0  0  0  0  0  0  0  0  0  0  0  0
  -19.9645  -31.5200   25.3487 C   0  0  0  0  0  0  0  0  0  0  0  0
  -23.6040  -29.2303   20.3106 C   0  0  0  0  0  0  0  0  0  0  0  0
  -23.3355  -30.8499   22.2008 C   0  0  0  0  0  0  0  0  0  0  0  0
  -21.7021  -30.8543   20.3154 C   0  0  0  0  0  0  0  0  0  0  0  0
  -18.3356  -28.0906   25.5975 C   0  0  0  0  0  0  0  0  0  0  0  0
  -30.9309  -16.8190   21.6825 C   0  0  0  0  0  0  0  0  0  0  0  0
  -24.8322  -22.7926   24.9122 C   0  0  0  0  0  0  0  0  0  1  0  0
  -21.6598  -28.9585   21.9876 C   0  0  1  0  0  0  0  0  0  0  0  0
  -19.4675  -30.1802   24.8285 C   0  0  2  0  0  0  0  0  0  0  0  0
  -22.5745  -29.9452   21.2084 C   0  0  0  0  0  0  0  0  0  0  0  0
  -25.8647  -11.4981   20.3588 N   0  0  0  0  0  0  0  0  0  0  0  0
  -26.2825  -12.7566   20.1405 N   0  0  0  0  0  0  0  0  0  0  0  0
  -27.6302  -20.4986   24.5414 N   0  0  0  0  0  0  0  0  0  0  0  0
  -21.1440  -26.6562   21.2411 N   0  0  0  0  0  0  0  0  0  0  0  0
  -30.0338  -13.4468   20.3858 N   0  0  0  0  0  0  0  0  0  0  0  0
  -25.5767  -15.0171   20.1937 N   0  0  0  0  0  0  0  0  0  0  0  0
  -21.8926  -12.7447   21.4819 N   0  0  0  0  0  0  0  0  0  0  0  0
  -21.3089  -24.6314   18.2130 N   0  0  0  0  0  0  0  0  0  0  0  0
  -20.6572  -29.6078   22.8252 N   0  0  0  0  0  0  0  0  0  0  0  0
  -30.2395  -15.5888   21.3671 N   0  0  0  0  0  0  0  0  0  0  0  0
  -18.8844  -29.4199   25.9700 N   0  3  0  0  0  0  0  0  0  0  0  0
  -25.5598  -20.4369   23.3581 O   0  0  0  0  0  0  0  0  0  0  0  0
  -22.7378  -14.8335   21.0560 O   0  0  0  0  0  0  0  0  0  0  0  0
  -22.7921  -25.9672   19.4123 O   0  0  0  0  0  0  0  0  0  0  0  0
  -20.1261  -28.4983   20.2376 O   0  0  0  0  0  0  0  0  0  0  0  0
  -21.3354  -28.6478   24.8241 O   0  0  0  0  0  0  0  0  0  0  0  0
  -31.9819  -14.6879   20.1799 O   0  0  0  0  0  0  0  0  0  0  0  0
  -21.4520   -7.2171   22.0171 O   0  0  0  0  0  0  0  0  0  0  0  0
  -23.5382  -22.2060   24.7790 O   0  0  0  0  0  0  0  0  0  1  0  0
  -18.3482   -7.5069   26.5653 F   0  0  0  0  0  0  0  0  0  0  0  0
  -21.7988   -5.4187   24.0879 F   0  0  0  0  0  0  0  0  0  0  0  0
  1  2  1  0  0  0  0
  1  5  2  0  0  0  0
  2  6  2  0  0  0  0
  3  8  2  0  0  0  0
  3 17  1  0  0  0  0
  4  9  1  0  0  0  0
  4 17  2  0  0  0  0
  5 19  1  0  0  0  0
  6 21  1  0  0  0  0
  7 10  2  0  0  0  0
  7 20  1  0  0  0  0
  8 27  1  0  0  0  0
  9 27  2  0  0  0  0
 10 28  1  0  0  0  0
 11 12  2  0  0  0  0
 11 29  1  0  0  0  0
 12 30  1  0  0  0  0
 13 22  1  0  0  0  0
 13 28  2  0  0  0  0
 14 23  2  0  0  0  0
 14 24  1  0  0  0  0
 15 25  2  0  0  0  0
 15 26  1  0  0  0  0
 16 30  2  0  0  0  0
 16 31  1  0  0  0  0
 17 32  1  0  0  0  0
 18 32  1  0  0  0  0
 18 33  2  0  0  0  0
 18 35  1  0  0  0  0
 19 21  2  0  0  0  0
 19 40  1  0  0  0  0
 20 22  2  0  0  0  0
 20 41  1  0  0  0  0
 21 51  1  0  0  0  0
 22 42  1  0  0  0  0
 23 25  1  0  0  0  0
 23 62  1  0  0  0  0
 24 26  2  0  0  0  0
 24 55  1  0  0  0  0
 25 56  1  0  0  0  0
 26 69  1  0  0  0  0
 27 84  1  0  0  0  0
 28 85  1  0  0  0  0
 29 31  2  0  0  0  0
 29 84  1  0  0  0  0
 30 86  1  0  0  0  0
 31 87  1  0  0  0  0
 32 67  2  0  0  0  0
 33 68  1  0  0  0  0
 33 72  1  0  0  0  0
 34 52  1  0  0  0  0
 34 69  1  0  0  0  0
 34 78  2  0  0  0  0
 35 73  1  0  0  0  0
 35 79  2  0  0  0  0
 36 53  1  0  0  0  0
 36 74  1  0  0  0  0
 36 80  2  0  0  0  0
 37 64  1  0  0  0  0
 37 70  1  0  0  0  0
 37 81  2  0  0  0  0
 38 65  1  0  0  0  0
 38 75  1  0  0  0  0
 38 82  2  0  0  0  0
 39 71  1  0  0  0  0
 39 76  1  0  0  0  0
 39 83  2  0  0  0  0
 40 43  1  0  0  0  0
 41 53  1  0  0  0  0
 42 70  1  0  0  0  0
 43 45  1  0  0  0  0
 44 46  1  0  0  0  0
 44 48  1  0  0  0  0
 45 51  1  0  0  0  0
 46 54  1  0  0  0  0
 47 49  1  0  0  0  0
 47 52  1  0  0  0  0
 48 71  1  0  0  0  0
 49 69  1  0  0  0  0
 50 54  1  0  0  0  0
 50 71  1  0  0  0  0
 51 74  1  0  0  0  0
 52 63  1  0  0  0  0
 53 70  1  0  0  0  0
 54 68  1  0  0  0  0
 57 65  1  0  0  0  0
 58 66  1  0  0  0  0
 59 66  1  0  0  0  0
 60 66  1  0  0  0  0
 61 77  1  0  0  0  0
 62 76  1  0  0  0  0
 63 85  1  0  0  0  0
 64 66  1  0  0  0  0
 64 75  1  0  0  0  0
 65 77  1  0  0  0  0
 67 68  1  0  0  0  0
M  CHG  1  77   1
M  ISO  4  39 100  63 101  76 100  85 101
M  END
> <Batch ID>
0057

> <Smiles>
CNC(C)C(=O)NC(C(=O)N1Cc2cc([101O:1][101CH2:1]C3CCN(c4cc(C)c(C[100NH:0][100C:0](=O)N5CCCC(n6nc(-c7ccc(Oc8ccc(F)cc8F)cc7)c(C(N)=O)c6N)C5)cc4C)C3=O)ccc2CC1C(=O)NC1CCCc2ccccc21)C(C)(C)C

> <Shape>
0.243

> <Color>
0.191

> <Negative vol penalty>
0.000

$$$$

  -OEChem-04042322553D

 90 99  0     1  0  0  0  0  0999 V2000
  -16.4467  -28.6687   24.5312 C   0  0  0  0  0  0  0  0  0  0  0  0
  -17.3250  -27.8441   23.8355 C   0  0  0  0  0  0  0  0  0  0  0  0
  -26.8561  -12.3692   21.7072 C   0  0  0  0  0  0  0  0  0  0  0  0
  -26.0560  -14.1360   20.2665 C   0  0  0  0  0  0  0  0  0  0  0  0
  -16.5451  -30.0537   24.4055 C   0  0  0  0  0  0  0  0  0  0  0  0
  -18.3016  -28.4042   23.0126 C   0  0  0  0  0  0  0  0  0  0  0  0
  -23.9529  -26.2621   22.0229 C   0  0  0  0  0  0  0  0  0  0  0  0
  -25.5660  -11.8438   21.7793 C   0  0  0  0  0  0  0  0  0  0  0  0
  -24.7659  -13.6105   20.3385 C   0  0  0  0  0  0  0  0  0  0  0  0
  -24.5003  -25.5015   20.9906 C   0  0  0  0  0  0  0  0  0  0  0  0
  -23.5326   -9.9581   19.8447 C   0  0  0  0  0  0  0  0  0  0  0  0
  -23.3852   -8.5790   19.6973 C   0  0  0  0  0  0  0  0  0  0  0  0
  -25.2747  -27.5206   19.9216 C   0  0  0  0  0  0  0  0  0  0  0  0
  -31.5865  -23.8169   20.9522 C   0  0  0  0  0  0  0  0  0  0  0  0
  -30.0491  -22.9705   19.2919 C   0  0  0  0  0  0  0  0  0  0  0  0
  -22.4037   -8.4483   21.9011 C   0  0  0  0  0  0  0  0  0  0  0  0
  -27.1011  -13.5153   20.9508 C   0  0  0  0  0  0  0  0  0  0  0  0
  -29.5875  -13.4169   20.3887 C   0  0  0  0  0  0  0  0  0  0  0  0
  -17.5295  -30.6313   23.5882 C   0  0  0  0  0  0  0  0  0  0  0  0
  -24.0530  -27.6607   22.0067 C   0  0  0  0  0  0  0  0  0  0  0  0
  -18.4124  -29.7983   22.8748 C   0  0  0  0  0  0  0  0  0  0  0  0
  -24.7300  -28.2965   20.9562 C   0  0  0  0  0  0  0  0  0  0  0  0
  -31.5668  -25.0667   20.3334 C   0  0  0  0  0  0  0  0  0  0  0  0
  -30.7882  -25.2685   19.1938 C   0  0  0  0  0  0  0  0  0  0  0  0
  -30.0293  -24.2204   18.6730 C   0  0  0  0  0  0  0  0  0  0  0  0
  -30.8277  -22.7687   20.4314 C   0  0  0  0  0  0  0  0  0  0  0  0
  -24.5209  -12.4644   21.0950 C   0  0  0  0  0  0  0  0  0  0  0  0
  -25.1588  -26.1309   19.9383 C   0  0  0  0  0  0  0  0  0  0  0  0
  -23.1157  -10.5824   21.0204 C   0  0  0  0  0  0  0  0  0  0  0  0
  -22.8207   -7.8241   20.7254 C   0  0  0  0  0  0  0  0  0  0  0  0
  -22.5512   -9.8275   22.0485 C   0  0  0  0  0  0  0  0  0  0  0  0
  -28.4334  -14.0589   20.8764 C   0  0  0  0  0  0  0  0  0  0  0  0
  -30.5857  -14.3492   20.5324 C   0  0  0  0  0  0  0  0  0  0  0  0
  -29.7843  -24.7906   16.2652 C   0  0  0  0  0  0  0  0  0  0  0  0
  -29.7431  -12.0959   19.8535 C   0  0  0  0  0  0  0  0  0  0  0  0
  -21.9680  -30.0577   21.9036 C   0  0  0  0  0  0  0  0  0  0  0  0
  -24.6260  -31.8723   22.3093 C   0  0  0  0  0  0  0  0  0  0  0  0
  -28.0097  -32.1689   21.9787 C   0  0  0  0  0  0  0  0  0  0  0  0
  -30.1570  -20.3451   20.6786 C   0  0  0  0  0  0  0  0  0  0  0  0
  -17.5667  -32.1324   23.4469 C   0  0  0  0  0  0  0  0  0  0  0  0
  -23.4805  -28.4652   23.1414 C   0  0  0  0  0  0  0  0  0  0  0  0
  -24.8825  -29.7939   20.9023 C   0  0  0  0  0  0  0  0  0  0  0  0
  -28.7575  -25.0107   15.1706 C   0  0  0  0  0  0  0  0  0  0  0  0
  -18.8694  -32.6557   22.8473 C   0  0  0  0  0  0  0  0  0  0  0  0
  -27.6024  -25.8302   15.7169 C   0  0  0  0  0  0  0  0  0  0  0  0
  -31.0899  -18.0500   23.6089 C   0  0  0  0  0  0  0  0  0  0  0  0
  -19.2594  -31.8369   21.6209 C   0  0  0  0  0  0  0  0  0  0  0  0
  -31.2592  -16.7329   22.8553 C   0  0  0  0  0  0  0  0  0  0  0  0
  -31.2670  -19.2612   22.7019 C   0  0  0  0  0  0  0  0  0  0  0  0
  -27.7974  -24.0443   17.5326 C   0  0  0  0  0  0  0  0  0  0  0  0
  -29.7111  -17.9625   21.2360 C   0  0  0  0  0  0  0  0  0  0  0  0
  -19.5009  -30.3687   21.9918 C   0  0  1  0  0  0  0  0  0  0  0  0
  -23.1935  -29.9144   22.7611 C   0  0  1  0  0  0  0  0  0  0  0  0
  -26.8945  -25.0970   16.8628 C   0  0  1  0  0  0  0  0  0  0  0  0
  -30.6551  -16.7668   21.4374 C   0  0  2  0  0  0  0  0  0  0  0  0
  -30.7705  -26.6119   18.5338 C   0  0  0  0  0  0  0  0  0  0  0  0
  -29.8924  -33.7833   22.3616 C   0  0  0  0  0  0  0  0  0  0  0  0
  -23.7797  -33.4426   19.8338 C   0  0  0  0  0  0  0  0  0  0  0  0
  -26.1022  -34.3699   19.7136 C   0  0  0  0  0  0  0  0  0  0  0  0
  -24.6734  -34.8436   21.7028 C   0  0  0  0  0  0  0  0  0  0  0  0
  -29.3455  -30.3392   23.8831 C   0  0  0  0  0  0  0  0  0  0  0  0
  -26.3543  -26.1011   17.8826 C   0  0  0  0  0  0  0  0  0  1  0  0
  -25.6270  -32.5236   21.3859 C   0  0  1  0  0  0  0  0  0  0  0  0
  -29.0790  -32.6399   22.9478 C   0  0  2  0  0  0  0  0  0  0  0  0
  -32.3882  -26.1726   20.9117 C   0  0  0  0  0  0  0  0  0  0  0  0
  -25.0412  -33.7668   20.6588 C   0  0  0  0  0  0  0  0  0  0  0  0
  -28.6749  -15.3029   21.2985 N   0  0  0  0  0  0  0  0  0  0  0  0
  -29.9922  -15.4500   21.0766 N   0  0  0  0  0  0  0  0  0  0  0  0
  -29.2203  -24.4060   17.4983 N   0  0  0  0  0  0  0  0  0  0  0  0
  -24.3001  -30.5372   22.0318 N   0  0  0  0  0  0  0  0  0  0  0  0
  -30.3925  -19.2307   21.5205 N   0  0  0  0  0  0  0  0  0  0  0  0
  -31.9046  -14.3266   20.2453 N   0  0  0  0  0  0  0  0  0  0  0  0
  -29.5773  -11.9099   18.4743 N   0  0  0  0  0  0  0  0  0  0  0  0
  -30.8484  -21.4982   21.0595 N   0  0  0  0  0  0  0  0  0  0  0  0
  -20.7958  -30.2123   22.6189 N   0  0  0  0  0  0  0  0  0  0  0  0
  -26.8066  -32.8063   22.1966 N   0  0  0  0  0  0  0  0  0  0  0  0
  -30.0085  -31.5223   23.2767 N   0  3  0  0  0  0  0  0  0  0  0  0
  -30.9826  -24.8997   16.0072 O   0  0  0  0  0  0  0  0  0  0  0  0
  -30.0049  -11.1068   20.5793 O   0  0  0  0  0  0  0  0  0  0  0  0
  -22.0779  -30.0315   20.6834 O   0  0  0  0  0  0  0  0  0  0  0  0
  -24.1561  -32.5220   23.2467 O   0  0  0  0  0  0  0  0  0  0  0  0
  -28.2216  -31.3232   21.1125 O   0  0  0  0  0  0  0  0  0  0  0  0
  -29.4140  -20.2704   19.6977 O   0  0  0  0  0  0  0  0  0  0  0  0
  -23.2620  -11.9519   21.1649 O   0  0  0  0  0  0  0  0  0  0  0  0
  -25.6934  -25.3909   18.9291 O   0  0  0  0  0  0  0  0  0  1  0  0
  -22.6778   -6.4999   20.5831 F   0  0  0  0  0  0  0  0  0  0  0  0
  -22.1476  -10.4218   23.1798 F   0  0  0  0  0  0  0  0  0  0  0  0
  -33.0884  -25.8065   22.0248 F   0  0  0  0  0  0  0  0  0  0  0  0
  -33.3221  -26.6661   20.0473 F   0  0  0  0  0  0  0  0  0  0  0  0
  -31.6320  -27.2435   21.2880 F   0  0  0  0  0  0  0  0  0  0  0  0
  1  2  1  0  0  0  0
  1  5  2  0  0  0  0
  2  6  2  0  0  0  0
  3  8  2  0  0  0  0
  3 17  1  0  0  0  0
  4  9  1  0  0  0  0
  4 17  2  0  0  0  0
  5 19  1  0  0  0  0
  6 21  1  0  0  0  0
  7 10  2  0  0  0  0
  7 20  1  0  0  0  0
  8 27  1  0  0  0  0
  9 27  2  0  0  0  0
 10 28  1  0  0  0  0
 11 12  2  0  0  0  0
 11 29  1  0  0  0  0
 12 30  1  0  0  0  0
 13 22  1  0  0  0  0
 13 28  2  0  0  0  0
 14 23  2  0  0  0  0
 14 26  1  0  0  0  0
 15 25  1  0  0  0  0
 15 26  2  0  0  0  0
 16 30  2  0  0  0  0
 16 31  1  0  0  0  0
 17 32  1  0  0  0  0
 18 32  1  0  0  0  0
 18 33  2  0  0  0  0
 18 35  1  0  0  0  0
 19 21  2  0  0  0  0
 19 40  1  0  0  0  0
 20 22  2  0  0  0  0
 20 41  1  0  0  0  0
 21 52  1  0  0  0  0
 22 42  1  0  0  0  0
 23 24  1  0  0  0  0
 23 65  1  0  0  0  0
 24 25  2  0  0  0  0
 24 56  1  0  0  0  0
 25 69  1  0  0  0  0
 26 74  1  0  0  0  0
 27 84  1  0  0  0  0
 28 85  1  0  0  0  0
 29 31  2  0  0  0  0
 29 84  1  0  0  0  0
 30 86  1  0  0  0  0
 31 87  1  0  0  0  0
 32 67  2  0  0  0  0
 33 68  1  0  0  0  0
 33 72  1  0  0  0  0
 34 43  1  0  0  0  0
 34 69  1  0  0  0  0
 34 78  2  0  0  0  0
 35 73  1  0  0  0  0
 35 79  2  0  0  0  0
 36 53  1  0  0  0  0
 36 75  1  0  0  0  0
 36 80  2  0  0  0  0
 37 63  1  0  0  0  0
 37 70  1  0  0  0  0
 37 81  2  0  0  0  0
 38 64  1  0  0  0  0
 38 76  1  0  0  0  0
 38 82  2  0  0  0  0
 39 71  1  0  0  0  0
 39 74  1  0  0  0  0
 39 83  2  0  0  0  0
 40 44  1  0  0  0  0
 41 53  1  0  0  0  0
 42 70  1  0  0  0  0
 43 45  1  0  0  0  0
 44 47  1  0  0  0  0
 45 54  1  0  0  0  0
 46 48  1  0  0  0  0
 46 49  1  0  0  0  0
 47 52  1  0  0  0  0
 48 55  1  0  0  0  0
 49 71  1  0  0  0  0
 50 54  1  0  0  0  0
 50 69  1  0  0  0  0
 51 55  1  0  0  0  0
 51 71  1  0  0  0  0
 52 75  1  0  0  0  0
 53 70  1  0  0  0  0
 54 62  1  0  0  0  0
 55 68  1  0  0  0  0
 57 64  1  0  0  0  0
 58 66  1  0  0  0  0
 59 66  1  0  0  0  0
 60 66  1  0  0  0  0
 61 77  1  0  0  0  0
 62 85  1  0  0  0  0
 63 66  1  0  0  0  0
 63 76  1  0  0  0  0
 64 77  1  0  0  0  0
 65 88  1  0  0  0  0
 65 89  1  0  0  0  0
 65 90  1  0  0  0  0
 67 68  1  0  0  0  0
M  CHG  1  77   1
M  ISO  4  39 100  62 101  74 100  85 101
M  END
> <Batch ID>
0057

> <Smiles>
CNC(C)C(=O)NC(C(=O)N1Cc2cc([101O:1][101CH2:1]C3CCC(=O)N(c4cc([100NH:0][100C:0](=O)N5CCCC(n6nc(-c7ccc(Oc8ccc(F)cc8F)cc7)c(C(N)=O)c6N)C5)cc(C(F)(F)F)c4C)C3)ccc2CC1C(=O)NC1CCCc2ccccc21)C(C)(C)C

> <Shape>
0.320

> <Color>
0.095

> <Negative vol penalty>
0.000

$$$$

  -OEChem-04042322553D

 85 93  0     1  0  0  0  0  0999 V2000
  -32.2360  -14.5461   21.2673 C   0  0  0  0  0  0  0  0  0  0  0  0
  -31.3379  -15.5843   21.4933 C   0  0  0  0  0  0  0  0  0  0  0  0
  -21.5332  -29.7531   26.9537 C   0  0  0  0  0  0  0  0  0  0  0  0
  -27.8016  -24.7480   18.5677 C   0  0  0  0  0  0  0  0  0  0  0  0
  -25.9903  -23.7192   19.7915 C   0  0  0  0  0  0  0  0  0  0  0  0
  -31.8125  -13.3894   20.6142 C   0  0  0  0  0  0  0  0  0  0  0  0
  -30.0160  -15.4667   21.0654 C   0  0  0  0  0  0  0  0  0  0  0  0
  -25.0350  -17.6991   23.8424 C   0  0  0  0  0  0  0  0  0  0  0  0
  -20.7148  -28.6295   27.0687 C   0  0  0  0  0  0  0  0  0  0  0  0
  -22.1849  -30.0211   25.7498 C   0  0  0  0  0  0  0  0  0  0  0  0
  -28.5781  -23.6047   18.7556 C   0  0  0  0  0  0  0  0  0  0  0  0
  -26.7668  -22.5758   19.9795 C   0  0  0  0  0  0  0  0  0  0  0  0
  -24.2776  -18.8497   23.6275 C   0  0  0  0  0  0  0  0  0  0  0  0
  -29.2910  -21.5825   21.9976 C   0  0  0  0  0  0  0  0  0  0  0  0
  -29.3109  -21.0149   23.2715 C   0  0  0  0  0  0  0  0  0  0  0  0
  -22.7335  -17.5747   22.2824 C   0  0  0  0  0  0  0  0  0  0  0  0
  -28.4218  -18.9578   22.3688 C   0  0  0  0  0  0  0  0  0  0  0  0
  -26.5077  -24.8053   19.0856 C   0  0  0  0  0  0  0  0  0  0  0  0
  -24.8302  -26.2538   17.8224 C   0  0  0  0  0  0  0  0  0  0  0  0
  -30.4823  -13.2536   20.1866 C   0  0  0  0  0  0  0  0  0  0  0  0
  -24.6527  -16.4779   23.2690 C   0  0  0  0  0  0  0  0  0  0  0  0
  -29.5746  -14.3077   20.4047 C   0  0  0  0  0  0  0  0  0  0  0  0
  -23.4864  -16.4096   22.4936 C   0  0  0  0  0  0  0  0  0  0  0  0
  -20.5481  -27.7738   25.9798 C   0  0  0  0  0  0  0  0  0  0  0  0
  -21.1997  -28.0417   24.7760 C   0  0  0  0  0  0  0  0  0  0  0  0
  -22.0181  -29.1654   24.6610 C   0  0  0  0  0  0  0  0  0  0  0  0
  -28.0607  -22.5185   19.4615 C   0  0  0  0  0  0  0  0  0  0  0  0
  -23.1282  -18.7883   22.8450 C   0  0  0  0  0  0  0  0  0  0  0  0
  -28.8364  -20.8378   20.9092 C   0  0  0  0  0  0  0  0  0  0  0  0
  -28.8763  -19.7025   23.4572 C   0  0  0  0  0  0  0  0  0  0  0  0
  -28.4019  -19.5255   21.0948 C   0  0  0  0  0  0  0  0  0  0  0  0
  -25.7053  -25.9864   18.8923 C   0  0  0  0  0  0  0  0  0  0  0  0
  -24.3138  -27.4951   18.1033 C   0  0  0  0  0  0  0  0  0  0  0  0
  -24.5126  -25.4518   16.6772 C   0  0  0  0  0  0  0  0  0  0  0  0
  -25.9666  -14.4695   21.1848 C   0  0  0  0  0  0  0  0  0  0  0  0
  -23.4063  -12.6261   21.9393 C   0  0  0  0  0  0  0  0  0  0  0  0
  -21.3620  -24.6996   23.1807 C   0  0  0  0  0  0  0  0  0  0  0  0
  -20.2087  -12.4518   23.1190 C   0  0  0  0  0  0  0  0  0  0  0  0
  -23.5327  -30.5366   23.1871 C   0  0  0  0  0  0  0  0  0  0  0  0
  -30.0828  -12.0039   19.4428 C   0  0  0  0  0  0  0  0  0  0  0  0
  -25.4658  -15.2402   23.5324 C   0  0  0  0  0  0  0  0  0  0  0  0
  -23.0217  -15.1187   21.8723 C   0  0  0  0  0  0  0  0  0  0  0  0
  -28.5720  -11.8045   19.3542 C   0  0  0  0  0  0  0  0  0  0  0  0
  -25.4033  -31.5846   20.3446 C   0  0  0  0  0  0  0  0  0  0  0  0
  -27.8855  -13.1027   18.9416 C   0  0  0  0  0  0  0  0  0  0  0  0
  -25.6081  -30.2933   19.5492 C   0  0  0  0  0  0  0  0  0  0  0  0
  -25.4681  -31.3391   21.8510 C   0  0  0  0  0  0  0  0  0  0  0  0
  -24.7804  -28.9925   21.5516 C   0  0  0  0  0  0  0  0  0  0  0  0
  -28.1263  -14.2075   19.9775 C   0  0  1  0  0  0  0  0  0  0  0  0
  -25.2652  -14.1575   22.4765 C   0  0  1  0  0  0  0  0  0  0  0  0
  -24.6589  -29.1785   20.0303 C   0  0  2  0  0  0  0  0  0  0  0  0
  -19.6661  -26.5777   26.1299 C   0  0  0  0  0  0  0  0  0  0  0  0
  -18.3674  -10.8116   23.5844 C   0  0  0  0  0  0  0  0  0  0  0  0
  -22.8076  -12.4544   18.9523 C   0  0  0  0  0  0  0  0  0  0  0  0
  -20.5087  -11.6488   19.5303 C   0  0  0  0  0  0  0  0  0  0  0  0
  -22.5032  -10.3098   20.2022 C   0  0  0  0  0  0  0  0  0  0  0  0
  -20.1898  -13.1146   26.0033 C   0  0  0  0  0  0  0  0  0  0  0  0
  -21.0171  -27.1178   23.6067 C   0  0  0  0  0  0  0  0  0  0  0  0
  -22.3216  -23.5680   23.5028 C   0  0  0  0  0  0  0  0  0  0  0  0
  -21.8988  -22.2471   22.8699 C   0  0  0  0  0  0  0  0  0  0  0  0
  -22.8461  -21.1160   23.2428 C   0  0  0  0  0  0  0  0  0  1  0  0
  -22.0023  -12.4763   21.4052 C   0  0  1  0  0  0  0  0  0  0  0  0
  -19.5661  -11.5509   24.1581 C   0  0  2  0  0  0  0  0  0  0  0  0
  -21.9650  -11.7472   20.0325 C   0  0  0  0  0  0  0  0  0  0  0  0
  -25.7452  -26.9781   19.7861 N   0  0  0  0  0  0  0  0  0  0  0  0
  -24.8888  -27.8809   19.2784 N   0  0  0  0  0  0  0  0  0  0  0  0
  -23.8540  -13.9374   22.1537 N   0  0  0  0  0  0  0  0  0  0  0  0
  -24.5395  -30.2735   22.2342 N   0  0  0  0  0  0  0  0  0  0  0  0
  -23.4286  -28.2835   17.4573 N   0  0  0  0  0  0  0  0  0  0  0  0
  -25.1331  -24.2023   16.5436 N   0  0  0  0  0  0  0  0  0  0  0  0
  -22.6891  -29.4572   23.4476 N   0  0  0  0  0  0  0  0  0  0  0  0
  -27.2706  -14.0160   21.1288 N   0  0  0  0  0  0  0  0  0  0  0  0
  -21.7633  -25.8921   23.7649 N   0  0  0  0  0  0  0  0  0  0  0  0
  -21.2349  -11.8141   22.4546 N   0  0  0  0  0  0  0  0  0  0  0  0
  -19.1079  -12.3534   25.3273 N   0  3  0  0  0  0  0  0  0  0  0  0
  -23.7149  -25.8391   15.7899 O   0  0  0  0  0  0  0  0  0  0  0  0
  -25.3683  -15.0755   20.3035 O   0  0  0  0  0  0  0  0  0  0  0  0
  -24.0785  -11.6166   22.1648 O   0  0  0  0  0  0  0  0  0  0  0  0
  -20.3595  -24.5570   22.4860 O   0  0  0  0  0  0  0  0  0  0  0  0
  -19.8351  -13.6047   22.9144 O   0  0  0  0  0  0  0  0  0  0  0  0
  -23.4098  -31.6463   23.7118 O   0  0  0  0  0  0  0  0  0  0  0  0
  -28.8180  -21.4026   19.6449 O   0  0  0  0  0  0  0  0  0  0  0  0
  -22.3875  -19.9100   22.6331 O   0  0  0  0  0  0  0  0  0  1  0  0
  -28.8969  -19.1570   24.6803 F   0  0  0  0  0  0  0  0  0  0  0  0
  -27.9652  -18.8047   20.0529 F   0  0  0  0  0  0  0  0  0  0  0  0
  1  2  1  0  0  0  0
  1  6  2  0  0  0  0
  2  7  2  0  0  0  0
  3  9  1  0  0  0  0
  3 10  2  0  0  0  0
  4 11  2  0  0  0  0
  4 18  1  0  0  0  0
  5 12  1  0  0  0  0
  5 18  2  0  0  0  0
  6 20  1  0  0  0  0
  7 22  1  0  0  0  0
  8 13  2  0  0  0  0
  8 21  1  0  0  0  0
  9 24  2  0  0  0  0
 10 26  1  0  0  0  0
 11 27  1  0  0  0  0
 12 27  2  0  0  0  0
 13 28  1  0  0  0  0
 14 15  2  0  0  0  0
 14 29  1  0  0  0  0
 15 30  1  0  0  0  0
 16 23  1  0  0  0  0
 16 28  2  0  0  0  0
 17 30  2  0  0  0  0
 17 31  1  0  0  0  0
 18 32  1  0  0  0  0
 19 32  1  0  0  0  0
 19 33  2  0  0  0  0
 19 34  1  0  0  0  0
 20 22  2  0  0  0  0
 20 40  1  0  0  0  0
 21 23  2  0  0  0  0
 21 41  1  0  0  0  0
 22 49  1  0  0  0  0
 23 42  1  0  0  0  0
 24 25  1  0  0  0  0
 24 52  1  0  0  0  0
 25 26  2  0  0  0  0
 25 58  1  0  0  0  0
 26 71  1  0  0  0  0
 27 82  1  0  0  0  0
 28 83  1  0  0  0  0
 29 31  2  0  0  0  0
 29 82  1  0  0  0  0
 30 84  1  0  0  0  0
 31 85  1  0  0  0  0
 32 65  2  0  0  0  0
 33 66  1  0  0  0  0
 33 69  1  0  0  0  0
 34 70  1  0  0  0  0
 34 76  2  0  0  0  0
 35 50  1  0  0  0  0
 35 72  1  0  0  0  0
 35 77  2  0  0  0  0
 36 62  1  0  0  0  0
 36 67  1  0  0  0  0
 36 78  2  0  0  0  0
 37 59  1  0  0  0  0
 37 73  1  0  0  0  0
 37 79  2  0  0  0  0
 38 63  1  0  0  0  0
 38 74  1  0  0  0  0
 38 80  2  0  0  0  0
 39 68  1  0  0  0  0
 39 71  1  0  0  0  0
 39 81  2  0  0  0  0
 40 43  1  0  0  0  0
 41 50  1  0  0  0  0
 42 67  1  0  0  0  0
 43 45  1  0  0  0  0
 44 46  1  0  0  0  0
 44 47  1  0  0  0  0
 45 49  1  0  0  0  0
 46 51  1  0  0  0  0
 47 68  1  0  0  0  0
 48 51  1  0  0  0  0
 48 68  1  0  0  0  0
 49 72  1  0  0  0  0
 50 67  1  0  0  0  0
 51 66  1  0  0  0  0
 53 63  1  0  0  0  0
 54 64  1  0  0  0  0
 55 64  1  0  0  0  0
 56 64  1  0  0  0  0
 57 75  1  0  0  0  0
 58 73  1  0  0  0  0
 59 60  1  0  0  0  0
 60 61  1  0  0  0  0
 61 83  1  0  0  0  0
 62 64  1  0  0  0  0
 62 74  1  0  0  0  0
 63 75  1  0  0  0  0
 65 66  1  0  0  0  0
M  CHG  1  75   1
M  ISO  4  39 100  61 101  71 100  83 101
M  END
> <Batch ID>
0057

> <Smiles>
CNC(C)C(=O)NC(C(=O)N1Cc2cc([101O:1][101CH2:1]CCC(=O)NCc3c(C)cccc3[100NH:0][100C:0](=O)N3CCCC(n4nc(-c5ccc(Oc6ccc(F)cc6F)cc5)c(C(N)=O)c4N)C3)ccc2CC1C(=O)NC1CCCc2ccccc21)C(C)(C)C

> <Shape>
0.222

> <Color>
0.077

> <Negative vol penalty>
0.000

$$$$

  -OEChem-04042322553D

 85 94  0     1  0  0  0  0  0999 V2000
  -28.8171  -30.4922   13.5888 C   0  0  0  0  0  0  0  0  0  0  0  0
  -29.2559  -29.8637   14.7498 C   0  0  0  0  0  0  0  0  0  0  0  0
  -23.1399   -9.7782   20.8465 C   0  0  0  0  0  0  0  0  0  0  0  0
  -23.8252  -10.4393   23.0669 C   0  0  0  0  0  0  0  0  0  0  0  0
  -27.8671  -31.5098   13.6647 C   0  0  0  0  0  0  0  0  0  0  0  0
  -28.7455  -30.2533   15.9876 C   0  0  0  0  0  0  0  0  0  0  0  0
  -27.5370  -26.3057   18.9203 C   0  0  0  0  0  0  0  0  0  0  0  0
  -30.2471  -19.2425   22.6287 C   0  0  0  0  0  0  0  0  0  0  0  0
  -32.4633  -18.3200   22.3557 C   0  0  0  0  0  0  0  0  0  0  0  0
  -29.7044  -18.1279   21.9894 C   0  0  0  0  0  0  0  0  0  0  0  0
  -31.9206  -17.2053   21.7165 C   0  0  0  0  0  0  0  0  0  0  0  0
  -22.4084   -8.7208   21.3870 C   0  0  0  0  0  0  0  0  0  0  0  0
  -23.0936   -9.3818   23.6075 C   0  0  0  0  0  0  0  0  0  0  0  0
  -28.5831  -25.6487   19.5665 C   0  0  0  0  0  0  0  0  0  0  0  0
  -19.8620   -8.6999   24.3230 C   0  0  0  0  0  0  0  0  0  0  0  0
  -19.0684   -8.9664   25.4387 C   0  0  0  0  0  0  0  0  0  0  0  0
  -28.0699  -26.8429   21.5987 C   0  0  0  0  0  0  0  0  0  0  0  0
  -20.3187   -7.3409   26.7161 C   0  0  0  0  0  0  0  0  0  0  0  0
  -23.8484  -10.6375   21.6864 C   0  0  0  0  0  0  0  0  0  0  0  0
  -24.1503  -13.0385   20.8794 C   0  0  0  0  0  0  0  0  0  0  0  0
  -27.3377  -31.9055   14.9032 C   0  0  0  0  0  0  0  0  0  0  0  0
  -26.7550  -27.2459   19.6066 C   0  0  0  0  0  0  0  0  0  0  0  0
  -27.7885  -31.2781   16.0803 C   0  0  0  0  0  0  0  0  0  0  0  0
  -27.0127  -27.5086   20.9596 C   0  0  0  0  0  0  0  0  0  0  0  0
  -31.6266  -19.3386   22.8117 C   0  0  0  0  0  0  0  0  0  0  0  0
  -30.5411  -17.1092   21.5334 C   0  0  0  0  0  0  0  0  0  0  0  0
  -22.3852   -8.5225   22.7675 C   0  0  0  0  0  0  0  0  0  0  0  0
  -28.8516  -25.9193   20.9051 C   0  0  0  0  0  0  0  0  0  0  0  0
  -20.8838   -7.7538   24.4038 C   0  0  0  0  0  0  0  0  0  0  0  0
  -19.2968   -8.2869   26.6353 C   0  0  0  0  0  0  0  0  0  0  0  0
  -21.1122   -7.0744   25.6003 C   0  0  0  0  0  0  0  0  0  0  0  0
  -24.6047  -11.7296   21.1286 C   0  0  0  0  0  0  0  0  0  0  0  0
  -25.2405  -13.6858   20.3511 C   0  0  0  0  0  0  0  0  0  0  0  0
  -31.2127  -22.6614   22.5664 C   0  0  0  0  0  0  0  0  0  0  0  0
  -22.8582  -13.6176   21.1052 C   0  0  0  0  0  0  0  0  0  0  0  0
  -26.1796  -30.3544   19.2758 C   0  0  0  0  0  0  0  0  0  0  0  0
  -24.0421  -29.8150   21.6554 C   0  0  0  0  0  0  0  0  0  0  0  0
  -23.0782  -27.8883   24.3023 C   0  0  0  0  0  0  0  0  0  0  0  0
  -30.6793  -14.8780   20.3720 C   0  0  0  0  0  0  0  0  0  0  0  0
  -26.3476  -33.0426   14.9396 C   0  0  0  0  0  0  0  0  0  0  0  0
  -25.6131  -27.9263   18.9026 C   0  0  0  0  0  0  0  0  0  0  0  0
  -26.1898  -28.4942   21.7468 C   0  0  0  0  0  0  0  0  0  0  0  0
  -25.5801  -33.1401   16.2555 C   0  0  0  0  0  0  0  0  0  0  0  0
  -29.6837  -11.8752   18.7382 C   0  0  0  0  0  0  0  0  0  0  0  0
  -26.5333  -33.0165   17.4399 C   0  0  0  0  0  0  0  0  0  0  0  0
  -28.2362  -11.6774   19.1939 C   0  0  0  0  0  0  0  0  0  0  0  0
  -32.8174  -23.0497   20.8443 C   0  0  0  0  0  0  0  0  0  0  0  0
  -30.5555  -12.4511   19.8527 C   0  0  0  0  0  0  0  0  0  0  0  0
  -33.3648  -22.0232   21.8180 C   0  0  0  0  0  0  0  0  0  0  0  0
  -28.5928  -13.4807   20.9282 C   0  0  0  0  0  0  0  0  0  0  0  0
  -27.2403  -31.6557   17.4394 C   0  0  1  0  0  0  0  0  0  0  0  0
  -31.7194  -23.7556   21.6435 C   0  0  1  0  0  0  0  0  0  0  0  0
  -25.2077  -29.2435   19.5568 C   0  0  1  0  0  0  0  0  0  0  0  0
  -27.6616  -12.9634   19.8197 C   0  0  2  0  0  0  0  0  0  0  0  0
  -21.3104  -27.7192   26.0753 C   0  0  0  0  0  0  0  0  0  0  0  0
  -25.3744  -32.0862   23.1971 C   0  0  0  0  0  0  0  0  0  0  0  0
  -24.2349  -31.2568   25.2664 C   0  0  0  0  0  0  0  0  0  0  0  0
  -22.8773  -32.0573   23.3328 C   0  0  0  0  0  0  0  0  0  0  0  0
  -22.1783  -25.2469   23.3165 C   0  0  0  0  0  0  0  0  0  0  0  0
  -32.2107  -20.5384   23.4997 C   0  0  0  0  0  0  0  0  0  0  0  0
  -30.6281  -24.3440   20.7703 C   0  0  0  0  0  0  0  0  0  1  0  0
  -24.0912  -29.8460   23.1640 C   0  0  1  0  0  0  0  0  0  0  0  0
  -21.7332  -27.2931   24.6780 C   0  0  2  0  0  0  0  0  0  0  0  0
  -24.1614  -31.2944   23.7250 C   0  0  0  0  0  0  0  0  0  0  0  0
  -25.8839  -11.5541   20.7866 N   0  0  0  0  0  0  0  0  0  0  0  0
  -26.2425  -12.7611   20.3170 N   0  0  0  0  0  0  0  0  0  0  0  0
  -32.2220  -21.7028   22.6410 N   0  0  0  0  0  0  0  0  0  0  0  0
  -25.0884  -29.1385   21.0124 N   0  0  0  0  0  0  0  0  0  0  0  0
  -29.9508  -13.6699   20.3946 N   0  0  0  0  0  0  0  0  0  0  0  0
  -25.4301  -14.9499   19.9170 N   0  0  0  0  0  0  0  0  0  0  0  0
  -21.8518  -12.8118   21.6549 N   0  0  0  0  0  0  0  0  0  0  0  0
  -29.9900  -15.9767   20.8843 N   0  0  0  0  0  0  0  0  0  0  0  0
  -26.3521  -30.6245   17.9317 N   0  0  0  0  0  0  0  0  0  0  0  0
  -22.9376  -29.0816   23.6257 N   0  0  0  0  0  0  0  0  0  0  0  0
  -21.7965  -25.8047   24.6394 N   0  3  0  0  0  0  0  0  0  0  0  0
  -30.1421  -22.6734   23.1554 O   0  0  0  0  0  0  0  0  0  0  0  0
  -22.5990  -14.8095   20.8126 O   0  0  0  0  0  0  0  0  0  0  0  0
  -26.7310  -30.9253   20.2095 O   0  0  0  0  0  0  0  0  0  0  0  0
  -23.1060  -30.3645   21.0695 O   0  0  0  0  0  0  0  0  0  0  0  0
  -24.1468  -27.3506   24.5843 O   0  0  0  0  0  0  0  0  0  0  0  0
  -31.8198  -14.9394   19.9056 O   0  0  0  0  0  0  0  0  0  0  0  0
  -21.6713   -7.4909   23.2954 O   0  0  0  0  0  0  0  0  0  0  0  0
  -29.8726  -25.2799   21.5381 O   0  0  0  0  0  0  0  0  0  1  0  0
  -18.5357   -8.5441   27.7071 F   0  0  0  0  0  0  0  0  0  0  0  0
  -22.0932   -6.1653   25.6844 F   0  0  0  0  0  0  0  0  0  0  0  0
  1  2  1  0  0  0  0
  1  5  2  0  0  0  0
  2  6  2  0  0  0  0
  3 12  2  0  0  0  0
  3 19  1  0  0  0  0
  4 13  1  0  0  0  0
  4 19  2  0  0  0  0
  5 21  1  0  0  0  0
  6 23  1  0  0  0  0
  7 14  2  0  0  0  0
  7 22  1  0  0  0  0
  8 10  2  0  0  0  0
  8 25  1  0  0  0  0
  9 11  1  0  0  0  0
  9 25  2  0  0  0  0
 10 26  1  0  0  0  0
 11 26  2  0  0  0  0
 12 27  1  0  0  0  0
 13 27  2  0  0  0  0
 14 28  1  0  0  0  0
 15 16  2  0  0  0  0
 15 29  1  0  0  0  0
 16 30  1  0  0  0  0
 17 24  1  0  0  0  0
 17 28  2  0  0  0  0
 18 30  2  0  0  0  0
 18 31  1  0  0  0  0
 19 32  1  0  0  0  0
 20 32  1  0  0  0  0
 20 33  2  0  0  0  0
 20 35  1  0  0  0  0
 21 23  2  0  0  0  0
 21 40  1  0  0  0  0
 22 24  2  0  0  0  0
 22 41  1  0  0  0  0
 23 51  1  0  0  0  0
 24 42  1  0  0  0  0
 25 60  1  0  0  0  0
 26 72  1  0  0  0  0
 27 82  1  0  0  0  0
 28 83  1  0  0  0  0
 29 31  2  0  0  0  0
 29 82  1  0  0  0  0
 30 84  1  0  0  0  0
 31 85  1  0  0  0  0
 32 65  2  0  0  0  0
 33 66  1  0  0  0  0
 33 70  1  0  0  0  0
 34 52  1  0  0  0  0
 34 67  1  0  0  0  0
 34 76  2  0  0  0  0
 35 71  1  0  0  0  0
 35 77  2  0  0  0  0
 36 53  1  0  0  0  0
 36 73  1  0  0  0  0
 36 78  2  0  0  0  0
 37 62  1  0  0  0  0
 37 68  1  0  0  0  0
 37 79  2  0  0  0  0
 38 63  1  0  0  0  0
 38 74  1  0  0  0  0
 38 80  2  0  0  0  0
 39 69  1  0  0  0  0
 39 72  1  0  0  0  0
 39 81  2  0  0  0  0
 40 43  1  0  0  0  0
 41 53  1  0  0  0  0
 42 68  1  0  0  0  0
 43 45  1  0  0  0  0
 44 46  1  0  0  0  0
 44 48  1  0  0  0  0
 45 51  1  0  0  0  0
 46 54  1  0  0  0  0
 47 49  1  0  0  0  0
 47 52  1  0  0  0  0
 48 69  1  0  0  0  0
 49 67  1  0  0  0  0
 50 54  1  0  0  0  0
 50 69  1  0  0  0  0
 51 73  1  0  0  0  0
 52 61  1  0  0  0  0
 53 68  1  0  0  0  0
 54 66  1  0  0  0  0
 55 63  1  0  0  0  0
 56 64  1  0  0  0  0
 57 64  1  0  0  0  0
 58 64  1  0  0  0  0
 59 75  1  0  0  0  0
 60 67  1  0  0  0  0
 61 83  1  0  0  0  0
 62 64  1  0  0  0  0
 62 74  1  0  0  0  0
 63 75  1  0  0  0  0
 65 66  1  0  0  0  0
M  CHG  1  75   1
M  ISO  4  39 100  61 101  72 100  83 101
M  END
> <Batch ID>
0057

> <Smiles>
CNC(C)C(=O)NC(C(=O)N1Cc2cc([101O:1][101CH2:1]C3CCN(Cc4ccc([100NH:0][100C:0](=O)N5CCCC(n6nc(-c7ccc(Oc8ccc(F)cc8F)cc7)c(C(N)=O)c6N)C5)cc4)C3=O)ccc2CC1C(=O)NC1CCCc2ccccc21)C(C)(C)C

> <Shape>
0.263

> <Color>
0.175

> <Negative vol penalty>
0.000

$$$$

  -OEChem-04042322553D

 88 96  0     1  0  0  0  0  0999 V2000
  -26.3604  -16.9727   19.1190 C   0  0  0  0  0  0  0  0  0  0  0  0
  -25.6493  -18.1429   18.8738 C   0  0  0  0  0  0  0  0  0  0  0  0
  -23.4263  -14.0850   19.5213 C   0  0  0  0  0  0  0  0  0  0  0  0
  -24.7511  -14.5861   21.4786 C   0  0  0  0  0  0  0  0  0  0  0  0
  -18.3821  -27.6368   21.5574 C   0  0  0  0  0  0  0  0  0  0  0  0
  -27.3458  -16.9507   20.1051 C   0  0  0  0  0  0  0  0  0  0  0  0
  -25.9223  -19.2917   19.6155 C   0  0  0  0  0  0  0  0  0  0  0  0
  -26.0400  -26.4290   19.0131 C   0  0  0  0  0  0  0  0  0  0  0  0
  -24.3901  -13.1671   19.1040 C   0  0  0  0  0  0  0  0  0  0  0  0
  -25.7149  -13.6681   21.0613 C   0  0  0  0  0  0  0  0  0  0  0  0
  -25.5467  -27.5712   19.6421 C   0  0  0  0  0  0  0  0  0  0  0  0
  -28.2470  -13.5582   18.8235 C   0  0  0  0  0  0  0  0  0  0  0  0
  -29.5850  -13.9456   18.8952 C   0  0  0  0  0  0  0  0  0  0  0  0
  -17.7797  -26.3794   21.5149 C   0  0  0  0  0  0  0  0  0  0  0  0
  -27.3256  -27.4378   21.2661 C   0  0  0  0  0  0  0  0  0  0  0  0
  -30.0360  -12.1097   20.3996 C   0  0  0  0  0  0  0  0  0  0  0  0
  -23.6069  -14.7946   20.7086 C   0  0  0  0  0  0  0  0  0  0  0  0
  -19.5744  -27.8156   22.2589 C   0  0  0  0  0  0  0  0  0  0  0  0
  -21.4960  -15.4912   21.9601 C   0  0  0  0  0  0  0  0  0  0  0  0
  -27.6377  -18.1025   20.8526 C   0  0  0  0  0  0  0  0  0  0  0  0
  -27.1754  -25.7752   19.5131 C   0  0  0  0  0  0  0  0  0  0  0  0
  -26.9116  -19.2848   20.6135 C   0  0  0  0  0  0  0  0  0  0  0  0
  -27.8328  -26.2889   20.6401 C   0  0  0  0  0  0  0  0  0  0  0  0
  -19.5618  -25.4797   22.8757 C   0  0  0  0  0  0  0  0  0  0  0  0
  -25.5343  -12.9586   19.8739 C   0  0  0  0  0  0  0  0  0  0  0  0
  -26.1878  -28.0742   20.7705 C   0  0  0  0  0  0  0  0  0  0  0  0
  -27.8034  -12.4466   19.5400 C   0  0  0  0  0  0  0  0  0  0  0  0
  -30.4795  -13.2214   19.6833 C   0  0  0  0  0  0  0  0  0  0  0  0
  -28.6979  -11.7223   20.3280 C   0  0  0  0  0  0  0  0  0  0  0  0
  -20.1642  -26.7371   22.9181 C   0  0  0  0  0  0  0  0  0  0  0  0
  -18.3696  -25.3009   22.1741 C   0  0  0  0  0  0  0  0  0  0  0  0
  -22.6120  -15.7434   21.1400 C   0  0  0  0  0  0  0  0  0  0  0  0
  -20.8705  -16.7088   22.0728 C   0  0  0  0  0  0  0  0  0  0  0  0
  -20.2093  -29.1481   22.3016 C   0  0  0  0  0  0  0  0  0  0  0  0
  -21.0634  -14.2659   22.5661 C   0  0  0  0  0  0  0  0  0  0  0  0
  -27.7618  -22.8799   20.6868 C   0  0  0  0  0  0  0  0  0  0  0  0
  -30.8346  -23.9189   20.6629 C   0  0  0  0  0  0  0  0  0  0  0  0
  -33.0022  -26.5545   20.7052 C   0  0  0  0  0  0  0  0  0  0  0  0
  -21.0847  -22.0996   22.9897 C   0  0  0  0  0  0  0  0  0  0  0  0
  -28.6789  -18.0174   21.9405 C   0  0  0  0  0  0  0  0  0  0  0  0
  -27.7105  -24.5595   18.8073 C   0  0  0  0  0  0  0  0  0  0  0  0
  -29.0670  -25.6358   21.2045 C   0  0  0  0  0  0  0  0  0  0  0  0
  -29.1660  -19.3804   22.4255 C   0  0  0  0  0  0  0  0  0  0  0  0
  -21.6191  -21.0412   19.5704 C   0  0  0  0  0  0  0  0  0  0  0  0
  -27.9842  -20.3127   22.6723 C   0  0  0  0  0  0  0  0  0  0  0  0
  -21.8338  -19.5370   19.7477 C   0  0  0  0  0  0  0  0  0  0  0  0
  -22.2476  -21.8281   20.7167 C   0  0  0  0  0  0  0  0  0  0  0  0
  -21.9965  -19.9164   22.2516 C   0  0  0  0  0  0  0  0  0  0  0  0
  -27.1960  -20.5583   21.3800 C   0  0  1  0  0  0  0  0  0  0  0  0
  -28.5729  -23.6782   19.7058 C   0  0  1  0  0  0  0  0  0  0  0  0
  -21.3646  -19.0638   21.1363 C   0  0  2  0  0  0  0  0  0  0  0  0
  -35.4542  -27.0885   20.7162 C   0  0  0  0  0  0  0  0  0  0  0  0
  -30.9869  -23.1472   23.6110 C   0  0  0  0  0  0  0  0  0  0  0  0
  -33.0571  -24.5427   23.7976 C   0  0  0  0  0  0  0  0  0  0  0  0
  -33.0196  -22.5674   22.2746 C   0  0  0  0  0  0  0  0  0  0  0  0
  -24.5212  -31.5706   22.6031 C   0  0  0  0  0  0  0  0  0  0  0  0
  -24.1409  -29.4140   23.8120 C   0  0  0  0  0  0  0  0  0  0  0  0
  -32.8126  -28.0217   18.1419 C   0  0  0  0  0  0  0  0  0  0  0  0
  -20.2232  -24.3471   23.5927 C   0  0  0  0  0  0  0  0  0  0  0  0
  -22.2850  -30.4757   22.4616 C   0  0  0  0  0  0  0  0  0  0  0  0
  -24.3020  -29.4194   21.3089 C   0  0  0  0  0  0  0  0  0  1  0  0
  -31.7253  -24.6450   21.6420 C   0  0  1  0  0  0  0  0  0  0  0  0
  -34.2195  -26.8713   19.8553 C   0  0  2  0  0  0  0  0  0  0  0  0
  -32.1729  -23.7370   22.8220 C   0  0  0  0  0  0  0  0  0  0  0  0
  -23.8022  -30.2087   22.5383 C   0  0  0  0  0  0  0  0  0  0  0  0
  -22.6934  -17.0208   20.7584 N   0  0  0  0  0  0  0  0  0  0  0  0
  -21.6205  -17.5822   21.3414 N   0  0  0  0  0  0  0  0  0  0  0  0
  -29.5480  -24.4461   20.4828 N   0  0  0  0  0  0  0  0  0  0  0  0
  -21.7452  -21.3410   22.0091 N   0  0  0  0  0  0  0  0  0  0  0  0
  -19.7577  -17.1069   22.7250 N   0  0  0  0  0  0  0  0  0  0  0  0
  -19.4220  -30.2216   22.2316 N   0  0  0  0  0  0  0  0  0  0  0  0
  -21.8225  -13.1081   22.3478 N   0  0  0  0  0  0  0  0  0  0  0  0
  -27.8878  -21.5118   20.5395 N   0  0  0  0  0  0  0  0  0  0  0  0
  -32.8273  -25.1957   20.8604 N   0  0  0  0  0  0  0  0  0  0  0  0
  -20.8923  -23.4416   22.6853 N   0  0  0  0  0  0  0  0  0  0  0  0
  -21.5417  -29.2139   22.4060 N   0  3  0  0  0  0  0  0  0  0  0  0
  -33.9839  -28.1042   19.0520 N   0  3  0  0  0  0  0  0  0  0  0  0
  -20.0251  -14.1963   23.2666 O   0  0  0  0  0  0  0  0  0  0  0  0
  -27.0737  -23.4622   21.5171 O   0  0  0  0  0  0  0  0  0  0  0  0
  -31.2670  -22.9249   20.0742 O   0  0  0  0  0  0  0  0  0  0  0  0
  -32.2809  -27.4255   21.1865 O   0  0  0  0  0  0  0  0  0  0  0  0
  -20.6905  -21.6155   24.0562 O   0  0  0  0  0  0  0  0  0  0  0  0
  -26.4748  -12.0628   19.4671 O   0  0  0  0  0  0  0  0  0  0  0  0
  -25.7080  -29.1885   21.3868 O   0  0  0  0  0  0  0  0  0  1  0  0
  -31.7647  -13.5926   19.7508 F   0  0  0  0  0  0  0  0  0  0  0  0
  -28.2778  -10.6528   21.0175 F   0  0  0  0  0  0  0  0  0  0  0  0
  -21.3118  -26.9111   23.5908 F   0  0  0  0  0  0  0  0  0  0  0  0
  -17.5956  -23.7599   22.0990 Cl  0  0  0  0  0  0  0  0  0  0  0  0
  1  2  1  0  0  0  0
  1  6  2  0  0  0  0
  2  7  2  0  0  0  0
  3  9  2  0  0  0  0
  3 17  1  0  0  0  0
  4 10  1  0  0  0  0
  4 17  2  0  0  0  0
  5 14  2  0  0  0  0
  5 18  1  0  0  0  0
  6 20  1  0  0  0  0
  7 22  1  0  0  0  0
  8 11  2  0  0  0  0
  8 21  1  0  0  0  0
  9 25  1  0  0  0  0
 10 25  2  0  0  0  0
 11 26  1  0  0  0  0
 12 13  2  0  0  0  0
 12 27  1  0  0  0  0
 13 28  1  0  0  0  0
 14 31  1  0  0  0  0
 15 23  1  0  0  0  0
 15 26  2  0  0  0  0
 16 28  2  0  0  0  0
 16 29  1  0  0  0  0
 17 32  1  0  0  0  0
 18 30  2  0  0  0  0
 18 34  1  0  0  0  0
 19 32  1  0  0  0  0
 19 33  2  0  0  0  0
 19 35  1  0  0  0  0
 20 22  2  0  0  0  0
 20 40  1  0  0  0  0
 21 23  2  0  0  0  0
 21 41  1  0  0  0  0
 22 49  1  0  0  0  0
 23 42  1  0  0  0  0
 24 30  1  0  0  0  0
 24 31  2  0  0  0  0
 24 59  1  0  0  0  0
 25 83  1  0  0  0  0
 26 84  1  0  0  0  0
 27 29  2  0  0  0  0
 27 83  1  0  0  0  0
 28 85  1  0  0  0  0
 29 86  1  0  0  0  0
 30 87  1  0  0  0  0
 31 88  1  0  0  0  0
 32 66  2  0  0  0  0
 33 67  1  0  0  0  0
 33 70  1  0  0  0  0
 34 71  1  0  0  0  0
 34 76  2  0  0  0  0
 35 72  1  0  0  0  0
 35 78  2  0  0  0  0
 36 50  1  0  0  0  0
 36 73  1  0  0  0  0
 36 79  2  0  0  0  0
 37 62  1  0  0  0  0
 37 68  1  0  0  0  0
 37 80  2  0  0  0  0
 38 63  1  0  0  0  0
 38 74  1  0  0  0  0
 38 81  2  0  0  0  0
 39 69  1  0  0  0  0
 39 75  1  0  0  0  0
 39 82  2  0  0  0  0
 40 43  1  0  0  0  0
 41 50  1  0  0  0  0
 42 68  1  0  0  0  0
 43 45  1  0  0  0  0
 44 46  1  0  0  0  0
 44 47  1  0  0  0  0
 45 49  1  0  0  0  0
 46 51  1  0  0  0  0
 47 69  1  0  0  0  0
 48 51  1  0  0  0  0
 48 69  1  0  0  0  0
 49 73  1  0  0  0  0
 50 68  1  0  0  0  0
 51 67  1  0  0  0  0
 52 63  1  0  0  0  0
 53 64  1  0  0  0  0
 54 64  1  0  0  0  0
 55 64  1  0  0  0  0
 56 65  1  0  0  0  0
 57 65  1  0  0  0  0
 58 77  1  0  0  0  0
 59 75  1  0  0  0  0
 60 65  1  0  0  0  0
 60 76  1  0  0  0  0
 61 65  1  0  0  0  0
 61 84  1  0  0  0  0
 62 64  1  0  0  0  0
 62 74  1  0  0  0  0
 63 77  1  0  0  0  0
 66 67  1  0  0  0  0
M  CHG  2  76   1  77   1
M  ISO  4  39 100  61 101  75 100  84 101
M  END
> <Batch ID>
0057

> <Smiles>
CNC(C)C(=O)NC(C(=O)N1Cc2cc([101O:1][101CH2:1]C(C)(C)CNC(=N)c3ccc(Cl)c(C[100NH:0][100C:0](=O)N4CCCC(n5nc(-c6ccc(Oc7ccc(F)cc7F)cc6)c(C(N)=O)c5N)C4)c3F)ccc2CC1C(=O)NC1CCCc2ccccc21)C(C)(C)C

> <Shape>
0.237

> <Color>
0.062

> <Negative vol penalty>
0.000

$$$$

  -OEChem-04042322552D

  0  0  0     0  0  0  0  0  0999 V2000
M  END
$$$$

  -OEChem-04042322553D

 92100  0     1  0  0  0  0  0999 V2000
  -23.0368  -30.6419   21.1188 C   0  0  0  0  0  0  0  0  0  0  0  0
  -23.1435  -29.2713   20.9054 C   0  0  0  0  0  0  0  0  0  0  0  0
  -31.7411  -18.9780   18.5321 C   0  0  0  0  0  0  0  0  0  0  0  0
  -23.0067   -9.9190   20.2016 C   0  0  0  0  0  0  0  0  0  0  0  0
  -23.7163  -10.1639   22.4980 C   0  0  0  0  0  0  0  0  0  0  0  0
  -30.5510  -19.6865   18.3671 C   0  0  0  0  0  0  0  0  0  0  0  0
  -24.1676  -31.3836   21.4576 C   0  0  0  0  0  0  0  0  0  0  0  0
  -24.3816  -28.6419   21.0297 C   0  0  0  0  0  0  0  0  0  0  0  0
  -24.1047  -24.3073   23.6335 C   0  0  0  0  0  0  0  0  0  0  0  0
  -31.8651  -18.0551   19.5707 C   0  0  0  0  0  0  0  0  0  0  0  0
  -22.2145   -8.8292   20.5626 C   0  0  0  0  0  0  0  0  0  0  0  0
  -22.9240   -9.0742   22.8590 C   0  0  0  0  0  0  0  0  0  0  0  0
  -23.6125  -23.1903   22.9600 C   0  0  0  0  0  0  0  0  0  0  0  0
  -19.6557   -8.4650   23.4650 C   0  0  0  0  0  0  0  0  0  0  0  0
  -18.8725   -8.5871   24.6127 C   0  0  0  0  0  0  0  0  0  0  0  0
  -25.8692  -22.4099   22.6175 C   0  0  0  0  0  0  0  0  0  0  0  0
  -20.0233   -6.7052   25.5982 C   0  0  0  0  0  0  0  0  0  0  0  0
  -23.7577  -10.5863   21.1693 C   0  0  0  0  0  0  0  0  0  0  0  0
  -29.4849  -19.4722   19.2407 C   0  0  0  0  0  0  0  0  0  0  0  0
  -24.1974  -13.0672   20.7697 C   0  0  0  0  0  0  0  0  0  0  0  0
  -25.4184  -30.7614   21.5955 C   0  0  0  0  0  0  0  0  0  0  0  0
  -25.4857  -24.4899   23.7948 C   0  0  0  0  0  0  0  0  0  0  0  0
  -25.5305  -29.3762   21.3693 C   0  0  0  0  0  0  0  0  0  0  0  0
  -26.3763  -23.5288   23.2957 C   0  0  0  0  0  0  0  0  0  0  0  0
  -30.7990  -17.8409   20.4443 C   0  0  0  0  0  0  0  0  0  0  0  0
  -29.6089  -18.5494   20.2794 C   0  0  0  0  0  0  0  0  0  0  0  0
  -22.1731   -8.4068   21.8913 C   0  0  0  0  0  0  0  0  0  0  0  0
  -24.4949  -22.2428   22.4493 C   0  0  0  0  0  0  0  0  0  0  0  0
  -20.6227   -7.4630   23.3838 C   0  0  0  0  0  0  0  0  0  0  0  0
  -19.0563   -7.7072   25.6793 C   0  0  0  0  0  0  0  0  0  0  0  0
  -20.8065   -6.5831   24.4504 C   0  0  0  0  0  0  0  0  0  0  0  0
  -24.5767  -11.7118   20.7968 C   0  0  0  0  0  0  0  0  0  0  0  0
  -25.3248  -13.7309   20.3514 C   0  0  0  0  0  0  0  0  0  0  0  0
  -28.2350  -20.2341   19.0463 C   0  0  0  0  0  0  0  0  0  0  0  0
  -22.9385  -13.6722   21.0936 C   0  0  0  0  0  0  0  0  0  0  0  0
  -27.5820  -26.6886   22.8596 C   0  0  0  0  0  0  0  0  0  0  0  0
  -29.6165  -24.9787   24.7195 C   0  0  0  0  0  0  0  0  0  0  0  0
  -25.0646  -19.9547   19.0965 C   0  0  0  0  0  0  0  0  0  0  0  0
  -30.3897  -21.9941   26.1828 C   0  0  0  0  0  0  0  0  0  0  0  0
  -30.8377  -14.5718   20.5640 C   0  0  0  0  0  0  0  0  0  0  0  0
  -26.6212  -31.6126   21.9170 C   0  0  0  0  0  0  0  0  0  0  0  0
  -25.9996  -25.6867   24.5472 C   0  0  0  0  0  0  0  0  0  0  0  0
  -27.8670  -23.6679   23.4600 C   0  0  0  0  0  0  0  0  0  0  0  0
  -27.8267  -30.8077   22.3957 C   0  0  0  0  0  0  0  0  0  0  0  0
  -29.6629  -11.9692   18.4374 C   0  0  0  0  0  0  0  0  0  0  0  0
  -28.0565  -29.6013   21.4909 C   0  0  0  0  0  0  0  0  0  0  0  0
  -28.2063  -11.7780   18.8637 C   0  0  0  0  0  0  0  0  0  0  0  0
  -30.5614  -12.2948   19.6285 C   0  0  0  0  0  0  0  0  0  0  0  0
  -28.6590  -13.2473   20.8724 C   0  0  0  0  0  0  0  0  0  0  0  0
  -26.8515  -28.6532   21.5189 C   0  0  1  0  0  0  0  0  0  0  0  0
  -27.4454  -26.0323   24.2043 C   0  0  1  0  0  0  0  0  0  0  0  0
  -27.7047  -12.9723   19.6976 C   0  0  2  0  0  0  0  0  0  0  0  0
  -28.4659  -18.3192   21.2169 C   0  0  0  0  0  0  0  0  0  0  0  0
  -32.1353  -20.8941   27.6112 C   0  0  0  0  0  0  0  0  0  0  0  0
  -26.6852  -21.7463   15.2942 C   0  0  0  0  0  0  0  0  0  0  0  0
  -25.8167  -19.7033   14.1394 C   0  0  0  0  0  0  0  0  0  0  0  0
  -31.4787  -24.8082   22.3084 C   0  0  0  0  0  0  0  0  0  0  0  0
  -32.6972  -22.9541   23.4684 C   0  0  0  0  0  0  0  0  0  0  0  0
  -32.6301  -25.2297   24.4881 C   0  0  0  0  0  0  0  0  0  0  0  0
  -28.4362  -21.4193   28.3305 C   0  0  0  0  0  0  0  0  0  0  0  0
  -30.9580  -16.8471   21.5477 C   0  0  0  0  0  0  0  0  0  0  0  0
  -25.4843  -19.9266   16.6203 C   0  0  0  0  0  0  0  0  0  0  0  0
  -22.7472  -20.3358   19.9196 C   0  0  0  0  0  0  0  0  0  0  0  0
  -22.7856  -21.3060   21.0867 C   0  0  0  0  0  0  0  0  0  1  0  0
  -30.5407  -23.8062   24.4953 C   0  0  1  0  0  0  0  0  0  0  0  0
  -26.0096  -20.3732   17.9857 C   0  0  2  0  0  0  0  0  0  0  0  0
  -30.8135  -21.6461   27.5983 C   0  0  2  0  0  0  0  0  0  0  0  0
  -26.4199  -20.2470   15.4375 C   0  0  0  0  0  0  0  0  0  0  0  0
  -31.8087  -24.1976   23.6851 C   0  0  0  0  0  0  0  0  0  0  0  0
  -25.8458  -11.5239   20.4253 N   0  0  0  0  0  0  0  0  0  0  0  0
  -26.2738  -12.7701   20.1606 N   0  0  0  0  0  0  0  0  0  0  0  0
  -28.3208  -24.8585   24.1975 N   0  0  0  0  0  0  0  0  0  0  0  0
  -30.0310  -13.4374   20.3762 N   0  0  0  0  0  0  0  0  0  0  0  0
  -25.5869  -15.0368   20.1318 N   0  0  0  0  0  0  0  0  0  0  0  0
  -28.1106  -21.4064   19.6686 N   0  0  0  0  0  0  0  0  0  0  0  0
  -21.8858  -12.8441   21.5065 N   0  0  0  0  0  0  0  0  0  0  0  0
  -26.8606  -27.8599   22.7293 N   0  0  0  0  0  0  0  0  0  0  0  0
  -23.8224  -20.5711   18.9929 N   0  0  0  0  0  0  0  0  0  0  0  0
  -30.8224  -23.2504   25.8144 N   0  0  0  0  0  0  0  0  0  0  0  0
  -30.2560  -15.6121   21.2783 N   0  0  0  0  0  0  0  0  0  0  0  0
  -27.2866  -19.7122   18.2578 N   0  3  0  0  0  0  0  0  0  0  0  0
  -29.7814  -20.7935   28.2532 N   0  3  0  0  0  0  0  0  0  0  0  0
  -22.7478  -14.9087   21.0035 O   0  0  0  0  0  0  0  0  0  0  0  0
  -28.2908  -26.1714   22.0041 O   0  0  0  0  0  0  0  0  0  0  0  0
  -30.0269  -25.9619   25.3413 O   0  0  0  0  0  0  0  0  0  0  0  0
  -25.3792  -19.1544   19.9746 O   0  0  0  0  0  0  0  0  0  0  0  0
  -29.7430  -21.2266   25.4734 O   0  0  0  0  0  0  0  0  0  0  0  0
  -31.9891  -14.6538   20.1229 O   0  0  0  0  0  0  0  0  0  0  0  0
  -21.4000   -7.3436   22.2440 O   0  0  0  0  0  0  0  0  0  0  0  0
  -24.0171  -21.1519   21.7909 O   0  0  0  0  0  0  0  0  0  1  0  0
  -18.3052   -7.8256   26.7821 F   0  0  0  0  0  0  0  0  0  0  0  0
  -21.7347   -5.6193   24.3788 F   0  0  0  0  0  0  0  0  0  0  0  0
  1  2  1  0  0  0  0
  1  7  2  0  0  0  0
  2  8  2  0  0  0  0
  3  6  2  0  0  0  0
  3 10  1  0  0  0  0
  4 11  2  0  0  0  0
  4 18  1  0  0  0  0
  5 12  1  0  0  0  0
  5 18  2  0  0  0  0
  6 19  1  0  0  0  0
  7 21  1  0  0  0  0
  8 23  1  0  0  0  0
  9 13  2  0  0  0  0
  9 22  1  0  0  0  0
 10 25  2  0  0  0  0
 11 27  1  0  0  0  0
 12 27  2  0  0  0  0
 13 28  1  0  0  0  0
 14 15  2  0  0  0  0
 14 29  1  0  0  0  0
 15 30  1  0  0  0  0
 16 24  1  0  0  0  0
 16 28  2  0  0  0  0
 17 30  2  0  0  0  0
 17 31  1  0  0  0  0
 18 32  1  0  0  0  0
 19 26  2  0  0  0  0
 19 34  1  0  0  0  0
 20 32  1  0  0  0  0
 20 33  2  0  0  0  0
 20 35  1  0  0  0  0
 21 23  2  0  0  0  0
 21 41  1  0  0  0  0
 22 24  2  0  0  0  0
 22 42  1  0  0  0  0
 23 50  1  0  0  0  0
 24 43  1  0  0  0  0
 25 26  1  0  0  0  0
 25 61  1  0  0  0  0
 26 53  1  0  0  0  0
 27 89  1  0  0  0  0
 28 90  1  0  0  0  0
 29 31  2  0  0  0  0
 29 89  1  0  0  0  0
 30 91  1  0  0  0  0
 31 92  1  0  0  0  0
 32 70  2  0  0  0  0
 33 71  1  0  0  0  0
 33 74  1  0  0  0  0
 34 75  1  0  0  0  0
 34 81  2  0  0  0  0
 35 76  1  0  0  0  0
 35 83  2  0  0  0  0
 36 51  1  0  0  0  0
 36 77  1  0  0  0  0
 36 84  2  0  0  0  0
 37 65  1  0  0  0  0
 37 72  1  0  0  0  0
 37 85  2  0  0  0  0
 38 66  1  0  0  0  0
 38 78  1  0  0  0  0
 38 86  2  0  0  0  0
 39 67  1  0  0  0  0
 39 79  1  0  0  0  0
 39 87  2  0  0  0  0
 40 73  1  0  0  0  0
 40 80  1  0  0  0  0
 40 88  2  0  0  0  0
 41 44  1  0  0  0  0
 42 51  1  0  0  0  0
 43 72  1  0  0  0  0
 44 46  1  0  0  0  0
 45 47  1  0  0  0  0
 45 48  1  0  0  0  0
 46 50  1  0  0  0  0
 47 52  1  0  0  0  0
 48 73  1  0  0  0  0
 49 52  1  0  0  0  0
 49 73  1  0  0  0  0
 50 77  1  0  0  0  0
 51 72  1  0  0  0  0
 52 71  1  0  0  0  0
 54 67  1  0  0  0  0
 55 68  1  0  0  0  0
 56 68  1  0  0  0  0
 57 69  1  0  0  0  0
 58 69  1  0  0  0  0
 59 69  1  0  0  0  0
 60 82  1  0  0  0  0
 61 80  1  0  0  0  0
 62 66  1  0  0  0  0
 62 68  1  0  0  0  0
 63 64  1  0  0  0  0
 63 78  1  0  0  0  0
 64 90  1  0  0  0  0
 65 69  1  0  0  0  0
 65 79  1  0  0  0  0
 66 81  1  0  0  0  0
 67 82  1  0  0  0  0
 70 71  1  0  0  0  0
M  CHG  2  81   1  82   1
M  ISO  4  40 100  64 101  80 100  90 101
M  END
> <Batch ID>
0057

> <Smiles>
CNC(C)C(=O)NC(C(=O)N1Cc2cc([101O:1][101CH2:1]CNC(=O)C(CC(C)C)NC(=N)c3cccc(C[100NH:0][100C:0](=O)N4CCCC(n5nc(-c6ccc(Oc7ccc(F)cc7F)cc6)c(C(N)=O)c5N)C4)c3C)ccc2CC1C(=O)NC1CCCc2ccccc21)C(C)(C)C

> <Shape>
0.250

> <Color>
0.177

> <Negative vol penalty>
0.000

$$$$

  -OEChem-04042322553D

 86 94  0     1  0  0  0  0  0999 V2000
  -28.3930  -20.3726   15.8854 C   0  0  0  0  0  0  0  0  0  0  0  0
  -27.5544  -21.4672   16.0699 C   0  0  0  0  0  0  0  0  0  0  0  0
  -17.8762  -28.1601   22.8779 C   0  0  0  0  0  0  0  0  0  0  0  0
  -24.3111  -16.9910   22.7954 C   0  0  0  0  0  0  0  0  0  0  0  0
  -24.6969  -18.2868   20.7931 C   0  0  0  0  0  0  0  0  0  0  0  0
  -19.0102  -28.9671   22.9684 C   0  0  0  0  0  0  0  0  0  0  0  0
  -29.0921  -19.8411   16.9683 C   0  0  0  0  0  0  0  0  0  0  0  0
  -27.4135  -22.0302   17.3378 C   0  0  0  0  0  0  0  0  0  0  0  0
  -26.5877  -27.9515   18.6654 C   0  0  0  0  0  0  0  0  0  0  0  0
  -18.0124  -26.7815   22.7139 C   0  0  0  0  0  0  0  0  0  0  0  0
  -24.9712  -15.9053   22.2201 C   0  0  0  0  0  0  0  0  0  0  0  0
  -25.3571  -17.2011   20.2177 C   0  0  0  0  0  0  0  0  0  0  0  0
  -25.4471  -28.6956   18.9638 C   0  0  0  0  0  0  0  0  0  0  0  0
  -24.2795  -13.4750   19.9752 C   0  0  0  0  0  0  0  0  0  0  0  0
  -23.6889  -12.2176   20.1009 C   0  0  0  0  0  0  0  0  0  0  0  0
  -25.8883  -28.4164   21.3189 C   0  0  0  0  0  0  0  0  0  0  0  0
  -25.6473  -11.4144   21.2657 C   0  0  0  0  0  0  0  0  0  0  0  0
  -24.1739  -18.1818   22.0820 C   0  0  0  0  0  0  0  0  0  0  0  0
  -20.2805  -28.3957   22.8948 C   0  0  0  0  0  0  0  0  0  0  0  0
  -24.0610  -20.3317   23.4504 C   0  0  0  0  0  0  0  0  0  0  0  0
  -28.9671  -20.4039   18.2482 C   0  0  0  0  0  0  0  0  0  0  0  0
  -27.3825  -27.4241   19.6934 C   0  0  0  0  0  0  0  0  0  0  0  0
  -28.1105  -21.5049   18.4391 C   0  0  0  0  0  0  0  0  0  0  0  0
  -27.0398  -27.6681   21.0310 C   0  0  0  0  0  0  0  0  0  0  0  0
  -20.4168  -27.0172   22.7307 C   0  0  0  0  0  0  0  0  0  0  0  0
  -19.2827  -26.2101   22.6403 C   0  0  0  0  0  0  0  0  0  0  0  0
  -25.4942  -16.0103   20.9312 C   0  0  0  0  0  0  0  0  0  0  0  0
  -25.0956  -28.9258   20.2906 C   0  0  0  0  0  0  0  0  0  0  0  0
  -25.5540  -13.7021   20.4946 C   0  0  0  0  0  0  0  0  0  0  0  0
  -24.3728  -11.1873   20.7462 C   0  0  0  0  0  0  0  0  0  0  0  0
  -26.2379  -12.6718   21.1399 C   0  0  0  0  0  0  0  0  0  0  0  0
  -23.4916  -19.3035   22.6756 C   0  0  0  0  0  0  0  0  0  0  0  0
  -23.0024  -21.1455   23.7721 C   0  0  0  0  0  0  0  0  0  0  0  0
  -21.4687  -29.2818   22.9953 C   0  0  0  0  0  0  0  0  0  0  0  0
  -25.4248  -20.5331   23.8442 C   0  0  0  0  0  0  0  0  0  0  0  0
  -28.2164  -24.4958   20.6062 C   0  0  0  0  0  0  0  0  0  0  0  0
  -30.1131  -26.1061   22.6875 C   0  0  0  0  0  0  0  0  0  0  0  0
  -30.7169  -28.9767   24.4317 C   0  0  0  0  0  0  0  0  0  0  0  0
  -18.3601  -23.8816   22.3700 C   0  0  0  0  0  0  0  0  0  0  0  0
  -29.7063  -19.7654   19.3974 C   0  0  0  0  0  0  0  0  0  0  0  0
  -28.6245  -26.6460   19.3549 C   0  0  0  0  0  0  0  0  0  0  0  0
  -27.8708  -27.1411   22.1713 C   0  0  0  0  0  0  0  0  0  0  0  0
  -29.7910  -20.6537   20.6359 C   0  0  0  0  0  0  0  0  0  0  0  0
  -18.0201  -20.4413   23.2220 C   0  0  0  0  0  0  0  0  0  0  0  0
  -28.4296  -21.2676   20.9466 C   0  0  0  0  0  0  0  0  0  0  0  0
  -19.4601  -19.9232   23.2196 C   0  0  0  0  0  0  0  0  0  0  0  0
  -17.7878  -21.4761   22.1225 C   0  0  0  0  0  0  0  0  0  0  0  0
  -20.1765  -22.0789   22.1120 C   0  0  0  0  0  0  0  0  0  0  0  0
  -27.9505  -22.1589   19.7944 C   0  0  1  0  0  0  0  0  0  0  0  0
  -29.0761  -25.7218   20.4815 C   0  0  1  0  0  0  0  0  0  0  0  0
  -20.4760  -21.0820   23.2434 C   0  0  2  0  0  0  0  0  0  0  0  0
  -21.7809  -26.4052   22.6515 C   0  0  0  0  0  0  0  0  0  0  0  0
  -21.1800  -32.9946   20.8707 C   0  0  0  0  0  0  0  0  0  0  0  0
  -32.3219  -29.9799   26.0793 C   0  0  0  0  0  0  0  0  0  0  0  0
  -28.8401  -24.4654   24.9229 C   0  0  0  0  0  0  0  0  0  0  0  0
  -29.7471  -26.1253   26.5631 C   0  0  0  0  0  0  0  0  0  0  0  0
  -31.3093  -24.7934   25.1460 C   0  0  0  0  0  0  0  0  0  0  0  0
  -22.7113  -31.9817   23.2924 C   0  0  0  0  0  0  0  0  0  0  0  0
  -31.4884  -31.1251   22.5481 C   0  0  0  0  0  0  0  0  0  0  0  0
  -22.4709  -32.1850   20.8065 C   0  0  0  0  0  0  0  0  0  0  0  0
  -23.9976  -30.4007   21.7988 C   0  0  0  0  0  0  0  0  0  1  0  0
  -29.9480  -26.6431   24.0887 C   0  0  1  0  0  0  0  0  0  0  0  0
  -31.9791  -29.8013   24.6085 C   0  0  2  0  0  0  0  0  0  0  0  0
  -29.9442  -25.5152   25.1589 C   0  0  0  0  0  0  0  0  0  0  0  0
  -22.6837  -31.1883   21.9731 C   0  0  1  0  0  0  0  0  0  0  0  0
  -22.1736  -19.4485   22.5148 N   0  0  0  0  0  0  0  0  0  0  0  0
  -21.9060  -20.5773   23.1932 N   0  0  0  0  0  0  0  0  0  0  0  0
  -29.0722  -26.3808   21.7891 N   0  0  0  0  0  0  0  0  0  0  0  0
  -18.7846  -22.5455   22.2103 N   0  0  0  0  0  0  0  0  0  0  0  0
  -22.9117  -22.2846   24.4909 N   0  0  0  0  0  0  0  0  0  0  0  0
  -26.3852  -19.6014   23.4272 N   0  0  0  0  0  0  0  0  0  0  0  0
  -19.3975  -24.8076   22.4742 N   0  0  0  0  0  0  0  0  0  0  0  0
  -21.5652  -30.2586   22.0247 N   0  0  0  0  0  0  0  0  0  0  0  0
  -28.6328  -23.4348   19.8249 N   0  0  0  0  0  0  0  0  0  0  0  0
  -31.0004  -27.6368   24.2716 N   0  0  0  0  0  0  0  0  0  0  0  0
  -31.8062  -31.1502   23.9991 N   0  3  0  0  0  0  0  0  0  0  0  0
  -22.2846  -29.0918   23.8935 O   0  0  0  0  0  0  0  0  0  0  0  0
  -25.7786  -21.5015   24.5587 O   0  0  0  0  0  0  0  0  0  0  0  0
  -27.2479  -24.5107   21.3569 O   0  0  0  0  0  0  0  0  0  0  0  0
  -31.1314  -25.4727   22.3986 O   0  0  0  0  0  0  0  0  0  0  0  0
  -29.5917  -29.4712   24.4388 O   0  0  0  0  0  0  0  0  0  0  0  0
  -17.1647  -24.1790   22.4386 O   0  0  0  0  0  0  0  0  0  0  0  0
  -26.1386  -14.9512   20.3695 O   0  0  0  0  0  0  0  0  0  0  0  0
  -23.9825  -29.6513   20.5846 O   0  0  0  0  0  0  0  0  0  1  0  0
  -23.8049   -9.9803   20.8683 F   0  0  0  0  0  0  0  0  0  0  0  0
  -27.4620  -12.8842   21.6419 F   0  0  0  0  0  0  0  0  0  0  0  0
  1  2  1  0  0  0  0
  1  7  2  0  0  0  0
  2  8  2  0  0  0  0
  3  6  2  0  0  0  0
  3 10  1  0  0  0  0
  4 11  2  0  0  0  0
  4 18  1  0  0  0  0
  5 12  1  0  0  0  0
  5 18  2  0  0  0  0
  6 19  1  0  0  0  0
  7 21  1  0  0  0  0
  8 23  1  0  0  0  0
  9 13  2  0  0  0  0
  9 22  1  0  0  0  0
 10 26  2  0  0  0  0
 11 27  1  0  0  0  0
 12 27  2  0  0  0  0
 13 28  1  0  0  0  0
 14 15  2  0  0  0  0
 14 29  1  0  0  0  0
 15 30  1  0  0  0  0
 16 24  1  0  0  0  0
 16 28  2  0  0  0  0
 17 30  2  0  0  0  0
 17 31  1  0  0  0  0
 18 32  1  0  0  0  0
 19 25  2  0  0  0  0
 19 34  1  0  0  0  0
 20 32  1  0  0  0  0
 20 33  2  0  0  0  0
 20 35  1  0  0  0  0
 21 23  2  0  0  0  0
 21 40  1  0  0  0  0
 22 24  2  0  0  0  0
 22 41  1  0  0  0  0
 23 49  1  0  0  0  0
 24 42  1  0  0  0  0
 25 26  1  0  0  0  0
 25 52  1  0  0  0  0
 26 72  1  0  0  0  0
 27 83  1  0  0  0  0
 28 84  1  0  0  0  0
 29 31  2  0  0  0  0
 29 83  1  0  0  0  0
 30 85  1  0  0  0  0
 31 86  1  0  0  0  0
 32 66  2  0  0  0  0
 33 67  1  0  0  0  0
 33 70  1  0  0  0  0
 34 73  1  0  0  0  0
 34 77  2  0  0  0  0
 35 71  1  0  0  0  0
 35 78  2  0  0  0  0
 36 50  1  0  0  0  0
 36 74  1  0  0  0  0
 36 79  2  0  0  0  0
 37 62  1  0  0  0  0
 37 68  1  0  0  0  0
 37 80  2  0  0  0  0
 38 63  1  0  0  0  0
 38 75  1  0  0  0  0
 38 81  2  0  0  0  0
 39 69  1  0  0  0  0
 39 72  1  0  0  0  0
 39 82  2  0  0  0  0
 40 43  1  0  0  0  0
 41 50  1  0  0  0  0
 42 68  1  0  0  0  0
 43 45  1  0  0  0  0
 44 46  1  0  0  0  0
 44 47  1  0  0  0  0
 45 49  1  0  0  0  0
 46 51  1  0  0  0  0
 47 69  1  0  0  0  0
 48 51  1  0  0  0  0
 48 69  1  0  0  0  0
 49 74  1  0  0  0  0
 50 68  1  0  0  0  0
 51 67  1  0  0  0  0
 53 60  1  0  0  0  0
 54 63  1  0  0  0  0
 55 64  1  0  0  0  0
 56 64  1  0  0  0  0
 57 64  1  0  0  0  0
 58 65  1  0  0  0  0
 59 76  1  0  0  0  0
 60 65  1  0  0  0  0
 61 65  1  0  0  0  0
 61 84  1  0  0  0  0
 62 64  1  0  0  0  0
 62 75  1  0  0  0  0
 63 76  1  0  0  0  0
 65 73  1  0  0  0  0
 66 67  1  0  0  0  0
M  CHG  1  76   1
M  ISO  4  39 100  61 101  72 100  84 101
M  END
> <Batch ID>
0057

> <Smiles>
CCC(C)(NC(=O)c1cccc([100NH:0][100C:0](=O)N2CCCC(n3nc(-c4ccc(Oc5ccc(F)cc5F)cc4)c(C(N)=O)c3N)C2)c1C)[101CH2:1][101O:1]c1ccc2c(c1)CN(C(=O)C(NC(=O)C(C)NC)C(C)(C)C)C(C(=O)NC1CCCc3ccccc31)C2

> <Shape>
0.208

> <Color>
0.072

> <Negative vol penalty>
0.000

$$$$

  -OEChem-04042322553D

 84 92  0     1  0  0  0  0  0999 V2000
  -19.6888  -27.8882   26.7626 C   0  0  0  0  0  0  0  0  0  0  0  0
  -20.9087  -27.4183   26.2867 C   0  0  0  0  0  0  0  0  0  0  0  0
  -32.4598  -19.0927   20.3759 C   0  0  0  0  0  0  0  0  0  0  0  0
  -22.8639  -11.9152   21.9674 C   0  0  0  0  0  0  0  0  0  0  0  0
  -22.8749  -14.3166   22.2323 C   0  0  0  0  0  0  0  0  0  0  0  0
  -31.6494  -20.2148   20.5479 C   0  0  0  0  0  0  0  0  0  0  0  0
  -18.7184  -28.3363   25.8673 C   0  0  0  0  0  0  0  0  0  0  0  0
  -21.1585  -27.3953   24.9150 C   0  0  0  0  0  0  0  0  0  0  0  0
  -26.5282  -28.3645   22.1343 C   0  0  0  0  0  0  0  0  0  0  0  0
  -31.8915  -17.8191   20.3511 C   0  0  0  0  0  0  0  0  0  0  0  0
  -21.9667  -11.8021   23.0293 C   0  0  0  0  0  0  0  0  0  0  0  0
  -21.9776  -14.2035   23.2943 C   0  0  0  0  0  0  0  0  0  0  0  0
  -27.4918  -27.4945   21.6261 C   0  0  0  0  0  0  0  0  0  0  0  0
  -18.6579  -13.7246   23.7079 C   0  0  0  0  0  0  0  0  0  0  0  0
  -17.5764  -14.6049   23.7370 C   0  0  0  0  0  0  0  0  0  0  0  0
  -29.7023  -18.7898   20.6704 C   0  0  0  0  0  0  0  0  0  0  0  0
  -26.5211  -27.7127   19.4285 C   0  0  0  0  0  0  0  0  0  0  0  0
  -18.3271  -15.4567   25.8696 C   0  0  0  0  0  0  0  0  0  0  0  0
  -23.3181  -13.1725   21.5689 C   0  0  0  0  0  0  0  0  0  0  0  0
  -30.2706  -20.0634   20.6952 C   0  0  0  0  0  0  0  0  0  0  0  0
  -23.9336  -13.4421   19.1080 C   0  0  0  0  0  0  0  0  0  0  0  0
  -18.9602  -28.3277   24.4845 C   0  0  0  0  0  0  0  0  0  0  0  0
  -25.5455  -28.9075   21.2942 C   0  0  0  0  0  0  0  0  0  0  0  0
  -20.1900  -27.8424   24.0003 C   0  0  0  0  0  0  0  0  0  0  0  0
  -25.5477  -28.5914   19.9281 C   0  0  0  0  0  0  0  0  0  0  0  0
  -30.5127  -17.6676   20.4984 C   0  0  0  0  0  0  0  0  0  0  0  0
  -21.5235  -12.9462   23.6927 C   0  0  0  0  0  0  0  0  0  0  0  0
  -27.4866  -27.1662   20.2736 C   0  0  0  0  0  0  0  0  0  0  0  0
  -19.5741  -13.7103   24.7596 C   0  0  0  0  0  0  0  0  0  0  0  0
  -17.4109  -15.4710   24.8178 C   0  0  0  0  0  0  0  0  0  0  0  0
  -19.4086  -14.5763   25.8405 C   0  0  0  0  0  0  0  0  0  0  0  0
  -24.2454  -13.2899   20.4723 C   0  0  0  0  0  0  0  0  0  0  0  0
  -25.1544  -13.5065   18.4819 C   0  0  0  0  0  0  0  0  0  0  0  0
  -29.4114  -21.2513   20.8769 C   0  0  0  0  0  0  0  0  0  0  0  0
  -22.6548  -13.5185   18.4641 C   0  0  0  0  0  0  0  0  0  0  0  0
  -22.3732  -28.7558   21.1627 C   0  0  0  0  0  0  0  0  0  0  0  0
  -22.7550  -30.9512   18.8055 C   0  0  0  0  0  0  0  0  0  0  0  0
  -28.6345  -23.4025   19.9042 C   0  0  0  0  0  0  0  0  0  0  0  0
  -24.7773  -32.3215   16.4223 C   0  0  0  0  0  0  0  0  0  0  0  0
  -30.5982  -15.1568   20.3113 C   0  0  0  0  0  0  0  0  0  0  0  0
  -17.8628  -28.7779   23.5529 C   0  0  0  0  0  0  0  0  0  0  0  0
  -24.5293  -29.8654   21.8528 C   0  0  0  0  0  0  0  0  0  0  0  0
  -24.5265  -29.1634   18.9802 C   0  0  0  0  0  0  0  0  0  0  0  0
  -18.3488  -29.0706   22.1358 C   0  0  0  0  0  0  0  0  0  0  0  0
  -29.6791  -12.0043   18.9351 C   0  0  0  0  0  0  0  0  0  0  0  0
  -19.2581  -27.9501   21.6411 C   0  0  0  0  0  0  0  0  0  0  0  0
  -28.1526  -11.9926   19.0434 C   0  0  0  0  0  0  0  0  0  0  0  0
  -30.3275  -12.6930   20.1347 C   0  0  0  0  0  0  0  0  0  0  0  0
  -28.2967  -14.0299   20.5320 C   0  0  0  0  0  0  0  0  0  0  0  0
  -20.5079  -27.8249   22.5209 C   0  0  1  0  0  0  0  0  0  0  0  0
  -23.2640  -29.9556   21.0052 C   0  0  1  0  0  0  0  0  0  0  0  0
  -27.5961  -13.4041   19.3150 C   0  0  2  0  0  0  0  0  0  0  0  0
  -24.7979  -34.0745   14.6268 C   0  0  0  0  0  0  0  0  0  0  0  0
  -21.0933  -29.1279   17.0098 C   0  0  0  0  0  0  0  0  0  0  0  0
  -21.9352  -30.4196   15.0372 C   0  0  0  0  0  0  0  0  0  0  0  0
  -20.5756  -31.5645   16.7874 C   0  0  0  0  0  0  0  0  0  0  0  0
  -26.9743  -33.8069   17.7361 C   0  0  0  0  0  0  0  0  0  0  0  0
  -28.8589  -24.2296   18.6588 C   0  0  0  0  0  0  0  0  0  0  0  0
  -28.0481  -25.5156   18.6561 C   0  0  0  0  0  0  0  0  0  1  0  0
  -22.9556  -30.8907   17.3104 C   0  0  1  0  0  0  0  0  0  0  0  0
  -25.1007  -33.7658   16.0848 C   0  0  2  0  0  0  0  0  0  0  0  0
  -21.6581  -30.4882   16.5542 C   0  0  0  0  0  0  0  0  0  0  0  0
  -25.5611  -13.2593   20.7003 N   0  0  0  0  0  0  0  0  0  0  0  0
  -26.0869  -13.3930   19.4708 N   0  0  0  0  0  0  0  0  0  0  0  0
  -23.5499  -30.0904   19.5754 N   0  0  0  0  0  0  0  0  0  0  0  0
  -29.7539  -14.0265   20.3283 N   0  0  0  0  0  0  0  0  0  0  0  0
  -25.5106  -13.6484   17.1875 N   0  0  0  0  0  0  0  0  0  0  0  0
  -21.5018  -13.4356   19.2565 N   0  0  0  0  0  0  0  0  0  0  0  0
  -29.9363  -16.3735   20.4731 N   0  0  0  0  0  0  0  0  0  0  0  0
  -29.4039  -22.1793   19.9099 N   0  0  0  0  0  0  0  0  0  0  0  0
  -21.4613  -28.8638   22.1953 N   0  0  0  0  0  0  0  0  0  0  0  0
  -23.4979  -32.1872   16.9186 N   0  0  0  0  0  0  0  0  0  0  0  0
  -28.6932  -21.3320   21.9966 N   0  3  0  0  0  0  0  0  0  0  0  0
  -26.5430  -34.0457   16.3346 N   0  3  0  0  0  0  0  0  0  0  0  0
  -22.5381  -13.6398   17.2211 O   0  0  0  0  0  0  0  0  0  0  0  0
  -22.5027  -27.8033   20.4027 O   0  0  0  0  0  0  0  0  0  0  0  0
  -21.9286  -31.7386   19.2733 O   0  0  0  0  0  0  0  0  0  0  0  0
  -27.8938  -23.6971   20.8308 O   0  0  0  0  0  0  0  0  0  0  0  0
  -25.5782  -31.4038   16.2585 O   0  0  0  0  0  0  0  0  0  0  0  0
  -31.8153  -15.0552   20.1369 O   0  0  0  0  0  0  0  0  0  0  0  0
  -20.6477  -12.8363   24.7289 O   0  0  0  0  0  0  0  0  0  0  0  0
  -28.4256  -26.3168   19.7750 O   0  0  0  0  0  0  0  0  0  1  0  0
  -16.3731  -16.3173   24.8449 F   0  0  0  0  0  0  0  0  0  0  0  0
  -20.2861  -14.5680   26.8533 F   0  0  0  0  0  0  0  0  0  0  0  0
  1  2  1  0  0  0  0
  1  7  2  0  0  0  0
  2  8  2  0  0  0  0
  3  6  2  0  0  0  0
  3 10  1  0  0  0  0
  4 11  2  0  0  0  0
  4 19  1  0  0  0  0
  5 12  1  0  0  0  0
  5 19  2  0  0  0  0
  6 20  1  0  0  0  0
  7 22  1  0  0  0  0
  8 24  1  0  0  0  0
  9 13  2  0  0  0  0
  9 23  1  0  0  0  0
 10 26  2  0  0  0  0
 11 27  1  0  0  0  0
 12 27  2  0  0  0  0
 13 28  1  0  0  0  0
 14 15  2  0  0  0  0
 14 29  1  0  0  0  0
 15 30  1  0  0  0  0
 16 20  2  0  0  0  0
 16 26  1  0  0  0  0
 17 25  1  0  0  0  0
 17 28  2  0  0  0  0
 18 30  2  0  0  0  0
 18 31  1  0  0  0  0
 19 32  1  0  0  0  0
 20 34  1  0  0  0  0
 21 32  1  0  0  0  0
 21 33  2  0  0  0  0
 21 35  1  0  0  0  0
 22 24  2  0  0  0  0
 22 41  1  0  0  0  0
 23 25  2  0  0  0  0
 23 42  1  0  0  0  0
 24 50  1  0  0  0  0
 25 43  1  0  0  0  0
 26 69  1  0  0  0  0
 27 81  1  0  0  0  0
 28 82  1  0  0  0  0
 29 31  2  0  0  0  0
 29 81  1  0  0  0  0
 30 83  1  0  0  0  0
 31 84  1  0  0  0  0
 32 63  2  0  0  0  0
 33 64  1  0  0  0  0
 33 67  1  0  0  0  0
 34 70  1  0  0  0  0
 34 73  2  0  0  0  0
 35 68  1  0  0  0  0
 35 75  2  0  0  0  0
 36 51  1  0  0  0  0
 36 71  1  0  0  0  0
 36 76  2  0  0  0  0
 37 60  1  0  0  0  0
 37 65  1  0  0  0  0
 37 77  2  0  0  0  0
 38 58  1  0  0  0  0
 38 70  1  0  0  0  0
 38 78  2  0  0  0  0
 39 61  1  0  0  0  0
 39 72  1  0  0  0  0
 39 79  2  0  0  0  0
 40 66  1  0  0  0  0
 40 69  1  0  0  0  0
 40 80  2  0  0  0  0
 41 44  1  0  0  0  0
 42 51  1  0  0  0  0
 43 65  1  0  0  0  0
 44 46  1  0  0  0  0
 45 47  1  0  0  0  0
 45 48  1  0  0  0  0
 46 50  1  0  0  0  0
 47 52  1  0  0  0  0
 48 66  1  0  0  0  0
 49 52  1  0  0  0  0
 49 66  1  0  0  0  0
 50 71  1  0  0  0  0
 51 65  1  0  0  0  0
 52 64  1  0  0  0  0
 53 61  1  0  0  0  0
 54 62  1  0  0  0  0
 55 62  1  0  0  0  0
 56 62  1  0  0  0  0
 57 74  1  0  0  0  0
 58 59  1  0  0  0  0
 59 82  1  0  0  0  0
 60 62  1  0  0  0  0
 60 72  1  0  0  0  0
 61 74  1  0  0  0  0
 63 64  1  0  0  0  0
M  CHG  2  73   1  74   1
M  ISO  4  40 100  59 101  69 100  82 101
M  END
> <Batch ID>
0057

> <Smiles>
CNC(C)C(=O)NC(C(=O)N1Cc2cc([101O:1][101CH2:1]CC(=O)NC(=N)c3cccc([100NH:0][100C:0](=O)N4CCCC(n5nc(-c6ccc(Oc7ccc(F)cc7F)cc6)c(C(N)=O)c5N)C4)c3)ccc2CC1C(=O)NC1CCCc2ccccc21)C(C)(C)C

> <Shape>
0.243

> <Color>
0.098

> <Negative vol penalty>
0.000

$$$$

  -OEChem-04042322553D

 85 93  0     1  0  0  0  0  0999 V2000
  -17.8101  -25.9177   23.2936 C   0  0  0  0  0  0  0  0  0  0  0  0
  -18.9164  -25.7023   22.4781 C   0  0  0  0  0  0  0  0  0  0  0  0
  -22.4866  -24.3263   18.2694 C   0  0  0  0  0  0  0  0  0  0  0  0
  -26.6820  -14.4840   22.7636 C   0  0  0  0  0  0  0  0  0  0  0  0
  -26.9601  -15.2348   20.4841 C   0  0  0  0  0  0  0  0  0  0  0  0
  -17.4019  -27.2190   23.5833 C   0  0  0  0  0  0  0  0  0  0  0  0
  -19.6145  -26.7881   21.9509 C   0  0  0  0  0  0  0  0  0  0  0  0
  -25.6437  -27.1478   20.9383 C   0  0  0  0  0  0  0  0  0  0  0  0
  -23.1034  -24.0772   17.0434 C   0  0  0  0  0  0  0  0  0  0  0  0
  -23.0154  -23.7816   19.4397 C   0  0  0  0  0  0  0  0  0  0  0  0
  -26.3405  -13.2124   22.3031 C   0  0  0  0  0  0  0  0  0  0  0  0
  -26.6187  -13.9632   20.0236 C   0  0  0  0  0  0  0  0  0  0  0  0
  -26.4136  -26.9768   19.7886 C   0  0  0  0  0  0  0  0  0  0  0  0
  -25.7467   -9.6707   21.7383 C   0  0  0  0  0  0  0  0  0  0  0  0
  -26.3270   -8.5733   22.3743 C   0  0  0  0  0  0  0  0  0  0  0  0
  -26.3949  -29.3620   19.4286 C   0  0  0  0  0  0  0  0  0  0  0  0
  -28.5210   -9.3780   21.7613 C   0  0  0  0  0  0  0  0  0  0  0  0
  -26.9917  -15.4953   21.8541 C   0  0  0  0  0  0  0  0  0  0  0  0
  -28.6320  -17.2829   22.6422 C   0  0  0  0  0  0  0  0  0  0  0  0
  -18.1011  -28.3214   23.0672 C   0  0  0  0  0  0  0  0  0  0  0  0
  -25.2338  -28.4283   21.3365 C   0  0  0  0  0  0  0  0  0  0  0  0
  -19.2145  -28.1054   22.2328 C   0  0  0  0  0  0  0  0  0  0  0  0
  -25.6220  -29.5468   20.5852 C   0  0  0  0  0  0  0  0  0  0  0  0
  -24.2489  -23.2832   16.9875 C   0  0  0  0  0  0  0  0  0  0  0  0
  -24.7777  -22.7384   18.1577 C   0  0  0  0  0  0  0  0  0  0  0  0
  -24.1609  -22.9876   19.3838 C   0  0  0  0  0  0  0  0  0  0  0  0
  -26.3089  -12.9520   20.9331 C   0  0  0  0  0  0  0  0  0  0  0  0
  -26.7869  -28.0837   19.0320 C   0  0  0  0  0  0  0  0  0  0  0  0
  -26.5536  -10.6218   21.1137 C   0  0  0  0  0  0  0  0  0  0  0  0
  -27.7141   -8.4269   22.3858 C   0  0  0  0  0  0  0  0  0  0  0  0
  -27.9407  -10.4754   21.1252 C   0  0  0  0  0  0  0  0  0  0  0  0
  -27.3439  -16.8092   22.3292 C   0  0  0  0  0  0  0  0  0  0  0  0
  -28.4321  -18.5809   23.0445 C   0  0  0  0  0  0  0  0  0  0  0  0
  -29.8963  -16.6100   22.5753 C   0  0  0  0  0  0  0  0  0  0  0  0
  -22.4248  -29.8637   21.7279 C   0  0  0  0  0  0  0  0  0  0  0  0
  -24.2575  -32.2717   22.8963 C   0  0  0  0  0  0  0  0  0  0  0  0
  -26.0840  -25.0924   14.9622 C   0  0  0  0  0  0  0  0  0  0  0  0
  -27.3030  -33.8085   22.9955 C   0  0  0  0  0  0  0  0  0  0  0  0
  -24.1754  -22.6078   21.8741 C   0  0  0  0  0  0  0  0  0  0  0  0
  -17.5938  -29.7091   23.3696 C   0  0  0  0  0  0  0  0  0  0  0  0
  -24.4261  -28.5984   22.5939 C   0  0  0  0  0  0  0  0  0  0  0  0
  -25.2248  -30.9447   20.9809 C   0  0  0  0  0  0  0  0  0  0  0  0
  -18.6125  -30.8075   23.0761 C   0  0  0  0  0  0  0  0  0  0  0  0
  -25.1455  -21.4059   25.0822 C   0  0  0  0  0  0  0  0  0  0  0  0
  -19.2538  -30.5893   21.7093 C   0  0  0  0  0  0  0  0  0  0  0  0
  -25.9418  -20.1371   24.7684 C   0  0  0  0  0  0  0  0  0  0  0  0
  -23.9652  -21.5849   24.1290 C   0  0  0  0  0  0  0  0  0  0  0  0
  -25.1026  -20.2643   22.3879 C   0  0  0  0  0  0  0  0  0  0  0  0
  -20.0125  -29.2576   21.6621 C   0  0  1  0  0  0  0  0  0  0  0  0
  -23.6317  -29.9005   22.6223 C   0  0  1  0  0  0  0  0  0  0  0  0
  -26.3399  -20.0751   23.2807 C   0  0  2  0  0  0  0  0  0  0  0  0
  -26.0070  -21.8873   18.0928 C   0  0  0  0  0  0  0  0  0  0  0  0
  -28.4841  -35.7770   24.0091 C   0  0  0  0  0  0  0  0  0  0  0  0
  -22.8685  -34.1248   20.9097 C   0  0  0  0  0  0  0  0  0  0  0  0
  -24.7000  -35.7893   21.2884 C   0  0  0  0  0  0  0  0  0  0  0  0
  -23.2244  -35.1089   23.1811 C   0  0  0  0  0  0  0  0  0  0  0  0
  -29.2341  -32.0686   24.4108 C   0  0  0  0  0  0  0  0  0  0  0  0
  -24.8928  -23.0310   15.6549 C   0  0  0  0  0  0  0  0  0  0  0  0
  -27.4814  -25.6814   14.8876 C   0  0  0  0  0  0  0  0  0  0  0  0
  -27.6223  -26.9548   15.7138 C   0  0  0  0  0  0  0  0  0  0  0  0
  -27.3766  -26.6957   17.1931 C   0  0  0  0  0  0  0  0  0  1  0  0
  -24.9442  -33.4776   22.3020 C   0  0  1  0  0  0  0  0  0  0  0  0
  -28.1448  -34.3021   24.1584 C   0  0  2  0  0  0  0  0  0  0  0  0
  -23.9403  -34.5988   21.9115 C   0  0  0  0  0  0  0  0  0  0  0  0
  -26.3957  -17.7311   22.5166 N   0  0  0  0  0  0  0  0  0  0  0  0
  -27.0887  -18.7971   22.9519 N   0  0  0  0  0  0  0  0  0  0  0  0
  -24.4299  -31.0585   22.2149 N   0  0  0  0  0  0  0  0  0  0  0  0
  -24.4187  -21.5191   22.7381 N   0  0  0  0  0  0  0  0  0  0  0  0
  -29.2762  -19.5469   23.4649 N   0  0  0  0  0  0  0  0  0  0  0  0
  -29.9218  -15.2778   22.1404 N   0  0  0  0  0  0  0  0  0  0  0  0
  -24.6812  -22.4449   20.5848 N   0  0  0  0  0  0  0  0  0  0  0  0
  -21.2856  -29.3769   22.3400 N   0  0  0  0  0  0  0  0  0  0  0  0
  -26.0983  -23.8063   15.4820 N   0  0  0  0  0  0  0  0  0  0  0  0
  -25.9543  -33.8906   23.2703 N   0  0  0  0  0  0  0  0  0  0  0  0
  -29.4185  -33.5327   24.2392 N   0  3  0  0  0  0  0  0  0  0  0  0
  -30.9695  -17.1681   22.9073 O   0  0  0  0  0  0  0  0  0  0  0  0
  -22.5198  -30.2498   20.5688 O   0  0  0  0  0  0  0  0  0  0  0  0
  -23.5985  -32.4000   23.9311 O   0  0  0  0  0  0  0  0  0  0  0  0
  -25.0771  -25.6965   14.6024 O   0  0  0  0  0  0  0  0  0  0  0  0
  -27.7929  -33.3951   21.9469 O   0  0  0  0  0  0  0  0  0  0  0  0
  -23.5872  -23.6220   22.2580 O   0  0  0  0  0  0  0  0  0  0  0  0
  -25.9761  -11.7112   20.4834 O   0  0  0  0  0  0  0  0  0  0  0  0
  -27.5378  -27.9195   17.9090 O   0  0  0  0  0  0  0  0  0  1  0  0
  -28.2712   -7.3737   22.9980 F   0  0  0  0  0  0  0  0  0  0  0  0
  -28.7211  -11.3865   20.5279 F   0  0  0  0  0  0  0  0  0  0  0  0
  1  2  1  0  0  0  0
  1  6  2  0  0  0  0
  2  7  2  0  0  0  0
  3  9  2  0  0  0  0
  3 10  1  0  0  0  0
  4 11  2  0  0  0  0
  4 18  1  0  0  0  0
  5 12  1  0  0  0  0
  5 18  2  0  0  0  0
  6 20  1  0  0  0  0
  7 22  1  0  0  0  0
  8 13  2  0  0  0  0
  8 21  1  0  0  0  0
  9 24  1  0  0  0  0
 10 26  2  0  0  0  0
 11 27  1  0  0  0  0
 12 27  2  0  0  0  0
 13 28  1  0  0  0  0
 14 15  2  0  0  0  0
 14 29  1  0  0  0  0
 15 30  1  0  0  0  0
 16 23  1  0  0  0  0
 16 28  2  0  0  0  0
 17 30  2  0  0  0  0
 17 31  1  0  0  0  0
 18 32  1  0  0  0  0
 19 32  1  0  0  0  0
 19 33  2  0  0  0  0
 19 34  1  0  0  0  0
 20 22  2  0  0  0  0
 20 40  1  0  0  0  0
 21 23  2  0  0  0  0
 21 41  1  0  0  0  0
 22 49  1  0  0  0  0
 23 42  1  0  0  0  0
 24 25  2  0  0  0  0
 24 58  1  0  0  0  0
 25 26  1  0  0  0  0
 25 52  1  0  0  0  0
 26 71  1  0  0  0  0
 27 82  1  0  0  0  0
 28 83  1  0  0  0  0
 29 31  2  0  0  0  0
 29 82  1  0  0  0  0
 30 84  1  0  0  0  0
 31 85  1  0  0  0  0
 32 65  2  0  0  0  0
 33 66  1  0  0  0  0
 33 69  1  0  0  0  0
 34 70  1  0  0  0  0
 34 76  2  0  0  0  0
 35 50  1  0  0  0  0
 35 72  1  0  0  0  0
 35 77  2  0  0  0  0
 36 62  1  0  0  0  0
 36 67  1  0  0  0  0
 36 78  2  0  0  0  0
 37 59  1  0  0  0  0
 37 73  1  0  0  0  0
 37 79  2  0  0  0  0
 38 63  1  0  0  0  0
 38 74  1  0  0  0  0
 38 80  2  0  0  0  0
 39 68  1  0  0  0  0
 39 71  1  0  0  0  0
 39 81  2  0  0  0  0
 40 43  1  0  0  0  0
 41 50  1  0  0  0  0
 42 67  1  0  0  0  0
 43 45  1  0  0  0  0
 44 46  1  0  0  0  0
 44 47  1  0  0  0  0
 45 49  1  0  0  0  0
 46 51  1  0  0  0  0
 47 68  1  0  0  0  0
 48 51  1  0  0  0  0
 48 68  1  0  0  0  0
 49 72  1  0  0  0  0
 50 67  1  0  0  0  0
 51 66  1  0  0  0  0
 53 63  1  0  0  0  0
 54 64  1  0  0  0  0
 55 64  1  0  0  0  0
 56 64  1  0  0  0  0
 57 75  1  0  0  0  0
 58 73  1  0  0  0  0
 59 60  1  0  0  0  0
 60 61  1  0  0  0  0
 61 83  1  0  0  0  0
 62 64  1  0  0  0  0
 62 74  1  0  0  0  0
 63 75  1  0  0  0  0
 65 66  1  0  0  0  0
M  CHG  1  75   1
M  ISO  4  39 100  61 101  71 100  83 101
M  END
> <Batch ID>
0057

> <Smiles>
CNC(C)C(=O)NC(C(=O)N1Cc2cc([101O:1][101CH2:1]CCC(=O)NCc3cccc([100NH:0][100C:0](=O)N4CCCC(n5nc(-c6ccc(Oc7ccc(F)cc7F)cc6)c(C(N)=O)c5N)C4)c3C)ccc2CC1C(=O)NC1CCCc2ccccc21)C(C)(C)C

> <Shape>
0.196

> <Color>
0.104

> <Negative vol penalty>
0.000

$$$$

  -OEChem-04042322553D

 85 93  0     1  0  0  0  0  0999 V2000
  -17.6809  -24.8927   25.4145 C   0  0  0  0  0  0  0  0  0  0  0  0
  -18.4189  -24.0809   24.5590 C   0  0  0  0  0  0  0  0  0  0  0  0
  -26.4074  -13.0571   21.4587 C   0  0  0  0  0  0  0  0  0  0  0  0
  -25.2246  -14.3859   19.8240 C   0  0  0  0  0  0  0  0  0  0  0  0
  -17.5774  -26.2596   25.1599 C   0  0  0  0  0  0  0  0  0  0  0  0
  -19.0529  -24.6355   23.4478 C   0  0  0  0  0  0  0  0  0  0  0  0
  -24.9108  -23.8605   19.3980 C   0  0  0  0  0  0  0  0  0  0  0  0
  -29.3554  -24.1652   20.4892 C   0  0  0  0  0  0  0  0  0  0  0  0
  -25.4340  -12.0634   21.3553 C   0  0  0  0  0  0  0  0  0  0  0  0
  -24.2512  -13.3922   19.7205 C   0  0  0  0  0  0  0  0  0  0  0  0
  -25.2861  -23.7201   18.0626 C   0  0  0  0  0  0  0  0  0  0  0  0
  -24.6485   -9.5580   19.2249 C   0  0  0  0  0  0  0  0  0  0  0  0
  -25.0803   -8.2354   19.1258 C   0  0  0  0  0  0  0  0  0  0  0  0
  -29.6009  -25.2515   19.6494 C   0  0  0  0  0  0  0  0  0  0  0  0
  -25.1034  -26.1072   17.7665 C   0  0  0  0  0  0  0  0  0  0  0  0
  -30.2463  -22.6691   18.8144 C   0  0  0  0  0  0  0  0  0  0  0  0
  -23.8840   -7.6930   21.1536 C   0  0  0  0  0  0  0  0  0  0  0  0
  -26.3027  -14.2184   20.6931 C   0  0  0  0  0  0  0  0  0  0  0  0
  -28.4875  -15.3625   20.0410 C   0  0  0  0  0  0  0  0  0  0  0  0
  -18.2184  -26.8328   24.0503 C   0  0  0  0  0  0  0  0  0  0  0  0
  -24.6179  -25.1263   19.9256 C   0  0  0  0  0  0  0  0  0  0  0  0
  -18.9567  -26.0111   23.1773 C   0  0  0  0  0  0  0  0  0  0  0  0
  -24.7271  -26.2613   19.1095 C   0  0  0  0  0  0  0  0  0  0  0  0
  -30.4917  -23.7554   17.9745 C   0  0  0  0  0  0  0  0  0  0  0  0
  -29.6782  -22.8740   20.0717 C   0  0  0  0  0  0  0  0  0  0  0  0
  -24.3559  -12.2310   20.4862 C   0  0  0  0  0  0  0  0  0  0  0  0
  -25.3797  -24.8432   17.2459 C   0  0  0  0  0  0  0  0  0  0  0  0
  -23.8345   -9.9482   20.2883 C   0  0  0  0  0  0  0  0  0  0  0  0
  -24.6980   -7.3029   20.0901 C   0  0  0  0  0  0  0  0  0  0  0  0
  -23.4522   -9.0156   21.2526 C   0  0  0  0  0  0  0  0  0  0  0  0
  -30.1690  -25.0466   18.3920 C   0  0  0  0  0  0  0  0  0  0  0  0
  -27.3076  -15.2455   20.7999 C   0  0  0  0  0  0  0  0  0  0  0  0
  -29.0944  -16.4967   20.5226 C   0  0  0  0  0  0  0  0  0  0  0  0
  -28.9900  -14.5213   18.9943 C   0  0  0  0  0  0  0  0  0  0  0  0
  -22.0413  -26.4843   21.1989 C   0  0  0  0  0  0  0  0  0  0  0  0
  -24.0941  -28.9286   21.7766 C   0  0  0  0  0  0  0  0  0  0  0  0
  -29.3631  -22.5208   15.1558 C   0  0  0  0  0  0  0  0  0  0  0  0
  -26.9835  -30.5433   20.9453 C   0  0  0  0  0  0  0  0  0  0  0  0
  -28.8728  -21.8003   22.2035 C   0  0  0  0  0  0  0  0  0  0  0  0
  -18.0387  -28.3074   23.7898 C   0  0  0  0  0  0  0  0  0  0  0  0
  -24.2403  -25.2638   21.3751 C   0  0  0  0  0  0  0  0  0  0  0  0
  -24.4429  -27.6447   19.6329 C   0  0  0  0  0  0  0  0  0  0  0  0
  -19.0503  -28.8787   22.7996 C   0  0  0  0  0  0  0  0  0  0  0  0
  -28.0648  -19.3019   24.6082 C   0  0  0  0  0  0  0  0  0  0  0  0
  -19.1735  -27.9719   21.5792 C   0  0  0  0  0  0  0  0  0  0  0  0
  -27.8928  -18.0335   23.7693 C   0  0  0  0  0  0  0  0  0  0  0  0
  -27.5414  -20.5387   23.8801 C   0  0  0  0  0  0  0  0  0  0  0  0
  -27.9102  -19.4709   21.6908 C   0  0  0  0  0  0  0  0  0  0  0  0
  -19.6794  -26.5795   21.9753 C   0  0  1  0  0  0  0  0  0  0  0  0
  -23.4662  -26.5444   21.6720 C   0  0  1  0  0  0  0  0  0  0  0  0
  -28.4822  -18.2083   22.3560 C   0  0  2  0  0  0  0  0  0  0  0  0
  -28.3787  -32.5328   21.5721 C   0  0  0  0  0  0  0  0  0  0  0  0
  -22.1133  -30.7628   20.3545 C   0  0  0  0  0  0  0  0  0  0  0  0
  -23.9344  -32.4710   20.1700 C   0  0  0  0  0  0  0  0  0  0  0  0
  -23.1399  -31.7352   22.4173 C   0  0  0  0  0  0  0  0  0  0  0  0
  -29.2979  -28.8417   21.6573 C   0  0  0  0  0  0  0  0  0  0  0  0
  -31.1045  -23.4931   16.6292 C   0  0  0  0  0  0  0  0  0  0  0  0
  -28.4267  -22.9010   14.0228 C   0  0  0  0  0  0  0  0  0  0  0  0
  -27.4591  -24.0122   14.4142 C   0  0  0  0  0  0  0  0  0  0  0  0
  -26.6152  -23.6246   15.6197 C   0  0  0  0  0  0  0  0  0  1  0  0
  -24.5340  -30.1573   21.0178 C   0  0  1  0  0  0  0  0  0  0  0  0
  -28.1356  -31.0482   21.7952 C   0  0  2  0  0  0  0  0  0  0  0  0
  -23.4340  -31.2554   20.9792 C   0  0  0  0  0  0  0  0  0  0  0  0
  -27.1711  -16.2268   21.6956 N   0  0  0  0  0  0  0  0  0  0  0  0
  -28.2732  -16.9713   21.5027 N   0  0  0  0  0  0  0  0  0  0  0  0
  -24.0714  -27.7266   21.0552 N   0  0  0  0  0  0  0  0  0  0  0  0
  -28.1465  -20.6414   22.5503 N   0  0  0  0  0  0  0  0  0  0  0  0
  -30.2450  -17.1242   20.1991 N   0  0  0  0  0  0  0  0  0  0  0  0
  -28.2406  -13.3965   18.6233 N   0  0  0  0  0  0  0  0  0  0  0  0
  -29.4297  -21.7707   20.9254 N   0  0  0  0  0  0  0  0  0  0  0  0
  -21.1072  -26.6083   22.2096 N   0  0  0  0  0  0  0  0  0  0  0  0
  -30.1353  -23.5985   15.5643 N   0  0  0  0  0  0  0  0  0  0  0  0
  -25.7868  -30.5878   21.6289 N   0  0  0  0  0  0  0  0  0  0  0  0
  -29.3873  -30.3116   21.4612 N   0  3  0  0  0  0  0  0  0  0  0  0
  -30.0795  -14.7509   18.4167 O   0  0  0  0  0  0  0  0  0  0  0  0
  -21.8068  -26.3378   20.0051 O   0  0  0  0  0  0  0  0  0  0  0  0
  -23.7890  -29.0303   22.9675 O   0  0  0  0  0  0  0  0  0  0  0  0
  -29.4154  -21.3928   15.6383 O   0  0  0  0  0  0  0  0  0  0  0  0
  -27.1299  -30.1524   19.7894 O   0  0  0  0  0  0  0  0  0  0  0  0
  -29.0150  -22.7375   22.9930 O   0  0  0  0  0  0  0  0  0  0  0  0
  -23.4060  -11.2614   20.3849 O   0  0  0  0  0  0  0  0  0  0  0  0
  -25.7453  -24.7089   15.9420 O   0  0  0  0  0  0  0  0  0  1  0  0
  -25.1114   -6.0324   19.9940 F   0  0  0  0  0  0  0  0  0  0  0  0
  -22.6694   -9.3842   22.2759 F   0  0  0  0  0  0  0  0  0  0  0  0
  -30.4585  -26.4153   17.3810 Cl  0  0  0  0  0  0  0  0  0  0  0  0
  1  2  1  0  0  0  0
  1  5  2  0  0  0  0
  2  6  2  0  0  0  0
  3  9  2  0  0  0  0
  3 18  1  0  0  0  0
  4 10  1  0  0  0  0
  4 18  2  0  0  0  0
  5 20  1  0  0  0  0
  6 22  1  0  0  0  0
  7 11  2  0  0  0  0
  7 21  1  0  0  0  0
  8 14  2  0  0  0  0
  8 25  1  0  0  0  0
  9 26  1  0  0  0  0
 10 26  2  0  0  0  0
 11 27  1  0  0  0  0
 12 13  2  0  0  0  0
 12 28  1  0  0  0  0
 13 29  1  0  0  0  0
 14 31  1  0  0  0  0
 15 23  1  0  0  0  0
 15 27  2  0  0  0  0
 16 24  1  0  0  0  0
 16 25  2  0  0  0  0
 17 29  2  0  0  0  0
 17 30  1  0  0  0  0
 18 32  1  0  0  0  0
 19 32  1  0  0  0  0
 19 33  2  0  0  0  0
 19 34  1  0  0  0  0
 20 22  2  0  0  0  0
 20 40  1  0  0  0  0
 21 23  2  0  0  0  0
 21 41  1  0  0  0  0
 22 49  1  0  0  0  0
 23 42  1  0  0  0  0
 24 31  2  0  0  0  0
 24 57  1  0  0  0  0
 25 70  1  0  0  0  0
 26 81  1  0  0  0  0
 27 82  1  0  0  0  0
 28 30  2  0  0  0  0
 28 81  1  0  0  0  0
 29 83  1  0  0  0  0
 30 84  1  0  0  0  0
 31 85  1  0  0  0  0
 32 64  2  0  0  0  0
 33 65  1  0  0  0  0
 33 68  1  0  0  0  0
 34 69  1  0  0  0  0
 34 75  2  0  0  0  0
 35 50  1  0  0  0  0
 35 71  1  0  0  0  0
 35 76  2  0  0  0  0
 36 61  1  0  0  0  0
 36 66  1  0  0  0  0
 36 77  2  0  0  0  0
 37 58  1  0  0  0  0
 37 72  1  0  0  0  0
 37 78  2  0  0  0  0
 38 62  1  0  0  0  0
 38 73  1  0  0  0  0
 38 79  2  0  0  0  0
 39 67  1  0  0  0  0
 39 70  1  0  0  0  0
 39 80  2  0  0  0  0
 40 43  1  0  0  0  0
 41 50  1  0  0  0  0
 42 66  1  0  0  0  0
 43 45  1  0  0  0  0
 44 46  1  0  0  0  0
 44 47  1  0  0  0  0
 45 49  1  0  0  0  0
 46 51  1  0  0  0  0
 47 67  1  0  0  0  0
 48 51  1  0  0  0  0
 48 67  1  0  0  0  0
 49 71  1  0  0  0  0
 50 66  1  0  0  0  0
 51 65  1  0  0  0  0
 52 62  1  0  0  0  0
 53 63  1  0  0  0  0
 54 63  1  0  0  0  0
 55 63  1  0  0  0  0
 56 74  1  0  0  0  0
 57 72  1  0  0  0  0
 58 59  1  0  0  0  0
 59 60  1  0  0  0  0
 60 82  1  0  0  0  0
 61 63  1  0  0  0  0
 61 73  1  0  0  0  0
 62 74  1  0  0  0  0
 64 65  1  0  0  0  0
M  CHG  1  74   1
M  ISO  4  39 100  60 101  70 100  82 101
M  END
> <Batch ID>
0057

> <Smiles>
CNC(C)C(=O)NC(C(=O)N1Cc2cc([101O:1][101CH2:1]CCC(=O)NCc3cc([100NH:0][100C:0](=O)N4CCCC(n5nc(-c6ccc(Oc7ccc(F)cc7F)cc6)c(C(N)=O)c5N)C4)ccc3Cl)ccc2CC1C(=O)NC1CCCc2ccccc21)C(C)(C)C

> <Shape>
0.254

> <Color>
0.055

> <Negative vol penalty>
0.000

$$$$

  -OEChem-04042322553D

 84 92  0     1  0  0  0  0  0999 V2000
  -27.6323  -37.0785   21.6084 C   0  0  0  0  0  0  0  0  0  0  0  0
  -28.0493  -35.7514   21.6262 C   0  0  0  0  0  0  0  0  0  0  0  0
  -23.9887  -12.9128   20.6828 C   0  0  0  0  0  0  0  0  0  0  0  0
  -26.3552  -12.5870   21.0443 C   0  0  0  0  0  0  0  0  0  0  0  0
  -26.4051  -37.4300   22.1690 C   0  0  0  0  0  0  0  0  0  0  0  0
  -27.2397  -34.7751   22.2057 C   0  0  0  0  0  0  0  0  0  0  0  0
  -26.9019  -30.5953   19.3667 C   0  0  0  0  0  0  0  0  0  0  0  0
  -31.9710  -22.8381   23.0426 C   0  0  0  0  0  0  0  0  0  0  0  0
  -23.8486  -11.5585   20.3797 C   0  0  0  0  0  0  0  0  0  0  0  0
  -26.2151  -11.2327   20.7413 C   0  0  0  0  0  0  0  0  0  0  0  0
  -27.9802  -29.7122   19.4028 C   0  0  0  0  0  0  0  0  0  0  0  0
  -23.6458   -8.6360   22.0682 C   0  0  0  0  0  0  0  0  0  0  0  0
  -22.5740   -7.9511   22.6407 C   0  0  0  0  0  0  0  0  0  0  0  0
  -31.1622  -22.0148   23.8259 C   0  0  0  0  0  0  0  0  0  0  0  0
  -26.7733  -28.3112   20.9519 C   0  0  0  0  0  0  0  0  0  0  0  0
  -30.6296  -22.3111   21.1036 C   0  0  0  0  0  0  0  0  0  0  0  0
  -21.7312   -7.4284   20.4376 C   0  0  0  0  0  0  0  0  0  0  0  0
  -25.2421  -13.4271   21.0151 C   0  0  0  0  0  0  0  0  0  0  0  0
  -25.2773  -15.4299   22.5946 C   0  0  0  0  0  0  0  0  0  0  0  0
  -25.5757  -36.4561   22.7471 C   0  0  0  0  0  0  0  0  0  0  0  0
  -25.7536  -30.3481   20.1327 C   0  0  0  0  0  0  0  0  0  0  0  0
  -26.0008  -35.1141   22.7758 C   0  0  0  0  0  0  0  0  0  0  0  0
  -25.6808  -29.1914   20.9218 C   0  0  0  0  0  0  0  0  0  0  0  0
  -31.7047  -22.9863   21.6814 C   0  0  0  0  0  0  0  0  0  0  0  0
  -29.8208  -21.4878   21.8869 C   0  0  0  0  0  0  0  0  0  0  0  0
  -24.9618  -10.7184   20.4090 C   0  0  0  0  0  0  0  0  0  0  0  0
  -27.9172  -28.5715   20.1977 C   0  0  0  0  0  0  0  0  0  0  0  0
  -23.7603   -8.7172   20.6804 C   0  0  0  0  0  0  0  0  0  0  0  0
  -21.6167   -7.3473   21.8255 C   0  0  0  0  0  0  0  0  0  0  0  0
  -22.8030   -8.1133   19.8651 C   0  0  0  0  0  0  0  0  0  0  0  0
  -30.0871  -21.3396   23.2481 C   0  0  0  0  0  0  0  0  0  0  0  0
  -25.3876  -14.8260   21.3277 C   0  0  0  0  0  0  0  0  0  0  0  0
  -25.4980  -16.7650   22.3590 C   0  0  0  0  0  0  0  0  0  0  0  0
  -25.0004  -14.8371   23.8704 C   0  0  0  0  0  0  0  0  0  0  0  0
  -24.2653  -31.8640   22.4972 C   0  0  0  0  0  0  0  0  0  0  0  0
  -22.0504  -29.5318   22.0763 C   0  0  0  0  0  0  0  0  0  0  0  0
  -31.3609  -25.9916   20.3430 C   0  0  0  0  0  0  0  0  0  0  0  0
  -21.3329  -26.3823   20.9752 C   0  0  0  0  0  0  0  0  0  0  0  0
  -28.3627  -20.8734   19.9265 C   0  0  0  0  0  0  0  0  0  0  0  0
  -24.2791  -36.8912   23.3828 C   0  0  0  0  0  0  0  0  0  0  0  0
  -24.5884  -31.2967   20.0621 C   0  0  0  0  0  0  0  0  0  0  0  0
  -24.4626  -28.8698   21.7472 C   0  0  0  0  0  0  0  0  0  0  0  0
  -23.3117  -35.7394   23.6431 C   0  0  0  0  0  0  0  0  0  0  0  0
  -25.7842  -19.3389   18.0098 C   0  0  0  0  0  0  0  0  0  0  0  0
  -24.0399  -34.5671   24.2929 C   0  0  0  0  0  0  0  0  0  0  0  0
  -25.4421  -18.0777   18.8064 C   0  0  0  0  0  0  0  0  0  0  0  0
  -27.2792  -19.6498   18.0547 C   0  0  0  0  0  0  0  0  0  0  0  0
  -27.5163  -18.4599   20.1987 C   0  0  0  0  0  0  0  0  0  0  0  0
  -25.1395  -34.0226   23.3731 C   0  0  1  0  0  0  0  0  0  0  0  0
  -23.6737  -31.2112   21.2801 C   0  0  1  0  0  0  0  0  0  0  0  0
  -26.0124  -18.1425   20.2368 C   0  0  2  0  0  0  0  0  0  0  0  0
  -19.4440  -24.7396   20.7991 C   0  0  0  0  0  0  0  0  0  0  0  0
  -22.2945  -28.9350   25.0586 C   0  0  0  0  0  0  0  0  0  0  0  0
  -21.1549  -26.7449   24.6426 C   0  0  0  0  0  0  0  0  0  0  0  0
  -19.9567  -28.8816   24.1720 C   0  0  0  0  0  0  0  0  0  0  0  0
  -21.5178  -26.3096   18.0223 C   0  0  0  0  0  0  0  0  0  0  0  0
  -32.5753  -23.8729   20.8387 C   0  0  0  0  0  0  0  0  0  0  0  0
  -31.2916  -27.4397   20.8022 C   0  0  0  0  0  0  0  0  0  0  0  0
  -30.2688  -28.2592   20.0305 C   0  0  0  0  0  0  0  0  0  1  0  0
  -21.8323  -28.1496   22.6429 C   0  0  1  0  0  0  0  0  0  0  0  0
  -20.2108  -25.8520   20.1010 C   0  0  2  0  0  0  0  0  0  0  0  0
  -21.3335  -28.1846   24.1151 C   0  0  0  0  0  0  0  0  0  0  0  0
  -25.6571  -15.7053   20.3591 N   0  0  0  0  0  0  0  0  0  0  0  0
  -25.7180  -16.8753   21.0175 N   0  0  0  0  0  0  0  0  0  0  0  0
  -23.3519  -29.8312   21.6495 N   0  0  0  0  0  0  0  0  0  0  0  0
  -27.7481  -19.6998   19.4412 N   0  0  0  0  0  0  0  0  0  0  0  0
  -25.5232  -17.8435   23.1704 N   0  0  0  0  0  0  0  0  0  0  0  0
  -24.7992  -13.4515   23.9337 N   0  0  0  0  0  0  0  0  0  0  0  0
  -28.7377  -20.8153   21.2684 N   0  0  0  0  0  0  0  0  0  0  0  0
  -24.5644  -33.2025   22.3285 N   0  0  0  0  0  0  0  0  0  0  0  0
  -32.3022  -25.2736   21.0666 N   0  0  0  0  0  0  0  0  0  0  0  0
  -20.9288  -27.4687   21.7218 N   0  0  0  0  0  0  0  0  0  0  0  0
  -20.7590  -25.3150   18.8235 N   0  3  0  0  0  0  0  0  0  0  0  0
  -24.9171  -15.5182   24.9204 O   0  0  0  0  0  0  0  0  0  0  0  0
  -24.4364  -31.2027   23.5146 O   0  0  0  0  0  0  0  0  0  0  0  0
  -21.0993  -30.3144   22.0081 O   0  0  0  0  0  0  0  0  0  0  0  0
  -30.6614  -25.5364   19.4422 O   0  0  0  0  0  0  0  0  0  0  0  0
  -22.4546  -25.8804   20.9965 O   0  0  0  0  0  0  0  0  0  0  0  0
  -28.5185  -21.8673   19.2124 O   0  0  0  0  0  0  0  0  0  0  0  0
  -24.8253   -9.3968   20.1135 O   0  0  0  0  0  0  0  0  0  0  0  0
  -28.9685  -27.7083   20.2352 O   0  0  0  0  0  0  0  0  0  1  0  0
  -20.5884   -6.6883   22.3754 F   0  0  0  0  0  0  0  0  0  0  0  0
  -22.9083   -8.1869   18.5312 F   0  0  0  0  0  0  0  0  0  0  0  0
  -29.1115  -20.3300   24.2550 Cl  0  0  0  0  0  0  0  0  0  0  0  0
  1  2  1  0  0  0  0
  1  5  2  0  0  0  0
  2  6  2  0  0  0  0
  3  9  2  0  0  0  0
  3 18  1  0  0  0  0
  4 10  1  0  0  0  0
  4 18  2  0  0  0  0
  5 20  1  0  0  0  0
  6 22  1  0  0  0  0
  7 11  2  0  0  0  0
  7 21  1  0  0  0  0
  8 14  2  0  0  0  0
  8 24  1  0  0  0  0
  9 26  1  0  0  0  0
 10 26  2  0  0  0  0
 11 27  1  0  0  0  0
 12 13  2  0  0  0  0
 12 28  1  0  0  0  0
 13 29  1  0  0  0  0
 14 31  1  0  0  0  0
 15 23  1  0  0  0  0
 15 27  2  0  0  0  0
 16 24  2  0  0  0  0
 16 25  1  0  0  0  0
 17 29  2  0  0  0  0
 17 30  1  0  0  0  0
 18 32  1  0  0  0  0
 19 32  1  0  0  0  0
 19 33  2  0  0  0  0
 19 34  1  0  0  0  0
 20 22  2  0  0  0  0
 20 40  1  0  0  0  0
 21 23  2  0  0  0  0
 21 41  1  0  0  0  0
 22 49  1  0  0  0  0
 23 42  1  0  0  0  0
 24 57  1  0  0  0  0
 25 31  2  0  0  0  0
 25 69  1  0  0  0  0
 26 80  1  0  0  0  0
 27 81  1  0  0  0  0
 28 30  2  0  0  0  0
 28 80  1  0  0  0  0
 29 82  1  0  0  0  0
 30 83  1  0  0  0  0
 31 84  1  0  0  0  0
 32 63  2  0  0  0  0
 33 64  1  0  0  0  0
 33 67  1  0  0  0  0
 34 68  1  0  0  0  0
 34 74  2  0  0  0  0
 35 50  1  0  0  0  0
 35 70  1  0  0  0  0
 35 75  2  0  0  0  0
 36 60  1  0  0  0  0
 36 65  1  0  0  0  0
 36 76  2  0  0  0  0
 37 58  1  0  0  0  0
 37 71  1  0  0  0  0
 37 77  2  0  0  0  0
 38 61  1  0  0  0  0
 38 72  1  0  0  0  0
 38 78  2  0  0  0  0
 39 66  1  0  0  0  0
 39 69  1  0  0  0  0
 39 79  2  0  0  0  0
 40 43  1  0  0  0  0
 41 50  1  0  0  0  0
 42 65  1  0  0  0  0
 43 45  1  0  0  0  0
 44 46  1  0  0  0  0
 44 47  1  0  0  0  0
 45 49  1  0  0  0  0
 46 51  1  0  0  0  0
 47 66  1  0  0  0  0
 48 51  1  0  0  0  0
 48 66  1  0  0  0  0
 49 70  1  0  0  0  0
 50 65  1  0  0  0  0
 51 64  1  0  0  0  0
 52 61  1  0  0  0  0
 53 62  1  0  0  0  0
 54 62  1  0  0  0  0
 55 62  1  0  0  0  0
 56 73  1  0  0  0  0
 57 71  1  0  0  0  0
 58 59  1  0  0  0  0
 59 81  1  0  0  0  0
 60 62  1  0  0  0  0
 60 72  1  0  0  0  0
 61 73  1  0  0  0  0
 63 64  1  0  0  0  0
M  CHG  1  73   1
M  ISO  4  39 100  59 101  69 100  81 101
M  END
> <Batch ID>
0057

> <Smiles>
CNC(C)C(=O)NC(C(=O)N1Cc2cc([101O:1][101CH2:1]CC(=O)NCc3ccc(Cl)c([100NH:0][100C:0](=O)N4CCCC(n5nc(-c6ccc(Oc7ccc(F)cc7F)cc6)c(C(N)=O)c5N)C4)c3)ccc2CC1C(=O)NC1CCCc2ccccc21)C(C)(C)C

> <Shape>
0.288

> <Color>
0.084

> <Negative vol penalty>
0.000

$$$$

  -OEChem-04042322553D

 86 94  0     1  0  0  0  0  0999 V2000
  -26.9763  -34.7157   22.9048 C   0  0  0  0  0  0  0  0  0  0  0  0
  -27.2085  -33.3624   22.6812 C   0  0  0  0  0  0  0  0  0  0  0  0
  -32.8535  -17.2168   23.2621 C   0  0  0  0  0  0  0  0  0  0  0  0
  -22.9029   -9.9476   20.0650 C   0  0  0  0  0  0  0  0  0  0  0  0
  -23.6095  -10.0779   22.3717 C   0  0  0  0  0  0  0  0  0  0  0  0
  -25.7851  -35.1283   23.5004 C   0  0  0  0  0  0  0  0  0  0  0  0
  -26.2501  -32.4208   23.0541 C   0  0  0  0  0  0  0  0  0  0  0  0
  -24.9142  -27.1864   20.1691 C   0  0  0  0  0  0  0  0  0  0  0  0
  -32.1106  -18.1883   23.9327 C   0  0  0  0  0  0  0  0  0  0  0  0
  -32.2148  -16.3137   22.4122 C   0  0  0  0  0  0  0  0  0  0  0  0
  -22.0863   -8.8606   20.3765 C   0  0  0  0  0  0  0  0  0  0  0  0
  -22.7928   -8.9910   22.6833 C   0  0  0  0  0  0  0  0  0  0  0  0
  -25.3000  -25.8659   20.3952 C   0  0  0  0  0  0  0  0  0  0  0  0
  -22.8981   -5.6259   22.3728 C   0  0  0  0  0  0  0  0  0  0  0  0
  -23.4350   -4.6219   23.1786 C   0  0  0  0  0  0  0  0  0  0  0  0
  -23.2651  -25.4900   21.6350 C   0  0  0  0  0  0  0  0  0  0  0  0
  -21.7086   -5.0174   24.8218 C   0  0  0  0  0  0  0  0  0  0  0  0
  -23.6646  -10.5562   21.0625 C   0  0  0  0  0  0  0  0  0  0  0  0
  -24.1588  -13.0420   20.7716 C   0  0  0  0  0  0  0  0  0  0  0  0
  -24.8074  -34.1920   23.8719 C   0  0  0  0  0  0  0  0  0  0  0  0
  -23.7040  -27.6725   20.6844 C   0  0  0  0  0  0  0  0  0  0  0  0
  -25.0452  -32.8211   23.6564 C   0  0  0  0  0  0  0  0  0  0  0  0
  -22.8650  -26.8163   21.4119 C   0  0  0  0  0  0  0  0  0  0  0  0
  -30.7289  -18.2567   23.7536 C   0  0  0  0  0  0  0  0  0  0  0  0
  -30.0902  -17.3536   22.9037 C   0  0  0  0  0  0  0  0  0  0  0  0
  -30.8332  -16.3821   22.2330 C   0  0  0  0  0  0  0  0  0  0  0  0
  -22.0312   -8.3823   21.6857 C   0  0  0  0  0  0  0  0  0  0  0  0
  -24.4768  -25.0183   21.1307 C   0  0  0  0  0  0  0  0  0  0  0  0
  -21.7665   -6.3258   22.7916 C   0  0  0  0  0  0  0  0  0  0  0  0
  -22.8403   -4.3176   24.4030 C   0  0  0  0  0  0  0  0  0  0  0  0
  -21.1717   -6.0215   24.0160 C   0  0  0  0  0  0  0  0  0  0  0  0
  -24.5089  -11.6788   20.7412 C   0  0  0  0  0  0  0  0  0  0  0  0
  -25.3015  -13.6987   20.3853 C   0  0  0  0  0  0  0  0  0  0  0  0
  -22.9120  -13.6594   21.1181 C   0  0  0  0  0  0  0  0  0  0  0  0
  -22.8991  -29.9546   22.7456 C   0  0  0  0  0  0  0  0  0  0  0  0
  -19.8856  -29.1779   21.8299 C   0  0  0  0  0  0  0  0  0  0  0  0
  -28.2171  -20.7733   23.4291 C   0  0  0  0  0  0  0  0  0  0  0  0
  -17.7652  -26.8446   20.5237 C   0  0  0  0  0  0  0  0  0  0  0  0
  -30.8149  -14.4370   20.6322 C   0  0  0  0  0  0  0  0  0  0  0  0
  -23.5556  -34.6821   24.5557 C   0  0  0  0  0  0  0  0  0  0  0  0
  -23.2896  -29.0920   20.4090 C   0  0  0  0  0  0  0  0  0  0  0  0
  -21.5462  -27.2836   21.9695 C   0  0  0  0  0  0  0  0  0  0  0  0
  -22.4309  -33.6503   24.5796 C   0  0  0  0  0  0  0  0  0  0  0  0
  -29.6129  -11.9253   18.4133 C   0  0  0  0  0  0  0  0  0  0  0  0
  -22.9651  -32.2882   25.0109 C   0  0  0  0  0  0  0  0  0  0  0  0
  -28.1491  -11.7494   18.8236 C   0  0  0  0  0  0  0  0  0  0  0  0
  -30.5125  -12.1879   19.6198 C   0  0  0  0  0  0  0  0  0  0  0  0
  -28.6211  -13.1200   20.8938 C   0  0  0  0  0  0  0  0  0  0  0  0
  -24.0191  -31.7714   24.0244 C   0  0  1  0  0  0  0  0  0  0  0  0
  -22.2772  -29.6254   21.4179 C   0  0  1  0  0  0  0  0  0  0  0  0
  -27.6667  -12.9177   19.7055 C   0  0  2  0  0  0  0  0  0  0  0  0
  -28.6076  -17.4310   22.7146 C   0  0  0  0  0  0  0  0  0  0  0  0
  -15.3530  -26.4871   19.9313 C   0  0  0  0  0  0  0  0  0  0  0  0
  -19.2173  -28.8085   24.7840 C   0  0  0  0  0  0  0  0  0  0  0  0
  -17.1576  -27.5655   24.0909 C   0  0  0  0  0  0  0  0  0  0  0  0
  -17.4430  -29.9590   23.4490 C   0  0  0  0  0  0  0  0  0  0  0  0
  -30.6537  -21.0901   22.9322 C   0  0  0  0  0  0  0  0  0  0  0  0
  -18.4091  -26.4245   17.6658 C   0  0  0  0  0  0  0  0  0  0  0  0
  -29.9534  -19.3122   24.4875 C   0  0  0  0  0  0  0  0  0  0  0  0
  -27.9623  -21.9365   22.4794 C   0  0  0  0  0  0  0  0  0  0  0  0
  -26.4780  -22.2687   22.3423 C   0  0  0  0  0  0  0  0  0  0  0  0
  -26.2513  -23.4628   21.4263 C   0  0  0  0  0  0  0  0  0  1  0  0
  -18.8444  -28.1932   22.3044 C   0  0  1  0  0  0  0  0  0  0  0  0
  -16.7166  -26.9365   19.4299 C   0  0  2  0  0  0  0  0  0  0  0  0
  -18.1913  -28.6230   23.6484 C   0  0  0  0  0  0  0  0  0  0  0  0
  -25.7750  -11.4799   20.3651 N   0  0  0  0  0  0  0  0  0  0  0  0
  -26.2304  -12.7268   20.1556 N   0  0  0  0  0  0  0  0  0  0  0  0
  -21.1883  -28.6818   21.6787 N   0  0  0  0  0  0  0  0  0  0  0  0
  -29.9960  -13.3105   20.4058 N   0  0  0  0  0  0  0  0  0  0  0  0
  -25.5924  -15.0069   20.2230 N   0  0  0  0  0  0  0  0  0  0  0  0
  -21.8404  -12.8372   21.4921 N   0  0  0  0  0  0  0  0  0  0  0  0
  -30.2053  -15.4551   21.3646 N   0  0  0  0  0  0  0  0  0  0  0  0
  -23.3836  -31.2455   22.8352 N   0  0  0  0  0  0  0  0  0  0  0  0
  -17.8994  -28.0364   21.2041 N   0  0  0  0  0  0  0  0  0  0  0  0
  -29.5549  -20.4057   23.6097 N   0  0  0  0  0  0  0  0  0  0  0  0
  -17.0983  -26.0781   18.2730 N   0  3  0  0  0  0  0  0  0  0  0  0
  -22.7482  -14.9025   21.0810 O   0  0  0  0  0  0  0  0  0  0  0  0
  -22.9352  -29.1010   23.6241 O   0  0  0  0  0  0  0  0  0  0  0  0
  -19.5539  -30.3426   21.5949 O   0  0  0  0  0  0  0  0  0  0  0  0
  -27.2759  -20.2078   23.9921 O   0  0  0  0  0  0  0  0  0  0  0  0
  -18.3990  -25.8171   20.7543 O   0  0  0  0  0  0  0  0  0  0  0  0
  -31.9624  -14.5057   20.1844 O   0  0  0  0  0  0  0  0  0  0  0  0
  -21.2342   -7.3218   21.9901 O   0  0  0  0  0  0  0  0  0  0  0  0
  -24.8513  -23.7291   21.3534 O   0  0  0  0  0  0  0  0  0  1  0  0
  -23.3550   -3.3524   25.1760 F   0  0  0  0  0  0  0  0  0  0  0  0
  -20.0837   -6.6896   24.4231 F   0  0  0  0  0  0  0  0  0  0  0  0
  1  2  1  0  0  0  0
  1  6  2  0  0  0  0
  2  7  2  0  0  0  0
  3  9  2  0  0  0  0
  3 10  1  0  0  0  0
  4 11  2  0  0  0  0
  4 18  1  0  0  0  0
  5 12  1  0  0  0  0
  5 18  2  0  0  0  0
  6 20  1  0  0  0  0
  7 22  1  0  0  0  0
  8 13  2  0  0  0  0
  8 21  1  0  0  0  0
  9 24  1  0  0  0  0
 10 26  2  0  0  0  0
 11 27  1  0  0  0  0
 12 27  2  0  0  0  0
 13 28  1  0  0  0  0
 14 15  2  0  0  0  0
 14 29  1  0  0  0  0
 15 30  1  0  0  0  0
 16 23  1  0  0  0  0
 16 28  2  0  0  0  0
 17 30  2  0  0  0  0
 17 31  1  0  0  0  0
 18 32  1  0  0  0  0
 19 32  1  0  0  0  0
 19 33  2  0  0  0  0
 19 34  1  0  0  0  0
 20 22  2  0  0  0  0
 20 40  1  0  0  0  0
 21 23  2  0  0  0  0
 21 41  1  0  0  0  0
 22 49  1  0  0  0  0
 23 42  1  0  0  0  0
 24 25  2  0  0  0  0
 24 59  1  0  0  0  0
 25 26  1  0  0  0  0
 25 52  1  0  0  0  0
 26 72  1  0  0  0  0
 27 83  1  0  0  0  0
 28 84  1  0  0  0  0
 29 31  2  0  0  0  0
 29 83  1  0  0  0  0
 30 85  1  0  0  0  0
 31 86  1  0  0  0  0
 32 66  2  0  0  0  0
 33 67  1  0  0  0  0
 33 70  1  0  0  0  0
 34 71  1  0  0  0  0
 34 77  2  0  0  0  0
 35 50  1  0  0  0  0
 35 73  1  0  0  0  0
 35 78  2  0  0  0  0
 36 63  1  0  0  0  0
 36 68  1  0  0  0  0
 36 79  2  0  0  0  0
 37 60  1  0  0  0  0
 37 75  1  0  0  0  0
 37 80  2  0  0  0  0
 38 64  1  0  0  0  0
 38 74  1  0  0  0  0
 38 81  2  0  0  0  0
 39 69  1  0  0  0  0
 39 72  1  0  0  0  0
 39 82  2  0  0  0  0
 40 43  1  0  0  0  0
 41 50  1  0  0  0  0
 42 68  1  0  0  0  0
 43 45  1  0  0  0  0
 44 46  1  0  0  0  0
 44 47  1  0  0  0  0
 45 49  1  0  0  0  0
 46 51  1  0  0  0  0
 47 69  1  0  0  0  0
 48 51  1  0  0  0  0
 48 69  1  0  0  0  0
 49 73  1  0  0  0  0
 50 68  1  0  0  0  0
 51 67  1  0  0  0  0
 53 64  1  0  0  0  0
 54 65  1  0  0  0  0
 55 65  1  0  0  0  0
 56 65  1  0  0  0  0
 57 75  1  0  0  0  0
 58 76  1  0  0  0  0
 59 75  1  0  0  0  0
 60 61  1  0  0  0  0
 61 62  1  0  0  0  0
 62 84  1  0  0  0  0
 63 65  1  0  0  0  0
 63 74  1  0  0  0  0
 64 76  1  0  0  0  0
 66 67  1  0  0  0  0
M  CHG  1  76   1
M  ISO  4  39 100  62 101  72 100  84 101
M  END
> <Batch ID>
0057

> <Smiles>
CNC(C)C(=O)NC(C(=O)N1Cc2cc([101O:1][101CH2:1]CCC(=O)N(C)Cc3cccc([100NH:0][100C:0](=O)N4CCCC(n5nc(-c6ccc(Oc7ccc(F)cc7F)cc6)c(C(N)=O)c5N)C4)c3C)ccc2CC1C(=O)NC1CCCc2ccccc21)C(C)(C)C

> <Shape>
0.338

> <Color>
0.210

> <Negative vol penalty>
0.000

$$$$

  -OEChem-04042322553D

 88 97  0     1  0  0  0  0  0999 V2000
  -21.9461  -11.9162   19.8108 C   0  0  0  0  0  0  0  0  0  0  0  0
  -21.8545  -13.2790   20.0753 C   0  0  0  0  0  0  0  0  0  0  0  0
  -27.6966  -26.9569   18.6171 C   0  0  0  0  0  0  0  0  0  0  0  0
  -28.9271  -28.2840   20.2177 C   0  0  0  0  0  0  0  0  0  0  0  0
  -23.1641  -11.2567   19.9700 C   0  0  0  0  0  0  0  0  0  0  0  0
  -22.9808  -13.9828   20.5002 C   0  0  0  0  0  0  0  0  0  0  0  0
  -23.5200  -18.4134   18.1078 C   0  0  0  0  0  0  0  0  0  0  0  0
  -18.4800  -28.3179   24.1581 C   0  0  0  0  0  0  0  0  0  0  0  0
  -19.4933  -29.1864   23.7525 C   0  0  0  0  0  0  0  0  0  0  0  0
  -28.6143  -25.9181   18.7728 C   0  0  0  0  0  0  0  0  0  0  0  0
  -29.8448  -27.2451   20.3735 C   0  0  0  0  0  0  0  0  0  0  0  0
  -22.7109  -19.4675   18.5298 C   0  0  0  0  0  0  0  0  0  0  0  0
  -30.0118  -24.2968   22.0167 C   0  0  0  0  0  0  0  0  0  0  0  0
  -30.3968  -23.9635   23.3152 C   0  0  0  0  0  0  0  0  0  0  0  0
  -24.5499  -20.3575   19.8125 C   0  0  0  0  0  0  0  0  0  0  0  0
  -19.7977  -27.8898   21.7367 C   0  0  0  0  0  0  0  0  0  0  0  0
  -32.6938  -24.4711   22.7646 C   0  0  0  0  0  0  0  0  0  0  0  0
  -27.8530  -28.1399   19.3395 C   0  0  0  0  0  0  0  0  0  0  0  0
  -26.6004  -29.9073   17.9923 C   0  0  0  0  0  0  0  0  0  0  0  0
  -24.3081  -11.9548   20.3878 C   0  0  0  0  0  0  0  0  0  0  0  0
  -24.8491  -18.3173   18.5444 C   0  0  0  0  0  0  0  0  0  0  0  0
  -24.2149  -13.3317   20.6665 C   0  0  0  0  0  0  0  0  0  0  0  0
  -25.3745  -19.3026   19.3926 C   0  0  0  0  0  0  0  0  0  0  0  0
  -18.1255  -27.2353   23.3530 C   0  0  0  0  0  0  0  0  0  0  0  0
  -18.7844  -27.0213   22.1424 C   0  0  0  0  0  0  0  0  0  0  0  0
  -20.1521  -28.9724   22.5418 C   0  0  0  0  0  0  0  0  0  0  0  0
  -29.6884  -26.0622   19.6510 C   0  0  0  0  0  0  0  0  0  0  0  0
  -23.2250  -20.4382   19.3846 C   0  0  0  0  0  0  0  0  0  0  0  0
  -30.9678  -24.7173   21.0920 C   0  0  0  0  0  0  0  0  0  0  0  0
  -31.7378  -24.0507   23.6892 C   0  0  0  0  0  0  0  0  0  0  0  0
  -32.3088  -24.8044   21.4660 C   0  0  0  0  0  0  0  0  0  0  0  0
  -26.9057  -29.2136   19.1786 C   0  0  0  0  0  0  0  0  0  0  0  0
  -25.6474  -30.8232   18.3657 C   0  0  0  0  0  0  0  0  0  0  0  0
  -20.4193  -25.2243   19.9710 C   0  0  0  0  0  0  0  0  0  0  0  0
  -27.1307  -29.7387   16.6709 C   0  0  0  0  0  0  0  0  0  0  0  0
  -26.5059  -16.1991   20.2391 C   0  0  0  0  0  0  0  0  0  0  0  0
  -29.0074  -18.1081   19.4514 C   0  0  0  0  0  0  0  0  0  0  0  0
  -30.1105  -21.1979   18.5116 C   0  0  0  0  0  0  0  0  0  0  0  0
  -21.6531  -30.9781   22.8071 C   0  0  0  0  0  0  0  0  0  0  0  0
  -25.5917  -11.1893   20.5912 C   0  0  0  0  0  0  0  0  0  0  0  0
  -25.7167  -17.1887   18.0588 C   0  0  0  0  0  0  0  0  0  0  0  0
  -26.8009  -19.2562   19.8739 C   0  0  0  0  0  0  0  0  0  0  0  0
  -21.5292  -24.2149   19.7456 C   0  0  0  0  0  0  0  0  0  0  0  0
  -26.8256  -12.0832   20.6847 C   0  0  0  0  0  0  0  0  0  0  0  0
  -24.1912  -33.3846   22.1410 C   0  0  0  0  0  0  0  0  0  0  0  0
  -26.5650  -13.2563   21.6242 C   0  0  0  0  0  0  0  0  0  0  0  0
  -25.1444  -32.6533   21.1929 C   0  0  0  0  0  0  0  0  0  0  0  0
  -20.7799  -22.8936   21.6957 C   0  0  0  0  0  0  0  0  0  0  0  0
  -23.6175  -32.4477   23.2025 C   0  0  0  0  0  0  0  0  0  0  0  0
  -19.8131  -23.9976   22.0857 C   0  0  0  0  0  0  0  0  0  0  0  0
  -23.9395  -30.4980   21.7314 C   0  0  0  0  0  0  0  0  0  0  0  0
  -25.4201  -14.1348   21.1055 C   0  0  1  0  0  0  0  0  0  0  0  0
  -26.9032  -16.9097   18.9763 C   0  0  1  0  0  0  0  0  0  0  0  0
  -21.9955  -23.4999   21.0070 C   0  0  1  0  0  0  0  0  0  0  0  0
  -24.4924  -31.3864   20.6051 C   0  0  2  0  0  0  0  0  0  0  0  0
  -15.7231  -26.5726   23.0779 C   0  0  0  0  0  0  0  0  0  0  0  0
  -32.2123  -22.4617   17.9802 C   0  0  0  0  0  0  0  0  0  0  0  0
  -29.6600  -18.2692   22.4277 C   0  0  0  0  0  0  0  0  0  0  0  0
  -31.1183  -20.2425   21.9299 C   0  0  0  0  0  0  0  0  0  0  0  0
  -31.6509  -18.0177   20.9353 C   0  0  0  0  0  0  0  0  0  0  0  0
  -29.2108  -21.7622   15.7491 C   0  0  0  0  0  0  0  0  0  0  0  0
  -17.0381  -26.3186   23.8087 C   0  0  0  0  0  0  0  0  0  0  0  0
  -18.4185  -25.8640   21.2585 C   0  0  0  0  0  0  0  0  0  0  0  0
  -23.0288  -22.4268   20.6740 C   0  0  0  0  0  0  0  0  0  1  0  0
  -29.6640  -19.3191   20.0689 C   0  0  1  0  0  0  0  0  0  0  0  0
  -31.0662  -21.6362   17.4166 C   0  0  2  0  0  0  0  0  0  0  0  0
  -30.4958  -18.9622   21.3331 C   0  0  0  0  0  0  0  0  0  0  0  0
  -26.2038  -29.6515   20.2272 N   0  0  0  0  0  0  0  0  0  0  0  0
  -25.4479  -30.6302   19.7010 N   0  0  0  0  0  0  0  0  0  0  0  0
  -19.5491  -24.9740   21.0298 N   0  0  0  0  0  0  0  0  0  0  0  0
  -27.6075  -18.1296   19.3763 N   0  0  0  0  0  0  0  0  0  0  0  0
  -23.0128  -31.2724   22.5718 N   0  0  0  0  0  0  0  0  0  0  0  0
  -24.9690  -31.7668   17.6788 N   0  0  0  0  0  0  0  0  0  0  0  0
  -28.1031  -28.7512   16.4622 N   0  0  0  0  0  0  0  0  0  0  0  0
  -21.1802  -29.8555   22.1284 N   0  0  0  0  0  0  0  0  0  0  0  0
  -25.8827  -14.9839   20.0287 N   0  0  0  0  0  0  0  0  0  0  0  0
  -30.4358  -19.9520   19.0049 N   0  0  0  0  0  0  0  0  0  0  0  0
  -30.3490  -22.4589   16.4019 N   0  3  0  0  0  0  0  0  0  0  0  0
  -20.2902  -26.1586   19.1751 O   0  0  0  0  0  0  0  0  0  0  0  0
  -26.7653  -30.4539   15.7073 O   0  0  0  0  0  0  0  0  0  0  0  0
  -26.7481  -16.7145   21.3242 O   0  0  0  0  0  0  0  0  0  0  0  0
  -29.7110  -17.1804   19.0441 O   0  0  0  0  0  0  0  0  0  0  0  0
  -29.1716  -21.8929   18.8938 O   0  0  0  0  0  0  0  0  0  0  0  0
  -20.9521  -31.6868   23.5341 O   0  0  0  0  0  0  0  0  0  0  0  0
  -30.5839  -25.0486   19.8034 O   0  0  0  0  0  0  0  0  0  0  0  0
  -22.4372  -21.4677   19.7985 O   0  0  0  0  0  0  0  0  0  1  0  0
  -32.1071  -23.7320   24.9367 F   0  0  0  0  0  0  0  0  0  0  0  0
  -33.2316  -25.2089   20.5824 F   0  0  0  0  0  0  0  0  0  0  0  0
  1  2  1  0  0  0  0
  1  5  2  0  0  0  0
  2  6  2  0  0  0  0
  3 10  2  0  0  0  0
  3 18  1  0  0  0  0
  4 11  1  0  0  0  0
  4 18  2  0  0  0  0
  5 20  1  0  0  0  0
  6 22  1  0  0  0  0
  7 12  2  0  0  0  0
  7 21  1  0  0  0  0
  8  9  2  0  0  0  0
  8 24  1  0  0  0  0
  9 26  1  0  0  0  0
 10 27  1  0  0  0  0
 11 27  2  0  0  0  0
 12 28  1  0  0  0  0
 13 14  2  0  0  0  0
 13 29  1  0  0  0  0
 14 30  1  0  0  0  0
 15 23  1  0  0  0  0
 15 28  2  0  0  0  0
 16 25  1  0  0  0  0
 16 26  2  0  0  0  0
 17 30  2  0  0  0  0
 17 31  1  0  0  0  0
 18 32  1  0  0  0  0
 19 32  1  0  0  0  0
 19 33  2  0  0  0  0
 19 35  1  0  0  0  0
 20 22  2  0  0  0  0
 20 40  1  0  0  0  0
 21 23  2  0  0  0  0
 21 41  1  0  0  0  0
 22 52  1  0  0  0  0
 23 42  1  0  0  0  0
 24 25  2  0  0  0  0
 24 62  1  0  0  0  0
 25 63  1  0  0  0  0
 26 75  1  0  0  0  0
 27 85  1  0  0  0  0
 28 86  1  0  0  0  0
 29 31  2  0  0  0  0
 29 85  1  0  0  0  0
 30 87  1  0  0  0  0
 31 88  1  0  0  0  0
 32 68  2  0  0  0  0
 33 69  1  0  0  0  0
 33 73  1  0  0  0  0
 34 43  1  0  0  0  0
 34 70  1  0  0  0  0
 34 79  2  0  0  0  0
 35 74  1  0  0  0  0
 35 80  2  0  0  0  0
 36 53  1  0  0  0  0
 36 76  1  0  0  0  0
 36 81  2  0  0  0  0
 37 65  1  0  0  0  0
 37 71  1  0  0  0  0
 37 82  2  0  0  0  0
 38 66  1  0  0  0  0
 38 77  1  0  0  0  0
 38 83  2  0  0  0  0
 39 72  1  0  0  0  0
 39 75  1  0  0  0  0
 39 84  2  0  0  0  0
 40 44  1  0  0  0  0
 41 53  1  0  0  0  0
 42 71  1  0  0  0  0
 43 54  1  0  0  0  0
 44 46  1  0  0  0  0
 45 47  1  0  0  0  0
 45 49  1  0  0  0  0
 46 52  1  0  0  0  0
 47 55  1  0  0  0  0
 48 50  1  0  0  0  0
 48 54  1  0  0  0  0
 49 72  1  0  0  0  0
 50 70  1  0  0  0  0
 51 55  1  0  0  0  0
 51 72  1  0  0  0  0
 52 76  1  0  0  0  0
 53 71  1  0  0  0  0
 54 64  1  0  0  0  0
 55 69  1  0  0  0  0
 56 62  1  0  0  0  0
 57 66  1  0  0  0  0
 58 67  1  0  0  0  0
 59 67  1  0  0  0  0
 60 67  1  0  0  0  0
 61 78  1  0  0  0  0
 63 70  1  0  0  0  0
 64 86  1  0  0  0  0
 65 67  1  0  0  0  0
 65 77  1  0  0  0  0
 66 78  1  0  0  0  0
 68 69  1  0  0  0  0
M  CHG  1  78   1
M  ISO  4  39 100  64 101  75 100  86 101
M  END
> <Batch ID>
0057

> <Smiles>
CCc1ccc([100NH:0][100C:0](=O)N2CCCC(n3nc(-c4ccc(Oc5ccc(F)cc5F)cc4)c(C(N)=O)c3N)C2)cc1CN1CCC([101CH2:1][101O:1]c2ccc3c(c2)CN(C(=O)C(NC(=O)C(C)NC)C(C)(C)C)C(C(=O)NC2CCCc4ccccc42)C3)CC1=O

> <Shape>
0.232

> <Color>
0.082

> <Negative vol penalty>
0.000

$$$$

  -OEChem-04042322553D

 84 92  0     1  0  0  0  0  0999 V2000
  -27.0810  -24.5947   16.0607 C   0  0  0  0  0  0  0  0  0  0  0  0
  -26.0635  -25.4484   16.4716 C   0  0  0  0  0  0  0  0  0  0  0  0
  -23.2304  -25.2768   20.8169 C   0  0  0  0  0  0  0  0  0  0  0  0
  -24.7780  -12.6757   19.8212 C   0  0  0  0  0  0  0  0  0  0  0  0
  -25.5022  -13.8279   21.8174 C   0  0  0  0  0  0  0  0  0  0  0  0
  -28.1780  -24.3739   16.8907 C   0  0  0  0  0  0  0  0  0  0  0  0
  -26.1483  -26.0908   17.7073 C   0  0  0  0  0  0  0  0  0  0  0  0
  -22.7047  -29.4559   18.7181 C   0  0  0  0  0  0  0  0  0  0  0  0
  -22.2249  -25.2034   21.7808 C   0  0  0  0  0  0  0  0  0  0  0  0
  -23.5747  -24.1432   20.0805 C   0  0  0  0  0  0  0  0  0  0  0  0
  -25.4698  -11.5351   20.2284 C   0  0  0  0  0  0  0  0  0  0  0  0
  -26.1941  -12.6872   22.2247 C   0  0  0  0  0  0  0  0  0  0  0  0
  -21.3832  -29.1186   19.0071 C   0  0  0  0  0  0  0  0  0  0  0  0
  -25.0125   -8.9891   22.4060 C   0  0  0  0  0  0  0  0  0  0  0  0
  -24.3597   -7.7614   22.2963 C   0  0  0  0  0  0  0  0  0  0  0  0
  -21.7989  -29.5217   21.3489 C   0  0  0  0  0  0  0  0  0  0  0  0
  -21.9080  -22.8629   21.2721 C   0  0  0  0  0  0  0  0  0  0  0  0
  -26.0933   -6.9725   20.8099 C   0  0  0  0  0  0  0  0  0  0  0  0
  -24.7942  -13.8222   20.6156 C   0  0  0  0  0  0  0  0  0  0  0  0
  -22.7442  -15.3350   20.4873 C   0  0  0  0  0  0  0  0  0  0  0  0
  -28.2696  -25.0046   18.1424 C   0  0  0  0  0  0  0  0  0  0  0  0
  -23.5877  -29.8187   19.7453 C   0  0  0  0  0  0  0  0  0  0  0  0
  -27.2590  -25.8995   18.5490 C   0  0  0  0  0  0  0  0  0  0  0  0
  -23.1304  -29.8656   21.0700 C   0  0  0  0  0  0  0  0  0  0  0  0
  -21.5637  -23.9965   22.0084 C   0  0  0  0  0  0  0  0  0  0  0  0
  -22.9135  -22.9363   20.3081 C   0  0  0  0  0  0  0  0  0  0  0  0
  -26.1778  -11.5408   21.4302 C   0  0  0  0  0  0  0  0  0  0  0  0
  -20.9308  -29.1487   20.3230 C   0  0  0  0  0  0  0  0  0  0  0  0
  -26.2056   -9.2087   21.7176 C   0  0  0  0  0  0  0  0  0  0  0  0
  -24.9001   -6.7530   21.4983 C   0  0  0  0  0  0  0  0  0  0  0  0
  -26.7460   -8.2003   20.9195 C   0  0  0  0  0  0  0  0  0  0  0  0
  -24.0802  -15.0009   20.1952 C   0  0  0  0  0  0  0  0  0  0  0  0
  -22.5477  -16.5424   19.8627 C   0  0  0  0  0  0  0  0  0  0  0  0
  -21.7681  -14.6181   21.2547 C   0  0  0  0  0  0  0  0  0  0  0  0
  -26.3042  -28.6312   20.8918 C   0  0  0  0  0  0  0  0  0  0  0  0
  -26.2696  -31.3295   22.6919 C   0  0  0  0  0  0  0  0  0  0  0  0
  -19.0259  -25.8349   23.6425 C   0  0  0  0  0  0  0  0  0  0  0  0
  -24.4484  -33.8445   24.1079 C   0  0  0  0  0  0  0  0  0  0  0  0
  -24.2365  -21.6872   18.5658 C   0  0  0  0  0  0  0  0  0  0  0  0
  -29.4829  -24.7359   18.9974 C   0  0  0  0  0  0  0  0  0  0  0  0
  -25.0030  -30.2055   19.4139 C   0  0  0  0  0  0  0  0  0  0  0  0
  -24.0329  -30.2679   22.2067 C   0  0  0  0  0  0  0  0  0  0  0  0
  -29.2725  -25.1074   20.4616 C   0  0  0  0  0  0  0  0  0  0  0  0
  -25.4219  -19.0268   16.5178 C   0  0  0  0  0  0  0  0  0  0  0  0
  -28.6968  -26.5119   20.5640 C   0  0  0  0  0  0  0  0  0  0  0  0
  -25.0686  -17.7698   17.3159 C   0  0  0  0  0  0  0  0  0  0  0  0
  -25.8488  -20.1760   17.4292 C   0  0  0  0  0  0  0  0  0  0  0  0
  -24.5494  -19.2429   19.3027 C   0  0  0  0  0  0  0  0  0  0  0  0
  -27.3150  -26.5854   19.9020 C   0  0  1  0  0  0  0  0  0  0  0  0
  -25.9543  -30.0626   20.5979 C   0  0  1  0  0  0  0  0  0  0  0  0
  -24.0510  -18.0781   18.4317 C   0  0  2  0  0  0  0  0  0  0  0  0
  -24.6933  -35.8809   25.5537 C   0  0  0  0  0  0  0  0  0  0  0  0
  -26.5826  -29.5456   25.1474 C   0  0  0  0  0  0  0  0  0  0  0  0
  -25.8743  -31.4865   26.5615 C   0  0  0  0  0  0  0  0  0  0  0  0
  -27.9555  -31.6354   25.1944 C   0  0  0  0  0  0  0  0  0  0  0  0
  -23.4109  -35.6218   21.9810 C   0  0  0  0  0  0  0  0  0  0  0  0
  -20.4814  -23.9181   23.0461 C   0  0  0  0  0  0  0  0  0  0  0  0
  -17.8595  -26.6451   23.1056 C   0  0  0  0  0  0  0  0  0  0  0  0
  -18.1797  -27.3168   21.7751 C   0  0  0  0  0  0  0  0  0  0  0  0
  -19.3873  -28.2362   21.8853 C   0  0  0  0  0  0  0  0  0  1  0  0
  -25.7070  -31.7077   24.0408 C   0  0  1  0  0  0  0  0  0  0  0  0
  -24.6545  -35.3483   24.1297 C   0  0  2  0  0  0  0  0  0  0  0  0
  -26.5131  -31.0843   25.2150 C   0  0  0  0  0  0  0  0  0  0  0  0
  -24.6894  -15.9216   19.4434 N   0  0  0  0  0  0  0  0  0  0  0  0
  -23.7318  -16.8461   19.2577 N   0  0  0  0  0  0  0  0  0  0  0  0
  -25.4096  -30.6312   21.8324 N   0  0  0  0  0  0  0  0  0  0  0  0
  -24.8347  -20.4138   18.4587 N   0  0  0  0  0  0  0  0  0  0  0  0
  -21.4794  -17.3632   19.7774 N   0  0  0  0  0  0  0  0  0  0  0  0
  -22.1365  -13.3930   21.8271 N   0  0  0  0  0  0  0  0  0  0  0  0
  -23.2630  -21.7852   19.5594 N   0  0  0  0  0  0  0  0  0  0  0  0
  -26.8970  -27.9683   19.8342 N   0  0  0  0  0  0  0  0  0  0  0  0
  -19.3957  -24.8269   22.7641 N   0  0  0  0  0  0  0  0  0  0  0  0
  -25.6475  -33.1652   24.0642 N   0  0  0  0  0  0  0  0  0  0  0  0
  -23.5492  -36.0333   23.4017 N   0  3  0  0  0  0  0  0  0  0  0  0
  -20.5987  -15.0431   21.4139 O   0  0  0  0  0  0  0  0  0  0  0  0
  -26.0561  -28.1633   21.9969 O   0  0  0  0  0  0  0  0  0  0  0  0
  -27.4270  -31.6484   22.4084 O   0  0  0  0  0  0  0  0  0  0  0  0
  -19.5630  -26.0602   24.7237 O   0  0  0  0  0  0  0  0  0  0  0  0
  -23.3351  -33.3244   24.1313 O   0  0  0  0  0  0  0  0  0  0  0  0
  -24.5443  -22.6143   17.8122 O   0  0  0  0  0  0  0  0  0  0  0  0
  -26.8529  -10.4279   21.8281 O   0  0  0  0  0  0  0  0  0  0  0  0
  -19.6416  -28.8193   20.6079 O   0  0  0  0  0  0  0  0  0  1  0  0
  -24.2740   -5.5735   21.3943 F   0  0  0  0  0  0  0  0  0  0  0  0
  -27.8926   -8.4049   20.2567 F   0  0  0  0  0  0  0  0  0  0  0  0
  1  2  1  0  0  0  0
  1  6  2  0  0  0  0
  2  7  2  0  0  0  0
  3  9  2  0  0  0  0
  3 10  1  0  0  0  0
  4 11  2  0  0  0  0
  4 19  1  0  0  0  0
  5 12  1  0  0  0  0
  5 19  2  0  0  0  0
  6 21  1  0  0  0  0
  7 23  1  0  0  0  0
  8 13  2  0  0  0  0
  8 22  1  0  0  0  0
  9 25  1  0  0  0  0
 10 26  2  0  0  0  0
 11 27  1  0  0  0  0
 12 27  2  0  0  0  0
 13 28  1  0  0  0  0
 14 15  2  0  0  0  0
 14 29  1  0  0  0  0
 15 30  1  0  0  0  0
 16 24  1  0  0  0  0
 16 28  2  0  0  0  0
 17 25  2  0  0  0  0
 17 26  1  0  0  0  0
 18 30  2  0  0  0  0
 18 31  1  0  0  0  0
 19 32  1  0  0  0  0
 20 32  1  0  0  0  0
 20 33  2  0  0  0  0
 20 34  1  0  0  0  0
 21 23  2  0  0  0  0
 21 40  1  0  0  0  0
 22 24  2  0  0  0  0
 22 41  1  0  0  0  0
 23 49  1  0  0  0  0
 24 42  1  0  0  0  0
 25 57  1  0  0  0  0
 26 70  1  0  0  0  0
 27 81  1  0  0  0  0
 28 82  1  0  0  0  0
 29 31  2  0  0  0  0
 29 81  1  0  0  0  0
 30 83  1  0  0  0  0
 31 84  1  0  0  0  0
 32 64  2  0  0  0  0
 33 65  1  0  0  0  0
 33 68  1  0  0  0  0
 34 69  1  0  0  0  0
 34 75  2  0  0  0  0
 35 50  1  0  0  0  0
 35 71  1  0  0  0  0
 35 76  2  0  0  0  0
 36 61  1  0  0  0  0
 36 66  1  0  0  0  0
 36 77  2  0  0  0  0
 37 58  1  0  0  0  0
 37 72  1  0  0  0  0
 37 78  2  0  0  0  0
 38 62  1  0  0  0  0
 38 73  1  0  0  0  0
 38 79  2  0  0  0  0
 39 67  1  0  0  0  0
 39 70  1  0  0  0  0
 39 80  2  0  0  0  0
 40 43  1  0  0  0  0
 41 50  1  0  0  0  0
 42 66  1  0  0  0  0
 43 45  1  0  0  0  0
 44 46  1  0  0  0  0
 44 47  1  0  0  0  0
 45 49  1  0  0  0  0
 46 51  1  0  0  0  0
 47 67  1  0  0  0  0
 48 51  1  0  0  0  0
 48 67  1  0  0  0  0
 49 71  1  0  0  0  0
 50 66  1  0  0  0  0
 51 65  1  0  0  0  0
 52 62  1  0  0  0  0
 53 63  1  0  0  0  0
 54 63  1  0  0  0  0
 55 63  1  0  0  0  0
 56 74  1  0  0  0  0
 57 72  1  0  0  0  0
 58 59  1  0  0  0  0
 59 60  1  0  0  0  0
 60 82  1  0  0  0  0
 61 63  1  0  0  0  0
 61 73  1  0  0  0  0
 62 74  1  0  0  0  0
 64 65  1  0  0  0  0
M  CHG  1  74   1
M  ISO  4  39 100  60 101  70 100  82 101
M  END
> <Batch ID>
0057

> <Smiles>
CNC(C)C(=O)NC(C(=O)N1Cc2cc([101O:1][101CH2:1]CCC(=O)NCc3cccc([100NH:0][100C:0](=O)N4CCCC(n5nc(-c6ccc(Oc7ccc(F)cc7F)cc6)c(C(N)=O)c5N)C4)c3)ccc2CC1C(=O)NC1CCCc2ccccc21)C(C)(C)C

> <Shape>
0.246

> <Color>
0.080

> <Negative vol penalty>
0.000

$$$$

  -OEChem-04042322553D

 91100  0     1  0  0  0  0  0999 V2000
  -28.4242  -37.6484   20.7928 C   0  0  0  0  0  0  0  0  0  0  0  0
  -28.8174  -36.3523   20.4752 C   0  0  0  0  0  0  0  0  0  0  0  0
  -25.7167   -8.9476   21.9842 C   0  0  0  0  0  0  0  0  0  0  0  0
  -26.7566  -10.7023   23.2791 C   0  0  0  0  0  0  0  0  0  0  0  0
  -27.4973  -37.8646   21.8116 C   0  0  0  0  0  0  0  0  0  0  0  0
  -28.2847  -35.2716   21.1771 C   0  0  0  0  0  0  0  0  0  0  0  0
  -27.0150  -29.7064   18.9584 C   0  0  0  0  0  0  0  0  0  0  0  0
  -26.2694   -7.9914   22.8361 C   0  0  0  0  0  0  0  0  0  0  0  0
  -27.3092   -9.7460   24.1311 C   0  0  0  0  0  0  0  0  0  0  0  0
  -27.7130  -28.5001   18.9956 C   0  0  0  0  0  0  0  0  0  0  0  0
  -25.6306   -6.7223   25.9044 C   0  0  0  0  0  0  0  0  0  0  0  0
  -24.8027   -5.6890   26.3428 C   0  0  0  0  0  0  0  0  0  0  0  0
  -26.4307  -27.8246   20.9240 C   0  0  0  0  0  0  0  0  0  0  0  0
  -29.1487  -19.1117   20.5629 C   0  0  0  0  0  0  0  0  0  0  0  0
  -27.6899  -18.5278   22.3982 C   0  0  0  0  0  0  0  0  0  0  0  0
  -26.2804   -4.0723   25.3231 C   0  0  0  0  0  0  0  0  0  0  0  0
  -25.9604  -10.3031   22.2056 C   0  0  0  0  0  0  0  0  0  0  0  0
  -24.0240  -11.5163   21.0715 C   0  0  0  0  0  0  0  0  0  0  0  0
  -26.9457  -36.7854   22.5199 C   0  0  0  0  0  0  0  0  0  0  0  0
  -26.0255  -29.9859   19.9119 C   0  0  0  0  0  0  0  0  0  0  0  0
  -27.3506  -35.4736   22.2073 C   0  0  0  0  0  0  0  0  0  0  0  0
  -25.7198  -29.0341   20.8951 C   0  0  0  0  0  0  0  0  0  0  0  0
  -29.7360  -20.1055   21.3459 C   0  0  0  0  0  0  0  0  0  0  0  0
  -28.2772  -19.5216   23.1812 C   0  0  0  0  0  0  0  0  0  0  0  0
  -29.3003  -20.3104   22.6550 C   0  0  0  0  0  0  0  0  0  0  0  0
  -28.1256  -18.3229   21.0890 C   0  0  0  0  0  0  0  0  0  0  0  0
  -27.0655   -8.3906   23.9096 C   0  0  0  0  0  0  0  0  0  0  0  0
  -27.4229  -27.5602   19.9803 C   0  0  0  0  0  0  0  0  0  0  0  0
  -26.7834   -6.4307   25.1752 C   0  0  0  0  0  0  0  0  0  0  0  0
  -25.1276   -4.3640   26.0522 C   0  0  0  0  0  0  0  0  0  0  0  0
  -27.1083   -5.1057   24.8845 C   0  0  0  0  0  0  0  0  0  0  0  0
  -25.3903  -11.2914   21.3256 C   0  0  0  0  0  0  0  0  0  0  0  0
  -24.0084  -12.5546   20.1725 C   0  0  0  0  0  0  0  0  0  0  0  0
  -30.9956  -23.3906   20.9665 C   0  0  0  0  0  0  0  0  0  0  0  0
  -22.8720  -10.8467   21.6008 C   0  0  0  0  0  0  0  0  0  0  0  0
  -25.6375  -32.2000   22.1593 C   0  0  0  0  0  0  0  0  0  0  0  0
  -22.7243  -30.8094   22.4774 C   0  0  0  0  0  0  0  0  0  0  0  0
  -20.7761  -28.0380   22.0638 C   0  0  0  0  0  0  0  0  0  0  0  0
  -27.8443  -16.9777   18.9777 C   0  0  0  0  0  0  0  0  0  0  0  0
  -25.9827  -37.0716   23.6448 C   0  0  0  0  0  0  0  0  0  0  0  0
  -25.2630  -31.2806   19.8419 C   0  0  0  0  0  0  0  0  0  0  0  0
  -24.6524  -29.2772   21.9296 C   0  0  0  0  0  0  0  0  0  0  0  0
  -30.4157  -24.7476   20.6150 C   0  0  0  0  0  0  0  0  0  0  0  0
  -25.1839  -35.8488   24.0886 C   0  0  0  0  0  0  0  0  0  0  0  0
  -26.6342  -14.5325   16.6900 C   0  0  0  0  0  0  0  0  0  0  0  0
  -26.1028  -34.6429   24.2564 C   0  0  0  0  0  0  0  0  0  0  0  0
  -26.0481  -13.4471   17.5959 C   0  0  0  0  0  0  0  0  0  0  0  0
  -28.7274  -23.6927   19.1499 C   0  0  0  0  0  0  0  0  0  0  0  0
  -27.8939  -15.1536   17.2910 C   0  0  0  0  0  0  0  0  0  0  0  0
  -29.4241  -22.3514   19.2948 C   0  0  0  0  0  0  0  0  0  0  0  0
  -27.1586  -14.5703   19.5688 C   0  0  0  0  0  0  0  0  0  0  0  0
  -26.7766  -34.2738   22.9292 C   0  0  1  0  0  0  0  0  0  0  0  0
  -24.6322  -31.6752   21.1737 C   0  0  1  0  0  0  0  0  0  0  0  0
  -29.7540  -24.8136   19.2448 C   0  0  1  0  0  0  0  0  0  0  0  0
  -25.8518  -13.9604   19.0359 C   0  0  2  0  0  0  0  0  0  0  0  0
  -29.9306  -21.3758   23.4946 C   0  0  0  0  0  0  0  0  0  0  0  0
  -18.4454  -27.1926   22.4520 C   0  0  0  0  0  0  0  0  0  0  0  0
  -28.5663  -18.8636   25.5775 C   0  0  0  0  0  0  0  0  0  0  0  0
  -23.3316  -30.5083   25.4524 C   0  0  0  0  0  0  0  0  0  0  0  0
  -21.4565  -28.8557   25.5968 C   0  0  0  0  0  0  0  0  0  0  0  0
  -20.9895  -31.2142   24.9320 C   0  0  0  0  0  0  0  0  0  0  0  0
  -20.3412  -27.5670   19.1745 C   0  0  0  0  0  0  0  0  0  0  0  0
  -30.8348  -20.9411   20.7556 C   0  0  0  0  0  0  0  0  0  0  0  0
  -29.1012  -26.1751   19.0205 C   0  0  0  0  0  0  0  0  0  1  0  0
  -22.1646  -29.6772   23.3045 C   0  0  1  0  0  0  0  0  0  0  0  0
  -19.3920  -27.8597   21.4663 C   0  0  2  0  0  0  0  0  0  0  0  0
  -27.7924  -19.7207   24.5799 C   0  0  0  0  0  0  0  0  0  0  0  0
  -22.0071  -30.0598   24.8032 C   0  0  0  0  0  0  0  0  0  0  0  0
  -26.1850  -12.1200   20.6431 N   0  0  0  0  0  0  0  0  0  0  0  0
  -25.3154  -12.8757   19.9512 N   0  0  0  0  0  0  0  0  0  0  0  0
  -30.3742  -22.2778   20.4039 N   0  0  0  0  0  0  0  0  0  0  0  0
  -23.9391  -30.5607   21.8231 N   0  0  0  0  0  0  0  0  0  0  0  0
  -27.6313  -15.6211   18.6538 N   0  0  0  0  0  0  0  0  0  0  0  0
  -23.0044  -13.2151   19.5576 N   0  0  0  0  0  0  0  0  0  0  0  0
  -23.0676   -9.8015   22.5138 N   0  0  0  0  0  0  0  0  0  0  0  0
  -27.5295  -17.3125   20.2943 N   0  0  0  0  0  0  0  0  0  0  0  0
  -25.8513  -33.5625   22.0734 N   0  0  0  0  0  0  0  0  0  0  0  0
  -20.9211  -29.2744   22.6567 N   0  0  0  0  0  0  0  0  0  0  0  0
  -19.4623  -27.0176   20.2388 N   0  3  0  0  0  0  0  0  0  0  0  0
  -31.9209  -23.3286   21.7809 O   0  0  0  0  0  0  0  0  0  0  0  0
  -21.7045  -11.1550   21.2613 O   0  0  0  0  0  0  0  0  0  0  0  0
  -26.1781  -31.4264   22.9409 O   0  0  0  0  0  0  0  0  0  0  0  0
  -22.1027  -31.8726   22.4085 O   0  0  0  0  0  0  0  0  0  0  0  0
  -21.6409  -27.1661   22.0131 O   0  0  0  0  0  0  0  0  0  0  0  0
  -28.2484  -17.7890   18.1407 O   0  0  0  0  0  0  0  0  0  0  0  0
  -27.6048   -7.4577   24.7412 O   0  0  0  0  0  0  0  0  0  0  0  0
  -28.1032  -26.3822   20.0193 O   0  0  0  0  0  0  0  0  0  1  0  0
  -24.3332   -3.3716   26.4747 F   0  0  0  0  0  0  0  0  0  0  0  0
  -28.2151   -4.8193   24.1854 F   0  0  0  0  0  0  0  0  0  0  0  0
  -26.4644  -19.4170   24.7332 F   0  0  0  0  0  0  0  0  0  0  0  0
  -27.8956  -21.0212   25.0009 F   0  0  0  0  0  0  0  0  0  0  0  0
  1  2  1  0  0  0  0
  1  5  2  0  0  0  0
  2  6  2  0  0  0  0
  3  8  2  0  0  0  0
  3 17  1  0  0  0  0
  4  9  1  0  0  0  0
  4 17  2  0  0  0  0
  5 19  1  0  0  0  0
  6 21  1  0  0  0  0
  7 10  2  0  0  0  0
  7 20  1  0  0  0  0
  8 27  1  0  0  0  0
  9 27  2  0  0  0  0
 10 28  1  0  0  0  0
 11 12  2  0  0  0  0
 11 29  1  0  0  0  0
 12 30  1  0  0  0  0
 13 22  1  0  0  0  0
 13 28  2  0  0  0  0
 14 23  1  0  0  0  0
 14 26  2  0  0  0  0
 15 24  2  0  0  0  0
 15 26  1  0  0  0  0
 16 30  2  0  0  0  0
 16 31  1  0  0  0  0
 17 32  1  0  0  0  0
 18 32  1  0  0  0  0
 18 33  2  0  0  0  0
 18 35  1  0  0  0  0
 19 21  2  0  0  0  0
 19 40  1  0  0  0  0
 20 22  2  0  0  0  0
 20 41  1  0  0  0  0
 21 52  1  0  0  0  0
 22 42  1  0  0  0  0
 23 25  2  0  0  0  0
 23 63  1  0  0  0  0
 24 25  1  0  0  0  0
 24 67  1  0  0  0  0
 25 56  1  0  0  0  0
 26 76  1  0  0  0  0
 27 86  1  0  0  0  0
 28 87  1  0  0  0  0
 29 31  2  0  0  0  0
 29 86  1  0  0  0  0
 30 88  1  0  0  0  0
 31 89  1  0  0  0  0
 32 69  2  0  0  0  0
 33 70  1  0  0  0  0
 33 74  1  0  0  0  0
 34 43  1  0  0  0  0
 34 71  1  0  0  0  0
 34 80  2  0  0  0  0
 35 75  1  0  0  0  0
 35 81  2  0  0  0  0
 36 53  1  0  0  0  0
 36 77  1  0  0  0  0
 36 82  2  0  0  0  0
 37 65  1  0  0  0  0
 37 72  1  0  0  0  0
 37 83  2  0  0  0  0
 38 66  1  0  0  0  0
 38 78  1  0  0  0  0
 38 84  2  0  0  0  0
 39 73  1  0  0  0  0
 39 76  1  0  0  0  0
 39 85  2  0  0  0  0
 40 44  1  0  0  0  0
 41 53  1  0  0  0  0
 42 72  1  0  0  0  0
 43 54  1  0  0  0  0
 44 46  1  0  0  0  0
 45 47  1  0  0  0  0
 45 49  1  0  0  0  0
 46 52  1  0  0  0  0
 47 55  1  0  0  0  0
 48 50  1  0  0  0  0
 48 54  1  0  0  0  0
 49 73  1  0  0  0  0
 50 71  1  0  0  0  0
 51 55  1  0  0  0  0
 51 73  1  0  0  0  0
 52 77  1  0  0  0  0
 53 72  1  0  0  0  0
 54 64  1  0  0  0  0
 55 70  1  0  0  0  0
 57 66  1  0  0  0  0
 58 67  1  0  0  0  0
 59 68  1  0  0  0  0
 60 68  1  0  0  0  0
 61 68  1  0  0  0  0
 62 79  1  0  0  0  0
 63 71  1  0  0  0  0
 64 87  1  0  0  0  0
 65 68  1  0  0  0  0
 65 78  1  0  0  0  0
 66 79  1  0  0  0  0
 67 90  1  0  0  0  0
 67 91  1  0  0  0  0
 69 70  1  0  0  0  0
M  CHG  1  79   1
M  ISO  4  39 100  64 101  76 100  87 101
M  END
> <Batch ID>
0057

> <Smiles>
CNC(C)C(=O)NC(C(=O)N1Cc2cc([101O:1][101CH2:1]C3CCN(Cc4cc([100NH:0][100C:0](=O)N5CCCC(n6nc(-c7ccc(Oc8ccc(F)cc8F)cc7)c(C(N)=O)c6N)C5)cc(C(C)(F)F)c4C)C(=O)C3)ccc2CC1C(=O)NC1CCCc2ccccc21)C(C)(C)C

> <Shape>
0.259

> <Color>
0.085

> <Negative vol penalty>
0.000

$$$$

  -OEChem-04042322553D

 85 93  0     1  0  0  0  0  0999 V2000
  -17.1921  -28.7213   20.0173 C   0  0  0  0  0  0  0  0  0  0  0  0
  -18.3782  -27.9949   19.9889 C   0  0  0  0  0  0  0  0  0  0  0  0
  -32.2674  -18.2537   22.7616 C   0  0  0  0  0  0  0  0  0  0  0  0
  -23.2043   -9.6101   20.4551 C   0  0  0  0  0  0  0  0  0  0  0  0
  -23.7819  -10.1771   22.7315 C   0  0  0  0  0  0  0  0  0  0  0  0
  -31.3903  -19.2325   23.2287 C   0  0  0  0  0  0  0  0  0  0  0  0
  -17.1706  -29.9971   20.5793 C   0  0  0  0  0  0  0  0  0  0  0  0
  -19.5439  -28.5444   20.5216 C   0  0  0  0  0  0  0  0  0  0  0  0
  -22.1109  -25.2512   23.3870 C   0  0  0  0  0  0  0  0  0  0  0  0
  -31.7763  -17.1602   22.0483 C   0  0  0  0  0  0  0  0  0  0  0  0
  -22.4743   -8.5135   20.9134 C   0  0  0  0  0  0  0  0  0  0  0  0
  -23.0518   -9.0805   23.1899 C   0  0  0  0  0  0  0  0  0  0  0  0
  -22.8747  -24.2912   22.7247 C   0  0  0  0  0  0  0  0  0  0  0  0
  -19.4438   -7.9423   22.3001 C   0  0  0  0  0  0  0  0  0  0  0  0
  -18.1806   -7.7282   21.7487 C   0  0  0  0  0  0  0  0  0  0  0  0
  -29.5310  -18.0242   22.2695 C   0  0  0  0  0  0  0  0  0  0  0  0
  -24.8574  -25.6089   23.1140 C   0  0  0  0  0  0  0  0  0  0  0  0
  -18.8939   -5.5601   20.9565 C   0  0  0  0  0  0  0  0  0  0  0  0
  -23.8582  -10.4419   21.3641 C   0  0  0  0  0  0  0  0  0  0  0  0
  -30.0221  -19.1178   22.9827 C   0  0  0  0  0  0  0  0  0  0  0  0
  -24.1408  -12.8845   20.6849 C   0  0  0  0  0  0  0  0  0  0  0  0
  -18.3344  -30.5586   21.1278 C   0  0  0  0  0  0  0  0  0  0  0  0
  -22.7140  -26.4045   23.9092 C   0  0  0  0  0  0  0  0  0  0  0  0
  -19.5382  -29.8294   21.0902 C   0  0  0  0  0  0  0  0  0  0  0  0
  -24.0995  -26.5808   23.7847 C   0  0  0  0  0  0  0  0  0  0  0  0
  -30.4081  -17.0454   21.8024 C   0  0  0  0  0  0  0  0  0  0  0  0
  -22.3980   -8.2487   22.2808 C   0  0  0  0  0  0  0  0  0  0  0  0
  -24.2477  -24.4713   22.5856 C   0  0  0  0  0  0  0  0  0  0  0  0
  -20.4321   -6.9652   22.1797 C   0  0  0  0  0  0  0  0  0  0  0  0
  -17.9056   -6.5371   21.0769 C   0  0  0  0  0  0  0  0  0  0  0  0
  -20.1571   -5.7741   21.5080 C   0  0  0  0  0  0  0  0  0  0  0  0
  -24.6130  -11.5745   20.8912 C   0  0  0  0  0  0  0  0  0  0  0  0
  -25.2376  -13.5780   20.2348 C   0  0  0  0  0  0  0  0  0  0  0  0
  -29.0807  -20.1705   23.4853 C   0  0  0  0  0  0  0  0  0  0  0  0
  -22.8281  -13.4262   20.8826 C   0  0  0  0  0  0  0  0  0  0  0  0
  -22.4282  -29.5244   23.3724 C   0  0  0  0  0  0  0  0  0  0  0  0
  -24.4504  -29.7488   25.8988 C   0  0  0  0  0  0  0  0  0  0  0  0
  -26.8509  -28.2781   27.8278 C   0  0  0  0  0  0  0  0  0  0  0  0
  -30.6435  -14.8758   20.5438 C   0  0  0  0  0  0  0  0  0  0  0  0
  -18.2727  -31.9600   21.6818 C   0  0  0  0  0  0  0  0  0  0  0  0
  -21.8802  -27.4178   24.6443 C   0  0  0  0  0  0  0  0  0  0  0  0
  -24.7983  -27.7916   24.3451 C   0  0  0  0  0  0  0  0  0  0  0  0
  -19.4668  -32.3200   22.5621 C   0  0  0  0  0  0  0  0  0  0  0  0
  -29.7828  -11.9359   18.7292 C   0  0  0  0  0  0  0  0  0  0  0  0
  -20.7706  -31.8995   21.8913 C   0  0  0  0  0  0  0  0  0  0  0  0
  -28.3222  -11.6875   19.1129 C   0  0  0  0  0  0  0  0  0  0  0  0
  -30.5946  -12.4747   19.9058 C   0  0  0  0  0  0  0  0  0  0  0  0
  -28.5667  -13.4121   20.9440 C   0  0  0  0  0  0  0  0  0  0  0  0
  -20.8178  -30.3814   21.6803 C   0  0  1  0  0  0  0  0  0  0  0  0
  -22.5210  -28.8016   24.6863 C   0  0  1  0  0  0  0  0  0  0  0  0
  -27.6940  -12.9303   19.7736 C   0  0  2  0  0  0  0  0  0  0  0  0
  -28.3416  -28.7229   29.7969 C   0  0  0  0  0  0  0  0  0  0  0  0
  -26.2580  -31.4655   24.1394 C   0  0  0  0  0  0  0  0  0  0  0  0
  -28.1060  -31.0821   25.7844 C   0  0  0  0  0  0  0  0  0  0  0  0
  -26.0301  -32.2676   26.4972 C   0  0  0  0  0  0  0  0  0  0  0  0
  -25.6406  -26.0744   29.3893 C   0  0  0  0  0  0  0  0  0  0  0  0
  -24.5436  -22.1841   22.0048 C   0  0  0  0  0  0  0  0  0  1  0  0
  -25.7294  -21.2495   21.8761 C   0  0  0  0  0  0  0  0  0  0  0  0
  -25.9502  -29.7773   26.0684 C   0  0  1  0  0  0  0  0  0  0  0  0
  -27.0042  -28.1664   29.3340 C   0  0  2  0  0  0  0  0  0  0  0  0
  -26.5729  -31.1261   25.6100 C   0  0  0  0  0  0  0  0  0  0  0  0
  -25.9088  -11.4410   20.5962 N   0  0  0  0  0  0  0  0  0  0  0  0
  -28.0040  -20.3654   22.7767 N   0  0  0  0  0  0  0  0  0  0  0  0
  -26.2602  -12.6762   20.1999 N   0  0  0  0  0  0  0  0  0  0  0  0
  -23.9388  -28.7570   25.0499 N   0  0  0  0  0  0  0  0  0  0  0  0
  -29.9413  -13.6538   20.4783 N   0  0  0  0  0  0  0  0  0  0  0  0
  -25.4174  -14.8650   19.8694 N   0  0  0  0  0  0  0  0  0  0  0  0
  -29.4281  -20.8413   24.6393 N   0  0  0  0  0  0  0  0  0  0  0  0
  -21.8175  -12.5751   21.3502 N   0  0  0  0  0  0  0  0  0  0  0  0
  -29.9095  -15.9346   21.0776 N   0  0  0  0  0  0  0  0  0  0  0  0
  -21.1349  -29.7082   22.9215 N   0  0  0  0  0  0  0  0  0  0  0  0
  -26.2094  -29.4434   27.4647 N   0  0  0  0  0  0  0  0  0  0  0  0
  -26.9157  -26.7409   29.7594 N   0  3  0  0  0  0  0  0  0  0  0  0
  -22.5553  -14.6254   20.6358 O   0  0  0  0  0  0  0  0  0  0  0  0
  -23.4538  -29.8898   22.8100 O   0  0  0  0  0  0  0  0  0  0  0  0
  -23.7577  -30.5715   26.5029 O   0  0  0  0  0  0  0  0  0  0  0  0
  -27.2626  -27.4194   27.0509 O   0  0  0  0  0  0  0  0  0  0  0  0
  -31.8008  -14.9823   20.1300 O   0  0  0  0  0  0  0  0  0  0  0  0
  -26.2209  -21.0835   24.4208 O   0  0  0  0  0  0  0  0  0  0  0  0
  -27.4370  -22.8154   23.0487 O   0  0  0  0  0  0  0  0  0  0  0  0
  -21.6855   -7.1789   22.7284 O   0  0  0  0  0  0  0  0  0  0  0  0
  -24.9955  -23.5361   21.9390 O   0  0  0  0  0  0  0  0  0  1  0  0
  -16.6921   -6.3311   20.5487 F   0  0  0  0  0  0  0  0  0  0  0  0
  -21.1021   -4.8313   21.3901 F   0  0  0  0  0  0  0  0  0  0  0  0
  -26.8875  -21.4772   23.1906 S   0  0  0  0  0  0  0  0  0  0  0  0
  1  2  1  0  0  0  0
  1  7  2  0  0  0  0
  2  8  2  0  0  0  0
  3  6  2  0  0  0  0
  3 10  1  0  0  0  0
  4 11  2  0  0  0  0
  4 19  1  0  0  0  0
  5 12  1  0  0  0  0
  5 19  2  0  0  0  0
  6 20  1  0  0  0  0
  7 22  1  0  0  0  0
  8 24  1  0  0  0  0
  9 13  2  0  0  0  0
  9 23  1  0  0  0  0
 10 26  2  0  0  0  0
 11 27  1  0  0  0  0
 12 27  2  0  0  0  0
 13 28  1  0  0  0  0
 14 15  2  0  0  0  0
 14 29  1  0  0  0  0
 15 30  1  0  0  0  0
 16 20  2  0  0  0  0
 16 26  1  0  0  0  0
 17 25  1  0  0  0  0
 17 28  2  0  0  0  0
 18 30  2  0  0  0  0
 18 31  1  0  0  0  0
 19 32  1  0  0  0  0
 20 34  1  0  0  0  0
 21 32  1  0  0  0  0
 21 33  2  0  0  0  0
 21 35  1  0  0  0  0
 22 24  2  0  0  0  0
 22 40  1  0  0  0  0
 23 25  2  0  0  0  0
 23 41  1  0  0  0  0
 24 49  1  0  0  0  0
 25 42  1  0  0  0  0
 26 70  1  0  0  0  0
 27 81  1  0  0  0  0
 28 82  1  0  0  0  0
 29 31  2  0  0  0  0
 29 81  1  0  0  0  0
 30 83  1  0  0  0  0
 31 84  1  0  0  0  0
 32 62  2  0  0  0  0
 33 64  1  0  0  0  0
 33 67  1  0  0  0  0
 34 63  2  0  0  0  0
 34 68  1  0  0  0  0
 35 69  1  0  0  0  0
 35 74  2  0  0  0  0
 36 50  1  0  0  0  0
 36 71  1  0  0  0  0
 36 75  2  0  0  0  0
 37 59  1  0  0  0  0
 37 65  1  0  0  0  0
 37 76  2  0  0  0  0
 38 60  1  0  0  0  0
 38 72  1  0  0  0  0
 38 77  2  0  0  0  0
 39 66  1  0  0  0  0
 39 70  1  0  0  0  0
 39 78  2  0  0  0  0
 40 43  1  0  0  0  0
 41 50  1  0  0  0  0
 42 65  1  0  0  0  0
 43 45  1  0  0  0  0
 44 46  1  0  0  0  0
 44 47  1  0  0  0  0
 45 49  1  0  0  0  0
 46 51  1  0  0  0  0
 47 66  1  0  0  0  0
 48 51  1  0  0  0  0
 48 66  1  0  0  0  0
 49 71  1  0  0  0  0
 50 65  1  0  0  0  0
 51 64  1  0  0  0  0
 52 60  1  0  0  0  0
 53 61  1  0  0  0  0
 54 61  1  0  0  0  0
 55 61  1  0  0  0  0
 56 73  1  0  0  0  0
 57 58  1  0  0  0  0
 57 82  1  0  0  0  0
 58 85  1  0  0  0  0
 59 61  1  0  0  0  0
 59 72  1  0  0  0  0
 60 73  1  0  0  0  0
 62 64  1  0  0  0  0
 63 85  1  0  0  0  0
 79 85  2  0  0  0  0
 80 85  2  0  0  0  0
M  CHG  1  73   1
M  ISO  4  39 100  57 101  70 100  82 101
M  END
> <Batch ID>
0057

> <Smiles>
CNC(C)C(=O)NC(C(=O)N1Cc2cc([101O:1][101CH2:1]CS(=O)(=O)NC(=N)c3cccc([100NH:0][100C:0](=O)N4CCCC(n5nc(-c6ccc(Oc7ccc(F)cc7F)cc6)c(C(N)=O)c5N)C4)c3)ccc2CC1C(=O)NC1CCCc2ccccc21)C(C)(C)C

> <Shape>
0.231

> <Color>
0.191

> <Negative vol penalty>
0.000

$$$$

  -OEChem-04042322553D

 85 93  0     1  0  0  0  0  0999 V2000
  -21.8118  -29.3931   16.7313 C   0  0  0  0  0  0  0  0  0  0  0  0
  -22.2532  -28.3301   17.5128 C   0  0  0  0  0  0  0  0  0  0  0  0
  -23.0360   -9.8890   19.9248 C   0  0  0  0  0  0  0  0  0  0  0  0
  -23.8752   -9.7835   22.1879 C   0  0  0  0  0  0  0  0  0  0  0  0
  -21.7406  -30.6746   17.2758 C   0  0  0  0  0  0  0  0  0  0  0  0
  -22.6247  -28.5483   18.8390 C   0  0  0  0  0  0  0  0  0  0  0  0
  -20.7560  -25.0444   21.9816 C   0  0  0  0  0  0  0  0  0  0  0  0
  -31.4270  -18.4856   20.1906 C   0  0  0  0  0  0  0  0  0  0  0  0
  -31.1337  -19.5793   19.3763 C   0  0  0  0  0  0  0  0  0  0  0  0
  -22.3074   -8.7193   20.1405 C   0  0  0  0  0  0  0  0  0  0  0  0
  -23.1465   -8.6138   22.4036 C   0  0  0  0  0  0  0  0  0  0  0  0
  -21.3999  -23.8082   22.0121 C   0  0  0  0  0  0  0  0  0  0  0  0
  -23.4355   -5.3270   21.6660 C   0  0  0  0  0  0  0  0  0  0  0  0
  -24.0810   -4.2705   22.3085 C   0  0  0  0  0  0  0  0  0  0  0  0
  -22.5541  -24.4660   24.0257 C   0  0  0  0  0  0  0  0  0  0  0  0
  -29.2463  -18.6633   21.2152 C   0  0  0  0  0  0  0  0  0  0  0  0
  -22.4392   -4.3442   24.0793 C   0  0  0  0  0  0  0  0  0  0  0  0
  -23.8199  -10.4211   20.9486 C   0  0  0  0  0  0  0  0  0  0  0  0
  -24.1440  -12.9514   20.9472 C   0  0  0  0  0  0  0  0  0  0  0  0
  -22.1023  -30.9069   18.6122 C   0  0  0  0  0  0  0  0  0  0  0  0
  -21.0150  -26.0064   22.9684 C   0  0  0  0  0  0  0  0  0  0  0  0
  -22.5595  -29.8344   19.4015 C   0  0  0  0  0  0  0  0  0  0  0  0
  -21.9103  -25.7127   24.0068 C   0  0  0  0  0  0  0  0  0  0  0  0
  -30.4833  -18.0275   21.1101 C   0  0  0  0  0  0  0  0  0  0  0  0
  -29.8966  -20.2152   19.4815 C   0  0  0  0  0  0  0  0  0  0  0  0
  -28.9529  -19.7572   20.4009 C   0  0  0  0  0  0  0  0  0  0  0  0
  -22.3626   -8.0817   21.3799 C   0  0  0  0  0  0  0  0  0  0  0  0
  -22.3013  -23.5199   23.0327 C   0  0  0  0  0  0  0  0  0  0  0  0
  -22.2918   -5.8921   22.2302 C   0  0  0  0  0  0  0  0  0  0  0  0
  -23.5829   -3.7791   23.5151 C   0  0  0  0  0  0  0  0  0  0  0  0
  -21.7936   -5.4007   23.4369 C   0  0  0  0  0  0  0  0  0  0  0  0
  -24.5733  -11.6291   20.7262 C   0  0  0  0  0  0  0  0  0  0  0  0
  -25.2188  -13.7263   20.5856 C   0  0  0  0  0  0  0  0  0  0  0  0
  -25.4893  -20.9607   21.2055 C   0  0  0  0  0  0  0  0  0  0  0  0
  -24.3828  -20.8029   21.9450 C   0  0  0  0  0  0  0  0  0  0  0  0
  -22.8861  -13.4360   21.4358 C   0  0  0  0  0  0  0  0  0  0  0  0
  -26.6575  -20.0481   21.3848 C   0  0  0  0  0  0  0  0  0  0  0  0
  -22.2218  -28.9471   22.9724 C   0  0  0  0  0  0  0  0  0  0  0  0
  -21.3844  -28.8667   26.1053 C   0  0  0  0  0  0  0  0  0  0  0  0
  -20.7118  -26.9932   28.8773 C   0  0  0  0  0  0  0  0  0  0  0  0
  -30.7003  -14.7732   20.6371 C   0  0  0  0  0  0  0  0  0  0  0  0
  -22.0535  -32.3179   19.1427 C   0  0  0  0  0  0  0  0  0  0  0  0
  -20.2921  -27.3251   22.9361 C   0  0  0  0  0  0  0  0  0  0  0  0
  -22.2078  -26.7035   25.1014 C   0  0  0  0  0  0  0  0  0  0  0  0
  -22.1093  -32.3982   20.6661 C   0  0  0  0  0  0  0  0  0  0  0  0
  -29.4930  -12.5064   18.1711 C   0  0  0  0  0  0  0  0  0  0  0  0
  -23.2121  -31.4944   21.2082 C   0  0  0  0  0  0  0  0  0  0  0  0
  -28.0731  -12.1806   18.6377 C   0  0  0  0  0  0  0  0  0  0  0  0
  -30.4502  -12.6717   19.3495 C   0  0  0  0  0  0  0  0  0  0  0  0
  -28.5940  -13.3171   20.8367 C   0  0  0  0  0  0  0  0  0  0  0  0
  -22.9477  -30.0266   20.8515 C   0  0  1  0  0  0  0  0  0  0  0  0
  -21.0189  -28.4239   23.7053 C   0  0  1  0  0  0  0  0  0  0  0  0
  -27.5804  -13.1964   19.6859 C   0  0  2  0  0  0  0  0  0  0  0  0
  -29.6101  -21.3851   18.5970 C   0  0  0  0  0  0  0  0  0  0  0  0
  -20.0944  -27.2109   31.2998 C   0  0  0  0  0  0  0  0  0  0  0  0
  -24.2579  -29.6534   26.7644 C   0  0  0  0  0  0  0  0  0  0  0  0
  -23.8390  -28.9355   29.1260 C   0  0  0  0  0  0  0  0  0  0  0  0
  -22.5182  -30.8083   28.1408 C   0  0  0  0  0  0  0  0  0  0  0  0
  -18.1690  -25.5319   28.4803 C   0  0  0  0  0  0  0  0  0  0  0  0
  -30.7978  -16.8578   21.9802 C   0  0  0  0  0  0  0  0  0  0  0  0
  -23.1772  -21.6765   21.8118 C   0  0  0  0  0  0  0  0  0  1  0  0
  -22.0650  -28.4392   27.3832 C   0  0  1  0  0  0  0  0  0  0  0  0
  -19.5736  -27.0506   29.8800 C   0  0  2  0  0  0  0  0  0  0  0  0
  -23.1661  -29.4409   27.8320 C   0  0  0  0  0  0  0  0  0  0  0  0
  -25.8233  -11.5638   20.2602 N   0  0  0  0  0  0  0  0  0  0  0  0
  -26.1887  -12.8549   20.1853 N   0  0  0  0  0  0  0  0  0  0  0  0
  -21.4807  -27.9812   25.0225 N   0  0  0  0  0  0  0  0  0  0  0  0
  -29.9254  -13.6495   20.3058 N   0  0  0  0  0  0  0  0  0  0  0  0
  -25.4195  -15.0612   20.5742 N   0  0  0  0  0  0  0  0  0  0  0  0
  -21.8914  -12.5036   21.7604 N   0  0  0  0  0  0  0  0  0  0  0  0
  -27.6909  -20.3891   20.5220 N   0  0  0  0  0  0  0  0  0  0  0  0
  -21.9376  -29.4684   21.7246 N   0  0  0  0  0  0  0  0  0  0  0  0
  -21.0035  -28.2391   28.3638 N   0  0  0  0  0  0  0  0  0  0  0  0
  -30.1260  -15.6532   21.5461 N   0  0  0  0  0  0  0  0  0  0  0  0
  -18.7625  -25.8020   29.8151 N   0  3  0  0  0  0  0  0  0  0  0  0
  -22.6455  -14.6604   21.5646 O   0  0  0  0  0  0  0  0  0  0  0  0
  -26.6347  -19.1390   22.2060 O   0  0  0  0  0  0  0  0  0  0  0  0
  -23.3258  -28.8839   23.5005 O   0  0  0  0  0  0  0  0  0  0  0  0
  -20.7833  -29.9434   26.0712 O   0  0  0  0  0  0  0  0  0  0  0  0
  -21.2873  -25.9481   28.5820 O   0  0  0  0  0  0  0  0  0  0  0  0
  -31.8189  -14.9797   20.1542 O   0  0  0  0  0  0  0  0  0  0  0  0
  -21.6516   -6.9404   21.5908 O   0  0  0  0  0  0  0  0  0  0  0  0
  -22.9316  -22.3143   23.0645 O   0  0  0  0  0  0  0  0  0  1  0  0
  -24.2020   -2.7636   24.1312 F   0  0  0  0  0  0  0  0  0  0  0  0
  -20.6946   -5.9388   23.9832 F   0  0  0  0  0  0  0  0  0  0  0  0
  1  2  1  0  0  0  0
  1  5  2  0  0  0  0
  2  6  2  0  0  0  0
  3 10  2  0  0  0  0
  3 18  1  0  0  0  0
  4 11  1  0  0  0  0
  4 18  2  0  0  0  0
  5 20  1  0  0  0  0
  6 22  1  0  0  0  0
  7 12  2  0  0  0  0
  7 21  1  0  0  0  0
  8  9  2  0  0  0  0
  8 24  1  0  0  0  0
  9 25  1  0  0  0  0
 10 27  1  0  0  0  0
 11 27  2  0  0  0  0
 12 28  1  0  0  0  0
 13 14  2  0  0  0  0
 13 29  1  0  0  0  0
 14 30  1  0  0  0  0
 15 23  1  0  0  0  0
 15 28  2  0  0  0  0
 16 24  2  0  0  0  0
 16 26  1  0  0  0  0
 17 30  2  0  0  0  0
 17 31  1  0  0  0  0
 18 32  1  0  0  0  0
 19 32  1  0  0  0  0
 19 33  2  0  0  0  0
 19 36  1  0  0  0  0
 20 22  2  0  0  0  0
 20 42  1  0  0  0  0
 21 23  2  0  0  0  0
 21 43  1  0  0  0  0
 22 51  1  0  0  0  0
 23 44  1  0  0  0  0
 24 60  1  0  0  0  0
 25 26  2  0  0  0  0
 25 54  1  0  0  0  0
 26 71  1  0  0  0  0
 27 82  1  0  0  0  0
 28 83  1  0  0  0  0
 29 31  2  0  0  0  0
 29 82  1  0  0  0  0
 30 84  1  0  0  0  0
 31 85  1  0  0  0  0
 32 65  2  0  0  0  0
 33 66  1  0  0  0  0
 33 69  1  0  0  0  0
 34 35  2  0  0  0  0
 34 37  1  0  0  0  0
 35 61  1  0  0  0  0
 36 70  1  0  0  0  0
 36 76  2  0  0  0  0
 37 71  1  0  0  0  0
 37 77  2  0  0  0  0
 38 52  1  0  0  0  0
 38 72  1  0  0  0  0
 38 78  2  0  0  0  0
 39 62  1  0  0  0  0
 39 67  1  0  0  0  0
 39 79  2  0  0  0  0
 40 63  1  0  0  0  0
 40 73  1  0  0  0  0
 40 80  2  0  0  0  0
 41 68  1  0  0  0  0
 41 74  1  0  0  0  0
 41 81  2  0  0  0  0
 42 45  1  0  0  0  0
 43 52  1  0  0  0  0
 44 67  1  0  0  0  0
 45 47  1  0  0  0  0
 46 48  1  0  0  0  0
 46 49  1  0  0  0  0
 47 51  1  0  0  0  0
 48 53  1  0  0  0  0
 49 68  1  0  0  0  0
 50 53  1  0  0  0  0
 50 68  1  0  0  0  0
 51 72  1  0  0  0  0
 52 67  1  0  0  0  0
 53 66  1  0  0  0  0
 55 63  1  0  0  0  0
 56 64  1  0  0  0  0
 57 64  1  0  0  0  0
 58 64  1  0  0  0  0
 59 75  1  0  0  0  0
 60 74  1  0  0  0  0
 61 83  1  0  0  0  0
 62 64  1  0  0  0  0
 62 73  1  0  0  0  0
 63 75  1  0  0  0  0
 65 66  1  0  0  0  0
M  CHG  1  75   1
M  ISO  4  41 100  61 101  74 100  83 101
M  END
> <Batch ID>
0057

> <Smiles>
CNC(C)C(=O)NC(C(=O)N1Cc2cc([101O:1][101CH2:1]C=CC(=O)Nc3cc(C[100NH:0][100C:0](=O)N4CCCC(n5nc(-c6ccc(Oc7ccc(F)cc7F)cc6)c(C(N)=O)c5N)C4)ccc3C)ccc2CC1C(=O)NC1CCCc2ccccc21)C(C)(C)C

> <Shape>
0.277

> <Color>
0.228

> <Negative vol penalty>
0.000

$$$$

  -OEChem-04042322553D

 93102  0     1  0  0  0  0  0999 V2000
  -28.6255  -17.9106   20.1483 C   0  0  0  0  0  0  0  0  0  0  0  0
  -27.5449  -18.6416   19.6651 C   0  0  0  0  0  0  0  0  0  0  0  0
  -24.7397  -14.4526   22.8980 C   0  0  0  0  0  0  0  0  0  0  0  0
  -25.7402  -15.2967   20.8673 C   0  0  0  0  0  0  0  0  0  0  0  0
  -29.5068  -18.4912   21.0593 C   0  0  0  0  0  0  0  0  0  0  0  0
  -27.3444  -19.9533   20.0937 C   0  0  0  0  0  0  0  0  0  0  0  0
  -24.8542  -26.2614   17.7865 C   0  0  0  0  0  0  0  0  0  0  0  0
  -21.0803  -31.6690   25.3421 C   0  0  0  0  0  0  0  0  0  0  0  0
  -20.7566  -31.0233   26.5354 C   0  0  0  0  0  0  0  0  0  0  0  0
  -24.8884  -13.1475   22.4287 C   0  0  0  0  0  0  0  0  0  0  0  0
  -25.8889  -13.9916   20.3980 C   0  0  0  0  0  0  0  0  0  0  0  0
  -23.9491  -27.2589   18.1465 C   0  0  0  0  0  0  0  0  0  0  0  0
  -24.6766   -9.6108   21.6098 C   0  0  0  0  0  0  0  0  0  0  0  0
  -23.5961   -8.7408   21.7550 C   0  0  0  0  0  0  0  0  0  0  0  0
  -25.5813  -28.1848   19.6622 C   0  0  0  0  0  0  0  0  0  0  0  0
  -20.1383  -29.8293   24.0911 C   0  0  0  0  0  0  0  0  0  0  0  0
  -22.2311  -10.2116   20.4093 C   0  0  0  0  0  0  0  0  0  0  0  0
  -25.1656  -15.5272   22.1173 C   0  0  0  0  0  0  0  0  0  0  0  0
  -25.9353  -17.6157   23.3636 C   0  0  0  0  0  0  0  0  0  0  0  0
  -29.3225  -19.8139   21.4919 C   0  0  0  0  0  0  0  0  0  0  0  0
  -26.1280  -26.2117   18.3708 C   0  0  0  0  0  0  0  0  0  0  0  0
  -28.2233  -20.5516   21.0125 C   0  0  0  0  0  0  0  0  0  0  0  0
  -26.5017  -27.1872   19.3061 C   0  0  0  0  0  0  0  0  0  0  0  0
  -20.7711  -31.0720   24.1199 C   0  0  0  0  0  0  0  0  0  0  0  0
  -20.1238  -29.7806   26.5066 C   0  0  0  0  0  0  0  0  0  0  0  0
  -19.8146  -29.1835   25.2844 C   0  0  0  0  0  0  0  0  0  0  0  0
  -25.4629  -12.9170   21.1788 C   0  0  0  0  0  0  0  0  0  0  0  0
  -24.3115  -28.2190   19.0866 C   0  0  0  0  0  0  0  0  0  0  0  0
  -24.5344  -10.7813   20.8645 C   0  0  0  0  0  0  0  0  0  0  0  0
  -22.3733   -9.0412   21.1547 C   0  0  0  0  0  0  0  0  0  0  0  0
  -23.3117  -11.0816   20.2642 C   0  0  0  0  0  0  0  0  0  0  0  0
  -25.0118  -16.8757   22.6012 C   0  0  0  0  0  0  0  0  0  0  0  0
  -25.3216  -18.8280   23.5642 C   0  0  0  0  0  0  0  0  0  0  0  0
  -19.3068  -26.1299   21.3667 C   0  0  0  0  0  0  0  0  0  0  0  0
  -18.1603  -26.6929   21.7506 C   0  0  0  0  0  0  0  0  0  0  0  0
  -20.4729  -26.0998   22.2256 C   0  0  0  0  0  0  0  0  0  0  0  0
  -20.4013  -26.6391   23.4650 C   0  0  0  0  0  0  0  0  0  0  0  0
  -18.0568  -27.3115   23.0943 C   0  0  0  0  0  0  0  0  0  0  0  0
  -27.2320  -17.2409   23.8472 C   0  0  0  0  0  0  0  0  0  0  0  0
  -27.6876  -24.1105   20.1754 C   0  0  0  0  0  0  0  0  0  0  0  0
  -30.1609  -26.1649   19.7461 C   0  0  0  0  0  0  0  0  0  0  0  0
  -22.1697  -30.1374   21.2774 C   0  0  0  0  0  0  0  0  0  0  0  0
  -31.2033  -29.3376   19.0427 C   0  0  0  0  0  0  0  0  0  0  0  0
  -22.5488  -23.1330   21.6339 C   0  0  0  0  0  0  0  0  0  0  0  0
  -30.2747  -20.3828   22.5139 C   0  0  0  0  0  0  0  0  0  0  0  0
  -27.1024  -25.1451   17.9520 C   0  0  0  0  0  0  0  0  0  0  0  0
  -27.8644  -27.1900   19.9477 C   0  0  0  0  0  0  0  0  0  0  0  0
  -30.2051  -21.9032   22.6313 C   0  0  0  0  0  0  0  0  0  0  0  0
  -20.5614  -20.2966   22.6839 C   0  0  0  0  0  0  0  0  0  0  0  0
  -28.7539  -22.3670   22.7062 C   0  0  0  0  0  0  0  0  0  0  0  0
  -21.6296  -19.2099   22.8188 C   0  0  0  0  0  0  0  0  0  0  0  0
  -20.8506  -21.2120   21.4979 C   0  0  0  0  0  0  0  0  0  0  0  0
  -23.2683  -20.7614   21.6579 C   0  0  0  0  0  0  0  0  0  0  0  0
  -27.9864  -21.9854   21.4347 C   0  0  1  0  0  0  0  0  0  0  0  0
  -28.1893  -24.8874   18.9911 C   0  0  1  0  0  0  0  0  0  0  0  0
  -23.0449  -19.8166   22.8527 C   0  0  2  0  0  0  0  0  0  0  0  0
  -19.7882  -29.1079   27.7971 C   0  0  0  0  0  0  0  0  0  0  0  0
  -21.5564  -26.6069   24.4378 C   0  0  0  0  0  0  0  0  0  0  0  0
  -33.2841  -30.7192   18.8004 C   0  0  0  0  0  0  0  0  0  0  0  0
  -30.4606  -26.2416   22.7816 C   0  0  0  0  0  0  0  0  0  0  0  0
  -31.8625  -28.2996   22.5214 C   0  0  0  0  0  0  0  0  0  0  0  0
  -32.6191  -26.1427   21.5224 C   0  0  0  0  0  0  0  0  0  0  0  0
  -30.5967  -29.9650   16.2147 C   0  0  0  0  0  0  0  0  0  0  0  0
  -19.1376  -27.8534   25.2289 C   0  0  0  0  0  0  0  0  0  0  0  0
  -21.1200  -31.7670   22.8356 C   0  0  0  0  0  0  0  0  0  0  0  0
  -21.6794  -25.4567   21.5978 C   0  0  0  0  0  0  0  0  0  0  0  0
  -23.5289  -29.7087   20.7671 C   0  0  0  0  0  0  0  0  0  1  0  0
  -30.6795  -27.3809   20.4751 C   0  0  1  0  0  0  0  0  0  0  0  0
  -32.2538  -29.8627   18.0809 C   0  0  2  0  0  0  0  0  0  0  0  0
  -31.3790  -27.0153   21.8147 C   0  0  0  0  0  0  0  0  0  0  0  0
  -23.8962  -17.5605   22.3357 N   0  0  0  0  0  0  0  0  0  0  0  0
  -24.1147  -18.7435   22.9346 N   0  0  0  0  0  0  0  0  0  0  0  0
  -19.2062  -27.2605   23.9183 N   0  0  0  0  0  0  0  0  0  0  0  0
  -28.7795  -26.1229   19.5100 N   0  0  0  0  0  0  0  0  0  0  0  0
  -22.2060  -21.7711   21.6004 N   0  0  0  0  0  0  0  0  0  0  0  0
  -25.7020  -19.9473   24.2160 N   0  0  0  0  0  0  0  0  0  0  0  0
  -27.7105  -15.9575   23.5503 N   0  0  0  0  0  0  0  0  0  0  0  0
  -28.3142  -22.8921   20.3553 N   0  0  0  0  0  0  0  0  0  0  0  0
  -22.2696  -31.1722   22.1941 N   0  0  0  0  0  0  0  0  0  0  0  0
  -31.5340  -28.0904   19.5290 N   0  0  0  0  0  0  0  0  0  0  0  0
  -21.4848  -24.0242   21.5679 N   0  0  0  0  0  0  0  0  0  0  0  0
  -31.6156  -30.6891   17.0175 N   0  3  0  0  0  0  0  0  0  0  0  0
  -16.9861  -27.8266   23.4159 O   0  0  0  0  0  0  0  0  0  0  0  0
  -27.9383  -18.0152   24.5364 O   0  0  0  0  0  0  0  0  0  0  0  0
  -26.7989  -24.5822   20.8749 O   0  0  0  0  0  0  0  0  0  0  0  0
  -30.9533  -25.2881   19.3927 O   0  0  0  0  0  0  0  0  0  0  0  0
  -21.1242  -29.6113   20.9056 O   0  0  0  0  0  0  0  0  0  0  0  0
  -30.1924  -29.9719   19.3363 O   0  0  0  0  0  0  0  0  0  0  0  0
  -23.7171  -23.5261   21.7216 O   0  0  0  0  0  0  0  0  0  0  0  0
  -25.6084  -11.6436   20.7207 O   0  0  0  0  0  0  0  0  0  0  0  0
  -23.4297  -29.1933   19.4402 O   0  0  0  0  0  0  0  0  0  1  0  0
  -21.3362   -8.2049   21.2929 F   0  0  0  0  0  0  0  0  0  0  0  0
  -23.1694  -12.2040   19.5459 F   0  0  0  0  0  0  0  0  0  0  0  0
  1  2  1  0  0  0  0
  1  5  2  0  0  0  0
  2  6  2  0  0  0  0
  3 10  2  0  0  0  0
  3 18  1  0  0  0  0
  4 11  1  0  0  0  0
  4 18  2  0  0  0  0
  5 20  1  0  0  0  0
  6 22  1  0  0  0  0
  7 12  2  0  0  0  0
  7 21  1  0  0  0  0
  8  9  2  0  0  0  0
  8 24  1  0  0  0  0
  9 25  1  0  0  0  0
 10 27  1  0  0  0  0
 11 27  2  0  0  0  0
 12 28  1  0  0  0  0
 13 14  2  0  0  0  0
 13 29  1  0  0  0  0
 14 30  1  0  0  0  0
 15 23  1  0  0  0  0
 15 28  2  0  0  0  0
 16 24  2  0  0  0  0
 16 26  1  0  0  0  0
 17 30  2  0  0  0  0
 17 31  1  0  0  0  0
 18 32  1  0  0  0  0
 19 32  1  0  0  0  0
 19 33  2  0  0  0  0
 19 39  1  0  0  0  0
 20 22  2  0  0  0  0
 20 45  1  0  0  0  0
 21 23  2  0  0  0  0
 21 46  1  0  0  0  0
 22 54  1  0  0  0  0
 23 47  1  0  0  0  0
 24 65  1  0  0  0  0
 25 26  2  0  0  0  0
 25 57  1  0  0  0  0
 26 64  1  0  0  0  0
 27 90  1  0  0  0  0
 28 91  1  0  0  0  0
 29 31  2  0  0  0  0
 29 90  1  0  0  0  0
 30 92  1  0  0  0  0
 31 93  1  0  0  0  0
 32 71  2  0  0  0  0
 33 72  1  0  0  0  0
 33 76  1  0  0  0  0
 34 35  2  0  0  0  0
 34 36  1  0  0  0  0
 35 38  1  0  0  0  0
 36 37  2  0  0  0  0
 36 66  1  0  0  0  0
 37 58  1  0  0  0  0
 37 73  1  0  0  0  0
 38 73  1  0  0  0  0
 38 83  2  0  0  0  0
 39 77  1  0  0  0  0
 39 84  2  0  0  0  0
 40 55  1  0  0  0  0
 40 78  1  0  0  0  0
 40 85  2  0  0  0  0
 41 68  1  0  0  0  0
 41 74  1  0  0  0  0
 41 86  2  0  0  0  0
 42 67  1  0  0  0  0
 42 79  1  0  0  0  0
 42 87  2  0  0  0  0
 43 69  1  0  0  0  0
 43 80  1  0  0  0  0
 43 88  2  0  0  0  0
 44 75  1  0  0  0  0
 44 81  1  0  0  0  0
 44 89  2  0  0  0  0
 45 48  1  0  0  0  0
 46 55  1  0  0  0  0
 47 74  1  0  0  0  0
 48 50  1  0  0  0  0
 49 51  1  0  0  0  0
 49 52  1  0  0  0  0
 50 54  1  0  0  0  0
 51 56  1  0  0  0  0
 52 75  1  0  0  0  0
 53 56  1  0  0  0  0
 53 75  1  0  0  0  0
 54 78  1  0  0  0  0
 55 74  1  0  0  0  0
 56 72  1  0  0  0  0
 59 69  1  0  0  0  0
 60 70  1  0  0  0  0
 61 70  1  0  0  0  0
 62 70  1  0  0  0  0
 63 82  1  0  0  0  0
 64 73  1  0  0  0  0
 65 79  1  0  0  0  0
 66 81  1  0  0  0  0
 67 91  1  0  0  0  0
 68 70  1  0  0  0  0
 68 80  1  0  0  0  0
 69 82  1  0  0  0  0
 71 72  1  0  0  0  0
M  CHG  1  82   1
M  ISO  4  44 100  67 101  81 100  91 101
M  END
> <Batch ID>
0057

> <Smiles>
CNC(C)C(=O)NC(C(=O)N1Cc2cc([101O:1][101CH2:1]C(=O)NCc3ccc(C)c(Cn4c(C)c(C[100NH:0][100C:0](=O)N5CCCC(n6nc(-c7ccc(Oc8ccc(F)cc8F)cc7)c(C(N)=O)c6N)C5)ccc4=O)c3)ccc2CC1C(=O)NC1CCCc2ccccc21)C(C)(C)C

> <Shape>
0.250

> <Color>
0.052

> <Negative vol penalty>
0.000

$$$$

  -OEChem-04042322553D

 89 98  0     1  0  0  0  0  0999 V2000
  -24.5197  -35.5089   23.3012 C   0  0  0  0  0  0  0  0  0  0  0  0
  -25.3070  -34.3849   23.0726 C   0  0  0  0  0  0  0  0  0  0  0  0
  -27.5714  -13.0097   22.5995 C   0  0  0  0  0  0  0  0  0  0  0  0
  -26.9017  -12.7137   20.2971 C   0  0  0  0  0  0  0  0  0  0  0  0
  -23.2110  -35.3607   23.7586 C   0  0  0  0  0  0  0  0  0  0  0  0
  -24.7863  -33.1120   23.3024 C   0  0  0  0  0  0  0  0  0  0  0  0
  -25.8714  -29.8663   19.5696 C   0  0  0  0  0  0  0  0  0  0  0  0
  -26.9810  -11.7895   22.9281 C   0  0  0  0  0  0  0  0  0  0  0  0
  -26.3113  -11.4934   20.6257 C   0  0  0  0  0  0  0  0  0  0  0  0
  -27.1574  -29.3284   19.5474 C   0  0  0  0  0  0  0  0  0  0  0  0
  -23.4473  -10.4193   22.0661 C   0  0  0  0  0  0  0  0  0  0  0  0
  -22.1768  -10.1554   21.5544 C   0  0  0  0  0  0  0  0  0  0  0  0
  -26.3225  -27.3060   20.5633 C   0  0  0  0  0  0  0  0  0  0  0  0
  -31.6752  -23.0037   16.0887 C   0  0  0  0  0  0  0  0  0  0  0  0
  -29.6596  -22.7724   17.4005 C   0  0  0  0  0  0  0  0  0  0  0  0
  -23.0404   -8.2079   20.4148 C   0  0  0  0  0  0  0  0  0  0  0  0
  -27.5317  -13.4719   21.2840 C   0  0  0  0  0  0  0  0  0  0  0  0
  -29.4685  -14.9508   20.5295 C   0  0  0  0  0  0  0  0  0  0  0  0
  -22.6708  -34.0849   23.9848 C   0  0  0  0  0  0  0  0  0  0  0  0
  -24.8014  -29.1311   20.0997 C   0  0  0  0  0  0  0  0  0  0  0  0
  -23.4695  -32.9465   23.7645 C   0  0  0  0  0  0  0  0  0  0  0  0
  -25.0234  -27.8359   20.5887 C   0  0  0  0  0  0  0  0  0  0  0  0
  -31.5771  -21.6670   15.7023 C   0  0  0  0  0  0  0  0  0  0  0  0
  -30.5202  -20.8831   16.1650 C   0  0  0  0  0  0  0  0  0  0  0  0
  -30.7165  -23.5564   16.9379 C   0  0  0  0  0  0  0  0  0  0  0  0
  -29.5614  -21.4358   17.0141 C   0  0  0  0  0  0  0  0  0  0  0  0
  -26.3510  -11.0313   21.9413 C   0  0  0  0  0  0  0  0  0  0  0  0
  -27.3837  -28.0492   20.0469 C   0  0  0  0  0  0  0  0  0  0  0  0
  -24.5144   -9.5776   21.7521 C   0  0  0  0  0  0  0  0  0  0  0  0
  -21.9734   -9.0497   20.7287 C   0  0  0  0  0  0  0  0  0  0  0  0
  -24.3109   -8.4719   20.9265 C   0  0  0  0  0  0  0  0  0  0  0  0
  -28.1410  -14.7325   20.9439 C   0  0  0  0  0  0  0  0  0  0  0  0
  -29.5476  -16.3076   20.3312 C   0  0  0  0  0  0  0  0  0  0  0  0
  -31.8194  -25.8356   16.9540 C   0  0  0  0  0  0  0  0  0  0  0  0
  -30.5348  -14.0111   20.3407 C   0  0  0  0  0  0  0  0  0  0  0  0
  -22.7887  -29.5321   22.5270 C   0  0  0  0  0  0  0  0  0  0  0  0
  -21.3892  -26.8769   21.2968 C   0  0  0  0  0  0  0  0  0  0  0  0
  -21.7007  -24.0410   19.4241 C   0  0  0  0  0  0  0  0  0  0  0  0
  -27.4548  -21.0703   18.3463 C   0  0  0  0  0  0  0  0  0  0  0  0
  -21.2666  -33.9764   24.5244 C   0  0  0  0  0  0  0  0  0  0  0  0
  -23.4153  -29.7153   20.0919 C   0  0  0  0  0  0  0  0  0  0  0  0
  -23.9050  -26.9976   21.1499 C   0  0  0  0  0  0  0  0  0  0  0  0
  -31.4510  -27.1804   17.5377 C   0  0  0  0  0  0  0  0  0  0  0  0
  -20.6670  -32.5795   24.3855 C   0  0  0  0  0  0  0  0  0  0  0  0
  -26.3159  -20.0084   21.5483 C   0  0  0  0  0  0  0  0  0  0  0  0
  -21.6662  -31.5217   24.8430 C   0  0  0  0  0  0  0  0  0  0  0  0
  -26.7984  -18.5591   21.6424 C   0  0  0  0  0  0  0  0  0  0  0  0
  -25.8743  -20.3682   20.1308 C   0  0  0  0  0  0  0  0  0  0  0  0
  -29.8051  -25.5671   18.1505 C   0  0  0  0  0  0  0  0  0  0  0  0
  -27.3460  -18.6383   19.1764 C   0  0  0  0  0  0  0  0  0  0  0  0
  -22.9323  -31.5480   23.9784 C   0  0  1  0  0  0  0  0  0  0  0  0
  -22.4924  -29.0776   21.1259 C   0  0  1  0  0  0  0  0  0  0  0  0
  -30.4833  -26.8301   18.6589 C   0  0  2  0  0  0  0  0  0  0  0  0
  -27.8622  -18.2487   20.5712 C   0  0  2  0  0  0  0  0  0  0  0  0
  -32.6168  -21.0998   14.7917 C   0  0  0  0  0  0  0  0  0  0  0  0
  -20.3939  -22.0512   18.6300 C   0  0  0  0  0  0  0  0  0  0  0  0
  -21.6122  -25.6263   24.0711 C   0  0  0  0  0  0  0  0  0  0  0  0
  -21.1960  -23.3920   23.0210 C   0  0  0  0  0  0  0  0  0  0  0  0
  -19.4536  -25.1724   22.8926 C   0  0  0  0  0  0  0  0  0  0  0  0
  -22.0822  -24.7783   16.5834 C   0  0  0  0  0  0  0  0  0  0  0  0
  -29.5049  -27.9476   18.9764 C   0  0  0  0  0  0  0  0  0  1  0  0
  -21.5529  -25.3901   21.5007 C   0  0  1  0  0  0  0  0  0  0  0  0
  -20.8411  -23.4693   18.3111 C   0  0  2  0  0  0  0  0  0  0  0  0
  -30.4196  -19.4493   15.7470 C   0  0  0  0  0  0  0  0  0  0  0  0
  -20.9753  -24.9115   22.8626 C   0  0  0  0  0  0  0  0  0  0  0  0
  -27.4281  -15.8604   21.0058 N   0  0  0  0  0  0  0  0  0  0  0  0
  -28.3109  -16.8004   20.6277 N   0  0  0  0  0  0  0  0  0  0  0  0
  -30.8172  -24.9235   17.3342 N   0  0  0  0  0  0  0  0  0  0  0  0
  -22.5688  -27.6153   21.1262 N   0  0  0  0  0  0  0  0  0  0  0  0
  -26.9338  -20.0507   19.1708 N   0  0  0  0  0  0  0  0  0  0  0  0
  -30.5538  -17.1153   19.9340 N   0  0  0  0  0  0  0  0  0  0  0  0
  -30.2823  -12.6551   20.5893 N   0  0  0  0  0  0  0  0  0  0  0  0
  -28.4805  -20.6571   17.4968 N   0  0  0  0  0  0  0  0  0  0  0  0
  -22.6903  -30.8985   22.7079 N   0  0  0  0  0  0  0  0  0  0  0  0
  -20.9490  -24.7496   20.3373 N   0  0  0  0  0  0  0  0  0  0  0  0
  -21.6015  -23.4454   17.0296 N   0  3  0  0  0  0  0  0  0  0  0  0
  -32.7997  -25.6765   16.2409 O   0  0  0  0  0  0  0  0  0  0  0  0
  -31.6823  -14.3655   19.9785 O   0  0  0  0  0  0  0  0  0  0  0  0
  -23.0832  -28.7043   23.3812 O   0  0  0  0  0  0  0  0  0  0  0  0
  -20.2561  -27.3641   21.2822 O   0  0  0  0  0  0  0  0  0  0  0  0
  -22.9169  -23.8723   19.4799 O   0  0  0  0  0  0  0  0  0  0  0  0
  -27.0415  -22.2310   18.4099 O   0  0  0  0  0  0  0  0  0  0  0  0
  -25.7749   -9.8405   22.2616 O   0  0  0  0  0  0  0  0  0  0  0  0
  -28.6381  -27.5220   20.0270 O   0  0  0  0  0  0  0  0  0  1  0  0
  -20.7530   -8.7956   20.2387 F   0  0  0  0  0  0  0  0  0  0  0  0
  -25.3319   -7.6589   20.6223 F   0  0  0  0  0  0  0  0  0  0  0  0
  -31.4276  -19.0545   14.9174 F   0  0  0  0  0  0  0  0  0  0  0  0
  -30.4516  -18.5766   16.7945 F   0  0  0  0  0  0  0  0  0  0  0  0
  -29.2628  -19.1831   15.0776 F   0  0  0  0  0  0  0  0  0  0  0  0
  1  2  1  0  0  0  0
  1  5  2  0  0  0  0
  2  6  2  0  0  0  0
  3  8  2  0  0  0  0
  3 17  1  0  0  0  0
  4  9  1  0  0  0  0
  4 17  2  0  0  0  0
  5 19  1  0  0  0  0
  6 21  1  0  0  0  0
  7 10  2  0  0  0  0
  7 20  1  0  0  0  0
  8 27  1  0  0  0  0
  9 27  2  0  0  0  0
 10 28  1  0  0  0  0
 11 12  2  0  0  0  0
 11 29  1  0  0  0  0
 12 30  1  0  0  0  0
 13 22  1  0  0  0  0
 13 28  2  0  0  0  0
 14 23  2  0  0  0  0
 14 25  1  0  0  0  0
 15 25  2  0  0  0  0
 15 26  1  0  0  0  0
 16 30  2  0  0  0  0
 16 31  1  0  0  0  0
 17 32  1  0  0  0  0
 18 32  1  0  0  0  0
 18 33  2  0  0  0  0
 18 35  1  0  0  0  0
 19 21  2  0  0  0  0
 19 40  1  0  0  0  0
 20 22  2  0  0  0  0
 20 41  1  0  0  0  0
 21 51  1  0  0  0  0
 22 42  1  0  0  0  0
 23 24  1  0  0  0  0
 23 55  1  0  0  0  0
 24 26  2  0  0  0  0
 24 64  1  0  0  0  0
 25 68  1  0  0  0  0
 26 73  1  0  0  0  0
 27 83  1  0  0  0  0
 28 84  1  0  0  0  0
 29 31  2  0  0  0  0
 29 83  1  0  0  0  0
 30 85  1  0  0  0  0
 31 86  1  0  0  0  0
 32 66  2  0  0  0  0
 33 67  1  0  0  0  0
 33 71  1  0  0  0  0
 34 43  1  0  0  0  0
 34 68  1  0  0  0  0
 34 77  2  0  0  0  0
 35 72  1  0  0  0  0
 35 78  2  0  0  0  0
 36 52  1  0  0  0  0
 36 74  1  0  0  0  0
 36 79  2  0  0  0  0
 37 62  1  0  0  0  0
 37 69  1  0  0  0  0
 37 80  2  0  0  0  0
 38 63  1  0  0  0  0
 38 75  1  0  0  0  0
 38 81  2  0  0  0  0
 39 70  1  0  0  0  0
 39 73  1  0  0  0  0
 39 82  2  0  0  0  0
 40 44  1  0  0  0  0
 41 52  1  0  0  0  0
 42 69  1  0  0  0  0
 43 53  1  0  0  0  0
 44 46  1  0  0  0  0
 45 47  1  0  0  0  0
 45 48  1  0  0  0  0
 46 51  1  0  0  0  0
 47 54  1  0  0  0  0
 48 70  1  0  0  0  0
 49 53  1  0  0  0  0
 49 68  1  0  0  0  0
 50 54  1  0  0  0  0
 50 70  1  0  0  0  0
 51 74  1  0  0  0  0
 52 69  1  0  0  0  0
 53 61  1  0  0  0  0
 54 67  1  0  0  0  0
 56 63  1  0  0  0  0
 57 65  1  0  0  0  0
 58 65  1  0  0  0  0
 59 65  1  0  0  0  0
 60 76  1  0  0  0  0
 61 84  1  0  0  0  0
 62 65  1  0  0  0  0
 62 75  1  0  0  0  0
 63 76  1  0  0  0  0
 64 87  1  0  0  0  0
 64 88  1  0  0  0  0
 64 89  1  0  0  0  0
 66 67  1  0  0  0  0
M  CHG  1  76   1
M  ISO  4  39 100  61 101  73 100  84 101
M  END
> <Batch ID>
0057

> <Smiles>
CNC(C)C(=O)NC(C(=O)N1Cc2cc([101O:1][101CH2:1]C3CC(=O)N(c4cc(C)c(C(F)(F)F)c([100NH:0][100C:0](=O)N5CCCC(n6nc(-c7ccc(Oc8ccc(F)cc8F)cc7)c(C(N)=O)c6N)C5)c4)C3)ccc2CC1C(=O)NC1CCCc2ccccc21)C(C)(C)C

> <Shape>
0.250

> <Color>
0.096

> <Negative vol penalty>
0.000

$$$$

  -OEChem-04042322553D

 84 92  0     1  0  0  0  0  0999 V2000
  -33.0622  -29.4957   12.1285 C   0  0  0  0  0  0  0  0  0  0  0  0
  -32.8411  -29.0280   13.4200 C   0  0  0  0  0  0  0  0  0  0  0  0
  -32.7272  -17.4555   23.2442 C   0  0  0  0  0  0  0  0  0  0  0  0
  -22.9616   -9.9263   20.0637 C   0  0  0  0  0  0  0  0  0  0  0  0
  -23.6716  -10.0752   22.3681 C   0  0  0  0  0  0  0  0  0  0  0  0
  -32.0822  -30.2495   11.4840 C   0  0  0  0  0  0  0  0  0  0  0  0
  -31.6403  -29.3150   14.0682 C   0  0  0  0  0  0  0  0  0  0  0  0
  -29.6882  -25.2765   16.4187 C   0  0  0  0  0  0  0  0  0  0  0  0
  -31.9450  -18.4017   23.9064 C   0  0  0  0  0  0  0  0  0  0  0  0
  -32.1276  -16.5277   22.3925 C   0  0  0  0  0  0  0  0  0  0  0  0
  -22.1714   -8.8208   20.3785 C   0  0  0  0  0  0  0  0  0  0  0  0
  -22.8814   -8.9698   22.6831 C   0  0  0  0  0  0  0  0  0  0  0  0
  -30.2536  -24.9162   17.6411 C   0  0  0  0  0  0  0  0  0  0  0  0
  -23.0643   -5.6079   22.3752 C   0  0  0  0  0  0  0  0  0  0  0  0
  -23.6269   -4.6174   23.1803 C   0  0  0  0  0  0  0  0  0  0  0  0
  -28.4363  -26.0045   18.7954 C   0  0  0  0  0  0  0  0  0  0  0  0
  -29.9636  -17.4923   22.8653 C   0  0  0  0  0  0  0  0  0  0  0  0
  -21.8964   -4.9740   24.8282 C   0  0  0  0  0  0  0  0  0  0  0  0
  -23.7118  -10.5535   21.0585 C   0  0  0  0  0  0  0  0  0  0  0  0
  -24.1469  -13.0498   20.7639 C   0  0  0  0  0  0  0  0  0  0  0  0
  -30.8649  -30.5376   12.1210 C   0  0  0  0  0  0  0  0  0  0  0  0
  -28.4963  -26.0141   16.3755 C   0  0  0  0  0  0  0  0  0  0  0  0
  -30.6437  -30.0745   13.4321 C   0  0  0  0  0  0  0  0  0  0  0  0
  -27.8565  -26.3706   17.5712 C   0  0  0  0  0  0  0  0  0  0  0  0
  -30.5632  -18.4201   23.7169 C   0  0  0  0  0  0  0  0  0  0  0  0
  -30.7458  -16.5461   22.2031 C   0  0  0  0  0  0  0  0  0  0  0  0
  -22.1313   -8.3426   21.6882 C   0  0  0  0  0  0  0  0  0  0  0  0
  -29.6292  -25.2827   18.8298 C   0  0  0  0  0  0  0  0  0  0  0  0
  -21.9179   -6.2815   22.7967 C   0  0  0  0  0  0  0  0  0  0  0  0
  -23.0429   -4.3004   24.4067 C   0  0  0  0  0  0  0  0  0  0  0  0
  -21.3339   -5.9646   24.0231 C   0  0  0  0  0  0  0  0  0  0  0  0
  -24.5287  -11.6951   20.7337 C   0  0  0  0  0  0  0  0  0  0  0  0
  -25.2730  -13.7326   20.3737 C   0  0  0  0  0  0  0  0  0  0  0  0
  -29.3456  -22.5749   22.3849 C   0  0  0  0  0  0  0  0  0  0  0  0
  -29.9047  -23.7501   22.0657 C   0  0  0  0  0  0  0  0  0  0  0  0
  -22.8871  -13.6383   21.1136 C   0  0  0  0  0  0  0  0  0  0  0  0
  -30.0192  -21.6573   23.3448 C   0  0  0  0  0  0  0  0  0  0  0  0
  -27.6675  -28.8742   15.2637 C   0  0  0  0  0  0  0  0  0  0  0  0
  -24.6836  -27.8927   16.0731 C   0  0  0  0  0  0  0  0  0  0  0  0
  -22.7219  -25.8641   17.9924 C   0  0  0  0  0  0  0  0  0  0  0  0
  -30.7683  -14.5996   20.6040 C   0  0  0  0  0  0  0  0  0  0  0  0
  -29.8547  -31.3962   11.4019 C   0  0  0  0  0  0  0  0  0  0  0  0
  -27.8852  -26.3718   15.0485 C   0  0  0  0  0  0  0  0  0  0  0  0
  -26.5648  -27.1451   17.5789 C   0  0  0  0  0  0  0  0  0  0  0  0
  -28.4588  -31.3390   12.0171 C   0  0  0  0  0  0  0  0  0  0  0  0
  -29.6188  -12.0584   18.3908 C   0  0  0  0  0  0  0  0  0  0  0  0
  -28.5371  -31.4879   13.5331 C   0  0  0  0  0  0  0  0  0  0  0  0
  -28.1607  -11.8488   18.8055 C   0  0  0  0  0  0  0  0  0  0  0  0
  -30.5155  -12.3431   19.5944 C   0  0  0  0  0  0  0  0  0  0  0  0
  -28.6066  -13.2320   20.8731 C   0  0  0  0  0  0  0  0  0  0  0  0
  -29.3440  -30.3439   14.1589 C   0  0  1  0  0  0  0  0  0  0  0  0
  -26.9399  -27.5665   15.1286 C   0  0  1  0  0  0  0  0  0  0  0  0
  -27.6537  -13.0064   19.6878 C   0  0  2  0  0  0  0  0  0  0  0  0
  -20.3179  -25.3151   18.4577 C   0  0  0  0  0  0  0  0  0  0  0  0
  -24.4118  -30.4651   17.6913 C   0  0  0  0  0  0  0  0  0  0  0  0
  -22.4500  -29.4398   18.8610 C   0  0  0  0  0  0  0  0  0  0  0  0
  -22.3692  -29.8256   16.3978 C   0  0  0  0  0  0  0  0  0  0  0  0
  -23.0757  -23.0553   17.1295 C   0  0  0  0  0  0  0  0  0  0  0  0
  -29.7217  -19.4388   24.4299 C   0  0  0  0  0  0  0  0  0  0  0  0
  -29.2835  -24.7220   21.1149 C   0  0  0  0  0  0  0  0  0  1  0  0
  -23.8304  -27.9778   17.3156 C   0  0  1  0  0  0  0  0  0  0  0  0
  -21.5501  -24.9667   17.6373 C   0  0  2  0  0  0  0  0  0  0  0  0
  -23.2907  -29.4142   17.5666 C   0  0  0  0  0  0  0  0  0  0  0  0
  -25.7980  -11.5254   20.3541 N   0  0  0  0  0  0  0  0  0  0  0  0
  -26.2236  -12.7824   20.1421 N   0  0  0  0  0  0  0  0  0  0  0  0
  -26.0100  -27.4769   16.2562 N   0  0  0  0  0  0  0  0  0  0  0  0
  -29.9753  -13.4541   20.3810 N   0  0  0  0  0  0  0  0  0  0  0  0
  -25.5328  -15.0471   20.2095 N   0  0  0  0  0  0  0  0  0  0  0  0
  -21.8361  -12.7916   21.4914 N   0  0  0  0  0  0  0  0  0  0  0  0
  -30.1372  -15.6039   21.3373 N   0  0  0  0  0  0  0  0  0  0  0  0
  -29.2896  -20.4980   23.5458 N   0  0  0  0  0  0  0  0  0  0  0  0
  -28.5436  -29.1401   14.2287 N   0  0  0  0  0  0  0  0  0  0  0  0
  -22.7899  -26.9661   17.1664 N   0  0  0  0  0  0  0  0  0  0  0  0
  -21.8954  -23.5393   17.8908 N   0  3  0  0  0  0  0  0  0  0  0  0
  -22.6942  -14.8772   21.0758 O   0  0  0  0  0  0  0  0  0  0  0  0
  -31.0925  -21.9287   23.8731 O   0  0  0  0  0  0  0  0  0  0  0  0
  -27.4490  -29.5898   16.2342 O   0  0  0  0  0  0  0  0  0  0  0  0
  -24.1893  -28.1775   14.9794 O   0  0  0  0  0  0  0  0  0  0  0  0
  -23.4971  -25.6145   18.9129 O   0  0  0  0  0  0  0  0  0  0  0  0
  -31.9125  -14.6947   20.1527 O   0  0  0  0  0  0  0  0  0  0  0  0
  -21.3602   -7.2641   21.9959 O   0  0  0  0  0  0  0  0  0  0  0  0
  -30.1793  -24.9330   20.0243 O   0  0  0  0  0  0  0  0  0  1  0  0
  -23.5823   -3.3482   25.1790 F   0  0  0  0  0  0  0  0  0  0  0  0
  -20.2318   -6.6074   24.4328 F   0  0  0  0  0  0  0  0  0  0  0  0
  1  2  1  0  0  0  0
  1  6  2  0  0  0  0
  2  7  2  0  0  0  0
  3  9  2  0  0  0  0
  3 10  1  0  0  0  0
  4 11  2  0  0  0  0
  4 19  1  0  0  0  0
  5 12  1  0  0  0  0
  5 19  2  0  0  0  0
  6 21  1  0  0  0  0
  7 23  1  0  0  0  0
  8 13  2  0  0  0  0
  8 22  1  0  0  0  0
  9 25  1  0  0  0  0
 10 26  2  0  0  0  0
 11 27  1  0  0  0  0
 12 27  2  0  0  0  0
 13 28  1  0  0  0  0
 14 15  2  0  0  0  0
 14 29  1  0  0  0  0
 15 30  1  0  0  0  0
 16 24  1  0  0  0  0
 16 28  2  0  0  0  0
 17 25  2  0  0  0  0
 17 26  1  0  0  0  0
 18 30  2  0  0  0  0
 18 31  1  0  0  0  0
 19 32  1  0  0  0  0
 20 32  1  0  0  0  0
 20 33  2  0  0  0  0
 20 36  1  0  0  0  0
 21 23  2  0  0  0  0
 21 42  1  0  0  0  0
 22 24  2  0  0  0  0
 22 43  1  0  0  0  0
 23 51  1  0  0  0  0
 24 44  1  0  0  0  0
 25 59  1  0  0  0  0
 26 70  1  0  0  0  0
 27 81  1  0  0  0  0
 28 82  1  0  0  0  0
 29 31  2  0  0  0  0
 29 81  1  0  0  0  0
 30 83  1  0  0  0  0
 31 84  1  0  0  0  0
 32 64  2  0  0  0  0
 33 65  1  0  0  0  0
 33 68  1  0  0  0  0
 34 35  2  0  0  0  0
 34 37  1  0  0  0  0
 35 60  1  0  0  0  0
 36 69  1  0  0  0  0
 36 75  2  0  0  0  0
 37 71  1  0  0  0  0
 37 76  2  0  0  0  0
 38 52  1  0  0  0  0
 38 72  1  0  0  0  0
 38 77  2  0  0  0  0
 39 61  1  0  0  0  0
 39 66  1  0  0  0  0
 39 78  2  0  0  0  0
 40 62  1  0  0  0  0
 40 73  1  0  0  0  0
 40 79  2  0  0  0  0
 41 67  1  0  0  0  0
 41 70  1  0  0  0  0
 41 80  2  0  0  0  0
 42 45  1  0  0  0  0
 43 52  1  0  0  0  0
 44 66  1  0  0  0  0
 45 47  1  0  0  0  0
 46 48  1  0  0  0  0
 46 49  1  0  0  0  0
 47 51  1  0  0  0  0
 48 53  1  0  0  0  0
 49 67  1  0  0  0  0
 50 53  1  0  0  0  0
 50 67  1  0  0  0  0
 51 72  1  0  0  0  0
 52 66  1  0  0  0  0
 53 65  1  0  0  0  0
 54 62  1  0  0  0  0
 55 63  1  0  0  0  0
 56 63  1  0  0  0  0
 57 63  1  0  0  0  0
 58 74  1  0  0  0  0
 59 71  1  0  0  0  0
 60 82  1  0  0  0  0
 61 63  1  0  0  0  0
 61 73  1  0  0  0  0
 62 74  1  0  0  0  0
 64 65  1  0  0  0  0
M  CHG  1  74   1
M  ISO  4  41 100  60 101  70 100  82 101
M  END
> <Batch ID>
0057

> <Smiles>
CNC(C)C(=O)NC(C(=O)N1Cc2cc([101O:1][101CH2:1]C=CC(=O)NCc3cccc([100NH:0][100C:0](=O)N4CCCC(n5nc(-c6ccc(Oc7ccc(F)cc7F)cc6)c(C(N)=O)c5N)C4)c3)ccc2CC1C(=O)NC1CCCc2ccccc21)C(C)(C)C

> <Shape>
0.218

> <Color>
0.204

> <Negative vol penalty>
0.000

$$$$

  -OEChem-04042322553D

 88 97  0     1  0  0  0  0  0999 V2000
  -26.2984  -38.4245   22.6207 C   0  0  0  0  0  0  0  0  0  0  0  0
  -26.9722  -37.5198   21.8066 C   0  0  0  0  0  0  0  0  0  0  0  0
  -25.7114   -8.9480   21.9569 C   0  0  0  0  0  0  0  0  0  0  0  0
  -26.7516  -10.6966   23.2597 C   0  0  0  0  0  0  0  0  0  0  0  0
  -25.6134  -37.9708   23.7472 C   0  0  0  0  0  0  0  0  0  0  0  0
  -26.9624  -36.1609   22.1190 C   0  0  0  0  0  0  0  0  0  0  0  0
  -27.0246  -29.7138   18.9968 C   0  0  0  0  0  0  0  0  0  0  0  0
  -26.2627   -7.9879   22.8053 C   0  0  0  0  0  0  0  0  0  0  0  0
  -27.3029   -9.7365   24.1082 C   0  0  0  0  0  0  0  0  0  0  0  0
  -27.7217  -28.5070   19.0315 C   0  0  0  0  0  0  0  0  0  0  0  0
  -25.6208   -6.7069   25.8680 C   0  0  0  0  0  0  0  0  0  0  0  0
  -24.7918   -5.6724   26.3017 C   0  0  0  0  0  0  0  0  0  0  0  0
  -26.4389  -27.8284   20.9585 C   0  0  0  0  0  0  0  0  0  0  0  0
  -29.1516  -19.1147   20.5783 C   0  0  0  0  0  0  0  0  0  0  0  0
  -27.6909  -18.5267   22.4107 C   0  0  0  0  0  0  0  0  0  0  0  0
  -26.2691   -4.0588   25.2764 C   0  0  0  0  0  0  0  0  0  0  0  0
  -25.9558  -10.3024   22.1840 C   0  0  0  0  0  0  0  0  0  0  0  0
  -24.0212  -11.5216   21.0534 C   0  0  0  0  0  0  0  0  0  0  0  0
  -25.5872  -36.6044   24.0683 C   0  0  0  0  0  0  0  0  0  0  0  0
  -26.0352  -29.9920   19.9509 C   0  0  0  0  0  0  0  0  0  0  0  0
  -26.2776  -35.6886   23.2516 C   0  0  0  0  0  0  0  0  0  0  0  0
  -25.7289  -29.0384   20.9321 C   0  0  0  0  0  0  0  0  0  0  0  0
  -29.7388  -20.1061   21.3644 C   0  0  0  0  0  0  0  0  0  0  0  0
  -29.3020  -20.3078   22.6736 C   0  0  0  0  0  0  0  0  0  0  0  0
  -28.1276  -18.3250   21.1014 C   0  0  0  0  0  0  0  0  0  0  0  0
  -27.0584   -8.3821   23.8810 C   0  0  0  0  0  0  0  0  0  0  0  0
  -27.4310  -27.5652   20.0142 C   0  0  0  0  0  0  0  0  0  0  0  0
  -26.7739   -6.4174   25.1384 C   0  0  0  0  0  0  0  0  0  0  0  0
  -25.1160   -4.3483   26.0060 C   0  0  0  0  0  0  0  0  0  0  0  0
  -27.0981   -5.0934   24.8427 C   0  0  0  0  0  0  0  0  0  0  0  0
  -28.2781  -19.5181   23.1968 C   0  0  0  0  0  0  0  0  0  0  0  0
  -25.3871  -11.2946   21.3076 C   0  0  0  0  0  0  0  0  0  0  0  0
  -24.0070  -12.5635   20.1586 C   0  0  0  0  0  0  0  0  0  0  0  0
  -31.0007  -23.3911   20.9918 C   0  0  0  0  0  0  0  0  0  0  0  0
  -22.8683  -10.8507   21.5792 C   0  0  0  0  0  0  0  0  0  0  0  0
  -25.6489  -32.2018   22.2028 C   0  0  0  0  0  0  0  0  0  0  0  0
  -22.7346  -30.8125   22.5181 C   0  0  0  0  0  0  0  0  0  0  0  0
  -20.7845  -28.0434   22.0988 C   0  0  0  0  0  0  0  0  0  0  0  0
  -27.8469  -16.9886   18.9844 C   0  0  0  0  0  0  0  0  0  0  0  0
  -24.8728  -36.1671   25.3225 C   0  0  0  0  0  0  0  0  0  0  0  0
  -25.2737  -31.2874   19.8836 C   0  0  0  0  0  0  0  0  0  0  0  0
  -24.6617  -29.2801   21.9671 C   0  0  0  0  0  0  0  0  0  0  0  0
  -30.4218  -24.7493   20.6431 C   0  0  0  0  0  0  0  0  0  0  0  0
  -24.5985  -34.6663   25.3753 C   0  0  0  0  0  0  0  0  0  0  0  0
  -26.6366  -14.5535   16.6860 C   0  0  0  0  0  0  0  0  0  0  0  0
  -25.8458  -33.8814   24.9817 C   0  0  0  0  0  0  0  0  0  0  0  0
  -26.0491  -13.4650   17.5871 C   0  0  0  0  0  0  0  0  0  0  0  0
  -28.7327  -23.6985   19.1759 C   0  0  0  0  0  0  0  0  0  0  0  0
  -27.8963  -15.1713   17.2904 C   0  0  0  0  0  0  0  0  0  0  0  0
  -29.4285  -22.3564   19.3180 C   0  0  0  0  0  0  0  0  0  0  0  0
  -27.1590  -14.5793   19.5653 C   0  0  0  0  0  0  0  0  0  0  0  0
  -26.2695  -34.2038   23.5437 C   0  0  1  0  0  0  0  0  0  0  0  0
  -24.6431  -31.6798   21.2161 C   0  0  1  0  0  0  0  0  0  0  0  0
  -29.7601  -24.8185   19.2730 C   0  0  1  0  0  0  0  0  0  0  0  0
  -25.8521  -13.9725   19.0290 C   0  0  2  0  0  0  0  0  0  0  0  0
  -29.9419  -21.3770   23.5037 C   0  0  0  0  0  0  0  0  0  0  0  0
  -18.4532  -27.1989   22.4853 C   0  0  0  0  0  0  0  0  0  0  0  0
  -23.3418  -30.5049   25.4924 C   0  0  0  0  0  0  0  0  0  0  0  0
  -21.4655  -28.8533   25.6334 C   0  0  0  0  0  0  0  0  0  0  0  0
  -21.0002  -31.2136   24.9736 C   0  0  0  0  0  0  0  0  0  0  0  0
  -20.3492  -27.5787   19.2085 C   0  0  0  0  0  0  0  0  0  0  0  0
  -30.8382  -20.9422   20.7759 C   0  0  0  0  0  0  0  0  0  0  0  0
  -29.1082  -26.1810   19.0516 C   0  0  0  0  0  0  0  0  0  1  0  0
  -22.1742  -29.6791   23.3429 C   0  0  1  0  0  0  0  0  0  0  0  0
  -19.4003  -27.8674   21.5009 C   0  0  2  0  0  0  0  0  0  0  0  0
  -22.0169  -30.0587   24.8424 C   0  0  0  0  0  0  0  0  0  0  0  0
  -26.1829  -12.1254   20.6290 N   0  0  0  0  0  0  0  0  0  0  0  0
  -25.3143  -12.8845   19.9395 N   0  0  0  0  0  0  0  0  0  0  0  0
  -30.3785  -22.2799   20.4269 N   0  0  0  0  0  0  0  0  0  0  0  0
  -23.9493  -30.5644   21.8633 N   0  0  0  0  0  0  0  0  0  0  0  0
  -27.6331  -15.6335   18.6549 N   0  0  0  0  0  0  0  0  0  0  0  0
  -23.0039  -13.2272   19.5457 N   0  0  0  0  0  0  0  0  0  0  0  0
  -23.0624   -9.8016   22.4881 N   0  0  0  0  0  0  0  0  0  0  0  0
  -27.5314  -17.3183   20.3021 N   0  0  0  0  0  0  0  0  0  0  0  0
  -25.4235  -33.5063   22.5991 N   0  0  0  0  0  0  0  0  0  0  0  0
  -20.9303  -29.2785   22.6942 N   0  0  0  0  0  0  0  0  0  0  0  0
  -19.4700  -27.0277   20.2717 N   0  3  0  0  0  0  0  0  0  0  0  0
  -31.9260  -23.3267   21.8060 O   0  0  0  0  0  0  0  0  0  0  0  0
  -21.7012  -11.1612   21.2402 O   0  0  0  0  0  0  0  0  0  0  0  0
  -26.5609  -31.4745   22.5780 O   0  0  0  0  0  0  0  0  0  0  0  0
  -22.1138  -31.8764   22.4514 O   0  0  0  0  0  0  0  0  0  0  0  0
  -21.6487  -27.1711   22.0463 O   0  0  0  0  0  0  0  0  0  0  0  0
  -28.2522  -17.8030   18.1510 O   0  0  0  0  0  0  0  0  0  0  0  0
  -27.5963   -7.4456   24.7092 O   0  0  0  0  0  0  0  0  0  0  0  0
  -28.1104  -26.3867   20.0508 O   0  0  0  0  0  0  0  0  0  1  0  0
  -24.3206   -3.3549   26.4238 F   0  0  0  0  0  0  0  0  0  0  0  0
  -28.2052   -4.8090   24.1432 F   0  0  0  0  0  0  0  0  0  0  0  0
  -27.7106  -19.7344   24.8132 Cl  0  0  0  0  0  0  0  0  0  0  0  0
  1  2  1  0  0  0  0
  1  5  2  0  0  0  0
  2  6  2  0  0  0  0
  3  8  2  0  0  0  0
  3 17  1  0  0  0  0
  4  9  1  0  0  0  0
  4 17  2  0  0  0  0
  5 19  1  0  0  0  0
  6 21  1  0  0  0  0
  7 10  2  0  0  0  0
  7 20  1  0  0  0  0
  8 26  1  0  0  0  0
  9 26  2  0  0  0  0
 10 27  1  0  0  0  0
 11 12  2  0  0  0  0
 11 28  1  0  0  0  0
 12 29  1  0  0  0  0
 13 22  1  0  0  0  0
 13 27  2  0  0  0  0
 14 23  1  0  0  0  0
 14 25  2  0  0  0  0
 15 25  1  0  0  0  0
 15 31  2  0  0  0  0
 16 29  2  0  0  0  0
 16 30  1  0  0  0  0
 17 32  1  0  0  0  0
 18 32  1  0  0  0  0
 18 33  2  0  0  0  0
 18 35  1  0  0  0  0
 19 21  2  0  0  0  0
 19 40  1  0  0  0  0
 20 22  2  0  0  0  0
 20 41  1  0  0  0  0
 21 52  1  0  0  0  0
 22 42  1  0  0  0  0
 23 24  2  0  0  0  0
 23 62  1  0  0  0  0
 24 31  1  0  0  0  0
 24 56  1  0  0  0  0
 25 74  1  0  0  0  0
 26 84  1  0  0  0  0
 27 85  1  0  0  0  0
 28 30  2  0  0  0  0
 28 84  1  0  0  0  0
 29 86  1  0  0  0  0
 30 87  1  0  0  0  0
 31 88  1  0  0  0  0
 32 67  2  0  0  0  0
 33 68  1  0  0  0  0
 33 72  1  0  0  0  0
 34 43  1  0  0  0  0
 34 69  1  0  0  0  0
 34 78  2  0  0  0  0
 35 73  1  0  0  0  0
 35 79  2  0  0  0  0
 36 53  1  0  0  0  0
 36 75  1  0  0  0  0
 36 80  2  0  0  0  0
 37 64  1  0  0  0  0
 37 70  1  0  0  0  0
 37 81  2  0  0  0  0
 38 65  1  0  0  0  0
 38 76  1  0  0  0  0
 38 82  2  0  0  0  0
 39 71  1  0  0  0  0
 39 74  1  0  0  0  0
 39 83  2  0  0  0  0
 40 44  1  0  0  0  0
 41 53  1  0  0  0  0
 42 70  1  0  0  0  0
 43 54  1  0  0  0  0
 44 46  1  0  0  0  0
 45 47  1  0  0  0  0
 45 49  1  0  0  0  0
 46 52  1  0  0  0  0
 47 55  1  0  0  0  0
 48 50  1  0  0  0  0
 48 54  1  0  0  0  0
 49 71  1  0  0  0  0
 50 69  1  0  0  0  0
 51 55  1  0  0  0  0
 51 71  1  0  0  0  0
 52 75  1  0  0  0  0
 53 70  1  0  0  0  0
 54 63  1  0  0  0  0
 55 68  1  0  0  0  0
 57 65  1  0  0  0  0
 58 66  1  0  0  0  0
 59 66  1  0  0  0  0
 60 66  1  0  0  0  0
 61 77  1  0  0  0  0
 62 69  1  0  0  0  0
 63 85  1  0  0  0  0
 64 66  1  0  0  0  0
 64 76  1  0  0  0  0
 65 77  1  0  0  0  0
 67 68  1  0  0  0  0
M  CHG  1  77   1
M  ISO  4  39 100  63 101  74 100  85 101
M  END
> <Batch ID>
0057

> <Smiles>
CNC(C)C(=O)NC(C(=O)N1Cc2cc([101O:1][101CH2:1]C3CCN(Cc4cc([100NH:0][100C:0](=O)N5CCCC(n6nc(-c7ccc(Oc8ccc(F)cc8F)cc7)c(C(N)=O)c6N)C5)cc(Cl)c4C)C(=O)C3)ccc2CC1C(=O)NC1CCCc2ccccc21)C(C)(C)C

> <Shape>
0.278

> <Color>
0.086

> <Negative vol penalty>
0.000

$$$$

  -OEChem-04042322553D

 84 92  0     1  0  0  0  0  0999 V2000
  -20.3581  -23.8606   21.9001 C   0  0  0  0  0  0  0  0  0  0  0  0
  -21.3898  -24.4322   21.1623 C   0  0  0  0  0  0  0  0  0  0  0  0
  -26.7082  -12.9224   20.9780 C   0  0  0  0  0  0  0  0  0  0  0  0
  -26.7162  -13.0267   18.5643 C   0  0  0  0  0  0  0  0  0  0  0  0
  -19.4120  -24.6754   22.5206 C   0  0  0  0  0  0  0  0  0  0  0  0
  -21.4754  -25.8189   21.0438 C   0  0  0  0  0  0  0  0  0  0  0  0
  -26.1915  -27.5385   21.7119 C   0  0  0  0  0  0  0  0  0  0  0  0
  -26.2024  -11.6238   20.9202 C   0  0  0  0  0  0  0  0  0  0  0  0
  -26.2104  -11.7280   18.5065 C   0  0  0  0  0  0  0  0  0  0  0  0
  -27.0770  -27.3998   20.6440 C   0  0  0  0  0  0  0  0  0  0  0  0
  -24.5702   -8.4116   21.4117 C   0  0  0  0  0  0  0  0  0  0  0  0
  -23.5191   -8.0847   22.2684 C   0  0  0  0  0  0  0  0  0  0  0  0
  -26.7144  -29.7098   20.0510 C   0  0  0  0  0  0  0  0  0  0  0  0
  -27.9011  -23.3069   16.1032 C   0  0  0  0  0  0  0  0  0  0  0  0
  -29.7535  -23.7682   14.6225 C   0  0  0  0  0  0  0  0  0  0  0  0
  -29.8797  -21.9224   16.1762 C   0  0  0  0  0  0  0  0  0  0  0  0
  -22.1595   -9.8072   21.2576 C   0  0  0  0  0  0  0  0  0  0  0  0
  -26.9650  -13.6239   19.8000 C   0  0  0  0  0  0  0  0  0  0  0  0
  -28.8408  -15.3510   19.8800 C   0  0  0  0  0  0  0  0  0  0  0  0
  -19.4916  -26.0731   22.4176 C   0  0  0  0  0  0  0  0  0  0  0  0
  -25.5513  -28.7630   21.9512 C   0  0  0  0  0  0  0  0  0  0  0  0
  -20.5287  -26.6531   21.6624 C   0  0  0  0  0  0  0  0  0  0  0  0
  -25.8231  -29.8621   21.1241 C   0  0  0  0  0  0  0  0  0  0  0  0
  -28.4765  -24.0760   15.0918 C   0  0  0  0  0  0  0  0  0  0  0  0
  -28.6027  -22.2301   16.6455 C   0  0  0  0  0  0  0  0  0  0  0  0
  -25.9536  -11.0266   19.6845 C   0  0  0  0  0  0  0  0  0  0  0  0
  -27.3364  -28.4847   19.8117 C   0  0  0  0  0  0  0  0  0  0  0  0
  -24.4160   -9.4364   20.4780 C   0  0  0  0  0  0  0  0  0  0  0  0
  -22.3138   -8.7824   22.1913 C   0  0  0  0  0  0  0  0  0  0  0  0
  -23.2107  -10.1342   20.4010 C   0  0  0  0  0  0  0  0  0  0  0  0
  -30.4551  -22.6914   15.1647 C   0  0  0  0  0  0  0  0  0  0  0  0
  -27.4869  -14.9656   19.8590 C   0  0  0  0  0  0  0  0  0  0  0  0
  -28.8064  -16.7228   19.9383 C   0  0  0  0  0  0  0  0  0  0  0  0
  -30.0236  -14.5413   19.8493 C   0  0  0  0  0  0  0  0  0  0  0  0
  -22.5278  -29.7429   21.9930 C   0  0  0  0  0  0  0  0  0  0  0  0
  -23.8478  -32.5110   23.0503 C   0  0  0  0  0  0  0  0  0  0  0  0
  -27.7459  -27.1323   16.1246 C   0  0  0  0  0  0  0  0  0  0  0  0
  -26.5923  -34.5323   23.2208 C   0  0  0  0  0  0  0  0  0  0  0  0
  -26.7617  -21.6200   18.2533 C   0  0  0  0  0  0  0  0  0  0  0  0
  -18.4186  -26.9111   23.0666 C   0  0  0  0  0  0  0  0  0  0  0  0
  -24.6192  -28.9037   23.1233 C   0  0  0  0  0  0  0  0  0  0  0  0
  -25.1772  -31.2038   21.3505 C   0  0  0  0  0  0  0  0  0  0  0  0
  -18.7955  -28.3840   23.2035 C   0  0  0  0  0  0  0  0  0  0  0  0
  -24.9474  -19.8883   20.7804 C   0  0  0  0  0  0  0  0  0  0  0  0
  -19.3853  -28.9076   21.8978 C   0  0  0  0  0  0  0  0  0  0  0  0
  -25.5577  -18.4849   20.7677 C   0  0  0  0  0  0  0  0  0  0  0  0
  -24.8593  -20.4812   19.3753 C   0  0  0  0  0  0  0  0  0  0  0  0
  -26.7285  -19.0725   18.6065 C   0  0  0  0  0  0  0  0  0  0  0  0
  -20.6695  -28.1541   21.5311 C   0  0  1  0  0  0  0  0  0  0  0  0
  -23.6301  -30.0544   22.9654 C   0  0  1  0  0  0  0  0  0  0  0  0
  -26.8976  -18.4600   20.0064 C   0  0  2  0  0  0  0  0  0  0  0  0
  -27.3543  -36.7477   24.1199 C   0  0  0  0  0  0  0  0  0  0  0  0
  -22.3648  -33.9336   20.7949 C   0  0  0  0  0  0  0  0  0  0  0  0
  -23.8704  -35.9036   21.1413 C   0  0  0  0  0  0  0  0  0  0  0  0
  -22.3594  -35.1526   22.9785 C   0  0  0  0  0  0  0  0  0  0  0  0
  -28.6410  -33.2618   24.9378 C   0  0  0  0  0  0  0  0  0  0  0  0
  -27.7216  -25.2354   14.5088 C   0  0  0  0  0  0  0  0  0  0  0  0
  -28.4637  -28.4487   16.3784 C   0  0  0  0  0  0  0  0  0  0  0  0
  -27.9635  -29.1678   17.6217 C   0  0  0  0  0  0  0  0  0  1  0  0
  -24.3856  -33.7587   22.3922 C   0  0  1  0  0  0  0  0  0  0  0  0
  -27.2399  -35.2552   24.3881 C   0  0  2  0  0  0  0  0  0  0  0  0
  -23.2559  -34.6614   21.8210 C   0  0  0  0  0  0  0  0  0  0  0  0
  -26.6533  -16.0084   19.9008 N   0  0  0  0  0  0  0  0  0  0  0  0
  -27.4856  -17.0625   19.9487 N   0  0  0  0  0  0  0  0  0  0  0  0
  -24.2686  -31.2894   22.5058 N   0  0  0  0  0  0  0  0  0  0  0  0
  -26.1663  -20.4278   18.7167 N   0  0  0  0  0  0  0  0  0  0  0  0
  -29.7775  -17.6596   19.9813 N   0  0  0  0  0  0  0  0  0  0  0  0
  -29.8786  -13.1486   19.7894 N   0  0  0  0  0  0  0  0  0  0  0  0
  -28.0185  -21.4494   17.6736 N   0  0  0  0  0  0  0  0  0  0  0  0
  -21.7799  -28.6303   22.3279 N   0  0  0  0  0  0  0  0  0  0  0  0
  -28.2258  -26.5034   14.9847 N   0  0  0  0  0  0  0  0  0  0  0  0
  -25.2286  -34.4137   23.3866 N   0  0  0  0  0  0  0  0  0  0  0  0
  -28.6068  -34.7163   24.6372 N   0  3  0  0  0  0  0  0  0  0  0  0
  -31.1750  -15.0374   19.8909 O   0  0  0  0  0  0  0  0  0  0  0  0
  -22.3667  -30.4599   21.0123 O   0  0  0  0  0  0  0  0  0  0  0  0
  -23.0881  -32.6163   24.0164 O   0  0  0  0  0  0  0  0  0  0  0  0
  -26.8557  -26.6995   16.8513 O   0  0  0  0  0  0  0  0  0  0  0  0
  -27.2317  -34.1177   22.2565 O   0  0  0  0  0  0  0  0  0  0  0  0
  -26.2103  -22.7155   18.3871 O   0  0  0  0  0  0  0  0  0  0  0  0
  -25.4603   -9.7593   19.6277 O   0  0  0  0  0  0  0  0  0  0  0  0
  -28.1998  -28.3518   18.7682 O   0  0  0  0  0  0  0  0  0  1  0  0
  -21.3039   -8.4673   23.0129 F   0  0  0  0  0  0  0  0  0  0  0  0
  -23.0563  -11.1189   19.5052 F   0  0  0  0  0  0  0  0  0  0  0  0
  -32.0315  -22.3128   14.5872 Cl  0  0  0  0  0  0  0  0  0  0  0  0
  1  2  1  0  0  0  0
  1  5  2  0  0  0  0
  2  6  2  0  0  0  0
  3  8  2  0  0  0  0
  3 18  1  0  0  0  0
  4  9  1  0  0  0  0
  4 18  2  0  0  0  0
  5 20  1  0  0  0  0
  6 22  1  0  0  0  0
  7 10  2  0  0  0  0
  7 21  1  0  0  0  0
  8 26  1  0  0  0  0
  9 26  2  0  0  0  0
 10 27  1  0  0  0  0
 11 12  2  0  0  0  0
 11 28  1  0  0  0  0
 12 29  1  0  0  0  0
 13 23  1  0  0  0  0
 13 27  2  0  0  0  0
 14 24  2  0  0  0  0
 14 25  1  0  0  0  0
 15 24  1  0  0  0  0
 15 31  2  0  0  0  0
 16 25  2  0  0  0  0
 16 31  1  0  0  0  0
 17 29  2  0  0  0  0
 17 30  1  0  0  0  0
 18 32  1  0  0  0  0
 19 32  1  0  0  0  0
 19 33  2  0  0  0  0
 19 34  1  0  0  0  0
 20 22  2  0  0  0  0
 20 40  1  0  0  0  0
 21 23  2  0  0  0  0
 21 41  1  0  0  0  0
 22 49  1  0  0  0  0
 23 42  1  0  0  0  0
 24 57  1  0  0  0  0
 25 69  1  0  0  0  0
 26 80  1  0  0  0  0
 27 81  1  0  0  0  0
 28 30  2  0  0  0  0
 28 80  1  0  0  0  0
 29 82  1  0  0  0  0
 30 83  1  0  0  0  0
 31 84  1  0  0  0  0
 32 63  2  0  0  0  0
 33 64  1  0  0  0  0
 33 67  1  0  0  0  0
 34 68  1  0  0  0  0
 34 74  2  0  0  0  0
 35 50  1  0  0  0  0
 35 70  1  0  0  0  0
 35 75  2  0  0  0  0
 36 60  1  0  0  0  0
 36 65  1  0  0  0  0
 36 76  2  0  0  0  0
 37 58  1  0  0  0  0
 37 71  1  0  0  0  0
 37 77  2  0  0  0  0
 38 61  1  0  0  0  0
 38 72  1  0  0  0  0
 38 78  2  0  0  0  0
 39 66  1  0  0  0  0
 39 69  1  0  0  0  0
 39 79  2  0  0  0  0
 40 43  1  0  0  0  0
 41 50  1  0  0  0  0
 42 65  1  0  0  0  0
 43 45  1  0  0  0  0
 44 46  1  0  0  0  0
 44 47  1  0  0  0  0
 45 49  1  0  0  0  0
 46 51  1  0  0  0  0
 47 66  1  0  0  0  0
 48 51  1  0  0  0  0
 48 66  1  0  0  0  0
 49 70  1  0  0  0  0
 50 65  1  0  0  0  0
 51 64  1  0  0  0  0
 52 61  1  0  0  0  0
 53 62  1  0  0  0  0
 54 62  1  0  0  0  0
 55 62  1  0  0  0  0
 56 73  1  0  0  0  0
 57 71  1  0  0  0  0
 58 59  1  0  0  0  0
 59 81  1  0  0  0  0
 60 62  1  0  0  0  0
 60 72  1  0  0  0  0
 61 73  1  0  0  0  0
 63 64  1  0  0  0  0
M  CHG  1  73   1
M  ISO  4  39 100  59 101  69 100  81 101
M  END
> <Batch ID>
0057

> <Smiles>
CNC(C)C(=O)NC(C(=O)N1Cc2cc([101O:1][101CH2:1]CC(=O)NCc3cc(Cl)cc([100NH:0][100C:0](=O)N4CCCC(n5nc(-c6ccc(Oc7ccc(F)cc7F)cc6)c(C(N)=O)c5N)C4)c3)ccc2CC1C(=O)NC1CCCc2ccccc21)C(C)(C)C

> <Shape>
0.256

> <Color>
0.115

> <Negative vol penalty>
0.000

$$$$

  -OEChem-04042322553D

 88 97  0     1  0  0  0  0  0999 V2000
  -19.8837  -35.8323   17.7483 C   0  0  0  0  0  0  0  0  0  0  0  0
  -21.1930  -35.4384   17.4918 C   0  0  0  0  0  0  0  0  0  0  0  0
  -22.5904  -10.5345   20.7194 C   0  0  0  0  0  0  0  0  0  0  0  0
  -24.4278   -9.2485   21.6179 C   0  0  0  0  0  0  0  0  0  0  0  0
  -19.4143  -35.8757   19.0605 C   0  0  0  0  0  0  0  0  0  0  0  0
  -22.0342  -35.0887   18.5475 C   0  0  0  0  0  0  0  0  0  0  0  0
  -25.0601  -28.5595   18.8718 C   0  0  0  0  0  0  0  0  0  0  0  0
  -30.1891  -17.9268   22.7076 C   0  0  0  0  0  0  0  0  0  0  0  0
  -29.8693  -19.2309   22.3243 C   0  0  0  0  0  0  0  0  0  0  0  0
  -21.7882   -9.3935   20.7267 C   0  0  0  0  0  0  0  0  0  0  0  0
  -23.6255   -8.1075   21.6253 C   0  0  0  0  0  0  0  0  0  0  0  0
  -25.8434  -27.4054   18.8958 C   0  0  0  0  0  0  0  0  0  0  0  0
  -21.1791   -6.7969   23.5535 C   0  0  0  0  0  0  0  0  0  0  0  0
  -21.2077   -5.9938   24.6935 C   0  0  0  0  0  0  0  0  0  0  0  0
  -32.0988  -17.9791   21.2540 C   0  0  0  0  0  0  0  0  0  0  0  0
  -26.7820  -28.0738   21.0219 C   0  0  0  0  0  0  0  0  0  0  0  0
  -21.9808   -4.1317   23.3622 C   0  0  0  0  0  0  0  0  0  0  0  0
  -23.9103  -10.4620   21.1650 C   0  0  0  0  0  0  0  0  0  0  0  0
  -31.8051  -19.3025   20.8647 C   0  0  0  0  0  0  0  0  0  0  0  0
  -24.5096  -12.8463   21.8458 C   0  0  0  0  0  0  0  0  0  0  0  0
  -20.2472  -35.5171   20.1321 C   0  0  0  0  0  0  0  0  0  0  0  0
  -25.1234  -29.4687   19.9314 C   0  0  0  0  0  0  0  0  0  0  0  0
  -21.5760  -35.1286   19.8754 C   0  0  0  0  0  0  0  0  0  0  0  0
  -25.9905  -29.2254   21.0093 C   0  0  0  0  0  0  0  0  0  0  0  0
  -31.2972  -17.2972   22.1656 C   0  0  0  0  0  0  0  0  0  0  0  0
  -30.6451  -19.9369   21.3836 C   0  0  0  0  0  0  0  0  0  0  0  0
  -22.3057   -8.1800   21.1796 C   0  0  0  0  0  0  0  0  0  0  0  0
  -26.7024  -27.1633   19.9681 C   0  0  0  0  0  0  0  0  0  0  0  0
  -21.5513   -6.2675   22.3178 C   0  0  0  0  0  0  0  0  0  0  0  0
  -21.6086   -4.6612   24.5979 C   0  0  0  0  0  0  0  0  0  0  0  0
  -21.9521   -4.9349   22.2222 C   0  0  0  0  0  0  0  0  0  0  0  0
  -24.7396  -11.6402   21.1572 C   0  0  0  0  0  0  0  0  0  0  0  0
  -25.5786  -13.6416   21.5120 C   0  0  0  0  0  0  0  0  0  0  0  0
  -32.6745  -20.0052   19.8908 C   0  0  0  0  0  0  0  0  0  0  0  0
  -33.9631  -19.7004   19.6646 C   0  0  0  0  0  0  0  0  0  0  0  0
  -29.0364  -23.3420   21.4531 C   0  0  0  0  0  0  0  0  0  0  0  0
  -27.9184  -24.0079   21.1420 C   0  0  0  0  0  0  0  0  0  0  0  0
  -23.4265  -13.2149   22.7100 C   0  0  0  0  0  0  0  0  0  0  0  0
  -29.0571  -21.8690   21.2970 C   0  0  0  0  0  0  0  0  0  0  0  0
  -23.8792  -32.6828   21.4136 C   0  0  0  0  0  0  0  0  0  0  0  0
  -24.1316  -30.6767   23.7205 C   0  0  0  0  0  0  0  0  0  0  0  0
  -23.7791  -28.8972   26.6095 C   0  0  0  0  0  0  0  0  0  0  0  0
  -31.0565  -14.3485   20.7137 C   0  0  0  0  0  0  0  0  0  0  0  0
  -19.7097  -35.6251   21.5370 C   0  0  0  0  0  0  0  0  0  0  0  0
  -24.3435  -30.7552   19.9184 C   0  0  0  0  0  0  0  0  0  0  0  0
  -26.0513  -30.2483   22.1106 C   0  0  0  0  0  0  0  0  0  0  0  0
  -32.0277  -21.1665   19.2029 C   0  0  0  0  0  0  0  0  0  0  0  0
  -20.5504  -34.8791   22.5699 C   0  0  0  0  0  0  0  0  0  0  0  0
  -29.1666  -13.0303   17.9994 C   0  0  0  0  0  0  0  0  0  0  0  0
  -22.0321  -35.1831   22.3723 C   0  0  0  0  0  0  0  0  0  0  0  0
  -27.8305  -12.6451   18.6369 C   0  0  0  0  0  0  0  0  0  0  0  0
  -31.3221  -22.0347   20.2301 C   0  0  0  0  0  0  0  0  0  0  0  0
  -30.3382  -12.7710   18.9439 C   0  0  0  0  0  0  0  0  0  0  0  0
  -28.8743  -13.0087   20.9122 C   0  0  0  0  0  0  0  0  0  0  0  0
  -22.5113  -34.7180   20.9919 C   0  0  1  0  0  0  0  0  0  0  0  0
  -23.8659  -31.1856   21.3170 C   0  0  1  0  0  0  0  0  0  0  0  0
  -27.6577  -13.3045   20.0185 C   0  0  2  0  0  0  0  0  0  0  0  0
  -23.7477  -29.1759   29.1033 C   0  0  0  0  0  0  0  0  0  0  0  0
  -27.1677  -30.9699   23.7222 C   0  0  0  0  0  0  0  0  0  0  0  0
  -27.1607  -30.2940   26.1329 C   0  0  0  0  0  0  0  0  0  0  0  0
  -25.9828  -32.3738   25.4190 C   0  0  0  0  0  0  0  0  0  0  0  0
  -21.0063  -27.8808   26.8046 C   0  0  0  0  0  0  0  0  0  0  0  0
  -31.6343  -15.9001   22.5624 C   0  0  0  0  0  0  0  0  0  0  0  0
  -27.7858  -25.4911   21.2671 C   0  0  0  0  0  0  0  0  0  1  0  0
  -24.9932  -30.1237   24.8275 C   0  0  1  0  0  0  0  0  0  0  0  0
  -22.9114  -29.1257   27.8341 C   0  0  2  0  0  0  0  0  0  0  0  0
  -26.3146  -30.9235   25.0056 C   0  0  0  0  0  0  0  0  0  0  0  0
  -25.8662  -11.6628   20.4400 N   0  0  0  0  0  0  0  0  0  0  0  0
  -26.3535  -12.8927   20.6760 N   0  0  0  0  0  0  0  0  0  0  0  0
  -30.3013  -21.2920   20.9920 N   0  0  0  0  0  0  0  0  0  0  0  0
  -24.6949  -30.7140   22.4392 N   0  0  0  0  0  0  0  0  0  0  0  0
  -30.1127  -13.4246   20.2354 N   0  0  0  0  0  0  0  0  0  0  0  0
  -25.9218  -14.9013   21.8549 N   0  0  0  0  0  0  0  0  0  0  0  0
  -22.4113  -12.2778   22.9457 N   0  0  0  0  0  0  0  0  0  0  0  0
  -22.7123  -33.2848   20.9831 N   0  0  0  0  0  0  0  0  0  0  0  0
  -24.1524  -30.0860   26.0191 N   0  0  0  0  0  0  0  0  0  0  0  0
  -30.7630  -14.9268   21.9425 N   0  0  0  0  0  0  0  0  0  0  0  0
  -21.9121  -28.0288   27.9728 N   0  3  0  0  0  0  0  0  0  0  0  0
  -23.3526  -14.3476   23.2439 O   0  0  0  0  0  0  0  0  0  0  0  0
  -27.9873  -21.2780   21.4392 O   0  0  0  0  0  0  0  0  0  0  0  0
  -24.8740  -33.2514   21.8482 O   0  0  0  0  0  0  0  0  0  0  0  0
  -22.9918  -31.0707   23.9830 O   0  0  0  0  0  0  0  0  0  0  0  0
  -24.0971  -27.7764   26.2183 O   0  0  0  0  0  0  0  0  0  0  0  0
  -32.0820  -14.6406   20.0891 O   0  0  0  0  0  0  0  0  0  0  0  0
  -21.5231   -7.0664   21.1871 O   0  0  0  0  0  0  0  0  0  0  0  0
  -27.4610  -26.0324   19.9873 O   0  0  0  0  0  0  0  0  0  1  0  0
  -21.6375   -3.8904   25.6930 F   0  0  0  0  0  0  0  0  0  0  0  0
  -22.3119   -4.4210   21.0380 F   0  0  0  0  0  0  0  0  0  0  0  0
  1  2  1  0  0  0  0
  1  5  2  0  0  0  0
  2  6  2  0  0  0  0
  3 10  2  0  0  0  0
  3 18  1  0  0  0  0
  4 11  1  0  0  0  0
  4 18  2  0  0  0  0
  5 21  1  0  0  0  0
  6 23  1  0  0  0  0
  7 12  2  0  0  0  0
  7 22  1  0  0  0  0
  8  9  2  0  0  0  0
  8 25  1  0  0  0  0
  9 26  1  0  0  0  0
 10 27  1  0  0  0  0
 11 27  2  0  0  0  0
 12 28  1  0  0  0  0
 13 14  2  0  0  0  0
 13 29  1  0  0  0  0
 14 30  1  0  0  0  0
 15 19  1  0  0  0  0
 15 25  2  0  0  0  0
 16 24  1  0  0  0  0
 16 28  2  0  0  0  0
 17 30  2  0  0  0  0
 17 31  1  0  0  0  0
 18 32  1  0  0  0  0
 19 26  2  0  0  0  0
 19 34  1  0  0  0  0
 20 32  1  0  0  0  0
 20 33  2  0  0  0  0
 20 38  1  0  0  0  0
 21 23  2  0  0  0  0
 21 44  1  0  0  0  0
 22 24  2  0  0  0  0
 22 45  1  0  0  0  0
 23 55  1  0  0  0  0
 24 46  1  0  0  0  0
 25 63  1  0  0  0  0
 26 70  1  0  0  0  0
 27 85  1  0  0  0  0
 28 86  1  0  0  0  0
 29 31  2  0  0  0  0
 29 85  1  0  0  0  0
 30 87  1  0  0  0  0
 31 88  1  0  0  0  0
 32 68  2  0  0  0  0
 33 69  1  0  0  0  0
 33 73  1  0  0  0  0
 34 35  2  0  0  0  0
 34 47  1  0  0  0  0
 36 37  2  0  0  0  0
 36 39  1  0  0  0  0
 37 64  1  0  0  0  0
 38 74  1  0  0  0  0
 38 79  2  0  0  0  0
 39 70  1  0  0  0  0
 39 80  2  0  0  0  0
 40 56  1  0  0  0  0
 40 75  1  0  0  0  0
 40 81  2  0  0  0  0
 41 65  1  0  0  0  0
 41 71  1  0  0  0  0
 41 82  2  0  0  0  0
 42 66  1  0  0  0  0
 42 76  1  0  0  0  0
 42 83  2  0  0  0  0
 43 72  1  0  0  0  0
 43 77  1  0  0  0  0
 43 84  2  0  0  0  0
 44 48  1  0  0  0  0
 45 56  1  0  0  0  0
 46 71  1  0  0  0  0
 47 52  1  0  0  0  0
 48 50  1  0  0  0  0
 49 51  1  0  0  0  0
 49 53  1  0  0  0  0
 50 55  1  0  0  0  0
 51 57  1  0  0  0  0
 52 70  1  0  0  0  0
 53 72  1  0  0  0  0
 54 57  1  0  0  0  0
 54 72  1  0  0  0  0
 55 75  1  0  0  0  0
 56 71  1  0  0  0  0
 57 69  1  0  0  0  0
 58 66  1  0  0  0  0
 59 67  1  0  0  0  0
 60 67  1  0  0  0  0
 61 67  1  0  0  0  0
 62 78  1  0  0  0  0
 63 77  1  0  0  0  0
 64 86  1  0  0  0  0
 65 67  1  0  0  0  0
 65 76  1  0  0  0  0
 66 78  1  0  0  0  0
 68 69  1  0  0  0  0
M  CHG  1  78   1
M  ISO  4  43 100  64 101  77 100  86 101
M  END
> <Batch ID>
0057

> <Smiles>
C=C1CCN(C(=O)C=C[101CH2:1][101O:1]c2ccc3c(c2)CN(C(=O)C(NC(=O)C(C)NC)C(C)(C)C)C(C(=O)NC2CCCc4ccccc42)C3)c2ccc(C[100NH:0][100C:0](=O)N3CCCC(n4nc(-c5ccc(Oc6ccc(F)cc6F)cc5)c(C(N)=O)c4N)C3)cc21

> <Shape>
0.329

> <Color>
0.217

> <Negative vol penalty>
0.000

$$$$

  -OEChem-04042322553D

 86 94  0     1  0  0  0  0  0999 V2000
  -27.3578  -26.6928   16.8438 C   0  0  0  0  0  0  0  0  0  0  0  0
  -26.5144  -25.6367   17.1738 C   0  0  0  0  0  0  0  0  0  0  0  0
  -30.2827  -20.6646   20.8395 C   0  0  0  0  0  0  0  0  0  0  0  0
  -27.9404  -20.3597   20.3318 C   0  0  0  0  0  0  0  0  0  0  0  0
  -27.4845  -27.7787   17.7090 C   0  0  0  0  0  0  0  0  0  0  0  0
  -25.7980  -25.6655   18.3698 C   0  0  0  0  0  0  0  0  0  0  0  0
  -20.1798  -23.4340   19.3506 C   0  0  0  0  0  0  0  0  0  0  0  0
  -22.1469  -15.1660   20.8400 C   0  0  0  0  0  0  0  0  0  0  0  0
  -21.2358  -16.1462   21.2332 C   0  0  0  0  0  0  0  0  0  0  0  0
  -30.2953  -21.8340   20.0793 C   0  0  0  0  0  0  0  0  0  0  0  0
  -27.9529  -21.5292   19.5717 C   0  0  0  0  0  0  0  0  0  0  0  0
  -19.7297  -22.2393   19.9107 C   0  0  0  0  0  0  0  0  0  0  0  0
  -29.3341  -25.0548   20.4475 C   0  0  0  0  0  0  0  0  0  0  0  0
  -29.9709  -26.1722   20.9874 C   0  0  0  0  0  0  0  0  0  0  0  0
  -19.4651  -23.3437   22.0390 C   0  0  0  0  0  0  0  0  0  0  0  0
  -22.2023  -14.3112   23.0991 C   0  0  0  0  0  0  0  0  0  0  0  0
  -31.4913  -26.2129   19.1102 C   0  0  0  0  0  0  0  0  0  0  0  0
  -29.1053  -19.9274   20.9657 C   0  0  0  0  0  0  0  0  0  0  0  0
  -29.3900  -18.5916   23.1203 C   0  0  0  0  0  0  0  0  0  0  0  0
  -26.7620  -27.8253   18.9117 C   0  0  0  0  0  0  0  0  0  0  0  0
  -20.2865  -24.5919   20.1345 C   0  0  0  0  0  0  0  0  0  0  0  0
  -25.9162  -26.7525   19.2525 C   0  0  0  0  0  0  0  0  0  0  0  0
  -19.9145  -24.5525   21.4858 C   0  0  0  0  0  0  0  0  0  0  0  0
  -22.6301  -14.2485   21.7730 C   0  0  0  0  0  0  0  0  0  0  0  0
  -21.2912  -15.2915   23.4923 C   0  0  0  0  0  0  0  0  0  0  0  0
  -20.8079  -16.2090   22.5593 C   0  0  0  0  0  0  0  0  0  0  0  0
  -29.1304  -22.2663   19.4454 C   0  0  0  0  0  0  0  0  0  0  0  0
  -19.3750  -22.1932   21.2558 C   0  0  0  0  0  0  0  0  0  0  0  0
  -29.7760  -24.5164   19.2389 C   0  0  0  0  0  0  0  0  0  0  0  0
  -31.0494  -26.7513   20.3188 C   0  0  0  0  0  0  0  0  0  0  0  0
  -30.8545  -25.0955   18.5703 C   0  0  0  0  0  0  0  0  0  0  0  0
  -29.0918  -18.7190   21.7504 C   0  0  0  0  0  0  0  0  0  0  0  0
  -29.2336  -17.2525   23.3826 C   0  0  0  0  0  0  0  0  0  0  0  0
  -29.7739  -19.5941   24.0707 C   0  0  0  0  0  0  0  0  0  0  0  0
  -22.6770  -26.4946   21.0114 C   0  0  0  0  0  0  0  0  0  0  0  0
  -20.2787  -28.2776   22.2730 C   0  0  0  0  0  0  0  0  0  0  0  0
  -17.0933  -28.4018   23.4913 C   0  0  0  0  0  0  0  0  0  0  0  0
  -17.5479  -20.8375   21.7344 C   0  0  0  0  0  0  0  0  0  1  0  0
  -26.0051  -12.9366   20.7748 C   0  0  0  0  0  0  0  0  0  0  0  0
  -18.8924  -17.8046   22.1522 C   0  0  0  0  0  0  0  0  0  0  0  0
  -26.9678  -28.9982   19.8372 C   0  0  0  0  0  0  0  0  0  0  0  0
  -20.7484  -25.8793   19.5087 C   0  0  0  0  0  0  0  0  0  0  0  0
  -19.9915  -25.7727   22.3654 C   0  0  0  0  0  0  0  0  0  0  0  0
  -25.8877  -29.1256   20.9085 C   0  0  0  0  0  0  0  0  0  0  0  0
  -29.5295  -12.9653   21.2794 C   0  0  0  0  0  0  0  0  0  0  0  0
  -25.6182  -27.7722   21.5584 C   0  0  0  0  0  0  0  0  0  0  0  0
  -29.8439  -14.4317   21.5810 C   0  0  0  0  0  0  0  0  0  0  0  0
  -28.4210  -12.8284   20.2380 C   0  0  0  0  0  0  0  0  0  0  0  0
  -27.4949  -15.0272   20.8555 C   0  0  0  0  0  0  0  0  0  0  0  0
  -25.1036  -26.7586   20.5291 C   0  0  1  0  0  0  0  0  0  0  0  0
  -21.3062  -26.8711   20.5249 C   0  0  1  0  0  0  0  0  0  0  0  0
  -28.5679  -15.2161   21.9414 C   0  0  2  0  0  0  0  0  0  0  0  0
  -20.8524  -15.3371   24.9202 C   0  0  0  0  0  0  0  0  0  0  0  0
  -15.4241  -29.9916   24.4831 C   0  0  0  0  0  0  0  0  0  0  0  0
  -21.7858  -28.2016   24.9249 C   0  0  0  0  0  0  0  0  0  0  0  0
  -19.6837  -28.9486   26.0612 C   0  0  0  0  0  0  0  0  0  0  0  0
  -20.7720  -30.4179   24.3643 C   0  0  0  0  0  0  0  0  0  0  0  0
  -15.1789  -27.9545   21.2790 C   0  0  0  0  0  0  0  0  0  0  0  0
  -23.6063  -13.2018   21.3529 C   0  0  0  0  0  0  0  0  0  0  0  0
  -17.0985  -19.5336   22.3544 C   0  0  0  0  0  0  0  0  0  0  0  0
  -19.5703  -28.3271   23.6052 C   0  0  1  0  0  0  0  0  0  0  0  0
  -15.9418  -29.3490   23.2057 C   0  0  2  0  0  0  0  0  0  0  0  0
  -20.4532  -28.9502   24.7231 C   0  0  0  0  0  0  0  0  0  0  0  0
  -28.7705  -17.5538   21.1821 N   0  0  0  0  0  0  0  0  0  0  0  0
  -28.8659  -16.6814   22.1999 N   0  0  0  0  0  0  0  0  0  0  0  0
  -20.4551  -27.0062   21.7088 N   0  0  0  0  0  0  0  0  0  0  0  0
  -27.2390  -13.5943   20.6406 N   0  0  0  0  0  0  0  0  0  0  0  0
  -29.3762  -16.5196   24.5073 N   0  0  0  0  0  0  0  0  0  0  0  0
  -28.7676  -20.2536   24.7895 N   0  0  0  0  0  0  0  0  0  0  0  0
  -19.8837  -17.2104   22.9383 N   0  0  0  0  0  0  0  0  0  0  0  0
  -23.7062  -26.9981   20.2389 N   0  0  0  0  0  0  0  0  0  0  0  0
  -18.3141  -29.0318   23.3735 N   0  0  0  0  0  0  0  0  0  0  0  0
  -24.9373  -13.7349   21.1661 N   0  0  0  0  0  0  0  0  0  0  0  0
  -18.1781  -18.7592   22.8944 N   0  0  0  0  0  0  0  0  0  0  0  0
  -14.8168  -28.6164   22.5588 N   0  3  0  0  0  0  0  0  0  0  0  0
  -30.9729  -19.9076   24.2646 O   0  0  0  0  0  0  0  0  0  0  0  0
  -22.7925  -25.7999   22.0143 O   0  0  0  0  0  0  0  0  0  0  0  0
  -20.6552  -29.3288   21.7488 O   0  0  0  0  0  0  0  0  0  0  0  0
  -16.9262  -27.2220   23.7925 O   0  0  0  0  0  0  0  0  0  0  0  0
  -16.7584  -21.6301   21.2305 O   0  0  0  0  0  0  0  0  0  0  0  0
  -25.8666  -11.7264   20.5669 O   0  0  0  0  0  0  0  0  0  0  0  0
  -18.6454  -17.5572   20.9743 O   0  0  0  0  0  0  0  0  0  0  0  0
  -29.1422  -23.4075   18.7037 O   0  0  0  0  0  0  0  0  0  0  0  0
  -18.9360  -21.0282   21.8052 O   0  0  0  0  0  0  0  0  0  1  0  0
  -31.6598  -27.8252   20.8367 F   0  0  0  0  0  0  0  0  0  0  0  0
  -31.2827  -24.5835   17.4083 F   0  0  0  0  0  0  0  0  0  0  0  0
  1  2  1  0  0  0  0
  1  5  2  0  0  0  0
  2  6  2  0  0  0  0
  3 10  2  0  0  0  0
  3 18  1  0  0  0  0
  4 11  1  0  0  0  0
  4 18  2  0  0  0  0
  5 20  1  0  0  0  0
  6 22  1  0  0  0  0
  7 12  2  0  0  0  0
  7 21  1  0  0  0  0
  8  9  2  0  0  0  0
  8 24  1  0  0  0  0
  9 26  1  0  0  0  0
 10 27  1  0  0  0  0
 11 27  2  0  0  0  0
 12 28  1  0  0  0  0
 13 14  2  0  0  0  0
 13 29  1  0  0  0  0
 14 30  1  0  0  0  0
 15 23  1  0  0  0  0
 15 28  2  0  0  0  0
 16 24  2  0  0  0  0
 16 25  1  0  0  0  0
 17 30  2  0  0  0  0
 17 31  1  0  0  0  0
 18 32  1  0  0  0  0
 19 32  1  0  0  0  0
 19 33  2  0  0  0  0
 19 34  1  0  0  0  0
 20 22  2  0  0  0  0
 20 41  1  0  0  0  0
 21 23  2  0  0  0  0
 21 42  1  0  0  0  0
 22 50  1  0  0  0  0
 23 43  1  0  0  0  0
 24 59  1  0  0  0  0
 25 26  2  0  0  0  0
 25 53  1  0  0  0  0
 26 70  1  0  0  0  0
 27 83  1  0  0  0  0
 28 84  1  0  0  0  0
 29 31  2  0  0  0  0
 29 83  1  0  0  0  0
 30 85  1  0  0  0  0
 31 86  1  0  0  0  0
 32 64  2  0  0  0  0
 33 65  1  0  0  0  0
 33 68  1  0  0  0  0
 34 69  1  0  0  0  0
 34 76  2  0  0  0  0
 35 51  1  0  0  0  0
 35 71  1  0  0  0  0
 35 77  2  0  0  0  0
 36 61  1  0  0  0  0
 36 66  1  0  0  0  0
 36 78  2  0  0  0  0
 37 62  1  0  0  0  0
 37 72  1  0  0  0  0
 37 79  2  0  0  0  0
 38 60  1  0  0  0  0
 38 80  2  0  0  0  0
 38 84  1  0  0  0  0
 39 67  1  0  0  0  0
 39 73  1  0  0  0  0
 39 81  2  0  0  0  0
 40 70  1  0  0  0  0
 40 74  1  0  0  0  0
 40 82  2  0  0  0  0
 41 44  1  0  0  0  0
 42 51  1  0  0  0  0
 43 66  1  0  0  0  0
 44 46  1  0  0  0  0
 45 47  1  0  0  0  0
 45 48  1  0  0  0  0
 46 50  1  0  0  0  0
 47 52  1  0  0  0  0
 48 67  1  0  0  0  0
 49 52  1  0  0  0  0
 49 67  1  0  0  0  0
 50 71  1  0  0  0  0
 51 66  1  0  0  0  0
 52 65  1  0  0  0  0
 54 62  1  0  0  0  0
 55 63  1  0  0  0  0
 56 63  1  0  0  0  0
 57 63  1  0  0  0  0
 58 75  1  0  0  0  0
 59 73  1  0  0  0  0
 60 74  1  0  0  0  0
 61 63  1  0  0  0  0
 61 72  1  0  0  0  0
 62 75  1  0  0  0  0
 64 65  1  0  0  0  0
M  CHG  1  75   1
M  ISO  4  38 101  39 100  73 100  84 101
M  END
> <Batch ID>
0057

> <Smiles>
CNC(C)C(=O)NC(C(=O)N1Cc2cc([101O:1][101C:1](=O)CNC(=O)Nc3ccc(C[100NH:0][100C:0](=O)N4CCCC(n5nc(-c6ccc(Oc7ccc(F)cc7F)cc6)c(C(N)=O)c5N)C4)cc3C)ccc2CC1C(=O)NC1CCCc2ccccc21)C(C)(C)C

> <Shape>
0.254

> <Color>
0.051

> <Negative vol penalty>
0.000

$$$$

  -OEChem-04042322553D

 83 91  0     1  0  0  0  0  0999 V2000
  -28.1560  -36.4029   22.4316 C   0  0  0  0  0  0  0  0  0  0  0  0
  -28.4341  -35.0417   22.3602 C   0  0  0  0  0  0  0  0  0  0  0  0
  -29.9276  -20.9114   23.5154 C   0  0  0  0  0  0  0  0  0  0  0  0
  -24.6605  -12.2857   19.7749 C   0  0  0  0  0  0  0  0  0  0  0  0
  -25.6663  -12.9811   21.8586 C   0  0  0  0  0  0  0  0  0  0  0  0
  -26.9221  -36.8368   22.9146 C   0  0  0  0  0  0  0  0  0  0  0  0
  -27.4787  -34.1135   22.7728 C   0  0  0  0  0  0  0  0  0  0  0  0
  -26.9972  -30.2507   19.5337 C   0  0  0  0  0  0  0  0  0  0  0  0
  -30.8861  -21.7056   22.8862 C   0  0  0  0  0  0  0  0  0  0  0  0
  -28.8507  -20.4080   22.7856 C   0  0  0  0  0  0  0  0  0  0  0  0
  -25.1773  -11.0025   19.9537 C   0  0  0  0  0  0  0  0  0  0  0  0
  -26.1830  -11.6979   22.0375 C   0  0  0  0  0  0  0  0  0  0  0  0
  -27.9729  -29.2559   19.5794 C   0  0  0  0  0  0  0  0  0  0  0  0
  -24.4250   -8.2431   21.7573 C   0  0  0  0  0  0  0  0  0  0  0  0
  -23.5758   -7.1630   21.5169 C   0  0  0  0  0  0  0  0  0  0  0  0
  -26.4884  -27.8681   20.8792 C   0  0  0  0  0  0  0  0  0  0  0  0
  -29.6908  -21.4933   20.7973 C   0  0  0  0  0  0  0  0  0  0  0  0
  -25.0775   -6.3645   19.8009 C   0  0  0  0  0  0  0  0  0  0  0  0
  -24.9050  -13.2750   20.7273 C   0  0  0  0  0  0  0  0  0  0  0  0
  -23.1255  -15.0848   20.9833 C   0  0  0  0  0  0  0  0  0  0  0  0
  -25.9476  -35.9132   23.3242 C   0  0  0  0  0  0  0  0  0  0  0  0
  -25.7617  -30.0657   20.1706 C   0  0  0  0  0  0  0  0  0  0  0  0
  -26.2312  -34.5355   23.2630 C   0  0  0  0  0  0  0  0  0  0  0  0
  -25.4977  -28.8610   20.8378 C   0  0  0  0  0  0  0  0  0  0  0  0
  -30.7677  -21.9966   21.5271 C   0  0  0  0  0  0  0  0  0  0  0  0
  -28.7323  -20.6989   21.4266 C   0  0  0  0  0  0  0  0  0  0  0  0
  -25.9385  -10.7086   21.0850 C   0  0  0  0  0  0  0  0  0  0  0  0
  -27.7197  -28.0656   20.2547 C   0  0  0  0  0  0  0  0  0  0  0  0
  -25.6004   -8.3840   21.0195 C   0  0  0  0  0  0  0  0  0  0  0  0
  -23.9021   -6.2237   20.5387 C   0  0  0  0  0  0  0  0  0  0  0  0
  -25.9266   -7.4447   20.0413 C   0  0  0  0  0  0  0  0  0  0  0  0
  -24.3720  -14.6009   20.5429 C   0  0  0  0  0  0  0  0  0  0  0  0
  -23.0963  -16.3918   20.5621 C   0  0  0  0  0  0  0  0  0  0  0  0
  -22.0869  -14.4130   21.7083 C   0  0  0  0  0  0  0  0  0  0  0  0
  -24.2131  -31.5283   22.5299 C   0  0  0  0  0  0  0  0  0  0  0  0
  -21.8259  -29.4945   21.7008 C   0  0  0  0  0  0  0  0  0  0  0  0
  -30.8573  -25.1240   20.4535 C   0  0  0  0  0  0  0  0  0  0  0  0
  -20.9050  -26.5462   20.2495 C   0  0  0  0  0  0  0  0  0  0  0  0
  -27.3720  -20.3801   19.3304 C   0  0  0  0  0  0  0  0  0  0  0  0
  -24.6462  -36.4311   23.8836 C   0  0  0  0  0  0  0  0  0  0  0  0
  -24.7097  -31.1377   20.0893 C   0  0  0  0  0  0  0  0  0  0  0  0
  -24.1799  -28.6049   21.5207 C   0  0  0  0  0  0  0  0  0  0  0  0
  -23.5476  -35.3733   23.9494 C   0  0  0  0  0  0  0  0  0  0  0  0
  -24.8077  -19.2590   17.1292 C   0  0  0  0  0  0  0  0  0  0  0  0
  -24.0888  -34.0781   24.5463 C   0  0  0  0  0  0  0  0  0  0  0  0
  -24.2874  -17.9846   17.7980 C   0  0  0  0  0  0  0  0  0  0  0  0
  -26.3182  -19.4123   17.2986 C   0  0  0  0  0  0  0  0  0  0  0  0
  -26.2792  -18.0518   19.3521 C   0  0  0  0  0  0  0  0  0  0  0  0
  -25.2113  -33.4972   23.6778 C   0  0  1  0  0  0  0  0  0  0  0  0
  -23.6784  -31.0491   21.2100 C   0  0  1  0  0  0  0  0  0  0  0  0
  -24.7532  -17.8870   19.2640 C   0  0  2  0  0  0  0  0  0  0  0  0
  -18.8864  -25.1392   19.7565 C   0  0  0  0  0  0  0  0  0  0  0  0
  -21.7217  -28.6242   24.6234 C   0  0  0  0  0  0  0  0  0  0  0  0
  -20.4132  -26.6140   23.9057 C   0  0  0  0  0  0  0  0  0  0  0  0
  -19.4862  -28.9003   23.5368 C   0  0  0  0  0  0  0  0  0  0  0  0
  -21.3641  -26.7044   17.3301 C   0  0  0  0  0  0  0  0  0  0  0  0
  -31.7998  -22.8516   20.8503 C   0  0  0  0  0  0  0  0  0  0  0  0
  -30.8899  -26.5269   21.0395 C   0  0  0  0  0  0  0  0  0  0  0  0
  -30.0333  -27.5150   20.2629 C   0  0  0  0  0  0  0  0  0  1  0  0
  -21.4169  -28.1012   22.1135 C   0  0  1  0  0  0  0  0  0  0  0  0
  -19.8244  -26.2169   19.2355 C   0  0  2  0  0  0  0  0  0  0  0  0
  -20.7851  -28.0652   23.5337 C   0  0  0  0  0  0  0  0  0  0  0  0
  -25.0831  -15.5252   19.8917 N   0  0  0  0  0  0  0  0  0  0  0  0
  -24.2808  -16.6030   19.9198 N   0  0  0  0  0  0  0  0  0  0  0  0
  -23.1858  -29.6860   21.4184 N   0  0  0  0  0  0  0  0  0  0  0  0
  -26.6851  -19.3134   18.7130 N   0  0  0  0  0  0  0  0  0  0  0  0
  -22.1733  -17.3695   20.6821 N   0  0  0  0  0  0  0  0  0  0  0  0
  -22.2799  -13.0707   22.0623 N   0  0  0  0  0  0  0  0  0  0  0  0
  -27.6386  -20.1868   20.6854 N   0  0  0  0  0  0  0  0  0  0  0  0
  -24.6597  -32.8359   22.5147 N   0  0  0  0  0  0  0  0  0  0  0  0
  -31.6479  -24.2494   21.1849 N   0  0  0  0  0  0  0  0  0  0  0  0
  -20.5422  -27.6029   21.0576 N   0  0  0  0  0  0  0  0  0  0  0  0
  -20.4360  -25.7338   17.9652 N   0  3  0  0  0  0  0  0  0  0  0  0
  -21.0124  -14.9812   22.0183 O   0  0  0  0  0  0  0  0  0  0  0  0
  -24.2185  -30.7685   23.4914 O   0  0  0  0  0  0  0  0  0  0  0  0
  -20.9691  -30.3787   21.6247 O   0  0  0  0  0  0  0  0  0  0  0  0
  -30.2053  -24.8254   19.4566 O   0  0  0  0  0  0  0  0  0  0  0  0
  -21.9634  -25.9255   20.3204 O   0  0  0  0  0  0  0  0  0  0  0  0
  -27.6755  -21.4022   18.7097 O   0  0  0  0  0  0  0  0  0  0  0  0
  -26.4428   -9.4565   21.2599 O   0  0  0  0  0  0  0  0  0  0  0  0
  -28.6706  -27.0932   20.3015 O   0  0  0  0  0  0  0  0  0  1  0  0
  -23.0873   -5.1856   20.3089 F   0  0  0  0  0  0  0  0  0  0  0  0
  -27.0550   -7.5741   19.3301 F   0  0  0  0  0  0  0  0  0  0  0  0
  1  2  1  0  0  0  0
  1  6  2  0  0  0  0
  2  7  2  0  0  0  0
  3  9  2  0  0  0  0
  3 10  1  0  0  0  0
  4 11  2  0  0  0  0
  4 19  1  0  0  0  0
  5 12  1  0  0  0  0
  5 19  2  0  0  0  0
  6 21  1  0  0  0  0
  7 23  1  0  0  0  0
  8 13  2  0  0  0  0
  8 22  1  0  0  0  0
  9 25  1  0  0  0  0
 10 26  2  0  0  0  0
 11 27  1  0  0  0  0
 12 27  2  0  0  0  0
 13 28  1  0  0  0  0
 14 15  2  0  0  0  0
 14 29  1  0  0  0  0
 15 30  1  0  0  0  0
 16 24  1  0  0  0  0
 16 28  2  0  0  0  0
 17 25  2  0  0  0  0
 17 26  1  0  0  0  0
 18 30  2  0  0  0  0
 18 31  1  0  0  0  0
 19 32  1  0  0  0  0
 20 32  1  0  0  0  0
 20 33  2  0  0  0  0
 20 34  1  0  0  0  0
 21 23  2  0  0  0  0
 21 40  1  0  0  0  0
 22 24  2  0  0  0  0
 22 41  1  0  0  0  0
 23 49  1  0  0  0  0
 24 42  1  0  0  0  0
 25 57  1  0  0  0  0
 26 69  1  0  0  0  0
 27 80  1  0  0  0  0
 28 81  1  0  0  0  0
 29 31  2  0  0  0  0
 29 80  1  0  0  0  0
 30 82  1  0  0  0  0
 31 83  1  0  0  0  0
 32 63  2  0  0  0  0
 33 64  1  0  0  0  0
 33 67  1  0  0  0  0
 34 68  1  0  0  0  0
 34 74  2  0  0  0  0
 35 50  1  0  0  0  0
 35 70  1  0  0  0  0
 35 75  2  0  0  0  0
 36 60  1  0  0  0  0
 36 65  1  0  0  0  0
 36 76  2  0  0  0  0
 37 58  1  0  0  0  0
 37 71  1  0  0  0  0
 37 77  2  0  0  0  0
 38 61  1  0  0  0  0
 38 72  1  0  0  0  0
 38 78  2  0  0  0  0
 39 66  1  0  0  0  0
 39 69  1  0  0  0  0
 39 79  2  0  0  0  0
 40 43  1  0  0  0  0
 41 50  1  0  0  0  0
 42 65  1  0  0  0  0
 43 45  1  0  0  0  0
 44 46  1  0  0  0  0
 44 47  1  0  0  0  0
 45 49  1  0  0  0  0
 46 51  1  0  0  0  0
 47 66  1  0  0  0  0
 48 51  1  0  0  0  0
 48 66  1  0  0  0  0
 49 70  1  0  0  0  0
 50 65  1  0  0  0  0
 51 64  1  0  0  0  0
 52 61  1  0  0  0  0
 53 62  1  0  0  0  0
 54 62  1  0  0  0  0
 55 62  1  0  0  0  0
 56 73  1  0  0  0  0
 57 71  1  0  0  0  0
 58 59  1  0  0  0  0
 59 81  1  0  0  0  0
 60 62  1  0  0  0  0
 60 72  1  0  0  0  0
 61 73  1  0  0  0  0
 63 64  1  0  0  0  0
M  CHG  1  73   1
M  ISO  4  39 100  59 101  69 100  81 101
M  END
> <Batch ID>
0057

> <Smiles>
CNC(C)C(=O)NC(C(=O)N1Cc2cc([101O:1][101CH2:1]CC(=O)NCc3cccc([100NH:0][100C:0](=O)N4CCCC(n5nc(-c6ccc(Oc7ccc(F)cc7F)cc6)c(C(N)=O)c5N)C4)c3)ccc2CC1C(=O)NC1CCCc2ccccc21)C(C)(C)C

> <Shape>
0.274

> <Color>
0.093

> <Negative vol penalty>
0.000

$$$$

  -OEChem-04042322553D

 87 95  0     1  0  0  0  0  0999 V2000
  -17.2696  -31.9455   22.4875 C   0  0  0  0  0  0  0  0  0  0  0  0
  -18.4986  -32.2601   21.9164 C   0  0  0  0  0  0  0  0  0  0  0  0
  -25.9415  -14.6641   21.7003 C   0  0  0  0  0  0  0  0  0  0  0  0
  -25.6085  -15.6714   19.5296 C   0  0  0  0  0  0  0  0  0  0  0  0
  -17.1741  -30.8940   23.3981 C   0  0  0  0  0  0  0  0  0  0  0  0
  -19.6330  -31.5239   22.2563 C   0  0  0  0  0  0  0  0  0  0  0  0
  -25.7932  -29.1558   19.4707 C   0  0  0  0  0  0  0  0  0  0  0  0
  -24.5745  -14.4006   21.7877 C   0  0  0  0  0  0  0  0  0  0  0  0
  -24.2416  -15.4078   19.6170 C   0  0  0  0  0  0  0  0  0  0  0  0
  -27.1628  -29.1535   19.7316 C   0  0  0  0  0  0  0  0  0  0  0  0
  -21.7505  -16.1088   22.5165 C   0  0  0  0  0  0  0  0  0  0  0  0
  -21.1109  -16.4000   23.7213 C   0  0  0  0  0  0  0  0  0  0  0  0
  -26.8632  -27.3079   21.2558 C   0  0  0  0  0  0  0  0  0  0  0  0
  -29.8453  -22.1997   17.1638 C   0  0  0  0  0  0  0  0  0  0  0  0
  -30.6321  -23.6805   18.9031 C   0  0  0  0  0  0  0  0  0  0  0  0
  -20.4794  -14.0789   23.9469 C   0  0  0  0  0  0  0  0  0  0  0  0
  -26.4585  -15.2996   20.5713 C   0  0  0  0  0  0  0  0  0  0  0  0
  -28.8649  -14.7360   19.9397 C   0  0  0  0  0  0  0  0  0  0  0  0
  -18.3061  -30.1384   23.7420 C   0  0  0  0  0  0  0  0  0  0  0  0
  -24.9454  -28.2397   20.1097 C   0  0  0  0  0  0  0  0  0  0  0  0
  -19.5528  -30.4621   23.1733 C   0  0  0  0  0  0  0  0  0  0  0  0
  -25.4836  -27.2990   20.9993 C   0  0  0  0  0  0  0  0  0  0  0  0
  -29.5514  -23.3007   16.3594 C   0  0  0  0  0  0  0  0  0  0  0  0
  -29.7980  -24.5916   16.8267 C   0  0  0  0  0  0  0  0  0  0  0  0
  -30.3855  -22.3896   18.4357 C   0  0  0  0  0  0  0  0  0  0  0  0
  -30.3384  -24.7815   18.0986 C   0  0  0  0  0  0  0  0  0  0  0  0
  -23.7246  -14.7724   20.7460 C   0  0  0  0  0  0  0  0  0  0  0  0
  -27.6976  -28.2313   20.6264 C   0  0  0  0  0  0  0  0  0  0  0  0
  -21.7546  -14.8027   22.0268 C   0  0  0  0  0  0  0  0  0  0  0  0
  -20.4753  -15.3850   24.4366 C   0  0  0  0  0  0  0  0  0  0  0  0
  -21.1190  -13.7878   22.7420 C   0  0  0  0  0  0  0  0  0  0  0  0
  -27.8703  -15.5726   20.4806 C   0  0  0  0  0  0  0  0  0  0  0  0
  -30.0305  -15.4469   20.0898 C   0  0  0  0  0  0  0  0  0  0  0  0
  -28.7459  -13.4329   19.3537 C   0  0  0  0  0  0  0  0  0  0  0  0
  -22.4795  -28.4777   22.1014 C   0  0  0  0  0  0  0  0  0  0  0  0
  -22.3082  -25.2696   21.6529 C   0  0  0  0  0  0  0  0  0  0  0  0
  -31.1266  -26.4302   19.8320 C   0  0  0  0  0  0  0  0  0  0  0  0
  -23.9019  -22.3737   20.8037 C   0  0  0  0  0  0  0  0  0  0  0  0
  -31.2223  -21.2850   20.5395 C   0  0  0  0  0  0  0  0  0  0  0  0
  -18.1626  -29.0412   24.7668 C   0  0  0  0  0  0  0  0  0  0  0  0
  -23.4741  -28.2378   19.7972 C   0  0  0  0  0  0  0  0  0  0  0  0
  -24.6191  -26.2812   21.6960 C   0  0  0  0  0  0  0  0  0  0  0  0
  -19.3408  -28.0708   24.7893 C   0  0  0  0  0  0  0  0  0  0  0  0
  -32.0662  -18.7518   22.8949 C   0  0  0  0  0  0  0  0  0  0  0  0
  -20.6614  -28.8341   24.7753 C   0  0  0  0  0  0  0  0  0  0  0  0
  -31.1810  -17.5709   22.4901 C   0  0  0  0  0  0  0  0  0  0  0  0
  -31.3477  -20.0876   22.7134 C   0  0  0  0  0  0  0  0  0  0  0  0
  -29.8906  -19.1278   20.9742 C   0  0  0  0  0  0  0  0  0  0  0  0
  -20.8013  -29.6710   23.4980 C   0  0  1  0  0  0  0  0  0  0  0  0
  -22.6310  -27.5955   20.8945 C   0  0  1  0  0  0  0  0  0  0  0  0
  -30.5939  -17.7646   21.0782 C   0  0  2  0  0  0  0  0  0  0  0  0
  -29.4811  -25.7695   15.9592 C   0  0  0  0  0  0  0  0  0  0  0  0
  -23.5103  -19.9065   20.5659 C   0  0  0  0  0  0  0  0  0  0  0  0
  -22.3851  -24.9672   24.6882 C   0  0  0  0  0  0  0  0  0  0  0  0
  -22.9467  -22.5491   24.3633 C   0  0  0  0  0  0  0  0  0  0  0  0
  -20.7738  -23.4461   23.5287 C   0  0  0  0  0  0  0  0  0  0  0  0
  -24.5660  -22.4288   17.9202 C   0  0  0  0  0  0  0  0  0  0  0  0
  -31.2379  -27.9453   19.9585 C   0  0  0  0  0  0  0  0  0  0  0  0
  -29.8987  -28.6556   19.8322 C   0  0  0  0  0  0  0  0  0  1  0  0
  -22.9120  -24.0619   22.3283 C   0  0  1  0  0  0  0  0  0  0  0  0
  -23.5158  -21.2518   19.8568 C   0  0  2  0  0  0  0  0  0  0  0  0
  -28.9739  -23.0696   15.0010 C   0  0  0  0  0  0  0  0  0  0  0  0
  -22.2707  -23.7764   23.7156 C   0  0  0  0  0  0  0  0  0  0  0  0
  -28.3612  -16.7266   20.9403 N   0  0  0  0  0  0  0  0  0  0  0  0
  -29.6770  -16.6202   20.6886 N   0  0  0  0  0  0  0  0  0  0  0  0
  -23.1858  -26.3237   21.3622 N   0  0  0  0  0  0  0  0  0  0  0  0
  -30.8219  -20.2026   21.3513 N   0  0  0  0  0  0  0  0  0  0  0  0
  -31.3131  -15.1766   19.7668 N   0  0  0  0  0  0  0  0  0  0  0  0
  -27.4745  -12.8479   19.2781 N   0  0  0  0  0  0  0  0  0  0  0  0
  -30.5952  -26.0825   18.5929 N   0  0  0  0  0  0  0  0  0  0  0  0
  -30.6832  -21.2714   19.2535 N   0  0  0  0  0  0  0  0  0  0  0  0
  -21.1728  -28.8296   22.3806 N   0  0  0  0  0  0  0  0  0  0  0  0
  -22.7945  -22.9614   21.3778 N   0  0  0  0  0  0  0  0  0  0  0  0
  -24.4765  -21.1799   18.7198 N   0  3  0  0  0  0  0  0  0  0  0  0
  -29.7398  -12.7989   18.9252 O   0  0  0  0  0  0  0  0  0  0  0  0
  -23.4744  -28.8129   22.7335 O   0  0  0  0  0  0  0  0  0  0  0  0
  -21.1038  -25.2744   21.3865 O   0  0  0  0  0  0  0  0  0  0  0  0
  -31.4730  -25.6728   20.7323 O   0  0  0  0  0  0  0  0  0  0  0  0
  -25.0693  -22.6941   21.0160 O   0  0  0  0  0  0  0  0  0  0  0  0
  -32.0084  -22.1447   20.9456 O   0  0  0  0  0  0  0  0  0  0  0  0
  -22.3907  -14.5151   20.8309 O   0  0  0  0  0  0  0  0  0  0  0  0
  -29.0339  -28.2273   20.8834 O   0  0  0  0  0  0  0  0  0  1  0  0
  -19.8624  -15.6645   25.5943 F   0  0  0  0  0  0  0  0  0  0  0  0
  -21.1205  -12.5309   22.2772 F   0  0  0  0  0  0  0  0  0  0  0  0
  -28.7971  -21.7498   14.7014 F   0  0  0  0  0  0  0  0  0  0  0  0
  -27.7483  -23.6441   14.8259 F   0  0  0  0  0  0  0  0  0  0  0  0
  -29.7612  -23.5708   14.0064 F   0  0  0  0  0  0  0  0  0  0  0  0
  1  2  1  0  0  0  0
  1  5  2  0  0  0  0
  2  6  2  0  0  0  0
  3  8  2  0  0  0  0
  3 17  1  0  0  0  0
  4  9  1  0  0  0  0
  4 17  2  0  0  0  0
  5 19  1  0  0  0  0
  6 21  1  0  0  0  0
  7 10  2  0  0  0  0
  7 20  1  0  0  0  0
  8 27  1  0  0  0  0
  9 27  2  0  0  0  0
 10 28  1  0  0  0  0
 11 12  2  0  0  0  0
 11 29  1  0  0  0  0
 12 30  1  0  0  0  0
 13 22  1  0  0  0  0
 13 28  2  0  0  0  0
 14 23  2  0  0  0  0
 14 25  1  0  0  0  0
 15 25  2  0  0  0  0
 15 26  1  0  0  0  0
 16 30  2  0  0  0  0
 16 31  1  0  0  0  0
 17 32  1  0  0  0  0
 18 32  1  0  0  0  0
 18 33  2  0  0  0  0
 18 34  1  0  0  0  0
 19 21  2  0  0  0  0
 19 40  1  0  0  0  0
 20 22  2  0  0  0  0
 20 41  1  0  0  0  0
 21 49  1  0  0  0  0
 22 42  1  0  0  0  0
 23 24  1  0  0  0  0
 23 62  1  0  0  0  0
 24 26  2  0  0  0  0
 24 52  1  0  0  0  0
 25 71  1  0  0  0  0
 26 70  1  0  0  0  0
 27 81  1  0  0  0  0
 28 82  1  0  0  0  0
 29 31  2  0  0  0  0
 29 81  1  0  0  0  0
 30 83  1  0  0  0  0
 31 84  1  0  0  0  0
 32 64  2  0  0  0  0
 33 65  1  0  0  0  0
 33 68  1  0  0  0  0
 34 69  1  0  0  0  0
 34 75  2  0  0  0  0
 35 50  1  0  0  0  0
 35 72  1  0  0  0  0
 35 76  2  0  0  0  0
 36 60  1  0  0  0  0
 36 66  1  0  0  0  0
 36 77  2  0  0  0  0
 37 58  1  0  0  0  0
 37 70  1  0  0  0  0
 37 78  2  0  0  0  0
 38 61  1  0  0  0  0
 38 73  1  0  0  0  0
 38 79  2  0  0  0  0
 39 67  1  0  0  0  0
 39 71  1  0  0  0  0
 39 80  2  0  0  0  0
 40 43  1  0  0  0  0
 41 50  1  0  0  0  0
 42 66  1  0  0  0  0
 43 45  1  0  0  0  0
 44 46  1  0  0  0  0
 44 47  1  0  0  0  0
 45 49  1  0  0  0  0
 46 51  1  0  0  0  0
 47 67  1  0  0  0  0
 48 51  1  0  0  0  0
 48 67  1  0  0  0  0
 49 72  1  0  0  0  0
 50 66  1  0  0  0  0
 51 65  1  0  0  0  0
 53 61  1  0  0  0  0
 54 63  1  0  0  0  0
 55 63  1  0  0  0  0
 56 63  1  0  0  0  0
 57 74  1  0  0  0  0
 58 59  1  0  0  0  0
 59 82  1  0  0  0  0
 60 63  1  0  0  0  0
 60 73  1  0  0  0  0
 61 74  1  0  0  0  0
 62 85  1  0  0  0  0
 62 86  1  0  0  0  0
 62 87  1  0  0  0  0
 64 65  1  0  0  0  0
M  CHG  1  74   1
M  ISO  4  39 100  59 101  71 100  82 101
M  END
> <Batch ID>
0057

> <Smiles>
CNC(C)C(=O)NC(C(=O)N1Cc2cc([101O:1][101CH2:1]CC(=O)Nc3cc([100NH:0][100C:0](=O)N4CCCC(n5nc(-c6ccc(Oc7ccc(F)cc7F)cc6)c(C(N)=O)c5N)C4)cc(C(F)(F)F)c3C)ccc2CC1C(=O)NC1CCCc2ccccc21)C(C)(C)C

> <Shape>
0.236

> <Color>
0.079

> <Negative vol penalty>
0.000

$$$$

  -OEChem-04042322553D

 88 97  0     1  0  0  0  0  0999 V2000
  -25.6331  -27.1241   27.7896 C   0  0  0  0  0  0  0  0  0  0  0  0
  -26.4818  -26.7768   26.7435 C   0  0  0  0  0  0  0  0  0  0  0  0
  -24.4572   -9.6794   21.6012 C   0  0  0  0  0  0  0  0  0  0  0  0
  -24.7744  -10.8670   23.6811 C   0  0  0  0  0  0  0  0  0  0  0  0
  -24.2542  -27.1559   27.5858 C   0  0  0  0  0  0  0  0  0  0  0  0
  -25.9520  -26.4600   25.4931 C   0  0  0  0  0  0  0  0  0  0  0  0
  -28.4829  -28.6582   21.6974 C   0  0  0  0  0  0  0  0  0  0  0  0
  -24.1189   -8.5272   22.3106 C   0  0  0  0  0  0  0  0  0  0  0  0
  -24.4360   -9.7147   24.3906 C   0  0  0  0  0  0  0  0  0  0  0  0
  -29.6951  -28.0810   21.3219 C   0  0  0  0  0  0  0  0  0  0  0  0
  -21.4184   -7.3075   23.9393 C   0  0  0  0  0  0  0  0  0  0  0  0
  -20.3058   -6.5845   23.5091 C   0  0  0  0  0  0  0  0  0  0  0  0
  -28.9800  -21.7931   21.9258 C   0  0  0  0  0  0  0  0  0  0  0  0
  -27.6383  -19.8736   21.3323 C   0  0  0  0  0  0  0  0  0  0  0  0
  -28.5971  -26.9946   19.4690 C   0  0  0  0  0  0  0  0  0  0  0  0
  -30.0465  -19.7595   21.1750 C   0  0  0  0  0  0  0  0  0  0  0  0
  -21.7055   -4.6501   23.1401 C   0  0  0  0  0  0  0  0  0  0  0  0
  -24.7850  -10.8494   22.2864 C   0  0  0  0  0  0  0  0  0  0  0  0
  -27.7301  -21.1914   21.7804 C   0  0  0  0  0  0  0  0  0  0  0  0
  -24.2631  -13.0517   21.1096 C   0  0  0  0  0  0  0  0  0  0  0  0
  -23.7078  -26.8487   26.3297 C   0  0  0  0  0  0  0  0  0  0  0  0
  -27.3145  -28.3988   20.9666 C   0  0  0  0  0  0  0  0  0  0  0  0
  -24.5644  -26.4865   25.2727 C   0  0  0  0  0  0  0  0  0  0  0  0
  -27.3717  -27.5718   19.8358 C   0  0  0  0  0  0  0  0  0  0  0  0
  -30.1382  -21.0772   21.6231 C   0  0  0  0  0  0  0  0  0  0  0  0
  -28.7966  -19.1577   21.0296 C   0  0  0  0  0  0  0  0  0  0  0  0
  -24.1083   -8.5448   23.7054 C   0  0  0  0  0  0  0  0  0  0  0  0
  -29.7518  -27.2467   20.2093 C   0  0  0  0  0  0  0  0  0  0  0  0
  -22.6746   -6.7018   23.9699 C   0  0  0  0  0  0  0  0  0  0  0  0
  -20.4493   -5.2559   23.1095 C   0  0  0  0  0  0  0  0  0  0  0  0
  -22.8181   -5.3731   23.5703 C   0  0  0  0  0  0  0  0  0  0  0  0
  -25.1351  -12.0399   21.5541 C   0  0  0  0  0  0  0  0  0  0  0  0
  -25.0799  -13.9529   20.4714 C   0  0  0  0  0  0  0  0  0  0  0  0
  -32.0492  -24.0141   20.8840 C   0  0  0  0  0  0  0  0  0  0  0  0
  -25.6341  -22.1133   21.1062 C   0  0  0  0  0  0  0  0  0  0  0  0
  -26.5220  -21.9377   22.0954 C   0  0  0  0  0  0  0  0  0  0  0  0
  -22.8419  -13.1668   21.2601 C   0  0  0  0  0  0  0  0  0  0  0  0
  -24.5143  -27.0440   21.6203 C   0  0  0  0  0  0  0  0  0  0  0  0
  -23.7747  -28.0370   18.6221 C   0  0  0  0  0  0  0  0  0  0  0  0
  -24.8664  -28.9401   15.5174 C   0  0  0  0  0  0  0  0  0  0  0  0
  -29.7540  -16.9691   20.2297 C   0  0  0  0  0  0  0  0  0  0  0  0
  -22.2081  -26.8508   26.1702 C   0  0  0  0  0  0  0  0  0  0  0  0
  -26.0199  -29.0505   21.3689 C   0  0  0  0  0  0  0  0  0  0  0  0
  -26.1499  -27.2777   19.0057 C   0  0  0  0  0  0  0  0  0  0  0  0
  -21.7504  -26.8657   24.7140 C   0  0  0  0  0  0  0  0  0  0  0  0
  -29.9393  -13.5977   19.0998 C   0  0  0  0  0  0  0  0  0  0  0  0
  -22.5300  -25.8387   23.8989 C   0  0  0  0  0  0  0  0  0  0  0  0
  -28.6342  -12.9751   19.6010 C   0  0  0  0  0  0  0  0  0  0  0  0
  -32.3273  -23.4182   18.5882 C   0  0  0  0  0  0  0  0  0  0  0  0
  -30.5074  -14.6048   20.0983 C   0  0  0  0  0  0  0  0  0  0  0  0
  -31.6456  -22.2812   19.3256 C   0  0  0  0  0  0  0  0  0  0  0  0
  -28.2653  -15.0290   21.0267 C   0  0  0  0  0  0  0  0  0  0  0  0
  -24.0293  -26.1604   23.8952 C   0  0  1  0  0  0  0  0  0  0  0  0
  -32.1425  -24.6339   19.5024 C   0  0  1  0  0  0  0  0  0  0  0  0
  -24.7913  -28.3067   20.8544 C   0  0  1  0  0  0  0  0  0  0  0  0
  -27.6209  -14.0560   20.0258 C   0  0  2  0  0  0  0  0  0  0  0  0
  -26.2529  -22.5125   23.4584 C   0  0  0  0  0  0  0  0  0  0  0  0
  -24.0249  -29.6635   13.2666 C   0  0  0  0  0  0  0  0  0  0  0  0
  -22.9562  -25.1627   18.0070 C   0  0  0  0  0  0  0  0  0  0  0  0
  -23.0425  -25.7332   15.5707 C   0  0  0  0  0  0  0  0  0  0  0  0
  -21.4286  -26.9060   17.0681 C   0  0  0  0  0  0  0  0  0  0  0  0
  -26.2840  -31.5322   15.6916 C   0  0  0  0  0  0  0  0  0  0  0  0
  -31.4839  -21.7246   21.7789 C   0  0  0  0  0  0  0  0  0  0  0  0
  -30.8722  -25.4127   19.1910 C   0  0  0  0  0  0  0  0  0  1  0  0
  -23.8932  -27.4428   17.2394 C   0  0  1  0  0  0  0  0  0  0  0  0
  -24.5165  -30.1217   14.6309 C   0  0  2  0  0  0  0  0  0  0  0  0
  -22.8530  -26.3150   16.9879 C   0  0  0  0  0  0  0  0  0  0  0  0
  -26.4082  -12.2755   21.2260 N   0  0  0  0  0  0  0  0  0  0  0  0
  -26.3422  -13.4457   20.5684 N   0  0  0  0  0  0  0  0  0  0  0  0
  -31.7600  -22.6630   20.7127 N   0  0  0  0  0  0  0  0  0  0  0  0
  -24.9065  -27.9334   19.4432 N   0  0  0  0  0  0  0  0  0  0  0  0
  -29.4930  -15.6003   20.4512 N   0  0  0  0  0  0  0  0  0  0  0  0
  -24.8343  -15.1218   19.8423 N   0  0  0  0  0  0  0  0  0  0  0  0
  -22.1580  -12.1518   21.9430 N   0  0  0  0  0  0  0  0  0  0  0  0
  -28.7035  -17.8194   20.5734 N   0  0  0  0  0  0  0  0  0  0  0  0
  -24.3124  -27.2395   22.9733 N   0  0  0  0  0  0  0  0  0  0  0  0
  -23.8009  -28.5600   16.3057 N   0  0  0  0  0  0  0  0  0  0  0  0
  -25.7101  -30.9917   14.4325 N   0  3  0  0  0  0  0  0  0  0  0  0
  -32.1639  -24.6325   21.9323 O   0  0  0  0  0  0  0  0  0  0  0  0
  -22.1954  -14.1327   20.7882 O   0  0  0  0  0  0  0  0  0  0  0  0
  -24.4844  -25.9720   21.0275 O   0  0  0  0  0  0  0  0  0  0  0  0
  -22.7192  -28.5795   18.9587 O   0  0  0  0  0  0  0  0  0  0  0  0
  -25.9729  -28.4053   15.5086 O   0  0  0  0  0  0  0  0  0  0  0  0
  -30.8198  -17.3561   19.7437 O   0  0  0  0  0  0  0  0  0  0  0  0
  -23.7780   -7.4206   24.3980 O   0  0  0  0  0  0  0  0  0  0  0  0
  -30.9337  -26.6815   19.8411 O   0  0  0  0  0  0  0  0  0  1  0  0
  -19.3806   -4.5613   22.6978 F   0  0  0  0  0  0  0  0  0  0  0  0
  -24.0221   -4.7854   23.5987 F   0  0  0  0  0  0  0  0  0  0  0  0
  1  2  1  0  0  0  0
  1  5  2  0  0  0  0
  2  6  2  0  0  0  0
  3  8  2  0  0  0  0
  3 18  1  0  0  0  0
  4  9  1  0  0  0  0
  4 18  2  0  0  0  0
  5 21  1  0  0  0  0
  6 23  1  0  0  0  0
  7 10  2  0  0  0  0
  7 22  1  0  0  0  0
  8 27  1  0  0  0  0
  9 27  2  0  0  0  0
 10 28  1  0  0  0  0
 11 12  2  0  0  0  0
 11 29  1  0  0  0  0
 12 30  1  0  0  0  0
 13 19  1  0  0  0  0
 13 25  2  0  0  0  0
 14 19  2  0  0  0  0
 14 26  1  0  0  0  0
 15 24  1  0  0  0  0
 15 28  2  0  0  0  0
 16 25  1  0  0  0  0
 16 26  2  0  0  0  0
 17 30  2  0  0  0  0
 17 31  1  0  0  0  0
 18 32  1  0  0  0  0
 19 36  1  0  0  0  0
 20 32  1  0  0  0  0
 20 33  2  0  0  0  0
 20 37  1  0  0  0  0
 21 23  2  0  0  0  0
 21 42  1  0  0  0  0
 22 24  2  0  0  0  0
 22 43  1  0  0  0  0
 23 53  1  0  0  0  0
 24 44  1  0  0  0  0
 25 63  1  0  0  0  0
 26 75  1  0  0  0  0
 27 85  1  0  0  0  0
 28 86  1  0  0  0  0
 29 31  2  0  0  0  0
 29 85  1  0  0  0  0
 30 87  1  0  0  0  0
 31 88  1  0  0  0  0
 32 68  2  0  0  0  0
 33 69  1  0  0  0  0
 33 73  1  0  0  0  0
 34 54  1  0  0  0  0
 34 70  1  0  0  0  0
 34 79  2  0  0  0  0
 35 36  2  0  0  0  0
 36 57  1  0  0  0  0
 37 74  1  0  0  0  0
 37 80  2  0  0  0  0
 38 55  1  0  0  0  0
 38 76  1  0  0  0  0
 38 81  2  0  0  0  0
 39 65  1  0  0  0  0
 39 71  1  0  0  0  0
 39 82  2  0  0  0  0
 40 66  1  0  0  0  0
 40 77  1  0  0  0  0
 40 83  2  0  0  0  0
 41 72  1  0  0  0  0
 41 75  1  0  0  0  0
 41 84  2  0  0  0  0
 42 45  1  0  0  0  0
 43 55  1  0  0  0  0
 44 71  1  0  0  0  0
 45 47  1  0  0  0  0
 46 48  1  0  0  0  0
 46 50  1  0  0  0  0
 47 53  1  0  0  0  0
 48 56  1  0  0  0  0
 49 51  1  0  0  0  0
 49 54  1  0  0  0  0
 50 72  1  0  0  0  0
 51 70  1  0  0  0  0
 52 56  1  0  0  0  0
 52 72  1  0  0  0  0
 53 76  1  0  0  0  0
 54 64  1  0  0  0  0
 55 71  1  0  0  0  0
 56 69  1  0  0  0  0
 58 66  1  0  0  0  0
 59 67  1  0  0  0  0
 60 67  1  0  0  0  0
 61 67  1  0  0  0  0
 62 78  1  0  0  0  0
 63 70  1  0  0  0  0
 64 86  1  0  0  0  0
 65 67  1  0  0  0  0
 65 77  1  0  0  0  0
 66 78  1  0  0  0  0
 68 69  1  0  0  0  0
M  CHG  1  78   1
M  ISO  4  41 100  64 101  75 100  86 101
M  END
> <Batch ID>
0057

> <Smiles>
C=C(C)c1cc(CN2CCC([101CH2:1][101O:1]c3ccc4c(c3)CN(C(=O)C(NC(=O)C(C)NC)C(C)(C)C)C(C(=O)NC3CCCc5ccccc53)C4)C2=O)cc([100NH:0][100C:0](=O)N2CCCC(n3nc(-c4ccc(Oc5ccc(F)cc5F)cc4)c(C(N)=O)c3N)C2)c1

> <Shape>
0.238

> <Color>
0.120

> <Negative vol penalty>
0.000

$$$$

  -OEChem-04042322553D

 87 95  0     1  0  0  0  0  0999 V2000
  -21.5775  -11.4964   20.6279 C   0  0  0  0  0  0  0  0  0  0  0  0
  -21.5621  -12.6399   21.4202 C   0  0  0  0  0  0  0  0  0  0  0  0
  -31.8033  -22.4603   23.4903 C   0  0  0  0  0  0  0  0  0  0  0  0
  -32.0500  -22.5499   22.1204 C   0  0  0  0  0  0  0  0  0  0  0  0
  -21.5343  -27.5713   19.3842 C   0  0  0  0  0  0  0  0  0  0  0  0
  -21.9578  -26.0630   21.2234 C   0  0  0  0  0  0  0  0  0  0  0  0
  -22.7761  -11.0505   20.0726 C   0  0  0  0  0  0  0  0  0  0  0  0
  -22.7457  -13.3375   21.6586 C   0  0  0  0  0  0  0  0  0  0  0  0
  -23.3850  -19.3952   22.2919 C   0  0  0  0  0  0  0  0  0  0  0  0
  -30.7669  -23.1983   24.0621 C   0  0  0  0  0  0  0  0  0  0  0  0
  -31.2604  -23.3777   21.3222 C   0  0  0  0  0  0  0  0  0  0  0  0
  -20.3083  -26.9470   19.1545 C   0  0  0  0  0  0  0  0  0  0  0  0
  -20.7317  -25.4387   20.9938 C   0  0  0  0  0  0  0  0  0  0  0  0
  -23.4846  -20.2156   23.4147 C   0  0  0  0  0  0  0  0  0  0  0  0
  -17.4715  -26.0385   21.6509 C   0  0  0  0  0  0  0  0  0  0  0  0
  -16.6684  -25.7640   22.7578 C   0  0  0  0  0  0  0  0  0  0  0  0
  -25.8894  -20.1641   23.2315 C   0  0  0  0  0  0  0  0  0  0  0  0
  -16.7477  -23.4074   22.2309 C   0  0  0  0  0  0  0  0  0  0  0  0
  -22.3591  -27.1292   20.4186 C   0  0  0  0  0  0  0  0  0  0  0  0
  -23.8762  -28.8720   21.4996 C   0  0  0  0  0  0  0  0  0  0  0  0
  -23.9734  -11.7485   20.2965 C   0  0  0  0  0  0  0  0  0  0  0  0
  -24.5390  -18.9435   21.6357 C   0  0  0  0  0  0  0  0  0  0  0  0
  -23.9617  -12.8997   21.1069 C   0  0  0  0  0  0  0  0  0  0  0  0
  -25.8016  -19.3402   22.0990 C   0  0  0  0  0  0  0  0  0  0  0  0
  -29.9774  -24.0261   23.2640 C   0  0  0  0  0  0  0  0  0  0  0  0
  -30.2241  -24.1158   21.8940 C   0  0  0  0  0  0  0  0  0  0  0  0
  -19.9069  -25.8808   19.9594 C   0  0  0  0  0  0  0  0  0  0  0  0
  -24.7370  -20.5978   23.8864 C   0  0  0  0  0  0  0  0  0  0  0  0
  -17.9126  -24.9975   20.8339 C   0  0  0  0  0  0  0  0  0  0  0  0
  -16.3065  -24.4485   23.0478 C   0  0  0  0  0  0  0  0  0  0  0  0
  -17.5508  -23.6820   21.1239 C   0  0  0  0  0  0  0  0  0  0  0  0
  -23.6260  -27.7732   20.6559 C   0  0  0  0  0  0  0  0  0  0  0  0
  -25.2251  -29.0993   21.3765 C   0  0  0  0  0  0  0  0  0  0  0  0
  -22.9703  -29.6203   22.3213 C   0  0  0  0  0  0  0  0  0  0  0  0
  -25.8211  -16.0925   21.0596 C   0  0  0  0  0  0  0  0  0  0  0  0
  -27.9233  -17.8263   19.2999 C   0  0  0  0  0  0  0  0  0  0  0  0
  -25.3599  -24.2941   25.1274 C   0  0  0  0  0  0  0  0  0  0  0  0
  -28.5684  -24.7804   25.2114 C   0  0  0  0  0  0  0  0  0  0  0  0
  -29.4293  -20.8337   18.7215 C   0  0  0  0  0  0  0  0  0  0  0  0
  -29.8361  -25.5993   19.8952 C   0  0  0  0  0  0  0  0  0  0  0  0
  -25.2524  -11.2013   19.7139 C   0  0  0  0  0  0  0  0  0  0  0  0
  -24.4139  -18.0808   20.4099 C   0  0  0  0  0  0  0  0  0  0  0  0
  -27.0707  -18.8989   21.4183 C   0  0  0  0  0  0  0  0  0  0  0  0
  -26.3989  -12.2092   19.7076 C   0  0  0  0  0  0  0  0  0  0  0  0
  -28.8377  -28.6065   18.2715 C   0  0  0  0  0  0  0  0  0  0  0  0
  -26.5001  -12.9111   21.0581 C   0  0  0  0  0  0  0  0  0  0  0  0
  -27.4128  -28.8374   18.7801 C   0  0  0  0  0  0  0  0  0  0  0  0
  -29.1316  -27.1221   18.0623 C   0  0  0  0  0  0  0  0  0  0  0  0
  -27.4310  -26.4959   19.7311 C   0  0  0  0  0  0  0  0  0  0  0  0
  -25.2208  -13.6976   21.3683 C   0  0  1  0  0  0  0  0  0  0  0  0
  -25.6681  -17.2600   20.1263 C   0  0  1  0  0  0  0  0  0  0  0  0
  -27.1094  -27.9716   20.0187 C   0  0  2  0  0  0  0  0  0  0  0  0
  -27.7512  -26.8222   26.4229 C   0  0  0  0  0  0  0  0  0  0  0  0
  -31.1315  -21.9318   17.2404 C   0  0  0  0  0  0  0  0  0  0  0  0
  -30.1614  -16.4845   20.8812 C   0  0  0  0  0  0  0  0  0  0  0  0
  -31.7166  -18.2649   20.0569 C   0  0  0  0  0  0  0  0  0  0  0  0
  -30.6133  -16.7256   18.4334 C   0  0  0  0  0  0  0  0  0  0  0  0
  -27.4356  -22.7385   17.6466 C   0  0  0  0  0  0  0  0  0  0  0  0
  -24.3115  -23.5445   25.9346 C   0  0  0  0  0  0  0  0  0  0  0  0
  -23.7718  -22.3187   25.2141 C   0  0  0  0  0  0  0  0  0  1  0  0
  -29.2388  -18.5129   19.5773 C   0  0  1  0  0  0  0  0  0  0  0  0
  -27.3826  -25.7135   25.4494 C   0  0  2  0  0  0  0  0  0  0  0  0
  -29.6575  -21.6162   17.4409 C   0  0  2  0  0  0  0  0  0  0  0  0
  -30.4089  -17.5039   19.7514 C   0  0  0  0  0  0  0  0  0  0  0  0
  -24.7276  -27.3332   20.0420 N   0  0  0  0  0  0  0  0  0  0  0  0
  -25.6830  -28.1597   20.5004 N   0  0  0  0  0  0  0  0  0  0  0  0
  -26.8962  -18.0512   20.2274 N   0  0  0  0  0  0  0  0  0  0  0  0
  -28.8247  -26.3655   19.2781 N   0  0  0  0  0  0  0  0  0  0  0  0
  -26.0524  -30.0093   21.9332 N   0  0  0  0  0  0  0  0  0  0  0  0
  -21.6177  -29.2529   22.3304 N   0  0  0  0  0  0  0  0  0  0  0  0
  -28.9319  -24.7650   23.8673 N   0  0  0  0  0  0  0  0  0  0  0  0
  -29.4360  -24.9496   21.0625 N   0  0  0  0  0  0  0  0  0  0  0  0
  -25.1976  -14.9387   20.6242 N   0  0  0  0  0  0  0  0  0  0  0  0
  -29.4339  -19.4733   18.4965 N   0  0  0  0  0  0  0  0  0  0  0  0
  -26.2779  -24.9287   25.9518 N   0  0  0  0  0  0  0  0  0  0  0  0
  -28.9025  -22.9006   17.4772 N   0  3  0  0  0  0  0  0  0  0  0  0
  -23.3460  -30.5964   23.0138 O   0  0  0  0  0  0  0  0  0  0  0  0
  -26.4588  -16.2279   22.0972 O   0  0  0  0  0  0  0  0  0  0  0  0
  -27.8090  -17.1223   18.2934 O   0  0  0  0  0  0  0  0  0  0  0  0
  -25.3727  -24.3207   23.8998 O   0  0  0  0  0  0  0  0  0  0  0  0
  -29.1145  -24.1805   26.1330 O   0  0  0  0  0  0  0  0  0  0  0  0
  -29.2672  -21.3749   19.8130 O   0  0  0  0  0  0  0  0  0  0  0  0
  -30.9807  -25.5469   19.4380 O   0  0  0  0  0  0  0  0  0  0  0  0
  -18.7105  -25.2716   19.7357 O   0  0  0  0  0  0  0  0  0  0  0  0
  -24.8371  -21.3980   24.9826 O   0  0  0  0  0  0  0  0  0  1  0  0
  -15.5366  -24.1848   24.1117 F   0  0  0  0  0  0  0  0  0  0  0  0
  -17.9725  -22.6776   20.3434 F   0  0  0  0  0  0  0  0  0  0  0  0
  1  2  1  0  0  0  0
  1  7  2  0  0  0  0
  2  8  2  0  0  0  0
  3  4  1  0  0  0  0
  3 10  2  0  0  0  0
  4 11  2  0  0  0  0
  5 12  2  0  0  0  0
  5 19  1  0  0  0  0
  6 13  1  0  0  0  0
  6 19  2  0  0  0  0
  7 21  1  0  0  0  0
  8 23  1  0  0  0  0
  9 14  2  0  0  0  0
  9 22  1  0  0  0  0
 10 25  1  0  0  0  0
 11 26  1  0  0  0  0
 12 27  1  0  0  0  0
 13 27  2  0  0  0  0
 14 28  1  0  0  0  0
 15 16  2  0  0  0  0
 15 29  1  0  0  0  0
 16 30  1  0  0  0  0
 17 24  1  0  0  0  0
 17 28  2  0  0  0  0
 18 30  2  0  0  0  0
 18 31  1  0  0  0  0
 19 32  1  0  0  0  0
 20 32  1  0  0  0  0
 20 33  2  0  0  0  0
 20 34  1  0  0  0  0
 21 23  2  0  0  0  0
 21 41  1  0  0  0  0
 22 24  2  0  0  0  0
 22 42  1  0  0  0  0
 23 50  1  0  0  0  0
 24 43  1  0  0  0  0
 25 26  2  0  0  0  0
 25 71  1  0  0  0  0
 26 72  1  0  0  0  0
 27 84  1  0  0  0  0
 28 85  1  0  0  0  0
 29 31  2  0  0  0  0
 29 84  1  0  0  0  0
 30 86  1  0  0  0  0
 31 87  1  0  0  0  0
 32 65  2  0  0  0  0
 33 66  1  0  0  0  0
 33 69  1  0  0  0  0
 34 70  1  0  0  0  0
 34 77  2  0  0  0  0
 35 51  1  0  0  0  0
 35 73  1  0  0  0  0
 35 78  2  0  0  0  0
 36 61  1  0  0  0  0
 36 67  1  0  0  0  0
 36 79  2  0  0  0  0
 37 59  1  0  0  0  0
 37 75  1  0  0  0  0
 37 80  2  0  0  0  0
 38 62  1  0  0  0  0
 38 71  1  0  0  0  0
 38 81  2  0  0  0  0
 39 63  1  0  0  0  0
 39 74  1  0  0  0  0
 39 82  2  0  0  0  0
 40 68  1  0  0  0  0
 40 72  1  0  0  0  0
 40 83  2  0  0  0  0
 41 44  1  0  0  0  0
 42 51  1  0  0  0  0
 43 67  1  0  0  0  0
 44 46  1  0  0  0  0
 45 47  1  0  0  0  0
 45 48  1  0  0  0  0
 46 50  1  0  0  0  0
 47 52  1  0  0  0  0
 48 68  1  0  0  0  0
 49 52  1  0  0  0  0
 49 68  1  0  0  0  0
 50 73  1  0  0  0  0
 51 67  1  0  0  0  0
 52 66  1  0  0  0  0
 53 62  1  0  0  0  0
 54 63  1  0  0  0  0
 55 64  1  0  0  0  0
 56 64  1  0  0  0  0
 57 64  1  0  0  0  0
 58 76  1  0  0  0  0
 59 60  1  0  0  0  0
 60 85  1  0  0  0  0
 61 64  1  0  0  0  0
 61 74  1  0  0  0  0
 62 75  1  0  0  0  0
 63 76  1  0  0  0  0
 65 66  1  0  0  0  0
M  CHG  1  76   1
M  ISO  4  40 100  60 101  72 100  85 101
M  END
> <Batch ID>
0057

> <Smiles>
CNC(C)C(=O)NC(C(=O)N1Cc2cc([101O:1][101CH2:1]CC(=O)NC(C)C(=O)Nc3ccccc3[100NH:0][100C:0](=O)N3CCCC(n4nc(-c5ccc(Oc6ccc(F)cc6F)cc5)c(C(N)=O)c4N)C3)ccc2CC1C(=O)NC1CCCc2ccccc21)C(C)(C)C

> <Shape>
0.208

> <Color>
0.080

> <Negative vol penalty>
0.000

$$$$

  -OEChem-04042322553D

 84 92  0     1  0  0  0  0  0999 V2000
  -31.7922  -32.6260   23.4921 C   0  0  0  0  0  0  0  0  0  0  0  0
  -31.6624  -31.5512   22.6184 C   0  0  0  0  0  0  0  0  0  0  0  0
  -21.6704  -22.0261   19.4181 C   0  0  0  0  0  0  0  0  0  0  0  0
  -23.9532   -9.7698   21.9967 C   0  0  0  0  0  0  0  0  0  0  0  0
  -22.1949  -10.3701   20.4523 C   0  0  0  0  0  0  0  0  0  0  0  0
  -30.9276  -32.7477   24.5791 C   0  0  0  0  0  0  0  0  0  0  0  0
  -30.6684  -30.5968   22.8319 C   0  0  0  0  0  0  0  0  0  0  0  0
  -27.5123  -27.5492   18.5591 C   0  0  0  0  0  0  0  0  0  0  0  0
  -22.1533  -21.9888   18.1100 C   0  0  0  0  0  0  0  0  0  0  0  0
  -21.9778  -20.9940   20.3048 C   0  0  0  0  0  0  0  0  0  0  0  0
  -23.4695   -8.4622   22.0391 C   0  0  0  0  0  0  0  0  0  0  0  0
  -21.7112   -9.0624   20.4948 C   0  0  0  0  0  0  0  0  0  0  0  0
  -27.6579  -26.2727   18.0175 C   0  0  0  0  0  0  0  0  0  0  0  0
  -20.9549   -6.7849   23.5517 C   0  0  0  0  0  0  0  0  0  0  0  0
  -20.8484   -6.1744   24.8013 C   0  0  0  0  0  0  0  0  0  0  0  0
  -26.0145  -25.4329   19.5709 C   0  0  0  0  0  0  0  0  0  0  0  0
  -22.3746   -4.4436   24.0856 C   0  0  0  0  0  0  0  0  0  0  0  0
  -23.3158  -10.7238   21.2033 C   0  0  0  0  0  0  0  0  0  0  0  0
  -24.7732  -12.5987   20.2715 C   0  0  0  0  0  0  0  0  0  0  0  0
  -29.9164  -31.7995   24.8005 C   0  0  0  0  0  0  0  0  0  0  0  0
  -26.6232  -27.7753   19.6196 C   0  0  0  0  0  0  0  0  0  0  0  0
  -29.7903  -30.7051   23.9236 C   0  0  0  0  0  0  0  0  0  0  0  0
  -25.8575  -26.7136   20.1224 C   0  0  0  0  0  0  0  0  0  0  0  0
  -22.9435  -20.9194   17.6886 C   0  0  0  0  0  0  0  0  0  0  0  0
  -23.2509  -19.8874   18.5752 C   0  0  0  0  0  0  0  0  0  0  0  0
  -22.7681  -19.9247   19.8833 C   0  0  0  0  0  0  0  0  0  0  0  0
  -22.3485   -8.1085   21.2882 C   0  0  0  0  0  0  0  0  0  0  0  0
  -26.9111  -25.2138   18.5254 C   0  0  0  0  0  0  0  0  0  0  0  0
  -21.7712   -6.2248   22.5690 C   0  0  0  0  0  0  0  0  0  0  0  0
  -21.5582   -5.0037   25.0683 C   0  0  0  0  0  0  0  0  0  0  0  0
  -22.4810   -5.0541   22.8360 C   0  0  0  0  0  0  0  0  0  0  0  0
  -23.8146  -12.0748   21.1595 C   0  0  0  0  0  0  0  0  0  0  0  0
  -24.8984  -13.9160   20.6395 C   0  0  0  0  0  0  0  0  0  0  0  0
  -25.4864  -11.9524   19.2088 C   0  0  0  0  0  0  0  0  0  0  0  0
  -26.9212  -28.7744   22.6224 C   0  0  0  0  0  0  0  0  0  0  0  0
  -23.6788  -28.7018   22.5573 C   0  0  0  0  0  0  0  0  0  0  0  0
  -25.3128  -22.5491   16.0889 C   0  0  0  0  0  0  0  0  0  0  0  0
  -20.8369  -27.4280   21.1618 C   0  0  0  0  0  0  0  0  0  0  0  0
  -22.6591  -18.7911   22.1303 C   0  0  0  0  0  0  0  0  0  0  0  0
  -29.0358  -31.9477   26.0159 C   0  0  0  0  0  0  0  0  0  0  0  0
  -26.4581  -29.1634   20.1749 C   0  0  0  0  0  0  0  0  0  0  0  0
  -24.8744  -26.9078   21.2467 C   0  0  0  0  0  0  0  0  0  0  0  0
  -27.7703  -31.0959   25.9587 C   0  0  0  0  0  0  0  0  0  0  0  0
  -23.1566  -16.3807   24.7032 C   0  0  0  0  0  0  0  0  0  0  0  0
  -28.1031  -29.6745   25.5163 C   0  0  0  0  0  0  0  0  0  0  0  0
  -23.4510  -15.0887   23.9376 C   0  0  0  0  0  0  0  0  0  0  0  0
  -22.1114  -17.2368   23.9902 C   0  0  0  0  0  0  0  0  0  0  0  0
  -22.6997  -16.2386   21.8162 C   0  0  0  0  0  0  0  0  0  0  0  0
  -28.7088  -29.6627   24.1077 C   0  0  1  0  0  0  0  0  0  0  0  0
  -25.9011  -29.1765   21.5951 C   0  0  1  0  0  0  0  0  0  0  0  0
  -23.7943  -15.3736   22.4623 C   0  0  2  0  0  0  0  0  0  0  0  0
  -24.0994  -18.7422   18.1184 C   0  0  0  0  0  0  0  0  0  0  0  0
  -18.3361  -27.5295   21.3445 C   0  0  0  0  0  0  0  0  0  0  0  0
  -23.7927  -26.9520   25.0544 C   0  0  0  0  0  0  0  0  0  0  0  0
  -21.4075  -26.3178   24.6339 C   0  0  0  0  0  0  0  0  0  0  0  0
  -22.0024  -28.6980   25.0847 C   0  0  0  0  0  0  0  0  0  0  0  0
  -20.5602  -28.4464   18.3968 C   0  0  0  0  0  0  0  0  0  0  0  0
  -23.4502  -20.9042   16.2753 C   0  0  0  0  0  0  0  0  0  0  0  0
  -26.8315  -22.6008   16.0303 C   0  0  0  0  0  0  0  0  0  0  0  0
  -27.4054  -23.8801   16.6193 C   0  0  0  0  0  0  0  0  0  1  0  0
  -22.6264  -27.6638   22.8637 C   0  0  1  0  0  0  0  0  0  0  0  0
  -19.5704  -28.1006   20.6638 C   0  0  2  0  0  0  0  0  0  0  0  0
  -22.4771  -27.4035   24.3893 C   0  0  0  0  0  0  0  0  0  0  0  0
  -23.3632  -12.9850   22.0265 N   0  0  0  0  0  0  0  0  0  0  0  0
  -24.0410  -14.0941   21.6852 N   0  0  0  0  0  0  0  0  0  0  0  0
  -24.7533  -28.2822   21.7603 N   0  0  0  0  0  0  0  0  0  0  0  0
  -22.5057  -17.4691   22.5991 N   0  0  0  0  0  0  0  0  0  0  0  0
  -25.6574  -14.9278   20.1676 N   0  0  0  0  0  0  0  0  0  0  0  0
  -25.2373  -10.5948   18.9658 N   0  0  0  0  0  0  0  0  0  0  0  0
  -23.0685  -18.8875   20.8008 N   0  0  0  0  0  0  0  0  0  0  0  0
  -27.6727  -29.8262   23.1106 N   0  0  0  0  0  0  0  0  0  0  0  0
  -24.8527  -21.2449   16.1999 N   0  0  0  0  0  0  0  0  0  0  0  0
  -21.4027  -28.1187   22.2125 N   0  0  0  0  0  0  0  0  0  0  0  0
  -19.4265  -27.9097   19.1928 N   0  3  0  0  0  0  0  0  0  0  0  0
  -26.3320  -12.5567   18.5064 O   0  0  0  0  0  0  0  0  0  0  0  0
  -27.0182  -27.5973   22.9491 O   0  0  0  0  0  0  0  0  0  0  0  0
  -23.5486  -29.8447   23.0026 O   0  0  0  0  0  0  0  0  0  0  0  0
  -24.6025  -23.5497   16.0422 O   0  0  0  0  0  0  0  0  0  0  0  0
  -21.2780  -26.3914   20.6704 O   0  0  0  0  0  0  0  0  0  0  0  0
  -22.4697  -19.7654   22.8629 O   0  0  0  0  0  0  0  0  0  0  0  0
  -21.8764   -6.8326   21.3292 O   0  0  0  0  0  0  0  0  0  0  0  0
  -27.0517  -23.9667   17.9991 O   0  0  0  0  0  0  0  0  0  1  0  0
  -21.4571   -4.4184   26.2688 F   0  0  0  0  0  0  0  0  0  0  0  0
  -23.2677   -4.5119   21.8964 F   0  0  0  0  0  0  0  0  0  0  0  0
  1  2  1  0  0  0  0
  1  6  2  0  0  0  0
  2  7  2  0  0  0  0
  3  9  2  0  0  0  0
  3 10  1  0  0  0  0
  4 11  2  0  0  0  0
  4 18  1  0  0  0  0
  5 12  1  0  0  0  0
  5 18  2  0  0  0  0
  6 20  1  0  0  0  0
  7 22  1  0  0  0  0
  8 13  2  0  0  0  0
  8 21  1  0  0  0  0
  9 24  1  0  0  0  0
 10 26  2  0  0  0  0
 11 27  1  0  0  0  0
 12 27  2  0  0  0  0
 13 28  1  0  0  0  0
 14 15  2  0  0  0  0
 14 29  1  0  0  0  0
 15 30  1  0  0  0  0
 16 23  1  0  0  0  0
 16 28  2  0  0  0  0
 17 30  2  0  0  0  0
 17 31  1  0  0  0  0
 18 32  1  0  0  0  0
 19 32  1  0  0  0  0
 19 33  2  0  0  0  0
 19 34  1  0  0  0  0
 20 22  2  0  0  0  0
 20 40  1  0  0  0  0
 21 23  2  0  0  0  0
 21 41  1  0  0  0  0
 22 49  1  0  0  0  0
 23 42  1  0  0  0  0
 24 25  2  0  0  0  0
 24 58  1  0  0  0  0
 25 26  1  0  0  0  0
 25 52  1  0  0  0  0
 26 70  1  0  0  0  0
 27 81  1  0  0  0  0
 28 82  1  0  0  0  0
 29 31  2  0  0  0  0
 29 81  1  0  0  0  0
 30 83  1  0  0  0  0
 31 84  1  0  0  0  0
 32 64  2  0  0  0  0
 33 65  1  0  0  0  0
 33 68  1  0  0  0  0
 34 69  1  0  0  0  0
 34 75  2  0  0  0  0
 35 50  1  0  0  0  0
 35 71  1  0  0  0  0
 35 76  2  0  0  0  0
 36 61  1  0  0  0  0
 36 66  1  0  0  0  0
 36 77  2  0  0  0  0
 37 59  1  0  0  0  0
 37 72  1  0  0  0  0
 37 78  2  0  0  0  0
 38 62  1  0  0  0  0
 38 73  1  0  0  0  0
 38 79  2  0  0  0  0
 39 67  1  0  0  0  0
 39 70  1  0  0  0  0
 39 80  2  0  0  0  0
 40 43  1  0  0  0  0
 41 50  1  0  0  0  0
 42 66  1  0  0  0  0
 43 45  1  0  0  0  0
 44 46  1  0  0  0  0
 44 47  1  0  0  0  0
 45 49  1  0  0  0  0
 46 51  1  0  0  0  0
 47 67  1  0  0  0  0
 48 51  1  0  0  0  0
 48 67  1  0  0  0  0
 49 71  1  0  0  0  0
 50 66  1  0  0  0  0
 51 65  1  0  0  0  0
 53 62  1  0  0  0  0
 54 63  1  0  0  0  0
 55 63  1  0  0  0  0
 56 63  1  0  0  0  0
 57 74  1  0  0  0  0
 58 72  1  0  0  0  0
 59 60  1  0  0  0  0
 60 82  1  0  0  0  0
 61 63  1  0  0  0  0
 61 73  1  0  0  0  0
 62 74  1  0  0  0  0
 64 65  1  0  0  0  0
M  CHG  1  74   1
M  ISO  4  39 100  60 101  70 100  82 101
M  END
> <Batch ID>
0057

> <Smiles>
CNC(C)C(=O)NC(C(=O)N1Cc2cc([101O:1][101CH2:1]CC(=O)NCc3cccc([100NH:0][100C:0](=O)N4CCCC(n5nc(-c6ccc(Oc7ccc(F)cc7F)cc6)c(C(N)=O)c5N)C4)c3C)ccc2CC1C(=O)NC1CCCc2ccccc21)C(C)(C)C

> <Shape>
0.204

> <Color>
0.111

> <Negative vol penalty>
0.000

$$$$

  -OEChem-04042322553D

 84 92  0     1  0  0  0  0  0999 V2000
  -23.8190  -36.1277   15.7779 C   0  0  0  0  0  0  0  0  0  0  0  0
  -24.4156  -34.8711   15.7960 C   0  0  0  0  0  0  0  0  0  0  0  0
  -24.5729   -8.2685   21.3941 C   0  0  0  0  0  0  0  0  0  0  0  0
  -23.8279  -10.1560   22.7053 C   0  0  0  0  0  0  0  0  0  0  0  0
  -23.8338  -36.9218   16.9238 C   0  0  0  0  0  0  0  0  0  0  0  0
  -25.0284  -34.4083   16.9600 C   0  0  0  0  0  0  0  0  0  0  0  0
  -25.2230  -28.6262   18.9688 C   0  0  0  0  0  0  0  0  0  0  0  0
  -29.4200  -19.1243   20.8289 C   0  0  0  0  0  0  0  0  0  0  0  0
  -29.6249  -17.7456   20.7755 C   0  0  0  0  0  0  0  0  0  0  0  0
  -24.0784   -7.3984   22.3656 C   0  0  0  0  0  0  0  0  0  0  0  0
  -23.3334   -9.2859   23.6769 C   0  0  0  0  0  0  0  0  0  0  0  0
  -26.2006  -27.6359   18.8833 C   0  0  0  0  0  0  0  0  0  0  0  0
  -21.0779   -6.1444   23.2914 C   0  0  0  0  0  0  0  0  0  0  0  0
  -20.3447   -5.0394   22.8592 C   0  0  0  0  0  0  0  0  0  0  0  0
  -26.9908  -28.2346   21.0825 C   0  0  0  0  0  0  0  0  0  0  0  0
  -27.5897  -18.7925   22.3707 C   0  0  0  0  0  0  0  0  0  0  0  0
  -21.9541   -3.5658   23.8962 C   0  0  0  0  0  0  0  0  0  0  0  0
  -24.4478   -9.6474   21.5639 C   0  0  0  0  0  0  0  0  0  0  0  0
  -24.2702  -11.0524   19.4422 C   0  0  0  0  0  0  0  0  0  0  0  0
  -24.4386  -36.4645   18.1052 C   0  0  0  0  0  0  0  0  0  0  0  0
  -25.1287  -29.4367   20.1091 C   0  0  0  0  0  0  0  0  0  0  0  0
  -25.0525  -35.1975   18.1224 C   0  0  0  0  0  0  0  0  0  0  0  0
  -26.0094  -29.2328   21.1810 C   0  0  0  0  0  0  0  0  0  0  0  0
  -27.7945  -17.4138   22.3172 C   0  0  0  0  0  0  0  0  0  0  0  0
  -28.4024  -19.6478   21.6266 C   0  0  0  0  0  0  0  0  0  0  0  0
  -28.8121  -16.8904   21.5196 C   0  0  0  0  0  0  0  0  0  0  0  0
  -23.4586   -7.9071   23.5070 C   0  0  0  0  0  0  0  0  0  0  0  0
  -27.0866  -27.4419   19.9390 C   0  0  0  0  0  0  0  0  0  0  0  0
  -22.2493   -5.9601   24.0260 C   0  0  0  0  0  0  0  0  0  0  0  0
  -20.7827   -3.7501   23.1616 C   0  0  0  0  0  0  0  0  0  0  0  0
  -22.6874   -4.6708   24.3284 C   0  0  0  0  0  0  0  0  0  0  0  0
  -24.9589  -10.5468   20.5610 C   0  0  0  0  0  0  0  0  0  0  0  0
  -25.1869  -11.8554   18.8087 C   0  0  0  0  0  0  0  0  0  0  0  0
  -28.3831  -23.3906   21.3381 C   0  0  0  0  0  0  0  0  0  0  0  0
  -28.9350  -24.4836   20.7934 C   0  0  0  0  0  0  0  0  0  0  0  0
  -22.9222  -10.8174   19.0138 C   0  0  0  0  0  0  0  0  0  0  0  0
  -28.9110  -22.0323   21.0126 C   0  0  0  0  0  0  0  0  0  0  0  0
  -25.4100  -32.5516   20.6767 C   0  0  0  0  0  0  0  0  0  0  0  0
  -24.4547  -31.6987   23.6570 C   0  0  0  0  0  0  0  0  0  0  0  0
  -24.2074  -29.2622   26.0338 C   0  0  0  0  0  0  0  0  0  0  0  0
  -30.0100  -14.8287   20.7067 C   0  0  0  0  0  0  0  0  0  0  0  0
  -24.4709  -37.3780   19.3048 C   0  0  0  0  0  0  0  0  0  0  0  0
  -24.0514  -30.4828   20.1969 C   0  0  0  0  0  0  0  0  0  0  0  0
  -25.9372  -30.0628   22.4357 C   0  0  0  0  0  0  0  0  0  0  0  0
  -24.8131  -36.6602   20.6079 C   0  0  0  0  0  0  0  0  0  0  0  0
  -29.9038  -12.3546   18.1483 C   0  0  0  0  0  0  0  0  0  0  0  0
  -26.0115  -35.7374   20.4103 C   0  0  0  0  0  0  0  0  0  0  0  0
  -28.5583  -11.6603   18.3711 C   0  0  0  0  0  0  0  0  0  0  0  0
  -30.5650  -12.7469   19.4684 C   0  0  0  0  0  0  0  0  0  0  0  0
  -28.3770  -12.8446   20.5963 C   0  0  0  0  0  0  0  0  0  0  0  0
  -25.7055  -34.6502   19.3730 C   0  0  1  0  0  0  0  0  0  0  0  0
  -24.3754  -31.5921   21.1929 C   0  0  1  0  0  0  0  0  0  0  0  0
  -27.6425  -12.4887   19.2934 C   0  0  2  0  0  0  0  0  0  0  0  0
  -26.9105  -16.5212   23.1262 C   0  0  0  0  0  0  0  0  0  0  0  0
  -23.4146  -28.8753   28.3831 C   0  0  0  0  0  0  0  0  0  0  0  0
  -26.9242  -33.1379   24.7248 C   0  0  0  0  0  0  0  0  0  0  0  0
  -26.6009  -31.9345   26.8962 C   0  0  0  0  0  0  0  0  0  0  0  0
  -24.8446  -33.4994   26.0661 C   0  0  0  0  0  0  0  0  0  0  0  0
  -22.2374  -27.2344   25.1585 C   0  0  0  0  0  0  0  0  0  0  0  0
  -28.4595  -25.8713   21.0810 C   0  0  0  0  0  0  0  0  0  1  0  0
  -25.1564  -31.2666   24.9218 C   0  0  1  0  0  0  0  0  0  0  0  0
  -23.0472  -28.8222   26.9083 C   0  0  2  0  0  0  0  0  0  0  0  0
  -25.8844  -32.4451   25.6279 C   0  0  0  0  0  0  0  0  0  0  0  0
  -26.2162  -10.9911   20.6366 N   0  0  0  0  0  0  0  0  0  0  0  0
  -26.3248  -11.7844   19.5572 N   0  0  0  0  0  0  0  0  0  0  0  0
  -24.8706  -31.0771   22.4710 N   0  0  0  0  0  0  0  0  0  0  0  0
  -29.6402  -13.5331   20.2879 N   0  0  0  0  0  0  0  0  0  0  0  0
  -25.1226  -12.6082   17.6899 N   0  0  0  0  0  0  0  0  0  0  0  0
  -22.1163   -9.9653   19.7812 N   0  0  0  0  0  0  0  0  0  0  0  0
  -28.1963  -21.0481   21.6829 N   0  0  0  0  0  0  0  0  0  0  0  0
  -29.0373  -15.4930   21.4530 N   0  0  0  0  0  0  0  0  0  0  0  0
  -24.8872  -33.6097   19.9579 N   0  0  0  0  0  0  0  0  0  0  0  0
  -24.1468  -30.6090   25.7445 N   0  0  0  0  0  0  0  0  0  0  0  0
  -22.6466  -27.4263   26.5737 N   0  3  0  0  0  0  0  0  0  0  0  0
  -22.4516  -11.3343   17.9723 O   0  0  0  0  0  0  0  0  0  0  0  0
  -29.8548  -21.8834   20.2454 O   0  0  0  0  0  0  0  0  0  0  0  0
  -26.5948  -32.3480   20.9142 O   0  0  0  0  0  0  0  0  0  0  0  0
  -23.5652  -32.5511   23.7199 O   0  0  0  0  0  0  0  0  0  0  0  0
  -25.0821  -28.4893   25.6491 O   0  0  0  0  0  0  0  0  0  0  0  0
  -31.0979  -15.3237   20.4009 O   0  0  0  0  0  0  0  0  0  0  0  0
  -22.9757   -7.0583   24.4551 O   0  0  0  0  0  0  0  0  0  0  0  0
  -28.0422  -26.4765   19.8579 O   0  0  0  0  0  0  0  0  0  1  0  0
  -20.0777   -2.6890   22.7477 F   0  0  0  0  0  0  0  0  0  0  0  0
  -23.8113   -4.4876   25.0348 F   0  0  0  0  0  0  0  0  0  0  0  0
  1  2  1  0  0  0  0
  1  5  2  0  0  0  0
  2  6  2  0  0  0  0
  3 10  2  0  0  0  0
  3 18  1  0  0  0  0
  4 11  1  0  0  0  0
  4 18  2  0  0  0  0
  5 20  1  0  0  0  0
  6 22  1  0  0  0  0
  7 12  2  0  0  0  0
  7 21  1  0  0  0  0
  8  9  2  0  0  0  0
  8 25  1  0  0  0  0
  9 26  1  0  0  0  0
 10 27  1  0  0  0  0
 11 27  2  0  0  0  0
 12 28  1  0  0  0  0
 13 14  2  0  0  0  0
 13 29  1  0  0  0  0
 14 30  1  0  0  0  0
 15 23  1  0  0  0  0
 15 28  2  0  0  0  0
 16 24  1  0  0  0  0
 16 25  2  0  0  0  0
 17 30  2  0  0  0  0
 17 31  1  0  0  0  0
 18 32  1  0  0  0  0
 19 32  1  0  0  0  0
 19 33  2  0  0  0  0
 19 36  1  0  0  0  0
 20 22  2  0  0  0  0
 20 42  1  0  0  0  0
 21 23  2  0  0  0  0
 21 43  1  0  0  0  0
 22 51  1  0  0  0  0
 23 44  1  0  0  0  0
 24 26  2  0  0  0  0
 24 54  1  0  0  0  0
 25 70  1  0  0  0  0
 26 71  1  0  0  0  0
 27 81  1  0  0  0  0
 28 82  1  0  0  0  0
 29 31  2  0  0  0  0
 29 81  1  0  0  0  0
 30 83  1  0  0  0  0
 31 84  1  0  0  0  0
 32 64  2  0  0  0  0
 33 65  1  0  0  0  0
 33 68  1  0  0  0  0
 34 35  2  0  0  0  0
 34 37  1  0  0  0  0
 35 60  1  0  0  0  0
 36 69  1  0  0  0  0
 36 75  2  0  0  0  0
 37 70  1  0  0  0  0
 37 76  2  0  0  0  0
 38 52  1  0  0  0  0
 38 72  1  0  0  0  0
 38 77  2  0  0  0  0
 39 61  1  0  0  0  0
 39 66  1  0  0  0  0
 39 78  2  0  0  0  0
 40 62  1  0  0  0  0
 40 73  1  0  0  0  0
 40 79  2  0  0  0  0
 41 67  1  0  0  0  0
 41 71  1  0  0  0  0
 41 80  2  0  0  0  0
 42 45  1  0  0  0  0
 43 52  1  0  0  0  0
 44 66  1  0  0  0  0
 45 47  1  0  0  0  0
 46 48  1  0  0  0  0
 46 49  1  0  0  0  0
 47 51  1  0  0  0  0
 48 53  1  0  0  0  0
 49 67  1  0  0  0  0
 50 53  1  0  0  0  0
 50 67  1  0  0  0  0
 51 72  1  0  0  0  0
 52 66  1  0  0  0  0
 53 65  1  0  0  0  0
 55 62  1  0  0  0  0
 56 63  1  0  0  0  0
 57 63  1  0  0  0  0
 58 63  1  0  0  0  0
 59 74  1  0  0  0  0
 60 82  1  0  0  0  0
 61 63  1  0  0  0  0
 61 73  1  0  0  0  0
 62 74  1  0  0  0  0
 64 65  1  0  0  0  0
M  CHG  1  74   1
M  ISO  4  41 100  60 101  71 100  82 101
M  END
> <Batch ID>
0057

> <Smiles>
CNC(C)C(=O)NC(C(=O)N1Cc2cc([101O:1][101CH2:1]C=CC(=O)Nc3ccc([100NH:0][100C:0](=O)N4CCCC(n5nc(-c6ccc(Oc7ccc(F)cc7F)cc6)c(C(N)=O)c5N)C4)c(C)c3)ccc2CC1C(=O)NC1CCCc2ccccc21)C(C)(C)C

> <Shape>
0.297

> <Color>
0.131

> <Negative vol penalty>
0.000

$$$$

  -OEChem-04042322553D

 89 98  0     1  0  0  0  0  0999 V2000
  -26.7865  -38.1119   21.0851 C   0  0  0  0  0  0  0  0  0  0  0  0
  -27.3668  -37.0690   20.3702 C   0  0  0  0  0  0  0  0  0  0  0  0
  -26.8831  -19.3376   24.4346 C   0  0  0  0  0  0  0  0  0  0  0  0
  -23.7749   -9.8757   22.4921 C   0  0  0  0  0  0  0  0  0  0  0  0
  -24.6359   -9.3051   20.3080 C   0  0  0  0  0  0  0  0  0  0  0  0
  -26.1622  -37.8565   22.3053 C   0  0  0  0  0  0  0  0  0  0  0  0
  -27.3240  -35.7701   20.8757 C   0  0  0  0  0  0  0  0  0  0  0  0
  -26.9160  -28.9509   18.7195 C   0  0  0  0  0  0  0  0  0  0  0  0
  -27.5815  -18.1575   24.1795 C   0  0  0  0  0  0  0  0  0  0  0  0
  -27.3260  -20.5422   23.8882 C   0  0  0  0  0  0  0  0  0  0  0  0
  -23.7869   -8.5274   22.8491 C   0  0  0  0  0  0  0  0  0  0  0  0
  -24.6480   -7.9568   20.6650 C   0  0  0  0  0  0  0  0  0  0  0  0
  -27.5651  -27.7283   18.8852 C   0  0  0  0  0  0  0  0  0  0  0  0
  -21.8736   -5.7927   22.3153 C   0  0  0  0  0  0  0  0  0  0  0  0
  -20.7511   -5.2866   22.9706 C   0  0  0  0  0  0  0  0  0  0  0  0
  -26.3901  -27.3932   20.9652 C   0  0  0  0  0  0  0  0  0  0  0  0
  -29.1657  -19.3865   22.8315 C   0  0  0  0  0  0  0  0  0  0  0  0
  -22.1260   -4.6923   24.8663 C   0  0  0  0  0  0  0  0  0  0  0  0
  -24.1994  -10.2646   21.2215 C   0  0  0  0  0  0  0  0  0  0  0  0
  -23.0712  -12.5149   20.8080 C   0  0  0  0  0  0  0  0  0  0  0  0
  -26.1032  -36.5523   22.8213 C   0  0  0  0  0  0  0  0  0  0  0  0
  -26.0057  -29.4098   19.6825 C   0  0  0  0  0  0  0  0  0  0  0  0
  -26.6994  -35.4972   22.1046 C   0  0  0  0  0  0  0  0  0  0  0  0
  -25.7289  -28.6209   20.8081 C   0  0  0  0  0  0  0  0  0  0  0  0
  -28.7228  -18.1819   23.3779 C   0  0  0  0  0  0  0  0  0  0  0  0
  -28.4673  -20.5666   23.0866 C   0  0  0  0  0  0  0  0  0  0  0  0
  -24.2235   -7.5679   21.9356 C   0  0  0  0  0  0  0  0  0  0  0  0
  -27.3044  -26.9505   20.0096 C   0  0  0  0  0  0  0  0  0  0  0  0
  -23.1223   -5.7486   22.9354 C   0  0  0  0  0  0  0  0  0  0  0  0
  -20.8773   -4.7364   24.2462 C   0  0  0  0  0  0  0  0  0  0  0  0
  -23.2485   -5.1984   24.2109 C   0  0  0  0  0  0  0  0  0  0  0  0
  -24.1867  -11.6572   20.8519 C   0  0  0  0  0  0  0  0  0  0  0  0
  -23.5828  -13.7229   20.4009 C   0  0  0  0  0  0  0  0  0  0  0  0
  -29.2554  -23.2523   20.6657 C   0  0  0  0  0  0  0  0  0  0  0  0
  -29.0307  -22.0024   21.1360 C   0  0  0  0  0  0  0  0  0  0  0  0
  -27.7633  -20.7672   19.7559 C   0  0  0  0  0  0  0  0  0  0  0  0
  -21.6958  -12.2441   21.1086 C   0  0  0  0  0  0  0  0  0  0  0  0
  -25.8619  -31.9324   21.6111 C   0  0  0  0  0  0  0  0  0  0  0  0
  -22.9227  -30.7470   22.3025 C   0  0  0  0  0  0  0  0  0  0  0  0
  -20.8394  -28.0460   22.4083 C   0  0  0  0  0  0  0  0  0  0  0  0
  -29.0301  -16.1796   20.7783 C   0  0  0  0  0  0  0  0  0  0  0  0
  -25.4588  -36.3326   24.1671 C   0  0  0  0  0  0  0  0  0  0  0  0
  -25.2937  -30.7185   19.4757 C   0  0  0  0  0  0  0  0  0  0  0  0
  -24.7450  -29.0590   21.8610 C   0  0  0  0  0  0  0  0  0  0  0  0
  -25.1289  -34.8698   24.4529 C   0  0  0  0  0  0  0  0  0  0  0  0
  -27.1431  -15.6012   17.8150 C   0  0  0  0  0  0  0  0  0  0  0  0
  -26.3142  -33.9766   24.1008 C   0  0  0  0  0  0  0  0  0  0  0  0
  -26.0708  -14.6022   18.2533 C   0  0  0  0  0  0  0  0  0  0  0  0
  -29.8207  -24.0502   22.9676 C   0  0  0  0  0  0  0  0  0  0  0  0
  -28.4757  -15.3416   18.5140 C   0  0  0  0  0  0  0  0  0  0  0  0
  -28.9570  -22.9069   23.4953 C   0  0  0  0  0  0  0  0  0  0  0  0
  -27.3301  -14.2872   20.4244 C   0  0  0  0  0  0  0  0  0  0  0  0
  -26.6518  -34.0709   22.6080 C   0  0  1  0  0  0  0  0  0  0  0  0
  -29.4355  -24.4622   21.5427 C   0  0  2  0  0  0  0  0  0  0  0  0
  -24.7714  -31.3261   20.7739 C   0  0  1  0  0  0  0  0  0  0  0  0
  -25.9532  -14.5433   19.7882 C   0  0  2  0  0  0  0  0  0  0  0  0
  -26.9235  -20.2866   17.4798 C   0  0  0  0  0  0  0  0  0  0  0  0
  -18.5079  -27.3806   23.0554 C   0  0  0  0  0  0  0  0  0  0  0  0
  -23.7178  -30.8339   25.2470 C   0  0  0  0  0  0  0  0  0  0  0  0
  -21.7909  -29.3134   25.7403 C   0  0  0  0  0  0  0  0  0  0  0  0
  -21.3766  -31.5765   24.7763 C   0  0  0  0  0  0  0  0  0  0  0  0
  -20.1905  -27.1990   19.6478 C   0  0  0  0  0  0  0  0  0  0  0  0
  -29.4696  -16.9201   23.1059 C   0  0  0  0  0  0  0  0  0  0  0  0
  -27.5423  -19.6900   18.7290 C   0  0  0  0  0  0  0  0  0  0  0  0
  -28.1755  -25.3275   21.5139 C   0  0  0  0  0  0  0  0  0  1  0  0
  -22.3747  -29.7707   23.3152 C   0  0  1  0  0  0  0  0  0  0  0  0
  -19.4119  -27.8555   21.9285 C   0  0  2  0  0  0  0  0  0  0  0  0
  -22.3350  -30.3660   24.7510 C   0  0  0  0  0  0  0  0  0  0  0  0
  -25.3212  -12.2683   20.5004 N   0  0  0  0  0  0  0  0  0  0  0  0
  -28.9476  -20.9849   20.2028 N   0  0  0  0  0  0  0  0  0  0  0  0
  -24.9213  -13.5229   20.2318 N   0  0  0  0  0  0  0  0  0  0  0  0
  -28.9182  -21.7940   22.5295 N   0  0  0  0  0  0  0  0  0  0  0  0
  -24.0791  -30.3491   21.6169 N   0  0  0  0  0  0  0  0  0  0  0  0
  -28.2951  -15.2993   19.9672 N   0  0  0  0  0  0  0  0  0  0  0  0
  -23.0137  -14.9259   20.1745 N   0  0  0  0  0  0  0  0  0  0  0  0
  -21.3426  -10.9494   21.5127 N   0  0  0  0  0  0  0  0  0  0  0  0
  -25.7163  -33.2893   21.8279 N   0  0  0  0  0  0  0  0  0  0  0  0
  -21.0746  -29.3442   22.8090 N   0  0  0  0  0  0  0  0  0  0  0  0
  -28.7943  -16.0779   22.1439 N   0  0  0  0  0  0  0  0  0  0  0  0
  -19.3642  -26.8479   20.8314 N   0  3  0  0  0  0  0  0  0  0  0  0
  -20.8036  -13.1199   21.0055 O   0  0  0  0  0  0  0  0  0  0  0  0
  -26.7676  -31.2214   22.0306 O   0  0  0  0  0  0  0  0  0  0  0  0
  -22.3418  -31.8200   22.1211 O   0  0  0  0  0  0  0  0  0  0  0  0
  -21.6624  -27.1334   22.4293 O   0  0  0  0  0  0  0  0  0  0  0  0
  -29.8327  -16.9994   20.3192 O   0  0  0  0  0  0  0  0  0  0  0  0
  -24.2356   -6.2522   22.2837 O   0  0  0  0  0  0  0  0  0  0  0  0
  -27.9371  -25.7570   20.1741 O   0  0  0  0  0  0  0  0  0  1  0  0
  -19.7991   -4.2518   24.8761 F   0  0  0  0  0  0  0  0  0  0  0  0
  -24.4453   -5.1543   24.8122 F   0  0  0  0  0  0  0  0  0  0  0  0
  1  2  1  0  0  0  0
  1  6  2  0  0  0  0
  2  7  2  0  0  0  0
  3  9  1  0  0  0  0
  3 10  2  0  0  0  0
  4 11  2  0  0  0  0
  4 19  1  0  0  0  0
  5 12  1  0  0  0  0
  5 19  2  0  0  0  0
  6 21  1  0  0  0  0
  7 23  1  0  0  0  0
  8 13  2  0  0  0  0
  8 22  1  0  0  0  0
  9 25  2  0  0  0  0
 10 26  1  0  0  0  0
 11 27  1  0  0  0  0
 12 27  2  0  0  0  0
 13 28  1  0  0  0  0
 14 15  2  0  0  0  0
 14 29  1  0  0  0  0
 15 30  1  0  0  0  0
 16 24  1  0  0  0  0
 16 28  2  0  0  0  0
 17 25  1  0  0  0  0
 17 26  2  0  0  0  0
 18 30  2  0  0  0  0
 18 31  1  0  0  0  0
 19 32  1  0  0  0  0
 20 32  1  0  0  0  0
 20 33  2  0  0  0  0
 20 37  1  0  0  0  0
 21 23  2  0  0  0  0
 21 42  1  0  0  0  0
 22 24  2  0  0  0  0
 22 43  1  0  0  0  0
 23 53  1  0  0  0  0
 24 44  1  0  0  0  0
 25 63  1  0  0  0  0
 26 72  1  0  0  0  0
 27 86  1  0  0  0  0
 28 87  1  0  0  0  0
 29 31  2  0  0  0  0
 29 86  1  0  0  0  0
 30 88  1  0  0  0  0
 31 89  1  0  0  0  0
 32 69  2  0  0  0  0
 33 71  1  0  0  0  0
 33 75  1  0  0  0  0
 34 35  2  0  0  0  0
 34 54  1  0  0  0  0
 35 70  1  0  0  0  0
 35 72  1  0  0  0  0
 36 64  1  0  0  0  0
 36 70  2  0  0  0  0
 37 76  1  0  0  0  0
 37 81  2  0  0  0  0
 38 55  1  0  0  0  0
 38 77  1  0  0  0  0
 38 82  2  0  0  0  0
 39 66  1  0  0  0  0
 39 73  1  0  0  0  0
 39 83  2  0  0  0  0
 40 67  1  0  0  0  0
 40 78  1  0  0  0  0
 40 84  2  0  0  0  0
 41 74  1  0  0  0  0
 41 79  1  0  0  0  0
 41 85  2  0  0  0  0
 42 45  1  0  0  0  0
 43 55  1  0  0  0  0
 44 73  1  0  0  0  0
 45 47  1  0  0  0  0
 46 48  1  0  0  0  0
 46 50  1  0  0  0  0
 47 53  1  0  0  0  0
 48 56  1  0  0  0  0
 49 51  1  0  0  0  0
 49 54  1  0  0  0  0
 50 74  1  0  0  0  0
 51 72  1  0  0  0  0
 52 56  1  0  0  0  0
 52 74  1  0  0  0  0
 53 77  1  0  0  0  0
 54 65  1  0  0  0  0
 55 73  1  0  0  0  0
 56 71  1  0  0  0  0
 57 64  1  0  0  0  0
 58 67  1  0  0  0  0
 59 68  1  0  0  0  0
 60 68  1  0  0  0  0
 61 68  1  0  0  0  0
 62 80  1  0  0  0  0
 63 79  1  0  0  0  0
 65 87  1  0  0  0  0
 66 68  1  0  0  0  0
 66 78  1  0  0  0  0
 67 80  1  0  0  0  0
 69 71  1  0  0  0  0
M  CHG  1  80   1
M  ISO  4  41 100  65 101  79 100  87 101
M  END
> <Batch ID>
0057

> <Smiles>
CC=CN=C1CC([101CH2:1][101O:1]c2ccc3c(c2)CN(C(=O)C(NC(=O)C(C)NC)C(C)(C)C)C(C(=O)NC2CCCc4ccccc42)C3)CCN1c1cccc(C[100NH:0][100C:0](=O)N2CCCC(n3nc(-c4ccc(Oc5ccc(F)cc5F)cc4)c(C(N)=O)c3N)C2)c1

> <Shape>
0.324

> <Color>
0.116

> <Negative vol penalty>
0.000

$$$$

  -OEChem-04042322553D

 84 92  0     1  0  0  0  0  0999 V2000
  -21.8281  -17.1664   21.8986 C   0  0  0  0  0  0  0  0  0  0  0  0
  -23.1350  -17.6052   22.0853 C   0  0  0  0  0  0  0  0  0  0  0  0
  -26.6245  -12.2140   21.7456 C   0  0  0  0  0  0  0  0  0  0  0  0
  -25.8194  -13.7457   20.0596 C   0  0  0  0  0  0  0  0  0  0  0  0
  -20.9019  -17.9899   21.2599 C   0  0  0  0  0  0  0  0  0  0  0  0
  -23.5168  -18.8675   21.6324 C   0  0  0  0  0  0  0  0  0  0  0  0
  -27.9027  -24.2923   23.2610 C   0  0  0  0  0  0  0  0  0  0  0  0
  -31.1275  -23.0734   19.8896 C   0  0  0  0  0  0  0  0  0  0  0  0
  -30.8070  -22.0812   20.8161 C   0  0  0  0  0  0  0  0  0  0  0  0
  -25.3737  -11.5979   21.7833 C   0  0  0  0  0  0  0  0  0  0  0  0
  -24.5685  -13.1296   20.0972 C   0  0  0  0  0  0  0  0  0  0  0  0
  -28.8909  -25.0888   22.6841 C   0  0  0  0  0  0  0  0  0  0  0  0
  -23.6433   -9.3584   19.9331 C   0  0  0  0  0  0  0  0  0  0  0  0
  -23.6072   -7.9641   19.9329 C   0  0  0  0  0  0  0  0  0  0  0  0
  -27.1851  -26.4566   21.6651 C   0  0  0  0  0  0  0  0  0  0  0  0
  -29.2792  -22.3730   18.5002 C   0  0  0  0  0  0  0  0  0  0  0  0
  -22.4626   -7.9933   22.0603 C   0  0  0  0  0  0  0  0  0  0  0  0
  -26.8474  -13.2880   20.8838 C   0  0  0  0  0  0  0  0  0  0  0  0
  -29.2283  -13.5888   20.0189 C   0  0  0  0  0  0  0  0  0  0  0  0
  -21.2701  -19.2668   20.8075 C   0  0  0  0  0  0  0  0  0  0  0  0
  -26.5460  -24.5659   23.0349 C   0  0  0  0  0  0  0  0  0  0  0  0
  -22.5951  -19.7084   20.9858 C   0  0  0  0  0  0  0  0  0  0  0  0
  -26.1816  -25.6636   22.2423 C   0  0  0  0  0  0  0  0  0  0  0  0
  -30.3635  -23.2194   18.7317 C   0  0  0  0  0  0  0  0  0  0  0  0
  -28.9588  -21.3807   19.4267 C   0  0  0  0  0  0  0  0  0  0  0  0
  -29.7227  -21.2348   20.5847 C   0  0  0  0  0  0  0  0  0  0  0  0
  -24.3457  -12.0557   20.9591 C   0  0  0  0  0  0  0  0  0  0  0  0
  -28.5322  -26.1694   21.8837 C   0  0  0  0  0  0  0  0  0  0  0  0
  -23.0891  -10.0703   20.9970 C   0  0  0  0  0  0  0  0  0  0  0  0
  -23.0168   -7.2815   20.9965 C   0  0  0  0  0  0  0  0  0  0  0  0
  -22.4987   -9.3877   22.0606 C   0  0  0  0  0  0  0  0  0  0  0  0
  -28.1391  -13.9251   20.8448 C   0  0  0  0  0  0  0  0  0  0  0  0
  -30.2101  -14.4854   20.3634 C   0  0  0  0  0  0  0  0  0  0  0  0
  -29.3424  -12.5581   19.0288 C   0  0  0  0  0  0  0  0  0  0  0  0
  -24.1348  -22.9933   21.6873 C   0  0  0  0  0  0  0  0  0  0  0  0
  -22.3979  -25.5063   22.7781 C   0  0  0  0  0  0  0  0  0  0  0  0
  -31.1408  -26.4284   18.9308 C   0  0  0  0  0  0  0  0  0  0  0  0
  -22.3328  -28.7725   23.7652 C   0  0  0  0  0  0  0  0  0  0  0  0
  -30.0815  -19.9692   22.7331 C   0  0  0  0  0  0  0  0  0  0  0  0
  -20.2464  -20.1025   20.0805 C   0  0  0  0  0  0  0  0  0  0  0  0
  -25.4919  -23.7132   23.6862 C   0  0  0  0  0  0  0  0  0  0  0  0
  -24.7390  -26.0120   21.9852 C   0  0  0  0  0  0  0  0  0  0  0  0
  -20.6332  -21.5746   19.9644 C   0  0  0  0  0  0  0  0  0  0  0  0
  -31.7506  -17.1162   24.0566 C   0  0  0  0  0  0  0  0  0  0  0  0
  -22.0835  -21.7115   19.5121 C   0  0  0  0  0  0  0  0  0  0  0  0
  -31.1173  -15.9440   23.3036 C   0  0  0  0  0  0  0  0  0  0  0  0
  -30.7299  -18.2104   24.3644 C   0  0  0  0  0  0  0  0  0  0  0  0
  -29.3377  -17.5232   22.4516 C   0  0  0  0  0  0  0  0  0  0  0  0
  -23.0409  -21.0811   20.5306 C   0  0  1  0  0  0  0  0  0  0  0  0
  -24.1464  -23.7756   22.9700 C   0  0  1  0  0  0  0  0  0  0  0  0
  -30.3408  -16.4252   22.0622 C   0  0  2  0  0  0  0  0  0  0  0  0
  -27.7937  -20.4863   19.1514 C   0  0  0  0  0  0  0  0  0  0  0  0
  -20.7610  -30.5578   24.5649 C   0  0  0  0  0  0  0  0  0  0  0  0
  -21.3580  -25.8622   19.9317 C   0  0  0  0  0  0  0  0  0  0  0  0
  -20.5843  -28.1547   20.5754 C   0  0  0  0  0  0  0  0  0  0  0  0
  -19.6310  -26.1521   21.7172 C   0  0  0  0  0  0  0  0  0  0  0  0
  -23.7705  -29.0488   26.3373 C   0  0  0  0  0  0  0  0  0  0  0  0
  -30.7100  -24.2859   17.7333 C   0  0  0  0  0  0  0  0  0  0  0  0
  -30.4569  -27.7456   19.2625 C   0  0  0  0  0  0  0  0  0  0  0  0
  -29.1814  -27.5655   20.0711 C   0  0  0  0  0  0  0  0  0  1  0  0
  -22.0057  -26.8552   22.2253 C   0  0  1  0  0  0  0  0  0  0  0  0
  -21.7141  -29.4466   24.9765 C   0  0  2  0  0  0  0  0  0  0  0  0
  -20.9220  -26.7486   21.1155 C   0  0  0  0  0  0  0  0  0  0  0  0
  -28.4037  -14.9549   21.6533 N   0  0  0  0  0  0  0  0  0  0  0  0
  -29.6704  -15.2733   21.3370 N   0  0  0  0  0  0  0  0  0  0  0  0
  -23.7453  -25.1444   22.6389 N   0  0  0  0  0  0  0  0  0  0  0  0
  -30.0364  -18.6193   23.1410 N   0  0  0  0  0  0  0  0  0  0  0  0
  -31.4739  -14.6687   19.9254 N   0  0  0  0  0  0  0  0  0  0  0  0
  -28.2383  -11.7255   18.8007 N   0  0  0  0  0  0  0  0  0  0  0  0
  -29.4135  -20.2331   21.5379 N   0  0  0  0  0  0  0  0  0  0  0  0
  -23.2189  -21.9587   21.6675 N   0  0  0  0  0  0  0  0  0  0  0  0
  -30.3136  -25.5998   18.1861 N   0  0  0  0  0  0  0  0  0  0  0  0
  -21.6097  -27.6666   23.3712 N   0  0  0  0  0  0  0  0  0  0  0  0
  -22.7762  -30.0346   25.8409 N   0  3  0  0  0  0  0  0  0  0  0  0
  -30.3979  -12.3702   18.3775 O   0  0  0  0  0  0  0  0  0  0  0  0
  -24.8991  -23.3060   20.7819 O   0  0  0  0  0  0  0  0  0  0  0  0
  -21.5417  -24.8028   23.3201 O   0  0  0  0  0  0  0  0  0  0  0  0
  -32.2831  -26.1539   19.2879 O   0  0  0  0  0  0  0  0  0  0  0  0
  -23.3533  -29.1879   23.2206 O   0  0  0  0  0  0  0  0  0  0  0  0
  -30.6925  -20.8229   23.3812 O   0  0  0  0  0  0  0  0  0  0  0  0
  -23.1250  -11.4546   20.9954 O   0  0  0  0  0  0  0  0  0  0  0  0
  -29.4948  -26.9481   21.3189 O   0  0  0  0  0  0  0  0  0  1  0  0
  -22.9809   -5.9425   20.9954 F   0  0  0  0  0  0  0  0  0  0  0  0
  -21.9636  -10.0662   23.0849 F   0  0  0  0  0  0  0  0  0  0  0  0
  1  2  1  0  0  0  0
  1  5  2  0  0  0  0
  2  6  2  0  0  0  0
  3 10  2  0  0  0  0
  3 18  1  0  0  0  0
  4 11  1  0  0  0  0
  4 18  2  0  0  0  0
  5 20  1  0  0  0  0
  6 22  1  0  0  0  0
  7 12  2  0  0  0  0
  7 21  1  0  0  0  0
  8  9  2  0  0  0  0
  8 24  1  0  0  0  0
  9 26  1  0  0  0  0
 10 27  1  0  0  0  0
 11 27  2  0  0  0  0
 12 28  1  0  0  0  0
 13 14  2  0  0  0  0
 13 29  1  0  0  0  0
 14 30  1  0  0  0  0
 15 23  1  0  0  0  0
 15 28  2  0  0  0  0
 16 24  2  0  0  0  0
 16 25  1  0  0  0  0
 17 30  2  0  0  0  0
 17 31  1  0  0  0  0
 18 32  1  0  0  0  0
 19 32  1  0  0  0  0
 19 33  2  0  0  0  0
 19 34  1  0  0  0  0
 20 22  2  0  0  0  0
 20 40  1  0  0  0  0
 21 23  2  0  0  0  0
 21 41  1  0  0  0  0
 22 49  1  0  0  0  0
 23 42  1  0  0  0  0
 24 58  1  0  0  0  0
 25 26  2  0  0  0  0
 25 52  1  0  0  0  0
 26 70  1  0  0  0  0
 27 81  1  0  0  0  0
 28 82  1  0  0  0  0
 29 31  2  0  0  0  0
 29 81  1  0  0  0  0
 30 83  1  0  0  0  0
 31 84  1  0  0  0  0
 32 64  2  0  0  0  0
 33 65  1  0  0  0  0
 33 68  1  0  0  0  0
 34 69  1  0  0  0  0
 34 75  2  0  0  0  0
 35 50  1  0  0  0  0
 35 71  1  0  0  0  0
 35 76  2  0  0  0  0
 36 61  1  0  0  0  0
 36 66  1  0  0  0  0
 36 77  2  0  0  0  0
 37 59  1  0  0  0  0
 37 72  1  0  0  0  0
 37 78  2  0  0  0  0
 38 62  1  0  0  0  0
 38 73  1  0  0  0  0
 38 79  2  0  0  0  0
 39 67  1  0  0  0  0
 39 70  1  0  0  0  0
 39 80  2  0  0  0  0
 40 43  1  0  0  0  0
 41 50  1  0  0  0  0
 42 66  1  0  0  0  0
 43 45  1  0  0  0  0
 44 46  1  0  0  0  0
 44 47  1  0  0  0  0
 45 49  1  0  0  0  0
 46 51  1  0  0  0  0
 47 67  1  0  0  0  0
 48 51  1  0  0  0  0
 48 67  1  0  0  0  0
 49 71  1  0  0  0  0
 50 66  1  0  0  0  0
 51 65  1  0  0  0  0
 53 62  1  0  0  0  0
 54 63  1  0  0  0  0
 55 63  1  0  0  0  0
 56 63  1  0  0  0  0
 57 74  1  0  0  0  0
 58 72  1  0  0  0  0
 59 60  1  0  0  0  0
 60 82  1  0  0  0  0
 61 63  1  0  0  0  0
 61 73  1  0  0  0  0
 62 74  1  0  0  0  0
 64 65  1  0  0  0  0
M  CHG  1  74   1
M  ISO  4  39 100  60 101  70 100  82 101
M  END
> <Batch ID>
0057

> <Smiles>
CNC(C)C(=O)NC(C(=O)N1Cc2cc([101O:1][101CH2:1]CC(=O)NCc3ccc([100NH:0][100C:0](=O)N4CCCC(n5nc(-c6ccc(Oc7ccc(F)cc7F)cc6)c(C(N)=O)c5N)C4)c(C)c3)ccc2CC1C(=O)NC1CCCc2ccccc21)C(C)(C)C

> <Shape>
0.250

> <Color>
0.065

> <Negative vol penalty>
0.000

$$$$

  -OEChem-04042322553D

 85 93  0     1  0  0  0  0  0999 V2000
  -28.2681  -21.9564   24.8168 C   0  0  0  0  0  0  0  0  0  0  0  0
  -27.6916  -20.8002   24.3010 C   0  0  0  0  0  0  0  0  0  0  0  0
  -27.7914  -23.5514   20.8925 C   0  0  0  0  0  0  0  0  0  0  0  0
  -28.4438  -23.2957   18.5804 C   0  0  0  0  0  0  0  0  0  0  0  0
  -27.7822  -22.5074   26.0018 C   0  0  0  0  0  0  0  0  0  0  0  0
  -26.6294  -20.1936   24.9704 C   0  0  0  0  0  0  0  0  0  0  0  0
  -22.8910  -18.8215   21.8421 C   0  0  0  0  0  0  0  0  0  0  0  0
  -30.0700  -11.7935   19.9220 C   0  0  0  0  0  0  0  0  0  0  0  0
  -29.2635  -10.9976   20.7354 C   0  0  0  0  0  0  0  0  0  0  0  0
  -27.8145  -24.9383   20.7457 C   0  0  0  0  0  0  0  0  0  0  0  0
  -28.4668  -24.6826   18.4335 C   0  0  0  0  0  0  0  0  0  0  0  0
  -23.0780  -17.6570   21.0987 C   0  0  0  0  0  0  0  0  0  0  0  0
  -25.8182  -27.3395   19.4487 C   0  0  0  0  0  0  0  0  0  0  0  0
  -24.7513  -28.0652   19.9784 C   0  0  0  0  0  0  0  0  0  0  0  0
  -21.7100  -16.4413   22.6702 C   0  0  0  0  0  0  0  0  0  0  0  0
  -28.1036  -12.8876   19.0427 C   0  0  0  0  0  0  0  0  0  0  0  0
  -26.2808  -29.2685   21.4103 C   0  0  0  0  0  0  0  0  0  0  0  0
  -28.1061  -22.7301   19.8099 C   0  0  0  0  0  0  0  0  0  0  0  0
  -26.9890  -20.4375   19.7474 C   0  0  0  0  0  0  0  0  0  0  0  0
  -26.7071  -21.9128   26.6810 C   0  0  0  0  0  0  0  0  0  0  0  0
  -22.1197  -18.8023   23.0131 C   0  0  0  0  0  0  0  0  0  0  0  0
  -26.1294  -20.7364   26.1663 C   0  0  0  0  0  0  0  0  0  0  0  0
  -21.5126  -17.6075   23.4253 C   0  0  0  0  0  0  0  0  0  0  0  0
  -29.4901  -12.7386   19.0757 C   0  0  0  0  0  0  0  0  0  0  0  0
  -27.8770  -11.1466   20.7024 C   0  0  0  0  0  0  0  0  0  0  0  0
  -27.2970  -12.0917   19.8561 C   0  0  0  0  0  0  0  0  0  0  0  0
  -28.1522  -25.5039   19.5162 C   0  0  0  0  0  0  0  0  0  0  0  0
  -22.4899  -16.4660   21.5142 C   0  0  0  0  0  0  0  0  0  0  0  0
  -27.1164  -27.5781   19.8999 C   0  0  0  0  0  0  0  0  0  0  0  0
  -24.9826  -29.0298   20.9591 C   0  0  0  0  0  0  0  0  0  0  0  0
  -27.3476  -28.5426   20.8806 C   0  0  0  0  0  0  0  0  0  0  0  0
  -28.0830  -21.2974   19.9611 C   0  0  0  0  0  0  0  0  0  0  0  0
  -27.4784  -19.1842   20.0232 C   0  0  0  0  0  0  0  0  0  0  0  0
  -25.6502  -20.7444   19.3361 C   0  0  0  0  0  0  0  0  0  0  0  0
  -22.6906  -19.3872   26.0848 C   0  0  0  0  0  0  0  0  0  0  0  0
  -19.4817  -18.9956   26.3539 C   0  0  0  0  0  0  0  0  0  0  0  0
  -16.6108  -17.6523   25.0890 C   0  0  0  0  0  0  0  0  0  0  0  0
  -31.4782  -15.3168   19.5873 C   0  0  0  0  0  0  0  0  0  0  0  0
  -26.2471  -22.5183   27.9835 C   0  0  0  0  0  0  0  0  0  0  0  0
  -21.9056  -20.0728   23.7892 C   0  0  0  0  0  0  0  0  0  0  0  0
  -20.6587  -17.5381   24.6640 C   0  0  0  0  0  0  0  0  0  0  0  0
  -24.8743  -22.0250   28.4333 C   0  0  0  0  0  0  0  0  0  0  0  0
  -31.8290  -17.7466   22.1660 C   0  0  0  0  0  0  0  0  0  0  0  0
  -24.7849  -20.5074   28.3077 C   0  0  0  0  0  0  0  0  0  0  0  0
  -30.8003  -18.8183   21.8011 C   0  0  0  0  0  0  0  0  0  0  0  0
  -32.4822  -17.1451   20.9236 C   0  0  0  0  0  0  0  0  0  0  0  0
  -30.5089  -17.6950   19.5535 C   0  0  0  0  0  0  0  0  0  0  0  0
  -24.9594  -20.0632   26.8504 C   0  0  1  0  0  0  0  0  0  0  0  0
  -21.5241  -19.8262   25.2456 C   0  0  1  0  0  0  0  0  0  0  0  0
  -29.7828  -18.2914   20.7714 C   0  0  2  0  0  0  0  0  0  0  0  0
  -27.0363  -10.2814   21.5838 C   0  0  0  0  0  0  0  0  0  0  0  0
  -14.1506  -17.4721   25.5496 C   0  0  0  0  0  0  0  0  0  0  0  0
  -20.0423  -16.9278   28.5264 C   0  0  0  0  0  0  0  0  0  0  0  0
  -17.6862  -16.1211   28.2691 C   0  0  0  0  0  0  0  0  0  0  0  0
  -18.1273  -18.4605   29.0143 C   0  0  0  0  0  0  0  0  0  0  0  0
  -15.9189  -19.0219   22.5584 C   0  0  0  0  0  0  0  0  0  0  0  0
  -30.3533  -13.5888   18.2061 C   0  0  0  0  0  0  0  0  0  0  0  0
  -22.6531  -14.0934   21.5066 C   0  0  0  0  0  0  0  0  0  1  0  0
  -23.5023  -13.0738   20.7749 C   0  0  0  0  0  0  0  0  0  0  0  0
  -18.5653  -17.8230   26.6073 C   0  0  1  0  0  0  0  0  0  0  0  0
  -15.2413  -18.2569   24.8375 C   0  0  2  0  0  0  0  0  0  0  0  0
  -18.6229  -17.3336   28.0819 C   0  0  0  0  0  0  0  0  0  0  0  0
  -29.1842  -20.6454   20.3434 N   0  0  0  0  0  0  0  0  0  0  0  0
  -28.7847  -19.3625   20.3721 N   0  0  0  0  0  0  0  0  0  0  0  0
  -20.4844  -18.8056   25.3925 N   0  0  0  0  0  0  0  0  0  0  0  0
  -31.4630  -16.6629   19.9885 N   0  0  0  0  0  0  0  0  0  0  0  0
  -26.9143  -17.9579   19.9989 N   0  0  0  0  0  0  0  0  0  0  0  0
  -25.3158  -22.0838   19.0944 N   0  0  0  0  0  0  0  0  0  0  0  0
  -25.8690  -12.2599   19.8069 N   0  0  0  0  0  0  0  0  0  0  0  0
  -23.7396  -20.2865   26.1044 N   0  0  0  0  0  0  0  0  0  0  0  0
  -17.2382  -18.2396   26.1673 N   0  0  0  0  0  0  0  0  0  0  0  0
  -30.4734  -14.9409   18.7043 N   0  0  0  0  0  0  0  0  0  0  0  0
  -14.9385  -18.2646   23.3783 N   0  3  0  0  0  0  0  0  0  0  0  0
  -24.7717  -19.8588   19.2033 O   0  0  0  0  0  0  0  0  0  0  0  0
  -22.6418  -18.3130   26.6724 O   0  0  0  0  0  0  0  0  0  0  0  0
  -19.3097  -20.0440   26.9807 O   0  0  0  0  0  0  0  0  0  0  0  0
  -17.0758  -16.7467   24.4003 O   0  0  0  0  0  0  0  0  0  0  0  0
  -32.3214  -14.5085   19.9907 O   0  0  0  0  0  0  0  0  0  0  0  0
  -25.7361  -13.5747   22.0104 O   0  0  0  0  0  0  0  0  0  0  0  0
  -25.2452  -14.8009   19.8655 O   0  0  0  0  0  0  0  0  0  0  0  0
  -28.1746  -26.8572   19.3725 O   0  0  0  0  0  0  0  0  0  0  0  0
  -22.6713  -15.3278   20.7908 O   0  0  0  0  0  0  0  0  0  1  0  0
  -23.9581  -29.7278   21.4666 F   0  0  0  0  0  0  0  0  0  0  0  0
  -28.5927  -28.7771   21.3171 F   0  0  0  0  0  0  0  0  0  0  0  0
  -25.1889  -13.5870   20.6626 S   0  0  0  0  0  0  0  0  0  0  0  0
  1  2  1  0  0  0  0
  1  5  2  0  0  0  0
  2  6  2  0  0  0  0
  3 10  2  0  0  0  0
  3 18  1  0  0  0  0
  4 11  1  0  0  0  0
  4 18  2  0  0  0  0
  5 20  1  0  0  0  0
  6 22  1  0  0  0  0
  7 12  2  0  0  0  0
  7 21  1  0  0  0  0
  8  9  2  0  0  0  0
  8 24  1  0  0  0  0
  9 25  1  0  0  0  0
 10 27  1  0  0  0  0
 11 27  2  0  0  0  0
 12 28  1  0  0  0  0
 13 14  2  0  0  0  0
 13 29  1  0  0  0  0
 14 30  1  0  0  0  0
 15 23  1  0  0  0  0
 15 28  2  0  0  0  0
 16 24  2  0  0  0  0
 16 26  1  0  0  0  0
 17 30  2  0  0  0  0
 17 31  1  0  0  0  0
 18 32  1  0  0  0  0
 19 32  1  0  0  0  0
 19 33  2  0  0  0  0
 19 34  1  0  0  0  0
 20 22  2  0  0  0  0
 20 39  1  0  0  0  0
 21 23  2  0  0  0  0
 21 40  1  0  0  0  0
 22 48  1  0  0  0  0
 23 41  1  0  0  0  0
 24 57  1  0  0  0  0
 25 26  2  0  0  0  0
 25 51  1  0  0  0  0
 26 69  1  0  0  0  0
 27 81  1  0  0  0  0
 28 82  1  0  0  0  0
 29 31  2  0  0  0  0
 29 81  1  0  0  0  0
 30 83  1  0  0  0  0
 31 84  1  0  0  0  0
 32 63  2  0  0  0  0
 33 64  1  0  0  0  0
 33 67  1  0  0  0  0
 34 68  1  0  0  0  0
 34 74  2  0  0  0  0
 35 49  1  0  0  0  0
 35 70  1  0  0  0  0
 35 75  2  0  0  0  0
 36 60  1  0  0  0  0
 36 65  1  0  0  0  0
 36 76  2  0  0  0  0
 37 61  1  0  0  0  0
 37 71  1  0  0  0  0
 37 77  2  0  0  0  0
 38 66  1  0  0  0  0
 38 72  1  0  0  0  0
 38 78  2  0  0  0  0
 39 42  1  0  0  0  0
 40 49  1  0  0  0  0
 41 65  1  0  0  0  0
 42 44  1  0  0  0  0
 43 45  1  0  0  0  0
 43 46  1  0  0  0  0
 44 48  1  0  0  0  0
 45 50  1  0  0  0  0
 46 66  1  0  0  0  0
 47 50  1  0  0  0  0
 47 66  1  0  0  0  0
 48 70  1  0  0  0  0
 49 65  1  0  0  0  0
 50 64  1  0  0  0  0
 52 61  1  0  0  0  0
 53 62  1  0  0  0  0
 54 62  1  0  0  0  0
 55 62  1  0  0  0  0
 56 73  1  0  0  0  0
 57 72  1  0  0  0  0
 58 59  1  0  0  0  0
 58 82  1  0  0  0  0
 59 85  1  0  0  0  0
 60 62  1  0  0  0  0
 60 71  1  0  0  0  0
 61 73  1  0  0  0  0
 63 64  1  0  0  0  0
 69 85  1  0  0  0  0
 79 85  2  0  0  0  0
 80 85  2  0  0  0  0
M  CHG  1  73   1
M  ISO  4  38 100  58 101  72 100  82 101
M  END
> <Batch ID>
0057

> <Smiles>
CNC(C)C(=O)NC(C(=O)N1Cc2cc([101O:1][101CH2:1]CS(=O)(=O)Nc3cc(C[100NH:0][100C:0](=O)N4CCCC(n5nc(-c6ccc(Oc7ccc(F)cc7F)cc6)c(C(N)=O)c5N)C4)ccc3C)ccc2CC1C(=O)NC1CCCc2ccccc21)C(C)(C)C

> <Shape>
0.186

> <Color>
0.088

> <Negative vol penalty>
0.000

$$$$

  -OEChem-04042322553D

 85 93  0     1  0  0  0  0  0999 V2000
  -32.6101  -25.8737   19.7728 C   0  0  0  0  0  0  0  0  0  0  0  0
  -31.3573  -25.5109   19.2887 C   0  0  0  0  0  0  0  0  0  0  0  0
  -26.1469  -14.6314   18.9066 C   0  0  0  0  0  0  0  0  0  0  0  0
  -24.5056  -14.8730   20.6630 C   0  0  0  0  0  0  0  0  0  0  0  0
  -32.7275  -26.4505   21.0367 C   0  0  0  0  0  0  0  0  0  0  0  0
  -30.2213  -25.7237   20.0687 C   0  0  0  0  0  0  0  0  0  0  0  0
  -23.2653  -27.3311   19.4792 C   0  0  0  0  0  0  0  0  0  0  0  0
  -23.2108  -24.8835   24.9920 C   0  0  0  0  0  0  0  0  0  0  0  0
  -24.0271  -24.2776   24.0370 C   0  0  0  0  0  0  0  0  0  0  0  0
  -26.3300  -13.2949   19.2614 C   0  0  0  0  0  0  0  0  0  0  0  0
  -24.6887  -13.5364   21.0178 C   0  0  0  0  0  0  0  0  0  0  0  0
  -22.0151  -26.8718   19.8913 C   0  0  0  0  0  0  0  0  0  0  0  0
  -23.6994  -10.5056   19.8971 C   0  0  0  0  0  0  0  0  0  0  0  0
  -22.5596   -9.7388   20.1386 C   0  0  0  0  0  0  0  0  0  0  0  0
  -22.3302  -27.9484   22.0269 C   0  0  0  0  0  0  0  0  0  0  0  0
  -22.1125  -23.1055   23.1440 C   0  0  0  0  0  0  0  0  0  0  0  0
  -23.3172   -9.3231   22.3948 C   0  0  0  0  0  0  0  0  0  0  0  0
  -25.2348  -15.4205   19.6075 C   0  0  0  0  0  0  0  0  0  0  0  0
  -24.1240  -17.3154   18.3101 C   0  0  0  0  0  0  0  0  0  0  0  0
  -31.5912  -26.6794   21.8287 C   0  0  0  0  0  0  0  0  0  0  0  0
  -24.0634  -28.0945   20.3433 C   0  0  0  0  0  0  0  0  0  0  0  0
  -30.3237  -26.3029   21.3450 C   0  0  0  0  0  0  0  0  0  0  0  0
  -23.5891  -28.4183   21.6225 C   0  0  0  0  0  0  0  0  0  0  0  0
  -21.8453  -24.6003   25.0231 C   0  0  0  0  0  0  0  0  0  0  0  0
  -21.2961  -23.7114   24.0991 C   0  0  0  0  0  0  0  0  0  0  0  0
  -23.4780  -23.3886   23.1130 C   0  0  0  0  0  0  0  0  0  0  0  0
  -25.6008  -12.7474   20.3170 C   0  0  0  0  0  0  0  0  0  0  0  0
  -21.5486  -27.1781   21.1663 C   0  0  0  0  0  0  0  0  0  0  0  0
  -24.6483  -10.6811   20.9044 C   0  0  0  0  0  0  0  0  0  0  0  0
  -22.3684   -9.1476   21.3874 C   0  0  0  0  0  0  0  0  0  0  0  0
  -24.4571  -10.0899   22.1532 C   0  0  0  0  0  0  0  0  0  0  0  0
  -25.0457  -16.8013   19.2418 C   0  0  0  0  0  0  0  0  0  0  0  0
  -24.3398  -18.6717   18.3263 C   0  0  0  0  0  0  0  0  0  0  0  0
  -23.1591  -16.6283   17.5023 C   0  0  0  0  0  0  0  0  0  0  0  0
  -26.9260  -27.7176   21.6726 C   0  0  0  0  0  0  0  0  0  0  0  0
  -19.3939  -22.6789   22.8454 C   0  0  0  0  0  0  0  0  0  0  0  0
  -18.9663  -24.7754   21.9897 C   0  0  0  0  0  0  0  0  0  0  0  0
  -26.4214  -30.7554   22.6921 C   0  0  0  0  0  0  0  0  0  0  0  0
  -24.1904  -33.2243   23.4497 C   0  0  0  0  0  0  0  0  0  0  0  0
  -25.6798  -22.9470   21.9714 C   0  0  0  0  0  0  0  0  0  0  0  0
  -31.7730  -27.2622   23.2078 C   0  0  0  0  0  0  0  0  0  0  0  0
  -25.3983  -28.6048   19.8740 C   0  0  0  0  0  0  0  0  0  0  0  0
  -24.3986  -29.2517   22.5809 C   0  0  0  0  0  0  0  0  0  0  0  0
  -30.4803  -27.7978   23.8179 C   0  0  0  0  0  0  0  0  0  0  0  0
  -28.0844  -21.5883   19.7244 C   0  0  0  0  0  0  0  0  0  0  0  0
  -29.3479  -26.7919   23.6372 C   0  0  0  0  0  0  0  0  0  0  0  0
  -27.4572  -20.2654   19.2787 C   0  0  0  0  0  0  0  0  0  0  0  0
  -27.7894  -21.8896   21.1927 C   0  0  0  0  0  0  0  0  0  0  0  0
  -25.7418  -20.5218   21.1168 C   0  0  0  0  0  0  0  0  0  0  0  0
  -29.0652  -26.5405   22.1511 C   0  0  1  0  0  0  0  0  0  0  0  0
  -26.3462  -28.9411   21.0211 C   0  0  1  0  0  0  0  0  0  0  0  0
  -25.9570  -20.2072   19.6274 C   0  0  2  0  0  0  0  0  0  0  0  0
  -20.9915  -25.2607   26.0554 C   0  0  0  0  0  0  0  0  0  0  0  0
  -19.4904  -21.1702   22.8211 C   0  0  0  0  0  0  0  0  0  0  0  0
  -24.0758  -35.5846   24.2941 C   0  0  0  0  0  0  0  0  0  0  0  0
  -26.9982  -29.7687   25.5211 C   0  0  0  0  0  0  0  0  0  0  0  0
  -25.9601  -31.8739   26.3922 C   0  0  0  0  0  0  0  0  0  0  0  0
  -28.0034  -31.9904   24.9660 C   0  0  0  0  0  0  0  0  0  0  0  0
  -22.8964  -34.1739   20.9632 C   0  0  0  0  0  0  0  0  0  0  0  0
  -19.8247  -23.3921   24.1122 C   0  0  0  0  0  0  0  0  0  0  0  0
  -19.8716  -25.4986   21.0150 C   0  0  0  0  0  0  0  0  0  1  0  0
  -25.7879  -31.3830   23.9102 C   0  0  1  0  0  0  0  0  0  0  0  0
  -24.1430  -34.6919   23.0647 C   0  0  2  0  0  0  0  0  0  0  0  0
  -26.6727  -31.2366   25.1802 C   0  0  0  0  0  0  0  0  0  0  0  0
  -25.7915  -17.7534   19.8085 N   0  0  0  0  0  0  0  0  0  0  0  0
  -19.0120  -23.4095   21.8414 N   0  0  0  0  0  0  0  0  0  0  0  0
  -25.3388  -18.8794   19.2313 N   0  0  0  0  0  0  0  0  0  0  0  0
  -25.6999  -29.7219   22.0779 N   0  0  0  0  0  0  0  0  0  0  0  0
  -26.3489  -21.8206   21.4478 N   0  0  0  0  0  0  0  0  0  0  0  0
  -23.7705  -19.6950   17.6546 N   0  0  0  0  0  0  0  0  0  0  0  0
  -23.0696  -15.2338   17.6094 N   0  0  0  0  0  0  0  0  0  0  0  0
  -24.3065  -22.7744   22.1414 N   0  0  0  0  0  0  0  0  0  0  0  0
  -28.3029  -27.6349   21.5895 N   0  0  0  0  0  0  0  0  0  0  0  0
  -25.4863  -32.7636   23.5479 N   0  0  0  0  0  0  0  0  0  0  0  0
  -22.9476  -34.9671   22.2183 N   0  3  0  0  0  0  0  0  0  0  0  0
  -22.4101  -17.2315   16.6969 O   0  0  0  0  0  0  0  0  0  0  0  0
  -26.1796  -26.9092   22.2121 O   0  0  0  0  0  0  0  0  0  0  0  0
  -18.2514  -25.3745   22.7887 O   0  0  0  0  0  0  0  0  0  0  0  0
  -27.5129  -31.1718   22.2957 O   0  0  0  0  0  0  0  0  0  0  0  0
  -23.1790  -32.5545   23.6474 O   0  0  0  0  0  0  0  0  0  0  0  0
  -26.2763  -23.9972   22.2231 O   0  0  0  0  0  0  0  0  0  0  0  0
  -25.7790  -11.4433   20.6633 O   0  0  0  0  0  0  0  0  0  0  0  0
  -20.3289  -26.7306   21.5713 O   0  0  0  0  0  0  0  0  0  1  0  0
  -21.2730   -8.4126   21.6197 F   0  0  0  0  0  0  0  0  0  0  0  0
  -25.3646  -10.2559   23.1252 F   0  0  0  0  0  0  0  0  0  0  0  0
  1  2  1  0  0  0  0
  1  5  2  0  0  0  0
  2  6  2  0  0  0  0
  3 10  2  0  0  0  0
  3 18  1  0  0  0  0
  4 11  1  0  0  0  0
  4 18  2  0  0  0  0
  5 20  1  0  0  0  0
  6 22  1  0  0  0  0
  7 12  2  0  0  0  0
  7 21  1  0  0  0  0
  8  9  2  0  0  0  0
  8 24  1  0  0  0  0
  9 26  1  0  0  0  0
 10 27  1  0  0  0  0
 11 27  2  0  0  0  0
 12 28  1  0  0  0  0
 13 14  2  0  0  0  0
 13 29  1  0  0  0  0
 14 30  1  0  0  0  0
 15 23  1  0  0  0  0
 15 28  2  0  0  0  0
 16 25  1  0  0  0  0
 16 26  2  0  0  0  0
 17 30  2  0  0  0  0
 17 31  1  0  0  0  0
 18 32  1  0  0  0  0
 19 32  1  0  0  0  0
 19 33  2  0  0  0  0
 19 34  1  0  0  0  0
 20 22  2  0  0  0  0
 20 41  1  0  0  0  0
 21 23  2  0  0  0  0
 21 42  1  0  0  0  0
 22 50  1  0  0  0  0
 23 43  1  0  0  0  0
 24 25  2  0  0  0  0
 24 53  1  0  0  0  0
 25 60  1  0  0  0  0
 26 72  1  0  0  0  0
 27 82  1  0  0  0  0
 28 83  1  0  0  0  0
 29 31  2  0  0  0  0
 29 82  1  0  0  0  0
 30 84  1  0  0  0  0
 31 85  1  0  0  0  0
 32 65  2  0  0  0  0
 33 67  1  0  0  0  0
 33 70  1  0  0  0  0
 34 71  1  0  0  0  0
 34 76  2  0  0  0  0
 35 51  1  0  0  0  0
 35 73  1  0  0  0  0
 35 77  2  0  0  0  0
 36 54  1  0  0  0  0
 36 60  1  0  0  0  0
 36 66  2  0  0  0  0
 37 61  1  0  0  0  0
 37 66  1  0  0  0  0
 37 78  2  0  0  0  0
 38 62  1  0  0  0  0
 38 68  1  0  0  0  0
 38 79  2  0  0  0  0
 39 63  1  0  0  0  0
 39 74  1  0  0  0  0
 39 80  2  0  0  0  0
 40 69  1  0  0  0  0
 40 72  1  0  0  0  0
 40 81  2  0  0  0  0
 41 44  1  0  0  0  0
 42 51  1  0  0  0  0
 43 68  1  0  0  0  0
 44 46  1  0  0  0  0
 45 47  1  0  0  0  0
 45 48  1  0  0  0  0
 46 50  1  0  0  0  0
 47 52  1  0  0  0  0
 48 69  1  0  0  0  0
 49 52  1  0  0  0  0
 49 69  1  0  0  0  0
 50 73  1  0  0  0  0
 51 68  1  0  0  0  0
 52 67  1  0  0  0  0
 55 63  1  0  0  0  0
 56 64  1  0  0  0  0
 57 64  1  0  0  0  0
 58 64  1  0  0  0  0
 59 75  1  0  0  0  0
 61 83  1  0  0  0  0
 62 64  1  0  0  0  0
 62 74  1  0  0  0  0
 63 75  1  0  0  0  0
 65 67  1  0  0  0  0
M  CHG  1  75   1
M  ISO  4  40 100  61 101  72 100  83 101
M  END
> <Batch ID>
0057

> <Smiles>
CNC(C)C(=O)NC(C(=O)N1Cc2cc([101O:1][101CH2:1]C(=O)NC(C)=Cc3cc([100NH:0][100C:0](=O)N4CCCC(n5nc(-c6ccc(Oc7ccc(F)cc7F)cc6)c(C(N)=O)c5N)C4)ccc3C)ccc2CC1C(=O)NC1CCCc2ccccc21)C(C)(C)C

> <Shape>
0.237

> <Color>
0.066

> <Negative vol penalty>
0.000

$$$$

  -OEChem-04042322553D

 86 94  0     1  0  0  0  0  0999 V2000
  -29.9258  -24.2413   19.0838 C   0  0  0  0  0  0  0  0  0  0  0  0
  -28.5475  -24.4193   19.0208 C   0  0  0  0  0  0  0  0  0  0  0  0
  -28.1050  -14.6858   21.2104 C   0  0  0  0  0  0  0  0  0  0  0  0
  -26.1975  -15.4895   19.9643 C   0  0  0  0  0  0  0  0  0  0  0  0
  -21.9511  -24.2497   23.5229 C   0  0  0  0  0  0  0  0  0  0  0  0
  -30.6513  -24.7930   20.1389 C   0  0  0  0  0  0  0  0  0  0  0  0
  -27.8937  -25.1483   20.0136 C   0  0  0  0  0  0  0  0  0  0  0  0
  -23.0126  -28.7784   19.3046 C   0  0  0  0  0  0  0  0  0  0  0  0
  -23.2471  -23.7369   23.5779 C   0  0  0  0  0  0  0  0  0  0  0  0
  -27.5657  -13.3994   21.2062 C   0  0  0  0  0  0  0  0  0  0  0  0
  -25.6583  -14.2031   19.9600 C   0  0  0  0  0  0  0  0  0  0  0  0
  -21.6511  -28.5730   19.5238 C   0  0  0  0  0  0  0  0  0  0  0  0
  -23.9528  -11.0591   19.3087 C   0  0  0  0  0  0  0  0  0  0  0  0
  -23.4276  -10.5792   18.1089 C   0  0  0  0  0  0  0  0  0  0  0  0
  -21.8565  -29.5809   21.7058 C   0  0  0  0  0  0  0  0  0  0  0  0
  -22.9837  -22.8324   21.3531 C   0  0  0  0  0  0  0  0  0  0  0  0
  -25.5891  -10.8357   17.0603 C   0  0  0  0  0  0  0  0  0  0  0  0
  -27.4208  -15.7309   20.5896 C   0  0  0  0  0  0  0  0  0  0  0  0
  -21.1713  -24.0537   22.3831 C   0  0  0  0  0  0  0  0  0  0  0  0
  -28.8404  -17.6236   19.6356 C   0  0  0  0  0  0  0  0  0  0  0  0
  -30.0074  -25.5373   21.1399 C   0  0  0  0  0  0  0  0  0  0  0  0
  -23.8097  -29.3777   20.2904 C   0  0  0  0  0  0  0  0  0  0  0  0
  -28.6111  -25.7093   21.0838 C   0  0  0  0  0  0  0  0  0  0  0  0
  -23.2273  -29.7951   21.4957 C   0  0  0  0  0  0  0  0  0  0  0  0
  -21.6876  -23.3451   21.2982 C   0  0  0  0  0  0  0  0  0  0  0  0
  -23.7634  -23.0283   22.4930 C   0  0  0  0  0  0  0  0  0  0  0  0
  -26.3424  -13.1581   20.5810 C   0  0  0  0  0  0  0  0  0  0  0  0
  -21.0734  -28.9716   20.7256 C   0  0  0  0  0  0  0  0  0  0  0  0
  -25.2960  -11.4274   19.3843 C   0  0  0  0  0  0  0  0  0  0  0  0
  -24.2458  -10.4675   16.9847 C   0  0  0  0  0  0  0  0  0  0  0  0
  -26.1142  -11.3157   18.2601 C   0  0  0  0  0  0  0  0  0  0  0  0
  -27.9770  -17.0601   20.5941 C   0  0  0  0  0  0  0  0  0  0  0  0
  -29.0771  -18.8969   20.0930 C   0  0  0  0  0  0  0  0  0  0  0  0
  -19.7943  -24.6104   22.3523 C   0  0  0  0  0  0  0  0  0  0  0  0
  -29.3802  -17.0476   18.4387 C   0  0  0  0  0  0  0  0  0  0  0  0
  -26.3235  -28.4606   22.0060 C   0  0  0  0  0  0  0  0  0  0  0  0
  -26.2726  -31.5447   23.0100 C   0  0  0  0  0  0  0  0  0  0  0  0
  -24.4740  -34.4041   23.4959 C   0  0  0  0  0  0  0  0  0  0  0  0
  -25.9853  -22.6131   23.6053 C   0  0  0  0  0  0  0  0  0  0  0  0
  -30.8274  -26.0744   22.2861 C   0  0  0  0  0  0  0  0  0  0  0  0
  -25.2714  -29.6165   20.0279 C   0  0  0  0  0  0  0  0  0  0  0  0
  -24.0353  -30.4614   22.5780 C   0  0  0  0  0  0  0  0  0  0  0  0
  -30.1096  -27.1502   23.0970 C   0  0  0  0  0  0  0  0  0  0  0  0
  -29.3028  -21.4385   24.1456 C   0  0  0  0  0  0  0  0  0  0  0  0
  -28.6817  -26.7167   23.4132 C   0  0  0  0  0  0  0  0  0  0  0  0
  -29.4199  -20.2374   23.2045 C   0  0  0  0  0  0  0  0  0  0  0  0
  -27.9082  -21.5436   24.7602 C   0  0  0  0  0  0  0  0  0  0  0  0
  -26.9192  -20.3376   22.8532 C   0  0  0  0  0  0  0  0  0  0  0  0
  -27.8692  -26.5147   22.1284 C   0  0  1  0  0  0  0  0  0  0  0  0
  -26.0907  -29.7694   21.3057 C   0  0  1  0  0  0  0  0  0  0  0  0
  -28.2869  -20.2276   22.1596 C   0  0  2  0  0  0  0  0  0  0  0  0
  -20.8733  -23.1199   20.0660 C   0  0  0  0  0  0  0  0  0  0  0  0
  -24.6961  -36.7468   24.3673 C   0  0  0  0  0  0  0  0  0  0  0  0
  -26.2338  -30.4820   25.8699 C   0  0  0  0  0  0  0  0  0  0  0  0
  -25.5066  -32.7538   26.6302 C   0  0  0  0  0  0  0  0  0  0  0  0
  -27.7180  -32.4630   25.5132 C   0  0  0  0  0  0  0  0  0  0  0  0
  -16.8829  -28.2355   21.2480 C   0  0  0  0  0  0  0  0  0  0  0  0
  -17.3239  -25.9357   20.3453 C   0  0  0  0  0  0  0  0  0  0  0  0
  -23.7601  -35.5717   20.8718 C   0  0  0  0  0  0  0  0  0  0  0  0
  -18.4239  -26.6726   22.5107 C   0  0  0  0  0  0  0  0  0  0  0  0
  -19.1437  -27.6486   20.2994 C   0  0  0  0  0  0  0  0  0  1  0  0
  -25.6029  -32.2906   24.1388 C   0  0  1  0  0  0  0  0  0  0  0  0
  -24.7666  -35.8507   23.1407 C   0  0  2  0  0  0  0  0  0  0  0  0
  -26.2502  -31.9831   25.5186 C   0  0  0  0  0  0  0  0  0  0  0  0
  -17.9382  -27.1214   21.1117 C   0  0  0  0  0  0  0  0  0  0  0  0
  -27.6851  -17.9060   21.5857 N   0  0  0  0  0  0  0  0  0  0  0  0
  -28.3689  -19.0139   21.2527 N   0  0  0  0  0  0  0  0  0  0  0  0
  -25.4616  -30.6672   22.2765 N   0  0  0  0  0  0  0  0  0  0  0  0
  -26.8866  -21.5326   23.7109 N   0  0  0  0  0  0  0  0  0  0  0  0
  -29.8198  -19.9165   19.6124 N   0  0  0  0  0  0  0  0  0  0  0  0
  -29.0348  -15.7278   18.1177 N   0  0  0  0  0  0  0  0  0  0  0  0
  -25.0801  -22.5078   22.5498 N   0  0  0  0  0  0  0  0  0  0  0  0
  -19.6891  -25.9884   22.4955 N   0  0  0  0  0  0  0  0  0  0  0  0
  -27.4568  -27.7911   21.5853 N   0  0  0  0  0  0  0  0  0  0  0  0
  -25.6288  -33.7013   23.7678 N   0  0  0  0  0  0  0  0  0  0  0  0
  -23.7816  -36.3474   22.1386 N   0  3  0  0  0  0  0  0  0  0  0  0
  -18.8409  -23.8464   22.2261 O   0  0  0  0  0  0  0  0  0  0  0  0
  -30.1593  -17.6789   17.6850 O   0  0  0  0  0  0  0  0  0  0  0  0
  -25.5343  -28.0866   22.8656 O   0  0  0  0  0  0  0  0  0  0  0  0
  -27.4693  -31.7390   22.7828 O   0  0  0  0  0  0  0  0  0  0  0  0
  -23.3347  -33.9444   23.5324 O   0  0  0  0  0  0  0  0  0  0  0  0
  -26.0320  -23.5749   24.3765 O   0  0  0  0  0  0  0  0  0  0  0  0
  -25.8161  -11.9029   20.5764 O   0  0  0  0  0  0  0  0  0  0  0  0
  -19.7449  -28.7717   20.9424 O   0  0  0  0  0  0  0  0  0  1  0  0
  -23.7417  -10.0052   15.8330 F   0  0  0  0  0  0  0  0  0  0  0  0
  -27.4057  -11.6668   18.3270 F   0  0  0  0  0  0  0  0  0  0  0  0
  1  2  1  0  0  0  0
  1  6  2  0  0  0  0
  2  7  2  0  0  0  0
  3 10  2  0  0  0  0
  3 18  1  0  0  0  0
  4 11  1  0  0  0  0
  4 18  2  0  0  0  0
  5  9  2  0  0  0  0
  5 19  1  0  0  0  0
  6 21  1  0  0  0  0
  7 23  1  0  0  0  0
  8 12  2  0  0  0  0
  8 22  1  0  0  0  0
  9 26  1  0  0  0  0
 10 27  1  0  0  0  0
 11 27  2  0  0  0  0
 12 28  1  0  0  0  0
 13 14  2  0  0  0  0
 13 29  1  0  0  0  0
 14 30  1  0  0  0  0
 15 24  1  0  0  0  0
 15 28  2  0  0  0  0
 16 25  1  0  0  0  0
 16 26  2  0  0  0  0
 17 30  2  0  0  0  0
 17 31  1  0  0  0  0
 18 32  1  0  0  0  0
 19 25  2  0  0  0  0
 19 34  1  0  0  0  0
 20 32  1  0  0  0  0
 20 33  2  0  0  0  0
 20 35  1  0  0  0  0
 21 23  2  0  0  0  0
 21 40  1  0  0  0  0
 22 24  2  0  0  0  0
 22 41  1  0  0  0  0
 23 49  1  0  0  0  0
 24 42  1  0  0  0  0
 25 52  1  0  0  0  0
 26 72  1  0  0  0  0
 27 83  1  0  0  0  0
 28 84  1  0  0  0  0
 29 31  2  0  0  0  0
 29 83  1  0  0  0  0
 30 85  1  0  0  0  0
 31 86  1  0  0  0  0
 32 66  2  0  0  0  0
 33 67  1  0  0  0  0
 33 70  1  0  0  0  0
 34 73  1  0  0  0  0
 34 77  2  0  0  0  0
 35 71  1  0  0  0  0
 35 78  2  0  0  0  0
 36 50  1  0  0  0  0
 36 74  1  0  0  0  0
 36 79  2  0  0  0  0
 37 62  1  0  0  0  0
 37 68  1  0  0  0  0
 37 80  2  0  0  0  0
 38 63  1  0  0  0  0
 38 75  1  0  0  0  0
 38 81  2  0  0  0  0
 39 69  1  0  0  0  0
 39 72  1  0  0  0  0
 39 82  2  0  0  0  0
 40 43  1  0  0  0  0
 41 50  1  0  0  0  0
 42 68  1  0  0  0  0
 43 45  1  0  0  0  0
 44 46  1  0  0  0  0
 44 47  1  0  0  0  0
 45 49  1  0  0  0  0
 46 51  1  0  0  0  0
 47 69  1  0  0  0  0
 48 51  1  0  0  0  0
 48 69  1  0  0  0  0
 49 74  1  0  0  0  0
 50 68  1  0  0  0  0
 51 67  1  0  0  0  0
 53 63  1  0  0  0  0
 54 64  1  0  0  0  0
 55 64  1  0  0  0  0
 56 64  1  0  0  0  0
 57 65  1  0  0  0  0
 58 65  1  0  0  0  0
 59 76  1  0  0  0  0
 60 65  1  0  0  0  0
 60 73  1  0  0  0  0
 61 65  1  0  0  0  0
 61 84  1  0  0  0  0
 62 64  1  0  0  0  0
 62 75  1  0  0  0  0
 63 76  1  0  0  0  0
 66 67  1  0  0  0  0
M  CHG  1  76   1
M  ISO  4  39 100  61 101  72 100  84 101
M  END
> <Batch ID>
0057

> <Smiles>
CNC(C)C(=O)NC(C(=O)N1Cc2cc([101O:1][101CH2:1]C(C)(C)CNC(=O)c3ccc([100NH:0][100C:0](=O)N4CCCC(n5nc(-c6ccc(Oc7ccc(F)cc7F)cc6)c(C(N)=O)c5N)C4)cc3C)ccc2CC1C(=O)NC1CCCc2ccccc21)C(C)(C)C

> <Shape>
0.276

> <Color>
0.071

> <Negative vol penalty>
0.000

$$$$

  -OEChem-04042322553D

 84 92  0     1  0  0  0  0  0999 V2000
  -31.7922  -32.6260   23.4921 C   0  0  0  0  0  0  0  0  0  0  0  0
  -31.6624  -31.5512   22.6184 C   0  0  0  0  0  0  0  0  0  0  0  0
  -21.6704  -22.0261   19.4181 C   0  0  0  0  0  0  0  0  0  0  0  0
  -23.9532   -9.7698   21.9967 C   0  0  0  0  0  0  0  0  0  0  0  0
  -22.1949  -10.3701   20.4523 C   0  0  0  0  0  0  0  0  0  0  0  0
  -30.9276  -32.7477   24.5791 C   0  0  0  0  0  0  0  0  0  0  0  0
  -30.6684  -30.5968   22.8319 C   0  0  0  0  0  0  0  0  0  0  0  0
  -27.5123  -27.5492   18.5591 C   0  0  0  0  0  0  0  0  0  0  0  0
  -22.1533  -21.9888   18.1100 C   0  0  0  0  0  0  0  0  0  0  0  0
  -21.9778  -20.9940   20.3048 C   0  0  0  0  0  0  0  0  0  0  0  0
  -23.4695   -8.4622   22.0391 C   0  0  0  0  0  0  0  0  0  0  0  0
  -21.7112   -9.0624   20.4948 C   0  0  0  0  0  0  0  0  0  0  0  0
  -27.6579  -26.2727   18.0175 C   0  0  0  0  0  0  0  0  0  0  0  0
  -20.9549   -6.7849   23.5517 C   0  0  0  0  0  0  0  0  0  0  0  0
  -20.8484   -6.1744   24.8013 C   0  0  0  0  0  0  0  0  0  0  0  0
  -26.0145  -25.4329   19.5709 C   0  0  0  0  0  0  0  0  0  0  0  0
  -22.3746   -4.4436   24.0856 C   0  0  0  0  0  0  0  0  0  0  0  0
  -23.3158  -10.7238   21.2033 C   0  0  0  0  0  0  0  0  0  0  0  0
  -24.7732  -12.5987   20.2715 C   0  0  0  0  0  0  0  0  0  0  0  0
  -29.9164  -31.7995   24.8005 C   0  0  0  0  0  0  0  0  0  0  0  0
  -26.6232  -27.7753   19.6196 C   0  0  0  0  0  0  0  0  0  0  0  0
  -29.7903  -30.7051   23.9236 C   0  0  0  0  0  0  0  0  0  0  0  0
  -25.8575  -26.7136   20.1224 C   0  0  0  0  0  0  0  0  0  0  0  0
  -22.9435  -20.9194   17.6886 C   0  0  0  0  0  0  0  0  0  0  0  0
  -23.2509  -19.8874   18.5752 C   0  0  0  0  0  0  0  0  0  0  0  0
  -22.7681  -19.9247   19.8833 C   0  0  0  0  0  0  0  0  0  0  0  0
  -22.3485   -8.1085   21.2882 C   0  0  0  0  0  0  0  0  0  0  0  0
  -26.9111  -25.2138   18.5254 C   0  0  0  0  0  0  0  0  0  0  0  0
  -21.7712   -6.2248   22.5690 C   0  0  0  0  0  0  0  0  0  0  0  0
  -21.5582   -5.0037   25.0683 C   0  0  0  0  0  0  0  0  0  0  0  0
  -22.4810   -5.0541   22.8360 C   0  0  0  0  0  0  0  0  0  0  0  0
  -23.8146  -12.0748   21.1595 C   0  0  0  0  0  0  0  0  0  0  0  0
  -24.8984  -13.9160   20.6395 C   0  0  0  0  0  0  0  0  0  0  0  0
  -25.4864  -11.9524   19.2088 C   0  0  0  0  0  0  0  0  0  0  0  0
  -26.9212  -28.7744   22.6224 C   0  0  0  0  0  0  0  0  0  0  0  0
  -23.6788  -28.7018   22.5573 C   0  0  0  0  0  0  0  0  0  0  0  0
  -25.3128  -22.5491   16.0889 C   0  0  0  0  0  0  0  0  0  0  0  0
  -20.8369  -27.4280   21.1618 C   0  0  0  0  0  0  0  0  0  0  0  0
  -22.6591  -18.7911   22.1303 C   0  0  0  0  0  0  0  0  0  0  0  0
  -29.0358  -31.9477   26.0159 C   0  0  0  0  0  0  0  0  0  0  0  0
  -26.4581  -29.1634   20.1749 C   0  0  0  0  0  0  0  0  0  0  0  0
  -24.8744  -26.9078   21.2467 C   0  0  0  0  0  0  0  0  0  0  0  0
  -27.7703  -31.0959   25.9587 C   0  0  0  0  0  0  0  0  0  0  0  0
  -23.1566  -16.3807   24.7032 C   0  0  0  0  0  0  0  0  0  0  0  0
  -28.1031  -29.6745   25.5163 C   0  0  0  0  0  0  0  0  0  0  0  0
  -23.4510  -15.0887   23.9376 C   0  0  0  0  0  0  0  0  0  0  0  0
  -22.1114  -17.2368   23.9902 C   0  0  0  0  0  0  0  0  0  0  0  0
  -22.6997  -16.2386   21.8162 C   0  0  0  0  0  0  0  0  0  0  0  0
  -28.7088  -29.6627   24.1077 C   0  0  1  0  0  0  0  0  0  0  0  0
  -25.9011  -29.1765   21.5951 C   0  0  1  0  0  0  0  0  0  0  0  0
  -23.7943  -15.3736   22.4623 C   0  0  2  0  0  0  0  0  0  0  0  0
  -24.0994  -18.7422   18.1184 C   0  0  0  0  0  0  0  0  0  0  0  0
  -18.3361  -27.5295   21.3445 C   0  0  0  0  0  0  0  0  0  0  0  0
  -23.7927  -26.9520   25.0544 C   0  0  0  0  0  0  0  0  0  0  0  0
  -21.4075  -26.3178   24.6339 C   0  0  0  0  0  0  0  0  0  0  0  0
  -22.0024  -28.6980   25.0847 C   0  0  0  0  0  0  0  0  0  0  0  0
  -20.5602  -28.4464   18.3968 C   0  0  0  0  0  0  0  0  0  0  0  0
  -23.4502  -20.9042   16.2753 C   0  0  0  0  0  0  0  0  0  0  0  0
  -26.8315  -22.6008   16.0303 C   0  0  0  0  0  0  0  0  0  0  0  0
  -27.4054  -23.8801   16.6193 C   0  0  0  0  0  0  0  0  0  1  0  0
  -22.6264  -27.6638   22.8637 C   0  0  1  0  0  0  0  0  0  0  0  0
  -19.5704  -28.1006   20.6638 C   0  0  2  0  0  0  0  0  0  0  0  0
  -22.4771  -27.4035   24.3893 C   0  0  0  0  0  0  0  0  0  0  0  0
  -23.3632  -12.9850   22.0265 N   0  0  0  0  0  0  0  0  0  0  0  0
  -24.0410  -14.0941   21.6852 N   0  0  0  0  0  0  0  0  0  0  0  0
  -24.7533  -28.2822   21.7603 N   0  0  0  0  0  0  0  0  0  0  0  0
  -22.5057  -17.4691   22.5991 N   0  0  0  0  0  0  0  0  0  0  0  0
  -25.6574  -14.9278   20.1676 N   0  0  0  0  0  0  0  0  0  0  0  0
  -25.2373  -10.5948   18.9658 N   0  0  0  0  0  0  0  0  0  0  0  0
  -23.0685  -18.8875   20.8008 N   0  0  0  0  0  0  0  0  0  0  0  0
  -27.6727  -29.8262   23.1106 N   0  0  0  0  0  0  0  0  0  0  0  0
  -24.8527  -21.2449   16.1999 N   0  0  0  0  0  0  0  0  0  0  0  0
  -21.4027  -28.1187   22.2125 N   0  0  0  0  0  0  0  0  0  0  0  0
  -19.4265  -27.9097   19.1928 N   0  3  0  0  0  0  0  0  0  0  0  0
  -26.3320  -12.5567   18.5064 O   0  0  0  0  0  0  0  0  0  0  0  0
  -27.0182  -27.5973   22.9491 O   0  0  0  0  0  0  0  0  0  0  0  0
  -23.5486  -29.8447   23.0026 O   0  0  0  0  0  0  0  0  0  0  0  0
  -24.6025  -23.5497   16.0422 O   0  0  0  0  0  0  0  0  0  0  0  0
  -21.2780  -26.3914   20.6704 O   0  0  0  0  0  0  0  0  0  0  0  0
  -22.4697  -19.7654   22.8629 O   0  0  0  0  0  0  0  0  0  0  0  0
  -21.8764   -6.8326   21.3292 O   0  0  0  0  0  0  0  0  0  0  0  0
  -27.0517  -23.9667   17.9991 O   0  0  0  0  0  0  0  0  0  1  0  0
  -21.4571   -4.4184   26.2688 F   0  0  0  0  0  0  0  0  0  0  0  0
  -23.2677   -4.5119   21.8964 F   0  0  0  0  0  0  0  0  0  0  0  0
  1  2  1  0  0  0  0
  1  6  2  0  0  0  0
  2  7  2  0  0  0  0
  3  9  2  0  0  0  0
  3 10  1  0  0  0  0
  4 11  2  0  0  0  0
  4 18  1  0  0  0  0
  5 12  1  0  0  0  0
  5 18  2  0  0  0  0
  6 20  1  0  0  0  0
  7 22  1  0  0  0  0
  8 13  2  0  0  0  0
  8 21  1  0  0  0  0
  9 24  1  0  0  0  0
 10 26  2  0  0  0  0
 11 27  1  0  0  0  0
 12 27  2  0  0  0  0
 13 28  1  0  0  0  0
 14 15  2  0  0  0  0
 14 29  1  0  0  0  0
 15 30  1  0  0  0  0
 16 23  1  0  0  0  0
 16 28  2  0  0  0  0
 17 30  2  0  0  0  0
 17 31  1  0  0  0  0
 18 32  1  0  0  0  0
 19 32  1  0  0  0  0
 19 33  2  0  0  0  0
 19 34  1  0  0  0  0
 20 22  2  0  0  0  0
 20 40  1  0  0  0  0
 21 23  2  0  0  0  0
 21 41  1  0  0  0  0
 22 49  1  0  0  0  0
 23 42  1  0  0  0  0
 24 25  2  0  0  0  0
 24 58  1  0  0  0  0
 25 26  1  0  0  0  0
 25 52  1  0  0  0  0
 26 70  1  0  0  0  0
 27 81  1  0  0  0  0
 28 82  1  0  0  0  0
 29 31  2  0  0  0  0
 29 81  1  0  0  0  0
 30 83  1  0  0  0  0
 31 84  1  0  0  0  0
 32 64  2  0  0  0  0
 33 65  1  0  0  0  0
 33 68  1  0  0  0  0
 34 69  1  0  0  0  0
 34 75  2  0  0  0  0
 35 50  1  0  0  0  0
 35 71  1  0  0  0  0
 35 76  2  0  0  0  0
 36 61  1  0  0  0  0
 36 66  1  0  0  0  0
 36 77  2  0  0  0  0
 37 59  1  0  0  0  0
 37 72  1  0  0  0  0
 37 78  2  0  0  0  0
 38 62  1  0  0  0  0
 38 73  1  0  0  0  0
 38 79  2  0  0  0  0
 39 67  1  0  0  0  0
 39 70  1  0  0  0  0
 39 80  2  0  0  0  0
 40 43  1  0  0  0  0
 41 50  1  0  0  0  0
 42 66  1  0  0  0  0
 43 45  1  0  0  0  0
 44 46  1  0  0  0  0
 44 47  1  0  0  0  0
 45 49  1  0  0  0  0
 46 51  1  0  0  0  0
 47 67  1  0  0  0  0
 48 51  1  0  0  0  0
 48 67  1  0  0  0  0
 49 71  1  0  0  0  0
 50 66  1  0  0  0  0
 51 65  1  0  0  0  0
 53 62  1  0  0  0  0
 54 63  1  0  0  0  0
 55 63  1  0  0  0  0
 56 63  1  0  0  0  0
 57 74  1  0  0  0  0
 58 72  1  0  0  0  0
 59 60  1  0  0  0  0
 60 82  1  0  0  0  0
 61 63  1  0  0  0  0
 61 73  1  0  0  0  0
 62 74  1  0  0  0  0
 64 65  1  0  0  0  0
M  CHG  1  74   1
M  ISO  4  39 100  60 101  70 100  82 101
M  END
> <Batch ID>
0057

> <Smiles>
CNC(C)C(=O)NC(C(=O)N1Cc2cc([101O:1][101CH2:1]CC(=O)NCc3cccc([100NH:0][100C:0](=O)N4CCCC(n5nc(-c6ccc(Oc7ccc(F)cc7F)cc6)c(C(N)=O)c5N)C4)c3C)ccc2CC1C(=O)NC1CCCc2ccccc21)C(C)(C)C

> <Shape>
0.204

> <Color>
0.111

> <Negative vol penalty>
0.000

$$$$

  -OEChem-04042322553D

 85 93  0     1  0  0  0  0  0999 V2000
  -21.9509  -11.5121   21.0242 C   0  0  0  0  0  0  0  0  0  0  0  0
  -21.8607  -12.8302   21.4599 C   0  0  0  0  0  0  0  0  0  0  0  0
  -29.6143  -27.2792   23.3918 C   0  0  0  0  0  0  0  0  0  0  0  0
  -27.9229  -25.5546   23.3482 C   0  0  0  0  0  0  0  0  0  0  0  0
  -23.1856  -10.9877   20.6442 C   0  0  0  0  0  0  0  0  0  0  0  0
  -23.0054  -13.6244   21.5168 C   0  0  0  0  0  0  0  0  0  0  0  0
  -22.2492  -18.2608   19.6253 C   0  0  0  0  0  0  0  0  0  0  0  0
  -18.1288  -28.9442   23.5231 C   0  0  0  0  0  0  0  0  0  0  0  0
  -19.3155  -29.5058   23.0521 C   0  0  0  0  0  0  0  0  0  0  0  0
  -30.3067  -26.5753   24.3770 C   0  0  0  0  0  0  0  0  0  0  0  0
  -28.6154  -24.8506   24.3334 C   0  0  0  0  0  0  0  0  0  0  0  0
  -21.5814  -19.1779   20.4357 C   0  0  0  0  0  0  0  0  0  0  0  0
  -31.3138  -22.8240   24.5129 C   0  0  0  0  0  0  0  0  0  0  0  0
  -31.4723  -21.4497   24.3348 C   0  0  0  0  0  0  0  0  0  0  0  0
  -23.6943  -20.1720   21.0413 C   0  0  0  0  0  0  0  0  0  0  0  0
  -20.0519  -27.3276   22.3103 C   0  0  0  0  0  0  0  0  0  0  0  0
  -30.2833  -21.0452   26.3987 C   0  0  0  0  0  0  0  0  0  0  0  0
  -28.4223  -26.7689   22.8775 C   0  0  0  0  0  0  0  0  0  0  0  0
  -27.8597  -27.3805   20.4656 C   0  0  0  0  0  0  0  0  0  0  0  0
  -24.3444  -11.7788   20.6873 C   0  0  0  0  0  0  0  0  0  0  0  0
  -23.6477  -18.2855   19.5252 C   0  0  0  0  0  0  0  0  0  0  0  0
  -24.2570  -13.1097   21.1382 C   0  0  0  0  0  0  0  0  0  0  0  0
  -24.3772  -19.2558   20.2270 C   0  0  0  0  0  0  0  0  0  0  0  0
  -17.9037  -27.5742   23.3879 C   0  0  0  0  0  0  0  0  0  0  0  0
  -18.8652  -26.7660   22.7814 C   0  0  0  0  0  0  0  0  0  0  0  0
  -20.2771  -28.6975   22.4456 C   0  0  0  0  0  0  0  0  0  0  0  0
  -29.8073  -25.3610   24.8477 C   0  0  0  0  0  0  0  0  0  0  0  0
  -22.3041  -20.1319   21.1461 C   0  0  0  0  0  0  0  0  0  0  0  0
  -30.6401  -23.3090   25.6339 C   0  0  0  0  0  0  0  0  0  0  0  0
  -30.9571  -20.5603   25.2777 C   0  0  0  0  0  0  0  0  0  0  0  0
  -30.1249  -22.4195   26.5768 C   0  0  0  0  0  0  0  0  0  0  0  0
  -27.7063  -27.4959   21.8602 C   0  0  0  0  0  0  0  0  0  0  0  0
  -26.9581  -28.2767   19.9456 C   0  0  0  0  0  0  0  0  0  0  0  0
  -28.7386  -26.5383   19.7079 C   0  0  0  0  0  0  0  0  0  0  0  0
  -25.9833  -16.2477   20.2294 C   0  0  0  0  0  0  0  0  0  0  0  0
  -27.8417  -18.4891   18.7995 C   0  0  0  0  0  0  0  0  0  0  0  0
  -20.5348  -23.6432   22.6086 C   0  0  0  0  0  0  0  0  0  0  0  0
  -28.8093  -21.8934   18.0982 C   0  0  0  0  0  0  0  0  0  0  0  0
  -21.8619  -30.6086   22.0184 C   0  0  0  0  0  0  0  0  0  0  0  0
  -25.6645  -11.1536   20.3114 C   0  0  0  0  0  0  0  0  0  0  0  0
  -24.3511  -17.3063   18.6259 C   0  0  0  0  0  0  0  0  0  0  0  0
  -25.8785  -19.3375   20.1379 C   0  0  0  0  0  0  0  0  0  0  0  0
  -26.7679  -12.1743   20.0450 C   0  0  0  0  0  0  0  0  0  0  0  0
  -24.7573  -32.4021   20.9805 C   0  0  0  0  0  0  0  0  0  0  0  0
  -26.7929  -13.2325   21.1434 C   0  0  0  0  0  0  0  0  0  0  0  0
  -25.8547  -31.3358   20.9556 C   0  0  0  0  0  0  0  0  0  0  0  0
  -23.7804  -32.1837   22.1345 C   0  0  0  0  0  0  0  0  0  0  0  0
  -24.2894  -29.7737   22.1789 C   0  0  0  0  0  0  0  0  0  0  0  0
  -25.4721  -14.0102   21.1903 C   0  0  1  0  0  0  0  0  0  0  0  0
  -25.8149  -17.0958   19.0006 C   0  0  1  0  0  0  0  0  0  0  0  0
  -25.2603  -29.9143   20.9952 C   0  0  2  0  0  0  0  0  0  0  0  0
  -16.6259  -26.9957   23.9007 C   0  0  0  0  0  0  0  0  0  0  0  0
  -30.5972  -22.8038   16.5909 C   0  0  0  0  0  0  0  0  0  0  0  0
  -29.5605  -18.4920   21.3205 C   0  0  0  0  0  0  0  0  0  0  0  0
  -30.5622  -20.6536   20.5511 C   0  0  0  0  0  0  0  0  0  0  0  0
  -30.8490  -18.5900   19.1794 C   0  0  0  0  0  0  0  0  0  0  0  0
  -19.7463  -24.6889   24.7430 C   0  0  0  0  0  0  0  0  0  0  0  0
  -26.8728  -23.5806   16.6278 C   0  0  0  0  0  0  0  0  0  0  0  0
  -18.6438  -25.2895   22.6230 C   0  0  0  0  0  0  0  0  0  0  0  0
  -21.5597  -22.8967   23.4563 C   0  0  0  0  0  0  0  0  0  0  0  0
  -22.4578  -21.9777   22.6378 C   0  0  0  0  0  0  0  0  0  1  0  0
  -28.5871  -19.7161   19.2663 C   0  0  1  0  0  0  0  0  0  0  0  0
  -29.1166  -22.4886   16.7359 C   0  0  2  0  0  0  0  0  0  0  0  0
  -29.8616  -19.3604   20.0827 C   0  0  0  0  0  0  0  0  0  0  0  0
  -26.7802  -28.3948   22.2044 N   0  0  0  0  0  0  0  0  0  0  0  0
  -26.3436  -28.8523   21.0186 N   0  0  0  0  0  0  0  0  0  0  0  0
  -26.5210  -18.3542   19.2503 N   0  0  0  0  0  0  0  0  0  0  0  0
  -23.2547  -30.8171   22.1055 N   0  0  0  0  0  0  0  0  0  0  0  0
  -26.6389  -28.6206   18.6798 N   0  0  0  0  0  0  0  0  0  0  0  0
  -29.6002  -25.6768   20.4006 N   0  0  0  0  0  0  0  0  0  0  0  0
  -21.4819  -29.2679   21.9651 N   0  0  0  0  0  0  0  0  0  0  0  0
  -25.4236  -14.9886   20.1250 N   0  0  0  0  0  0  0  0  0  0  0  0
  -28.8454  -20.5152   18.0733 N   0  0  0  0  0  0  0  0  0  0  0  0
  -19.6760  -24.5062   23.2985 N   0  0  0  0  0  0  0  0  0  0  0  0
  -28.3460  -23.7483   16.5353 N   0  3  0  0  0  0  0  0  0  0  0  0
  -28.7708  -26.5613   18.4541 O   0  0  0  0  0  0  0  0  0  0  0  0
  -26.5784  -16.7014   21.1998 O   0  0  0  0  0  0  0  0  0  0  0  0
  -28.4080  -17.6838   18.0562 O   0  0  0  0  0  0  0  0  0  0  0  0
  -20.4899  -23.4760   21.3870 O   0  0  0  0  0  0  0  0  0  0  0  0
  -28.5657  -22.5822   19.0865 O   0  0  0  0  0  0  0  0  0  0  0  0
  -21.0668  -31.5503   21.9655 O   0  0  0  0  0  0  0  0  0  0  0  0
  -30.4829  -24.6736   25.8089 O   0  0  0  0  0  0  0  0  0  0  0  0
  -21.6549  -21.0278   21.9383 O   0  0  0  0  0  0  0  0  0  1  0  0
  -31.1080  -19.2405   25.1058 F   0  0  0  0  0  0  0  0  0  0  0  0
  -29.4757  -22.8794   27.6552 F   0  0  0  0  0  0  0  0  0  0  0  0
  1  2  1  0  0  0  0
  1  5  2  0  0  0  0
  2  6  2  0  0  0  0
  3 10  2  0  0  0  0
  3 18  1  0  0  0  0
  4 11  1  0  0  0  0
  4 18  2  0  0  0  0
  5 20  1  0  0  0  0
  6 22  1  0  0  0  0
  7 12  2  0  0  0  0
  7 21  1  0  0  0  0
  8  9  2  0  0  0  0
  8 24  1  0  0  0  0
  9 26  1  0  0  0  0
 10 27  1  0  0  0  0
 11 27  2  0  0  0  0
 12 28  1  0  0  0  0
 13 14  2  0  0  0  0
 13 29  1  0  0  0  0
 14 30  1  0  0  0  0
 15 23  1  0  0  0  0
 15 28  2  0  0  0  0
 16 25  1  0  0  0  0
 16 26  2  0  0  0  0
 17 30  2  0  0  0  0
 17 31  1  0  0  0  0
 18 32  1  0  0  0  0
 19 32  1  0  0  0  0
 19 33  2  0  0  0  0
 19 34  1  0  0  0  0
 20 22  2  0  0  0  0
 20 40  1  0  0  0  0
 21 23  2  0  0  0  0
 21 41  1  0  0  0  0
 22 49  1  0  0  0  0
 23 42  1  0  0  0  0
 24 25  2  0  0  0  0
 24 52  1  0  0  0  0
 25 59  1  0  0  0  0
 26 71  1  0  0  0  0
 27 82  1  0  0  0  0
 28 83  1  0  0  0  0
 29 31  2  0  0  0  0
 29 82  1  0  0  0  0
 30 84  1  0  0  0  0
 31 85  1  0  0  0  0
 32 65  2  0  0  0  0
 33 66  1  0  0  0  0
 33 69  1  0  0  0  0
 34 70  1  0  0  0  0
 34 76  2  0  0  0  0
 35 50  1  0  0  0  0
 35 72  1  0  0  0  0
 35 77  2  0  0  0  0
 36 62  1  0  0  0  0
 36 67  1  0  0  0  0
 36 78  2  0  0  0  0
 37 60  1  0  0  0  0
 37 74  1  0  0  0  0
 37 79  2  0  0  0  0
 38 63  1  0  0  0  0
 38 73  1  0  0  0  0
 38 80  2  0  0  0  0
 39 68  1  0  0  0  0
 39 71  1  0  0  0  0
 39 81  2  0  0  0  0
 40 43  1  0  0  0  0
 41 50  1  0  0  0  0
 42 67  1  0  0  0  0
 43 45  1  0  0  0  0
 44 46  1  0  0  0  0
 44 47  1  0  0  0  0
 45 49  1  0  0  0  0
 46 51  1  0  0  0  0
 47 68  1  0  0  0  0
 48 51  1  0  0  0  0
 48 68  1  0  0  0  0
 49 72  1  0  0  0  0
 50 67  1  0  0  0  0
 51 66  1  0  0  0  0
 53 63  1  0  0  0  0
 54 64  1  0  0  0  0
 55 64  1  0  0  0  0
 56 64  1  0  0  0  0
 57 74  1  0  0  0  0
 58 75  1  0  0  0  0
 59 74  1  0  0  0  0
 60 61  1  0  0  0  0
 61 83  1  0  0  0  0
 62 64  1  0  0  0  0
 62 73  1  0  0  0  0
 63 75  1  0  0  0  0
 65 66  1  0  0  0  0
M  CHG  1  75   1
M  ISO  4  39 100  61 101  71 100  83 101
M  END
> <Batch ID>
0057

> <Smiles>
CNC(C)C(=O)NC(C(=O)N1Cc2cc([101O:1][101CH2:1]CC(=O)N(C)Cc3cc([100NH:0][100C:0](=O)N4CCCC(n5nc(-c6ccc(Oc7ccc(F)cc7F)cc6)c(C(N)=O)c5N)C4)ccc3C)ccc2CC1C(=O)NC1CCCc2ccccc21)C(C)(C)C

> <Shape>
0.236

> <Color>
0.089

> <Negative vol penalty>
0.000

$$$$

  -OEChem-04042322553D

 85 93  0     1  0  0  0  0  0999 V2000
  -16.6139  -30.2258   23.1690 C   0  0  0  0  0  0  0  0  0  0  0  0
  -17.6979  -30.6944   22.4336 C   0  0  0  0  0  0  0  0  0  0  0  0
  -26.6067  -12.5381   21.7463 C   0  0  0  0  0  0  0  0  0  0  0  0
  -25.9505  -13.8872   19.8525 C   0  0  0  0  0  0  0  0  0  0  0  0
  -16.8187  -29.3252   24.2134 C   0  0  0  0  0  0  0  0  0  0  0  0
  -18.9875  -30.2634   22.7430 C   0  0  0  0  0  0  0  0  0  0  0  0
  -23.0554  -26.9125   17.8323 C   0  0  0  0  0  0  0  0  0  0  0  0
  -31.3537  -23.1233   19.0830 C   0  0  0  0  0  0  0  0  0  0  0  0
  -30.9678  -22.2413   20.0924 C   0  0  0  0  0  0  0  0  0  0  0  0
  -25.3491  -11.9350   21.7525 C   0  0  0  0  0  0  0  0  0  0  0  0
  -24.6928  -13.2840   19.8586 C   0  0  0  0  0  0  0  0  0  0  0  0
  -23.9723  -26.4531   16.8866 C   0  0  0  0  0  0  0  0  0  0  0  0
  -23.7357   -9.5207   20.0201 C   0  0  0  0  0  0  0  0  0  0  0  0
  -23.6823   -8.1342   20.1632 C   0  0  0  0  0  0  0  0  0  0  0  0
  -29.2100  -21.3857   18.6728 C   0  0  0  0  0  0  0  0  0  0  0  0
  -25.6436  -26.1974   18.6156 C   0  0  0  0  0  0  0  0  0  0  0  0
  -22.3806   -8.3926   22.1821 C   0  0  0  0  0  0  0  0  0  0  0  0
  -26.9075  -13.5143   20.7963 C   0  0  0  0  0  0  0  0  0  0  0  0
  -29.5959  -22.2677   17.6634 C   0  0  0  0  0  0  0  0  0  0  0  0
  -29.3506  -13.7117   20.0892 C   0  0  0  0  0  0  0  0  0  0  0  0
  -18.1104  -28.8755   24.5295 C   0  0  0  0  0  0  0  0  0  0  0  0
  -23.4248  -27.0016   19.1773 C   0  0  0  0  0  0  0  0  0  0  0  0
  -19.2098  -29.3569   23.7935 C   0  0  0  0  0  0  0  0  0  0  0  0
  -24.7256  -26.6450   19.5693 C   0  0  0  0  0  0  0  0  0  0  0  0
  -30.6677  -23.1366   17.8685 C   0  0  0  0  0  0  0  0  0  0  0  0
  -29.8960  -21.3725   19.8873 C   0  0  0  0  0  0  0  0  0  0  0  0
  -24.3921  -12.3079   20.8087 C   0  0  0  0  0  0  0  0  0  0  0  0
  -25.2633  -26.0967   17.2773 C   0  0  0  0  0  0  0  0  0  0  0  0
  -23.1116  -10.3432   20.9581 C   0  0  0  0  0  0  0  0  0  0  0  0
  -23.0048   -7.5702   21.2441 C   0  0  0  0  0  0  0  0  0  0  0  0
  -22.4341   -9.7791   22.0391 C   0  0  0  0  0  0  0  0  0  0  0  0
  -28.2063  -14.1380   20.7897 C   0  0  0  0  0  0  0  0  0  0  0  0
  -30.3146  -14.6352   20.4120 C   0  0  0  0  0  0  0  0  0  0  0  0
  -28.8484  -22.2604   16.3796 C   0  0  0  0  0  0  0  0  0  0  0  0
  -29.5263  -12.5819   19.2241 C   0  0  0  0  0  0  0  0  0  0  0  0
  -22.4048  -27.8708   22.6816 C   0  0  0  0  0  0  0  0  0  0  0  0
  -26.6517  -23.9559   14.7533 C   0  0  0  0  0  0  0  0  0  0  0  0
  -24.1103  -25.3269   22.8550 C   0  0  0  0  0  0  0  0  0  0  0  0
  -25.6771  -22.3099   22.5717 C   0  0  0  0  0  0  0  0  0  0  0  0
  -30.0757  -20.3388   22.1776 C   0  0  0  0  0  0  0  0  0  0  0  0
  -18.2871  -27.9380   25.6977 C   0  0  0  0  0  0  0  0  0  0  0  0
  -22.4893  -27.5493   20.2206 C   0  0  0  0  0  0  0  0  0  0  0  0
  -25.0894  -26.7900   21.0217 C   0  0  0  0  0  0  0  0  0  0  0  0
  -19.6454  -27.2418   25.7199 C   0  0  0  0  0  0  0  0  0  0  0  0
  -31.6042  -17.6337   23.9163 C   0  0  0  0  0  0  0  0  0  0  0  0
  -20.7645  -28.2466   25.4655 C   0  0  0  0  0  0  0  0  0  0  0  0
  -31.0151  -16.3915   23.2440 C   0  0  0  0  0  0  0  0  0  0  0  0
  -30.5769  -18.7587   24.0289 C   0  0  0  0  0  0  0  0  0  0  0  0
  -29.3247  -17.8801   22.0977 C   0  0  0  0  0  0  0  0  0  0  0  0
  -20.6212  -28.8937   24.0827 C   0  0  1  0  0  0  0  0  0  0  0  0
  -22.6496  -26.8688   21.5919 C   0  0  1  0  0  0  0  0  0  0  0  0
  -30.3407  -16.7426   21.9033 C   0  0  2  0  0  0  0  0  0  0  0  0
  -31.1017  -24.0912   16.8045 C   0  0  0  0  0  0  0  0  0  0  0  0
  -26.5286  -20.3952   23.9524 C   0  0  0  0  0  0  0  0  0  0  0  0
  -26.5017  -27.0144   23.7136 C   0  0  0  0  0  0  0  0  0  0  0  0
  -27.7225  -24.8915   24.2346 C   0  0  0  0  0  0  0  0  0  0  0  0
  -25.6337  -25.4631   25.4727 C   0  0  0  0  0  0  0  0  0  0  0  0
  -23.8707  -20.3875   21.2299 C   0  0  0  0  0  0  0  0  0  0  0  0
  -26.6297  -22.5574   15.3093 C   0  0  0  0  0  0  0  0  0  0  0  0
  -25.6174  -24.9481   15.2247 C   0  0  0  0  0  0  0  0  0  1  0  0
  -25.4824  -24.7351   23.0563 C   0  0  1  0  0  0  0  0  0  0  0  0
  -25.3545  -20.9480   23.1594 C   0  0  2  0  0  0  0  0  0  0  0  0
  -26.3245  -25.5306   24.0933 C   0  0  0  0  0  0  0  0  0  0  0  0
  -28.4218  -15.2461   21.5037 N   0  0  0  0  0  0  0  0  0  0  0  0
  -27.5451  -24.2821   13.8763 N   0  0  0  0  0  0  0  0  0  0  0  0
  -29.7127  -15.5238   21.2536 N   0  0  0  0  0  0  0  0  0  0  0  0
  -23.9845  -26.3107   21.8667 N   0  0  0  0  0  0  0  0  0  0  0  0
  -29.9831  -19.0395   22.7199 N   0  0  0  0  0  0  0  0  0  0  0  0
  -31.6100  -14.7657   20.0552 N   0  0  0  0  0  0  0  0  0  0  0  0
  -28.4323  -11.7349   19.0008 N   0  0  0  0  0  0  0  0  0  0  0  0
  -29.5032  -20.4782   20.9137 N   0  0  0  0  0  0  0  0  0  0  0  0
  -27.4881  -22.5496   16.4560 N   0  0  0  0  0  0  0  0  0  0  0  0
  -21.0784  -27.9877   23.0509 N   0  0  0  0  0  0  0  0  0  0  0  0
  -25.2754  -23.3334   23.4038 N   0  0  0  0  0  0  0  0  0  0  0  0
  -25.0230  -19.9811   22.0749 N   0  3  0  0  0  0  0  0  0  0  0  0
  -29.4433  -21.9868   15.3405 O   0  0  0  0  0  0  0  0  0  0  0  0
  -30.6256  -12.3218   18.6787 O   0  0  0  0  0  0  0  0  0  0  0  0
  -23.3494  -28.4919   23.1545 O   0  0  0  0  0  0  0  0  0  0  0  0
  -23.1748  -24.9335   23.5574 O   0  0  0  0  0  0  0  0  0  0  0  0
  -26.2334  -22.4516   21.4849 O   0  0  0  0  0  0  0  0  0  0  0  0
  -30.6465  -21.2533   22.7775 O   0  0  0  0  0  0  0  0  0  0  0  0
  -23.1648  -11.7194   20.8143 O   0  0  0  0  0  0  0  0  0  0  0  0
  -26.1520  -25.6447   16.3496 O   0  0  0  0  0  0  0  0  0  1  0  0
  -22.9523   -6.2387   21.3805 F   0  0  0  0  0  0  0  0  0  0  0  0
  -21.8316  -10.5641   22.9427 F   0  0  0  0  0  0  0  0  0  0  0  0
  1  2  1  0  0  0  0
  1  5  2  0  0  0  0
  2  6  2  0  0  0  0
  3 10  2  0  0  0  0
  3 18  1  0  0  0  0
  4 11  1  0  0  0  0
  4 18  2  0  0  0  0
  5 21  1  0  0  0  0
  6 23  1  0  0  0  0
  7 12  2  0  0  0  0
  7 22  1  0  0  0  0
  8  9  2  0  0  0  0
  8 25  1  0  0  0  0
  9 26  1  0  0  0  0
 10 27  1  0  0  0  0
 11 27  2  0  0  0  0
 12 28  1  0  0  0  0
 13 14  2  0  0  0  0
 13 29  1  0  0  0  0
 14 30  1  0  0  0  0
 15 19  1  0  0  0  0
 15 26  2  0  0  0  0
 16 24  1  0  0  0  0
 16 28  2  0  0  0  0
 17 30  2  0  0  0  0
 17 31  1  0  0  0  0
 18 32  1  0  0  0  0
 19 25  2  0  0  0  0
 19 34  1  0  0  0  0
 20 32  1  0  0  0  0
 20 33  2  0  0  0  0
 20 35  1  0  0  0  0
 21 23  2  0  0  0  0
 21 41  1  0  0  0  0
 22 24  2  0  0  0  0
 22 42  1  0  0  0  0
 23 50  1  0  0  0  0
 24 43  1  0  0  0  0
 25 53  1  0  0  0  0
 26 71  1  0  0  0  0
 27 82  1  0  0  0  0
 28 83  1  0  0  0  0
 29 31  2  0  0  0  0
 29 82  1  0  0  0  0
 30 84  1  0  0  0  0
 31 85  1  0  0  0  0
 32 64  2  0  0  0  0
 33 66  1  0  0  0  0
 33 69  1  0  0  0  0
 34 72  1  0  0  0  0
 34 76  2  0  0  0  0
 35 70  1  0  0  0  0
 35 77  2  0  0  0  0
 36 51  1  0  0  0  0
 36 73  1  0  0  0  0
 36 78  2  0  0  0  0
 37 59  1  0  0  0  0
 37 60  1  0  0  0  0
 37 65  2  0  0  0  0
 38 61  1  0  0  0  0
 38 67  1  0  0  0  0
 38 79  2  0  0  0  0
 39 62  1  0  0  0  0
 39 74  1  0  0  0  0
 39 80  2  0  0  0  0
 40 68  1  0  0  0  0
 40 71  1  0  0  0  0
 40 81  2  0  0  0  0
 41 44  1  0  0  0  0
 42 51  1  0  0  0  0
 43 67  1  0  0  0  0
 44 46  1  0  0  0  0
 45 47  1  0  0  0  0
 45 48  1  0  0  0  0
 46 50  1  0  0  0  0
 47 52  1  0  0  0  0
 48 68  1  0  0  0  0
 49 52  1  0  0  0  0
 49 68  1  0  0  0  0
 50 73  1  0  0  0  0
 51 67  1  0  0  0  0
 52 66  1  0  0  0  0
 54 62  1  0  0  0  0
 55 63  1  0  0  0  0
 56 63  1  0  0  0  0
 57 63  1  0  0  0  0
 58 75  1  0  0  0  0
 59 72  1  0  0  0  0
 60 83  1  0  0  0  0
 61 63  1  0  0  0  0
 61 74  1  0  0  0  0
 62 75  1  0  0  0  0
 64 66  1  0  0  0  0
M  CHG  1  75   1
M  ISO  4  40 100  60 101  71 100  83 101
M  END
> <Batch ID>
0057

> <Smiles>
CNC(C)C(=O)NC(C(=O)N1Cc2cc([101O:1][101CH2:1]C(=N)CNC(=O)c3cc([100NH:0][100C:0](=O)N4CCCC(n5nc(-c6ccc(Oc7ccc(F)cc7F)cc6)c(C(N)=O)c5N)C4)ccc3C)ccc2CC1C(=O)NC1CCCc2ccccc21)C(C)(C)C

> <Shape>
0.230

> <Color>
0.084

> <Negative vol penalty>
0.000

$$$$

  -OEChem-04042322553D

 92101  0     1  0  0  0  0  0999 V2000
  -30.2822  -32.1443   13.2427 C   0  0  0  0  0  0  0  0  0  0  0  0
  -29.0997  -31.6658   13.7980 C   0  0  0  0  0  0  0  0  0  0  0  0
  -32.6612  -17.4578   23.4692 C   0  0  0  0  0  0  0  0  0  0  0  0
  -23.0738   -9.8662   19.9300 C   0  0  0  0  0  0  0  0  0  0  0  0
  -23.8358   -9.8574   22.2227 C   0  0  0  0  0  0  0  0  0  0  0  0
  -31.8812  -18.3260   24.2329 C   0  0  0  0  0  0  0  0  0  0  0  0
  -31.2199  -31.2511   12.7262 C   0  0  0  0  0  0  0  0  0  0  0  0
  -28.8539  -30.2937   13.8360 C   0  0  0  0  0  0  0  0  0  0  0  0
  -27.7058  -26.9041   20.0877 C   0  0  0  0  0  0  0  0  0  0  0  0
  -32.0535  -16.5870   22.5646 C   0  0  0  0  0  0  0  0  0  0  0  0
  -22.3322   -8.7099   20.1720 C   0  0  0  0  0  0  0  0  0  0  0  0
  -23.0942   -8.7011   22.4647 C   0  0  0  0  0  0  0  0  0  0  0  0
  -27.2685  -26.2211   21.2228 C   0  0  0  0  0  0  0  0  0  0  0  0
  -19.8680   -7.8931   23.0643 C   0  0  0  0  0  0  0  0  0  0  0  0
  -19.1122   -7.8431   24.2355 C   0  0  0  0  0  0  0  0  0  0  0  0
  -27.1484  -24.1664   19.9532 C   0  0  0  0  0  0  0  0  0  0  0  0
  -20.3577   -5.9024   24.9563 C   0  0  0  0  0  0  0  0  0  0  0  0
  -23.8257  -10.4399   20.9553 C   0  0  0  0  0  0  0  0  0  0  0  0
  -30.4935  -18.3235   24.0921 C   0  0  0  0  0  0  0  0  0  0  0  0
  -24.1630  -12.9665   20.8538 C   0  0  0  0  0  0  0  0  0  0  0  0
  -30.9897  -29.8669   12.7667 C   0  0  0  0  0  0  0  0  0  0  0  0
  -27.8810  -26.2169   18.8834 C   0  0  0  0  0  0  0  0  0  0  0  0
  -29.7888  -29.3813   13.3184 C   0  0  0  0  0  0  0  0  0  0  0  0
  -27.5981  -24.8427   18.8160 C   0  0  0  0  0  0  0  0  0  0  0  0
  -29.8857  -17.4528   23.1876 C   0  0  0  0  0  0  0  0  0  0  0  0
  -30.6657  -16.5845   22.4238 C   0  0  0  0  0  0  0  0  0  0  0  0
  -22.3423   -8.1274   21.4394 C   0  0  0  0  0  0  0  0  0  0  0  0
  -26.9903  -24.8557   21.1556 C   0  0  0  0  0  0  0  0  0  0  0  0
  -20.8686   -6.9477   22.8389 C   0  0  0  0  0  0  0  0  0  0  0  0
  -19.3570   -6.8478   25.1816 C   0  0  0  0  0  0  0  0  0  0  0  0
  -21.1134   -5.9524   23.7850 C   0  0  0  0  0  0  0  0  0  0  0  0
  -24.5924  -11.6340   20.7058 C   0  0  0  0  0  0  0  0  0  0  0  0
  -25.2535  -13.7206   20.4952 C   0  0  0  0  0  0  0  0  0  0  0  0
  -28.0610  -22.4311   24.0285 C   0  0  0  0  0  0  0  0  0  0  0  0
  -29.6905  -19.2608   24.9191 C   0  0  0  0  0  0  0  0  0  0  0  0
  -22.8920  -13.4769   21.2778 C   0  0  0  0  0  0  0  0  0  0  0  0
  -28.8911  -26.3773   15.2737 C   0  0  0  0  0  0  0  0  0  0  0  0
  -30.0318  -23.7631   16.4029 C   0  0  0  0  0  0  0  0  0  0  0  0
  -31.4662  -21.1977   18.1344 C   0  0  0  0  0  0  0  0  0  0  0  0
  -30.7180  -14.7744   20.6726 C   0  0  0  0  0  0  0  0  0  0  0  0
  -32.0117  -28.9429   12.1532 C   0  0  0  0  0  0  0  0  0  0  0  0
  -28.2911  -26.9245   17.6205 C   0  0  0  0  0  0  0  0  0  0  0  0
  -27.7677  -24.1516   17.4907 C   0  0  0  0  0  0  0  0  0  0  0  0
  -31.8426  -27.4844   12.5710 C   0  0  0  0  0  0  0  0  0  0  0  0
  -29.6056  -12.3764   18.2874 C   0  0  0  0  0  0  0  0  0  0  0  0
  -30.3800  -27.0646   12.4643 C   0  0  0  0  0  0  0  0  0  0  0  0
  -28.1668  -12.0791   18.7161 C   0  0  0  0  0  0  0  0  0  0  0  0
  -25.7188  -22.9276   24.7578 C   0  0  0  0  0  0  0  0  0  0  0  0
  -26.6922  -20.6373   25.1187 C   0  0  0  0  0  0  0  0  0  0  0  0
  -30.5214  -12.5978   19.4898 C   0  0  0  0  0  0  0  0  0  0  0  0
  -28.6145  -13.3086   20.8783 C   0  0  0  0  0  0  0  0  0  0  0  0
  -29.4970  -27.8986   13.4004 C   0  0  1  0  0  0  0  0  0  0  0  0
  -27.1069  -23.5225   24.5139 C   0  0  2  0  0  0  0  0  0  0  0  0
  -28.1021  -21.1665   24.8813 C   0  0  1  0  0  0  0  0  0  0  0  0
  -29.1875  -26.0650   16.7111 C   0  0  1  0  0  0  0  0  0  0  0  0
  -27.6409  -13.1424   19.7001 C   0  0  2  0  0  0  0  0  0  0  0  0
  -25.7753  -21.7173   25.6901 C   0  0  2  0  0  0  0  0  0  0  0  0
  -28.3960  -17.4509   23.0378 C   0  0  0  0  0  0  0  0  0  0  0  0
  -22.3261  -21.2806   26.8879 C   0  0  0  0  0  0  0  0  0  0  0  0
  -32.9637  -19.2078   17.8263 C   0  0  0  0  0  0  0  0  0  0  0  0
  -27.7253  -22.2298   15.1251 C   0  0  0  0  0  0  0  0  0  0  0  0
  -28.9079  -20.1025   15.7118 C   0  0  0  0  0  0  0  0  0  0  0  0
  -29.9750  -21.7316   14.1530 C   0  0  0  0  0  0  0  0  0  0  0  0
  -33.4876  -22.2838   20.0035 C   0  0  0  0  0  0  0  0  0  0  0  0
  -27.0276  -24.6840   23.5277 C   0  0  0  0  0  0  0  0  0  1  0  0
  -23.6988  -21.9085   26.7740 C   0  0  0  0  0  0  0  0  0  0  0  0
  -29.8324  -22.2839   16.6161 C   0  0  1  0  0  0  0  0  0  0  0  0
  -32.8947  -20.6858   18.1776 C   0  0  2  0  0  0  0  0  0  0  0  0
  -29.1036  -21.6059   15.4217 C   0  0  0  0  0  0  0  0  0  0  0  0
  -25.8571  -11.5435   20.2856 N   0  0  0  0  0  0  0  0  0  0  0  0
  -26.2316  -12.8287   20.1665 N   0  0  0  0  0  0  0  0  0  0  0  0
  -29.0056  -24.6092   16.8403 N   0  0  0  0  0  0  0  0  0  0  0  0
  -29.9615  -13.6210   20.3754 N   0  0  0  0  0  0  0  0  0  0  0  0
  -25.4615  -15.0529   20.4319 N   0  0  0  0  0  0  0  0  0  0  0  0
  -21.8820  -12.5635   21.6092 N   0  0  0  0  0  0  0  0  0  0  0  0
  -30.0698  -15.6921   21.4985 N   0  0  0  0  0  0  0  0  0  0  0  0
  -28.9152  -20.1782   24.2218 N   0  0  0  0  0  0  0  0  0  0  0  0
  -29.6245  -27.4319   14.7643 N   0  0  0  0  0  0  0  0  0  0  0  0
  -31.1519  -21.7312   16.9025 N   0  0  0  0  0  0  0  0  0  0  0  0
  -33.4709  -20.8727   19.5392 N   0  3  0  0  0  0  0  0  0  0  0  0
  -28.8228  -22.6069   23.0779 O   0  0  0  0  0  0  0  0  0  0  0  0
  -29.7645  -19.1952   26.1433 O   0  0  0  0  0  0  0  0  0  0  0  0
  -22.6537  -14.7067   21.3446 O   0  0  0  0  0  0  0  0  0  0  0  0
  -28.0594  -25.7103   14.6695 O   0  0  0  0  0  0  0  0  0  0  0  0
  -31.0659  -24.1600   15.8583 O   0  0  0  0  0  0  0  0  0  0  0  0
  -30.7041  -21.1276   19.0962 O   0  0  0  0  0  0  0  0  0  0  0  0
  -31.8464  -14.9485   20.2052 O   0  0  0  0  0  0  0  0  0  0  0  0
  -21.6185   -6.9992   21.6760 O   0  0  0  0  0  0  0  0  0  0  0  0
  -26.5681  -24.1941   22.2686 O   0  0  0  0  0  0  0  0  0  1  0  0
  -24.4695  -21.1692   25.8377 O   0  0  0  0  0  0  0  0  0  0  0  0
  -18.6322   -6.8008   26.3070 F   0  0  0  0  0  0  0  0  0  0  0  0
  -22.0741   -5.0421   23.5746 F   0  0  0  0  0  0  0  0  0  0  0  0
  1  2  1  0  0  0  0
  1  7  2  0  0  0  0
  2  8  2  0  0  0  0
  3  6  2  0  0  0  0
  3 10  1  0  0  0  0
  4 11  2  0  0  0  0
  4 18  1  0  0  0  0
  5 12  1  0  0  0  0
  5 18  2  0  0  0  0
  6 19  1  0  0  0  0
  7 21  1  0  0  0  0
  8 23  1  0  0  0  0
  9 13  2  0  0  0  0
  9 22  1  0  0  0  0
 10 26  2  0  0  0  0
 11 27  1  0  0  0  0
 12 27  2  0  0  0  0
 13 28  1  0  0  0  0
 14 15  2  0  0  0  0
 14 29  1  0  0  0  0
 15 30  1  0  0  0  0
 16 24  1  0  0  0  0
 16 28  2  0  0  0  0
 17 30  2  0  0  0  0
 17 31  1  0  0  0  0
 18 32  1  0  0  0  0
 19 25  2  0  0  0  0
 19 35  1  0  0  0  0
 20 32  1  0  0  0  0
 20 33  2  0  0  0  0
 20 36  1  0  0  0  0
 21 23  2  0  0  0  0
 21 41  1  0  0  0  0
 22 24  2  0  0  0  0
 22 42  1  0  0  0  0
 23 52  1  0  0  0  0
 24 43  1  0  0  0  0
 25 26  1  0  0  0  0
 25 58  1  0  0  0  0
 26 76  1  0  0  0  0
 27 88  1  0  0  0  0
 28 89  1  0  0  0  0
 29 31  2  0  0  0  0
 29 88  1  0  0  0  0
 30 91  1  0  0  0  0
 31 92  1  0  0  0  0
 32 70  2  0  0  0  0
 33 71  1  0  0  0  0
 33 74  1  0  0  0  0
 34 53  1  0  0  0  0
 34 54  1  0  0  0  0
 34 81  2  0  0  0  0
 35 77  1  0  0  0  0
 35 82  2  0  0  0  0
 36 75  1  0  0  0  0
 36 83  2  0  0  0  0
 37 55  1  0  0  0  0
 37 78  1  0  0  0  0
 37 84  2  0  0  0  0
 38 67  1  0  0  0  0
 38 72  1  0  0  0  0
 38 85  2  0  0  0  0
 39 68  1  0  0  0  0
 39 79  1  0  0  0  0
 39 86  2  0  0  0  0
 40 73  1  0  0  0  0
 40 76  1  0  0  0  0
 40 87  2  0  0  0  0
 41 44  1  0  0  0  0
 42 55  1  0  0  0  0
 43 72  1  0  0  0  0
 44 46  1  0  0  0  0
 45 47  1  0  0  0  0
 45 50  1  0  0  0  0
 46 52  1  0  0  0  0
 47 56  1  0  0  0  0
 48 53  1  0  0  0  0
 48 57  1  0  0  0  0
 49 54  1  0  0  0  0
 49 57  1  0  0  0  0
 50 73  1  0  0  0  0
 51 56  1  0  0  0  0
 51 73  1  0  0  0  0
 52 78  1  0  0  0  0
 53 65  1  0  0  0  0
 54 77  1  0  0  0  0
 55 72  1  0  0  0  0
 56 71  1  0  0  0  0
 57 90  1  0  0  0  0
 59 66  1  0  0  0  0
 60 68  1  0  0  0  0
 61 69  1  0  0  0  0
 62 69  1  0  0  0  0
 63 69  1  0  0  0  0
 64 80  1  0  0  0  0
 65 89  1  0  0  0  0
 66 90  1  0  0  0  0
 67 69  1  0  0  0  0
 67 79  1  0  0  0  0
 68 80  1  0  0  0  0
 70 71  1  0  0  0  0
M  CHG  1  80   1
M  ISO  4  40 100  65 101  76 100  89 101
M  END
> <Batch ID>
0057

> <Smiles>
CCOC1CC(NC(=O)c2cccc([100NH:0][100C:0](=O)N3CCCC(n4nc(-c5ccc(Oc6ccc(F)cc6F)cc5)c(C(N)=O)c4N)C3)c2C)C(=O)C([101CH2:1][101O:1]c2ccc3c(c2)CN(C(=O)C(NC(=O)C(C)NC)C(C)(C)C)C(C(=O)NC2CCCc4ccccc42)C3)C1

> <Shape>
0.199

> <Color>
0.181

> <Negative vol penalty>
0.000

$$$$

  -OEChem-04042322553D

 85 93  0     1  0  0  0  0  0999 V2000
  -37.4199  -13.7895   23.7744 C   0  0  0  0  0  0  0  0  0  0  0  0
  -36.7517  -14.9570   23.4196 C   0  0  0  0  0  0  0  0  0  0  0  0
  -20.1848  -28.1366   23.2593 C   0  0  0  0  0  0  0  0  0  0  0  0
  -21.3231  -26.0910   22.6619 C   0  0  0  0  0  0  0  0  0  0  0  0
  -37.0188  -12.5672   23.2369 C   0  0  0  0  0  0  0  0  0  0  0  0
  -35.6825  -14.9029   22.5260 C   0  0  0  0  0  0  0  0  0  0  0  0
  -30.6535  -18.3973   22.5869 C   0  0  0  0  0  0  0  0  0  0  0  0
  -21.7080  -26.7673   17.1584 C   0  0  0  0  0  0  0  0  0  0  0  0
  -22.5185  -27.7089   17.7926 C   0  0  0  0  0  0  0  0  0  0  0  0
  -18.9702  -27.5762   22.8642 C   0  0  0  0  0  0  0  0  0  0  0  0
  -20.1084  -25.5305   22.2668 C   0  0  0  0  0  0  0  0  0  0  0  0
  -30.2967  -19.5402   21.8725 C   0  0  0  0  0  0  0  0  0  0  0  0
  -18.0433  -25.6899   19.5946 C   0  0  0  0  0  0  0  0  0  0  0  0
  -18.0127  -24.9962   18.3849 C   0  0  0  0  0  0  0  0  0  0  0  0
  -29.1042  -18.1690   20.2860 C   0  0  0  0  0  0  0  0  0  0  0  0
  -24.1433  -25.9867   18.2732 C   0  0  0  0  0  0  0  0  0  0  0  0
  -17.3291  -22.9935   19.5507 C   0  0  0  0  0  0  0  0  0  0  0  0
  -21.3613  -27.3940   23.1581 C   0  0  0  0  0  0  0  0  0  0  0  0
  -23.1995  -27.9229   24.8460 C   0  0  0  0  0  0  0  0  0  0  0  0
  -35.9380  -12.4969   22.3437 C   0  0  0  0  0  0  0  0  0  0  0  0
  -30.2467  -17.1286   22.1494 C   0  0  0  0  0  0  0  0  0  0  0  0
  -35.2674  -13.6787   21.9750 C   0  0  0  0  0  0  0  0  0  0  0  0
  -29.4550  -17.0118   20.9980 C   0  0  0  0  0  0  0  0  0  0  0  0
  -22.1152  -25.4353   17.0817 C   0  0  0  0  0  0  0  0  0  0  0  0
  -23.7361  -27.3186   18.3499 C   0  0  0  0  0  0  0  0  0  0  0  0
  -18.9320  -26.2731   22.3679 C   0  0  0  0  0  0  0  0  0  0  0  0
  -29.5244  -19.4259   20.7203 C   0  0  0  0  0  0  0  0  0  0  0  0
  -17.7168  -25.0355   20.7824 C   0  0  0  0  0  0  0  0  0  0  0  0
  -17.6556  -23.6480   18.3630 C   0  0  0  0  0  0  0  0  0  0  0  0
  -17.3597  -23.6873   20.7604 C   0  0  0  0  0  0  0  0  0  0  0  0
  -23.3329  -25.0451   17.6391 C   0  0  0  0  0  0  0  0  0  0  0  0
  -22.6164  -27.9726   23.5656 C   0  0  0  0  0  0  0  0  0  0  0  0
  -24.3778  -28.6162   24.7138 C   0  0  0  0  0  0  0  0  0  0  0  0
  -22.7191  -27.3052   26.0474 C   0  0  0  0  0  0  0  0  0  0  0  0
  -31.7509  -14.4978   21.1901 C   0  0  0  0  0  0  0  0  0  0  0  0
  -28.7541  -13.2563   21.1822 C   0  0  0  0  0  0  0  0  0  0  0  0
  -25.3915  -13.8046   20.9840 C   0  0  0  0  0  0  0  0  0  0  0  0
  -24.3021  -29.6375   19.1549 C   0  0  0  0  0  0  0  0  0  0  0  0
  -35.5711  -11.1590   21.7521 C   0  0  0  0  0  0  0  0  0  0  0  0
  -30.6175  -15.9078   22.9460 C   0  0  0  0  0  0  0  0  0  0  0  0
  -28.9756  -15.6745   20.4976 C   0  0  0  0  0  0  0  0  0  0  0  0
  -34.1901  -11.1386   21.1019 C   0  0  0  0  0  0  0  0  0  0  0  0
  -24.3090  -31.9357   22.0117 C   0  0  0  0  0  0  0  0  0  0  0  0
  -34.0014  -12.3626   20.2113 C   0  0  0  0  0  0  0  0  0  0  0  0
  -25.3357  -31.3399   22.9669 C   0  0  0  0  0  0  0  0  0  0  0  0
  -24.6755  -31.6371   20.5658 C   0  0  0  0  0  0  0  0  0  0  0  0
  -25.7768  -29.5074   21.2517 C   0  0  0  0  0  0  0  0  0  0  0  0
  -34.0873  -13.6576   21.0279 C   0  0  1  0  0  0  0  0  0  0  0  0
  -30.5801  -14.6235   22.1234 C   0  0  1  0  0  0  0  0  0  0  0  0
  -25.5300  -29.8328   22.7409 C   0  0  2  0  0  0  0  0  0  0  0  0
  -21.2242  -24.4524   16.3953 C   0  0  0  0  0  0  0  0  0  0  0  0
  -23.1952  -12.5907   20.9684 C   0  0  0  0  0  0  0  0  0  0  0  0
  -29.2534  -12.3950   18.2980 C   0  0  0  0  0  0  0  0  0  0  0  0
  -26.7845  -12.0679   18.0417 C   0  0  0  0  0  0  0  0  0  0  0  0
  -28.0561  -10.7046   19.6991 C   0  0  0  0  0  0  0  0  0  0  0  0
  -24.4771  -15.1885   23.4350 C   0  0  0  0  0  0  0  0  0  0  0  0
  -27.3739  -21.9114   19.2247 C   0  0  0  0  0  0  0  0  0  0  0  0
  -26.0354  -21.9368   18.4868 C   0  0  0  0  0  0  0  0  0  0  0  0
  -27.9383  -20.4996   19.3106 C   0  0  0  0  0  0  0  0  0  1  0  0
  -25.4445  -23.3355   18.3768 C   0  0  0  0  0  0  0  0  0  0  0  0
  -27.6418  -13.1544   20.1667 C   0  0  1  0  0  0  0  0  0  0  0  0
  -24.2362  -13.2935   21.8258 C   0  0  2  0  0  0  0  0  0  0  0  0
  -27.9444  -12.1057   19.0594 C   0  0  0  0  0  0  0  0  0  0  0  0
  -23.3627  -28.6445   22.6849 N   0  0  0  0  0  0  0  0  0  0  0  0
  -24.1344  -23.0859   16.0571 N   0  0  0  0  0  0  0  0  0  0  0  0
  -24.4268  -29.0234   23.4130 N   0  0  0  0  0  0  0  0  0  0  0  0
  -29.3695  -14.5099   21.3075 N   0  0  0  0  0  0  0  0  0  0  0  0
  -24.8703  -30.2059   20.3218 N   0  0  0  0  0  0  0  0  0  0  0  0
  -25.3664  -28.9111   25.5845 N   0  0  0  0  0  0  0  0  0  0  0  0
  -21.4896  -26.6335   26.0077 N   0  0  0  0  0  0  0  0  0  0  0  0
  -24.5591  -28.2759   18.9932 N   0  0  0  0  0  0  0  0  0  0  0  0
  -32.8537  -13.8821   21.7507 N   0  0  0  0  0  0  0  0  0  0  0  0
  -26.4220  -12.8906   20.9223 N   0  0  0  0  0  0  0  0  0  0  0  0
  -23.5741  -14.4233   22.5371 N   0  3  0  0  0  0  0  0  0  0  0  0
  -23.3532  -27.3617   27.1282 O   0  0  0  0  0  0  0  0  0  0  0  0
  -31.6600  -14.9263   20.0456 O   0  0  0  0  0  0  0  0  0  0  0  0
  -29.0607  -12.2623   21.8451 O   0  0  0  0  0  0  0  0  0  0  0  0
  -25.3793  -14.9031   20.4330 O   0  0  0  0  0  0  0  0  0  0  0  0
  -23.6552  -30.3130   18.3503 O   0  0  0  0  0  0  0  0  0  0  0  0
  -22.9829  -22.5944   18.4100 O   0  0  0  0  0  0  0  0  0  0  0  0
  -17.7469  -25.7258   21.9824 O   0  0  0  0  0  0  0  0  0  0  0  0
  -29.1753  -20.5398   20.0208 O   0  0  0  0  0  0  0  0  0  1  0  0
  -17.6248  -22.9823   17.2010 F   0  0  0  0  0  0  0  0  0  0  0  0
  -17.0439  -23.0535   21.8982 F   0  0  0  0  0  0  0  0  0  0  0  0
  -23.8822  -23.3594   17.5584 S   0  0  2  0  0  0  0  0  0  0  0  0
  1  2  1  0  0  0  0
  1  5  2  0  0  0  0
  2  6  2  0  0  0  0
  3 10  2  0  0  0  0
  3 18  1  0  0  0  0
  4 11  1  0  0  0  0
  4 18  2  0  0  0  0
  5 20  1  0  0  0  0
  6 22  1  0  0  0  0
  7 12  2  0  0  0  0
  7 21  1  0  0  0  0
  8  9  2  0  0  0  0
  8 24  1  0  0  0  0
  9 25  1  0  0  0  0
 10 26  1  0  0  0  0
 11 26  2  0  0  0  0
 12 27  1  0  0  0  0
 13 14  2  0  0  0  0
 13 28  1  0  0  0  0
 14 29  1  0  0  0  0
 15 23  1  0  0  0  0
 15 27  2  0  0  0  0
 16 25  2  0  0  0  0
 16 31  1  0  0  0  0
 17 29  2  0  0  0  0
 17 30  1  0  0  0  0
 18 32  1  0  0  0  0
 19 32  1  0  0  0  0
 19 33  2  0  0  0  0
 19 34  1  0  0  0  0
 20 22  2  0  0  0  0
 20 39  1  0  0  0  0
 21 23  2  0  0  0  0
 21 40  1  0  0  0  0
 22 48  1  0  0  0  0
 23 41  1  0  0  0  0
 24 31  2  0  0  0  0
 24 51  1  0  0  0  0
 25 71  1  0  0  0  0
 26 81  1  0  0  0  0
 27 82  1  0  0  0  0
 28 30  2  0  0  0  0
 28 81  1  0  0  0  0
 29 83  1  0  0  0  0
 30 84  1  0  0  0  0
 31 85  1  0  0  0  0
 32 64  2  0  0  0  0
 33 66  1  0  0  0  0
 33 69  1  0  0  0  0
 34 70  1  0  0  0  0
 34 75  2  0  0  0  0
 35 49  1  0  0  0  0
 35 72  1  0  0  0  0
 35 76  2  0  0  0  0
 36 61  1  0  0  0  0
 36 67  1  0  0  0  0
 36 77  2  0  0  0  0
 37 62  1  0  0  0  0
 37 73  1  0  0  0  0
 37 78  2  0  0  0  0
 38 68  1  0  0  0  0
 38 71  1  0  0  0  0
 38 79  2  0  0  0  0
 39 42  1  0  0  0  0
 40 49  1  0  0  0  0
 41 67  1  0  0  0  0
 42 44  1  0  0  0  0
 43 45  1  0  0  0  0
 43 46  1  0  0  0  0
 44 48  1  0  0  0  0
 45 50  1  0  0  0  0
 46 68  1  0  0  0  0
 47 50  1  0  0  0  0
 47 68  1  0  0  0  0
 48 72  1  0  0  0  0
 49 67  1  0  0  0  0
 50 66  1  0  0  0  0
 52 62  1  0  0  0  0
 53 63  1  0  0  0  0
 54 63  1  0  0  0  0
 55 63  1  0  0  0  0
 56 74  1  0  0  0  0
 57 58  1  0  0  0  0
 57 59  1  0  0  0  0
 58 60  1  0  0  0  0
 59 82  1  0  0  0  0
 60 85  1  0  0  0  0
 61 63  1  0  0  0  0
 61 73  1  0  0  0  0
 62 74  1  0  0  0  0
 64 66  1  0  0  0  0
 65 85  2  0  0  0  0
 80 85  2  0  0  0  0
M  CHG  1  74   1
M  ISO  4  38 100  59 101  71 100  82 101
M  END
> <Batch ID>
0057

> <Smiles>
CNC(C)C(=O)NC(C(=O)N1Cc2cc([101O:1][101CH2:1]CCCS(=N)(=O)c3cc([100NH:0][100C:0](=O)N4CCCC(n5nc(-c6ccc(Oc7ccc(F)cc7F)cc6)c(C(N)=O)c5N)C4)ccc3C)ccc2CC1C(=O)NC1CCCc2ccccc21)C(C)(C)C

> <Shape>
0.236

> <Color>
0.081

> <Negative vol penalty>
0.000

$$$$

  -OEChem-04042322553D

 89 98  0     1  0  0  0  0  0999 V2000
  -27.5696  -37.7947   19.2349 C   0  0  0  0  0  0  0  0  0  0  0  0
  -28.0945  -36.5094   19.1448 C   0  0  0  0  0  0  0  0  0  0  0  0
  -23.5013  -11.9304   23.3295 C   0  0  0  0  0  0  0  0  0  0  0  0
  -24.1566   -9.8538   22.2829 C   0  0  0  0  0  0  0  0  0  0  0  0
  -26.6105  -38.0884   20.2033 C   0  0  0  0  0  0  0  0  0  0  0  0
  -27.6613  -35.5174   20.0238 C   0  0  0  0  0  0  0  0  0  0  0  0
  -26.9847  -29.5547   18.8013 C   0  0  0  0  0  0  0  0  0  0  0  0
  -31.3868  -19.3321   18.3522 C   0  0  0  0  0  0  0  0  0  0  0  0
  -31.0343  -17.9844   18.4249 C   0  0  0  0  0  0  0  0  0  0  0  0
  -22.9267  -11.2185   24.3824 C   0  0  0  0  0  0  0  0  0  0  0  0
  -23.5820   -9.1418   23.3359 C   0  0  0  0  0  0  0  0  0  0  0  0
  -27.7985  -28.4492   19.0445 C   0  0  0  0  0  0  0  0  0  0  0  0
  -20.4845   -8.1956   24.3061 C   0  0  0  0  0  0  0  0  0  0  0  0
  -19.6933   -7.0922   23.9867 C   0  0  0  0  0  0  0  0  0  0  0  0
  -26.5607  -27.9896   21.0634 C   0  0  0  0  0  0  0  0  0  0  0  0
  -29.0515  -19.9352   18.2110 C   0  0  0  0  0  0  0  0  0  0  0  0
  -21.1779   -5.6627   25.2474 C   0  0  0  0  0  0  0  0  0  0  0  0
  -24.1162  -11.2480   22.2797 C   0  0  0  0  0  0  0  0  0  0  0  0
  -24.0619  -12.8729   20.3139 C   0  0  0  0  0  0  0  0  0  0  0  0
  -26.1583  -37.0971   21.0883 C   0  0  0  0  0  0  0  0  0  0  0  0
  -25.9580  -29.8930   19.6946 C   0  0  0  0  0  0  0  0  0  0  0  0
  -26.6962  -35.7986   21.0058 C   0  0  0  0  0  0  0  0  0  0  0  0
  -25.7336  -29.0985   20.8279 C   0  0  0  0  0  0  0  0  0  0  0  0
  -30.3954  -20.3075   18.2453 C   0  0  0  0  0  0  0  0  0  0  0  0
  -28.6991  -18.5876   18.2837 C   0  0  0  0  0  0  0  0  0  0  0  0
  -29.6905  -17.6122   18.3907 C   0  0  0  0  0  0  0  0  0  0  0  0
  -22.9670   -9.8242   24.3856 C   0  0  0  0  0  0  0  0  0  0  0  0
  -27.5885  -27.6681   20.1772 C   0  0  0  0  0  0  0  0  0  0  0  0
  -21.6226   -8.0326   25.0961 C   0  0  0  0  0  0  0  0  0  0  0  0
  -20.0400   -5.8258   24.4574 C   0  0  0  0  0  0  0  0  0  0  0  0
  -21.9692   -6.7662   25.5668 C   0  0  0  0  0  0  0  0  0  0  0  0
  -24.7095  -11.9829   21.1915 C   0  0  0  0  0  0  0  0  0  0  0  0
  -25.0544  -13.3040   19.4680 C   0  0  0  0  0  0  0  0  0  0  0  0
  -30.0741  -22.6231   20.3173 C   0  0  0  0  0  0  0  0  0  0  0  0
  -30.2969  -19.7605   22.6066 C   0  0  0  0  0  0  0  0  0  0  0  0
  -29.8014  -21.7852   21.3288 C   0  0  0  0  0  0  0  0  0  0  0  0
  -30.5692  -20.5957   21.5978 C   0  0  0  0  0  0  0  0  0  0  0  0
  -22.6862  -13.2741   20.2675 C   0  0  0  0  0  0  0  0  0  0  0  0
  -25.3180  -32.4101   21.5272 C   0  0  0  0  0  0  0  0  0  0  0  0
  -22.5529  -30.8091   22.0870 C   0  0  0  0  0  0  0  0  0  0  0  0
  -20.8964  -27.8263   22.1621 C   0  0  0  0  0  0  0  0  0  0  0  0
  -30.2281  -15.1579   18.5744 C   0  0  0  0  0  0  0  0  0  0  0  0
  -25.1547  -37.4741   22.1492 C   0  0  0  0  0  0  0  0  0  0  0  0
  -25.0718  -31.0731   19.4040 C   0  0  0  0  0  0  0  0  0  0  0  0
  -24.6319  -29.4072   21.8073 C   0  0  0  0  0  0  0  0  0  0  0  0
  -29.2702  -23.8645   20.0393 C   0  0  0  0  0  0  0  0  0  0  0  0
  -24.4748  -36.2718   22.7992 C   0  0  0  0  0  0  0  0  0  0  0  0
  -29.7888  -11.6334   18.8231 C   0  0  0  0  0  0  0  0  0  0  0  0
  -25.5064  -35.2113   23.1704 C   0  0  0  0  0  0  0  0  0  0  0  0
  -28.3749  -11.4833   19.3893 C   0  0  0  0  0  0  0  0  0  0  0  0
  -31.3552  -24.7888   18.9640 C   0  0  0  0  0  0  0  0  0  0  0  0
  -30.5136  -12.8386   19.4196 C   0  0  0  0  0  0  0  0  0  0  0  0
  -28.3715  -13.9602   19.8912 C   0  0  0  0  0  0  0  0  0  0  0  0
  -32.1171  -23.5316   19.3769 C   0  0  0  0  0  0  0  0  0  0  0  0
  -26.2335  -34.6892   21.9252 C   0  0  1  0  0  0  0  0  0  0  0  0
  -24.3848  -31.6253   20.6491 C   0  0  1  0  0  0  0  0  0  0  0  0
  -30.1921  -25.0840   19.9213 C   0  0  1  0  0  0  0  0  0  0  0  0
  -27.5785  -12.7977   19.2721 C   0  0  2  0  0  0  0  0  0  0  0  0
  -27.2518  -18.2175   18.2418 C   0  0  0  0  0  0  0  0  0  0  0  0
  -18.6557  -26.8303   22.6957 C   0  0  0  0  0  0  0  0  0  0  0  0
  -23.1422  -31.0864   25.0680 C   0  0  0  0  0  0  0  0  0  0  0  0
  -21.4386  -29.3032   25.4996 C   0  0  0  0  0  0  0  0  0  0  0  0
  -20.7496  -31.4533   24.4389 C   0  0  0  0  0  0  0  0  0  0  0  0
  -20.5541  -26.8245   19.3984 C   0  0  0  0  0  0  0  0  0  0  0  0
  -30.7747  -21.7568   18.1647 C   0  0  0  0  0  0  0  0  0  0  0  0
  -29.4104  -26.3146   19.4669 C   0  0  0  0  0  0  0  0  0  1  0  0
  -22.0962  -29.7855   23.0983 C   0  0  1  0  0  0  0  0  0  0  0  0
  -19.5461  -27.4098   21.6075 C   0  0  2  0  0  0  0  0  0  0  0  0
  -21.8787  -30.4022   24.5089 C   0  0  0  0  0  0  0  0  0  0  0  0
  -26.0125  -11.8551   20.9275 N   0  0  0  0  0  0  0  0  0  0  0  0
  -26.1918  -12.6704   19.8743 N   0  0  0  0  0  0  0  0  0  0  0  0
  -23.7962  -30.5751   21.4827 N   0  0  0  0  0  0  0  0  0  0  0  0
  -29.7016  -14.0479   19.2683 N   0  0  0  0  0  0  0  0  0  0  0  0
  -25.0564  -14.1594   18.4236 N   0  0  0  0  0  0  0  0  0  0  0  0
  -21.7986  -12.5274   19.4809 N   0  0  0  0  0  0  0  0  0  0  0  0
  -29.3529  -16.2381   18.4657 N   0  0  0  0  0  0  0  0  0  0  0  0
  -25.3966  -33.7520   21.2070 N   0  0  0  0  0  0  0  0  0  0  0  0
  -20.9087  -29.1544   22.5325 N   0  0  0  0  0  0  0  0  0  0  0  0
  -31.2139  -22.3253   19.4858 N   0  3  2  0  0  0  0  0  0  0  0  0
  -19.7182  -26.3806   20.5435 N   0  3  0  0  0  0  0  0  0  0  0  0
  -22.2601  -14.2753   20.8917 O   0  0  0  0  0  0  0  0  0  0  0  0
  -25.9210  -31.8406   22.4293 O   0  0  0  0  0  0  0  0  0  0  0  0
  -21.8299  -31.7767   21.8371 O   0  0  0  0  0  0  0  0  0  0  0  0
  -21.8442  -27.0501   22.2607 O   0  0  0  0  0  0  0  0  0  0  0  0
  -31.3614  -15.1406   18.0872 O   0  0  0  0  0  0  0  0  0  0  0  0
  -22.4066   -9.1292   25.4129 O   0  0  0  0  0  0  0  0  0  0  0  0
  -28.3818  -26.5888   20.4172 O   0  0  0  0  0  0  0  0  0  1  0  0
  -19.2792   -4.7665   24.1519 F   0  0  0  0  0  0  0  0  0  0  0  0
  -23.0607   -6.6035   26.3271 F   0  0  0  0  0  0  0  0  0  0  0  0
  1  2  1  0  0  0  0
  1  5  2  0  0  0  0
  2  6  2  0  0  0  0
  3 10  2  0  0  0  0
  3 18  1  0  0  0  0
  4 11  1  0  0  0  0
  4 18  2  0  0  0  0
  5 20  1  0  0  0  0
  6 22  1  0  0  0  0
  7 12  2  0  0  0  0
  7 21  1  0  0  0  0
  8  9  2  0  0  0  0
  8 24  1  0  0  0  0
  9 26  1  0  0  0  0
 10 27  1  0  0  0  0
 11 27  2  0  0  0  0
 12 28  1  0  0  0  0
 13 14  2  0  0  0  0
 13 29  1  0  0  0  0
 14 30  1  0  0  0  0
 15 23  1  0  0  0  0
 15 28  2  0  0  0  0
 16 24  2  0  0  0  0
 16 25  1  0  0  0  0
 17 30  2  0  0  0  0
 17 31  1  0  0  0  0
 18 32  1  0  0  0  0
 19 32  1  0  0  0  0
 19 33  2  0  0  0  0
 19 38  1  0  0  0  0
 20 22  2  0  0  0  0
 20 43  1  0  0  0  0
 21 23  2  0  0  0  0
 21 44  1  0  0  0  0
 22 55  1  0  0  0  0
 23 45  1  0  0  0  0
 24 65  1  0  0  0  0
 25 26  2  0  0  0  0
 25 59  1  0  0  0  0
 26 76  1  0  0  0  0
 27 86  1  0  0  0  0
 28 87  1  0  0  0  0
 29 31  2  0  0  0  0
 29 86  1  0  0  0  0
 30 88  1  0  0  0  0
 31 89  1  0  0  0  0
 32 70  2  0  0  0  0
 33 71  1  0  0  0  0
 33 74  1  0  0  0  0
 34 36  2  0  0  0  0
 34 46  1  0  0  0  0
 34 79  1  0  0  0  0
 35 37  2  0  0  0  0
 36 37  1  0  0  0  0
 38 75  1  0  0  0  0
 38 81  2  0  0  0  0
 39 56  1  0  0  0  0
 39 77  1  0  0  0  0
 39 82  2  0  0  0  0
 40 67  1  0  0  0  0
 40 72  1  0  0  0  0
 40 83  2  0  0  0  0
 41 68  1  0  0  0  0
 41 78  1  0  0  0  0
 41 84  2  0  0  0  0
 42 73  1  0  0  0  0
 42 76  1  0  0  0  0
 42 85  2  0  0  0  0
 43 47  1  0  0  0  0
 44 56  1  0  0  0  0
 45 72  1  0  0  0  0
 46 57  1  0  0  0  0
 47 49  1  0  0  0  0
 48 50  1  0  0  0  0
 48 52  1  0  0  0  0
 49 55  1  0  0  0  0
 50 58  1  0  0  0  0
 51 54  1  0  0  0  0
 51 57  1  0  0  0  0
 52 73  1  0  0  0  0
 53 58  1  0  0  0  0
 53 73  1  0  0  0  0
 54 79  1  0  0  0  0
 55 77  1  0  0  0  0
 56 72  1  0  0  0  0
 57 66  1  0  0  0  0
 58 71  1  0  0  0  0
 60 68  1  0  0  0  0
 61 69  1  0  0  0  0
 62 69  1  0  0  0  0
 63 69  1  0  0  0  0
 64 80  1  0  0  0  0
 65 79  1  0  0  0  0
 66 87  1  0  0  0  0
 67 69  1  0  0  0  0
 67 78  1  0  0  0  0
 68 80  1  0  0  0  0
 70 71  1  0  0  0  0
M  CHG  2  79   1  80   1
M  ISO  4  42 100  66 101  76 100  87 101
M  END
> <Batch ID>
0057

> <Smiles>
C=CC=C1CC([101CH2:1][101O:1]c2ccc3c(c2)CN(C(=O)C(NC(=O)C(C)NC)C(C)(C)C)C(C(=O)NC2CCCc4ccccc42)C3)CCN1Cc1ccc([100NH:0][100C:0](=O)N2CCCC(n3nc(-c4ccc(Oc5ccc(F)cc5F)cc4)c(C(N)=O)c3N)C2)c(C)c1

> <Shape>
0.312

> <Color>
0.124

> <Negative vol penalty>
0.000

$$$$

  -OEChem-04042322553D

 81 89  0     1  0  0  0  0  0999 V2000
  -28.2155  -24.6855   16.5903 C   0  0  0  0  0  0  0  0  0  0  0  0
  -27.0919  -24.7719   17.4061 C   0  0  0  0  0  0  0  0  0  0  0  0
  -19.6623  -20.3231   25.2784 C   0  0  0  0  0  0  0  0  0  0  0  0
  -24.8094  -12.6580   19.7225 C   0  0  0  0  0  0  0  0  0  0  0  0
  -24.7521  -13.4581   22.0015 C   0  0  0  0  0  0  0  0  0  0  0  0
  -29.3948  -25.3312   16.9593 C   0  0  0  0  0  0  0  0  0  0  0  0
  -27.1475  -25.5032   18.5921 C   0  0  0  0  0  0  0  0  0  0  0  0
  -23.0837  -28.4529   19.2478 C   0  0  0  0  0  0  0  0  0  0  0  0
  -19.3472  -21.6287   24.9021 C   0  0  0  0  0  0  0  0  0  0  0  0
  -19.5896  -19.2908   24.3431 C   0  0  0  0  0  0  0  0  0  0  0  0
  -26.1961  -12.5300   19.8023 C   0  0  0  0  0  0  0  0  0  0  0  0
  -26.1388  -13.3300   22.0813 C   0  0  0  0  0  0  0  0  0  0  0  0
  -21.9144  -27.8365   19.6910 C   0  0  0  0  0  0  0  0  0  0  0  0
  -28.4252  -10.3441   21.1008 C   0  0  0  0  0  0  0  0  0  0  0  0
  -28.9980   -9.1744   20.6016 C   0  0  0  0  0  0  0  0  0  0  0  0
  -22.3701  -28.5983   21.9341 C   0  0  0  0  0  0  0  0  0  0  0  0
  -18.8865  -20.8698   22.6551 C   0  0  0  0  0  0  0  0  0  0  0  0
  -30.2862  -10.4772   19.0267 C   0  0  0  0  0  0  0  0  0  0  0  0
  -24.0874  -13.1221   20.8221 C   0  0  0  0  0  0  0  0  0  0  0  0
  -21.6911  -12.2798   21.0584 C   0  0  0  0  0  0  0  0  0  0  0  0
  -29.4620  -26.0787   18.1457 C   0  0  0  0  0  0  0  0  0  0  0  0
  -23.9121  -29.1385   20.1479 C   0  0  0  0  0  0  0  0  0  0  0  0
  -28.3292  -26.1583   18.9781 C   0  0  0  0  0  0  0  0  0  0  0  0
  -23.5481  -29.2248   21.4993 C   0  0  0  0  0  0  0  0  0  0  0  0
  -18.9593  -21.9020   23.5904 C   0  0  0  0  0  0  0  0  0  0  0  0
  -19.2016  -19.5641   23.0315 C   0  0  0  0  0  0  0  0  0  0  0  0
  -26.8608  -12.8660   20.9817 C   0  0  0  0  0  0  0  0  0  0  0  0
  -21.5589  -27.9067   21.0348 C   0  0  0  0  0  0  0  0  0  0  0  0
  -28.7828  -11.5805   20.5629 C   0  0  0  0  0  0  0  0  0  0  0  0
  -29.9285   -9.2409   19.5646 C   0  0  0  0  0  0  0  0  0  0  0  0
  -29.7133  -11.6470   19.5259 C   0  0  0  0  0  0  0  0  0  0  0  0
  -22.6551  -13.2552   20.7400 C   0  0  0  0  0  0  0  0  0  0  0  0
  -20.4873  -12.8940   20.8134 C   0  0  0  0  0  0  0  0  0  0  0  0
  -19.4370  -25.3300   22.3367 C   0  0  0  0  0  0  0  0  0  0  0  0
  -20.4959  -26.0078   21.8922 C   0  0  0  0  0  0  0  0  0  1  0  0
  -19.6237  -23.9324   22.7698 C   0  0  0  0  0  0  0  0  0  0  0  0
  -21.8681  -10.9386   21.5332 C   0  0  0  0  0  0  0  0  0  0  0  0
  -26.9123  -28.7977   21.1410 C   0  0  0  0  0  0  0  0  0  0  0  0
  -26.3122  -31.5945   22.6709 C   0  0  0  0  0  0  0  0  0  0  0  0
  -24.0096  -33.7303   24.0062 C   0  0  0  0  0  0  0  0  0  0  0  0
  -18.7637  -18.6149   20.7394 C   0  0  0  0  0  0  0  0  0  0  0  0
  -30.7729  -26.7200   18.5264 C   0  0  0  0  0  0  0  0  0  0  0  0
  -25.1563  -29.8208   19.6491 C   0  0  0  0  0  0  0  0  0  0  0  0
  -24.3926  -29.9659   22.5023 C   0  0  0  0  0  0  0  0  0  0  0  0
  -30.6375  -27.7845   19.6121 C   0  0  0  0  0  0  0  0  0  0  0  0
  -18.4996  -16.2767   18.0673 C   0  0  0  0  0  0  0  0  0  0  0  0
  -29.7609  -27.2758   20.7521 C   0  0  0  0  0  0  0  0  0  0  0  0
  -19.4429  -15.1449   18.4814 C   0  0  0  0  0  0  0  0  0  0  0  0
  -19.0458  -17.6457   18.4687 C   0  0  0  0  0  0  0  0  0  0  0  0
  -20.3573  -16.6448   20.2983 C   0  0  0  0  0  0  0  0  0  0  0  0
  -28.3428  -26.9624   20.2600 C   0  0  1  0  0  0  0  0  0  0  0  0
  -26.1901  -30.0548   20.7463 C   0  0  1  0  0  0  0  0  0  0  0  0
  -19.8189  -15.2420   19.9729 C   0  0  2  0  0  0  0  0  0  0  0  0
  -23.8240  -35.9179   25.2217 C   0  0  0  0  0  0  0  0  0  0  0  0
  -27.2341  -30.2397   25.2448 C   0  0  0  0  0  0  0  0  0  0  0  0
  -26.1513  -32.0970   26.5279 C   0  0  0  0  0  0  0  0  0  0  0  0
  -28.0289  -32.5941   24.9626 C   0  0  0  0  0  0  0  0  0  0  0  0
  -22.4126  -34.9384   21.8269 C   0  0  0  0  0  0  0  0  0  0  0  0
  -25.7639  -31.9763   24.0246 C   0  0  1  0  0  0  0  0  0  0  0  0
  -23.8265  -35.2307   23.8650 C   0  0  2  0  0  0  0  0  0  0  0  0
  -26.7794  -31.7111   25.1717 C   0  0  0  0  0  0  0  0  0  0  0  0
  -22.1106  -14.4018   20.3243 N   0  0  0  0  0  0  0  0  0  0  0  0
  -18.6399  -23.2173   23.2119 N   0  0  0  0  0  0  0  0  0  0  0  0
  -20.7915  -14.1508   20.3797 N   0  0  0  0  0  0  0  0  0  0  0  0
  -25.6028  -30.6111   21.9669 N   0  0  0  0  0  0  0  0  0  0  0  0
  -19.3760  -17.6644   19.8954 N   0  0  0  0  0  0  0  0  0  0  0  0
  -19.2088  -12.4762   20.9286 N   0  0  0  0  0  0  0  0  0  0  0  0
  -23.1728  -10.4665   21.7310 N   0  0  0  0  0  0  0  0  0  0  0  0
  -19.1302  -18.5155   22.0812 N   0  0  0  0  0  0  0  0  0  0  0  0
  -27.5820  -28.1831   20.1002 N   0  0  0  0  0  0  0  0  0  0  0  0
  -25.3365  -33.3669   23.9145 N   0  0  0  0  0  0  0  0  0  0  0  0
  -22.5367  -35.5332   23.1825 N   0  3  0  0  0  0  0  0  0  0  0  0
  -20.8983  -10.1757   21.7593 O   0  0  0  0  0  0  0  0  0  0  0  0
  -26.8666  -28.4146   22.3041 O   0  0  0  0  0  0  0  0  0  0  0  0
  -27.3283  -32.1534   22.2505 O   0  0  0  0  0  0  0  0  0  0  0  0
  -23.0699  -32.9584   24.1839 O   0  0  0  0  0  0  0  0  0  0  0  0
  -17.9517  -19.4377   20.3085 O   0  0  0  0  0  0  0  0  0  0  0  0
  -28.2138  -12.7410   21.0600 O   0  0  0  0  0  0  0  0  0  0  0  0
  -20.4184  -27.3054   21.4702 O   0  0  0  0  0  0  0  0  0  1  0  0
  -30.4796   -8.1176   19.0864 F   0  0  0  0  0  0  0  0  0  0  0  0
  -30.0617  -12.8319   19.0059 F   0  0  0  0  0  0  0  0  0  0  0  0
  1  2  1  0  0  0  0
  1  6  2  0  0  0  0
  2  7  2  0  0  0  0
  3  9  2  0  0  0  0
  3 10  1  0  0  0  0
  4 11  2  0  0  0  0
  4 19  1  0  0  0  0
  5 12  1  0  0  0  0
  5 19  2  0  0  0  0
  6 21  1  0  0  0  0
  7 23  1  0  0  0  0
  8 13  2  0  0  0  0
  8 22  1  0  0  0  0
  9 25  1  0  0  0  0
 10 26  2  0  0  0  0
 11 27  1  0  0  0  0
 12 27  2  0  0  0  0
 13 28  1  0  0  0  0
 14 15  2  0  0  0  0
 14 29  1  0  0  0  0
 15 30  1  0  0  0  0
 16 24  1  0  0  0  0
 16 28  2  0  0  0  0
 17 25  2  0  0  0  0
 17 26  1  0  0  0  0
 18 30  2  0  0  0  0
 18 31  1  0  0  0  0
 19 32  1  0  0  0  0
 20 32  1  0  0  0  0
 20 33  2  0  0  0  0
 20 37  1  0  0  0  0
 21 23  2  0  0  0  0
 21 42  1  0  0  0  0
 22 24  2  0  0  0  0
 22 43  1  0  0  0  0
 23 51  1  0  0  0  0
 24 44  1  0  0  0  0
 25 63  1  0  0  0  0
 26 69  1  0  0  0  0
 27 78  1  0  0  0  0
 28 79  1  0  0  0  0
 29 31  2  0  0  0  0
 29 78  1  0  0  0  0
 30 80  1  0  0  0  0
 31 81  1  0  0  0  0
 32 62  2  0  0  0  0
 33 64  1  0  0  0  0
 33 67  1  0  0  0  0
 34 35  2  0  0  0  0
 34 36  1  0  0  0  0
 35 79  1  0  0  0  0
 36 63  2  0  0  0  0
 37 68  1  0  0  0  0
 37 73  2  0  0  0  0
 38 52  1  0  0  0  0
 38 70  1  0  0  0  0
 38 74  2  0  0  0  0
 39 59  1  0  0  0  0
 39 65  1  0  0  0  0
 39 75  2  0  0  0  0
 40 60  1  0  0  0  0
 40 71  1  0  0  0  0
 40 76  2  0  0  0  0
 41 66  1  0  0  0  0
 41 69  1  0  0  0  0
 41 77  2  0  0  0  0
 42 45  1  0  0  0  0
 43 52  1  0  0  0  0
 44 65  1  0  0  0  0
 45 47  1  0  0  0  0
 46 48  1  0  0  0  0
 46 49  1  0  0  0  0
 47 51  1  0  0  0  0
 48 53  1  0  0  0  0
 49 66  1  0  0  0  0
 50 53  1  0  0  0  0
 50 66  1  0  0  0  0
 51 70  1  0  0  0  0
 52 65  1  0  0  0  0
 53 64  1  0  0  0  0
 54 60  1  0  0  0  0
 55 61  1  0  0  0  0
 56 61  1  0  0  0  0
 57 61  1  0  0  0  0
 58 72  1  0  0  0  0
 59 61  1  0  0  0  0
 59 71  1  0  0  0  0
 60 72  1  0  0  0  0
 62 64  1  0  0  0  0
M  CHG  1  72   1
M  ISO  4  35 101  41 100  69 100  79 101
M  END
> <Batch ID>
0057

> <Smiles>
CNC(C)C(=O)NC(C(=O)N1Cc2cc([101O:1][101CH:1]=CC=Nc3cccc([100NH:0][100C:0](=O)N4CCCC(n5nc(-c6ccc(Oc7ccc(F)cc7F)cc6)c(C(N)=O)c5N)C4)c3)ccc2CC1C(=O)NC1CCCc2ccccc21)C(C)(C)C

> <Shape>
0.265

> <Color>
0.085

> <Negative vol penalty>
0.000

$$$$

  -OEChem-04042322553D

 89 98  0     1  0  0  0  0  0999 V2000
  -29.7834  -23.6070   17.9728 C   0  0  0  0  0  0  0  0  0  0  0  0
  -28.5974  -23.6701   18.6973 C   0  0  0  0  0  0  0  0  0  0  0  0
  -28.3799  -14.5850   20.6596 C   0  0  0  0  0  0  0  0  0  0  0  0
  -26.1852  -15.5856   20.7977 C   0  0  0  0  0  0  0  0  0  0  0  0
  -30.8407  -24.4575   18.2932 C   0  0  0  0  0  0  0  0  0  0  0  0
  -28.4684  -24.5830   19.7434 C   0  0  0  0  0  0  0  0  0  0  0  0
  -24.0305  -27.0207   19.6584 C   0  0  0  0  0  0  0  0  0  0  0  0
  -27.7977  -13.3211   20.5644 C   0  0  0  0  0  0  0  0  0  0  0  0
  -25.6029  -14.3217   20.7024 C   0  0  0  0  0  0  0  0  0  0  0  0
  -22.9158  -26.3307   20.1328 C   0  0  0  0  0  0  0  0  0  0  0  0
  -25.0219  -11.6864   22.7393 C   0  0  0  0  0  0  0  0  0  0  0  0
  -23.9796  -11.3853   23.6160 C   0  0  0  0  0  0  0  0  0  0  0  0
  -26.1163  -22.2575   27.5258 C   0  0  0  0  0  0  0  0  0  0  0  0
  -24.7203  -22.0068   25.5700 C   0  0  0  0  0  0  0  0  0  0  0  0
  -23.0961  -27.4976   22.2364 C   0  0  0  0  0  0  0  0  0  0  0  0
  -22.5032  -11.0265   21.7376 C   0  0  0  0  0  0  0  0  0  0  0  0
  -27.5736  -15.7173   20.7763 C   0  0  0  0  0  0  0  0  0  0  0  0
  -25.0093  -22.6796   28.2619 C   0  0  0  0  0  0  0  0  0  0  0  0
  -23.6132  -22.4288   26.3061 C   0  0  0  0  0  0  0  0  0  0  0  0
  -28.5030  -17.8903   19.8161 C   0  0  0  0  0  0  0  0  0  0  0  0
  -30.7211  -25.3880   19.3375 C   0  0  0  0  0  0  0  0  0  0  0  0
  -24.6940  -27.9480   20.4747 C   0  0  0  0  0  0  0  0  0  0  0  0
  -29.5256  -25.4458   20.0789 C   0  0  0  0  0  0  0  0  0  0  0  0
  -24.2174  -28.2000   21.7691 C   0  0  0  0  0  0  0  0  0  0  0  0
  -23.7577  -22.7652   27.6521 C   0  0  0  0  0  0  0  0  0  0  0  0
  -25.9718  -21.9212   26.1798 C   0  0  0  0  0  0  0  0  0  0  0  0
  -26.4092  -13.1894   20.5857 C   0  0  0  0  0  0  0  0  0  0  0  0
  -22.4502  -26.5669   21.4230 C   0  0  0  0  0  0  0  0  0  0  0  0
  -24.8047  -11.6577   21.3617 C   0  0  0  0  0  0  0  0  0  0  0  0
  -22.7203  -11.0553   23.1152 C   0  0  0  0  0  0  0  0  0  0  0  0
  -23.5454  -11.3277   20.8609 C   0  0  0  0  0  0  0  0  0  0  0  0
  -28.1745  -17.0231   20.8753 C   0  0  0  0  0  0  0  0  0  0  0  0
  -29.0436  -18.9933   20.4304 C   0  0  0  0  0  0  0  0  0  0  0  0
  -24.9560  -24.2144   30.2603 C   0  0  0  0  0  0  0  0  0  0  0  0
  -25.1982  -23.0281   29.6812 C   0  0  0  0  0  0  0  0  0  0  0  0
  -22.2939  -22.5102   25.6279 C   0  0  0  0  0  0  0  0  0  0  0  0
  -28.3344  -17.7144   18.4031 C   0  0  0  0  0  0  0  0  0  0  0  0
  -27.6262  -28.1815   21.6794 C   0  0  0  0  0  0  0  0  0  0  0  0
  -26.5648  -31.0800   22.6766 C   0  0  0  0  0  0  0  0  0  0  0  0
  -23.9169  -33.0702   23.4979 C   0  0  0  0  0  0  0  0  0  0  0  0
  -28.4077  -21.3505   25.8843 C   0  0  0  0  0  0  0  0  0  0  0  0
  -31.9082  -26.2540   19.6776 C   0  0  0  0  0  0  0  0  0  0  0  0
  -25.8789  -28.7037   19.9387 C   0  0  0  0  0  0  0  0  0  0  0  0
  -24.8819  -29.2003   22.6781 C   0  0  0  0  0  0  0  0  0  0  0  0
  -25.2956  -24.2172   31.7139 C   0  0  0  0  0  0  0  0  0  0  0  0
  -25.7554  -22.0587   30.6851 C   0  0  0  0  0  0  0  0  0  0  0  0
  -31.5568  -27.4507   20.5578 C   0  0  0  0  0  0  0  0  0  0  0  0
  -25.4558  -22.7334   32.0228 C   0  0  0  0  0  0  0  0  0  0  0  0
  -31.4471  -20.2864   24.3656 C   0  0  0  0  0  0  0  0  0  0  0  0
  -30.6637  -27.0176   21.7160 C   0  0  0  0  0  0  0  0  0  0  0  0
  -30.9826  -19.4127   23.1981 C   0  0  0  0  0  0  0  0  0  0  0  0
  -30.5478  -20.1225   25.5895 C   0  0  0  0  0  0  0  0  0  0  0  0
  -28.6503  -19.4478   24.1707 C   0  0  0  0  0  0  0  0  0  0  0  0
  -29.3385  -26.4398   21.2046 C   0  0  1  0  0  0  0  0  0  0  0  0
  -26.7864  -29.2491   21.0371 C   0  0  1  0  0  0  0  0  0  0  0  0
  -29.4871  -19.6276   22.8935 C   0  0  2  0  0  0  0  0  0  0  0  0
  -22.5639  -23.2186   28.4352 C   0  0  0  0  0  0  0  0  0  0  0  0
  -23.3660  -35.3789   24.3125 C   0  0  0  0  0  0  0  0  0  0  0  0
  -27.4436  -30.2941   25.4909 C   0  0  0  0  0  0  0  0  0  0  0  0
  -26.0410  -32.1690   26.3772 C   0  0  0  0  0  0  0  0  0  0  0  0
  -27.9590  -32.6584   24.8591 C   0  0  0  0  0  0  0  0  0  0  0  0
  -22.3577  -33.6844   21.0586 C   0  0  0  0  0  0  0  0  0  0  0  0
  -20.5126  -24.3650   23.5310 C   0  0  0  0  0  0  0  0  0  0  0  0
  -20.4088  -23.9984   25.0053 C   0  0  0  0  0  0  0  0  0  0  0  0
  -21.3060  -25.6440   23.2925 C   0  0  0  0  0  0  0  0  0  1  0  0
  -25.8689  -31.5963   23.9127 C   0  0  1  0  0  0  0  0  0  0  0  0
  -23.5603  -34.4895   23.0944 C   0  0  2  0  0  0  0  0  0  0  0  0
  -26.8165  -31.6591   25.1438 C   0  0  0  0  0  0  0  0  0  0  0  0
  -28.4810  -17.5315   22.0718 N   0  0  0  0  0  0  0  0  0  0  0  0
  -29.0078  -18.7300   21.7682 N   0  0  0  0  0  0  0  0  0  0  0  0
  -26.0407  -29.9093   22.1105 N   0  0  0  0  0  0  0  0  0  0  0  0
  -29.1467  -20.3448   25.2259 N   0  0  0  0  0  0  0  0  0  0  0  0
  -29.5415  -20.1531   19.9514 N   0  0  0  0  0  0  0  0  0  0  0  0
  -27.7621  -16.5210   17.9420 N   0  0  0  0  0  0  0  0  0  0  0  0
  -27.0962  -21.4917   25.4320 N   0  0  0  0  0  0  0  0  0  0  0  0
  -21.6946  -23.7645   25.6023 N   0  0  0  0  0  0  0  0  0  0  0  0
  -28.4466  -27.5043   20.7975 N   0  0  0  0  0  0  0  0  0  0  0  0
  -25.2818  -32.8802   23.5445 N   0  0  0  0  0  0  0  0  0  0  0  0
  -22.3003  -34.5006   22.2986 N   0  3  0  0  0  0  0  0  0  0  0  0
  -21.7993  -21.4909   25.1535 O   0  0  0  0  0  0  0  0  0  0  0  0
  -28.6960  -18.5827   17.5732 O   0  0  0  0  0  0  0  0  0  0  0  0
  -27.5376  -27.9875   22.8862 O   0  0  0  0  0  0  0  0  0  0  0  0
  -27.5333  -31.6968   22.2257 O   0  0  0  0  0  0  0  0  0  0  0  0
  -23.0695  -32.2166   23.7505 O   0  0  0  0  0  0  0  0  0  0  0  0
  -28.9101  -22.0541   26.7643 O   0  0  0  0  0  0  0  0  0  0  0  0
  -25.8407  -11.9562   20.4926 O   0  0  0  0  0  0  0  0  0  0  0  0
  -21.3627  -25.8942   21.8887 O   0  0  0  0  0  0  0  0  0  1  0  0
  -21.7200  -10.7646   23.9572 F   0  0  0  0  0  0  0  0  0  0  0  0
  -23.3311  -11.2973   19.5384 F   0  0  0  0  0  0  0  0  0  0  0  0
  1  2  1  0  0  0  0
  1  5  2  0  0  0  0
  2  6  2  0  0  0  0
  3  8  2  0  0  0  0
  3 17  1  0  0  0  0
  4  9  1  0  0  0  0
  4 17  2  0  0  0  0
  5 21  1  0  0  0  0
  6 23  1  0  0  0  0
  7 10  2  0  0  0  0
  7 22  1  0  0  0  0
  8 27  1  0  0  0  0
  9 27  2  0  0  0  0
 10 28  1  0  0  0  0
 11 12  2  0  0  0  0
 11 29  1  0  0  0  0
 12 30  1  0  0  0  0
 13 18  2  0  0  0  0
 13 26  1  0  0  0  0
 14 19  1  0  0  0  0
 14 26  2  0  0  0  0
 15 24  1  0  0  0  0
 15 28  2  0  0  0  0
 16 30  2  0  0  0  0
 16 31  1  0  0  0  0
 17 32  1  0  0  0  0
 18 25  1  0  0  0  0
 18 35  1  0  0  0  0
 19 25  2  0  0  0  0
 19 36  1  0  0  0  0
 20 32  1  0  0  0  0
 20 33  2  0  0  0  0
 20 37  1  0  0  0  0
 21 23  2  0  0  0  0
 21 42  1  0  0  0  0
 22 24  2  0  0  0  0
 22 43  1  0  0  0  0
 23 54  1  0  0  0  0
 24 44  1  0  0  0  0
 25 57  1  0  0  0  0
 26 75  1  0  0  0  0
 27 86  1  0  0  0  0
 28 87  1  0  0  0  0
 29 31  2  0  0  0  0
 29 86  1  0  0  0  0
 30 88  1  0  0  0  0
 31 89  1  0  0  0  0
 32 69  2  0  0  0  0
 33 70  1  0  0  0  0
 33 73  1  0  0  0  0
 34 35  2  0  0  0  0
 34 45  1  0  0  0  0
 35 46  1  0  0  0  0
 36 76  1  0  0  0  0
 36 80  2  0  0  0  0
 37 74  1  0  0  0  0
 37 81  2  0  0  0  0
 38 55  1  0  0  0  0
 38 77  1  0  0  0  0
 38 82  2  0  0  0  0
 39 66  1  0  0  0  0
 39 71  1  0  0  0  0
 39 83  2  0  0  0  0
 40 67  1  0  0  0  0
 40 78  1  0  0  0  0
 40 84  2  0  0  0  0
 41 72  1  0  0  0  0
 41 75  1  0  0  0  0
 41 85  2  0  0  0  0
 42 47  1  0  0  0  0
 43 55  1  0  0  0  0
 44 71  1  0  0  0  0
 45 48  1  0  0  0  0
 46 48  1  0  0  0  0
 47 50  1  0  0  0  0
 49 51  1  0  0  0  0
 49 52  1  0  0  0  0
 50 54  1  0  0  0  0
 51 56  1  0  0  0  0
 52 72  1  0  0  0  0
 53 56  1  0  0  0  0
 53 72  1  0  0  0  0
 54 77  1  0  0  0  0
 55 71  1  0  0  0  0
 56 70  1  0  0  0  0
 58 67  1  0  0  0  0
 59 68  1  0  0  0  0
 60 68  1  0  0  0  0
 61 68  1  0  0  0  0
 62 79  1  0  0  0  0
 63 64  1  0  0  0  0
 63 65  1  0  0  0  0
 64 76  1  0  0  0  0
 65 87  1  0  0  0  0
 66 68  1  0  0  0  0
 66 78  1  0  0  0  0
 67 79  1  0  0  0  0
 69 70  1  0  0  0  0
M  CHG  1  79   1
M  ISO  4  41 100  65 101  75 100  87 101
M  END
> <Batch ID>
0057

> <Smiles>
CNC(C)C(=O)NC(C(=O)N1Cc2cc([101O:1][101CH2:1]CCNC(=O)c3cc([100NH:0][100C:0](=O)N4CCCC(n5nc(-c6ccc(Oc7ccc(F)cc7F)cc6)c(C(N)=O)c5N)C4)cc(C4=CCCC4)c3C)ccc2CC1C(=O)NC1CCCc2ccccc21)C(C)(C)C

> <Shape>
0.256

> <Color>
0.072

> <Negative vol penalty>
0.000

$$$$

  -OEChem-04042322553D

 88 97  0     1  0  0  0  0  0999 V2000
  -19.1304   -6.9615   21.9759 C   0  0  0  0  0  0  0  0  0  0  0  0
  -19.1745   -8.0481   22.8435 C   0  0  0  0  0  0  0  0  0  0  0  0
  -26.3972  -24.5579   18.1741 C   0  0  0  0  0  0  0  0  0  0  0  0
  -28.1372  -26.0894   18.8554 C   0  0  0  0  0  0  0  0  0  0  0  0
  -20.2997   -6.5116   21.3640 C   0  0  0  0  0  0  0  0  0  0  0  0
  -20.3881   -8.6848   23.1006 C   0  0  0  0  0  0  0  0  0  0  0  0
  -21.2646  -15.6979   21.7080 C   0  0  0  0  0  0  0  0  0  0  0  0
  -19.5731  -28.5861   25.5706 C   0  0  0  0  0  0  0  0  0  0  0  0
  -20.4311  -29.1689   24.6380 C   0  0  0  0  0  0  0  0  0  0  0  0
  -27.2726  -23.4860   18.3476 C   0  0  0  0  0  0  0  0  0  0  0  0
  -29.0127  -25.0174   19.0289 C   0  0  0  0  0  0  0  0  0  0  0  0
  -21.4444  -17.0807   21.6661 C   0  0  0  0  0  0  0  0  0  0  0  0
  -28.4961  -21.6598   20.9168 C   0  0  0  0  0  0  0  0  0  0  0  0
  -28.0166  -20.5326   21.5839 C   0  0  0  0  0  0  0  0  0  0  0  0
  -23.7431  -16.8137   22.3682 C   0  0  0  0  0  0  0  0  0  0  0  0
  -20.0045  -27.3485   23.1078 C   0  0  0  0  0  0  0  0  0  0  0  0
  -28.4615  -19.1858   19.6280 C   0  0  0  0  0  0  0  0  0  0  0  0
  -26.8294  -25.8596   18.4280 C   0  0  0  0  0  0  0  0  0  0  0  0
  -25.2759  -27.3503   17.0597 C   0  0  0  0  0  0  0  0  0  0  0  0
  -21.5267   -7.1492   21.6063 C   0  0  0  0  0  0  0  0  0  0  0  0
  -22.3291  -14.8658   22.0656 C   0  0  0  0  0  0  0  0  0  0  0  0
  -21.5751   -8.2422   22.4925 C   0  0  0  0  0  0  0  0  0  0  0  0
  -23.5725  -15.4271   22.3998 C   0  0  0  0  0  0  0  0  0  0  0  0
  -18.9309  -27.3844   25.2719 C   0  0  0  0  0  0  0  0  0  0  0  0
  -19.1466  -26.7657   24.0405 C   0  0  0  0  0  0  0  0  0  0  0  0
  -20.6468  -28.5502   23.4066 C   0  0  0  0  0  0  0  0  0  0  0  0
  -28.5804  -23.7157   18.7750 C   0  0  0  0  0  0  0  0  0  0  0  0
  -22.6805  -17.6372   21.9956 C   0  0  0  0  0  0  0  0  0  0  0  0
  -28.9583  -21.5501   19.6053 C   0  0  0  0  0  0  0  0  0  0  0  0
  -27.9993  -19.2956   20.9395 C   0  0  0  0  0  0  0  0  0  0  0  0
  -28.9410  -20.3131   18.9609 C   0  0  0  0  0  0  0  0  0  0  0  0
  -25.9257  -26.9674   18.2484 C   0  0  0  0  0  0  0  0  0  0  0  0
  -24.5359  -28.4523   17.4126 C   0  0  0  0  0  0  0  0  0  0  0  0
  -19.4443  -23.8231   22.1497 C   0  0  0  0  0  0  0  0  0  0  0  0
  -25.3357  -26.7624   15.7534 C   0  0  0  0  0  0  0  0  0  0  0  0
  -23.5514  -11.3618   22.6169 C   0  0  0  0  0  0  0  0  0  0  0  0
  -25.8120  -12.8826   21.2072 C   0  0  0  0  0  0  0  0  0  0  0  0
  -28.5042  -13.8113   19.3292 C   0  0  0  0  0  0  0  0  0  0  0  0
  -22.2308  -30.3329   22.5948 C   0  0  0  0  0  0  0  0  0  0  0  0
  -22.7719   -6.5973   20.9585 C   0  0  0  0  0  0  0  0  0  0  0  0
  -22.1636  -13.3750   22.1837 C   0  0  0  0  0  0  0  0  0  0  0  0
  -24.6792  -14.4955   22.8122 C   0  0  0  0  0  0  0  0  0  0  0  0
  -20.5180  -22.7787   21.8998 C   0  0  0  0  0  0  0  0  0  0  0  0
  -23.9550   -7.5614   20.9933 C   0  0  0  0  0  0  0  0  0  0  0  0
  -24.5040  -32.1075   20.5066 C   0  0  0  0  0  0  0  0  0  0  0  0
  -24.1105   -8.1656   22.3853 C   0  0  0  0  0  0  0  0  0  0  0  0
  -25.0629  -31.0267   19.5783 C   0  0  0  0  0  0  0  0  0  0  0  0
  -21.3544  -23.0446   24.2125 C   0  0  0  0  0  0  0  0  0  0  0  0
  -24.2735  -31.5770   21.9205 C   0  0  0  0  0  0  0  0  0  0  0  0
  -20.1272  -23.8635   24.5693 C   0  0  0  0  0  0  0  0  0  0  0  0
  -24.0161  -29.2782   21.0730 C   0  0  0  0  0  0  0  0  0  0  0  0
  -22.8683   -8.9746   22.7775 C   0  0  1  0  0  0  0  0  0  0  0  0
  -23.4230  -12.5933   21.7693 C   0  0  1  0  0  0  0  0  0  0  0  0
  -20.9803  -22.0269   23.1424 C   0  0  2  0  0  0  0  0  0  0  0  0
  -24.2038  -29.7478   19.6211 C   0  0  2  0  0  0  0  0  0  0  0  0
  -18.0175  -26.7790   26.2866 C   0  0  0  0  0  0  0  0  0  0  0  0
  -30.9288  -13.2779   18.9632 C   0  0  0  0  0  0  0  0  0  0  0  0
  -26.5195  -14.3440   23.7894 C   0  0  0  0  0  0  0  0  0  0  0  0
  -28.8490  -14.6165   22.9134 C   0  0  0  0  0  0  0  0  0  0  0  0
  -27.9264  -12.3329   23.3094 C   0  0  0  0  0  0  0  0  0  0  0  0
  -28.0336  -13.0679   16.5035 C   0  0  0  0  0  0  0  0  0  0  0  0
  -18.4647  -25.4731   23.6961 C   0  0  0  0  0  0  0  0  0  0  0  0
  -22.1594  -21.1133   22.8184 C   0  0  0  0  0  0  0  0  0  0  0  0
  -21.7038  -19.7952   22.2114 C   0  0  0  0  0  0  0  0  0  1  0  0
  -27.0759  -13.6915   21.3541 C   0  0  1  0  0  0  0  0  0  0  0  0
  -29.5002  -12.9965   18.5241 C   0  0  2  0  0  0  0  0  0  0  0  0
  -27.5704  -13.7560   22.8268 C   0  0  0  0  0  0  0  0  0  0  0  0
  -25.6251  -27.7617   19.2793 N   0  0  0  0  0  0  0  0  0  0  0  0
  -24.7783  -28.6548   18.7394 N   0  0  0  0  0  0  0  0  0  0  0  0
  -19.4206  -24.4111   23.4129 N   0  0  0  0  0  0  0  0  0  0  0  0
  -24.6960  -13.3154   21.9338 N   0  0  0  0  0  0  0  0  0  0  0  0
  -23.4486  -30.3675   21.8829 N   0  0  0  0  0  0  0  0  0  0  0  0
  -23.7081  -29.2582   16.7143 N   0  0  0  0  0  0  0  0  0  0  0  0
  -26.1452  -25.6338   15.5651 N   0  0  0  0  0  0  0  0  0  0  0  0
  -21.5167  -29.1430   22.4582 N   0  0  0  0  0  0  0  0  0  0  0  0
  -22.8761  -10.2636   22.1195 N   0  0  0  0  0  0  0  0  0  0  0  0
  -28.0406  -13.1138   20.4246 N   0  0  0  0  0  0  0  0  0  0  0  0
  -29.3820  -13.3197   17.0741 N   0  3  0  0  0  0  0  0  0  0  0  0
  -18.7079  -24.1576   21.2174 O   0  0  0  0  0  0  0  0  0  0  0  0
  -24.7033  -27.2339   14.7781 O   0  0  0  0  0  0  0  0  0  0  0  0
  -24.2153  -11.4032   23.6461 O   0  0  0  0  0  0  0  0  0  0  0  0
  -25.8128  -11.8903   20.4734 O   0  0  0  0  0  0  0  0  0  0  0  0
  -28.1734  -14.9538   19.0197 O   0  0  0  0  0  0  0  0  0  0  0  0
  -21.8365  -31.2986   23.2535 O   0  0  0  0  0  0  0  0  0  0  0  0
  -29.4349  -22.6700   18.9447 O   0  0  0  0  0  0  0  0  0  0  0  0
  -22.8505  -18.9876   21.9483 O   0  0  0  0  0  0  0  0  0  1  0  0
  -27.5402  -18.2129   21.5807 F   0  0  0  0  0  0  0  0  0  0  0  0
  -29.3849  -20.2013   17.7014 F   0  0  0  0  0  0  0  0  0  0  0  0
  1  2  1  0  0  0  0
  1  5  2  0  0  0  0
  2  6  2  0  0  0  0
  3 10  2  0  0  0  0
  3 18  1  0  0  0  0
  4 11  1  0  0  0  0
  4 18  2  0  0  0  0
  5 20  1  0  0  0  0
  6 22  1  0  0  0  0
  7 12  2  0  0  0  0
  7 21  1  0  0  0  0
  8  9  2  0  0  0  0
  8 24  1  0  0  0  0
  9 26  1  0  0  0  0
 10 27  1  0  0  0  0
 11 27  2  0  0  0  0
 12 28  1  0  0  0  0
 13 14  2  0  0  0  0
 13 29  1  0  0  0  0
 14 30  1  0  0  0  0
 15 23  1  0  0  0  0
 15 28  2  0  0  0  0
 16 25  1  0  0  0  0
 16 26  2  0  0  0  0
 17 30  2  0  0  0  0
 17 31  1  0  0  0  0
 18 32  1  0  0  0  0
 19 32  1  0  0  0  0
 19 33  2  0  0  0  0
 19 35  1  0  0  0  0
 20 22  2  0  0  0  0
 20 40  1  0  0  0  0
 21 23  2  0  0  0  0
 21 41  1  0  0  0  0
 22 52  1  0  0  0  0
 23 42  1  0  0  0  0
 24 25  2  0  0  0  0
 24 56  1  0  0  0  0
 25 62  1  0  0  0  0
 26 75  1  0  0  0  0
 27 85  1  0  0  0  0
 28 86  1  0  0  0  0
 29 31  2  0  0  0  0
 29 85  1  0  0  0  0
 30 87  1  0  0  0  0
 31 88  1  0  0  0  0
 32 68  2  0  0  0  0
 33 69  1  0  0  0  0
 33 73  1  0  0  0  0
 34 43  1  0  0  0  0
 34 70  1  0  0  0  0
 34 79  2  0  0  0  0
 35 74  1  0  0  0  0
 35 80  2  0  0  0  0
 36 53  1  0  0  0  0
 36 76  1  0  0  0  0
 36 81  2  0  0  0  0
 37 65  1  0  0  0  0
 37 71  1  0  0  0  0
 37 82  2  0  0  0  0
 38 66  1  0  0  0  0
 38 77  1  0  0  0  0
 38 83  2  0  0  0  0
 39 72  1  0  0  0  0
 39 75  1  0  0  0  0
 39 84  2  0  0  0  0
 40 44  1  0  0  0  0
 41 53  1  0  0  0  0
 42 71  1  0  0  0  0
 43 54  1  0  0  0  0
 44 46  1  0  0  0  0
 45 47  1  0  0  0  0
 45 49  1  0  0  0  0
 46 52  1  0  0  0  0
 47 55  1  0  0  0  0
 48 50  1  0  0  0  0
 48 54  1  0  0  0  0
 49 72  1  0  0  0  0
 50 70  1  0  0  0  0
 51 55  1  0  0  0  0
 51 72  1  0  0  0  0
 52 76  1  0  0  0  0
 53 71  1  0  0  0  0
 54 63  1  0  0  0  0
 55 69  1  0  0  0  0
 57 66  1  0  0  0  0
 58 67  1  0  0  0  0
 59 67  1  0  0  0  0
 60 67  1  0  0  0  0
 61 78  1  0  0  0  0
 62 70  1  0  0  0  0
 63 64  1  0  0  0  0
 64 86  1  0  0  0  0
 65 67  1  0  0  0  0
 65 77  1  0  0  0  0
 66 78  1  0  0  0  0
 68 69  1  0  0  0  0
M  CHG  1  78   1
M  ISO  4  39 100  64 101  75 100  86 101
M  END
> <Batch ID>
0057

> <Smiles>
CNC(C)C(=O)NC(C(=O)N1Cc2cc([101O:1][101CH2:1]CC3CCN(Cc4cc([100NH:0][100C:0](=O)N5CCCC(n6nc(-c7ccc(Oc8ccc(F)cc8F)cc7)c(C(N)=O)c6N)C5)ccc4C)C(=O)C3)ccc2CC1C(=O)NC1CCCc2ccccc21)C(C)(C)C

> <Shape>
0.243

> <Color>
0.062

> <Negative vol penalty>
0.000

$$$$

  -OEChem-04042322553D

 87 95  0     1  0  0  0  0  0999 V2000
  -26.2829  -18.3946   15.2965 C   0  0  0  0  0  0  0  0  0  0  0  0
  -26.6372  -18.1700   16.6229 C   0  0  0  0  0  0  0  0  0  0  0  0
  -22.6300  -28.4533   22.6788 C   0  0  0  0  0  0  0  0  0  0  0  0
  -22.7028  -26.1188   23.2967 C   0  0  0  0  0  0  0  0  0  0  0  0
  -24.9985  -18.0780   14.8560 C   0  0  0  0  0  0  0  0  0  0  0  0
  -25.7068  -17.6296   17.5099 C   0  0  0  0  0  0  0  0  0  0  0  0
  -27.6778  -13.9688   20.4011 C   0  0  0  0  0  0  0  0  0  0  0  0
  -30.2969  -20.6029   18.8980 C   0  0  0  0  0  0  0  0  0  0  0  0
  -30.1784  -21.9527   19.2290 C   0  0  0  0  0  0  0  0  0  0  0  0
  -21.2542  -28.3555   22.4712 C   0  0  0  0  0  0  0  0  0  0  0  0
  -21.3270  -26.0209   23.0892 C   0  0  0  0  0  0  0  0  0  0  0  0
  -28.4661  -14.3651   21.4807 C   0  0  0  0  0  0  0  0  0  0  0  0
  -18.4481  -28.3034   24.3570 C   0  0  0  0  0  0  0  0  0  0  0  0
  -17.6409  -29.3171   24.8732 C   0  0  0  0  0  0  0  0  0  0  0  0
  -26.5959  -14.0207   22.9649 C   0  0  0  0  0  0  0  0  0  0  0  0
  -28.9649  -21.3552   21.2309 C   0  0  0  0  0  0  0  0  0  0  0  0
  -16.8550  -29.8256   22.6459 C   0  0  0  0  0  0  0  0  0  0  0  0
  -23.3544  -27.3349   23.0914 C   0  0  0  0  0  0  0  0  0  0  0  0
  -25.4333  -27.7727   24.5036 C   0  0  0  0  0  0  0  0  0  0  0  0
  -24.0550  -17.5245   15.7357 C   0  0  0  0  0  0  0  0  0  0  0  0
  -26.3372  -13.6054   20.5942 C   0  0  0  0  0  0  0  0  0  0  0  0
  -24.4081  -17.3065   17.0811 C   0  0  0  0  0  0  0  0  0  0  0  0
  -25.7935  -13.6178   21.8866 C   0  0  0  0  0  0  0  0  0  0  0  0
  -29.7493  -19.6292   19.7334 C   0  0  0  0  0  0  0  0  0  0  0  0
  -29.0834  -20.0054   20.8998 C   0  0  0  0  0  0  0  0  0  0  0  0
  -29.5124  -22.3288   20.3955 C   0  0  0  0  0  0  0  0  0  0  0  0
  -20.6026  -27.1393   22.6764 C   0  0  0  0  0  0  0  0  0  0  0  0
  -27.9244  -14.3938   22.7624 C   0  0  0  0  0  0  0  0  0  0  0  0
  -18.4588  -28.0508   22.9852 C   0  0  0  0  0  0  0  0  0  0  0  0
  -16.8444  -30.0782   24.0177 C   0  0  0  0  0  0  0  0  0  0  0  0
  -17.6622  -28.8119   22.1296 C   0  0  0  0  0  0  0  0  0  0  0  0
  -24.7757  -27.4352   23.3054 C   0  0  0  0  0  0  0  0  0  0  0  0
  -26.7689  -27.7295   24.1862 C   0  0  0  0  0  0  0  0  0  0  0  0
  -24.8857  -28.0962   25.7886 C   0  0  0  0  0  0  0  0  0  0  0  0
  -23.5411  -14.7244   19.5778 C   0  0  0  0  0  0  0  0  0  0  0  0
  -22.3842  -12.0876   21.0716 C   0  0  0  0  0  0  0  0  0  0  0  0
  -29.4462  -17.4991   24.6683 C   0  0  0  0  0  0  0  0  0  0  0  0
  -22.8125   -9.6897   23.4619 C   0  0  0  0  0  0  0  0  0  0  0  0
  -29.8806  -24.7919   20.0157 C   0  0  0  0  0  0  0  0  0  0  0  0
  -22.6642  -17.2425   15.2249 C   0  0  0  0  0  0  0  0  0  0  0  0
  -25.5078  -13.1548   19.4231 C   0  0  0  0  0  0  0  0  0  0  0  0
  -24.3655  -13.2176   22.1500 C   0  0  0  0  0  0  0  0  0  0  0  0
  -21.8546  -16.3249   16.1375 C   0  0  0  0  0  0  0  0  0  0  0  0
  -29.7614  -28.3181   20.4939 C   0  0  0  0  0  0  0  0  0  0  0  0
  -21.9790  -16.7721   17.5905 C   0  0  0  0  0  0  0  0  0  0  0  0
  -28.5327  -28.5220   21.3832 C   0  0  0  0  0  0  0  0  0  0  0  0
  -29.5477  -27.1955   19.4801 C   0  0  0  0  0  0  0  0  0  0  0  0
  -27.8825  -26.1199   20.9427 C   0  0  0  0  0  0  0  0  0  0  0  0
  -23.4346  -16.6989   18.0675 C   0  0  1  0  0  0  0  0  0  0  0  0
  -24.0080  -13.2988   19.6624 C   0  0  1  0  0  0  0  0  0  0  0  0
  -28.0739  -27.1970   22.0230 C   0  0  2  0  0  0  0  0  0  0  0  0
  -29.8882  -18.1904   19.3576 C   0  0  0  0  0  0  0  0  0  0  0  0
  -21.6794   -7.6922   24.4736 C   0  0  0  0  0  0  0  0  0  0  0  0
  -27.0315  -18.6660   21.4247 C   0  0  0  0  0  0  0  0  0  0  0  0
  -20.4988  -13.9351   22.6020 C   0  0  0  0  0  0  0  0  0  0  0  0
  -20.0958  -12.0683   24.2208 C   0  0  0  0  0  0  0  0  0  0  0  0
  -19.4605  -11.7972   21.8238 C   0  0  0  0  0  0  0  0  0  0  0  0
  -25.0178   -7.8868   22.6587 C   0  0  0  0  0  0  0  0  0  0  0  0
  -28.9761  -16.3841   25.5894 C   0  0  0  0  0  0  0  0  0  0  0  0
  -28.5400  -19.3780   23.3052 C   0  0  0  0  0  0  0  0  0  0  0  0
  -28.0236  -15.4133   24.9087 C   0  0  0  0  0  0  0  0  0  1  0  0
  -21.9051  -11.7740   22.4684 C   0  0  1  0  0  0  0  0  0  0  0  0
  -22.6552   -8.1806   23.4143 C   0  0  2  0  0  0  0  0  0  0  0  0
  -28.4801  -18.9614   21.8273 C   0  0  2  0  0  0  0  0  0  0  0  0
  -20.5164  -12.4031   22.7739 C   0  0  0  0  0  0  0  0  0  0  0  0
  -25.6237  -27.1955   22.3017 N   0  0  0  0  0  0  0  0  0  0  0  0
  -26.8278  -27.3826   22.8684 N   0  0  0  0  0  0  0  0  0  0  0  0
  -23.5932  -12.7906   20.9716 N   0  0  0  0  0  0  0  0  0  0  0  0
  -29.1186  -25.9707   20.1588 N   0  0  0  0  0  0  0  0  0  0  0  0
  -27.8869  -27.9548   24.9085 N   0  0  0  0  0  0  0  0  0  0  0  0
  -23.4925  -28.0938   25.9410 N   0  0  0  0  0  0  0  0  0  0  0  0
  -29.3936  -23.6998   20.7332 N   0  0  0  0  0  0  0  0  0  0  0  0
  -23.8012  -15.3305   18.3636 N   0  0  0  0  0  0  0  0  0  0  0  0
  -28.3805  -18.2536   24.1990 N   0  0  0  0  0  0  0  0  0  0  0  0
  -21.9442  -10.3212   22.5968 N   0  0  0  0  0  0  0  0  0  0  0  0
  -23.9691   -7.5155   23.6433 N   0  3  0  0  0  0  0  0  0  0  0  0
  -25.6100  -28.3950   26.7682 O   0  0  0  0  0  0  0  0  0  0  0  0
  -22.9845  -15.2361   20.5422 O   0  0  0  0  0  0  0  0  0  0  0  0
  -21.7142  -11.7162   20.1048 O   0  0  0  0  0  0  0  0  0  0  0  0
  -30.6267  -17.6892   24.3889 O   0  0  0  0  0  0  0  0  0  0  0  0
  -23.6218  -10.2523   24.1961 O   0  0  0  0  0  0  0  0  0  0  0  0
  -30.9061  -24.7612   19.3305 O   0  0  0  0  0  0  0  0  0  0  0  0
  -19.2600  -27.0435   22.4743 O   0  0  0  0  0  0  0  0  0  0  0  0
  -28.6914  -14.7808   23.8177 O   0  0  0  0  0  0  0  0  0  1  0  0
  -16.0681  -31.0506   24.5138 F   0  0  0  0  0  0  0  0  0  0  0  0
  -17.6674  -28.5731   20.8110 F   0  0  0  0  0  0  0  0  0  0  0  0
  -29.1384  -17.7579   21.7409 F   0  0  0  0  0  0  0  0  0  0  0  0
  1  2  1  0  0  0  0
  1  5  2  0  0  0  0
  2  6  2  0  0  0  0
  3 10  2  0  0  0  0
  3 18  1  0  0  0  0
  4 11  1  0  0  0  0
  4 18  2  0  0  0  0
  5 20  1  0  0  0  0
  6 22  1  0  0  0  0
  7 12  2  0  0  0  0
  7 21  1  0  0  0  0
  8  9  2  0  0  0  0
  8 24  1  0  0  0  0
  9 26  1  0  0  0  0
 10 27  1  0  0  0  0
 11 27  2  0  0  0  0
 12 28  1  0  0  0  0
 13 14  2  0  0  0  0
 13 29  1  0  0  0  0
 14 30  1  0  0  0  0
 15 23  1  0  0  0  0
 15 28  2  0  0  0  0
 16 25  1  0  0  0  0
 16 26  2  0  0  0  0
 17 30  2  0  0  0  0
 17 31  1  0  0  0  0
 18 32  1  0  0  0  0
 19 32  1  0  0  0  0
 19 33  2  0  0  0  0
 19 34  1  0  0  0  0
 20 22  2  0  0  0  0
 20 40  1  0  0  0  0
 21 23  2  0  0  0  0
 21 41  1  0  0  0  0
 22 49  1  0  0  0  0
 23 42  1  0  0  0  0
 24 25  2  0  0  0  0
 24 52  1  0  0  0  0
 25 64  1  0  0  0  0
 26 72  1  0  0  0  0
 27 83  1  0  0  0  0
 28 84  1  0  0  0  0
 29 31  2  0  0  0  0
 29 83  1  0  0  0  0
 30 85  1  0  0  0  0
 31 86  1  0  0  0  0
 32 66  2  0  0  0  0
 33 67  1  0  0  0  0
 33 70  1  0  0  0  0
 34 71  1  0  0  0  0
 34 77  2  0  0  0  0
 35 50  1  0  0  0  0
 35 73  1  0  0  0  0
 35 78  2  0  0  0  0
 36 62  1  0  0  0  0
 36 68  1  0  0  0  0
 36 79  2  0  0  0  0
 37 59  1  0  0  0  0
 37 74  1  0  0  0  0
 37 80  2  0  0  0  0
 38 63  1  0  0  0  0
 38 75  1  0  0  0  0
 38 81  2  0  0  0  0
 39 69  1  0  0  0  0
 39 72  1  0  0  0  0
 39 82  2  0  0  0  0
 40 43  1  0  0  0  0
 41 50  1  0  0  0  0
 42 68  1  0  0  0  0
 43 45  1  0  0  0  0
 44 46  1  0  0  0  0
 44 47  1  0  0  0  0
 45 49  1  0  0  0  0
 46 51  1  0  0  0  0
 47 69  1  0  0  0  0
 48 51  1  0  0  0  0
 48 69  1  0  0  0  0
 49 73  1  0  0  0  0
 50 68  1  0  0  0  0
 51 67  1  0  0  0  0
 53 63  1  0  0  0  0
 54 64  1  0  0  0  0
 55 65  1  0  0  0  0
 56 65  1  0  0  0  0
 57 65  1  0  0  0  0
 58 76  1  0  0  0  0
 59 61  1  0  0  0  0
 60 64  1  0  0  0  0
 60 74  1  0  0  0  0
 61 84  1  0  0  0  0
 62 65  1  0  0  0  0
 62 75  1  0  0  0  0
 63 76  1  0  0  0  0
 64 87  1  0  0  0  0
 66 67  1  0  0  0  0
M  CHG  1  76   1
M  ISO  4  39 100  61 101  72 100  84 101
M  END
> <Batch ID>
0057

> <Smiles>
CNC(C)C(=O)NC(C(=O)N1Cc2cc([101O:1][101CH2:1]CC(=O)NCC(C)(F)c3cc([100NH:0][100C:0](=O)N4CCCC(n5nc(-c6ccc(Oc7ccc(F)cc7F)cc6)c(C(N)=O)c5N)C4)ccc3C)ccc2CC1C(=O)NC1CCCc2ccccc21)C(C)(C)C

> <Shape>
0.226

> <Color>
0.049

> <Negative vol penalty>
0.000

$$$$

  -OEChem-04042322553D

 85 94  0     1  0  0  0  0  0999 V2000
  -28.6186  -36.5938   23.7197 C   0  0  0  0  0  0  0  0  0  0  0  0
  -28.9542  -35.3732   23.1426 C   0  0  0  0  0  0  0  0  0  0  0  0
  -25.1994   -7.1387   20.4394 C   0  0  0  0  0  0  0  0  0  0  0  0
  -24.0934   -9.2241   19.9244 C   0  0  0  0  0  0  0  0  0  0  0  0
  -27.4981  -36.6893   24.5438 C   0  0  0  0  0  0  0  0  0  0  0  0
  -28.1699  -34.2472   23.3901 C   0  0  0  0  0  0  0  0  0  0  0  0
  -26.9584  -29.6764   19.4983 C   0  0  0  0  0  0  0  0  0  0  0  0
  -28.1896  -19.3675   19.3186 C   0  0  0  0  0  0  0  0  0  0  0  0
  -30.3411  -19.7426   20.3518 C   0  0  0  0  0  0  0  0  0  0  0  0
  -28.3155  -17.9984   19.5534 C   0  0  0  0  0  0  0  0  0  0  0  0
  -30.4670  -18.3734   20.5867 C   0  0  0  0  0  0  0  0  0  0  0  0
  -23.9938   -6.6144   20.9056 C   0  0  0  0  0  0  0  0  0  0  0  0
  -22.8878   -8.6998   20.3906 C   0  0  0  0  0  0  0  0  0  0  0  0
  -27.5114  -28.4061   19.3421 C   0  0  0  0  0  0  0  0  0  0  0  0
  -22.1038   -6.8197   23.7003 C   0  0  0  0  0  0  0  0  0  0  0  0
  -22.1261   -6.1178   24.9055 C   0  0  0  0  0  0  0  0  0  0  0  0
  -25.7455  -27.4772   20.6977 C   0  0  0  0  0  0  0  0  0  0  0  0
  -21.3053   -4.1477   23.7732 C   0  0  0  0  0  0  0  0  0  0  0  0
  -25.2492   -8.4436   19.9489 C   0  0  0  0  0  0  0  0  0  0  0  0
  -27.2840   -8.4940   18.4112 C   0  0  0  0  0  0  0  0  0  0  0  0
  -26.6942  -35.5661   24.7939 C   0  0  0  0  0  0  0  0  0  0  0  0
  -25.7990  -29.8584   20.2658 C   0  0  0  0  0  0  0  0  0  0  0  0
  -27.0383  -34.3275   24.2195 C   0  0  0  0  0  0  0  0  0  0  0  0
  -25.1784  -28.7504   20.8601 C   0  0  0  0  0  0  0  0  0  0  0  0
  -29.2025  -20.2397   19.7177 C   0  0  0  0  0  0  0  0  0  0  0  0
  -29.4541  -17.5013   20.1875 C   0  0  0  0  0  0  0  0  0  0  0  0
  -22.8380   -7.3949   20.8812 C   0  0  0  0  0  0  0  0  0  0  0  0
  -26.9066  -27.3067   19.9442 C   0  0  0  0  0  0  0  0  0  0  0  0
  -21.6822   -6.1856   22.5316 C   0  0  0  0  0  0  0  0  0  0  0  0
  -21.7269   -4.7818   24.9420 C   0  0  0  0  0  0  0  0  0  0  0  0
  -21.2829   -4.8496   22.5681 C   0  0  0  0  0  0  0  0  0  0  0  0
  -26.4944   -8.9859   19.4677 C   0  0  0  0  0  0  0  0  0  0  0  0
  -28.3532   -9.3542   18.3524 C   0  0  0  0  0  0  0  0  0  0  0  0
  -28.3456  -22.1373   18.3690 C   0  0  0  0  0  0  0  0  0  0  0  0
  -27.0702   -7.3610   17.5591 C   0  0  0  0  0  0  0  0  0  0  0  0
  -25.0898  -31.4743   22.9096 C   0  0  0  0  0  0  0  0  0  0  0  0
  -22.0690  -30.5152   22.2187 C   0  0  0  0  0  0  0  0  0  0  0  0
  -20.0281  -28.2697   20.6569 C   0  0  0  0  0  0  0  0  0  0  0  0
  -28.6752  -15.0993   20.0976 C   0  0  0  0  0  0  0  0  0  0  0  0
  -25.5198  -35.7077   25.7295 C   0  0  0  0  0  0  0  0  0  0  0  0
  -25.1999  -31.2313   20.4027 C   0  0  0  0  0  0  0  0  0  0  0  0
  -23.9209  -28.8895   21.6773 C   0  0  0  0  0  0  0  0  0  0  0  0
  -28.0009  -23.6159   18.3758 C   0  0  0  0  0  0  0  0  0  0  0  0
  -24.5272  -34.5513   25.6405 C   0  0  0  0  0  0  0  0  0  0  0  0
  -30.4333  -12.1110   21.7418 C   0  0  0  0  0  0  0  0  0  0  0  0
  -25.2623  -33.2147   25.6525 C   0  0  0  0  0  0  0  0  0  0  0  0
  -30.1459  -11.0393   20.6929 C   0  0  0  0  0  0  0  0  0  0  0  0
  -29.3887  -23.9961   20.3708 C   0  0  0  0  0  0  0  0  0  0  0  0
  -30.3687  -13.5184   21.1622 C   0  0  0  0  0  0  0  0  0  0  0  0
  -29.8953  -22.5643   20.2950 C   0  0  0  0  0  0  0  0  0  0  0  0
  -28.2285  -12.6546   20.1984 C   0  0  0  0  0  0  0  0  0  0  0  0
  -26.1982  -33.0890   24.4442 C   0  0  1  0  0  0  0  0  0  0  0  0
  -24.3067  -31.3737   21.6312 C   0  0  1  0  0  0  0  0  0  0  0  0
  -29.0797  -24.5048   18.9723 C   0  0  2  0  0  0  0  0  0  0  0  0
  -29.0384  -11.4470   19.7012 C   0  0  2  0  0  0  0  0  0  0  0  0
  -17.6042  -27.7244   20.3039 C   0  0  0  0  0  0  0  0  0  0  0  0
  -21.9119  -29.3914   25.0511 C   0  0  0  0  0  0  0  0  0  0  0  0
  -19.9115  -28.0649   24.3390 C   0  0  0  0  0  0  0  0  0  0  0  0
  -19.8401  -30.5576   24.2750 C   0  0  0  0  0  0  0  0  0  0  0  0
  -20.2593  -28.6074   17.7258 C   0  0  0  0  0  0  0  0  0  0  0  0
  -28.6299  -25.9630   19.0057 C   0  0  0  0  0  0  0  0  0  1  0  0
  -21.2238  -29.3129   22.5638 C   0  0  1  0  0  0  0  0  0  0  0  0
  -18.8181  -28.4619   19.7606 C   0  0  2  0  0  0  0  0  0  0  0  0
  -20.7466  -29.3290   24.0435 C   0  0  0  0  0  0  0  0  0  0  0  0
  -27.0174  -10.0740   20.0391 N   0  0  0  0  0  0  0  0  0  0  0  0
  -28.1472  -10.2730   19.3391 N   0  0  0  0  0  0  0  0  0  0  0  0
  -29.0722  -21.6605   19.4737 N   0  0  0  0  0  0  0  0  0  0  0  0
  -23.3770  -30.2532   21.7870 N   0  0  0  0  0  0  0  0  0  0  0  0
  -29.1009  -13.8019   20.4741 N   0  0  0  0  0  0  0  0  0  0  0  0
  -29.4402   -9.4066   17.5536 N   0  0  0  0  0  0  0  0  0  0  0  0
  -26.3535   -7.5459   16.3689 N   0  0  0  0  0  0  0  0  0  0  0  0
  -29.5823  -16.1101   20.4263 N   0  0  0  0  0  0  0  0  0  0  0  0
  -25.4440  -32.7653   23.2523 N   0  0  0  0  0  0  0  0  0  0  0  0
  -20.1407  -29.2814   21.5870 N   0  0  0  0  0  0  0  0  0  0  0  0
  -19.1029  -27.9522   18.3895 N   0  3  0  0  0  0  0  0  0  0  0  0
  -27.9217  -21.4472   17.4380 O   0  0  0  0  0  0  0  0  0  0  0  0
  -27.4877   -6.2151   17.8526 O   0  0  0  0  0  0  0  0  0  0  0  0
  -25.3519  -30.4563   23.5393 O   0  0  0  0  0  0  0  0  0  0  0  0
  -21.5842  -31.6448   22.3213 O   0  0  0  0  0  0  0  0  0  0  0  0
  -20.7945  -27.3153   20.5457 O   0  0  0  0  0  0  0  0  0  0  0  0
  -27.6017  -15.2871   19.5213 O   0  0  0  0  0  0  0  0  0  0  0  0
  -21.6614   -6.8836   21.3357 O   0  0  0  0  0  0  0  0  0  0  0  0
  -27.4447  -26.0658   19.7938 O   0  0  0  0  0  0  0  0  0  1  0  0
  -21.7498   -4.1075   26.0991 F   0  0  0  0  0  0  0  0  0  0  0  0
  -20.8780   -4.2348   21.4483 F   0  0  0  0  0  0  0  0  0  0  0  0
  1  2  1  0  0  0  0
  1  5  2  0  0  0  0
  2  6  2  0  0  0  0
  3 12  2  0  0  0  0
  3 19  1  0  0  0  0
  4 13  1  0  0  0  0
  4 19  2  0  0  0  0
  5 21  1  0  0  0  0
  6 23  1  0  0  0  0
  7 14  2  0  0  0  0
  7 22  1  0  0  0  0
  8 10  2  0  0  0  0
  8 25  1  0  0  0  0
  9 11  1  0  0  0  0
  9 25  2  0  0  0  0
 10 26  1  0  0  0  0
 11 26  2  0  0  0  0
 12 27  1  0  0  0  0
 13 27  2  0  0  0  0
 14 28  1  0  0  0  0
 15 16  2  0  0  0  0
 15 29  1  0  0  0  0
 16 30  1  0  0  0  0
 17 24  1  0  0  0  0
 17 28  2  0  0  0  0
 18 30  2  0  0  0  0
 18 31  1  0  0  0  0
 19 32  1  0  0  0  0
 20 32  1  0  0  0  0
 20 33  2  0  0  0  0
 20 35  1  0  0  0  0
 21 23  2  0  0  0  0
 21 40  1  0  0  0  0
 22 24  2  0  0  0  0
 22 41  1  0  0  0  0
 23 52  1  0  0  0  0
 24 42  1  0  0  0  0
 25 67  1  0  0  0  0
 26 72  1  0  0  0  0
 27 82  1  0  0  0  0
 28 83  1  0  0  0  0
 29 31  2  0  0  0  0
 29 82  1  0  0  0  0
 30 84  1  0  0  0  0
 31 85  1  0  0  0  0
 32 65  2  0  0  0  0
 33 66  1  0  0  0  0
 33 70  1  0  0  0  0
 34 43  1  0  0  0  0
 34 67  1  0  0  0  0
 34 76  2  0  0  0  0
 35 71  1  0  0  0  0
 35 77  2  0  0  0  0
 36 53  1  0  0  0  0
 36 73  1  0  0  0  0
 36 78  2  0  0  0  0
 37 62  1  0  0  0  0
 37 68  1  0  0  0  0
 37 79  2  0  0  0  0
 38 63  1  0  0  0  0
 38 74  1  0  0  0  0
 38 80  2  0  0  0  0
 39 69  1  0  0  0  0
 39 72  1  0  0  0  0
 39 81  2  0  0  0  0
 40 44  1  0  0  0  0
 41 53  1  0  0  0  0
 42 68  1  0  0  0  0
 43 54  1  0  0  0  0
 44 46  1  0  0  0  0
 45 47  1  0  0  0  0
 45 49  1  0  0  0  0
 46 52  1  0  0  0  0
 47 55  1  0  0  0  0
 48 50  1  0  0  0  0
 48 54  1  0  0  0  0
 49 69  1  0  0  0  0
 50 67  1  0  0  0  0
 51 55  1  0  0  0  0
 51 69  1  0  0  0  0
 52 73  1  0  0  0  0
 53 68  1  0  0  0  0
 54 61  1  0  0  0  0
 55 66  1  0  0  0  0
 56 63  1  0  0  0  0
 57 64  1  0  0  0  0
 58 64  1  0  0  0  0
 59 64  1  0  0  0  0
 60 75  1  0  0  0  0
 61 83  1  0  0  0  0
 62 64  1  0  0  0  0
 62 74  1  0  0  0  0
 63 75  1  0  0  0  0
 65 66  1  0  0  0  0
M  CHG  1  75   1
M  ISO  4  39 100  61 101  72 100  83 101
M  END
> <Batch ID>
0057

> <Smiles>
CNC(C)C(=O)NC(C(=O)N1Cc2cc([101O:1][101CH2:1]C3CCN(c4ccc([100NH:0][100C:0](=O)N5CCCC(n6nc(-c7ccc(Oc8ccc(F)cc8F)cc7)c(C(N)=O)c6N)C5)cc4)C(=O)C3)ccc2CC1C(=O)NC1CCCc2ccccc21)C(C)(C)C

> <Shape>
0.329

> <Color>
0.086

> <Negative vol penalty>
0.000

$$$$

  -OEChem-04042322553D

 87 96  0     1  0  0  0  0  0999 V2000
  -20.3278  -24.6615   23.9817 C   0  0  0  0  0  0  0  0  0  0  0  0
  -21.5521  -25.0720   23.4640 C   0  0  0  0  0  0  0  0  0  0  0  0
  -25.6604  -10.6180   23.1982 C   0  0  0  0  0  0  0  0  0  0  0  0
  -25.8240  -12.6287   24.5276 C   0  0  0  0  0  0  0  0  0  0  0  0
  -19.1937  -25.4508   23.7958 C   0  0  0  0  0  0  0  0  0  0  0  0
  -21.6427  -26.2716   22.7590 C   0  0  0  0  0  0  0  0  0  0  0  0
  -25.6692  -29.0250   24.1195 C   0  0  0  0  0  0  0  0  0  0  0  0
  -25.8024   -9.8447   24.3503 C   0  0  0  0  0  0  0  0  0  0  0  0
  -25.9660  -11.8554   25.6797 C   0  0  0  0  0  0  0  0  0  0  0  0
  -26.9071  -28.6389   23.6073 C   0  0  0  0  0  0  0  0  0  0  0  0
  -26.0100  -10.4110   29.0159 C   0  0  0  0  0  0  0  0  0  0  0  0
  -25.2697  -10.7782   30.1396 C   0  0  0  0  0  0  0  0  0  0  0  0
  -26.7498  -30.3720   21.9368 C   0  0  0  0  0  0  0  0  0  0  0  0
  -30.2472  -21.4933   19.3677 C   0  0  0  0  0  0  0  0  0  0  0  0
  -28.9627  -21.3102   21.4057 C   0  0  0  0  0  0  0  0  0  0  0  0
  -23.2236  -10.4717   28.8918 C   0  0  0  0  0  0  0  0  0  0  0  0
  -25.6713  -12.0100   23.2868 C   0  0  0  0  0  0  0  0  0  0  0  0
  -24.4366  -12.8142   21.2044 C   0  0  0  0  0  0  0  0  0  0  0  0
  -19.2724  -26.6655   23.0965 C   0  0  0  0  0  0  0  0  0  0  0  0
  -24.9561  -30.0823   23.5363 C   0  0  0  0  0  0  0  0  0  0  0  0
  -20.5083  -27.0773   22.5624 C   0  0  0  0  0  0  0  0  0  0  0  0
  -25.5042  -30.7713   22.4450 C   0  0  0  0  0  0  0  0  0  0  0  0
  -30.5027  -22.8353   19.6492 C   0  0  0  0  0  0  0  0  0  0  0  0
  -29.9883  -23.4148   20.8091 C   0  0  0  0  0  0  0  0  0  0  0  0
  -29.4771  -20.7307   20.2459 C   0  0  0  0  0  0  0  0  0  0  0  0
  -25.9552  -10.4634   25.5911 C   0  0  0  0  0  0  0  0  0  0  0  0
  -27.4462  -29.3105   22.5140 C   0  0  0  0  0  0  0  0  0  0  0  0
  -25.3571  -10.0742   27.8301 C   0  0  0  0  0  0  0  0  0  0  0  0
  -23.8765  -10.8085   30.0776 C   0  0  0  0  0  0  0  0  0  0  0  0
  -29.2183  -22.6522   21.6874 C   0  0  0  0  0  0  0  0  0  0  0  0
  -23.9640  -10.1045   27.7681 C   0  0  0  0  0  0  0  0  0  0  0  0
  -25.5252  -12.8094   22.0969 C   0  0  0  0  0  0  0  0  0  0  0  0
  -24.7810  -13.7377   20.2477 C   0  0  0  0  0  0  0  0  0  0  0  0
  -29.8295  -25.8250   20.2418 C   0  0  0  0  0  0  0  0  0  0  0  0
  -23.2226  -12.0522   21.2371 C   0  0  0  0  0  0  0  0  0  0  0  0
  -22.1373  -30.3606   22.0940 C   0  0  0  0  0  0  0  0  0  0  0  0
  -22.8641  -33.5216   22.1392 C   0  0  0  0  0  0  0  0  0  0  0  0
  -25.2677  -35.9400   22.2832 C   0  0  0  0  0  0  0  0  0  0  0  0
  -28.4726  -18.4608   20.7178 C   0  0  0  0  0  0  0  0  0  0  0  0
  -18.0098  -27.4617   22.8801 C   0  0  0  0  0  0  0  0  0  0  0  0
  -23.6344  -30.5039   24.1174 C   0  0  0  0  0  0  0  0  0  0  0  0
  -24.7880  -31.9261   21.7955 C   0  0  0  0  0  0  0  0  0  0  0  0
  -30.4248  -27.2024   20.4771 C   0  0  0  0  0  0  0  0  0  0  0  0
  -18.2653  -28.9021   22.4442 C   0  0  0  0  0  0  0  0  0  0  0  0
  -29.0968  -15.2677   18.6833 C   0  0  0  0  0  0  0  0  0  0  0  0
  -19.3086  -28.9463   21.3322 C   0  0  0  0  0  0  0  0  0  0  0  0
  -27.7149  -14.6267   18.7872 C   0  0  0  0  0  0  0  0  0  0  0  0
  -31.4486  -26.4652   22.5915 C   0  0  0  0  0  0  0  0  0  0  0  0
  -29.0511  -16.7759   18.8937 C   0  0  0  0  0  0  0  0  0  0  0  0
  -30.7638  -25.1137   22.4610 C   0  0  0  0  0  0  0  0  0  0  0  0
  -27.6595  -16.1147   20.8640 C   0  0  0  0  0  0  0  0  0  0  0  0
  -20.6518  -28.3844   21.8133 C   0  0  1  0  0  0  0  0  0  0  0  0
  -22.7591  -31.2612   23.1235 C   0  0  1  0  0  0  0  0  0  0  0  0
  -30.6369  -27.5712   21.9360 C   0  0  2  0  0  0  0  0  0  0  0  0
  -26.8393  -15.2554   19.8892 C   0  0  2  0  0  0  0  0  0  0  0  0
  -31.3298  -23.6284   18.6898 C   0  0  0  0  0  0  0  0  0  0  0  0
  -25.5580  -38.4325   22.2627 C   0  0  0  0  0  0  0  0  0  0  0  0
  -22.3547  -33.5538   19.1309 C   0  0  0  0  0  0  0  0  0  0  0  0
  -23.5521  -35.7499   19.0221 C   0  0  0  0  0  0  0  0  0  0  0  0
  -21.4587  -35.5378   20.3620 C   0  0  0  0  0  0  0  0  0  0  0  0
  -26.5051  -35.9343   24.9716 C   0  0  0  0  0  0  0  0  0  0  0  0
  -29.3141  -27.8451   22.6537 C   0  0  0  0  0  0  0  0  0  1  0  0
  -23.5862  -34.4660   21.2088 C   0  0  1  0  0  0  0  0  0  0  0  0
  -25.3846  -37.1949   23.1293 C   0  0  2  0  0  0  0  0  0  0  0  0
  -22.7508  -34.8039   19.9418 C   0  0  0  0  0  0  0  0  0  0  0  0
  -26.4891  -13.6620   21.7392 N   0  0  0  0  0  0  0  0  0  0  0  0
  -26.0074  -14.2111   20.6111 N   0  0  0  0  0  0  0  0  0  0  0  0
  -30.2444  -24.8064   21.1170 N   0  0  0  0  0  0  0  0  0  0  0  0
  -23.4959  -32.2966   22.3960 N   0  0  0  0  0  0  0  0  0  0  0  0
  -28.3999  -17.1637   20.1534 N   0  0  0  0  0  0  0  0  0  0  0  0
  -24.1515  -14.1827   19.1396 N   0  0  0  0  0  0  0  0  0  0  0  0
  -22.1175  -12.5847   21.9149 N   0  0  0  0  0  0  0  0  0  0  0  0
  -29.2170  -19.3674   19.9584 N   0  0  0  0  0  0  0  0  0  0  0  0
  -21.3461  -29.3603   22.6258 N   0  0  0  0  0  0  0  0  0  0  0  0
  -23.9524  -35.6285   22.0106 N   0  0  0  0  0  0  0  0  0  0  0  0
  -26.5558  -37.0948   24.0454 N   0  3  0  0  0  0  0  0  0  0  0  0
  -29.0763  -25.6769   19.2757 O   0  0  0  0  0  0  0  0  0  0  0  0
  -23.1258  -10.9248   20.6957 O   0  0  0  0  0  0  0  0  0  0  0  0
  -22.3578  -30.5595   20.9051 O   0  0  0  0  0  0  0  0  0  0  0  0
  -21.7827  -33.8614   22.6260 O   0  0  0  0  0  0  0  0  0  0  0  0
  -26.2455  -35.3022   21.8990 O   0  0  0  0  0  0  0  0  0  0  0  0
  -27.9085  -18.7384   21.7783 O   0  0  0  0  0  0  0  0  0  0  0  0
  -26.0935   -9.7091   26.7156 O   0  0  0  0  0  0  0  0  0  0  0  0
  -28.6540  -28.9353   22.0117 O   0  0  0  0  0  0  0  0  0  1  0  0
  -23.1657  -11.1597   31.1572 F   0  0  0  0  0  0  0  0  0  0  0  0
  -28.7183  -23.1981   22.8052 F   0  0  0  0  0  0  0  0  0  0  0  0
  -23.3312   -9.7808   26.6321 F   0  0  0  0  0  0  0  0  0  0  0  0
  1  2  1  0  0  0  0
  1  5  2  0  0  0  0
  2  6  2  0  0  0  0
  3  8  2  0  0  0  0
  3 17  1  0  0  0  0
  4  9  1  0  0  0  0
  4 17  2  0  0  0  0
  5 19  1  0  0  0  0
  6 21  1  0  0  0  0
  7 10  2  0  0  0  0
  7 20  1  0  0  0  0
  8 26  1  0  0  0  0
  9 26  2  0  0  0  0
 10 27  1  0  0  0  0
 11 12  2  0  0  0  0
 11 28  1  0  0  0  0
 12 29  1  0  0  0  0
 13 22  1  0  0  0  0
 13 27  2  0  0  0  0
 14 23  2  0  0  0  0
 14 25  1  0  0  0  0
 15 25  2  0  0  0  0
 15 30  1  0  0  0  0
 16 29  2  0  0  0  0
 16 31  1  0  0  0  0
 17 32  1  0  0  0  0
 18 32  1  0  0  0  0
 18 33  2  0  0  0  0
 18 35  1  0  0  0  0
 19 21  2  0  0  0  0
 19 40  1  0  0  0  0
 20 22  2  0  0  0  0
 20 41  1  0  0  0  0
 21 52  1  0  0  0  0
 22 42  1  0  0  0  0
 23 24  1  0  0  0  0
 23 56  1  0  0  0  0
 24 30  2  0  0  0  0
 24 68  1  0  0  0  0
 25 73  1  0  0  0  0
 26 83  1  0  0  0  0
 27 84  1  0  0  0  0
 28 31  2  0  0  0  0
 28 83  1  0  0  0  0
 29 85  1  0  0  0  0
 30 86  1  0  0  0  0
 31 87  1  0  0  0  0
 32 66  2  0  0  0  0
 33 67  1  0  0  0  0
 33 71  1  0  0  0  0
 34 43  1  0  0  0  0
 34 68  1  0  0  0  0
 34 77  2  0  0  0  0
 35 72  1  0  0  0  0
 35 78  2  0  0  0  0
 36 53  1  0  0  0  0
 36 74  1  0  0  0  0
 36 79  2  0  0  0  0
 37 63  1  0  0  0  0
 37 69  1  0  0  0  0
 37 80  2  0  0  0  0
 38 64  1  0  0  0  0
 38 75  1  0  0  0  0
 38 81  2  0  0  0  0
 39 70  1  0  0  0  0
 39 73  1  0  0  0  0
 39 82  2  0  0  0  0
 40 44  1  0  0  0  0
 41 53  1  0  0  0  0
 42 69  1  0  0  0  0
 43 54  1  0  0  0  0
 44 46  1  0  0  0  0
 45 47  1  0  0  0  0
 45 49  1  0  0  0  0
 46 52  1  0  0  0  0
 47 55  1  0  0  0  0
 48 50  1  0  0  0  0
 48 54  1  0  0  0  0
 49 70  1  0  0  0  0
 50 68  1  0  0  0  0
 51 55  1  0  0  0  0
 51 70  1  0  0  0  0
 52 74  1  0  0  0  0
 53 69  1  0  0  0  0
 54 62  1  0  0  0  0
 55 67  1  0  0  0  0
 57 64  1  0  0  0  0
 58 65  1  0  0  0  0
 59 65  1  0  0  0  0
 60 65  1  0  0  0  0
 61 76  1  0  0  0  0
 62 84  1  0  0  0  0
 63 65  1  0  0  0  0
 63 75  1  0  0  0  0
 64 76  1  0  0  0  0
 66 67  1  0  0  0  0
M  CHG  1  76   1
M  ISO  4  39 100  62 101  73 100  84 101
M  END
> <Batch ID>
0057

> <Smiles>
CNC(C)C(=O)NC(C(=O)N1Cc2cc([101O:1][101CH2:1]C3CCN(c4c(C)cc([100NH:0][100C:0](=O)N5CCCC(n6nc(-c7ccc(Oc8ccc(F)cc8F)cc7)c(C(N)=O)c6N)C5)cc4F)C(=O)C3)ccc2CC1C(=O)NC1CCCc2ccccc21)C(C)(C)C

> <Shape>
0.268

> <Color>
0.115

> <Negative vol penalty>
0.000

$$$$

  -OEChem-04042322553D

 85 93  0     1  0  0  0  0  0999 V2000
  -27.9009  -37.2074   24.9572 C   0  0  0  0  0  0  0  0  0  0  0  0
  -28.5056  -36.0890   24.3926 C   0  0  0  0  0  0  0  0  0  0  0  0
  -24.0299   -8.5088   20.3668 C   0  0  0  0  0  0  0  0  0  0  0  0
  -23.2003  -10.6723   21.0510 C   0  0  0  0  0  0  0  0  0  0  0  0
  -26.5976  -37.1222   25.4450 C   0  0  0  0  0  0  0  0  0  0  0  0
  -27.8075  -34.8842   24.3164 C   0  0  0  0  0  0  0  0  0  0  0  0
  -27.1230  -29.0811   20.1726 C   0  0  0  0  0  0  0  0  0  0  0  0
  -28.1420  -18.2511   22.4485 C   0  0  0  0  0  0  0  0  0  0  0  0
  -30.4712  -17.8180   22.9218 C   0  0  0  0  0  0  0  0  0  0  0  0
  -28.1053  -17.1373   21.6097 C   0  0  0  0  0  0  0  0  0  0  0  0
  -30.4345  -16.7041   22.0829 C   0  0  0  0  0  0  0  0  0  0  0  0
  -23.1667   -7.8915   21.2720 C   0  0  0  0  0  0  0  0  0  0  0  0
  -22.3371  -10.0550   21.9563 C   0  0  0  0  0  0  0  0  0  0  0  0
  -27.1603  -27.6897   20.2531 C   0  0  0  0  0  0  0  0  0  0  0  0
  -23.0558   -7.2960   24.5973 C   0  0  0  0  0  0  0  0  0  0  0  0
  -23.5727   -6.2695   25.3876 C   0  0  0  0  0  0  0  0  0  0  0  0
  -24.8856  -27.6812   21.0561 C   0  0  0  0  0  0  0  0  0  0  0  0
  -21.9569   -4.7359   24.4524 C   0  0  0  0  0  0  0  0  0  0  0  0
  -24.0467   -9.8992   20.2563 C   0  0  0  0  0  0  0  0  0  0  0  0
  -24.6722  -10.8606   17.9777 C   0  0  0  0  0  0  0  0  0  0  0  0
  -25.8797  -35.9184   25.3660 C   0  0  0  0  0  0  0  0  0  0  0  0
  -25.9684  -29.7848   20.5443 C   0  0  0  0  0  0  0  0  0  0  0  0
  -26.4938  -34.7825   24.8048 C   0  0  0  0  0  0  0  0  0  0  0  0
  -24.8353  -29.0813   20.9770 C   0  0  0  0  0  0  0  0  0  0  0  0
  -29.3250  -18.5915   23.1045 C   0  0  0  0  0  0  0  0  0  0  0  0
  -29.2515  -16.3638   21.4269 C   0  0  0  0  0  0  0  0  0  0  0  0
  -22.3203   -8.6646   22.0668 C   0  0  0  0  0  0  0  0  0  0  0  0
  -26.0424  -26.9897   20.6976 C   0  0  0  0  0  0  0  0  0  0  0  0
  -21.9894   -7.0425   23.7346 C   0  0  0  0  0  0  0  0  0  0  0  0
  -23.0233   -4.9894   25.3152 C   0  0  0  0  0  0  0  0  0  0  0  0
  -21.4400   -5.7625   23.6621 C   0  0  0  0  0  0  0  0  0  0  0  0
  -24.9385  -10.5375   19.3217 C   0  0  0  0  0  0  0  0  0  0  0  0
  -25.8305  -11.4474   17.5296 C   0  0  0  0  0  0  0  0  0  0  0  0
  -23.4841  -10.6494   17.2034 C   0  0  0  0  0  0  0  0  0  0  0  0
  -25.2790  -31.9490   22.7680 C   0  0  0  0  0  0  0  0  0  0  0  0
  -22.4161  -32.0316   21.2451 C   0  0  0  0  0  0  0  0  0  0  0  0
  -28.2347  -21.7368   22.9098 C   0  0  0  0  0  0  0  0  0  0  0  0
  -20.1478  -30.4413   19.2520 C   0  0  0  0  0  0  0  0  0  0  0  0
  -30.2621  -14.3588   20.2845 C   0  0  0  0  0  0  0  0  0  0  0  0
  -24.4902  -35.8622   25.9496 C   0  0  0  0  0  0  0  0  0  0  0  0
  -25.9352  -31.2840   20.4264 C   0  0  0  0  0  0  0  0  0  0  0  0
  -23.5644  -29.7885   21.3685 C   0  0  0  0  0  0  0  0  0  0  0  0
  -23.6857  -34.6486   25.4911 C   0  0  0  0  0  0  0  0  0  0  0  0
  -30.5619  -11.4385   18.2697 C   0  0  0  0  0  0  0  0  0  0  0  0
  -24.5282  -33.3809   25.5908 C   0  0  0  0  0  0  0  0  0  0  0  0
  -29.1287  -10.9089   18.1835 C   0  0  0  0  0  0  0  0  0  0  0  0
  -30.8645  -12.0348   19.6433 C   0  0  0  0  0  0  0  0  0  0  0  0
  -28.4789  -12.5249   20.0146 C   0  0  0  0  0  0  0  0  0  0  0  0
  -25.7604  -33.4645   24.6817 C   0  0  1  0  0  0  0  0  0  0  0  0
  -24.8806  -31.9303   21.3194 C   0  0  1  0  0  0  0  0  0  0  0  0
  -28.1068  -11.9733   18.6287 C   0  0  2  0  0  0  0  0  0  0  0  0
  -17.8851  -30.7464   18.2107 C   0  0  0  0  0  0  0  0  0  0  0  0
  -21.1037  -31.5074   23.9493 C   0  0  0  0  0  0  0  0  0  0  0  0
  -19.0062  -30.8849   22.7324 C   0  0  0  0  0  0  0  0  0  0  0  0
  -19.9260  -33.1946   22.5277 C   0  0  0  0  0  0  0  0  0  0  0  0
  -30.7310  -21.5083   22.8887 C   0  0  0  0  0  0  0  0  0  0  0  0
  -21.2467  -30.1996   16.5146 C   0  0  0  0  0  0  0  0  0  0  0  0
  -29.3644  -19.7904   24.0074 C   0  0  0  0  0  0  0  0  0  0  0  0
  -28.4341  -23.0257   22.1229 C   0  0  0  0  0  0  0  0  0  0  0  0
  -27.1155  -23.7202   21.7893 C   0  0  0  0  0  0  0  0  0  0  0  0
  -27.3416  -25.0282   21.0448 C   0  0  0  0  0  0  0  0  0  1  0  0
  -21.1128  -31.2814   21.3774 C   0  0  1  0  0  0  0  0  0  0  0  0
  -19.3859  -30.9056   18.0238 C   0  0  2  0  0  0  0  0  0  0  0  0
  -20.3116  -31.7036   22.6412 C   0  0  0  0  0  0  0  0  0  0  0  0
  -26.1694  -10.8895   19.7026 N   0  0  0  0  0  0  0  0  0  0  0  0
  -26.6869  -11.4399   18.5911 N   0  0  0  0  0  0  0  0  0  0  0  0
  -23.5836  -31.2551   21.2419 N   0  0  0  0  0  0  0  0  0  0  0  0
  -29.8578  -13.0380   19.9964 N   0  0  0  0  0  0  0  0  0  0  0  0
  -26.1898  -11.9637   16.3352 N   0  0  0  0  0  0  0  0  0  0  0  0
  -22.3863  -10.0329   17.8190 N   0  0  0  0  0  0  0  0  0  0  0  0
  -29.2145  -15.2321   20.5750 N   0  0  0  0  0  0  0  0  0  0  0  0
  -25.3901  -33.2175   23.3046 N   0  0  0  0  0  0  0  0  0  0  0  0
  -20.3973  -31.4816   20.1219 N   0  0  0  0  0  0  0  0  0  0  0  0
  -29.3969  -21.0388   23.2554 N   0  0  0  0  0  0  0  0  0  0  0  0
  -19.7973  -30.1150   16.8294 N   0  3  0  0  0  0  0  0  0  0  0  0
  -23.4043  -10.9822   15.9966 O   0  0  0  0  0  0  0  0  0  0  0  0
  -25.4700  -30.8908   23.3558 O   0  0  0  0  0  0  0  0  0  0  0  0
  -22.3986  -33.2606   21.1410 O   0  0  0  0  0  0  0  0  0  0  0  0
  -27.1000  -21.3567   23.2102 O   0  0  0  0  0  0  0  0  0  0  0  0
  -20.4845  -29.2719   19.4242 O   0  0  0  0  0  0  0  0  0  0  0  0
  -31.4480  -14.6970   20.2477 O   0  0  0  0  0  0  0  0  0  0  0  0
  -21.4778   -8.0626   22.9501 O   0  0  0  0  0  0  0  0  0  0  0  0
  -26.0764  -25.6317   20.7777 O   0  0  0  0  0  0  0  0  0  1  0  0
  -23.5208   -4.0033   26.0730 F   0  0  0  0  0  0  0  0  0  0  0  0
  -20.4162   -5.5126   22.8344 F   0  0  0  0  0  0  0  0  0  0  0  0
  1  2  1  0  0  0  0
  1  5  2  0  0  0  0
  2  6  2  0  0  0  0
  3 12  2  0  0  0  0
  3 19  1  0  0  0  0
  4 13  1  0  0  0  0
  4 19  2  0  0  0  0
  5 21  1  0  0  0  0
  6 23  1  0  0  0  0
  7 14  2  0  0  0  0
  7 22  1  0  0  0  0
  8 10  2  0  0  0  0
  8 25  1  0  0  0  0
  9 11  1  0  0  0  0
  9 25  2  0  0  0  0
 10 26  1  0  0  0  0
 11 26  2  0  0  0  0
 12 27  1  0  0  0  0
 13 27  2  0  0  0  0
 14 28  1  0  0  0  0
 15 16  2  0  0  0  0
 15 29  1  0  0  0  0
 16 30  1  0  0  0  0
 17 24  1  0  0  0  0
 17 28  2  0  0  0  0
 18 30  2  0  0  0  0
 18 31  1  0  0  0  0
 19 32  1  0  0  0  0
 20 32  1  0  0  0  0
 20 33  2  0  0  0  0
 20 34  1  0  0  0  0
 21 23  2  0  0  0  0
 21 40  1  0  0  0  0
 22 24  2  0  0  0  0
 22 41  1  0  0  0  0
 23 49  1  0  0  0  0
 24 42  1  0  0  0  0
 25 58  1  0  0  0  0
 26 71  1  0  0  0  0
 27 82  1  0  0  0  0
 28 83  1  0  0  0  0
 29 31  2  0  0  0  0
 29 82  1  0  0  0  0
 30 84  1  0  0  0  0
 31 85  1  0  0  0  0
 32 65  2  0  0  0  0
 33 66  1  0  0  0  0
 33 69  1  0  0  0  0
 34 70  1  0  0  0  0
 34 76  2  0  0  0  0
 35 50  1  0  0  0  0
 35 72  1  0  0  0  0
 35 77  2  0  0  0  0
 36 62  1  0  0  0  0
 36 67  1  0  0  0  0
 36 78  2  0  0  0  0
 37 59  1  0  0  0  0
 37 74  1  0  0  0  0
 37 79  2  0  0  0  0
 38 63  1  0  0  0  0
 38 73  1  0  0  0  0
 38 80  2  0  0  0  0
 39 68  1  0  0  0  0
 39 71  1  0  0  0  0
 39 81  2  0  0  0  0
 40 43  1  0  0  0  0
 41 50  1  0  0  0  0
 42 67  1  0  0  0  0
 43 45  1  0  0  0  0
 44 46  1  0  0  0  0
 44 47  1  0  0  0  0
 45 49  1  0  0  0  0
 46 51  1  0  0  0  0
 47 68  1  0  0  0  0
 48 51  1  0  0  0  0
 48 68  1  0  0  0  0
 49 72  1  0  0  0  0
 50 67  1  0  0  0  0
 51 66  1  0  0  0  0
 52 63  1  0  0  0  0
 53 64  1  0  0  0  0
 54 64  1  0  0  0  0
 55 64  1  0  0  0  0
 56 74  1  0  0  0  0
 57 75  1  0  0  0  0
 58 74  1  0  0  0  0
 59 60  1  0  0  0  0
 60 61  1  0  0  0  0
 61 83  1  0  0  0  0
 62 64  1  0  0  0  0
 62 73  1  0  0  0  0
 63 75  1  0  0  0  0
 65 66  1  0  0  0  0
M  CHG  1  75   1
M  ISO  4  39 100  61 101  71 100  83 101
M  END
> <Batch ID>
0057

> <Smiles>
CNC(C)C(=O)NC(C(=O)N1Cc2cc([101O:1][101CH2:1]CCC(=O)N(C)Cc3ccc([100NH:0][100C:0](=O)N4CCCC(n5nc(-c6ccc(Oc7ccc(F)cc7F)cc6)c(C(N)=O)c5N)C4)cc3)ccc2CC1C(=O)NC1CCCc2ccccc21)C(C)(C)C

> <Shape>
0.265

> <Color>
0.089

> <Negative vol penalty>
0.000

$$$$

  -OEChem-04042322553D

 91100  0     1  0  0  0  0  0999 V2000
  -19.7523  -16.5161   24.4506 C   0  0  0  0  0  0  0  0  0  0  0  0
  -20.5914  -17.3056   23.6710 C   0  0  0  0  0  0  0  0  0  0  0  0
  -19.5409  -28.2931   21.7381 C   0  0  0  0  0  0  0  0  0  0  0  0
  -20.4866  -27.2126   23.6811 C   0  0  0  0  0  0  0  0  0  0  0  0
  -20.2326  -15.3338   25.0123 C   0  0  0  0  0  0  0  0  0  0  0  0
  -21.9119  -16.9139   23.4535 C   0  0  0  0  0  0  0  0  0  0  0  0
  -25.2187  -17.7774   18.3716 C   0  0  0  0  0  0  0  0  0  0  0  0
  -18.3480  -27.5967   21.9314 C   0  0  0  0  0  0  0  0  0  0  0  0
  -19.2936  -26.5162   23.8744 C   0  0  0  0  0  0  0  0  0  0  0  0
  -26.1707  -18.7345   18.0234 C   0  0  0  0  0  0  0  0  0  0  0  0
  -15.6316  -27.8165   23.9328 C   0  0  0  0  0  0  0  0  0  0  0  0
  -14.4389  -28.5319   23.8272 C   0  0  0  0  0  0  0  0  0  0  0  0
  -28.3031  -24.9764   23.9342 C   0  0  0  0  0  0  0  0  0  0  0  0
  -27.9271  -17.2216   18.6909 C   0  0  0  0  0  0  0  0  0  0  0  0
  -29.3630  -24.4644   21.8243 C   0  0  0  0  0  0  0  0  0  0  0  0
  -13.7348  -27.0912   22.0199 C   0  0  0  0  0  0  0  0  0  0  0  0
  -20.6103  -28.1010   22.6129 C   0  0  0  0  0  0  0  0  0  0  0  0
  -28.9853  -23.9178   24.5338 C   0  0  0  0  0  0  0  0  0  0  0  0
  -22.1897  -30.0768   22.9439 C   0  0  0  0  0  0  0  0  0  0  0  0
  -21.5569  -14.9225   24.7936 C   0  0  0  0  0  0  0  0  0  0  0  0
  -25.6140  -16.5372   18.8933 C   0  0  0  0  0  0  0  0  0  0  0  0
  -22.4109  -15.7258   24.0139 C   0  0  0  0  0  0  0  0  0  0  0  0
  -26.9782  -16.2495   19.0426 C   0  0  0  0  0  0  0  0  0  0  0  0
  -30.0453  -23.4058   22.4240 C   0  0  0  0  0  0  0  0  0  0  0  0
  -29.8564  -23.1325   23.7787 C   0  0  0  0  0  0  0  0  0  0  0  0
  -28.4919  -25.2497   22.5794 C   0  0  0  0  0  0  0  0  0  0  0  0
  -18.2243  -26.7082   22.9996 C   0  0  0  0  0  0  0  0  0  0  0  0
  -27.5250  -18.4578   18.1857 C   0  0  0  0  0  0  0  0  0  0  0  0
  -15.8760  -26.7384   23.0820 C   0  0  0  0  0  0  0  0  0  0  0  0
  -13.4905  -28.1693   22.8707 C   0  0  0  0  0  0  0  0  0  0  0  0
  -14.9276  -26.3758   22.1256 C   0  0  0  0  0  0  0  0  0  0  0  0
  -21.8431  -28.8197   22.4133 C   0  0  0  0  0  0  0  0  0  0  0  0
  -23.4537  -30.3159   22.4627 C   0  0  0  0  0  0  0  0  0  0  0  0
  -30.3880  -23.8101   18.1490 C   0  0  0  0  0  0  0  0  0  0  0  0
  -29.6553  -21.5119   19.7894 C   0  0  0  0  0  0  0  0  0  0  0  0
  -28.7680  -23.6562   25.9504 C   0  0  0  0  0  0  0  0  0  0  0  0
  -21.4365  -30.9502   23.7956 C   0  0  0  0  0  0  0  0  0  0  0  0
  -25.1528  -15.0103   21.6427 C   0  0  0  0  0  0  0  0  0  0  0  0
  -26.6631  -12.5880   20.1020 C   0  0  0  0  0  0  0  0  0  0  0  0
  -28.8013  -11.6162   17.6259 C   0  0  0  0  0  0  0  0  0  0  0  0
  -27.8729  -26.7314   20.6384 C   0  0  0  0  0  0  0  0  0  0  0  0
  -22.0447  -13.6608   25.4606 C   0  0  0  0  0  0  0  0  0  0  0  0
  -24.5756  -15.5054   19.2390 C   0  0  0  0  0  0  0  0  0  0  0  0
  -27.4554  -14.9256   19.5793 C   0  0  0  0  0  0  0  0  0  0  0  0
  -29.0991  -23.0562   17.9211 C   0  0  0  0  0  0  0  0  0  0  0  0
  -31.3049  -23.2974   19.2356 C   0  0  0  0  0  0  0  0  0  0  0  0
  -23.3483  -13.1262   24.8732 C   0  0  0  0  0  0  0  0  0  0  0  0
  -26.2992  -29.3042   18.7459 C   0  0  0  0  0  0  0  0  0  0  0  0
  -24.3609  -14.2547   24.7061 C   0  0  0  0  0  0  0  0  0  0  0  0
  -25.0123  -29.5906   19.5232 C   0  0  0  0  0  0  0  0  0  0  0  0
  -26.6547  -27.8186   18.7652 C   0  0  0  0  0  0  0  0  0  0  0  0
  -25.4297  -27.4987   20.8785 C   0  0  0  0  0  0  0  0  0  0  0  0
  -23.8423  -15.3219   23.7347 C   0  0  1  0  0  0  0  0  0  0  0  0
  -29.3126  -21.5907   18.3025 C   0  0  2  0  0  0  0  0  0  0  0  0
  -25.0732  -14.4700   20.2429 C   0  0  1  0  0  0  0  0  0  0  0  0
  -25.0658  -28.9910   20.9421 C   0  0  2  0  0  0  0  0  0  0  0  0
  -30.5890  -21.9956   24.4191 C   0  0  0  0  0  0  0  0  0  0  0  0
  -29.1082  -24.7528   26.9156 C   0  0  0  0  0  0  0  0  0  0  0  0
  -29.8707   -9.5732   16.6361 C   0  0  0  0  0  0  0  0  0  0  0  0
  -28.5963  -12.4608   22.4592 C   0  0  0  0  0  0  0  0  0  0  0  0
  -30.1473  -11.1172   21.0249 C   0  0  0  0  0  0  0  0  0  0  0  0
  -27.8806  -10.2334   21.5757 C   0  0  0  0  0  0  0  0  0  0  0  0
  -27.5320  -12.0851   14.9938 C   0  0  0  0  0  0  0  0  0  0  0  0
  -30.9773  -22.5758   21.5893 C   0  0  0  0  0  0  0  0  0  0  0  0
  -28.0770  -20.7609   17.9683 C   0  0  0  0  0  0  0  0  0  1  0  0
  -28.0999  -12.1524   19.9443 C   0  0  1  0  0  0  0  0  0  0  0  0
  -28.6923  -10.5321   16.5689 C   0  0  2  0  0  0  0  0  0  0  0  0
  -28.6723  -11.5167   21.2427 C   0  0  0  0  0  0  0  0  0  0  0  0
  -22.8089  -28.2968   21.6531 N   0  0  0  0  0  0  0  0  0  0  0  0
  -23.7747  -29.2299   21.7025 N   0  0  0  0  0  0  0  0  0  0  0  0
  -30.5494  -22.5069   20.2008 N   0  0  0  0  0  0  0  0  0  0  0  0
  -26.4015  -13.9519   19.9091 N   0  0  0  0  0  0  0  0  0  0  0  0
  -26.6910  -27.3210   20.1421 N   0  0  0  0  0  0  0  0  0  0  0  0
  -24.3108  -31.3470   22.6198 N   0  0  0  0  0  0  0  0  0  0  0  0
  -20.1543  -30.5504   24.1964 N   0  0  0  0  0  0  0  0  0  0  0  0
  -27.7993  -26.3254   21.9704 N   0  0  0  0  0  0  0  0  0  0  0  0
  -23.9839  -14.8717   22.3666 N   0  0  0  0  0  0  0  0  0  0  0  0
  -28.1341  -11.2711   18.7822 N   0  0  0  0  0  0  0  0  0  0  0  0
  -28.6561  -11.1377   15.2077 N   0  3  0  0  0  0  0  0  0  0  0  0
  -30.7142  -24.7534   17.4289 O   0  0  0  0  0  0  0  0  0  0  0  0
  -29.1781  -20.6502   20.5262 O   0  0  0  0  0  0  0  0  0  0  0  0
  -28.3312  -22.6018   26.4126 O   0  0  0  0  0  0  0  0  0  0  0  0
  -21.8806  -32.0599   24.1763 O   0  0  0  0  0  0  0  0  0  0  0  0
  -26.1979  -15.5141   22.0374 O   0  0  0  0  0  0  0  0  0  0  0  0
  -25.8034  -11.7478   20.3788 O   0  0  0  0  0  0  0  0  0  0  0  0
  -29.4198  -12.6628   17.4454 O   0  0  0  0  0  0  0  0  0  0  0  0
  -28.8852  -26.6214   19.9419 O   0  0  0  0  0  0  0  0  0  0  0  0
  -17.0602  -26.0287   23.1887 O   0  0  0  0  0  0  0  0  0  0  0  0
  -28.4563  -19.3905   17.8471 O   0  0  0  0  0  0  0  0  0  1  0  0
  -12.3445  -28.8555   22.7704 F   0  0  0  0  0  0  0  0  0  0  0  0
  -15.1562  -25.3404   21.3062 F   0  0  0  0  0  0  0  0  0  0  0  0
  1  2  1  0  0  0  0
  1  5  2  0  0  0  0
  2  6  2  0  0  0  0
  3  8  2  0  0  0  0
  3 17  1  0  0  0  0
  4  9  1  0  0  0  0
  4 17  2  0  0  0  0
  5 20  1  0  0  0  0
  6 22  1  0  0  0  0
  7 10  2  0  0  0  0
  7 21  1  0  0  0  0
  8 27  1  0  0  0  0
  9 27  2  0  0  0  0
 10 28  1  0  0  0  0
 11 12  2  0  0  0  0
 11 29  1  0  0  0  0
 12 30  1  0  0  0  0
 13 18  2  0  0  0  0
 13 26  1  0  0  0  0
 14 23  1  0  0  0  0
 14 28  2  0  0  0  0
 15 24  1  0  0  0  0
 15 26  2  0  0  0  0
 16 30  2  0  0  0  0
 16 31  1  0  0  0  0
 17 32  1  0  0  0  0
 18 25  1  0  0  0  0
 18 36  1  0  0  0  0
 19 32  1  0  0  0  0
 19 33  2  0  0  0  0
 19 37  1  0  0  0  0
 20 22  2  0  0  0  0
 20 42  1  0  0  0  0
 21 23  2  0  0  0  0
 21 43  1  0  0  0  0
 22 53  1  0  0  0  0
 23 44  1  0  0  0  0
 24 25  2  0  0  0  0
 24 64  1  0  0  0  0
 25 57  1  0  0  0  0
 26 76  1  0  0  0  0
 27 88  1  0  0  0  0
 28 89  1  0  0  0  0
 29 31  2  0  0  0  0
 29 88  1  0  0  0  0
 30 90  1  0  0  0  0
 31 91  1  0  0  0  0
 32 69  2  0  0  0  0
 33 70  1  0  0  0  0
 33 74  1  0  0  0  0
 34 45  1  0  0  0  0
 34 46  1  0  0  0  0
 34 80  2  0  0  0  0
 35 54  1  0  0  0  0
 35 71  1  0  0  0  0
 35 81  2  0  0  0  0
 36 58  1  0  0  0  0
 36 82  2  0  0  0  0
 37 75  1  0  0  0  0
 37 83  2  0  0  0  0
 38 55  1  0  0  0  0
 38 77  1  0  0  0  0
 38 84  2  0  0  0  0
 39 66  1  0  0  0  0
 39 72  1  0  0  0  0
 39 85  2  0  0  0  0
 40 67  1  0  0  0  0
 40 78  1  0  0  0  0
 40 86  2  0  0  0  0
 41 73  1  0  0  0  0
 41 76  1  0  0  0  0
 41 87  2  0  0  0  0
 42 47  1  0  0  0  0
 43 55  1  0  0  0  0
 44 72  1  0  0  0  0
 45 54  1  0  0  0  0
 46 71  1  0  0  0  0
 47 49  1  0  0  0  0
 48 50  1  0  0  0  0
 48 51  1  0  0  0  0
 49 53  1  0  0  0  0
 50 56  1  0  0  0  0
 51 73  1  0  0  0  0
 52 56  1  0  0  0  0
 52 73  1  0  0  0  0
 53 77  1  0  0  0  0
 54 65  1  0  0  0  0
 55 72  1  0  0  0  0
 56 70  1  0  0  0  0
 59 67  1  0  0  0  0
 60 68  1  0  0  0  0
 61 68  1  0  0  0  0
 62 68  1  0  0  0  0
 63 79  1  0  0  0  0
 64 71  1  0  0  0  0
 65 89  1  0  0  0  0
 66 68  1  0  0  0  0
 66 78  1  0  0  0  0
 67 79  1  0  0  0  0
 69 70  1  0  0  0  0
M  CHG  1  79   1
M  ISO  4  41 100  65 101  76 100  89 101
M  END
> <Batch ID>
0057

> <Smiles>
CNC(C)C(=O)NC(C(=O)N1Cc2cc([101O:1][101CH2:1]C3CC(=O)CN(Cc4cc([100NH:0][100C:0](=O)N5CCCC(n6nc(-c7ccc(Oc8ccc(F)cc8F)cc7)c(C(N)=O)c6N)C5)cc(C(C)=O)c4C)C3=O)ccc2CC1C(=O)NC1CCCc2ccccc21)C(C)(C)C

> <Shape>
0.237

> <Color>
0.081

> <Negative vol penalty>
0.000

$$$$

  -OEChem-04042322553D

 86 94  0     1  0  0  0  0  0999 V2000
  -16.7365  -30.5469   23.3500 C   0  0  0  0  0  0  0  0  0  0  0  0
  -17.7968  -30.9997   22.5714 C   0  0  0  0  0  0  0  0  0  0  0  0
  -28.6810  -24.8165   23.9612 C   0  0  0  0  0  0  0  0  0  0  0  0
  -26.7035  -12.5793   21.0602 C   0  0  0  0  0  0  0  0  0  0  0  0
  -25.2853  -14.2885   20.1093 C   0  0  0  0  0  0  0  0  0  0  0  0
  -29.1590  -25.1857   22.7039 C   0  0  0  0  0  0  0  0  0  0  0  0
  -16.9628  -29.6088   24.3563 C   0  0  0  0  0  0  0  0  0  0  0  0
  -19.0843  -30.5153   22.7994 C   0  0  0  0  0  0  0  0  0  0  0  0
  -25.1502  -28.9354   19.3316 C   0  0  0  0  0  0  0  0  0  0  0  0
  -28.6054  -23.4681   24.3102 C   0  0  0  0  0  0  0  0  0  0  0  0
  -25.8129  -11.5981   20.6249 C   0  0  0  0  0  0  0  0  0  0  0  0
  -24.3947  -13.3073   19.6739 C   0  0  0  0  0  0  0  0  0  0  0  0
  -26.5182  -29.2000   19.3791 C   0  0  0  0  0  0  0  0  0  0  0  0
  -23.7304   -8.6677   20.0771 C   0  0  0  0  0  0  0  0  0  0  0  0
  -23.3941   -7.6519   20.9719 C   0  0  0  0  0  0  0  0  0  0  0  0
  -26.7772  -27.5220   21.0928 C   0  0  0  0  0  0  0  0  0  0  0  0
  -22.5079   -9.2956   22.5049 C   0  0  0  0  0  0  0  0  0  0  0  0
  -26.4397  -13.9245   20.8024 C   0  0  0  0  0  0  0  0  0  0  0  0
  -29.5612  -24.2066   21.7955 C   0  0  0  0  0  0  0  0  0  0  0  0
  -28.4604  -15.4607   20.5478 C   0  0  0  0  0  0  0  0  0  0  0  0
  -18.2522  -29.1054   24.5904 C   0  0  0  0  0  0  0  0  0  0  0  0
  -24.5827  -27.9681   20.1735 C   0  0  0  0  0  0  0  0  0  0  0  0
  -19.3284  -29.5705   23.8107 C   0  0  0  0  0  0  0  0  0  0  0  0
  -25.4021  -27.2452   21.0522 C   0  0  0  0  0  0  0  0  0  0  0  0
  -29.4855  -22.8582   22.1445 C   0  0  0  0  0  0  0  0  0  0  0  0
  -29.0076  -22.4889   23.4018 C   0  0  0  0  0  0  0  0  0  0  0  0
  -24.6585  -11.9620   19.9317 C   0  0  0  0  0  0  0  0  0  0  0  0
  -27.3315  -28.4953   20.2618 C   0  0  0  0  0  0  0  0  0  0  0  0
  -23.4555   -9.9975   20.3962 C   0  0  0  0  0  0  0  0  0  0  0  0
  -22.7829   -7.9658   22.1858 C   0  0  0  0  0  0  0  0  0  0  0  0
  -22.8442  -10.3114   21.6101 C   0  0  0  0  0  0  0  0  0  0  0  0
  -27.3591  -14.9387   21.2524 C   0  0  0  0  0  0  0  0  0  0  0  0
  -29.0053  -16.3888   21.4012 C   0  0  0  0  0  0  0  0  0  0  0  0
  -30.0666  -24.6320   20.4648 C   0  0  0  0  0  0  0  0  0  0  0  0
  -28.9472  -15.1358   19.2389 C   0  0  0  0  0  0  0  0  0  0  0  0
  -22.4052  -28.0089   22.4888 C   0  0  0  0  0  0  0  0  0  0  0  0
  -22.7807  -24.7893   22.3656 C   0  0  0  0  0  0  0  0  0  0  0  0
  -24.7613  -22.1325   21.5498 C   0  0  0  0  0  0  0  0  0  0  0  0
  -28.4692  -20.6105   24.9918 C   0  0  0  0  0  0  0  0  0  0  0  0
  -18.4557  -28.1278   25.7206 C   0  0  0  0  0  0  0  0  0  0  0  0
  -23.1095  -27.6758   20.0911 C   0  0  0  0  0  0  0  0  0  0  0  0
  -24.8452  -26.1824   21.9626 C   0  0  0  0  0  0  0  0  0  0  0  0
  -19.7873  -27.3846   25.6508 C   0  0  0  0  0  0  0  0  0  0  0  0
  -28.0710  -17.3185   26.2884 C   0  0  0  0  0  0  0  0  0  0  0  0
  -20.9271  -28.3573   25.3656 C   0  0  0  0  0  0  0  0  0  0  0  0
  -27.9409  -16.4488   25.0358 C   0  0  0  0  0  0  0  0  0  0  0  0
  -27.3880  -18.6735   26.1115 C   0  0  0  0  0  0  0  0  0  0  0  0
  -27.6700  -18.5559   23.6669 C   0  0  0  0  0  0  0  0  0  0  0  0
  -20.7352  -29.0503   24.0112 C   0  0  1  0  0  0  0  0  0  0  0  0
  -22.5566  -27.0308   21.3583 C   0  0  1  0  0  0  0  0  0  0  0  0
  -28.3984  -17.2062   23.7738 C   0  0  2  0  0  0  0  0  0  0  0  0
  -29.9172  -21.8082   21.1684 C   0  0  0  0  0  0  0  0  0  0  0  0
  -24.8116  -19.6241   21.6001 C   0  0  0  0  0  0  0  0  0  0  0  0
  -23.3186  -24.8627   25.3682 C   0  0  0  0  0  0  0  0  0  0  0  0
  -24.2755  -22.5566   25.1827 C   0  0  0  0  0  0  0  0  0  0  0  0
  -21.8810  -22.9611   24.6121 C   0  0  0  0  0  0  0  0  0  0  0  0
  -25.0111  -21.9628   18.6057 C   0  0  0  0  0  0  0  0  0  0  0  0
  -32.0696  -25.2999   19.1619 C   0  0  0  0  0  0  0  0  0  0  0  0
  -32.0931  -26.8169   19.1208 C   0  0  0  0  0  0  0  0  0  0  0  0
  -29.2874  -29.1969   19.1050 C   0  0  0  0  0  0  0  0  0  1  0  0
  -30.7305  -28.7314   19.0897 C   0  0  0  0  0  0  0  0  0  0  0  0
  -23.6853  -23.7916   23.0478 C   0  0  1  0  0  0  0  0  0  0  0  0
  -24.4694  -20.8576   20.7791 C   0  0  2  0  0  0  0  0  0  0  0  0
  -23.3006  -23.5643   24.5370 C   0  0  0  0  0  0  0  0  0  0  0  0
  -27.2118  -15.4892   22.4604 N   0  0  0  0  0  0  0  0  0  0  0  0
  -28.2277  -16.3668   22.5215 N   0  0  0  0  0  0  0  0  0  0  0  0
  -23.3979  -25.9375   21.8494 N   0  0  0  0  0  0  0  0  0  0  0  0
  -27.8739  -19.3347   24.8984 N   0  0  0  0  0  0  0  0  0  0  0  0
  -30.0689  -17.2133   21.2950 N   0  0  0  0  0  0  0  0  0  0  0  0
  -28.2688  -14.1592   18.4971 N   0  0  0  0  0  0  0  0  0  0  0  0
  -28.9227  -21.1254   23.7778 N   0  0  0  0  0  0  0  0  0  0  0  0
  -31.4156  -24.8469   20.4108 N   0  0  0  0  0  0  0  0  0  0  0  0
  -21.1050  -28.1605   22.9314 N   0  0  0  0  0  0  0  0  0  0  0  0
  -23.6503  -22.5835   22.2306 N   0  0  0  0  0  0  0  0  0  0  0  0
  -25.2655  -20.8198   19.5199 N   0  3  0  0  0  0  0  0  0  0  0  0
  -29.2718  -24.7782   19.5399 O   0  0  0  0  0  0  0  0  0  0  0  0
  -29.9637  -15.6833   18.7485 O   0  0  0  0  0  0  0  0  0  0  0  0
  -23.3950  -28.5825   22.9281 O   0  0  0  0  0  0  0  0  0  0  0  0
  -21.5722  -24.5550   22.2872 O   0  0  0  0  0  0  0  0  0  0  0  0
  -25.8656  -22.6721   21.5509 O   0  0  0  0  0  0  0  0  0  0  0  0
  -28.5939  -21.1909   26.0733 O   0  0  0  0  0  0  0  0  0  0  0  0
  -23.7893  -11.0048   19.5065 O   0  0  0  0  0  0  0  0  0  0  0  0
  -28.6670  -28.7521   20.3107 O   0  0  0  0  0  0  0  0  0  1  0  0
  -30.7606  -27.3098   19.1275 O   0  0  0  0  0  0  0  0  0  0  0  0
  -22.4586   -6.9901   23.0442 F   0  0  0  0  0  0  0  0  0  0  0  0
  -22.5766  -11.5870   21.9217 F   0  0  0  0  0  0  0  0  0  0  0  0
  1  2  1  0  0  0  0
  1  7  2  0  0  0  0
  2  8  2  0  0  0  0
  3  6  2  0  0  0  0
  3 10  1  0  0  0  0
  4 11  2  0  0  0  0
  4 18  1  0  0  0  0
  5 12  1  0  0  0  0
  5 18  2  0  0  0  0
  6 19  1  0  0  0  0
  7 21  1  0  0  0  0
  8 23  1  0  0  0  0
  9 13  2  0  0  0  0
  9 22  1  0  0  0  0
 10 26  2  0  0  0  0
 11 27  1  0  0  0  0
 12 27  2  0  0  0  0
 13 28  1  0  0  0  0
 14 15  2  0  0  0  0
 14 29  1  0  0  0  0
 15 30  1  0  0  0  0
 16 24  1  0  0  0  0
 16 28  2  0  0  0  0
 17 30  2  0  0  0  0
 17 31  1  0  0  0  0
 18 32  1  0  0  0  0
 19 25  2  0  0  0  0
 19 34  1  0  0  0  0
 20 32  1  0  0  0  0
 20 33  2  0  0  0  0
 20 35  1  0  0  0  0
 21 23  2  0  0  0  0
 21 40  1  0  0  0  0
 22 24  2  0  0  0  0
 22 41  1  0  0  0  0
 23 49  1  0  0  0  0
 24 42  1  0  0  0  0
 25 26  1  0  0  0  0
 25 52  1  0  0  0  0
 26 71  1  0  0  0  0
 27 82  1  0  0  0  0
 28 83  1  0  0  0  0
 29 31  2  0  0  0  0
 29 82  1  0  0  0  0
 30 85  1  0  0  0  0
 31 86  1  0  0  0  0
 32 65  2  0  0  0  0
 33 66  1  0  0  0  0
 33 69  1  0  0  0  0
 34 72  1  0  0  0  0
 34 76  2  0  0  0  0
 35 70  1  0  0  0  0
 35 77  2  0  0  0  0
 36 50  1  0  0  0  0
 36 73  1  0  0  0  0
 36 78  2  0  0  0  0
 37 62  1  0  0  0  0
 37 67  1  0  0  0  0
 37 79  2  0  0  0  0
 38 63  1  0  0  0  0
 38 74  1  0  0  0  0
 38 80  2  0  0  0  0
 39 68  1  0  0  0  0
 39 71  1  0  0  0  0
 39 81  2  0  0  0  0
 40 43  1  0  0  0  0
 41 50  1  0  0  0  0
 42 67  1  0  0  0  0
 43 45  1  0  0  0  0
 44 46  1  0  0  0  0
 44 47  1  0  0  0  0
 45 49  1  0  0  0  0
 46 51  1  0  0  0  0
 47 68  1  0  0  0  0
 48 51  1  0  0  0  0
 48 68  1  0  0  0  0
 49 73  1  0  0  0  0
 50 67  1  0  0  0  0
 51 66  1  0  0  0  0
 53 63  1  0  0  0  0
 54 64  1  0  0  0  0
 55 64  1  0  0  0  0
 56 64  1  0  0  0  0
 57 75  1  0  0  0  0
 58 59  1  0  0  0  0
 58 72  1  0  0  0  0
 59 84  1  0  0  0  0
 60 61  1  0  0  0  0
 60 83  1  0  0  0  0
 61 84  1  0  0  0  0
 62 64  1  0  0  0  0
 62 74  1  0  0  0  0
 63 75  1  0  0  0  0
 65 66  1  0  0  0  0
M  CHG  1  75   1
M  ISO  4  39 100  60 101  71 100  83 101
M  END
> <Batch ID>
0057

> <Smiles>
CNC(C)C(=O)NC(C(=O)N1Cc2cc([101O:1][101CH2:1]COCCNC(=O)c3cccc([100NH:0][100C:0](=O)N4CCCC(n5nc(-c6ccc(Oc7ccc(F)cc7F)cc6)c(C(N)=O)c5N)C4)c3C)ccc2CC1C(=O)NC1CCCc2ccccc21)C(C)(C)C

> <Shape>
0.209

> <Color>
0.087

> <Negative vol penalty>
0.000

$$$$

  -OEChem-04042322553D

 84 92  0     1  0  0  0  0  0999 V2000
  -28.0748  -36.3996   22.0909 C   0  0  0  0  0  0  0  0  0  0  0  0
  -28.3659  -35.0397   22.0560 C   0  0  0  0  0  0  0  0  0  0  0  0
  -24.6948  -12.2807   19.8133 C   0  0  0  0  0  0  0  0  0  0  0  0
  -25.6578  -13.0056   21.9071 C   0  0  0  0  0  0  0  0  0  0  0  0
  -26.8542  -36.8371   22.6035 C   0  0  0  0  0  0  0  0  0  0  0  0
  -27.4370  -34.1164   22.5347 C   0  0  0  0  0  0  0  0  0  0  0  0
  -26.8837  -30.1392   19.4492 C   0  0  0  0  0  0  0  0  0  0  0  0
  -28.8413  -20.4385   22.7886 C   0  0  0  0  0  0  0  0  0  0  0  0
  -25.2043  -10.9992   20.0226 C   0  0  0  0  0  0  0  0  0  0  0  0
  -26.1672  -11.7241   22.1165 C   0  0  0  0  0  0  0  0  0  0  0  0
  -27.8720  -29.1568   19.4933 C   0  0  0  0  0  0  0  0  0  0  0  0
  -25.9446   -7.4436   20.1791 C   0  0  0  0  0  0  0  0  0  0  0  0
  -25.0994   -6.3615   19.9336 C   0  0  0  0  0  0  0  0  0  0  0  0
  -29.9039  -20.9502   23.5333 C   0  0  0  0  0  0  0  0  0  0  0  0
  -26.4517  -27.7993   20.8930 C   0  0  0  0  0  0  0  0  0  0  0  0
  -29.7264  -21.4911   20.8023 C   0  0  0  0  0  0  0  0  0  0  0  0
  -23.5601   -7.1851   21.6038 C   0  0  0  0  0  0  0  0  0  0  0  0
  -24.9216  -13.2839   20.7555 C   0  0  0  0  0  0  0  0  0  0  0  0
  -23.1417  -15.1015   20.9458 C   0  0  0  0  0  0  0  0  0  0  0  0
  -25.9059  -35.9182   23.0798 C   0  0  0  0  0  0  0  0  0  0  0  0
  -25.6743  -29.9635   20.1368 C   0  0  0  0  0  0  0  0  0  0  0  0
  -26.2031  -34.5421   23.0553 C   0  0  0  0  0  0  0  0  0  0  0  0
  -25.4486  -28.7799   20.8540 C   0  0  0  0  0  0  0  0  0  0  0  0
  -30.7890  -22.0030   21.5470 C   0  0  0  0  0  0  0  0  0  0  0  0
  -28.7526  -20.7088   21.4230 C   0  0  0  0  0  0  0  0  0  0  0  0
  -25.9405  -10.7209   21.1742 C   0  0  0  0  0  0  0  0  0  0  0  0
  -27.6572  -27.9879   20.2177 C   0  0  0  0  0  0  0  0  0  0  0  0
  -25.5977   -8.3964   21.1370 C   0  0  0  0  0  0  0  0  0  0  0  0
  -23.9071   -6.2323   20.6459 C   0  0  0  0  0  0  0  0  0  0  0  0
  -24.4054   -8.2672   21.8493 C   0  0  0  0  0  0  0  0  0  0  0  0
  -30.8777  -21.7325   22.9125 C   0  0  0  0  0  0  0  0  0  0  0  0
  -24.3960  -14.6080   20.5396 C   0  0  0  0  0  0  0  0  0  0  0  0
  -23.1250  -16.4020   20.5042 C   0  0  0  0  0  0  0  0  0  0  0  0
  -22.0862  -14.4432   21.6586 C   0  0  0  0  0  0  0  0  0  0  0  0
  -24.1950  -31.4907   22.4996 C   0  0  0  0  0  0  0  0  0  0  0  0
  -21.8033  -29.4047   21.8282 C   0  0  0  0  0  0  0  0  0  0  0  0
  -30.8339  -25.0877   20.4022 C   0  0  0  0  0  0  0  0  0  0  0  0
  -20.8649  -26.3986   20.5132 C   0  0  0  0  0  0  0  0  0  0  0  0
  -27.4364  -20.3611   19.3034 C   0  0  0  0  0  0  0  0  0  0  0  0
  -24.6197  -36.4416   23.6682 C   0  0  0  0  0  0  0  0  0  0  0  0
  -24.6077  -31.0210   20.0573 C   0  0  0  0  0  0  0  0  0  0  0  0
  -24.1594  -28.5338   21.5928 C   0  0  0  0  0  0  0  0  0  0  0  0
  -23.5365  -35.3753   23.8102 C   0  0  0  0  0  0  0  0  0  0  0  0
  -24.9167  -19.2124   17.0654 C   0  0  0  0  0  0  0  0  0  0  0  0
  -24.1140  -34.1072   24.4308 C   0  0  0  0  0  0  0  0  0  0  0  0
  -24.3789  -17.9496   17.7423 C   0  0  0  0  0  0  0  0  0  0  0  0
  -26.4236  -19.3647   17.2646 C   0  0  0  0  0  0  0  0  0  0  0  0
  -26.3373  -18.0359   19.3373 C   0  0  0  0  0  0  0  0  0  0  0  0
  -25.2111  -33.5083   23.5424 C   0  0  1  0  0  0  0  0  0  0  0  0
  -23.6186  -30.9606   21.2173 C   0  0  1  0  0  0  0  0  0  0  0  0
  -24.8131  -17.8734   19.2192 C   0  0  2  0  0  0  0  0  0  0  0  0
  -18.8463  -24.9545   20.1425 C   0  0  0  0  0  0  0  0  0  0  0  0
  -21.8148  -28.6350   24.7807 C   0  0  0  0  0  0  0  0  0  0  0  0
  -20.5047  -26.5876   24.1803 C   0  0  0  0  0  0  0  0  0  0  0  0
  -19.5384  -28.8501   23.7676 C   0  0  0  0  0  0  0  0  0  0  0  0
  -21.2164  -26.4604   17.5752 C   0  0  0  0  0  0  0  0  0  0  0  0
  -31.8165  -22.8403   20.8418 C   0  0  0  0  0  0  0  0  0  0  0  0
  -30.8713  -26.5103   20.9384 C   0  0  0  0  0  0  0  0  0  0  0  0
  -29.9759  -27.4620   20.1602 C   0  0  0  0  0  0  0  0  0  1  0  0
  -21.4257  -28.0223   22.3029 C   0  0  1  0  0  0  0  0  0  0  0  0
  -19.7523  -26.0232   19.5510 C   0  0  2  0  0  0  0  0  0  0  0  0
  -20.8461  -28.0289   23.7457 C   0  0  0  0  0  0  0  0  0  0  0  0
  -25.1233  -15.5206   19.8897 N   0  0  0  0  0  0  0  0  0  0  0  0
  -24.3234  -16.6005   19.8842 N   0  0  0  0  0  0  0  0  0  0  0  0
  -23.1498  -29.6004   21.4899 N   0  0  0  0  0  0  0  0  0  0  0  0
  -26.7600  -19.2867   18.6878 N   0  0  0  0  0  0  0  0  0  0  0  0
  -22.2021  -17.3835   20.5896 N   0  0  0  0  0  0  0  0  0  0  0  0
  -22.2681  -13.1061   22.0371 N   0  0  0  0  0  0  0  0  0  0  0  0
  -27.6736  -20.1880   20.6666 N   0  0  0  0  0  0  0  0  0  0  0  0
  -24.6256  -32.8015   22.4235 N   0  0  0  0  0  0  0  0  0  0  0  0
  -31.6606  -24.2471   21.1337 N   0  0  0  0  0  0  0  0  0  0  0  0
  -20.5192  -27.4788   21.2973 N   0  0  0  0  0  0  0  0  0  0  0  0
  -20.3231  -25.5028   18.2766 N   0  3  0  0  0  0  0  0  0  0  0  0
  -21.0068  -15.0186   21.9370 O   0  0  0  0  0  0  0  0  0  0  0  0
  -24.2440  -30.7647   23.4857 O   0  0  0  0  0  0  0  0  0  0  0  0
  -20.9340  -30.2768   21.7532 O   0  0  0  0  0  0  0  0  0  0  0  0
  -30.1499  -24.7481   19.4406 O   0  0  0  0  0  0  0  0  0  0  0  0
  -21.9323  -25.7917   20.5665 O   0  0  0  0  0  0  0  0  0  0  0  0
  -27.7557  -21.3729   18.6739 O   0  0  0  0  0  0  0  0  0  0  0  0
  -26.4376   -9.4705   21.3789 O   0  0  0  0  0  0  0  0  0  0  0  0
  -28.6205  -27.0277   20.2629 O   0  0  0  0  0  0  0  0  0  1  0  0
  -23.0947   -5.1940   20.4090 F   0  0  0  0  0  0  0  0  0  0  0  0
  -24.0662   -9.1800   22.7699 F   0  0  0  0  0  0  0  0  0  0  0  0
  -32.1779  -22.3477   23.8665 Cl  0  0  0  0  0  0  0  0  0  0  0  0
  1  2  1  0  0  0  0
  1  5  2  0  0  0  0
  2  6  2  0  0  0  0
  3  9  2  0  0  0  0
  3 18  1  0  0  0  0
  4 10  1  0  0  0  0
  4 18  2  0  0  0  0
  5 20  1  0  0  0  0
  6 22  1  0  0  0  0
  7 11  2  0  0  0  0
  7 21  1  0  0  0  0
  8 14  2  0  0  0  0
  8 25  1  0  0  0  0
  9 26  1  0  0  0  0
 10 26  2  0  0  0  0
 11 27  1  0  0  0  0
 12 13  2  0  0  0  0
 12 28  1  0  0  0  0
 13 29  1  0  0  0  0
 14 31  1  0  0  0  0
 15 23  1  0  0  0  0
 15 27  2  0  0  0  0
 16 24  1  0  0  0  0
 16 25  2  0  0  0  0
 17 29  2  0  0  0  0
 17 30  1  0  0  0  0
 18 32  1  0  0  0  0
 19 32  1  0  0  0  0
 19 33  2  0  0  0  0
 19 34  1  0  0  0  0
 20 22  2  0  0  0  0
 20 40  1  0  0  0  0
 21 23  2  0  0  0  0
 21 41  1  0  0  0  0
 22 49  1  0  0  0  0
 23 42  1  0  0  0  0
 24 31  2  0  0  0  0
 24 57  1  0  0  0  0
 25 69  1  0  0  0  0
 26 80  1  0  0  0  0
 27 81  1  0  0  0  0
 28 30  2  0  0  0  0
 28 80  1  0  0  0  0
 29 82  1  0  0  0  0
 30 83  1  0  0  0  0
 31 84  1  0  0  0  0
 32 63  2  0  0  0  0
 33 64  1  0  0  0  0
 33 67  1  0  0  0  0
 34 68  1  0  0  0  0
 34 74  2  0  0  0  0
 35 50  1  0  0  0  0
 35 70  1  0  0  0  0
 35 75  2  0  0  0  0
 36 60  1  0  0  0  0
 36 65  1  0  0  0  0
 36 76  2  0  0  0  0
 37 58  1  0  0  0  0
 37 71  1  0  0  0  0
 37 77  2  0  0  0  0
 38 61  1  0  0  0  0
 38 72  1  0  0  0  0
 38 78  2  0  0  0  0
 39 66  1  0  0  0  0
 39 69  1  0  0  0  0
 39 79  2  0  0  0  0
 40 43  1  0  0  0  0
 41 50  1  0  0  0  0
 42 65  1  0  0  0  0
 43 45  1  0  0  0  0
 44 46  1  0  0  0  0
 44 47  1  0  0  0  0
 45 49  1  0  0  0  0
 46 51  1  0  0  0  0
 47 66  1  0  0  0  0
 48 51  1  0  0  0  0
 48 66  1  0  0  0  0
 49 70  1  0  0  0  0
 50 65  1  0  0  0  0
 51 64  1  0  0  0  0
 52 61  1  0  0  0  0
 53 62  1  0  0  0  0
 54 62  1  0  0  0  0
 55 62  1  0  0  0  0
 56 73  1  0  0  0  0
 57 71  1  0  0  0  0
 58 59  1  0  0  0  0
 59 81  1  0  0  0  0
 60 62  1  0  0  0  0
 60 72  1  0  0  0  0
 61 73  1  0  0  0  0
 63 64  1  0  0  0  0
M  CHG  1  73   1
M  ISO  4  39 100  59 101  69 100  81 101
M  END
> <Batch ID>
0057

> <Smiles>
CNC(C)C(=O)NC(C(=O)N1Cc2cc([101O:1][101CH2:1]CC(=O)NCc3cc([100NH:0][100C:0](=O)N4CCCC(n5nc(-c6ccc(Oc7ccc(F)cc7F)cc6)c(C(N)=O)c5N)C4)ccc3Cl)ccc2CC1C(=O)NC1CCCc2ccccc21)C(C)(C)C

> <Shape>
0.280

> <Color>
0.094

> <Negative vol penalty>
0.000

$$$$

  -OEChem-04042322553D

 87 96  0     1  0  0  0  0  0999 V2000
  -21.7711  -12.7720   18.9937 C   0  0  0  0  0  0  0  0  0  0  0  0
  -21.7708  -14.1320   19.2866 C   0  0  0  0  0  0  0  0  0  0  0  0
  -17.9341  -28.2752   22.1965 C   0  0  0  0  0  0  0  0  0  0  0  0
  -29.8503  -27.3033   20.6046 C   0  0  0  0  0  0  0  0  0  0  0  0
  -29.7284  -28.8876   18.7846 C   0  0  0  0  0  0  0  0  0  0  0  0
  -22.8491  -11.9770   19.3808 C   0  0  0  0  0  0  0  0  0  0  0  0
  -22.8481  -14.6976   19.9677 C   0  0  0  0  0  0  0  0  0  0  0  0
  -24.3577  -19.0766   17.9207 C   0  0  0  0  0  0  0  0  0  0  0  0
  -17.8837  -26.9293   22.5593 C   0  0  0  0  0  0  0  0  0  0  0  0
  -19.1468  -28.9633   22.2360 C   0  0  0  0  0  0  0  0  0  0  0  0
  -31.2431  -27.3690   20.5685 C   0  0  0  0  0  0  0  0  0  0  0  0
  -31.1212  -28.9533   18.7485 C   0  0  0  0  0  0  0  0  0  0  0  0
  -23.5941  -20.2083   18.2033 C   0  0  0  0  0  0  0  0  0  0  0  0
  -33.6664  -29.4696   21.6399 C   0  0  0  0  0  0  0  0  0  0  0  0
  -34.3415  -29.5877   22.8547 C   0  0  0  0  0  0  0  0  0  0  0  0
  -25.1990  -20.8650   19.8803 C   0  0  0  0  0  0  0  0  0  0  0  0
  -35.5003  -27.5143   22.4123 C   0  0  0  0  0  0  0  0  0  0  0  0
  -29.0929  -28.0626   19.7126 C   0  0  0  0  0  0  0  0  0  0  0  0
  -26.8516  -26.8546   19.5544 C   0  0  0  0  0  0  0  0  0  0  0  0
  -23.9445  -12.5350   20.0585 C   0  0  0  0  0  0  0  0  0  0  0  0
  -25.5441  -18.8245   18.6245 C   0  0  0  0  0  0  0  0  0  0  0  0
  -23.9411  -13.9091   20.3654 C   0  0  0  0  0  0  0  0  0  0  0  0
  -25.9772  -19.7308   19.6029 C   0  0  0  0  0  0  0  0  0  0  0  0
  -19.0460  -26.2715   22.9618 C   0  0  0  0  0  0  0  0  0  0  0  0
  -20.2588  -26.9596   23.0014 C   0  0  0  0  0  0  0  0  0  0  0  0
  -20.3091  -28.3055   22.6386 C   0  0  0  0  0  0  0  0  0  0  0  0
  -31.8786  -28.1940   19.6405 C   0  0  0  0  0  0  0  0  0  0  0  0
  -24.0132  -21.1012   19.1853 C   0  0  0  0  0  0  0  0  0  0  0  0
  -33.9082  -28.3738   20.8112 C   0  0  0  0  0  0  0  0  0  0  0  0
  -35.2585  -28.6100   23.2409 C   0  0  0  0  0  0  0  0  0  0  0  0
  -34.8251  -27.3962   21.1974 C   0  0  0  0  0  0  0  0  0  0  0  0
  -27.6541  -27.9948   19.7490 C   0  0  0  0  0  0  0  0  0  0  0  0
  -25.5641  -27.3140   19.6885 C   0  0  0  0  0  0  0  0  0  0  0  0
  -18.9811  -23.9693   21.0190 C   0  0  0  0  0  0  0  0  0  0  0  0
  -27.2356  -25.5014   19.2771 C   0  0  0  0  0  0  0  0  0  0  0  0
  -26.5629  -16.5066   20.5462 C   0  0  0  0  0  0  0  0  0  0  0  0
  -29.3642  -18.1338   20.3817 C   0  0  0  0  0  0  0  0  0  0  0  0
  -30.9664  -21.0941   19.8195 C   0  0  0  0  0  0  0  0  0  0  0  0
  -21.7316  -30.3629   22.3378 C   0  0  0  0  0  0  0  0  0  0  0  0
  -25.0654  -11.6267   20.4984 C   0  0  0  0  0  0  0  0  0  0  0  0
  -26.3703  -17.6132   18.2891 C   0  0  0  0  0  0  0  0  0  0  0  0
  -27.2538  -19.5164   20.3729 C   0  0  0  0  0  0  0  0  0  0  0  0
  -19.6352  -22.9630   20.0931 C   0  0  0  0  0  0  0  0  0  0  0  0
  -26.3386  -12.3743   20.8862 C   0  0  0  0  0  0  0  0  0  0  0  0
  -23.7612  -32.0371   19.9390 C   0  0  0  0  0  0  0  0  0  0  0  0
  -26.0091  -13.5543   21.7949 C   0  0  0  0  0  0  0  0  0  0  0  0
  -24.8889  -31.0409   19.6597 C   0  0  0  0  0  0  0  0  0  0  0  0
  -21.5598  -22.6876   21.7081 C   0  0  0  0  0  0  0  0  0  0  0  0
  -23.3361  -32.0159   21.4061 C   0  0  0  0  0  0  0  0  0  0  0  0
  -20.4384  -22.9145   22.7206 C   0  0  0  0  0  0  0  0  0  0  0  0
  -24.1190  -29.6932   21.6541 C   0  0  0  0  0  0  0  0  0  0  0  0
  -25.1026  -14.5642   21.0809 C   0  0  1  0  0  0  0  0  0  0  0  0
  -27.2955  -17.1878   19.4251 C   0  0  1  0  0  0  0  0  0  0  0  0
  -21.1526  -23.0196   20.2645 C   0  0  1  0  0  0  0  0  0  0  0  0
  -24.5369  -29.6320   20.1759 C   0  0  2  0  0  0  0  0  0  0  0  0
  -21.5032  -26.2496   23.4338 C   0  0  0  0  0  0  0  0  0  0  0  0
  -33.2559  -22.1213   19.7953 C   0  0  0  0  0  0  0  0  0  0  0  0
  -29.3761  -18.1732   23.4326 C   0  0  0  0  0  0  0  0  0  0  0  0
  -31.1093  -19.9772   23.3331 C   0  0  0  0  0  0  0  0  0  0  0  0
  -31.6025  -17.7226   22.3865 C   0  0  0  0  0  0  0  0  0  0  0  0
  -30.7462  -21.7999   16.9538 C   0  0  0  0  0  0  0  0  0  0  0  0
  -18.9637  -24.8227   23.3470 C   0  0  0  0  0  0  0  0  0  0  0  0
  -21.8596  -22.1068   19.2666 C   0  0  0  0  0  0  0  0  0  1  0  0
  -29.9983  -19.2532   21.1715 C   0  0  1  0  0  0  0  0  0  0  0  0
  -32.1761  -21.4392   18.9697 C   0  0  2  0  0  0  0  0  0  0  0  0
  -30.4964  -18.7849   22.5680 C   0  0  0  0  0  0  0  0  0  0  0  0
  -26.9365  -29.0956   19.9885 N   0  0  0  0  0  0  0  0  0  0  0  0
  -25.6696  -28.6493   19.9451 N   0  0  0  0  0  0  0  0  0  0  0  0
  -19.5011  -23.9538   22.3134 N   0  0  0  0  0  0  0  0  0  0  0  0
  -28.0235  -18.3141   20.0130 N   0  0  0  0  0  0  0  0  0  0  0  0
  -23.0138  -30.6496   21.8236 N   0  0  0  0  0  0  0  0  0  0  0  0
  -24.3635  -26.7018   19.6108 N   0  0  0  0  0  0  0  0  0  0  0  0
  -27.3728  -25.1065   17.9394 N   0  0  0  0  0  0  0  0  0  0  0  0
  -21.5301  -29.0238   22.6708 N   0  0  0  0  0  0  0  0  0  0  0  0
  -25.8734  -15.3728   20.1607 N   0  0  0  0  0  0  0  0  0  0  0  0
  -31.0435  -19.8119   20.3208 N   0  0  0  0  0  0  0  0  0  0  0  0
  -31.7854  -22.3535   17.8596 N   0  3  0  0  0  0  0  0  0  0  0  0
  -18.0683  -24.6937   20.6260 O   0  0  0  0  0  0  0  0  0  0  0  0
  -27.4347  -24.6626   20.1883 O   0  0  0  0  0  0  0  0  0  0  0  0
  -26.6202  -16.9741   21.6775 O   0  0  0  0  0  0  0  0  0  0  0  0
  -30.0358  -17.1393   20.0961 O   0  0  0  0  0  0  0  0  0  0  0  0
  -30.0471  -21.8843   20.0216 O   0  0  0  0  0  0  0  0  0  0  0  0
  -20.8663  -31.2353   22.4473 O   0  0  0  0  0  0  0  0  0  0  0  0
  -33.2377  -28.2585   19.6051 O   0  0  0  0  0  0  0  0  0  0  0  0
  -23.2694  -22.2063   19.4636 O   0  0  0  0  0  0  0  0  0  1  0  0
  -35.9078  -28.7243   24.4069 F   0  0  0  0  0  0  0  0  0  0  0  0
  -35.0624  -26.3419   20.4050 F   0  0  0  0  0  0  0  0  0  0  0  0
  1  2  1  0  0  0  0
  1  6  2  0  0  0  0
  2  7  2  0  0  0  0
  3  9  2  0  0  0  0
  3 10  1  0  0  0  0
  4 11  2  0  0  0  0
  4 18  1  0  0  0  0
  5 12  1  0  0  0  0
  5 18  2  0  0  0  0
  6 20  1  0  0  0  0
  7 22  1  0  0  0  0
  8 13  2  0  0  0  0
  8 21  1  0  0  0  0
  9 24  1  0  0  0  0
 10 26  2  0  0  0  0
 11 27  1  0  0  0  0
 12 27  2  0  0  0  0
 13 28  1  0  0  0  0
 14 15  2  0  0  0  0
 14 29  1  0  0  0  0
 15 30  1  0  0  0  0
 16 23  1  0  0  0  0
 16 28  2  0  0  0  0
 17 30  2  0  0  0  0
 17 31  1  0  0  0  0
 18 32  1  0  0  0  0
 19 32  1  0  0  0  0
 19 33  2  0  0  0  0
 19 35  1  0  0  0  0
 20 22  2  0  0  0  0
 20 40  1  0  0  0  0
 21 23  2  0  0  0  0
 21 41  1  0  0  0  0
 22 52  1  0  0  0  0
 23 42  1  0  0  0  0
 24 25  2  0  0  0  0
 24 62  1  0  0  0  0
 25 26  1  0  0  0  0
 25 56  1  0  0  0  0
 26 74  1  0  0  0  0
 27 84  1  0  0  0  0
 28 85  1  0  0  0  0
 29 31  2  0  0  0  0
 29 84  1  0  0  0  0
 30 86  1  0  0  0  0
 31 87  1  0  0  0  0
 32 67  2  0  0  0  0
 33 68  1  0  0  0  0
 33 72  1  0  0  0  0
 34 43  1  0  0  0  0
 34 69  1  0  0  0  0
 34 78  2  0  0  0  0
 35 73  1  0  0  0  0
 35 79  2  0  0  0  0
 36 53  1  0  0  0  0
 36 75  1  0  0  0  0
 36 80  2  0  0  0  0
 37 64  1  0  0  0  0
 37 70  1  0  0  0  0
 37 81  2  0  0  0  0
 38 65  1  0  0  0  0
 38 76  1  0  0  0  0
 38 82  2  0  0  0  0
 39 71  1  0  0  0  0
 39 74  1  0  0  0  0
 39 83  2  0  0  0  0
 40 44  1  0  0  0  0
 41 53  1  0  0  0  0
 42 70  1  0  0  0  0
 43 54  1  0  0  0  0
 44 46  1  0  0  0  0
 45 47  1  0  0  0  0
 45 49  1  0  0  0  0
 46 52  1  0  0  0  0
 47 55  1  0  0  0  0
 48 50  1  0  0  0  0
 48 54  1  0  0  0  0
 49 71  1  0  0  0  0
 50 69  1  0  0  0  0
 51 55  1  0  0  0  0
 51 71  1  0  0  0  0
 52 75  1  0  0  0  0
 53 70  1  0  0  0  0
 54 63  1  0  0  0  0
 55 68  1  0  0  0  0
 57 65  1  0  0  0  0
 58 66  1  0  0  0  0
 59 66  1  0  0  0  0
 60 66  1  0  0  0  0
 61 77  1  0  0  0  0
 62 69  1  0  0  0  0
 63 85  1  0  0  0  0
 64 66  1  0  0  0  0
 64 76  1  0  0  0  0
 65 77  1  0  0  0  0
 67 68  1  0  0  0  0
M  CHG  1  77   1
M  ISO  4  39 100  63 101  74 100  85 101
M  END
> <Batch ID>
0057

> <Smiles>
CNC(C)C(=O)NC(C(=O)N1Cc2cc([101O:1][101CH2:1]C3CCN(Cc4cccc([100NH:0][100C:0](=O)N5CCCC(n6nc(-c7ccc(Oc8ccc(F)cc8F)cc7)c(C(N)=O)c6N)C5)c4C)C(=O)C3)ccc2CC1C(=O)NC1CCCc2ccccc21)C(C)(C)C

> <Shape>
0.229

> <Color>
0.098

> <Negative vol penalty>
0.000

$$$$

  -OEChem-04042322553D

 84 92  0     1  0  0  0  0  0999 V2000
  -26.8041  -37.6688   22.1246 C   0  0  0  0  0  0  0  0  0  0  0  0
  -27.4397  -36.4896   21.7493 C   0  0  0  0  0  0  0  0  0  0  0  0
  -26.4437   -9.2039   19.8522 C   0  0  0  0  0  0  0  0  0  0  0  0
  -27.7348  -10.3399   21.5491 C   0  0  0  0  0  0  0  0  0  0  0  0
  -25.7108  -37.6255   22.9888 C   0  0  0  0  0  0  0  0  0  0  0  0
  -26.9830  -35.2664   22.2388 C   0  0  0  0  0  0  0  0  0  0  0  0
  -26.9557  -29.8994   19.2892 C   0  0  0  0  0  0  0  0  0  0  0  0
  -27.4560   -8.2537   19.7181 C   0  0  0  0  0  0  0  0  0  0  0  0
  -28.7471   -9.3896   21.4151 C   0  0  0  0  0  0  0  0  0  0  0  0
  -27.8207  -28.8065   19.3222 C   0  0  0  0  0  0  0  0  0  0  0  0
  -28.5315   -5.5093   21.3748 C   0  0  0  0  0  0  0  0  0  0  0  0
  -28.1569   -4.1670   21.3172 C   0  0  0  0  0  0  0  0  0  0  0  0
  -26.3825  -27.7244   20.9284 C   0  0  0  0  0  0  0  0  0  0  0  0
  -27.8034  -18.4527   22.1360 C   0  0  0  0  0  0  0  0  0  0  0  0
  -27.4043  -19.6994   20.1054 C   0  0  0  0  0  0  0  0  0  0  0  0
  -29.1667   -3.9791   19.1304 C   0  0  0  0  0  0  0  0  0  0  0  0
  -26.5832  -10.2471   20.7676 C   0  0  0  0  0  0  0  0  0  0  0  0
  -24.4349  -11.1795   21.7792 C   0  0  0  0  0  0  0  0  0  0  0  0
  -25.2345  -36.4003   23.4815 C   0  0  0  0  0  0  0  0  0  0  0  0
  -25.8013  -29.9177   20.0850 C   0  0  0  0  0  0  0  0  0  0  0  0
  -25.8831  -35.2067   23.1114 C   0  0  0  0  0  0  0  0  0  0  0  0
  -25.5032  -28.8176   20.9017 C   0  0  0  0  0  0  0  0  0  0  0  0
  -28.7675  -19.3851   22.5191 C   0  0  0  0  0  0  0  0  0  0  0  0
  -28.3684  -20.6319   20.4884 C   0  0  0  0  0  0  0  0  0  0  0  0
  -29.0499  -20.4748   21.6953 C   0  0  0  0  0  0  0  0  0  0  0  0
  -27.1218  -18.6098   20.9291 C   0  0  0  0  0  0  0  0  0  0  0  0
  -28.6076   -8.3465   20.4996 C   0  0  0  0  0  0  0  0  0  0  0  0
  -27.5357  -27.7200   20.1441 C   0  0  0  0  0  0  0  0  0  0  0  0
  -29.2236   -6.0866   20.3102 C   0  0  0  0  0  0  0  0  0  0  0  0
  -28.4745   -3.4018   20.1950 C   0  0  0  0  0  0  0  0  0  0  0  0
  -29.5412   -5.3215   19.1880 C   0  0  0  0  0  0  0  0  0  0  0  0
  -25.5382  -11.2294   20.9061 C   0  0  0  0  0  0  0  0  0  0  0  0
  -23.7454  -12.3405   21.5278 C   0  0  0  0  0  0  0  0  0  0  0  0
  -24.0664  -10.1737   22.7322 C   0  0  0  0  0  0  0  0  0  0  0  0
  -24.7333  -31.7589   22.4458 C   0  0  0  0  0  0  0  0  0  0  0  0
  -22.0607  -29.9486   22.1257 C   0  0  0  0  0  0  0  0  0  0  0  0
  -28.6070  -24.2721   19.8086 C   0  0  0  0  0  0  0  0  0  0  0  0
  -20.6580  -27.0072   21.1124 C   0  0  0  0  0  0  0  0  0  0  0  0
  -25.3746  -17.6715   19.3758 C   0  0  0  0  0  0  0  0  0  0  0  0
  -24.0788  -36.4076   24.4506 C   0  0  0  0  0  0  0  0  0  0  0  0
  -24.8645  -31.0926   20.0178 C   0  0  0  0  0  0  0  0  0  0  0  0
  -24.2662  -28.7793   21.7601 C   0  0  0  0  0  0  0  0  0  0  0  0
  -23.4240  -35.0401   24.6279 C   0  0  0  0  0  0  0  0  0  0  0  0
  -22.8864  -15.5048   18.0373 C   0  0  0  0  0  0  0  0  0  0  0  0
  -24.4848  -33.9620   24.8263 C   0  0  0  0  0  0  0  0  0  0  0  0
  -23.1799  -14.1594   18.7052 C   0  0  0  0  0  0  0  0  0  0  0  0
  -24.1689  -16.2699   17.7154 C   0  0  0  0  0  0  0  0  0  0  0  0
  -25.3796  -15.1033   19.5160 C   0  0  0  0  0  0  0  0  0  0  0  0
  -25.4019  -33.8584   23.6017 C   0  0  1  0  0  0  0  0  0  0  0  0
  -23.9845  -31.2267   21.2568 C   0  0  1  0  0  0  0  0  0  0  0  0
  -24.1163  -14.3248   19.9182 C   0  0  2  0  0  0  0  0  0  0  0  0
  -29.4836  -19.1937   23.8159 C   0  0  0  0  0  0  0  0  0  0  0  0
  -30.0834  -21.4749   22.1064 C   0  0  0  0  0  0  0  0  0  0  0  0
  -18.4575  -25.8048   21.0144 C   0  0  0  0  0  0  0  0  0  0  0  0
  -22.2485  -29.3662   25.1150 C   0  0  0  0  0  0  0  0  0  0  0  0
  -20.6565  -27.4643   24.7736 C   0  0  0  0  0  0  0  0  0  0  0  0
  -19.9312  -29.7996   24.2802 C   0  0  0  0  0  0  0  0  0  0  0  0
  -20.7467  -26.8444   18.1586 C   0  0  0  0  0  0  0  0  0  0  0  0
  -28.6534  -21.7957   19.5837 C   0  0  0  0  0  0  0  0  0  0  0  0
  -27.8010  -25.3774   20.4569 C   0  0  0  0  0  0  0  0  0  1  0  0
  -21.5668  -28.6556   22.7283 C   0  0  1  0  0  0  0  0  0  0  0  0
  -19.4262  -26.7144   20.2748 C   0  0  2  0  0  0  0  0  0  0  0  0
  -21.1251  -28.8227   24.2097 C   0  0  0  0  0  0  0  0  0  0  0  0
  -25.5526  -12.3344   20.1561 N   0  0  0  0  0  0  0  0  0  0  0  0
  -24.4499  -12.9897   20.5570 N   0  0  0  0  0  0  0  0  0  0  0  0
  -23.3846  -29.9546   21.6644 N   0  0  0  0  0  0  0  0  0  0  0  0
  -25.0040  -16.3914   18.9124 N   0  0  0  0  0  0  0  0  0  0  0  0
  -22.6112  -12.8591   22.0446 N   0  0  0  0  0  0  0  0  0  0  0  0
  -24.8865   -9.0447   22.8630 N   0  0  0  0  0  0  0  0  0  0  0  0
  -26.1416  -17.6634   20.5403 N   0  0  0  0  0  0  0  0  0  0  0  0
  -24.7408  -33.1378   22.5347 N   0  0  0  0  0  0  0  0  0  0  0  0
  -28.0742  -23.0220   20.0815 N   0  0  0  0  0  0  0  0  0  0  0  0
  -20.5150  -28.1680   21.8426 N   0  0  0  0  0  0  0  0  0  0  0  0
  -19.8137  -26.0499   18.9984 N   0  3  0  0  0  0  0  0  0  0  0  0
  -23.0314  -10.2655   23.4350 O   0  0  0  0  0  0  0  0  0  0  0  0
  -25.2636  -30.9764   23.2256 O   0  0  0  0  0  0  0  0  0  0  0  0
  -21.2975  -30.9156   22.0601 O   0  0  0  0  0  0  0  0  0  0  0  0
  -29.6075  -24.4895   19.1305 O   0  0  0  0  0  0  0  0  0  0  0  0
  -21.6465  -26.2769   21.1210 O   0  0  0  0  0  0  0  0  0  0  0  0
  -25.0135  -18.7003   18.7985 O   0  0  0  0  0  0  0  0  0  0  0  0
  -29.5954   -7.4192   20.3693 O   0  0  0  0  0  0  0  0  0  0  0  0
  -28.3787  -26.6523   20.1787 O   0  0  0  0  0  0  0  0  0  1  0  0
  -28.1161   -2.1123   20.1405 F   0  0  0  0  0  0  0  0  0  0  0  0
  -30.2070   -5.8702   18.1626 F   0  0  0  0  0  0  0  0  0  0  0  0
  1  2  1  0  0  0  0
  1  5  2  0  0  0  0
  2  6  2  0  0  0  0
  3  8  2  0  0  0  0
  3 17  1  0  0  0  0
  4  9  1  0  0  0  0
  4 17  2  0  0  0  0
  5 19  1  0  0  0  0
  6 21  1  0  0  0  0
  7 10  2  0  0  0  0
  7 20  1  0  0  0  0
  8 27  1  0  0  0  0
  9 27  2  0  0  0  0
 10 28  1  0  0  0  0
 11 12  2  0  0  0  0
 11 29  1  0  0  0  0
 12 30  1  0  0  0  0
 13 22  1  0  0  0  0
 13 28  2  0  0  0  0
 14 23  2  0  0  0  0
 14 26  1  0  0  0  0
 15 24  1  0  0  0  0
 15 26  2  0  0  0  0
 16 30  2  0  0  0  0
 16 31  1  0  0  0  0
 17 32  1  0  0  0  0
 18 32  1  0  0  0  0
 18 33  2  0  0  0  0
 18 34  1  0  0  0  0
 19 21  2  0  0  0  0
 19 40  1  0  0  0  0
 20 22  2  0  0  0  0
 20 41  1  0  0  0  0
 21 49  1  0  0  0  0
 22 42  1  0  0  0  0
 23 25  1  0  0  0  0
 23 52  1  0  0  0  0
 24 25  2  0  0  0  0
 24 59  1  0  0  0  0
 25 53  1  0  0  0  0
 26 70  1  0  0  0  0
 27 81  1  0  0  0  0
 28 82  1  0  0  0  0
 29 31  2  0  0  0  0
 29 81  1  0  0  0  0
 30 83  1  0  0  0  0
 31 84  1  0  0  0  0
 32 64  2  0  0  0  0
 33 65  1  0  0  0  0
 33 68  1  0  0  0  0
 34 69  1  0  0  0  0
 34 75  2  0  0  0  0
 35 50  1  0  0  0  0
 35 71  1  0  0  0  0
 35 76  2  0  0  0  0
 36 61  1  0  0  0  0
 36 66  1  0  0  0  0
 36 77  2  0  0  0  0
 37 60  1  0  0  0  0
 37 72  1  0  0  0  0
 37 78  2  0  0  0  0
 38 62  1  0  0  0  0
 38 73  1  0  0  0  0
 38 79  2  0  0  0  0
 39 67  1  0  0  0  0
 39 70  1  0  0  0  0
 39 80  2  0  0  0  0
 40 43  1  0  0  0  0
 41 50  1  0  0  0  0
 42 66  1  0  0  0  0
 43 45  1  0  0  0  0
 44 46  1  0  0  0  0
 44 47  1  0  0  0  0
 45 49  1  0  0  0  0
 46 51  1  0  0  0  0
 47 67  1  0  0  0  0
 48 51  1  0  0  0  0
 48 67  1  0  0  0  0
 49 71  1  0  0  0  0
 50 66  1  0  0  0  0
 51 65  1  0  0  0  0
 54 62  1  0  0  0  0
 55 63  1  0  0  0  0
 56 63  1  0  0  0  0
 57 63  1  0  0  0  0
 58 74  1  0  0  0  0
 59 72  1  0  0  0  0
 60 82  1  0  0  0  0
 61 63  1  0  0  0  0
 61 73  1  0  0  0  0
 62 74  1  0  0  0  0
 64 65  1  0  0  0  0
M  CHG  1  74   1
M  ISO  4  39 100  60 101  70 100  82 101
M  END
> <Batch ID>
0057

> <Smiles>
CNC(C)C(=O)NC(C(=O)N1Cc2cc([101O:1][101CH2:1]C(=O)NCc3cc([100NH:0][100C:0](=O)N4CCCC(n5nc(-c6ccc(Oc7ccc(F)cc7F)cc6)c(C(N)=O)c5N)C4)cc(C)c3C)ccc2CC1C(=O)NC1CCCc2ccccc21)C(C)(C)C

> <Shape>
0.263

> <Color>
0.085

> <Negative vol penalty>
0.000

$$$$

  -OEChem-04042322553D

 84 92  0     1  0  0  0  0  0999 V2000
  -27.2242  -11.3547   17.8291 C   0  0  0  0  0  0  0  0  0  0  0  0
  -27.2561  -12.7052   17.4964 C   0  0  0  0  0  0  0  0  0  0  0  0
  -20.1476  -27.4578   24.0419 C   0  0  0  0  0  0  0  0  0  0  0  0
  -20.1439  -27.7572   21.6445 C   0  0  0  0  0  0  0  0  0  0  0  0
  -26.4103  -10.9139   18.8718 C   0  0  0  0  0  0  0  0  0  0  0  0
  -26.4732  -13.6155   18.2056 C   0  0  0  0  0  0  0  0  0  0  0  0
  -29.0127  -17.8226   19.4287 C   0  0  0  0  0  0  0  0  0  0  0  0
  -29.5978  -27.1334   19.8383 C   0  0  0  0  0  0  0  0  0  0  0  0
  -29.6777  -25.9371   19.1256 C   0  0  0  0  0  0  0  0  0  0  0  0
  -18.7528  -27.4530   24.0434 C   0  0  0  0  0  0  0  0  0  0  0  0
  -18.7491  -27.7523   21.6460 C   0  0  0  0  0  0  0  0  0  0  0  0
  -29.1935  -18.7720   18.4239 C   0  0  0  0  0  0  0  0  0  0  0  0
  -15.1884  -27.4575   20.9732 C   0  0  0  0  0  0  0  0  0  0  0  0
  -14.5406  -26.6982   19.9988 C   0  0  0  0  0  0  0  0  0  0  0  0
  -27.3617  -20.0606   19.3200 C   0  0  0  0  0  0  0  0  0  0  0  0
  -30.0833  -28.3687   17.8196 C   0  0  0  0  0  0  0  0  0  0  0  0
  -15.6174  -24.7043   20.8368 C   0  0  0  0  0  0  0  0  0  0  0  0
  -20.8432  -27.6099   22.8424 C   0  0  0  0  0  0  0  0  0  0  0  0
  -23.1383  -26.5053   22.7000 C   0  0  0  0  0  0  0  0  0  0  0  0
  -25.6244  -11.8206   19.6004 C   0  0  0  0  0  0  0  0  0  0  0  0
  -27.9962  -17.9799   20.3819 C   0  0  0  0  0  0  0  0  0  0  0  0
  -25.6470  -13.1861   19.2581 C   0  0  0  0  0  0  0  0  0  0  0  0
  -27.1717  -19.1131   20.3375 C   0  0  0  0  0  0  0  0  0  0  0  0
  -29.8005  -28.3492   19.1854 C   0  0  0  0  0  0  0  0  0  0  0  0
  -29.9605  -25.9566   17.7598 C   0  0  0  0  0  0  0  0  0  0  0  0
  -18.0535  -27.6002   22.8455 C   0  0  0  0  0  0  0  0  0  0  0  0
  -28.3661  -19.8897   18.3677 C   0  0  0  0  0  0  0  0  0  0  0  0
  -16.0507  -26.8403   21.8794 C   0  0  0  0  0  0  0  0  0  0  0  0
  -14.7551  -25.3216   19.9306 C   0  0  0  0  0  0  0  0  0  0  0  0
  -30.1633  -27.1724   17.1068 C   0  0  0  0  0  0  0  0  0  0  0  0
  -16.2652  -25.4637   21.8112 C   0  0  0  0  0  0  0  0  0  0  0  0
  -22.2840  -27.6155   22.8402 C   0  0  0  0  0  0  0  0  0  0  0  0
  -24.4037  -27.0356   22.7635 C   0  0  0  0  0  0  0  0  0  0  0  0
  -22.8166  -25.1188   22.5278 C   0  0  0  0  0  0  0  0  0  0  0  0
  -25.4081  -16.3234   21.1954 C   0  0  0  0  0  0  0  0  0  0  0  0
  -25.2300  -18.5171   23.5783 C   0  0  0  0  0  0  0  0  0  0  0  0
  -29.8683  -23.4500   17.5303 C   0  0  0  0  0  0  0  0  0  0  0  0
  -26.0277  -21.6362   24.7105 C   0  0  0  0  0  0  0  0  0  0  0  0
  -28.1219  -30.9405   21.3241 C   0  0  0  0  0  0  0  0  0  0  0  0
  -24.7245  -11.2902   20.6883 C   0  0  0  0  0  0  0  0  0  0  0  0
  -27.8314  -16.9603   21.4754 C   0  0  0  0  0  0  0  0  0  0  0  0
  -26.0789  -19.3389   21.3491 C   0  0  0  0  0  0  0  0  0  0  0  0
  -24.2099  -12.3721   21.6344 C   0  0  0  0  0  0  0  0  0  0  0  0
  -25.9722  -31.6641   24.0686 C   0  0  0  0  0  0  0  0  0  0  0  0
  -23.7036  -13.5750   20.8448 C   0  0  0  0  0  0  0  0  0  0  0  0
  -24.8888  -30.5880   23.9782 C   0  0  0  0  0  0  0  0  0  0  0  0
  -26.4255  -32.1261   22.6854 C   0  0  0  0  0  0  0  0  0  0  0  0
  -25.7735  -29.9674   21.6911 C   0  0  0  0  0  0  0  0  0  0  0  0
  -24.8310  -14.2077   20.0201 C   0  0  1  0  0  0  0  0  0  0  0  0
  -26.4343  -16.9619   22.0882 C   0  0  1  0  0  0  0  0  0  0  0  0
  -25.3241  -29.4297   23.0604 C   0  0  2  0  0  0  0  0  0  0  0  0
  -25.7099  -23.1577   26.6806 C   0  0  0  0  0  0  0  0  0  0  0  0
  -22.3637  -19.0668   22.6883 C   0  0  0  0  0  0  0  0  0  0  0  0
  -22.4316  -21.1875   24.0174 C   0  0  0  0  0  0  0  0  0  0  0  0
  -22.6897  -18.9885   25.1667 C   0  0  0  0  0  0  0  0  0  0  0  0
  -28.9402  -21.7813   25.2155 C   0  0  0  0  0  0  0  0  0  0  0  0
  -29.7163  -29.6283   19.9474 C   0  0  0  0  0  0  0  0  0  0  0  0
  -30.0417  -22.4268   16.4136 C   0  0  0  0  0  0  0  0  0  0  0  0
  -29.8644  -20.9915   16.8855 C   0  0  0  0  0  0  0  0  0  1  0  0
  -24.5808  -19.8705   23.7392 C   0  0  1  0  0  0  0  0  0  0  0  0
  -26.6031  -22.1113   26.0325 C   0  0  2  0  0  0  0  0  0  0  0  0
  -23.0357  -19.7734   23.8825 C   0  0  0  0  0  0  0  0  0  0  0  0
  -22.9506  -28.7643   22.9821 N   0  0  0  0  0  0  0  0  0  0  0  0
  -24.2370  -28.3788   22.9316 N   0  0  0  0  0  0  0  0  0  0  0  0
  -25.9533  -18.3105   22.3951 N   0  0  0  0  0  0  0  0  0  0  0  0
  -26.8264  -30.9802   21.8657 N   0  0  0  0  0  0  0  0  0  0  0  0
  -25.6316  -26.4792   22.6914 N   0  0  0  0  0  0  0  0  0  0  0  0
  -21.4661  -24.7466   22.4842 N   0  0  0  0  0  0  0  0  0  0  0  0
  -30.0415  -24.7413   17.0392 N   0  0  0  0  0  0  0  0  0  0  0  0
  -25.6872  -15.0106   20.8666 N   0  0  0  0  0  0  0  0  0  0  0  0
  -25.2466  -20.5109   24.8684 N   0  0  0  0  0  0  0  0  0  0  0  0
  -28.4224  -29.8162   20.5650 N   0  0  0  0  0  0  0  0  0  0  0  0
  -27.9526  -22.7085   25.8253 N   0  3  0  0  0  0  0  0  0  0  0  0
  -23.7007  -24.2339   22.4324 O   0  0  0  0  0  0  0  0  0  0  0  0
  -24.4345  -16.9733   20.8329 O   0  0  0  0  0  0  0  0  0  0  0  0
  -25.1060  -17.6768   24.4728 O   0  0  0  0  0  0  0  0  0  0  0  0
  -29.6127  -23.1205   18.6837 O   0  0  0  0  0  0  0  0  0  0  0  0
  -26.2461  -22.2084   23.6449 O   0  0  0  0  0  0  0  0  0  0  0  0
  -28.9512  -31.8379   21.5083 O   0  0  0  0  0  0  0  0  0  0  0  0
  -16.6924  -27.5954   22.8466 O   0  0  0  0  0  0  0  0  0  0  0  0
  -28.5400  -20.8176   17.3875 O   0  0  0  0  0  0  0  0  0  1  0  0
  -14.1318  -24.5923   18.9958 F   0  0  0  0  0  0  0  0  0  0  0  0
  -30.4372  -27.2029   15.7947 F   0  0  0  0  0  0  0  0  0  0  0  0
  -17.0915  -24.8649   22.6797 F   0  0  0  0  0  0  0  0  0  0  0  0
  1  2  1  0  0  0  0
  1  5  2  0  0  0  0
  2  6  2  0  0  0  0
  3 10  2  0  0  0  0
  3 18  1  0  0  0  0
  4 11  1  0  0  0  0
  4 18  2  0  0  0  0
  5 20  1  0  0  0  0
  6 22  1  0  0  0  0
  7 12  2  0  0  0  0
  7 21  1  0  0  0  0
  8  9  2  0  0  0  0
  8 24  1  0  0  0  0
  9 25  1  0  0  0  0
 10 26  1  0  0  0  0
 11 26  2  0  0  0  0
 12 27  1  0  0  0  0
 13 14  2  0  0  0  0
 13 28  1  0  0  0  0
 14 29  1  0  0  0  0
 15 23  1  0  0  0  0
 15 27  2  0  0  0  0
 16 24  2  0  0  0  0
 16 30  1  0  0  0  0
 17 29  2  0  0  0  0
 17 31  1  0  0  0  0
 18 32  1  0  0  0  0
 19 32  1  0  0  0  0
 19 33  2  0  0  0  0
 19 34  1  0  0  0  0
 20 22  2  0  0  0  0
 20 40  1  0  0  0  0
 21 23  2  0  0  0  0
 21 41  1  0  0  0  0
 22 49  1  0  0  0  0
 23 42  1  0  0  0  0
 24 57  1  0  0  0  0
 25 30  2  0  0  0  0
 25 69  1  0  0  0  0
 26 80  1  0  0  0  0
 27 81  1  0  0  0  0
 28 31  2  0  0  0  0
 28 80  1  0  0  0  0
 29 82  1  0  0  0  0
 30 83  1  0  0  0  0
 31 84  1  0  0  0  0
 32 63  2  0  0  0  0
 33 64  1  0  0  0  0
 33 67  1  0  0  0  0
 34 68  1  0  0  0  0
 34 74  2  0  0  0  0
 35 50  1  0  0  0  0
 35 70  1  0  0  0  0
 35 75  2  0  0  0  0
 36 60  1  0  0  0  0
 36 65  1  0  0  0  0
 36 76  2  0  0  0  0
 37 58  1  0  0  0  0
 37 69  1  0  0  0  0
 37 77  2  0  0  0  0
 38 61  1  0  0  0  0
 38 71  1  0  0  0  0
 38 78  2  0  0  0  0
 39 66  1  0  0  0  0
 39 72  1  0  0  0  0
 39 79  2  0  0  0  0
 40 43  1  0  0  0  0
 41 50  1  0  0  0  0
 42 65  1  0  0  0  0
 43 45  1  0  0  0  0
 44 46  1  0  0  0  0
 44 47  1  0  0  0  0
 45 49  1  0  0  0  0
 46 51  1  0  0  0  0
 47 66  1  0  0  0  0
 48 51  1  0  0  0  0
 48 66  1  0  0  0  0
 49 70  1  0  0  0  0
 50 65  1  0  0  0  0
 51 64  1  0  0  0  0
 52 61  1  0  0  0  0
 53 62  1  0  0  0  0
 54 62  1  0  0  0  0
 55 62  1  0  0  0  0
 56 73  1  0  0  0  0
 57 72  1  0  0  0  0
 58 59  1  0  0  0  0
 59 81  1  0  0  0  0
 60 62  1  0  0  0  0
 60 71  1  0  0  0  0
 61 73  1  0  0  0  0
 63 64  1  0  0  0  0
M  CHG  1  73   1
M  ISO  4  39 100  59 101  72 100  81 101
M  END
> <Batch ID>
0057

> <Smiles>
CNC(C)C(=O)NC(C(=O)N1Cc2cc([101O:1][101CH2:1]CC(=O)Nc3ccc(C[100NH:0][100C:0](=O)N4CCCC(n5nc(-c6ccc(Oc7ccc(F)cc7F)cc6)c(C(N)=O)c5N)C4)cc3F)ccc2CC1C(=O)NC1CCCc2ccccc21)C(C)(C)C

> <Shape>
0.217

> <Color>
0.072

> <Negative vol penalty>
0.000

$$$$

  -OEChem-04042322553D

 84 92  0     1  0  0  0  0  0999 V2000
  -28.1368  -36.4025   22.3659 C   0  0  0  0  0  0  0  0  0  0  0  0
  -28.4178  -35.0415   22.3017 C   0  0  0  0  0  0  0  0  0  0  0  0
  -24.6680  -12.2897   19.7785 C   0  0  0  0  0  0  0  0  0  0  0  0
  -25.6650  -12.9805   21.8680 C   0  0  0  0  0  0  0  0  0  0  0  0
  -26.9051  -36.8365   22.8542 C   0  0  0  0  0  0  0  0  0  0  0  0
  -27.4676  -34.1137   22.7268 C   0  0  0  0  0  0  0  0  0  0  0  0
  -26.9741  -30.2283   19.5166 C   0  0  0  0  0  0  0  0  0  0  0  0
  -30.9074  -21.7156   22.8996 C   0  0  0  0  0  0  0  0  0  0  0  0
  -29.9552  -20.9233   23.5409 C   0  0  0  0  0  0  0  0  0  0  0  0
  -25.1818  -11.0054   19.9579 C   0  0  0  0  0  0  0  0  0  0  0  0
  -26.1787  -11.6962   22.0474 C   0  0  0  0  0  0  0  0  0  0  0  0
  -27.9527  -29.2363   19.5625 C   0  0  0  0  0  0  0  0  0  0  0  0
  -25.9271   -7.4484   20.0425 C   0  0  0  0  0  0  0  0  0  0  0  0
  -25.0786   -6.3698   19.7930 C   0  0  0  0  0  0  0  0  0  0  0  0
  -26.4804  -27.8534   20.8813 C   0  0  0  0  0  0  0  0  0  0  0  0
  -29.6982  -21.4861   20.8206 C   0  0  0  0  0  0  0  0  0  0  0  0
  -23.5666   -7.1639   21.5019 C   0  0  0  0  0  0  0  0  0  0  0  0
  -24.9097  -13.2773   20.7335 C   0  0  0  0  0  0  0  0  0  0  0  0
  -23.1319  -15.0897   20.9835 C   0  0  0  0  0  0  0  0  0  0  0  0
  -25.9356  -35.9132   23.2765 C   0  0  0  0  0  0  0  0  0  0  0  0
  -25.7434  -30.0444   20.1631 C   0  0  0  0  0  0  0  0  0  0  0  0
  -26.2222  -34.5358   23.2225 C   0  0  0  0  0  0  0  0  0  0  0  0
  -25.4870  -28.8435   20.8400 C   0  0  0  0  0  0  0  0  0  0  0  0
  -30.7788  -21.9970   21.5395 C   0  0  0  0  0  0  0  0  0  0  0  0
  -28.8745  -20.4123   22.8220 C   0  0  0  0  0  0  0  0  0  0  0  0
  -28.7460  -20.6937   21.4619 C   0  0  0  0  0  0  0  0  0  0  0  0
  -25.9371  -10.7086   21.0924 C   0  0  0  0  0  0  0  0  0  0  0  0
  -27.7070  -28.0498   20.2473 C   0  0  0  0  0  0  0  0  0  0  0  0
  -25.5954   -8.3847   21.0218 C   0  0  0  0  0  0  0  0  0  0  0  0
  -23.8983   -6.2275   20.5226 C   0  0  0  0  0  0  0  0  0  0  0  0
  -24.4151   -8.2425   21.7515 C   0  0  0  0  0  0  0  0  0  0  0  0
  -24.3797  -14.6043   20.5484 C   0  0  0  0  0  0  0  0  0  0  0  0
  -23.1070  -16.3974   20.5641 C   0  0  0  0  0  0  0  0  0  0  0  0
  -22.0887  -14.4186   21.7026 C   0  0  0  0  0  0  0  0  0  0  0  0
  -24.2069  -31.5189   22.5230 C   0  0  0  0  0  0  0  0  0  0  0  0
  -21.8194  -29.4737   21.7234 C   0  0  0  0  0  0  0  0  0  0  0  0
  -30.8533  -25.1174   20.4445 C   0  0  0  0  0  0  0  0  0  0  0  0
  -20.8962  -26.5135   20.2979 C   0  0  0  0  0  0  0  0  0  0  0  0
  -27.3952  -20.3802   19.3587 C   0  0  0  0  0  0  0  0  0  0  0  0
  -24.6367  -36.4316   23.8411 C   0  0  0  0  0  0  0  0  0  0  0  0
  -24.6882  -31.1133   20.0817 C   0  0  0  0  0  0  0  0  0  0  0  0
  -24.1744  -28.5887   21.5334 C   0  0  0  0  0  0  0  0  0  0  0  0
  -23.5412  -35.3715   23.9214 C   0  0  0  0  0  0  0  0  0  0  0  0
  -24.8397  -19.2667   17.1437 C   0  0  0  0  0  0  0  0  0  0  0  0
  -24.0897  -34.0816   24.5231 C   0  0  0  0  0  0  0  0  0  0  0  0
  -24.3140  -17.9922   17.8081 C   0  0  0  0  0  0  0  0  0  0  0  0
  -26.3496  -19.4171   17.3205 C   0  0  0  0  0  0  0  0  0  0  0  0
  -26.2985  -18.0538   19.3718 C   0  0  0  0  0  0  0  0  0  0  0  0
  -25.2078  -33.4978   23.6511 C   0  0  1  0  0  0  0  0  0  0  0  0
  -23.6647  -31.0296   21.2099 C   0  0  1  0  0  0  0  0  0  0  0  0
  -24.7726  -17.8917   19.2762 C   0  0  2  0  0  0  0  0  0  0  0  0
  -27.8703  -19.5658   23.5348 C   0  0  0  0  0  0  0  0  0  0  0  0
  -18.8780  -25.0983   19.8277 C   0  0  0  0  0  0  0  0  0  0  0  0
  -21.7369  -28.6225   24.6523 C   0  0  0  0  0  0  0  0  0  0  0  0
  -20.4288  -26.6043   23.9567 C   0  0  0  0  0  0  0  0  0  0  0  0
  -19.4935  -28.8858   23.5789 C   0  0  0  0  0  0  0  0  0  0  0  0
  -21.3354  -26.6534   17.3745 C   0  0  0  0  0  0  0  0  0  0  0  0
  -31.8041  -22.8501   20.8501 C   0  0  0  0  0  0  0  0  0  0  0  0
  -30.8862  -26.5243   21.0210 C   0  0  0  0  0  0  0  0  0  0  0  0
  -30.0220  -27.5051   20.2437 C   0  0  0  0  0  0  0  0  0  1  0  0
  -21.4167  -28.0821   22.1480 C   0  0  1  0  0  0  0  0  0  0  0  0
  -19.8097  -26.1748   19.2933 C   0  0  2  0  0  0  0  0  0  0  0  0
  -20.7945  -28.0540   23.5727 C   0  0  0  0  0  0  0  0  0  0  0  0
  -25.0955  -15.5283   19.9020 N   0  0  0  0  0  0  0  0  0  0  0  0
  -24.2949  -16.6075   19.9278 N   0  0  0  0  0  0  0  0  0  0  0  0
  -23.1769  -29.6666   21.4306 N   0  0  0  0  0  0  0  0  0  0  0  0
  -26.7095  -19.3156   18.7365 N   0  0  0  0  0  0  0  0  0  0  0  0
  -22.1850  -17.3765   20.6812 N   0  0  0  0  0  0  0  0  0  0  0  0
  -22.2778  -13.0755   22.0555 N   0  0  0  0  0  0  0  0  0  0  0  0
  -27.6550  -20.1846   20.7147 N   0  0  0  0  0  0  0  0  0  0  0  0
  -24.6502  -32.8274   22.4961 N   0  0  0  0  0  0  0  0  0  0  0  0
  -31.6510  -24.2496   21.1763 N   0  0  0  0  0  0  0  0  0  0  0  0
  -20.5362  -27.5746   21.1013 N   0  0  0  0  0  0  0  0  0  0  0  0
  -20.4140  -25.6847   18.0222 N   0  3  0  0  0  0  0  0  0  0  0  0
  -21.0138  -14.9882   22.0083 O   0  0  0  0  0  0  0  0  0  0  0  0
  -24.2207  -30.7655   23.4894 O   0  0  0  0  0  0  0  0  0  0  0  0
  -20.9599  -30.3552   21.6471 O   0  0  0  0  0  0  0  0  0  0  0  0
  -30.1954  -24.8106   19.4541 O   0  0  0  0  0  0  0  0  0  0  0  0
  -21.9567  -25.8959   20.3658 O   0  0  0  0  0  0  0  0  0  0  0  0
  -27.7034  -21.4027   18.7410 O   0  0  0  0  0  0  0  0  0  0  0  0
  -26.4384   -9.4554   21.2679 O   0  0  0  0  0  0  0  0  0  0  0  0
  -28.6607  -27.0801   20.2941 O   0  0  0  0  0  0  0  0  0  1  0  0
  -23.0829   -5.1926   20.2818 F   0  0  0  0  0  0  0  0  0  0  0  0
  -24.0905   -9.1394   22.6927 F   0  0  0  0  0  0  0  0  0  0  0  0
  1  2  1  0  0  0  0
  1  5  2  0  0  0  0
  2  6  2  0  0  0  0
  3 10  2  0  0  0  0
  3 18  1  0  0  0  0
  4 11  1  0  0  0  0
  4 18  2  0  0  0  0
  5 20  1  0  0  0  0
  6 22  1  0  0  0  0
  7 12  2  0  0  0  0
  7 21  1  0  0  0  0
  8  9  2  0  0  0  0
  8 24  1  0  0  0  0
  9 25  1  0  0  0  0
 10 27  1  0  0  0  0
 11 27  2  0  0  0  0
 12 28  1  0  0  0  0
 13 14  2  0  0  0  0
 13 29  1  0  0  0  0
 14 30  1  0  0  0  0
 15 23  1  0  0  0  0
 15 28  2  0  0  0  0
 16 24  2  0  0  0  0
 16 26  1  0  0  0  0
 17 30  2  0  0  0  0
 17 31  1  0  0  0  0
 18 32  1  0  0  0  0
 19 32  1  0  0  0  0
 19 33  2  0  0  0  0
 19 34  1  0  0  0  0
 20 22  2  0  0  0  0
 20 40  1  0  0  0  0
 21 23  2  0  0  0  0
 21 41  1  0  0  0  0
 22 49  1  0  0  0  0
 23 42  1  0  0  0  0
 24 58  1  0  0  0  0
 25 26  2  0  0  0  0
 25 52  1  0  0  0  0
 26 70  1  0  0  0  0
 27 81  1  0  0  0  0
 28 82  1  0  0  0  0
 29 31  2  0  0  0  0
 29 81  1  0  0  0  0
 30 83  1  0  0  0  0
 31 84  1  0  0  0  0
 32 64  2  0  0  0  0
 33 65  1  0  0  0  0
 33 68  1  0  0  0  0
 34 69  1  0  0  0  0
 34 75  2  0  0  0  0
 35 50  1  0  0  0  0
 35 71  1  0  0  0  0
 35 76  2  0  0  0  0
 36 61  1  0  0  0  0
 36 66  1  0  0  0  0
 36 77  2  0  0  0  0
 37 59  1  0  0  0  0
 37 72  1  0  0  0  0
 37 78  2  0  0  0  0
 38 62  1  0  0  0  0
 38 73  1  0  0  0  0
 38 79  2  0  0  0  0
 39 67  1  0  0  0  0
 39 70  1  0  0  0  0
 39 80  2  0  0  0  0
 40 43  1  0  0  0  0
 41 50  1  0  0  0  0
 42 66  1  0  0  0  0
 43 45  1  0  0  0  0
 44 46  1  0  0  0  0
 44 47  1  0  0  0  0
 45 49  1  0  0  0  0
 46 51  1  0  0  0  0
 47 67  1  0  0  0  0
 48 51  1  0  0  0  0
 48 67  1  0  0  0  0
 49 71  1  0  0  0  0
 50 66  1  0  0  0  0
 51 65  1  0  0  0  0
 53 62  1  0  0  0  0
 54 63  1  0  0  0  0
 55 63  1  0  0  0  0
 56 63  1  0  0  0  0
 57 74  1  0  0  0  0
 58 72  1  0  0  0  0
 59 60  1  0  0  0  0
 60 82  1  0  0  0  0
 61 63  1  0  0  0  0
 61 73  1  0  0  0  0
 62 74  1  0  0  0  0
 64 65  1  0  0  0  0
M  CHG  1  74   1
M  ISO  4  39 100  60 101  70 100  82 101
M  END
> <Batch ID>
0057

> <Smiles>
CNC(C)C(=O)NC(C(=O)N1Cc2cc([101O:1][101CH2:1]CC(=O)NCc3ccc(C)c([100NH:0][100C:0](=O)N4CCCC(n5nc(-c6ccc(Oc7ccc(F)cc7F)cc6)c(C(N)=O)c5N)C4)c3)ccc2CC1C(=O)NC1CCCc2ccccc21)C(C)(C)C

> <Shape>
0.279

> <Color>
0.094

> <Negative vol penalty>
0.000

$$$$

  -OEChem-04042322553D

 89 97  0     1  0  0  0  0  0999 V2000
  -22.0846  -26.2203   14.6217 C   0  0  0  0  0  0  0  0  0  0  0  0
  -22.0524  -26.5333   15.9768 C   0  0  0  0  0  0  0  0  0  0  0  0
  -23.6903  -12.4034   18.9890 C   0  0  0  0  0  0  0  0  0  0  0  0
  -24.8146  -11.2476   20.7882 C   0  0  0  0  0  0  0  0  0  0  0  0
  -21.9472  -22.9602   21.0560 C   0  0  0  0  0  0  0  0  0  0  0  0
  -23.2361  -25.6683   14.0620 C   0  0  0  0  0  0  0  0  0  0  0  0
  -23.1715  -26.2935   16.7734 C   0  0  0  0  0  0  0  0  0  0  0  0
  -24.2295  -30.1702   19.8550 C   0  0  0  0  0  0  0  0  0  0  0  0
  -20.6169  -23.2666   21.3422 C   0  0  0  0  0  0  0  0  0  0  0  0
  -23.3341  -11.1785   18.4247 C   0  0  0  0  0  0  0  0  0  0  0  0
  -24.4584  -10.0227   20.2239 C   0  0  0  0  0  0  0  0  0  0  0  0
  -23.4495  -30.3022   21.0031 C   0  0  0  0  0  0  0  0  0  0  0  0
  -21.7155   -8.0543   20.0750 C   0  0  0  0  0  0  0  0  0  0  0  0
  -21.2156   -7.0704   20.9281 C   0  0  0  0  0  0  0  0  0  0  0  0
  -22.6680  -24.8347   22.3989 C   0  0  0  0  0  0  0  0  0  0  0  0
  -25.2005  -29.2718   22.3037 C   0  0  0  0  0  0  0  0  0  0  0  0
  -23.0350   -5.6073   20.3067 C   0  0  0  0  0  0  0  0  0  0  0  0
  -24.4306  -12.4379   20.1707 C   0  0  0  0  0  0  0  0  0  0  0  0
  -22.9728  -23.7442   21.5844 C   0  0  0  0  0  0  0  0  0  0  0  0
  -21.3377  -25.1412   22.6852 C   0  0  0  0  0  0  0  0  0  0  0  0
  -24.0658  -14.4518   21.6935 C   0  0  0  0  0  0  0  0  0  0  0  0
  -24.3732  -25.4306   14.8501 C   0  0  0  0  0  0  0  0  0  0  0  0
  -25.4985  -29.5772   19.9209 C   0  0  0  0  0  0  0  0  0  0  0  0
  -24.3389  -25.7366   16.2240 C   0  0  0  0  0  0  0  0  0  0  0  0
  -25.9956  -29.1358   21.1555 C   0  0  0  0  0  0  0  0  0  0  0  0
  -20.3121  -24.3571   22.1568 C   0  0  0  0  0  0  0  0  0  0  0  0
  -23.7182   -9.9882   19.0421 C   0  0  0  0  0  0  0  0  0  0  0  0
  -23.9338  -29.8503   22.2272 C   0  0  0  0  0  0  0  0  0  0  0  0
  -22.8751   -7.8147   19.3378 C   0  0  0  0  0  0  0  0  0  0  0  0
  -21.8754   -5.8469   21.0439 C   0  0  0  0  0  0  0  0  0  0  0  0
  -23.5349   -6.5912   19.4537 C   0  0  0  0  0  0  0  0  0  0  0  0
  -24.7992  -13.7029   20.7538 C   0  0  0  0  0  0  0  0  0  0  0  0
  -24.8388  -15.5632   21.9255 C   0  0  0  0  0  0  0  0  0  0  0  0
  -24.3599  -23.4239   21.2867 C   0  0  0  0  0  0  0  0  0  0  0  0
  -24.8379  -22.1902   21.0205 C   0  0  0  0  0  0  0  0  0  0  0  0
  -21.0362  -26.2985   23.5514 C   0  0  0  0  0  0  0  0  0  0  0  0
  -22.7991  -14.1682   22.3023 C   0  0  0  0  0  0  0  0  0  0  0  0
  -26.8373  -26.9956   18.6377 C   0  0  0  0  0  0  0  0  0  0  0  0
  -29.5212  -28.1757   20.0256 C   0  0  0  0  0  0  0  0  0  0  0  0
  -30.9065  -30.1303   22.4561 C   0  0  0  0  0  0  0  0  0  0  0  0
  -28.0143  -19.7410   20.0732 C   0  0  0  0  0  0  0  0  0  0  0  0
  -25.5786  -24.7885   14.2103 C   0  0  0  0  0  0  0  0  0  0  0  0
  -26.3383  -29.4665   18.6780 C   0  0  0  0  0  0  0  0  0  0  0  0
  -27.3598  -28.5104   21.2832 C   0  0  0  0  0  0  0  0  0  0  0  0
  -26.8504  -24.9131   15.0454 C   0  0  0  0  0  0  0  0  0  0  0  0
  -29.6051  -16.6003   20.5868 C   0  0  0  0  0  0  0  0  0  0  0  0
  -26.5697  -24.5567   16.5018 C   0  0  0  0  0  0  0  0  0  0  0  0
  -28.4369  -15.6261   20.7476 C   0  0  0  0  0  0  0  0  0  0  0  0
  -29.2977  -17.6819   19.5540 C   0  0  0  0  0  0  0  0  0  0  0  0
  -26.8757  -17.4533   19.9539 C   0  0  0  0  0  0  0  0  0  0  0  0
  -25.5412  -25.5142   17.1157 C   0  0  1  0  0  0  0  0  0  0  0  0
  -27.4052  -28.3801   18.7726 C   0  0  1  0  0  0  0  0  0  0  0  0
  -27.1181  -16.3735   21.0226 C   0  0  1  0  0  0  0  0  0  0  0  0
  -18.8800  -24.6644   22.4497 C   0  0  0  0  0  0  0  0  0  0  0  0
  -33.1270  -30.8676   23.3636 C   0  0  0  0  0  0  0  0  0  0  0  0
  -21.1528  -31.2570   23.6466 C   0  0  0  0  0  0  0  0  0  0  0  0
  -29.8760  -25.4553   21.3613 C   0  0  0  0  0  0  0  0  0  0  0  0
  -31.4987  -26.5210   22.9422 C   0  0  0  0  0  0  0  0  0  0  0  0
  -31.9888  -26.4765   20.4967 C   0  0  0  0  0  0  0  0  0  0  0  0
  -30.3304  -32.9744   21.8746 C   0  0  0  0  0  0  0  0  0  0  0  0
  -21.2073  -28.7323   23.9310 C   0  0  0  0  0  0  0  0  0  0  0  0
  -30.1864  -28.0184   21.3717 C   0  0  1  0  0  0  0  0  0  0  0  0
  -31.9945  -31.1874   22.4002 C   0  0  2  0  0  0  0  0  0  0  0  0
  -21.7577  -29.9392   23.1824 C   0  0  2  0  0  0  0  0  0  1  0  0
  -30.8609  -26.6278   21.5406 C   0  0  0  0  0  0  0  0  0  0  0  0
  -25.9497  -14.2891   20.4121 N   0  0  0  0  0  0  0  0  0  0  0  0
  -25.9450  -15.4182   21.1410 N   0  0  0  0  0  0  0  0  0  0  0  0
  -28.1404  -28.4186   20.0384 N   0  0  0  0  0  0  0  0  0  0  0  0
  -28.0345  -18.3521   19.8708 N   0  0  0  0  0  0  0  0  0  0  0  0
  -24.6734  -16.6406   22.7219 N   0  0  0  0  0  0  0  0  0  0  0  0
  -20.3701  -26.0781   24.6848 N   0  0  0  0  0  0  0  0  0  0  0  0
  -22.1398  -12.9822   21.9515 N   0  0  0  0  0  0  0  0  0  0  0  0
  -26.1636  -26.7769   17.4512 N   0  0  0  0  0  0  0  0  0  0  0  0
  -31.1008  -29.1468   21.5094 N   0  0  0  0  0  0  0  0  0  0  0  0
  -26.7538  -20.3522   20.3975 N   0  0  0  0  0  0  0  0  0  0  0  0
  -21.4432  -27.5106   23.1567 N   0  3  0  0  0  0  0  0  0  0  0  0
  -31.4377  -32.5231   22.7562 N   0  3  0  0  0  0  0  0  0  0  0  0
  -22.2599  -14.9514   23.1205 O   0  0  0  0  0  0  0  0  0  0  0  0
  -26.9997  -26.1852   19.5424 O   0  0  0  0  0  0  0  0  0  0  0  0
  -30.2029  -28.0932   19.0009 O   0  0  0  0  0  0  0  0  0  0  0  0
  -29.9792  -30.1707   23.2617 O   0  0  0  0  0  0  0  0  0  0  0  0
  -29.0310  -20.4315   19.9942 O   0  0  0  0  0  0  0  0  0  0  0  0
  -26.7950  -22.7234   19.4288 O   0  0  0  0  0  0  0  0  0  0  0  0
  -27.2724  -22.4024   21.8732 O   0  0  0  0  0  0  0  0  0  0  0  0
  -23.3706   -8.7928   18.4919 O   0  0  0  0  0  0  0  0  0  0  0  0
  -23.1744  -29.9773   23.3492 O   0  0  0  0  0  0  0  0  0  1  0  0
  -21.3960   -4.9028   21.8643 F   0  0  0  0  0  0  0  0  0  0  0  0
  -24.6500   -6.3556   18.7488 F   0  0  0  0  0  0  0  0  0  0  0  0
  -26.5299  -22.0360   20.6803 S   0  0  0  0  0  0  0  0  0  0  0  0
  1  2  1  0  0  0  0
  1  6  2  0  0  0  0
  2  7  2  0  0  0  0
  3 10  2  0  0  0  0
  3 18  1  0  0  0  0
  4 11  1  0  0  0  0
  4 18  2  0  0  0  0
  5  9  2  0  0  0  0
  5 19  1  0  0  0  0
  6 22  1  0  0  0  0
  7 24  1  0  0  0  0
  8 12  2  0  0  0  0
  8 23  1  0  0  0  0
  9 26  1  0  0  0  0
 10 27  1  0  0  0  0
 11 27  2  0  0  0  0
 12 28  1  0  0  0  0
 13 14  2  0  0  0  0
 13 29  1  0  0  0  0
 14 30  1  0  0  0  0
 15 19  2  0  0  0  0
 15 20  1  0  0  0  0
 16 25  1  0  0  0  0
 16 28  2  0  0  0  0
 17 30  2  0  0  0  0
 17 31  1  0  0  0  0
 18 32  1  0  0  0  0
 19 34  1  0  0  0  0
 20 26  2  0  0  0  0
 20 36  1  0  0  0  0
 21 32  1  0  0  0  0
 21 33  2  0  0  0  0
 21 37  1  0  0  0  0
 22 24  2  0  0  0  0
 22 42  1  0  0  0  0
 23 25  2  0  0  0  0
 23 43  1  0  0  0  0
 24 51  1  0  0  0  0
 25 44  1  0  0  0  0
 26 54  1  0  0  0  0
 27 85  1  0  0  0  0
 28 86  1  0  0  0  0
 29 31  2  0  0  0  0
 29 85  1  0  0  0  0
 30 87  1  0  0  0  0
 31 88  1  0  0  0  0
 32 66  2  0  0  0  0
 33 67  1  0  0  0  0
 33 70  1  0  0  0  0
 34 35  2  0  0  0  0
 35 89  1  0  0  0  0
 36 71  1  0  0  0  0
 36 76  2  0  0  0  0
 37 72  1  0  0  0  0
 37 78  2  0  0  0  0
 38 52  1  0  0  0  0
 38 73  1  0  0  0  0
 38 79  2  0  0  0  0
 39 62  1  0  0  0  0
 39 68  1  0  0  0  0
 39 80  2  0  0  0  0
 40 63  1  0  0  0  0
 40 74  1  0  0  0  0
 40 81  2  0  0  0  0
 41 69  1  0  0  0  0
 41 75  1  0  0  0  0
 41 82  2  0  0  0  0
 42 45  1  0  0  0  0
 43 52  1  0  0  0  0
 44 68  1  0  0  0  0
 45 47  1  0  0  0  0
 46 48  1  0  0  0  0
 46 49  1  0  0  0  0
 47 51  1  0  0  0  0
 48 53  1  0  0  0  0
 49 69  1  0  0  0  0
 50 53  1  0  0  0  0
 50 69  1  0  0  0  0
 51 73  1  0  0  0  0
 52 68  1  0  0  0  0
 53 67  1  0  0  0  0
 55 63  1  0  0  0  0
 56 64  1  0  0  0  0
 57 65  1  0  0  0  0
 58 65  1  0  0  0  0
 59 65  1  0  0  0  0
 60 77  1  0  0  0  0
 61 64  1  0  0  0  0
 61 76  1  0  0  0  0
 62 65  1  0  0  0  0
 62 74  1  0  0  0  0
 63 77  1  0  0  0  0
 64 86  1  0  0  0  0
 66 67  1  0  0  0  0
 75 89  1  0  0  0  0
 83 89  2  0  0  0  0
 84 89  2  0  0  0  0
M  CHG  2  76   1  77   1
M  ISO  4  41 100  64 101  75 100  86 101
M  END
> <Batch ID>
0057

> <Smiles>
CNC(C)C(=O)NC(C(=O)N1Cc2cc([101O:1][101CH:1](C)CNC(=N)c3cc(C=CS(=O)(=O)[100NH:0][100C:0](=O)N4CCCC(n5nc(-c6ccc(Oc7ccc(F)cc7F)cc6)c(C(N)=O)c5N)C4)ccc3C)ccc2CC1C(=O)NC1CCCc2ccccc21)C(C)(C)C

> <Shape>
0.217

> <Color>
0.069

> <Negative vol penalty>
0.000

$$$$

  -OEChem-04042322553D

 86 95  0     1  0  0  0  0  0999 V2000
  -24.8391  -38.4639   22.6921 C   0  0  0  0  0  0  0  0  0  0  0  0
  -24.9154  -37.3937   21.8065 C   0  0  0  0  0  0  0  0  0  0  0  0
  -26.1647  -13.6819   19.5677 C   0  0  0  0  0  0  0  0  0  0  0  0
  -26.3245  -13.6525   21.9782 C   0  0  0  0  0  0  0  0  0  0  0  0
  -25.3210  -38.3261   23.9932 C   0  0  0  0  0  0  0  0  0  0  0  0
  -25.4746  -36.1855   22.2211 C   0  0  0  0  0  0  0  0  0  0  0  0
  -23.7775  -30.5595   20.4966 C   0  0  0  0  0  0  0  0  0  0  0  0
  -31.8761  -25.2431   21.4170 C   0  0  0  0  0  0  0  0  0  0  0  0
  -31.8704  -23.9192   21.8563 C   0  0  0  0  0  0  0  0  0  0  0  0
  -24.8573  -13.2025   19.6485 C   0  0  0  0  0  0  0  0  0  0  0  0
  -25.0171  -13.1732   22.0590 C   0  0  0  0  0  0  0  0  0  0  0  0
  -24.2870  -29.6762   19.5458 C   0  0  0  0  0  0  0  0  0  0  0  0
  -23.3196  -10.2367   20.1619 C   0  0  0  0  0  0  0  0  0  0  0  0
  -22.9543   -9.2038   19.2986 C   0  0  0  0  0  0  0  0  0  0  0  0
  -25.5609  -28.5669   21.2680 C   0  0  0  0  0  0  0  0  0  0  0  0
  -30.2019  -23.3755   20.1957 C   0  0  0  0  0  0  0  0  0  0  0  0
  -21.2367  -10.6092   18.3438 C   0  0  0  0  0  0  0  0  0  0  0  0
  -26.8983  -13.9069   20.7325 C   0  0  0  0  0  0  0  0  0  0  0  0
  -29.3414  -13.7875   20.0080 C   0  0  0  0  0  0  0  0  0  0  0  0
  -25.8776  -37.1126   24.4269 C   0  0  0  0  0  0  0  0  0  0  0  0
  -24.1650  -30.4598   21.8406 C   0  0  0  0  0  0  0  0  0  0  0  0
  -25.9655  -36.0318   23.5288 C   0  0  0  0  0  0  0  0  0  0  0  0
  -25.0529  -29.4485   22.2342 C   0  0  0  0  0  0  0  0  0  0  0  0
  -31.0447  -25.6332   20.3671 C   0  0  0  0  0  0  0  0  0  0  0  0
  -30.2076  -24.6994   19.7564 C   0  0  0  0  0  0  0  0  0  0  0  0
  -31.0333  -22.9854   21.2456 C   0  0  0  0  0  0  0  0  0  0  0  0
  -24.2835  -12.9482   20.8941 C   0  0  0  0  0  0  0  0  0  0  0  0
  -25.1811  -28.6815   19.9309 C   0  0  0  0  0  0  0  0  0  0  0  0
  -22.6433  -11.4559   20.1162 C   0  0  0  0  0  0  0  0  0  0  0  0
  -21.9129   -9.3901   18.3895 C   0  0  0  0  0  0  0  0  0  0  0  0
  -21.6019  -11.6421   19.2071 C   0  0  0  0  0  0  0  0  0  0  0  0
  -28.2491  -14.4015   20.6497 C   0  0  0  0  0  0  0  0  0  0  0  0
  -30.3901  -14.6500   20.2147 C   0  0  0  0  0  0  0  0  0  0  0  0
  -29.8539  -25.6128   17.4709 C   0  0  0  0  0  0  0  0  0  0  0  0
  -29.4025  -12.5483   19.2894 C   0  0  0  0  0  0  0  0  0  0  0  0
  -25.6770  -32.3655   23.8864 C   0  0  0  0  0  0  0  0  0  0  0  0
  -24.9245  -30.0334   26.0118 C   0  0  0  0  0  0  0  0  0  0  0  0
  -24.1351  -26.7589   26.5611 C   0  0  0  0  0  0  0  0  0  0  0  0
  -30.2610  -20.5800   21.2021 C   0  0  0  0  0  0  0  0  0  0  0  0
  -26.4283  -37.0262   25.8283 C   0  0  0  0  0  0  0  0  0  0  0  0
  -23.5856  -31.4035   22.8585 C   0  0  0  0  0  0  0  0  0  0  0  0
  -25.4848  -29.2863   23.6680 C   0  0  0  0  0  0  0  0  0  0  0  0
  -28.7783  -26.0274   16.4849 C   0  0  0  0  0  0  0  0  0  0  0  0
  -26.6648  -35.5947   26.3027 C   0  0  0  0  0  0  0  0  0  0  0  0
  -27.6988  -26.8090   17.2117 C   0  0  0  0  0  0  0  0  0  0  0  0
  -31.2454  -17.8649   23.7286 C   0  0  0  0  0  0  0  0  0  0  0  0
  -27.3850  -34.7879   25.2269 C   0  0  0  0  0  0  0  0  0  0  0  0
  -31.3080  -16.6593   22.7937 C   0  0  0  0  0  0  0  0  0  0  0  0
  -31.4295  -19.1821   22.9856 C   0  0  0  0  0  0  0  0  0  0  0  0
  -27.9081  -24.7785   18.7471 C   0  0  0  0  0  0  0  0  0  0  0  0
  -29.7325  -18.1629   21.4568 C   0  0  0  0  0  0  0  0  0  0  0  0
  -26.5427  -34.6974   23.9487 C   0  0  1  0  0  0  0  0  0  0  0  0
  -24.4465  -31.5331   24.1113 C   0  0  1  0  0  0  0  0  0  0  0  0
  -27.0220  -25.9516   18.2880 C   0  0  1  0  0  0  0  0  0  0  0  0
  -30.6274  -16.9139   21.4342 C   0  0  2  0  0  0  0  0  0  0  0  0
  -31.0718  -27.0579   19.9174 C   0  0  0  0  0  0  0  0  0  0  0  0
  -23.6128  -25.1415   28.4073 C   0  0  0  0  0  0  0  0  0  0  0  0
  -27.8827  -29.9267   26.7519 C   0  0  0  0  0  0  0  0  0  0  0  0
  -27.4566  -27.7175   27.8502 C   0  0  0  0  0  0  0  0  0  0  0  0
  -26.3151  -29.7687   28.6941 C   0  0  0  0  0  0  0  0  0  0  0  0
  -21.4412  -26.2028   25.4689 C   0  0  0  0  0  0  0  0  0  0  0  0
  -26.5920  -26.8235   19.4691 C   0  0  0  0  0  0  0  0  0  1  0  0
  -25.5915  -28.7659   26.4889 C   0  0  1  0  0  0  0  0  0  0  0  0
  -23.0381  -26.1122   27.3874 C   0  0  2  0  0  0  0  0  0  0  0  0
  -26.8050  -29.0487   27.4188 C   0  0  0  0  0  0  0  0  0  0  0  0
  -28.5739  -15.5641   21.2213 N   0  0  0  0  0  0  0  0  0  0  0  0
  -29.8821  -15.6876   20.9396 N   0  0  0  0  0  0  0  0  0  0  0  0
  -29.3430  -25.0820   18.6725 N   0  0  0  0  0  0  0  0  0  0  0  0
  -24.8955  -30.2374   24.6249 N   0  0  0  0  0  0  0  0  0  0  0  0
  -30.4894  -19.3509   21.8681 N   0  0  0  0  0  0  0  0  0  0  0  0
  -31.6881  -14.6144   19.8453 N   0  0  0  0  0  0  0  0  0  0  0  0
  -29.7117  -11.3794   19.9982 N   0  0  0  0  0  0  0  0  0  0  0  0
  -31.0278  -21.6403   21.6924 N   0  0  0  0  0  0  0  0  0  0  0  0
  -25.4898  -33.7170   24.1056 N   0  0  0  0  0  0  0  0  0  0  0  0
  -24.5428  -27.9592   27.1036 N   0  0  0  0  0  0  0  0  0  0  0  0
  -22.0974  -25.3650   26.5055 N   0  3  0  0  0  0  0  0  0  0  0  0
  -31.0394  -25.7074   17.1548 O   0  0  0  0  0  0  0  0  0  0  0  0
  -29.2055  -12.4822   18.0523 O   0  0  0  0  0  0  0  0  0  0  0  0
  -26.7195  -31.8218   23.5412 O   0  0  0  0  0  0  0  0  0  0  0  0
  -24.4405  -30.8102   26.8388 O   0  0  0  0  0  0  0  0  0  0  0  0
  -24.5877  -26.2485   25.5388 O   0  0  0  0  0  0  0  0  0  0  0  0
  -29.4612  -20.6720   20.2685 O   0  0  0  0  0  0  0  0  0  0  0  0
  -23.0077  -12.4806   20.9734 O   0  0  0  0  0  0  0  0  0  0  0  0
  -25.6804  -27.8184   19.0048 O   0  0  0  0  0  0  0  0  0  1  0  0
  -21.5632   -8.3986   17.5595 F   0  0  0  0  0  0  0  0  0  0  0  0
  -20.9494  -12.8116   19.1577 F   0  0  0  0  0  0  0  0  0  0  0  0
  1  2  1  0  0  0  0
  1  5  2  0  0  0  0
  2  6  2  0  0  0  0
  3 10  2  0  0  0  0
  3 18  1  0  0  0  0
  4 11  1  0  0  0  0
  4 18  2  0  0  0  0
  5 20  1  0  0  0  0
  6 22  1  0  0  0  0
  7 12  2  0  0  0  0
  7 21  1  0  0  0  0
  8  9  2  0  0  0  0
  8 24  1  0  0  0  0
  9 26  1  0  0  0  0
 10 27  1  0  0  0  0
 11 27  2  0  0  0  0
 12 28  1  0  0  0  0
 13 14  2  0  0  0  0
 13 29  1  0  0  0  0
 14 30  1  0  0  0  0
 15 23  1  0  0  0  0
 15 28  2  0  0  0  0
 16 25  1  0  0  0  0
 16 26  2  0  0  0  0
 17 30  2  0  0  0  0
 17 31  1  0  0  0  0
 18 32  1  0  0  0  0
 19 32  1  0  0  0  0
 19 33  2  0  0  0  0
 19 35  1  0  0  0  0
 20 22  2  0  0  0  0
 20 40  1  0  0  0  0
 21 23  2  0  0  0  0
 21 41  1  0  0  0  0
 22 52  1  0  0  0  0
 23 42  1  0  0  0  0
 24 25  2  0  0  0  0
 24 56  1  0  0  0  0
 25 68  1  0  0  0  0
 26 73  1  0  0  0  0
 27 83  1  0  0  0  0
 28 84  1  0  0  0  0
 29 31  2  0  0  0  0
 29 83  1  0  0  0  0
 30 85  1  0  0  0  0
 31 86  1  0  0  0  0
 32 66  2  0  0  0  0
 33 67  1  0  0  0  0
 33 71  1  0  0  0  0
 34 43  1  0  0  0  0
 34 68  1  0  0  0  0
 34 77  2  0  0  0  0
 35 72  1  0  0  0  0
 35 78  2  0  0  0  0
 36 53  1  0  0  0  0
 36 74  1  0  0  0  0
 36 79  2  0  0  0  0
 37 63  1  0  0  0  0
 37 69  1  0  0  0  0
 37 80  2  0  0  0  0
 38 64  1  0  0  0  0
 38 75  1  0  0  0  0
 38 81  2  0  0  0  0
 39 70  1  0  0  0  0
 39 73  1  0  0  0  0
 39 82  2  0  0  0  0
 40 44  1  0  0  0  0
 41 53  1  0  0  0  0
 42 69  1  0  0  0  0
 43 45  1  0  0  0  0
 44 47  1  0  0  0  0
 45 54  1  0  0  0  0
 46 48  1  0  0  0  0
 46 49  1  0  0  0  0
 47 52  1  0  0  0  0
 48 55  1  0  0  0  0
 49 70  1  0  0  0  0
 50 54  1  0  0  0  0
 50 68  1  0  0  0  0
 51 55  1  0  0  0  0
 51 70  1  0  0  0  0
 52 74  1  0  0  0  0
 53 69  1  0  0  0  0
 54 62  1  0  0  0  0
 55 67  1  0  0  0  0
 57 64  1  0  0  0  0
 58 65  1  0  0  0  0
 59 65  1  0  0  0  0
 60 65  1  0  0  0  0
 61 76  1  0  0  0  0
 62 84  1  0  0  0  0
 63 65  1  0  0  0  0
 63 75  1  0  0  0  0
 64 76  1  0  0  0  0
 66 67  1  0  0  0  0
M  CHG  1  76   1
M  ISO  4  39 100  62 101  73 100  84 101
M  END
> <Batch ID>
0057

> <Smiles>
CNC(C)C(=O)NC(C(=O)N1Cc2cc([101O:1][101CH2:1]C3CCC(=O)N(c4cc([100NH:0][100C:0](=O)N5CCCC(n6nc(-c7ccc(Oc8ccc(F)cc8F)cc7)c(C(N)=O)c6N)C5)ccc4C)C3)ccc2CC1C(=O)NC1CCCc2ccccc21)C(C)(C)C

> <Shape>
0.317

> <Color>
0.076

> <Negative vol penalty>
0.000

$$$$

  -OEChem-04042322553D

 89 98  0     1  0  0  0  0  0999 V2000
  -31.9995  -25.9763   19.1176 C   0  0  0  0  0  0  0  0  0  0  0  0
  -31.1748  -25.4039   20.0808 C   0  0  0  0  0  0  0  0  0  0  0  0
  -24.7477  -13.5745   21.1323 C   0  0  0  0  0  0  0  0  0  0  0  0
  -26.4096  -13.0830   19.4489 C   0  0  0  0  0  0  0  0  0  0  0  0
  -31.9053  -27.3398   18.8422 C   0  0  0  0  0  0  0  0  0  0  0  0
  -30.2562  -26.1949   20.7699 C   0  0  0  0  0  0  0  0  0  0  0  0
  -25.7007  -24.0130   21.1331 C   0  0  0  0  0  0  0  0  0  0  0  0
  -28.8499  -23.2957   24.3972 C   0  0  0  0  0  0  0  0  0  0  0  0
  -29.2210  -22.3011   23.4925 C   0  0  0  0  0  0  0  0  0  0  0  0
  -24.6782  -12.2203   21.4591 C   0  0  0  0  0  0  0  0  0  0  0  0
  -26.3401  -11.7287   19.7758 C   0  0  0  0  0  0  0  0  0  0  0  0
  -25.5484  -23.0130   22.0926 C   0  0  0  0  0  0  0  0  0  0  0  0
  -23.2385   -9.4281   20.2121 C   0  0  0  0  0  0  0  0  0  0  0  0
  -21.9726   -8.8666   20.3792 C   0  0  0  0  0  0  0  0  0  0  0  0
  -24.4961  -24.6013   23.5721 C   0  0  0  0  0  0  0  0  0  0  0  0
  -27.9918  -20.6693   24.7824 C   0  0  0  0  0  0  0  0  0  0  0  0
  -22.5317   -8.2838   22.6563 C   0  0  0  0  0  0  0  0  0  0  0  0
  -25.6133  -14.0059   20.1271 C   0  0  0  0  0  0  0  0  0  0  0  0
  -24.6379  -16.2208   19.3208 C   0  0  0  0  0  0  0  0  0  0  0  0
  -30.9784  -28.1462   19.5214 C   0  0  0  0  0  0  0  0  0  0  0  0
  -25.2610  -25.3195   21.3906 C   0  0  0  0  0  0  0  0  0  0  0  0
  -30.1505  -27.5708   20.5042 C   0  0  0  0  0  0  0  0  0  0  0  0
  -24.6417  -25.6155   22.6133 C   0  0  0  0  0  0  0  0  0  0  0  0
  -28.0499  -22.9772   25.4946 C   0  0  0  0  0  0  0  0  0  0  0  0
  -27.6208  -21.6640   25.6871 C   0  0  0  0  0  0  0  0  0  0  0  0
  -28.7919  -20.9879   23.6850 C   0  0  0  0  0  0  0  0  0  0  0  0
  -25.4744  -11.2974   20.7809 C   0  0  0  0  0  0  0  0  0  0  0  0
  -24.9486  -23.3078   23.3134 C   0  0  0  0  0  0  0  0  0  0  0  0
  -24.1510   -9.4174   21.2670 C   0  0  0  0  0  0  0  0  0  0  0  0
  -21.6192   -8.2945   21.6013 C   0  0  0  0  0  0  0  0  0  0  0  0
  -23.7976   -8.8453   22.4891 C   0  0  0  0  0  0  0  0  0  0  0  0
  -25.6851  -15.4046   19.7886 C   0  0  0  0  0  0  0  0  0  0  0  0
  -25.2151  -17.4554   19.1497 C   0  0  0  0  0  0  0  0  0  0  0  0
  -24.5124  -20.1806   24.5859 C   0  0  0  0  0  0  0  0  0  0  0  0
  -24.3349  -18.7364   24.2092 C   0  0  0  0  0  0  0  0  0  0  0  0
  -26.2647  -18.8765   26.8247 C   0  0  0  0  0  0  0  0  0  0  0  0
  -23.2661  -15.8925   19.0640 C   0  0  0  0  0  0  0  0  0  0  0  0
  -26.6706  -28.1610   21.5972 C   0  0  0  0  0  0  0  0  0  0  0  0
  -23.6167  -29.2225   21.8601 C   0  0  0  0  0  0  0  0  0  0  0  0
  -20.3768  -28.5484   22.6941 C   0  0  0  0  0  0  0  0  0  0  0  0
  -29.9544  -20.1243   21.6237 C   0  0  0  0  0  0  0  0  0  0  0  0
  -30.9460  -29.6242   19.2229 C   0  0  0  0  0  0  0  0  0  0  0  0
  -25.4085  -26.3806   20.3349 C   0  0  0  0  0  0  0  0  0  0  0  0
  -24.1341  -26.9975   22.9311 C   0  0  0  0  0  0  0  0  0  0  0  0
  -24.5440  -20.5296   26.0420 C   0  0  0  0  0  0  0  0  0  0  0  0
  -25.2924  -17.7397   24.8105 C   0  0  0  0  0  0  0  0  0  0  0  0
  -25.3270  -17.7872   26.3319 C   0  0  0  0  0  0  0  0  0  0  0  0
  -29.6866  -30.3208   19.7317 C   0  0  0  0  0  0  0  0  0  0  0  0
  -29.4217  -19.5173   18.1560 C   0  0  0  0  0  0  0  0  0  0  0  0
  -29.3861  -29.8995   21.1666 C   0  0  0  0  0  0  0  0  0  0  0  0
  -28.3035  -18.4725   18.1384 C   0  0  0  0  0  0  0  0  0  0  0  0
  -30.3855  -19.2969   19.3205 C   0  0  0  0  0  0  0  0  0  0  0  0
  -28.6334  -18.1567   20.6241 C   0  0  0  0  0  0  0  0  0  0  0  0
  -29.1243  -28.3911   21.2553 C   0  0  1  0  0  0  0  0  0  0  0  0
  -25.3886  -27.7961   20.9035 C   0  0  1  0  0  0  0  0  0  0  0  0
  -27.6005  -18.3764   19.5067 C   0  0  2  0  0  0  0  0  0  0  0  0
  -27.6661  -24.0590   26.4501 C   0  0  0  0  0  0  0  0  0  0  0  0
  -18.1153  -29.6261   22.8406 C   0  0  0  0  0  0  0  0  0  0  0  0
  -24.4658  -30.6507   24.4192 C   0  0  0  0  0  0  0  0  0  0  0  0
  -22.0437  -30.8920   25.0054 C   0  0  0  0  0  0  0  0  0  0  0  0
  -22.9399  -31.9731   22.9437 C   0  0  0  0  0  0  0  0  0  0  0  0
  -19.2255  -26.6704   20.7176 C   0  0  0  0  0  0  0  0  0  0  0  0
  -26.7575  -21.2982   26.8597 C   0  0  0  0  0  0  0  0  0  0  0  0
  -22.6626  -29.4609   23.0054 C   0  0  1  0  0  0  0  0  0  0  0  0
  -19.0717  -28.8259   21.9701 C   0  0  2  0  0  0  0  0  0  0  0  0
  -23.0392  -30.7185   23.8385 C   0  0  0  0  0  0  0  0  0  0  0  0
  -26.8401  -16.0649   19.9069 N   0  0  0  0  0  0  0  0  0  0  0  0
  -24.6502  -21.0676   23.6584 N   0  0  0  0  0  0  0  0  0  1  0  0
  -26.5221  -17.3091   19.5109 N   0  0  0  0  0  0  0  0  0  0  0  0
  -25.8666  -20.1873   26.5549 N   0  0  0  0  0  0  0  0  0  0  0  0
  -24.3071  -28.0022   21.8689 N   0  0  0  0  0  0  0  0  0  0  0  0
  -29.6492  -19.2204   20.5842 N   0  0  0  0  0  0  0  0  0  0  0  0
  -24.7270  -18.6409   18.7268 N   0  0  0  0  0  0  0  0  0  0  0  0
  -22.9148  -15.4438   17.7836 N   0  0  0  0  0  0  0  0  0  0  0  0
  -29.1670  -19.9775   22.7652 N   0  0  0  0  0  0  0  0  0  0  0  0
  -27.7893  -28.0817   20.7900 N   0  0  0  0  0  0  0  0  0  0  0  0
  -21.3269  -29.5095   22.4206 N   0  0  0  0  0  0  0  0  0  0  0  0
  -18.4060  -27.5468   21.5936 N   0  3  0  0  0  0  0  0  0  0  0  0
  -23.4805  -18.4650   23.3779 O   0  0  0  0  0  0  0  0  0  0  0  0
  -27.3154  -18.5706   27.3923 O   0  0  0  0  0  0  0  0  0  0  0  0
  -22.3752  -16.0097   19.9393 O   0  0  0  0  0  0  0  0  0  0  0  0
  -26.6463  -28.4915   22.7770 O   0  0  0  0  0  0  0  0  0  0  0  0
  -23.7393  -30.0840   20.9858 O   0  0  0  0  0  0  0  0  0  0  0  0
  -20.5362  -27.5782   23.4315 O   0  0  0  0  0  0  0  0  0  0  0  0
  -30.8301  -20.9844   21.4995 O   0  0  0  0  0  0  0  0  0  0  0  0
  -25.4071   -9.9759   21.0998 O   0  0  0  0  0  0  0  0  0  0  0  0
  -24.7993  -22.3337   24.2519 O   0  0  0  0  0  0  0  0  0  1  0  0
  -20.4030   -7.7567   21.7621 F   0  0  0  0  0  0  0  0  0  0  0  0
  -24.6696   -8.8331   23.5066 F   0  0  0  0  0  0  0  0  0  0  0  0
  1  2  1  0  0  0  0
  1  5  2  0  0  0  0
  2  6  2  0  0  0  0
  3 10  2  0  0  0  0
  3 18  1  0  0  0  0
  4 11  1  0  0  0  0
  4 18  2  0  0  0  0
  5 20  1  0  0  0  0
  6 22  1  0  0  0  0
  7 12  2  0  0  0  0
  7 21  1  0  0  0  0
  8  9  2  0  0  0  0
  8 24  1  0  0  0  0
  9 26  1  0  0  0  0
 10 27  1  0  0  0  0
 11 27  2  0  0  0  0
 12 28  1  0  0  0  0
 13 14  2  0  0  0  0
 13 29  1  0  0  0  0
 14 30  1  0  0  0  0
 15 23  1  0  0  0  0
 15 28  2  0  0  0  0
 16 25  1  0  0  0  0
 16 26  2  0  0  0  0
 17 30  2  0  0  0  0
 17 31  1  0  0  0  0
 18 32  1  0  0  0  0
 19 32  1  0  0  0  0
 19 33  2  0  0  0  0
 19 37  1  0  0  0  0
 20 22  2  0  0  0  0
 20 42  1  0  0  0  0
 21 23  2  0  0  0  0
 21 43  1  0  0  0  0
 22 54  1  0  0  0  0
 23 44  1  0  0  0  0
 24 25  2  0  0  0  0
 24 57  1  0  0  0  0
 25 63  1  0  0  0  0
 26 75  1  0  0  0  0
 27 86  1  0  0  0  0
 28 87  1  0  0  0  0
 29 31  2  0  0  0  0
 29 86  1  0  0  0  0
 30 88  1  0  0  0  0
 31 89  1  0  0  0  0
 32 67  2  0  0  0  0
 33 69  1  0  0  0  0
 33 73  1  0  0  0  0
 34 35  1  0  0  0  0
 34 45  1  0  0  0  0
 34 68  2  0  0  0  0
 35 46  1  0  0  0  0
 35 79  2  0  0  0  0
 36 47  1  0  0  0  0
 36 70  1  0  0  0  0
 36 80  2  0  0  0  0
 37 74  1  0  0  0  0
 37 81  2  0  0  0  0
 38 55  1  0  0  0  0
 38 76  1  0  0  0  0
 38 82  2  0  0  0  0
 39 64  1  0  0  0  0
 39 71  1  0  0  0  0
 39 83  2  0  0  0  0
 40 65  1  0  0  0  0
 40 77  1  0  0  0  0
 40 84  2  0  0  0  0
 41 72  1  0  0  0  0
 41 75  1  0  0  0  0
 41 85  2  0  0  0  0
 42 48  1  0  0  0  0
 43 55  1  0  0  0  0
 44 71  1  0  0  0  0
 45 70  1  0  0  0  0
 46 47  1  0  0  0  0
 48 50  1  0  0  0  0
 49 51  1  0  0  0  0
 49 52  1  0  0  0  0
 50 54  1  0  0  0  0
 51 56  1  0  0  0  0
 52 72  1  0  0  0  0
 53 56  1  0  0  0  0
 53 72  1  0  0  0  0
 54 76  1  0  0  0  0
 55 71  1  0  0  0  0
 56 69  1  0  0  0  0
 58 65  1  0  0  0  0
 59 66  1  0  0  0  0
 60 66  1  0  0  0  0
 61 66  1  0  0  0  0
 62 78  1  0  0  0  0
 63 70  1  0  0  0  0
 64 66  1  0  0  0  0
 64 77  1  0  0  0  0
 65 78  1  0  0  0  0
 67 69  1  0  0  0  0
 68 87  1  0  0  0  0
M  CHG  1  78   1
M  ISO  4  41 100  68 101  75 100  87 101
M  END
> <Batch ID>
0057

> <Smiles>
CNC(C)C(=O)NC(C(=O)N1Cc2cc([101O:1][101N:1]=C3CN(Cc4cc([100NH:0][100C:0](=O)N5CCCC(n6nc(-c7ccc(Oc8ccc(F)cc8F)cc7)c(C(N)=O)c6N)C5)ccc4C)C(=O)CCC3=O)ccc2CC1C(=O)NC1CCCc2ccccc21)C(C)(C)C

> <Shape>
0.230

> <Color>
0.051

> <Negative vol penalty>
0.000

$$$$

  -OEChem-04042322553D

 95104  0     1  0  0  0  0  0999 V2000
  -21.2516  -27.6797   15.9814 C   0  0  0  0  0  0  0  0  0  0  0  0
  -21.5358  -26.9285   17.1174 C   0  0  0  0  0  0  0  0  0  0  0  0
  -19.6480  -16.8157   22.7446 C   0  0  0  0  0  0  0  0  0  0  0  0
  -30.5834  -21.0462   19.7375 C   0  0  0  0  0  0  0  0  0  0  0  0
  -28.7058  -20.4535   21.1376 C   0  0  0  0  0  0  0  0  0  0  0  0
  -21.8131  -28.9464   15.8263 C   0  0  0  0  0  0  0  0  0  0  0  0
  -22.3826  -27.4433   18.0985 C   0  0  0  0  0  0  0  0  0  0  0  0
  -20.5961  -26.7197   22.7814 C   0  0  0  0  0  0  0  0  0  0  0  0
  -20.4296  -15.7420   23.1708 C   0  0  0  0  0  0  0  0  0  0  0  0
  -20.2426  -18.0496   22.4802 C   0  0  0  0  0  0  0  0  0  0  0  0
  -24.7771  -11.0013   19.5150 C   0  0  0  0  0  0  0  0  0  0  0  0
  -26.0546  -11.5348   19.3456 C   0  0  0  0  0  0  0  0  0  0  0  0
  -29.9982  -22.2853   19.4773 C   0  0  0  0  0  0  0  0  0  0  0  0
  -28.1206  -21.6927   20.8775 C   0  0  0  0  0  0  0  0  0  0  0  0
  -20.7458  -25.4469   23.3303 C   0  0  0  0  0  0  0  0  0  0  0  0
  -26.3029  -24.8414   20.8711 C   0  0  0  0  0  0  0  0  0  0  0  0
  -25.7605  -25.5422   21.9482 C   0  0  0  0  0  0  0  0  0  0  0  0
  -25.7582  -12.8757   21.3334 C   0  0  0  0  0  0  0  0  0  0  0  0
  -22.6611  -26.2170   24.5784 C   0  0  0  0  0  0  0  0  0  0  0  0
  -27.9295  -25.5866   23.0115 C   0  0  0  0  0  0  0  0  0  0  0  0
  -29.9371  -20.1303   20.5677 C   0  0  0  0  0  0  0  0  0  0  0  0
  -24.4806  -12.3422   21.5028 C   0  0  0  0  0  0  0  0  0  0  0  0
  -31.4237  -18.5296   21.8851 C   0  0  0  0  0  0  0  0  0  0  0  0
  -22.6595  -29.4809   16.8104 C   0  0  0  0  0  0  0  0  0  0  0  0
  -21.4860  -27.7496   23.1190 C   0  0  0  0  0  0  0  0  0  0  0  0
  -22.9570  -28.7178   17.9557 C   0  0  0  0  0  0  0  0  0  0  0  0
  -22.5191  -27.5026   24.0343 C   0  0  0  0  0  0  0  0  0  0  0  0
  -23.9900  -11.4050   20.5936 C   0  0  0  0  0  0  0  0  0  0  0  0
  -21.8058  -15.9020   23.3328 C   0  0  0  0  0  0  0  0  0  0  0  0
  -21.6188  -18.2096   22.6421 C   0  0  0  0  0  0  0  0  0  0  0  0
  -22.4004  -17.1358   23.0684 C   0  0  0  0  0  0  0  0  0  0  0  0
  -26.5452  -12.4720   20.2548 C   0  0  0  0  0  0  0  0  0  0  0  0
  -28.7669  -22.6086   20.0473 C   0  0  0  0  0  0  0  0  0  0  0  0
  -21.7801  -25.1946   24.2268 C   0  0  0  0  0  0  0  0  0  0  0  0
  -27.6586  -24.5130   20.8642 C   0  0  0  0  0  0  0  0  0  0  0  0
  -26.5738  -25.9149   23.0184 C   0  0  0  0  0  0  0  0  0  0  0  0
  -28.4718  -24.8856   21.9344 C   0  0  0  0  0  0  0  0  0  0  0  0
  -30.5408  -18.8499   20.8364 C   0  0  0  0  0  0  0  0  0  0  0  0
  -31.7061  -17.1980   21.7016 C   0  0  0  0  0  0  0  0  0  0  0  0
  -23.6640  -12.7891   22.6605 C   0  0  0  0  0  0  0  0  0  0  0  0
  -31.9421  -19.3614   22.9316 C   0  0  0  0  0  0  0  0  0  0  0  0
  -23.5567  -29.5433   21.5070 C   0  0  0  0  0  0  0  0  0  0  0  0
  -23.8486  -31.0747   24.3516 C   0  0  0  0  0  0  0  0  0  0  0  0
  -23.1162  -21.5390   23.5614 C   0  0  0  0  0  0  0  0  0  0  0  0
  -23.5469  -30.9585   27.7490 C   0  0  0  0  0  0  0  0  0  0  0  0
  -28.7510  -12.7240   19.0643 C   0  0  0  0  0  0  0  0  0  0  0  0
  -23.2804  -30.8353   16.5763 C   0  0  0  0  0  0  0  0  0  0  0  0
  -21.2949  -29.1241   22.5387 C   0  0  0  0  0  0  0  0  0  0  0  0
  -23.4888  -28.5793   24.4451 C   0  0  0  0  0  0  0  0  0  0  0  0
  -23.8693  -31.4616   17.8377 C   0  0  0  0  0  0  0  0  0  0  0  0
  -32.0242  -13.8761   18.2668 C   0  0  0  0  0  0  0  0  0  0  0  0
  -24.7076  -30.4401   18.5996 C   0  0  0  0  0  0  0  0  0  0  0  0
  -32.0978  -15.2506   18.9358 C   0  0  0  0  0  0  0  0  0  0  0  0
  -30.6344  -13.5960   17.6978 C   0  0  0  0  0  0  0  0  0  0  0  0
  -29.6022  -15.1378   19.3184 C   0  0  0  0  0  0  0  0  0  0  0  0
  -23.8511  -29.2520   19.0536 C   0  0  1  0  0  0  0  0  0  0  0  0
  -22.5687  -29.9633   22.5583 C   0  0  1  0  0  0  0  0  0  0  0  0
  -30.9648  -15.4383   19.9638 C   0  0  2  0  0  0  0  0  0  0  0  0
  -22.6254  -10.8176   20.7514 C   0  0  0  0  0  0  0  0  0  0  0  0
  -23.8760  -17.3074   23.2421 C   0  0  0  0  0  0  0  0  0  0  0  0
  -23.8952  -32.3524   29.8064 C   0  0  0  0  0  0  0  0  0  0  0  0
  -26.8600  -30.6317   24.1390 C   0  0  0  0  0  0  0  0  0  0  0  0
  -27.0401  -31.1630   26.5789 C   0  0  0  0  0  0  0  0  0  0  0  0
  -26.1949  -32.8882   24.9877 C   0  0  0  0  0  0  0  0  0  0  0  0
  -20.6815  -30.8113   28.4748 C   0  0  0  0  0  0  0  0  0  0  0  0
  -22.6202  -14.7361   23.7901 C   0  0  0  0  0  0  0  0  0  0  0  0
  -22.2338  -19.5478   22.3505 C   0  0  0  0  0  0  0  0  0  0  0  0
  -23.3675  -22.0359   24.9765 C   0  0  0  0  0  0  0  0  0  0  0  0
  -23.2538  -23.5471   25.1043 C   0  0  0  0  0  0  0  0  0  1  0  0
  -24.7280  -30.9124   25.5679 C   0  0  1  0  0  0  0  0  0  0  0  0
  -22.9060  -31.9167   28.7367 C   0  0  2  0  0  0  0  0  0  0  0  0
  -26.1888  -31.3778   25.3093 C   0  0  0  0  0  0  0  0  0  0  0  0
  -30.2797  -17.8059   20.0452 N   0  0  0  0  0  0  0  0  0  0  0  0
  -31.0029  -16.8166   20.5970 N   0  0  0  0  0  0  0  0  0  0  0  0
  -23.2642  -29.9050   23.8455 N   0  0  0  0  0  0  0  0  0  0  0  0
  -29.6128  -13.7897   18.7291 N   0  0  0  0  0  0  0  0  0  0  0  0
  -32.4849  -16.3280   22.3790 N   0  0  0  0  0  0  0  0  0  0  0  0
  -31.5493  -20.7061   22.9728 N   0  0  0  0  0  0  0  0  0  0  0  0
  -27.8423  -13.0153   20.0811 N   0  0  0  0  0  0  0  0  0  0  0  0
  -23.3794  -14.1471   22.7176 N   0  0  0  0  0  0  0  0  0  0  0  0
  -23.0672  -29.6092   20.2165 N   0  0  0  0  0  0  0  0  0  0  0  0
  -22.5723  -20.2626   23.5602 N   0  0  0  0  0  0  0  0  0  0  0  0
  -24.0584  -31.6210   26.6532 N   0  0  0  0  0  0  0  0  0  0  0  0
  -21.7437  -31.2685   29.4074 N   0  3  0  0  0  0  0  0  0  0  0  0
  -23.3078  -11.9640   23.4977 O   0  0  0  0  0  0  0  0  0  0  0  0
  -32.7432  -18.9291   23.7947 O   0  0  0  0  0  0  0  0  0  0  0  0
  -24.6804  -29.1872   21.8418 O   0  0  0  0  0  0  0  0  0  0  0  0
  -23.6804  -32.1990   23.8726 O   0  0  0  0  0  0  0  0  0  0  0  0
  -23.3705  -22.2020   22.5596 O   0  0  0  0  0  0  0  0  0  0  0  0
  -23.5927  -29.7441   27.9330 O   0  0  0  0  0  0  0  0  0  0  0  0
  -28.8325  -11.6247   18.5103 O   0  0  0  0  0  0  0  0  0  0  0  0
  -28.1957  -23.8178   19.7937 O   0  0  0  0  0  0  0  0  0  0  0  0
  -21.9288  -23.9530   24.7636 O   0  0  0  0  0  0  0  0  0  1  0  0
  -26.0532  -26.5893   24.0519 F   0  0  0  0  0  0  0  0  0  0  0  0
  -29.7752  -24.5740   21.9329 F   0  0  0  0  0  0  0  0  0  0  0  0
  1  2  1  0  0  0  0
  1  6  2  0  0  0  0
  2  7  2  0  0  0  0
  3  9  1  0  0  0  0
  3 10  2  0  0  0  0
  4 13  2  0  0  0  0
  4 21  1  0  0  0  0
  5 14  1  0  0  0  0
  5 21  2  0  0  0  0
  6 24  1  0  0  0  0
  7 26  1  0  0  0  0
  8 15  2  0  0  0  0
  8 25  1  0  0  0  0
  9 29  2  0  0  0  0
 10 30  1  0  0  0  0
 11 12  2  0  0  0  0
 11 28  1  0  0  0  0
 12 32  1  0  0  0  0
 13 33  1  0  0  0  0
 14 33  2  0  0  0  0
 15 34  1  0  0  0  0
 16 17  2  0  0  0  0
 16 35  1  0  0  0  0
 17 36  1  0  0  0  0
 18 22  1  0  0  0  0
 18 32  2  0  0  0  0
 19 27  1  0  0  0  0
 19 34  2  0  0  0  0
 20 36  2  0  0  0  0
 20 37  1  0  0  0  0
 21 38  1  0  0  0  0
 22 28  2  0  0  0  0
 22 40  1  0  0  0  0
 23 38  1  0  0  0  0
 23 39  2  0  0  0  0
 23 41  1  0  0  0  0
 24 26  2  0  0  0  0
 24 47  1  0  0  0  0
 25 27  2  0  0  0  0
 25 48  1  0  0  0  0
 26 56  1  0  0  0  0
 27 49  1  0  0  0  0
 28 59  1  0  0  0  0
 29 31  1  0  0  0  0
 29 66  1  0  0  0  0
 30 31  2  0  0  0  0
 30 67  1  0  0  0  0
 31 60  1  0  0  0  0
 32 79  1  0  0  0  0
 33 92  1  0  0  0  0
 34 93  1  0  0  0  0
 35 37  2  0  0  0  0
 35 92  1  0  0  0  0
 36 94  1  0  0  0  0
 37 95  1  0  0  0  0
 38 73  2  0  0  0  0
 39 74  1  0  0  0  0
 39 77  1  0  0  0  0
 40 80  1  0  0  0  0
 40 85  2  0  0  0  0
 41 78  1  0  0  0  0
 41 86  2  0  0  0  0
 42 57  1  0  0  0  0
 42 81  1  0  0  0  0
 42 87  2  0  0  0  0
 43 70  1  0  0  0  0
 43 75  1  0  0  0  0
 43 88  2  0  0  0  0
 44 68  1  0  0  0  0
 44 82  1  0  0  0  0
 44 89  2  0  0  0  0
 45 71  1  0  0  0  0
 45 83  1  0  0  0  0
 45 90  2  0  0  0  0
 46 76  1  0  0  0  0
 46 79  1  0  0  0  0
 46 91  2  0  0  0  0
 47 50  1  0  0  0  0
 48 57  1  0  0  0  0
 49 75  1  0  0  0  0
 50 52  1  0  0  0  0
 51 53  1  0  0  0  0
 51 54  1  0  0  0  0
 52 56  1  0  0  0  0
 53 58  1  0  0  0  0
 54 76  1  0  0  0  0
 55 58  1  0  0  0  0
 55 76  1  0  0  0  0
 56 81  1  0  0  0  0
 57 75  1  0  0  0  0
 58 74  1  0  0  0  0
 61 71  1  0  0  0  0
 62 72  1  0  0  0  0
 63 72  1  0  0  0  0
 64 72  1  0  0  0  0
 65 84  1  0  0  0  0
 66 80  1  0  0  0  0
 67 82  1  0  0  0  0
 68 69  1  0  0  0  0
 69 93  1  0  0  0  0
 70 72  1  0  0  0  0
 70 83  1  0  0  0  0
 71 84  1  0  0  0  0
 73 74  1  0  0  0  0
M  CHG  1  84   1
M  ISO  4  46 100  69 101  79 100  93 101
M  END
> <Batch ID>
0057

> <Smiles>
CNC(C)C(=O)NC(C(=O)N1Cc2cc([101O:1][101CH2:1]CC(=O)NCc3cccc(CNC(=O)c4cc([100NH:0][100C:0](=O)N5CCCC(n6nc(-c7ccc(Oc8ccc(F)cc8F)cc7)c(C(N)=O)c6N)C5)ccc4C)c3C)ccc2CC1C(=O)NC1CCCc2ccccc21)C(C)(C)C

> <Shape>
0.235

> <Color>
0.066

> <Negative vol penalty>
0.000

$$$$

  -OEChem-04042322553D

 89 98  0     1  0  0  0  0  0999 V2000
  -32.3391  -14.4420   20.9578 C   0  0  0  0  0  0  0  0  0  0  0  0
  -31.5090  -15.5324   21.1970 C   0  0  0  0  0  0  0  0  0  0  0  0
  -29.0019  -23.1344   18.4699 C   0  0  0  0  0  0  0  0  0  0  0  0
  -26.9664  -22.6039   19.6583 C   0  0  0  0  0  0  0  0  0  0  0  0
  -31.8294  -13.3021   20.3374 C   0  0  0  0  0  0  0  0  0  0  0  0
  -30.1688  -15.4841   20.8148 C   0  0  0  0  0  0  0  0  0  0  0  0
  -25.4182  -18.0336   23.7195 C   0  0  0  0  0  0  0  0  0  0  0  0
  -29.5710  -21.9400   18.9114 C   0  0  0  0  0  0  0  0  0  0  0  0
  -27.5355  -21.4095   20.0999 C   0  0  0  0  0  0  0  0  0  0  0  0
  -24.7198  -19.2222   23.5116 C   0  0  0  0  0  0  0  0  0  0  0  0
  -29.4214  -18.6605   18.1019 C   0  0  0  0  0  0  0  0  0  0  0  0
  -30.1126  -17.8879   17.1688 C   0  0  0  0  0  0  0  0  0  0  0  0
  -23.0618  -18.0183   22.2386 C   0  0  0  0  0  0  0  0  0  0  0  0
  -20.2866  -26.5194   21.3771 C   0  0  0  0  0  0  0  0  0  0  0  0
  -20.6276  -28.3511   22.9152 C   0  0  0  0  0  0  0  0  0  0  0  0
  -32.1228  -18.0853   18.4945 C   0  0  0  0  0  0  0  0  0  0  0  0
  -27.6996  -23.4664   18.8433 C   0  0  0  0  0  0  0  0  0  0  0  0
  -26.8950  -25.0980   17.0550 C   0  0  0  0  0  0  0  0  0  0  0  0
  -30.4800  -13.2361   19.9562 C   0  0  0  0  0  0  0  0  0  0  0  0
  -24.9486  -16.8282   23.1784 C   0  0  0  0  0  0  0  0  0  0  0  0
  -29.6409  -14.3428   20.1876 C   0  0  0  0  0  0  0  0  0  0  0  0
  -23.7547  -16.8153   22.4432 C   0  0  0  0  0  0  0  0  0  0  0  0
  -19.1128  -26.1751   22.0474 C   0  0  0  0  0  0  0  0  0  0  0  0
  -18.6964  -26.9188   23.1516 C   0  0  0  0  0  0  0  0  0  0  0  0
  -21.0440  -27.6074   21.8110 C   0  0  0  0  0  0  0  0  0  0  0  0
  -28.8379  -21.0775   19.7264 C   0  0  0  0  0  0  0  0  0  0  0  0
  -23.5429  -19.2152   22.7686 C   0  0  0  0  0  0  0  0  0  0  0  0
  -30.0808  -19.1456   19.2314 C   0  0  0  0  0  0  0  0  0  0  0  0
  -31.4633  -17.6003   17.3651 C   0  0  0  0  0  0  0  0  0  0  0  0
  -19.4538  -28.0068   23.5855 C   0  0  0  0  0  0  0  0  0  0  0  0
  -31.4314  -18.8579   19.4277 C   0  0  0  0  0  0  0  0  0  0  0  0
  -27.1113  -24.7004   18.3880 C   0  0  0  0  0  0  0  0  0  0  0  0
  -26.3157  -26.3392   17.1566 C   0  0  0  0  0  0  0  0  0  0  0  0
  -19.3377  -23.0846   20.3993 C   0  0  0  0  0  0  0  0  0  0  0  0
  -27.1912  -24.4072   15.8340 C   0  0  0  0  0  0  0  0  0  0  0  0
  -26.0762  -14.7198   21.0838 C   0  0  0  0  0  0  0  0  0  0  0  0
  -23.4434  -13.0351   21.9516 C   0  0  0  0  0  0  0  0  0  0  0  0
  -20.2829  -13.0588   23.2390 C   0  0  0  0  0  0  0  0  0  0  0  0
  -23.1036  -29.0074   21.4307 C   0  0  0  0  0  0  0  0  0  0  0  0
  -29.9859  -12.0008   19.2458 C   0  0  0  0  0  0  0  0  0  0  0  0
  -25.6994  -15.5502   23.4343 C   0  0  0  0  0  0  0  0  0  0  0  0
  -23.1974  -15.5443   21.8580 C   0  0  0  0  0  0  0  0  0  0  0  0
  -20.0837  -21.7683   20.5103 C   0  0  0  0  0  0  0  0  0  0  0  0
  -28.4641  -11.8861   19.2104 C   0  0  0  0  0  0  0  0  0  0  0  0
  -26.1571  -30.1747   20.0199 C   0  0  0  0  0  0  0  0  0  0  0  0
  -27.8381  -13.2153   18.8003 C   0  0  0  0  0  0  0  0  0  0  0  0
  -26.7257  -28.9411   19.3148 C   0  0  0  0  0  0  0  0  0  0  0  0
  -20.2744  -22.0353   22.9602 C   0  0  0  0  0  0  0  0  0  0  0  0
  -25.4537  -29.8079   21.3254 C   0  0  0  0  0  0  0  0  0  0  0  0
  -19.7429  -23.4540   22.8577 C   0  0  0  0  0  0  0  0  0  0  0  0
  -24.9943  -27.5326   20.5003 C   0  0  0  0  0  0  0  0  0  0  0  0
  -28.1756  -14.3189   19.8101 C   0  0  1  0  0  0  0  0  0  0  0  0
  -25.4026  -14.4661   22.4028 C   0  0  1  0  0  0  0  0  0  0  0  0
  -21.0412  -21.6850   21.6918 C   0  0  1  0  0  0  0  0  0  0  0  0
  -25.6558  -27.8443   19.1479 C   0  0  2  0  0  0  0  0  0  0  0  0
  -16.1912  -27.0200   23.1353 C   0  0  0  0  0  0  0  0  0  0  0  0
  -18.3692  -11.5323   23.7909 C   0  0  0  0  0  0  0  0  0  0  0  0
  -22.7351  -12.8561   18.9892 C   0  0  0  0  0  0  0  0  0  0  0  0
  -20.4154  -12.1903   19.6555 C   0  0  0  0  0  0  0  0  0  0  0  0
  -22.3532  -10.7498   20.2822 C   0  0  0  0  0  0  0  0  0  0  0  0
  -20.3991  -13.7616   26.1116 C   0  0  0  0  0  0  0  0  0  0  0  0
  -17.4421  -26.5673   23.8823 C   0  0  0  0  0  0  0  0  0  0  0  0
  -18.3138  -25.0004   21.5619 C   0  0  0  0  0  0  0  0  0  0  0  0
  -21.6614  -20.2938   21.7929 C   0  0  0  0  0  0  0  0  0  1  0  0
  -22.0159  -12.9578   21.4667 C   0  0  1  0  0  0  0  0  0  0  0  0
  -19.6264  -12.2103   24.3130 C   0  0  2  0  0  0  0  0  0  0  0  0
  -21.8912  -12.2129   20.1077 C   0  0  0  0  0  0  0  0  0  0  0  0
  -26.7028  -25.6150   19.2716 N   0  0  0  0  0  0  0  0  0  0  0  0
  -26.2241  -26.5996   18.4922 N   0  0  0  0  0  0  0  0  0  0  0  0
  -19.0877  -23.7662   21.5884 N   0  0  0  0  0  0  0  0  0  0  0  0
  -23.9711  -14.3218   22.1304 N   0  0  0  0  0  0  0  0  0  0  0  0
  -24.4513  -28.7667   21.0892 N   0  0  0  0  0  0  0  0  0  0  0  0
  -25.8810  -27.2224   16.2328 N   0  0  0  0  0  0  0  0  0  0  0  0
  -27.7863  -23.1406   15.9105 N   0  0  0  0  0  0  0  0  0  0  0  0
  -22.2363  -27.9576   21.1301 N   0  0  0  0  0  0  0  0  0  0  0  0
  -27.3501  -14.1923   20.9920 N   0  0  0  0  0  0  0  0  0  0  0  0
  -21.2486  -12.3548   22.5512 N   0  0  0  0  0  0  0  0  0  0  0  0
  -19.2538  -13.0537   25.4838 N   0  3  0  0  0  0  0  0  0  0  0  0
  -18.9237  -23.4459   19.2942 O   0  0  0  0  0  0  0  0  0  0  0  0
  -26.9508  -24.9055   14.7083 O   0  0  0  0  0  0  0  0  0  0  0  0
  -25.4834  -15.3464   20.2134 O   0  0  0  0  0  0  0  0  0  0  0  0
  -24.0650  -11.9924   22.1707 O   0  0  0  0  0  0  0  0  0  0  0  0
  -19.9679  -14.2281   23.0287 O   0  0  0  0  0  0  0  0  0  0  0  0
  -22.7409  -30.0773   21.9264 O   0  0  0  0  0  0  0  0  0  0  0  0
  -29.3928  -19.9118   20.1573 O   0  0  0  0  0  0  0  0  0  0  0  0
  -22.8596  -20.3740   22.5636 O   0  0  0  0  0  0  0  0  0  1  0  0
  -32.1267  -16.8570   16.4697 F   0  0  0  0  0  0  0  0  0  0  0  0
  -19.0611  -28.7296   24.6439 F   0  0  0  0  0  0  0  0  0  0  0  0
  -32.0700  -19.3201   20.5114 F   0  0  0  0  0  0  0  0  0  0  0  0
  1  2  1  0  0  0  0
  1  5  2  0  0  0  0
  2  6  2  0  0  0  0
  3  8  2  0  0  0  0
  3 17  1  0  0  0  0
  4  9  1  0  0  0  0
  4 17  2  0  0  0  0
  5 19  1  0  0  0  0
  6 21  1  0  0  0  0
  7 10  2  0  0  0  0
  7 20  1  0  0  0  0
  8 26  1  0  0  0  0
  9 26  2  0  0  0  0
 10 27  1  0  0  0  0
 11 12  2  0  0  0  0
 11 28  1  0  0  0  0
 12 29  1  0  0  0  0
 13 22  1  0  0  0  0
 13 27  2  0  0  0  0
 14 23  1  0  0  0  0
 14 25  2  0  0  0  0
 15 25  1  0  0  0  0
 15 30  2  0  0  0  0
 16 29  2  0  0  0  0
 16 31  1  0  0  0  0
 17 32  1  0  0  0  0
 18 32  1  0  0  0  0
 18 33  2  0  0  0  0
 18 35  1  0  0  0  0
 19 21  2  0  0  0  0
 19 40  1  0  0  0  0
 20 22  2  0  0  0  0
 20 41  1  0  0  0  0
 21 52  1  0  0  0  0
 22 42  1  0  0  0  0
 23 24  2  0  0  0  0
 23 63  1  0  0  0  0
 24 30  1  0  0  0  0
 24 62  1  0  0  0  0
 25 75  1  0  0  0  0
 26 85  1  0  0  0  0
 27 86  1  0  0  0  0
 28 31  2  0  0  0  0
 28 85  1  0  0  0  0
 29 87  1  0  0  0  0
 30 88  1  0  0  0  0
 31 89  1  0  0  0  0
 32 68  2  0  0  0  0
 33 69  1  0  0  0  0
 33 73  1  0  0  0  0
 34 43  1  0  0  0  0
 34 70  1  0  0  0  0
 34 79  2  0  0  0  0
 35 74  1  0  0  0  0
 35 80  2  0  0  0  0
 36 53  1  0  0  0  0
 36 76  1  0  0  0  0
 36 81  2  0  0  0  0
 37 65  1  0  0  0  0
 37 71  1  0  0  0  0
 37 82  2  0  0  0  0
 38 66  1  0  0  0  0
 38 77  1  0  0  0  0
 38 83  2  0  0  0  0
 39 72  1  0  0  0  0
 39 75  1  0  0  0  0
 39 84  2  0  0  0  0
 40 44  1  0  0  0  0
 41 53  1  0  0  0  0
 42 71  1  0  0  0  0
 43 54  1  0  0  0  0
 44 46  1  0  0  0  0
 45 47  1  0  0  0  0
 45 49  1  0  0  0  0
 46 52  1  0  0  0  0
 47 55  1  0  0  0  0
 48 50  1  0  0  0  0
 48 54  1  0  0  0  0
 49 72  1  0  0  0  0
 50 70  1  0  0  0  0
 51 55  1  0  0  0  0
 51 72  1  0  0  0  0
 52 76  1  0  0  0  0
 53 71  1  0  0  0  0
 54 64  1  0  0  0  0
 55 69  1  0  0  0  0
 56 62  1  0  0  0  0
 57 66  1  0  0  0  0
 58 67  1  0  0  0  0
 59 67  1  0  0  0  0
 60 67  1  0  0  0  0
 61 78  1  0  0  0  0
 63 70  1  0  0  0  0
 64 86  1  0  0  0  0
 65 67  1  0  0  0  0
 65 77  1  0  0  0  0
 66 78  1  0  0  0  0
 68 69  1  0  0  0  0
M  CHG  1  78   1
M  ISO  4  39 100  64 101  75 100  86 101
M  END
> <Batch ID>
0057

> <Smiles>
CCc1c(F)cc([100NH:0][100C:0](=O)N2CCCC(n3nc(-c4ccc(Oc5ccc(F)cc5F)cc4)c(C(N)=O)c3N)C2)cc1CN1CCC([101CH2:1][101O:1]c2ccc3c(c2)CN(C(=O)C(NC(=O)C(C)NC)C(C)(C)C)C(C(=O)NC2CCCc4ccccc42)C3)CC1=O

> <Shape>
0.242

> <Color>
0.078

> <Negative vol penalty>
0.000

$$$$

  -OEChem-04042322553D

 85 93  0     1  0  0  0  0  0999 V2000
  -17.7579  -25.7133   22.7549 C   0  0  0  0  0  0  0  0  0  0  0  0
  -19.0293  -25.4017   22.2838 C   0  0  0  0  0  0  0  0  0  0  0  0
  -29.4438  -20.3578   14.8603 C   0  0  0  0  0  0  0  0  0  0  0  0
  -24.9470  -13.5957   21.9448 C   0  0  0  0  0  0  0  0  0  0  0  0
  -26.2172  -13.4282   19.8965 C   0  0  0  0  0  0  0  0  0  0  0  0
  -17.3289  -27.0398   22.7747 C   0  0  0  0  0  0  0  0  0  0  0  0
  -19.8719  -26.4163   21.8311 C   0  0  0  0  0  0  0  0  0  0  0  0
  -25.9673  -26.6561   22.3745 C   0  0  0  0  0  0  0  0  0  0  0  0
  -28.9617  -21.5681   14.3622 C   0  0  0  0  0  0  0  0  0  0  0  0
  -29.2258  -20.0165   16.1952 C   0  0  0  0  0  0  0  0  0  0  0  0
  -24.1159  -12.5616   21.5140 C   0  0  0  0  0  0  0  0  0  0  0  0
  -25.3861  -12.3941   19.4657 C   0  0  0  0  0  0  0  0  0  0  0  0
  -27.0006  -26.3477   21.4908 C   0  0  0  0  0  0  0  0  0  0  0  0
  -25.0298   -9.0831   20.0411 C   0  0  0  0  0  0  0  0  0  0  0  0
  -25.6346   -7.9595   19.4781 C   0  0  0  0  0  0  0  0  0  0  0  0
  -27.1473  -28.6718   20.8610 C   0  0  0  0  0  0  0  0  0  0  0  0
  -28.0437  -22.0963   16.5337 C   0  0  0  0  0  0  0  0  0  0  0  0
  -24.4280   -8.3412   17.4201 C   0  0  0  0  0  0  0  0  0  0  0  0
  -25.9976  -14.0290   21.1360 C   0  0  0  0  0  0  0  0  0  0  0  0
  -28.0441  -14.9792   22.3264 C   0  0  0  0  0  0  0  0  0  0  0  0
  -18.1703  -28.0722   22.3310 C   0  0  0  0  0  0  0  0  0  0  0  0
  -25.5081  -27.9751   22.5003 C   0  0  0  0  0  0  0  0  0  0  0  0
  -19.4532  -27.7576   21.8437 C   0  0  0  0  0  0  0  0  0  0  0  0
  -26.1098  -28.9946   21.7488 C   0  0  0  0  0  0  0  0  0  0  0  0
  -28.2617  -22.4374   15.1989 C   0  0  0  0  0  0  0  0  0  0  0  0
  -28.5258  -20.8858   17.0319 C   0  0  0  0  0  0  0  0  0  0  0  0
  -24.3355  -11.9608   20.2745 C   0  0  0  0  0  0  0  0  0  0  0  0
  -27.5889  -27.3552   20.7317 C   0  0  0  0  0  0  0  0  0  0  0  0
  -24.1239   -9.8358   19.2937 C   0  0  0  0  0  0  0  0  0  0  0  0
  -25.3338   -7.5885   18.1676 C   0  0  0  0  0  0  0  0  0  0  0  0
  -23.8231   -9.4648   17.9832 C   0  0  0  0  0  0  0  0  0  0  0  0
  -26.8561  -15.0975   21.5803 C   0  0  0  0  0  0  0  0  0  0  0  0
  -28.4778  -16.2723   22.4886 C   0  0  0  0  0  0  0  0  0  0  0  0
  -28.5499  -25.5268   16.7983 C   0  0  0  0  0  0  0  0  0  0  0  0
  -29.2074  -25.8338   17.9254 C   0  0  0  0  0  0  0  0  0  0  0  0
  -28.6971  -13.8054   22.8278 C   0  0  0  0  0  0  0  0  0  0  0  0
  -29.2477  -25.6111   15.4828 C   0  0  0  0  0  0  0  0  0  0  0  0
  -22.7376  -29.4447   21.9821 C   0  0  0  0  0  0  0  0  0  0  0  0
  -24.2819  -31.9782   23.2933 C   0  0  0  0  0  0  0  0  0  0  0  0
  -27.2455  -33.5185   23.9945 C   0  0  0  0  0  0  0  0  0  0  0  0
  -27.6291  -21.2867   19.3517 C   0  0  0  0  0  0  0  0  0  0  0  0
  -17.6448  -29.4859   22.3273 C   0  0  0  0  0  0  0  0  0  0  0  0
  -24.4106  -28.2955   23.4776 C   0  0  0  0  0  0  0  0  0  0  0  0
  -25.6671  -30.4298   21.8619 C   0  0  0  0  0  0  0  0  0  0  0  0
  -18.7377  -30.5415   22.1800 C   0  0  0  0  0  0  0  0  0  0  0  0
  -26.8393  -20.7626   22.7837 C   0  0  0  0  0  0  0  0  0  0  0  0
  -19.7010  -30.1599   21.0605 C   0  0  0  0  0  0  0  0  0  0  0  0
  -26.8681  -19.2398   22.9339 C   0  0  0  0  0  0  0  0  0  0  0  0
  -26.2717  -21.1884   21.4308 C   0  0  0  0  0  0  0  0  0  0  0  0
  -26.9443  -19.0471   20.4151 C   0  0  0  0  0  0  0  0  0  0  0  0
  -20.4056  -28.8329   21.3673 C   0  0  1  0  0  0  0  0  0  0  0  0
  -23.6754  -29.5907   23.1470 C   0  0  1  0  0  0  0  0  0  0  0  0
  -27.5684  -18.5686   21.7362 C   0  0  2  0  0  0  0  0  0  0  0  0
  -28.1865  -35.5964   25.0405 C   0  0  0  0  0  0  0  0  0  0  0  0
  -23.5057  -33.5757   20.8122 C   0  0  0  0  0  0  0  0  0  0  0  0
  -25.2286  -35.2755   21.4530 C   0  0  0  0  0  0  0  0  0  0  0  0
  -23.2971  -34.8281   22.9669 C   0  0  0  0  0  0  0  0  0  0  0  0
  -29.4631  -24.7273   13.1917 C   0  0  0  0  0  0  0  0  0  0  0  0
  -28.6952  -31.9646   26.0542 C   0  0  0  0  0  0  0  0  0  0  0  0
  -27.7431  -23.7401   14.6622 C   0  0  0  0  0  0  0  0  0  0  0  0
  -28.5878  -25.7551   19.2833 C   0  0  0  0  0  0  0  0  0  1  0  0
  -25.1344  -33.1038   22.7592 C   0  0  1  0  0  0  0  0  0  0  0  0
  -27.7756  -34.1501   25.2690 C   0  0  2  0  0  0  0  0  0  0  0  0
  -24.2987  -34.1685   21.9940 C   0  0  0  0  0  0  0  0  0  0  0  0
  -26.5544  -16.3656   21.2889 N   0  0  0  0  0  0  0  0  0  0  0  0
  -27.5589  -17.0560   21.8548 N   0  0  0  0  0  0  0  0  0  0  0  0
  -24.5862  -30.6916   22.8266 N   0  0  0  0  0  0  0  0  0  0  0  0
  -26.9866  -20.5161   20.3437 N   0  0  0  0  0  0  0  0  0  0  0  0
  -29.5517  -16.8040   23.1103 N   0  0  0  0  0  0  0  0  0  0  0  0
  -28.1161  -12.5562   22.5706 N   0  0  0  0  0  0  0  0  0  0  0  0
  -28.3039  -20.5386   18.3876 N   0  0  0  0  0  0  0  0  0  0  0  0
  -21.4653  -29.0346   22.3321 N   0  0  0  0  0  0  0  0  0  0  0  0
  -25.8745  -33.6320   23.9001 N   0  0  0  0  0  0  0  0  0  0  0  0
  -28.8093  -24.7258   14.4940 N   0  0  0  0  0  0  0  0  0  0  0  0
  -28.9620  -33.3973   25.7656 N   0  3  0  0  0  0  0  0  0  0  0  0
  -29.7554  -13.8639   23.4986 O   0  0  0  0  0  0  0  0  0  0  0  0
  -30.1700  -26.4135   15.3305 O   0  0  0  0  0  0  0  0  0  0  0  0
  -23.1383  -29.6877   20.8498 O   0  0  0  0  0  0  0  0  0  0  0  0
  -23.3838  -32.2304   24.1004 O   0  0  0  0  0  0  0  0  0  0  0  0
  -27.9750  -32.9815   23.1638 O   0  0  0  0  0  0  0  0  0  0  0  0
  -27.6068  -22.5200   19.3723 O   0  0  0  0  0  0  0  0  0  0  0  0
  -23.5248  -10.9516   19.8539 O   0  0  0  0  0  0  0  0  0  0  0  0
  -28.5972  -27.0569   19.8680 O   0  0  0  0  0  0  0  0  0  1  0  0
  -25.9159   -6.5103   17.6265 F   0  0  0  0  0  0  0  0  0  0  0  0
  -22.9545  -10.1847   17.2598 F   0  0  0  0  0  0  0  0  0  0  0  0
  1  2  1  0  0  0  0
  1  6  2  0  0  0  0
  2  7  2  0  0  0  0
  3  9  2  0  0  0  0
  3 10  1  0  0  0  0
  4 11  2  0  0  0  0
  4 19  1  0  0  0  0
  5 12  1  0  0  0  0
  5 19  2  0  0  0  0
  6 21  1  0  0  0  0
  7 23  1  0  0  0  0
  8 13  2  0  0  0  0
  8 22  1  0  0  0  0
  9 25  1  0  0  0  0
 10 26  2  0  0  0  0
 11 27  1  0  0  0  0
 12 27  2  0  0  0  0
 13 28  1  0  0  0  0
 14 15  2  0  0  0  0
 14 29  1  0  0  0  0
 15 30  1  0  0  0  0
 16 24  1  0  0  0  0
 16 28  2  0  0  0  0
 17 25  2  0  0  0  0
 17 26  1  0  0  0  0
 18 30  2  0  0  0  0
 18 31  1  0  0  0  0
 19 32  1  0  0  0  0
 20 32  1  0  0  0  0
 20 33  2  0  0  0  0
 20 36  1  0  0  0  0
 21 23  2  0  0  0  0
 21 42  1  0  0  0  0
 22 24  2  0  0  0  0
 22 43  1  0  0  0  0
 23 51  1  0  0  0  0
 24 44  1  0  0  0  0
 25 60  1  0  0  0  0
 26 71  1  0  0  0  0
 27 82  1  0  0  0  0
 28 83  1  0  0  0  0
 29 31  2  0  0  0  0
 29 82  1  0  0  0  0
 30 84  1  0  0  0  0
 31 85  1  0  0  0  0
 32 65  2  0  0  0  0
 33 66  1  0  0  0  0
 33 69  1  0  0  0  0
 34 35  2  0  0  0  0
 34 37  1  0  0  0  0
 35 61  1  0  0  0  0
 36 70  1  0  0  0  0
 36 76  2  0  0  0  0
 37 74  1  0  0  0  0
 37 77  2  0  0  0  0
 38 52  1  0  0  0  0
 38 72  1  0  0  0  0
 38 78  2  0  0  0  0
 39 62  1  0  0  0  0
 39 67  1  0  0  0  0
 39 79  2  0  0  0  0
 40 63  1  0  0  0  0
 40 73  1  0  0  0  0
 40 80  2  0  0  0  0
 41 68  1  0  0  0  0
 41 71  1  0  0  0  0
 41 81  2  0  0  0  0
 42 45  1  0  0  0  0
 43 52  1  0  0  0  0
 44 67  1  0  0  0  0
 45 47  1  0  0  0  0
 46 48  1  0  0  0  0
 46 49  1  0  0  0  0
 47 51  1  0  0  0  0
 48 53  1  0  0  0  0
 49 68  1  0  0  0  0
 50 53  1  0  0  0  0
 50 68  1  0  0  0  0
 51 72  1  0  0  0  0
 52 67  1  0  0  0  0
 53 66  1  0  0  0  0
 54 63  1  0  0  0  0
 55 64  1  0  0  0  0
 56 64  1  0  0  0  0
 57 64  1  0  0  0  0
 58 74  1  0  0  0  0
 59 75  1  0  0  0  0
 60 74  1  0  0  0  0
 61 83  1  0  0  0  0
 62 64  1  0  0  0  0
 62 73  1  0  0  0  0
 63 75  1  0  0  0  0
 65 66  1  0  0  0  0
M  CHG  1  75   1
M  ISO  4  41 100  61 101  71 100  83 101
M  END
> <Batch ID>
0057

> <Smiles>
CNC(C)C(=O)NC(C(=O)N1Cc2cc([101O:1][101CH2:1]C=CC(=O)N(C)Cc3cccc([100NH:0][100C:0](=O)N4CCCC(n5nc(-c6ccc(Oc7ccc(F)cc7F)cc6)c(C(N)=O)c5N)C4)c3)ccc2CC1C(=O)NC1CCCc2ccccc21)C(C)(C)C

> <Shape>
0.233

> <Color>
0.096

> <Negative vol penalty>
0.000

$$$$

  -OEChem-04042322553D

 85 93  0     1  0  0  0  0  0999 V2000
  -19.2195  -32.9094   23.4492 C   0  0  0  0  0  0  0  0  0  0  0  0
  -20.3361  -32.2826   23.9929 C   0  0  0  0  0  0  0  0  0  0  0  0
  -32.2044  -25.3905   22.0537 C   0  0  0  0  0  0  0  0  0  0  0  0
  -26.2891  -12.8111   21.6613 C   0  0  0  0  0  0  0  0  0  0  0  0
  -26.0989  -13.5397   19.3657 C   0  0  0  0  0  0  0  0  0  0  0  0
  -31.3110  -26.4271   22.3236 C   0  0  0  0  0  0  0  0  0  0  0  0
  -18.1001  -32.1558   23.0987 C   0  0  0  0  0  0  0  0  0  0  0  0
  -20.3336  -30.9018   24.1874 C   0  0  0  0  0  0  0  0  0  0  0  0
  -24.6430  -28.7181   22.6692 C   0  0  0  0  0  0  0  0  0  0  0  0
  -31.7735  -24.2625   21.3553 C   0  0  0  0  0  0  0  0  0  0  0  0
  -25.0728  -12.1378   21.5484 C   0  0  0  0  0  0  0  0  0  0  0  0
  -24.8826  -12.8664   19.2527 C   0  0  0  0  0  0  0  0  0  0  0  0
  -25.7452  -28.8280   23.5159 C   0  0  0  0  0  0  0  0  0  0  0  0
  -23.9484   -9.2270   20.2461 C   0  0  0  0  0  0  0  0  0  0  0  0
  -23.8744   -7.9318   20.7587 C   0  0  0  0  0  0  0  0  0  0  0  0
  -29.5558  -25.2078   21.1968 C   0  0  0  0  0  0  0  0  0  0  0  0
  -25.3340  -26.5953   24.3312 C   0  0  0  0  0  0  0  0  0  0  0  0
  -22.1204   -8.6290   22.2669 C   0  0  0  0  0  0  0  0  0  0  0  0
  -26.8022  -13.5121   20.5700 C   0  0  0  0  0  0  0  0  0  0  0  0
  -29.9867  -26.3358   21.8952 C   0  0  0  0  0  0  0  0  0  0  0  0
  -29.3419  -13.6966   20.4172 C   0  0  0  0  0  0  0  0  0  0  0  0
  -18.0874  -30.7639   23.2800 C   0  0  0  0  0  0  0  0  0  0  0  0
  -23.8702  -27.5480   22.6551 C   0  0  0  0  0  0  0  0  0  0  0  0
  -19.2124  -30.1291   23.8402 C   0  0  0  0  0  0  0  0  0  0  0  0
  -24.2240  -26.4720   23.4816 C   0  0  0  0  0  0  0  0  0  0  0  0
  -30.4492  -24.1712   20.9269 C   0  0  0  0  0  0  0  0  0  0  0  0
  -24.3695  -12.1654   20.3441 C   0  0  0  0  0  0  0  0  0  0  0  0
  -26.0892  -27.7677   24.3491 C   0  0  0  0  0  0  0  0  0  0  0  0
  -23.1085  -10.2232   20.7440 C   0  0  0  0  0  0  0  0  0  0  0  0
  -22.9604   -7.6328   21.7690 C   0  0  0  0  0  0  0  0  0  0  0  0
  -22.1945   -9.9242   21.7543 C   0  0  0  0  0  0  0  0  0  0  0  0
  -28.0583  -14.2083   20.6862 C   0  0  0  0  0  0  0  0  0  0  0  0
  -30.1909  -14.7442   20.6785 C   0  0  0  0  0  0  0  0  0  0  0  0
  -29.0357  -27.4404   22.1824 C   0  0  0  0  0  0  0  0  0  0  0  0
  -29.7320  -12.3910   19.9710 C   0  0  0  0  0  0  0  0  0  0  0  0
  -20.8395  -26.8534   23.3151 C   0  0  0  0  0  0  0  0  0  0  0  0
  -21.6754  -23.9239   22.2009 C   0  0  0  0  0  0  0  0  0  0  0  0
  -24.1482  -21.6495   21.6014 C   0  0  0  0  0  0  0  0  0  0  0  0
  -29.3768  -20.5904   20.5600 C   0  0  0  0  0  0  0  0  0  0  0  0
  -16.8365  -29.9975   22.9299 C   0  0  0  0  0  0  0  0  0  0  0  0
  -22.7002  -27.4351   21.7166 C   0  0  0  0  0  0  0  0  0  0  0  0
  -23.4391  -25.1866   23.4895 C   0  0  0  0  0  0  0  0  0  0  0  0
  -17.0559  -28.4908   22.8203 C   0  0  0  0  0  0  0  0  0  0  0  0
  -30.5690  -18.6718   23.3875 C   0  0  0  0  0  0  0  0  0  0  0  0
  -17.8680  -27.9819   24.0070 C   0  0  0  0  0  0  0  0  0  0  0  0
  -30.1757  -17.2511   22.9786 C   0  0  0  0  0  0  0  0  0  0  0  0
  -29.5106  -19.6836   22.9584 C   0  0  0  0  0  0  0  0  0  0  0  0
  -28.7959  -18.2407   21.0927 C   0  0  0  0  0  0  0  0  0  0  0  0
  -19.2572  -28.6301   24.0435 C   0  0  1  0  0  0  0  0  0  0  0  0
  -21.6790  -26.3912   22.1578 C   0  0  1  0  0  0  0  0  0  0  0  0
  -29.8363  -17.1735   21.4783 C   0  0  2  0  0  0  0  0  0  0  0  0
  -24.5192  -19.3295   20.7197 C   0  0  0  0  0  0  0  0  0  0  0  0
  -20.6014  -22.7630   24.8102 C   0  0  0  0  0  0  0  0  0  0  0  0
  -21.8346  -20.6460   24.2948 C   0  0  0  0  0  0  0  0  0  0  0  0
  -20.0300  -21.4398   22.7665 C   0  0  0  0  0  0  0  0  0  0  0  0
  -29.0382  -28.9629   26.1488 C   0  0  0  0  0  0  0  0  0  0  0  0
  -26.9629  -30.2367   25.5601 C   0  0  0  0  0  0  0  0  0  0  0  0
  -25.8761  -22.6339   19.4096 C   0  0  0  0  0  0  0  0  0  0  0  0
  -29.9883  -22.9650   20.1801 C   0  0  0  0  0  0  0  0  0  0  0  0
  -28.4709  -29.2949   23.7308 C   0  0  0  0  0  0  0  0  0  0  0  0
  -22.2400  -22.6668   22.8173 C   0  0  1  0  0  0  0  0  0  0  0  0
  -24.4701  -20.8106   20.3779 C   0  0  2  0  0  0  0  0  0  0  0  0
  -21.1903  -21.9037   23.6737 C   0  0  0  0  0  0  0  0  0  0  0  0
  -27.8950  -29.0977   25.1403 C   0  0  0  0  0  0  0  0  0  1  0  0
  -28.0847  -15.4819   21.0877 N   0  0  0  0  0  0  0  0  0  0  0  0
  -29.3952  -15.7793   21.0731 N   0  0  0  0  0  0  0  0  0  0  0  0
  -22.2999  -25.1271   22.5587 N   0  0  0  0  0  0  0  0  0  0  0  0
  -29.2474  -19.5701   21.5169 N   0  0  0  0  0  0  0  0  0  0  0  0
  -31.5329  -14.8717   20.6071 N   0  0  0  0  0  0  0  0  0  0  0  0
  -28.7322  -11.4338   19.7508 N   0  0  0  0  0  0  0  0  0  0  0  0
  -29.3115  -28.2062   23.3081 N   0  0  0  0  0  0  0  0  0  0  0  0
  -20.1289  -28.0124   23.0673 N   0  0  0  0  0  0  0  0  0  0  0  0
  -22.7947  -21.8861   21.7167 N   0  0  0  0  0  0  0  0  0  0  0  0
  -29.8027  -21.8210   21.0448 N   0  0  0  0  0  0  0  0  0  0  0  0
  -25.7906  -21.2062   19.8114 N   0  3  0  0  0  0  0  0  0  0  0  0
  -28.0679  -27.6060   21.4444 O   0  0  0  0  0  0  0  0  0  0  0  0
  -30.9329  -12.0774   19.7892 O   0  0  0  0  0  0  0  0  0  0  0  0
  -20.8355  -26.2057   24.3554 O   0  0  0  0  0  0  0  0  0  0  0  0
  -20.7203  -23.8407   21.4248 O   0  0  0  0  0  0  0  0  0  0  0  0
  -25.0107  -22.0513   22.3793 O   0  0  0  0  0  0  0  0  0  0  0  0
  -29.1357  -20.4163   19.3606 O   0  0  0  0  0  0  0  0  0  0  0  0
  -23.1827  -11.5083   20.2335 O   0  0  0  0  0  0  0  0  0  0  0  0
  -27.1641  -27.8726   25.1770 O   0  0  0  0  0  0  0  0  0  1  0  0
  -22.8883   -6.3887   22.2601 F   0  0  0  0  0  0  0  0  0  0  0  0
  -21.3841  -10.8767   22.2357 F   0  0  0  0  0  0  0  0  0  0  0  0
  1  2  1  0  0  0  0
  1  7  2  0  0  0  0
  2  8  2  0  0  0  0
  3  6  2  0  0  0  0
  3 10  1  0  0  0  0
  4 11  2  0  0  0  0
  4 19  1  0  0  0  0
  5 12  1  0  0  0  0
  5 19  2  0  0  0  0
  6 20  1  0  0  0  0
  7 22  1  0  0  0  0
  8 24  1  0  0  0  0
  9 13  2  0  0  0  0
  9 23  1  0  0  0  0
 10 26  2  0  0  0  0
 11 27  1  0  0  0  0
 12 27  2  0  0  0  0
 13 28  1  0  0  0  0
 14 15  2  0  0  0  0
 14 29  1  0  0  0  0
 15 30  1  0  0  0  0
 16 20  2  0  0  0  0
 16 26  1  0  0  0  0
 17 25  1  0  0  0  0
 17 28  2  0  0  0  0
 18 30  2  0  0  0  0
 18 31  1  0  0  0  0
 19 32  1  0  0  0  0
 20 34  1  0  0  0  0
 21 32  1  0  0  0  0
 21 33  2  0  0  0  0
 21 35  1  0  0  0  0
 22 24  2  0  0  0  0
 22 40  1  0  0  0  0
 23 25  2  0  0  0  0
 23 41  1  0  0  0  0
 24 49  1  0  0  0  0
 25 42  1  0  0  0  0
 26 59  1  0  0  0  0
 27 82  1  0  0  0  0
 28 83  1  0  0  0  0
 29 31  2  0  0  0  0
 29 82  1  0  0  0  0
 30 84  1  0  0  0  0
 31 85  1  0  0  0  0
 32 65  2  0  0  0  0
 33 66  1  0  0  0  0
 33 69  1  0  0  0  0
 34 71  1  0  0  0  0
 34 76  2  0  0  0  0
 35 70  1  0  0  0  0
 35 77  2  0  0  0  0
 36 50  1  0  0  0  0
 36 72  1  0  0  0  0
 36 78  2  0  0  0  0
 37 61  1  0  0  0  0
 37 67  1  0  0  0  0
 37 79  2  0  0  0  0
 38 62  1  0  0  0  0
 38 73  1  0  0  0  0
 38 80  2  0  0  0  0
 39 68  1  0  0  0  0
 39 74  1  0  0  0  0
 39 81  2  0  0  0  0
 40 43  1  0  0  0  0
 41 50  1  0  0  0  0
 42 67  1  0  0  0  0
 43 45  1  0  0  0  0
 44 46  1  0  0  0  0
 44 47  1  0  0  0  0
 45 49  1  0  0  0  0
 46 51  1  0  0  0  0
 47 68  1  0  0  0  0
 48 51  1  0  0  0  0
 48 68  1  0  0  0  0
 49 72  1  0  0  0  0
 50 67  1  0  0  0  0
 51 66  1  0  0  0  0
 52 62  1  0  0  0  0
 53 63  1  0  0  0  0
 54 63  1  0  0  0  0
 55 63  1  0  0  0  0
 56 64  1  0  0  0  0
 57 64  1  0  0  0  0
 58 75  1  0  0  0  0
 59 74  1  0  0  0  0
 60 64  1  0  0  0  0
 60 71  1  0  0  0  0
 61 63  1  0  0  0  0
 61 73  1  0  0  0  0
 62 75  1  0  0  0  0
 64 83  1  0  0  0  0
 65 66  1  0  0  0  0
M  CHG  1  75   1
M  ISO  4  39 100  64 101  74 100  83 101
M  END
> <Batch ID>
0057

> <Smiles>
CNC(C)C(=O)NC(C(=O)N1Cc2cc([101O:1][101C:1](C)(C)CNC(=O)c3cccc(C[100NH:0][100C:0](=O)N4CCCC(n5nc(-c6ccc(Oc7ccc(F)cc7F)cc6)c(C(N)=O)c5N)C4)c3)ccc2CC1C(=O)NC1CCCc2ccccc21)C(C)(C)C

> <Shape>
0.254

> <Color>
0.077

> <Negative vol penalty>
0.000

$$$$

  -OEChem-04042322553D

 87 96  0     1  0  0  0  0  0999 V2000
  -16.5836  -27.6575   21.5356 C   0  0  0  0  0  0  0  0  0  0  0  0
  -17.5037  -26.8444   22.1897 C   0  0  0  0  0  0  0  0  0  0  0  0
  -23.3446   -9.3368   20.0760 C   0  0  0  0  0  0  0  0  0  0  0  0
  -23.6213  -10.6777   22.0665 C   0  0  0  0  0  0  0  0  0  0  0  0
  -17.0263  -28.7487   20.7892 C   0  0  0  0  0  0  0  0  0  0  0  0
  -18.8671  -27.1215   22.0968 C   0  0  0  0  0  0  0  0  0  0  0  0
  -23.0989  -26.2828   26.4436 C   0  0  0  0  0  0  0  0  0  0  0  0
  -28.0876  -17.7919   25.1589 C   0  0  0  0  0  0  0  0  0  0  0  0
  -27.9684  -17.0234   24.0010 C   0  0  0  0  0  0  0  0  0  0  0  0
  -22.5953   -8.4119   20.8031 C   0  0  0  0  0  0  0  0  0  0  0  0
  -22.8719   -9.7528   22.7937 C   0  0  0  0  0  0  0  0  0  0  0  0
  -24.0238  -25.2641   26.6681 C   0  0  0  0  0  0  0  0  0  0  0  0
  -19.4348   -8.1352   21.9726 C   0  0  0  0  0  0  0  0  0  0  0  0
  -18.2557   -7.6609   21.3978 C   0  0  0  0  0  0  0  0  0  0  0  0
  -25.7130  -26.5547   25.5278 C   0  0  0  0  0  0  0  0  0  0  0  0
  -30.3401  -16.5666   24.0600 C   0  0  0  0  0  0  0  0  0  0  0  0
  -19.1226   -5.4073   21.4789 C   0  0  0  0  0  0  0  0  0  0  0  0
  -23.8576  -10.4697   20.7077 C   0  0  0  0  0  0  0  0  0  0  0  0
  -24.2133  -12.1659   18.8358 C   0  0  0  0  0  0  0  0  0  0  0  0
  -18.3952  -29.0450   20.6950 C   0  0  0  0  0  0  0  0  0  0  0  0
  -23.4718  -27.4424   25.7488 C   0  0  0  0  0  0  0  0  0  0  0  0
  -19.3286  -28.2170   21.3473 C   0  0  0  0  0  0  0  0  0  0  0  0
  -24.7916  -27.5878   25.2981 C   0  0  0  0  0  0  0  0  0  0  0  0
  -29.3330  -17.9478   25.7674 C   0  0  0  0  0  0  0  0  0  0  0  0
  -30.4593  -17.3351   25.2180 C   0  0  0  0  0  0  0  0  0  0  0  0
  -29.0946  -16.4108   23.4515 C   0  0  0  0  0  0  0  0  0  0  0  0
  -22.3589   -8.6199   22.1619 C   0  0  0  0  0  0  0  0  0  0  0  0
  -25.3303  -25.3987   26.2077 C   0  0  0  0  0  0  0  0  0  0  0  0
  -20.4579   -7.2455   22.3005 C   0  0  0  0  0  0  0  0  0  0  0  0
  -18.0996   -6.2970   21.1510 C   0  0  0  0  0  0  0  0  0  0  0  0
  -20.3018   -5.8815   22.0537 C   0  0  0  0  0  0  0  0  0  0  0  0
  -24.6322  -11.4251   19.9572 C   0  0  0  0  0  0  0  0  0  0  0  0
  -25.3078  -12.9229   18.4960 C   0  0  0  0  0  0  0  0  0  0  0  0
  -27.5391  -19.9214   28.0932 C   0  0  0  0  0  0  0  0  0  0  0  0
  -22.9480  -12.1694   18.1616 C   0  0  0  0  0  0  0  0  0  0  0  0
  -22.5600  -28.8218   23.0341 C   0  0  0  0  0  0  0  0  0  0  0  0
  -24.5512  -31.1848   24.0206 C   0  0  0  0  0  0  0  0  0  0  0  0
  -27.2373  -32.1088   25.9122 C   0  0  0  0  0  0  0  0  0  0  0  0
  -29.9909  -14.9532   21.6027 C   0  0  0  0  0  0  0  0  0  0  0  0
  -18.8290  -30.2076   19.8377 C   0  0  0  0  0  0  0  0  0  0  0  0
  -22.4692  -28.5437   25.5382 C   0  0  0  0  0  0  0  0  0  0  0  0
  -25.2477  -28.8217   24.5647 C   0  0  0  0  0  0  0  0  0  0  0  0
  -26.4881  -21.0128   28.0165 C   0  0  0  0  0  0  0  0  0  0  0  0
  -20.2660  -30.6527   20.0968 C   0  0  0  0  0  0  0  0  0  0  0  0
  -30.0923  -12.8919   18.7013 C   0  0  0  0  0  0  0  0  0  0  0  0
  -21.1978  -29.4460   20.1467 C   0  0  0  0  0  0  0  0  0  0  0  0
  -28.6640  -12.3541   18.5885 C   0  0  0  0  0  0  0  0  0  0  0  0
  -27.4358  -21.8329   25.8859 C   0  0  0  0  0  0  0  0  0  0  0  0
  -30.5412  -13.0085   20.1568 C   0  0  0  0  0  0  0  0  0  0  0  0
  -28.6304  -20.9100   26.0497 C   0  0  0  0  0  0  0  0  0  0  0  0
  -28.2076  -13.2325   20.9139 C   0  0  0  0  0  0  0  0  0  0  0  0
  -20.8142  -28.4996   21.2907 C   0  0  1  0  0  0  0  0  0  0  0  0
  -22.8230  -29.4583   24.3695 C   0  0  1  0  0  0  0  0  0  0  0  0
  -26.9278  -22.2579   27.2573 C   0  0  1  0  0  0  0  0  0  0  0  0
  -27.6877  -13.1588   19.4689 C   0  0  2  0  0  0  0  0  0  0  0  0
  -31.8024  -17.4863   25.8533 C   0  0  0  0  0  0  0  0  0  0  0  0
  -28.6519  -34.1010   26.4844 C   0  0  0  0  0  0  0  0  0  0  0  0
  -25.9431  -30.9708   21.3138 C   0  0  0  0  0  0  0  0  0  0  0  0
  -27.8655  -32.2516   22.2793 C   0  0  0  0  0  0  0  0  0  0  0  0
  -25.6113  -33.3099   22.1341 C   0  0  0  0  0  0  0  0  0  0  0  0
  -26.5232  -31.9381   28.7793 C   0  0  0  0  0  0  0  0  0  0  0  0
  -29.4365  -18.7803   27.0126 C   0  0  0  0  0  0  0  0  0  0  0  0
  -25.7774  -23.2533   27.1314 C   0  0  0  0  0  0  0  0  0  1  0  0
  -26.0187  -31.4905   23.8417 C   0  0  1  0  0  0  0  0  0  0  0  0
  -27.4421  -33.2657   26.8736 C   0  0  2  0  0  0  0  0  0  0  0  0
  -26.3509  -31.9815   22.4043 C   0  0  0  0  0  0  0  0  0  0  0  0
  -25.8944  -11.6877   20.3064 N   0  0  0  0  0  0  0  0  0  0  0  0
  -26.2781  -12.6018   19.3991 N   0  0  0  0  0  0  0  0  0  0  0  0
  -28.4460  -19.8484   27.0382 N   0  0  0  0  0  0  0  0  0  0  0  0
  -24.2288  -29.8679   24.3778 N   0  0  0  0  0  0  0  0  0  0  0  0
  -29.5703  -13.7871   20.9288 N   0  0  0  0  0  0  0  0  0  0  0  0
  -25.5253  -13.8251   17.5156 N   0  0  0  0  0  0  0  0  0  0  0  0
  -21.9326  -11.3312   18.6420 N   0  0  0  0  0  0  0  0  0  0  0  0
  -28.9737  -15.6284   22.2764 N   0  0  0  0  0  0  0  0  0  0  0  0
  -21.2788  -29.0235   22.5573 N   0  0  0  0  0  0  0  0  0  0  0  0
  -26.3693  -32.4392   24.8931 N   0  0  0  0  0  0  0  0  0  0  0  0
  -27.6480  -32.7574   28.2593 N   0  3  0  0  0  0  0  0  0  0  0  0
  -27.4955  -19.1140   29.0256 O   0  0  0  0  0  0  0  0  0  0  0  0
  -22.7296  -12.8822   17.1527 O   0  0  0  0  0  0  0  0  0  0  0  0
  -23.4537  -28.1954   22.4769 O   0  0  0  0  0  0  0  0  0  0  0  0
  -23.7220  -32.0833   23.8566 O   0  0  0  0  0  0  0  0  0  0  0  0
  -27.7946  -31.0220   26.0495 O   0  0  0  0  0  0  0  0  0  0  0  0
  -31.1616  -15.3402   21.5610 O   0  0  0  0  0  0  0  0  0  0  0  0
  -21.6276   -7.7178   22.8717 O   0  0  0  0  0  0  0  0  0  0  0  0
  -26.2350  -24.4055   26.4249 O   0  0  0  0  0  0  0  0  0  1  0  0
  -16.9666   -5.8415   20.6004 F   0  0  0  0  0  0  0  0  0  0  0  0
  -21.2806   -5.0218   22.3676 F   0  0  0  0  0  0  0  0  0  0  0  0
  1  2  1  0  0  0  0
  1  5  2  0  0  0  0
  2  6  2  0  0  0  0
  3 10  2  0  0  0  0
  3 18  1  0  0  0  0
  4 11  1  0  0  0  0
  4 18  2  0  0  0  0
  5 20  1  0  0  0  0
  6 22  1  0  0  0  0
  7 12  2  0  0  0  0
  7 21  1  0  0  0  0
  8  9  2  0  0  0  0
  8 24  1  0  0  0  0
  9 26  1  0  0  0  0
 10 27  1  0  0  0  0
 11 27  2  0  0  0  0
 12 28  1  0  0  0  0
 13 14  2  0  0  0  0
 13 29  1  0  0  0  0
 14 30  1  0  0  0  0
 15 23  1  0  0  0  0
 15 28  2  0  0  0  0
 16 25  1  0  0  0  0
 16 26  2  0  0  0  0
 17 30  2  0  0  0  0
 17 31  1  0  0  0  0
 18 32  1  0  0  0  0
 19 32  1  0  0  0  0
 19 33  2  0  0  0  0
 19 35  1  0  0  0  0
 20 22  2  0  0  0  0
 20 40  1  0  0  0  0
 21 23  2  0  0  0  0
 21 41  1  0  0  0  0
 22 52  1  0  0  0  0
 23 42  1  0  0  0  0
 24 25  2  0  0  0  0
 24 62  1  0  0  0  0
 25 56  1  0  0  0  0
 26 74  1  0  0  0  0
 27 84  1  0  0  0  0
 28 85  1  0  0  0  0
 29 31  2  0  0  0  0
 29 84  1  0  0  0  0
 30 86  1  0  0  0  0
 31 87  1  0  0  0  0
 32 67  2  0  0  0  0
 33 68  1  0  0  0  0
 33 72  1  0  0  0  0
 34 43  1  0  0  0  0
 34 69  1  0  0  0  0
 34 78  2  0  0  0  0
 35 73  1  0  0  0  0
 35 79  2  0  0  0  0
 36 53  1  0  0  0  0
 36 75  1  0  0  0  0
 36 80  2  0  0  0  0
 37 64  1  0  0  0  0
 37 70  1  0  0  0  0
 37 81  2  0  0  0  0
 38 65  1  0  0  0  0
 38 76  1  0  0  0  0
 38 82  2  0  0  0  0
 39 71  1  0  0  0  0
 39 74  1  0  0  0  0
 39 83  2  0  0  0  0
 40 44  1  0  0  0  0
 41 53  1  0  0  0  0
 42 70  1  0  0  0  0
 43 54  1  0  0  0  0
 44 46  1  0  0  0  0
 45 47  1  0  0  0  0
 45 49  1  0  0  0  0
 46 52  1  0  0  0  0
 47 55  1  0  0  0  0
 48 50  1  0  0  0  0
 48 54  1  0  0  0  0
 49 71  1  0  0  0  0
 50 69  1  0  0  0  0
 51 55  1  0  0  0  0
 51 71  1  0  0  0  0
 52 75  1  0  0  0  0
 53 70  1  0  0  0  0
 54 63  1  0  0  0  0
 55 68  1  0  0  0  0
 57 65  1  0  0  0  0
 58 66  1  0  0  0  0
 59 66  1  0  0  0  0
 60 66  1  0  0  0  0
 61 77  1  0  0  0  0
 62 69  1  0  0  0  0
 63 85  1  0  0  0  0
 64 66  1  0  0  0  0
 64 76  1  0  0  0  0
 65 77  1  0  0  0  0
 67 68  1  0  0  0  0
M  CHG  1  77   1
M  ISO  4  39 100  63 101  74 100  85 101
M  END
> <Batch ID>
0057

> <Smiles>
CNC(C)C(=O)NC(C(=O)N1Cc2cc([101O:1][101CH2:1]C3CCN(Cc4ccc([100NH:0][100C:0](=O)N5CCCC(n6nc(-c7ccc(Oc8ccc(F)cc8F)cc7)c(C(N)=O)c6N)C5)cc4C)C(=O)C3)ccc2CC1C(=O)NC1CCCc2ccccc21)C(C)(C)C

> <Shape>
0.225

> <Color>
0.101

> <Negative vol penalty>
0.000

$$$$

  -OEChem-04042322553D

 86 94  0     1  0  0  0  0  0999 V2000
  -28.9663  -17.5152   20.5064 C   0  0  0  0  0  0  0  0  0  0  0  0
  -27.8459  -18.2994   20.2512 C   0  0  0  0  0  0  0  0  0  0  0  0
  -24.3515  -14.2643   22.8001 C   0  0  0  0  0  0  0  0  0  0  0  0
  -24.7071  -15.3290   20.6607 C   0  0  0  0  0  0  0  0  0  0  0  0
  -30.0304  -18.0393   21.2390 C   0  0  0  0  0  0  0  0  0  0  0  0
  -27.7886  -19.6080   20.7295 C   0  0  0  0  0  0  0  0  0  0  0  0
  -25.1787  -26.0610   19.0374 C   0  0  0  0  0  0  0  0  0  0  0  0
  -27.2270  -26.3236   25.7799 C   0  0  0  0  0  0  0  0  0  0  0  0
  -27.3296  -27.7041   25.6091 C   0  0  0  0  0  0  0  0  0  0  0  0
  -25.1074  -13.1696   22.3809 C   0  0  0  0  0  0  0  0  0  0  0  0
  -25.4631  -14.2343   20.2415 C   0  0  0  0  0  0  0  0  0  0  0  0
  -24.4037  -27.0853   19.5794 C   0  0  0  0  0  0  0  0  0  0  0  0
  -28.6014  -13.0610   20.6827 C   0  0  0  0  0  0  0  0  0  0  0  0
  -29.8041  -13.3194   20.0250 C   0  0  0  0  0  0  0  0  0  0  0  0
  -24.8215  -26.5165   25.8944 C   0  0  0  0  0  0  0  0  0  0  0  0
  -26.3351  -27.9109   20.7657 C   0  0  0  0  0  0  0  0  0  0  0  0
  -28.9934  -12.1393   18.0789 C   0  0  0  0  0  0  0  0  0  0  0  0
  -24.1513  -15.3440   21.9399 C   0  0  0  0  0  0  0  0  0  0  0  0
  -24.9241  -27.8971   25.7237 C   0  0  0  0  0  0  0  0  0  0  0  0
  -22.0224  -16.4715   22.7793 C   0  0  0  0  0  0  0  0  0  0  0  0
  -29.9903  -19.3582   21.7182 C   0  0  0  0  0  0  0  0  0  0  0  0
  -26.5376  -25.9473   19.3646 C   0  0  0  0  0  0  0  0  0  0  0  0
  -28.8526  -20.1498   21.4703 C   0  0  0  0  0  0  0  0  0  0  0  0
  -27.1258  -26.8857   20.2245 C   0  0  0  0  0  0  0  0  0  0  0  0
  -25.9730  -25.7297   25.9224 C   0  0  0  0  0  0  0  0  0  0  0  0
  -26.1782  -28.4909   25.5811 C   0  0  0  0  0  0  0  0  0  0  0  0
  -25.6632  -13.1545   21.1017 C   0  0  0  0  0  0  0  0  0  0  0  0
  -24.9811  -28.0087   20.4460 C   0  0  0  0  0  0  0  0  0  0  0  0
  -27.5948  -12.3416   20.0385 C   0  0  0  0  0  0  0  0  0  0  0  0
  -30.0000  -12.8587   18.7231 C   0  0  0  0  0  0  0  0  0  0  0  0
  -27.7908  -11.8809   18.7366 C   0  0  0  0  0  0  0  0  0  0  0  0
  -23.3700  -16.4749   22.3721 C   0  0  0  0  0  0  0  0  0  0  0  0
  -21.7536  -17.7826   23.0878 C   0  0  0  0  0  0  0  0  0  0  0  0
  -22.7047  -28.8430   23.6631 C   0  0  0  0  0  0  0  0  0  0  0  0
  -23.6786  -28.7130   25.6977 C   0  0  0  0  0  0  0  0  0  0  0  0
  -21.0965  -15.3806   22.8707 C   0  0  0  0  0  0  0  0  0  0  0  0
  -28.3215  -23.7452   20.8041 C   0  0  0  0  0  0  0  0  0  0  0  0
  -30.7535  -25.7087   19.9364 C   0  0  0  0  0  0  0  0  0  0  0  0
  -31.7784  -28.8524   19.0917 C   0  0  0  0  0  0  0  0  0  0  0  0
  -25.2461  -22.2049   24.8487 C   0  0  0  0  0  0  0  0  0  0  0  0
  -31.1446  -19.8653   22.5459 C   0  0  0  0  0  0  0  0  0  0  0  0
  -27.3662  -24.8525   18.7504 C   0  0  0  0  0  0  0  0  0  0  0  0
  -28.5850  -26.8196   20.5915 C   0  0  0  0  0  0  0  0  0  0  0  0
  -31.1650  -21.3842   22.6967 C   0  0  0  0  0  0  0  0  0  0  0  0
  -23.0719  -22.2422   21.9558 C   0  0  0  0  0  0  0  0  0  0  0  0
  -29.7767  -21.9037   23.0565 C   0  0  0  0  0  0  0  0  0  0  0  0
  -22.7758  -20.7518   21.7786 C   0  0  0  0  0  0  0  0  0  0  0  0
  -24.5131  -22.4702   22.4023 C   0  0  0  0  0  0  0  0  0  0  0  0
  -24.6014  -20.2500   23.4684 C   0  0  0  0  0  0  0  0  0  0  0  0
  -28.7637  -21.5820   21.9511 C   0  0  1  0  0  0  0  0  0  0  0  0
  -28.6200  -24.5282   19.5568 C   0  0  1  0  0  0  0  0  0  0  0  0
  -23.1532  -19.9518   23.0395 C   0  0  2  0  0  0  0  0  0  0  0  0
  -26.3169  -29.9669   25.3969 C   0  0  0  0  0  0  0  0  0  0  0  0
  -33.3301  -30.6660   18.3167 C   0  0  0  0  0  0  0  0  0  0  0  0
  -31.6329  -25.7046   22.8581 C   0  0  0  0  0  0  0  0  0  0  0  0
  -33.0470  -27.7104   22.3628 C   0  0  0  0  0  0  0  0  0  0  0  0
  -33.5034  -25.5482   21.2054 C   0  0  0  0  0  0  0  0  0  0  0  0
  -31.1110  -28.3687   16.2493 C   0  0  0  0  0  0  0  0  0  0  0  0
  -25.8639  -24.2536   26.1049 C   0  0  0  0  0  0  0  0  0  0  0  0
  -22.8404  -28.7389   21.1811 C   0  0  0  0  0  0  0  0  0  1  0  0
  -22.3539  -29.5428   22.3771 C   0  0  1  0  0  0  0  0  0  0  0  0
  -31.4546  -26.8862   20.5695 C   0  0  1  0  0  0  0  0  0  0  0  0
  -32.6467  -29.3569   17.9533 C   0  0  2  0  0  0  0  0  0  0  0  0
  -32.3815  -26.4627   21.7438 C   0  0  0  0  0  0  0  0  0  0  0  0
  -23.9190  -17.6918   22.4166 N   0  0  0  0  0  0  0  0  0  0  0  0
  -23.4016  -29.4478   24.5703 N   0  0  0  0  0  0  0  0  0  0  0  0
  -22.9113  -18.4652   22.8553 N   0  0  0  0  0  0  0  0  0  0  0  0
  -29.3519  -25.7272   19.9702 N   0  0  0  0  0  0  0  0  0  0  0  0
  -24.8021  -21.6953   23.6172 N   0  0  0  0  0  0  0  0  0  0  0  0
  -20.6422  -18.4067   23.5324 N   0  0  0  0  0  0  0  0  0  0  0  0
  -20.3129  -15.0737   21.7499 N   0  0  0  0  0  0  0  0  0  0  0  0
  -28.9174  -22.4991   20.8421 N   0  0  0  0  0  0  0  0  0  0  0  0
  -32.1417  -27.5823   19.4870 N   0  0  0  0  0  0  0  0  0  0  0  0
  -25.4177  -23.5827   24.9042 N   0  0  0  0  0  0  0  0  0  0  0  0
  -22.8789  -28.7858   26.7023 N   0  3  0  0  0  0  0  0  0  0  0  0
  -20.8757  -29.6783   22.2936 N   0  3  0  0  0  0  0  0  0  0  0  0
  -31.8218  -29.5804   16.7324 N   0  3  0  0  0  0  0  0  0  0  0  0
  -20.9560  -14.7087   23.9206 O   0  0  0  0  0  0  0  0  0  0  0  0
  -27.6049  -24.2360   21.6685 O   0  0  0  0  0  0  0  0  0  0  0  0
  -31.4245  -24.8092   19.4242 O   0  0  0  0  0  0  0  0  0  0  0  0
  -30.8712  -29.5197   19.5837 O   0  0  0  0  0  0  0  0  0  0  0  0
  -25.4682  -21.4856   25.8287 O   0  0  0  0  0  0  0  0  0  0  0  0
  -26.4011  -12.0866   20.6925 O   0  0  0  0  0  0  0  0  0  0  0  0
  -24.2267  -29.0091   20.9770 O   0  0  0  0  0  0  0  0  0  1  0  0
  -31.1544  -13.1082   18.0912 F   0  0  0  0  0  0  0  0  0  0  0  0
  -26.8269  -11.1903   18.1121 F   0  0  0  0  0  0  0  0  0  0  0  0
  1  2  1  0  0  0  0
  1  5  2  0  0  0  0
  2  6  2  0  0  0  0
  3 10  2  0  0  0  0
  3 18  1  0  0  0  0
  4 11  1  0  0  0  0
  4 18  2  0  0  0  0
  5 21  1  0  0  0  0
  6 23  1  0  0  0  0
  7 12  2  0  0  0  0
  7 22  1  0  0  0  0
  8  9  2  0  0  0  0
  8 25  1  0  0  0  0
  9 26  1  0  0  0  0
 10 27  1  0  0  0  0
 11 27  2  0  0  0  0
 12 28  1  0  0  0  0
 13 14  2  0  0  0  0
 13 29  1  0  0  0  0
 14 30  1  0  0  0  0
 15 19  1  0  0  0  0
 15 25  2  0  0  0  0
 16 24  1  0  0  0  0
 16 28  2  0  0  0  0
 17 30  2  0  0  0  0
 17 31  1  0  0  0  0
 18 32  1  0  0  0  0
 19 26  2  0  0  0  0
 19 35  1  0  0  0  0
 20 32  1  0  0  0  0
 20 33  2  0  0  0  0
 20 36  1  0  0  0  0
 21 23  2  0  0  0  0
 21 41  1  0  0  0  0
 22 24  2  0  0  0  0
 22 42  1  0  0  0  0
 23 50  1  0  0  0  0
 24 43  1  0  0  0  0
 25 59  1  0  0  0  0
 26 53  1  0  0  0  0
 27 83  1  0  0  0  0
 28 84  1  0  0  0  0
 29 31  2  0  0  0  0
 29 83  1  0  0  0  0
 30 85  1  0  0  0  0
 31 86  1  0  0  0  0
 32 65  2  0  0  0  0
 33 67  1  0  0  0  0
 33 70  1  0  0  0  0
 34 61  1  0  0  0  0
 34 66  2  0  0  0  0
 35 66  1  0  0  0  0
 35 75  2  0  0  0  0
 36 71  1  0  0  0  0
 36 78  2  0  0  0  0
 37 51  1  0  0  0  0
 37 72  1  0  0  0  0
 37 79  2  0  0  0  0
 38 62  1  0  0  0  0
 38 68  1  0  0  0  0
 38 80  2  0  0  0  0
 39 63  1  0  0  0  0
 39 73  1  0  0  0  0
 39 81  2  0  0  0  0
 40 69  1  0  0  0  0
 40 74  1  0  0  0  0
 40 82  2  0  0  0  0
 41 44  1  0  0  0  0
 42 51  1  0  0  0  0
 43 68  1  0  0  0  0
 44 46  1  0  0  0  0
 45 47  1  0  0  0  0
 45 48  1  0  0  0  0
 46 50  1  0  0  0  0
 47 52  1  0  0  0  0
 48 69  1  0  0  0  0
 49 52  1  0  0  0  0
 49 69  1  0  0  0  0
 50 72  1  0  0  0  0
 51 68  1  0  0  0  0
 52 67  1  0  0  0  0
 54 63  1  0  0  0  0
 55 64  1  0  0  0  0
 56 64  1  0  0  0  0
 57 64  1  0  0  0  0
 58 77  1  0  0  0  0
 59 74  1  0  0  0  0
 60 61  1  0  0  0  0
 60 84  1  0  0  0  0
 61 76  1  0  0  0  0
 62 64  1  0  0  0  0
 62 73  1  0  0  0  0
 63 77  1  0  0  0  0
 65 67  1  0  0  0  0
M  CHG  3  75   1  76   1  77   1
M  ISO  4  40 100  60 101  74 100  84 101
M  END
> <Batch ID>
0057

> <Smiles>
CNC(C)C(=O)NC(C(=O)N1Cc2cc([101O:1][101CH2:1]C(=N)CNC(=N)c3cc(C[100NH:0][100C:0](=O)N4CCCC(n5nc(-c6ccc(Oc7ccc(F)cc7F)cc6)c(C(N)=O)c5N)C4)ccc3C)ccc2CC1C(=O)NC1CCCc2ccccc21)C(C)(C)C

> <Shape>
0.213

> <Color>
0.055

> <Negative vol penalty>
0.000

$$$$

  -OEChem-04042322553D

 84 92  0     1  0  0  0  0  0999 V2000
  -30.6888  -26.5313   17.5573 C   0  0  0  0  0  0  0  0  0  0  0  0
  -29.3349  -26.3616   17.8287 C   0  0  0  0  0  0  0  0  0  0  0  0
  -22.7532  -10.0432   22.1086 C   0  0  0  0  0  0  0  0  0  0  0  0
  -23.1363   -9.6351   19.7583 C   0  0  0  0  0  0  0  0  0  0  0  0
  -17.0596  -20.6712   20.3821 C   0  0  0  0  0  0  0  0  0  0  0  0
  -31.5000  -27.2137   18.4629 C   0  0  0  0  0  0  0  0  0  0  0  0
  -28.7917  -26.8733   19.0066 C   0  0  0  0  0  0  0  0  0  0  0  0
  -23.1742  -29.1908   19.7672 C   0  0  0  0  0  0  0  0  0  0  0  0
  -16.3728  -21.8632   20.1518 C   0  0  0  0  0  0  0  0  0  0  0  0
  -22.4270   -8.6990   22.2889 C   0  0  0  0  0  0  0  0  0  0  0  0
  -22.8101   -8.2909   19.9386 C   0  0  0  0  0  0  0  0  0  0  0  0
  -21.9952  -28.6456   20.2737 C   0  0  0  0  0  0  0  0  0  0  0  0
  -22.4278   -4.6765   19.8495 C   0  0  0  0  0  0  0  0  0  0  0  0
  -23.2510   -3.7227   19.2511 C   0  0  0  0  0  0  0  0  0  0  0  0
  -18.3469  -21.7486   22.1197 C   0  0  0  0  0  0  0  0  0  0  0  0
  -22.4857  -29.6048   22.4320 C   0  0  0  0  0  0  0  0  0  0  0  0
  -25.1314   -4.5465   20.5250 C   0  0  0  0  0  0  0  0  0  0  0  0
  -23.1078  -10.5112   20.8433 C   0  0  0  0  0  0  0  0  0  0  0  0
  -18.0466  -20.6139   21.3661 C   0  0  0  0  0  0  0  0  0  0  0  0
  -24.7193  -12.4871   20.7620 C   0  0  0  0  0  0  0  0  0  0  0  0
  -30.9645  -27.7424   19.6480 C   0  0  0  0  0  0  0  0  0  0  0  0
  -24.0247  -29.9393   20.5936 C   0  0  0  0  0  0  0  0  0  0  0  0
  -29.5968  -27.5622   19.9296 C   0  0  0  0  0  0  0  0  0  0  0  0
  -23.6736  -30.1607   21.9330 C   0  0  0  0  0  0  0  0  0  0  0  0
  -16.6731  -22.9979   20.9054 C   0  0  0  0  0  0  0  0  0  0  0  0
  -17.6602  -22.9406   21.8893 C   0  0  0  0  0  0  0  0  0  0  0  0
  -22.4555   -7.8229   21.2039 C   0  0  0  0  0  0  0  0  0  0  0  0
  -21.6523  -28.8501   21.6069 C   0  0  0  0  0  0  0  0  0  0  0  0
  -22.9563   -5.5654   20.7856 C   0  0  0  0  0  0  0  0  0  0  0  0
  -24.6028   -3.6577   19.5888 C   0  0  0  0  0  0  0  0  0  0  0  0
  -24.3081   -5.5003   21.1234 C   0  0  0  0  0  0  0  0  0  0  0  0
  -23.4443  -11.8997   20.6564 C   0  0  0  0  0  0  0  0  0  0  0  0
  -24.5074  -13.8178   20.4956 C   0  0  0  0  0  0  0  0  0  0  0  0
  -18.7624  -19.3706   21.6065 C   0  0  0  0  0  0  0  0  0  0  0  0
  -18.8558  -18.3404   20.7390 C   0  0  0  0  0  0  0  0  0  0  0  0
  -25.9822  -11.8838   21.0731 C   0  0  0  0  0  0  0  0  0  0  0  0
  -19.6303  -17.1445   21.1273 C   0  0  0  0  0  0  0  0  0  0  0  0
  -27.0246  -29.6258   21.5965 C   0  0  0  0  0  0  0  0  0  0  0  0
  -26.4985  -32.5671   22.8592 C   0  0  0  0  0  0  0  0  0  0  0  0
  -19.2560  -26.2872   22.5224 C   0  0  0  0  0  0  0  0  0  0  0  0
  -24.2542  -34.8708   24.0007 C   0  0  0  0  0  0  0  0  0  0  0  0
  -31.8903  -28.4314   20.6189 C   0  0  0  0  0  0  0  0  0  0  0  0
  -25.2795  -30.5432   20.0252 C   0  0  0  0  0  0  0  0  0  0  0  0
  -24.5423  -30.9738   22.8565 C   0  0  0  0  0  0  0  0  0  0  0  0
  -31.1609  -29.2685   21.6665 C   0  0  0  0  0  0  0  0  0  0  0  0
  -21.6246  -16.7501   18.0778 C   0  0  0  0  0  0  0  0  0  0  0  0
  -29.9967  -28.4829   22.2616 C   0  0  0  0  0  0  0  0  0  0  0  0
  -22.4014  -15.4758   18.3978 C   0  0  0  0  0  0  0  0  0  0  0  0
  -20.2198  -16.7294   18.6785 C   0  0  0  0  0  0  0  0  0  0  0  0
  -20.9804  -15.1916   20.4666 C   0  0  0  0  0  0  0  0  0  0  0  0
  -28.9654  -28.1243   21.1849 C   0  0  1  0  0  0  0  0  0  0  0  0
  -26.3271  -30.8562   21.0892 C   0  0  1  0  0  0  0  0  0  0  0  0
  -22.4132  -15.2111   19.9117 C   0  0  1  0  0  0  0  0  0  0  0  0
  -15.9242  -24.2625   20.6408 C   0  0  0  0  0  0  0  0  0  0  0  0
  -24.1265  -37.1668   25.0054 C   0  0  0  0  0  0  0  0  0  0  0  0
  -27.4112  -31.4404   25.5439 C   0  0  0  0  0  0  0  0  0  0  0  0
  -26.3798  -33.4343   26.6524 C   0  0  0  0  0  0  0  0  0  0  0  0
  -28.2552  -33.7391   25.0360 C   0  0  0  0  0  0  0  0  0  0  0  0
  -22.6665  -35.9040   21.7268 C   0  0  0  0  0  0  0  0  0  0  0  0
  -18.0004  -24.1489   22.7131 C   0  0  0  0  0  0  0  0  0  0  0  0
  -20.0431  -27.1012   21.5176 C   0  0  0  0  0  0  0  0  0  1  0  0
  -25.9696  -33.0871   24.1741 C   0  0  1  0  0  0  0  0  0  0  0  0
  -24.1030  -36.3549   23.7197 C   0  0  2  0  0  0  0  0  0  0  0  0
  -26.9883  -32.9082   25.3350 C   0  0  0  0  0  0  0  0  0  0  0  0
  -22.4929  -12.7847   20.3472 N   0  0  0  0  0  0  0  0  0  0  0  0
  -23.1704  -13.9417   20.2563 N   0  0  0  0  0  0  0  0  0  0  0  0
  -20.2533  -16.4166   20.1151 N   0  0  0  0  0  0  0  0  0  0  0  0
  -25.7620  -31.5381   22.2554 N   0  0  0  0  0  0  0  0  0  0  0  0
  -25.3362  -14.8822   20.4451 N   0  0  0  0  0  0  0  0  0  0  0  0
  -26.0212  -10.5047   21.3197 N   0  0  0  0  0  0  0  0  0  0  0  0
  -28.1449  -29.2736   20.8683 N   0  0  0  0  0  0  0  0  0  0  0  0
  -18.7835  -25.1077   21.9686 N   0  0  0  0  0  0  0  0  0  0  0  0
  -25.5720  -34.4704   23.9358 N   0  0  0  0  0  0  0  0  0  0  0  0
  -22.8146  -36.6209   23.0194 N   0  3  0  0  0  0  0  0  0  0  0  0
  -27.0420  -12.5509   21.1468 O   0  0  0  0  0  0  0  0  0  0  0  0
  -19.6743  -16.8599   22.3255 O   0  0  0  0  0  0  0  0  0  0  0  0
  -26.5802  -29.0403   22.5770 O   0  0  0  0  0  0  0  0  0  0  0  0
  -27.5232  -33.0608   22.3818 O   0  0  0  0  0  0  0  0  0  0  0  0
  -19.0748  -26.6555   23.6797 O   0  0  0  0  0  0  0  0  0  0  0  0
  -23.2992  -34.1406   24.2561 O   0  0  0  0  0  0  0  0  0  0  0  0
  -22.1375   -6.5112   21.3794 O   0  0  0  0  0  0  0  0  0  0  0  0
  -20.5024  -28.3184   22.1040 O   0  0  0  0  0  0  0  0  0  1  0  0
  -25.3930   -2.7407   19.0152 F   0  0  0  0  0  0  0  0  0  0  0  0
  -24.8213   -6.3508   22.0229 F   0  0  0  0  0  0  0  0  0  0  0  0
  1  2  1  0  0  0  0
  1  6  2  0  0  0  0
  2  7  2  0  0  0  0
  3 10  2  0  0  0  0
  3 18  1  0  0  0  0
  4 11  1  0  0  0  0
  4 18  2  0  0  0  0
  5  9  2  0  0  0  0
  5 19  1  0  0  0  0
  6 21  1  0  0  0  0
  7 23  1  0  0  0  0
  8 12  2  0  0  0  0
  8 22  1  0  0  0  0
  9 25  1  0  0  0  0
 10 27  1  0  0  0  0
 11 27  2  0  0  0  0
 12 28  1  0  0  0  0
 13 14  2  0  0  0  0
 13 29  1  0  0  0  0
 14 30  1  0  0  0  0
 15 19  2  0  0  0  0
 15 26  1  0  0  0  0
 16 24  1  0  0  0  0
 16 28  2  0  0  0  0
 17 30  2  0  0  0  0
 17 31  1  0  0  0  0
 18 32  1  0  0  0  0
 19 34  1  0  0  0  0
 20 32  1  0  0  0  0
 20 33  2  0  0  0  0
 20 36  1  0  0  0  0
 21 23  2  0  0  0  0
 21 42  1  0  0  0  0
 22 24  2  0  0  0  0
 22 43  1  0  0  0  0
 23 51  1  0  0  0  0
 24 44  1  0  0  0  0
 25 26  2  0  0  0  0
 25 54  1  0  0  0  0
 26 60  1  0  0  0  0
 27 81  1  0  0  0  0
 28 82  1  0  0  0  0
 29 31  2  0  0  0  0
 29 81  1  0  0  0  0
 30 83  1  0  0  0  0
 31 84  1  0  0  0  0
 32 65  2  0  0  0  0
 33 66  1  0  0  0  0
 33 69  1  0  0  0  0
 34 35  2  0  0  0  0
 35 37  1  0  0  0  0
 36 70  1  0  0  0  0
 36 75  2  0  0  0  0
 37 67  1  0  0  0  0
 37 76  2  0  0  0  0
 38 52  1  0  0  0  0
 38 71  1  0  0  0  0
 38 77  2  0  0  0  0
 39 62  1  0  0  0  0
 39 68  1  0  0  0  0
 39 78  2  0  0  0  0
 40 61  1  0  0  0  0
 40 72  1  0  0  0  0
 40 79  2  0  0  0  0
 41 63  1  0  0  0  0
 41 73  1  0  0  0  0
 41 80  2  0  0  0  0
 42 45  1  0  0  0  0
 43 52  1  0  0  0  0
 44 68  1  0  0  0  0
 45 47  1  0  0  0  0
 46 48  1  0  0  0  0
 46 49  1  0  0  0  0
 47 51  1  0  0  0  0
 48 53  1  0  0  0  0
 49 67  1  0  0  0  0
 50 53  1  0  0  0  0
 50 67  1  0  0  0  0
 51 71  1  0  0  0  0
 52 68  1  0  0  0  0
 53 66  1  0  0  0  0
 55 63  1  0  0  0  0
 56 64  1  0  0  0  0
 57 64  1  0  0  0  0
 58 64  1  0  0  0  0
 59 74  1  0  0  0  0
 60 72  1  0  0  0  0
 61 82  1  0  0  0  0
 62 64  1  0  0  0  0
 62 73  1  0  0  0  0
 63 74  1  0  0  0  0
 65 66  1  0  0  0  0
M  CHG  1  74   1
M  ISO  4  35 100  37 100  61 101  82 101
M  END
> <Batch ID>
0057

> <Smiles>
CNC(C)C(=O)NC(C(=O)N1Cc2cc([101O:1][101CH2:1]C(=O)NCc3cc(C=[100CH:0][100C:0](=O)N4CCCC(n5nc(-c6ccc(Oc7ccc(F)cc7F)cc6)c(C(N)=O)c5N)C4)ccc3C)ccc2CC1C(=O)NC1CCCc2ccccc21)C(C)(C)C

> <Shape>
0.284

> <Color>
0.097

> <Negative vol penalty>
0.000

$$$$

  -OEChem-04042322553D

 84 92  0     1  0  0  0  0  0999 V2000
  -17.6546  -25.9337   23.1325 C   0  0  0  0  0  0  0  0  0  0  0  0
  -18.8535  -25.6612   22.4815 C   0  0  0  0  0  0  0  0  0  0  0  0
  -28.8576  -21.4553   13.4594 C   0  0  0  0  0  0  0  0  0  0  0  0
  -29.3058  -13.7191   20.9485 C   0  0  0  0  0  0  0  0  0  0  0  0
  -29.2934  -13.8507   18.5361 C   0  0  0  0  0  0  0  0  0  0  0  0
  -17.2269  -27.2525   23.2801 C   0  0  0  0  0  0  0  0  0  0  0  0
  -19.6250  -26.7075   21.9768 C   0  0  0  0  0  0  0  0  0  0  0  0
  -25.7376  -26.9842   21.7227 C   0  0  0  0  0  0  0  0  0  0  0  0
  -28.1041  -22.6290   13.4422 C   0  0  0  0  0  0  0  0  0  0  0  0
  -29.4098  -20.9984   14.6561 C   0  0  0  0  0  0  0  0  0  0  0  0
  -28.4447  -12.6233   20.8932 C   0  0  0  0  0  0  0  0  0  0  0  0
  -28.4322  -12.7548   18.4808 C   0  0  0  0  0  0  0  0  0  0  0  0
  -26.6460  -26.7343   20.6950 C   0  0  0  0  0  0  0  0  0  0  0  0
  -28.6682   -9.3089   20.2625 C   0  0  0  0  0  0  0  0  0  0  0  0
  -28.9607   -8.2130   21.0743 C   0  0  0  0  0  0  0  0  0  0  0  0
  -26.6993  -29.0898   20.1774 C   0  0  0  0  0  0  0  0  0  0  0  0
  -28.4551  -22.8891   15.8184 C   0  0  0  0  0  0  0  0  0  0  0  0
  -26.8306   -8.4677   22.1856 C   0  0  0  0  0  0  0  0  0  0  0  0
  -29.7302  -14.3329   19.7700 C   0  0  0  0  0  0  0  0  0  0  0  0
  -32.0268  -15.4423   19.8177 C   0  0  0  0  0  0  0  0  0  0  0  0
  -17.9983  -28.3160   22.7855 C   0  0  0  0  0  0  0  0  0  0  0  0
  -25.2942  -28.2896   21.9788 C   0  0  0  0  0  0  0  0  0  0  0  0
  -19.2066  -28.0416   22.1168 C   0  0  0  0  0  0  0  0  0  0  0  0
  -25.7873  -29.3540   21.2106 C   0  0  0  0  0  0  0  0  0  0  0  0
  -27.9028  -23.3459   14.6217 C   0  0  0  0  0  0  0  0  0  0  0  0
  -29.2085  -21.7153   15.8356 C   0  0  0  0  0  0  0  0  0  0  0  0
  -28.0079  -12.1411   19.6594 C   0  0  0  0  0  0  0  0  0  0  0  0
  -27.1247  -27.7867   19.9203 C   0  0  0  0  0  0  0  0  0  0  0  0
  -27.4570   -9.9843   20.4123 C   0  0  0  0  0  0  0  0  0  0  0  0
  -28.0419   -7.7923   22.0358 C   0  0  0  0  0  0  0  0  0  0  0  0
  -26.5382   -9.5636   21.3738 C   0  0  0  0  0  0  0  0  0  0  0  0
  -30.6193  -15.4653   19.8265 C   0  0  0  0  0  0  0  0  0  0  0  0
  -32.3923  -16.7644   19.8871 C   0  0  0  0  0  0  0  0  0  0  0  0
  -32.9237  -14.3256   19.7526 C   0  0  0  0  0  0  0  0  0  0  0  0
  -22.4741  -29.7546   21.9110 C   0  0  0  0  0  0  0  0  0  0  0  0
  -24.1688  -32.2317   23.1413 C   0  0  0  0  0  0  0  0  0  0  0  0
  -27.5120  -26.4976   16.1974 C   0  0  0  0  0  0  0  0  0  0  0  0
  -27.1934  -33.7648   23.5269 C   0  0  0  0  0  0  0  0  0  0  0  0
  -29.6652  -21.8418   18.3098 C   0  0  0  0  0  0  0  0  0  0  0  0
  -17.4717  -29.7222   22.9273 C   0  0  0  0  0  0  0  0  0  0  0  0
  -24.3346  -28.5460   23.1084 C   0  0  0  0  0  0  0  0  0  0  0  0
  -25.3581  -30.7763   21.4582 C   0  0  0  0  0  0  0  0  0  0  0  0
  -18.5315  -30.7959   22.6941 C   0  0  0  0  0  0  0  0  0  0  0  0
  -30.8681  -20.9886   21.5505 C   0  0  0  0  0  0  0  0  0  0  0  0
  -19.3395  -30.4845   21.4383 C   0  0  0  0  0  0  0  0  0  0  0  0
  -31.0747  -19.4742   21.4735 C   0  0  0  0  0  0  0  0  0  0  0  0
  -29.6385  -21.4342   20.7610 C   0  0  0  0  0  0  0  0  0  0  0  0
  -29.8064  -19.4670   19.2875 C   0  0  0  0  0  0  0  0  0  0  0  0
  -20.0834  -29.1509   21.5775 C   0  0  1  0  0  0  0  0  0  0  0  0
  -23.5573  -29.8489   22.9480 C   0  0  1  0  0  0  0  0  0  0  0  0
  -31.0701  -18.9783   20.0141 C   0  0  2  0  0  0  0  0  0  0  0  0
  -28.2569  -35.7945   24.5499 C   0  0  0  0  0  0  0  0  0  0  0  0
  -23.0649  -33.9497   20.8741 C   0  0  0  0  0  0  0  0  0  0  0  0
  -24.8512  -35.6318   21.3724 C   0  0  0  0  0  0  0  0  0  0  0  0
  -23.1389  -35.0841   23.1017 C   0  0  0  0  0  0  0  0  0  0  0  0
  -29.0284  -26.0901   14.2467 C   0  0  0  0  0  0  0  0  0  0  0  0
  -28.9090  -32.1200   25.2905 C   0  0  0  0  0  0  0  0  0  0  0  0
  -27.0917  -24.6092   14.6027 C   0  0  0  0  0  0  0  0  0  0  0  0
  -28.4202  -27.6726   16.5449 C   0  0  0  0  0  0  0  0  0  0  0  0
  -27.9747  -28.4247   17.7927 C   0  0  0  0  0  0  0  0  0  1  0  0
  -24.9389  -33.3932   22.5607 C   0  0  1  0  0  0  0  0  0  0  0  0
  -27.8853  -34.3338   24.7525 C   0  0  2  0  0  0  0  0  0  0  0  0
  -24.0053  -34.4878   21.9711 C   0  0  0  0  0  0  0  0  0  0  0  0
  -30.1243  -16.7039   19.8961 N   0  0  0  0  0  0  0  0  0  0  0  0
  -31.2269  -17.4715   19.9319 N   0  0  0  0  0  0  0  0  0  0  0  0
  -24.4135  -30.9750   22.5699 N   0  0  0  0  0  0  0  0  0  0  0  0
  -29.7054  -20.9315   19.3871 N   0  0  0  0  0  0  0  0  0  0  0  0
  -33.5937  -17.3795   19.9138 N   0  0  0  0  0  0  0  0  0  0  0  0
  -32.3805  -13.0353   19.6858 N   0  0  0  0  0  0  0  0  0  0  0  0
  -29.7691  -21.2506   17.0511 N   0  0  0  0  0  0  0  0  0  0  0  0
  -21.2608  -29.3127   22.4033 N   0  0  0  0  0  0  0  0  0  0  0  0
  -25.8216  -33.8683   23.6206 N   0  0  0  0  0  0  0  0  0  0  0  0
  -27.8642  -25.7619   15.0603 N   0  0  0  0  0  0  0  0  0  0  0  0
  -29.1298  -33.5687   25.0467 N   0  3  0  0  0  0  0  0  0  0  0  0
  -34.1700  -14.4668   19.7702 O   0  0  0  0  0  0  0  0  0  0  0  0
  -22.7203  -30.0614   20.7504 O   0  0  0  0  0  0  0  0  0  0  0  0
  -23.3846  -32.4311   24.0723 O   0  0  0  0  0  0  0  0  0  0  0  0
  -26.5309  -26.2346   16.8978 O   0  0  0  0  0  0  0  0  0  0  0  0
  -27.8085  -33.2805   22.5795 O   0  0  0  0  0  0  0  0  0  0  0  0
  -29.5748  -23.0587   18.4915 O   0  0  0  0  0  0  0  0  0  0  0  0
  -27.1677  -11.0716   19.6050 O   0  0  0  0  0  0  0  0  0  0  0  0
  -28.0109  -27.5455   18.9161 O   0  0  0  0  0  0  0  0  0  1  0  0
  -28.3222   -6.7390   22.8143 F   0  0  0  0  0  0  0  0  0  0  0  0
  -25.3723  -10.2077   21.5215 F   0  0  0  0  0  0  0  0  0  0  0  0
  1  2  1  0  0  0  0
  1  6  2  0  0  0  0
  2  7  2  0  0  0  0
  3  9  2  0  0  0  0
  3 10  1  0  0  0  0
  4 11  2  0  0  0  0
  4 19  1  0  0  0  0
  5 12  1  0  0  0  0
  5 19  2  0  0  0  0
  6 21  1  0  0  0  0
  7 23  1  0  0  0  0
  8 13  2  0  0  0  0
  8 22  1  0  0  0  0
  9 25  1  0  0  0  0
 10 26  2  0  0  0  0
 11 27  1  0  0  0  0
 12 27  2  0  0  0  0
 13 28  1  0  0  0  0
 14 15  2  0  0  0  0
 14 29  1  0  0  0  0
 15 30  1  0  0  0  0
 16 24  1  0  0  0  0
 16 28  2  0  0  0  0
 17 25  2  0  0  0  0
 17 26  1  0  0  0  0
 18 30  2  0  0  0  0
 18 31  1  0  0  0  0
 19 32  1  0  0  0  0
 20 32  1  0  0  0  0
 20 33  2  0  0  0  0
 20 34  1  0  0  0  0
 21 23  2  0  0  0  0
 21 40  1  0  0  0  0
 22 24  2  0  0  0  0
 22 41  1  0  0  0  0
 23 49  1  0  0  0  0
 24 42  1  0  0  0  0
 25 58  1  0  0  0  0
 26 70  1  0  0  0  0
 27 81  1  0  0  0  0
 28 82  1  0  0  0  0
 29 31  2  0  0  0  0
 29 81  1  0  0  0  0
 30 83  1  0  0  0  0
 31 84  1  0  0  0  0
 32 64  2  0  0  0  0
 33 65  1  0  0  0  0
 33 68  1  0  0  0  0
 34 69  1  0  0  0  0
 34 75  2  0  0  0  0
 35 50  1  0  0  0  0
 35 71  1  0  0  0  0
 35 76  2  0  0  0  0
 36 61  1  0  0  0  0
 36 66  1  0  0  0  0
 36 77  2  0  0  0  0
 37 59  1  0  0  0  0
 37 73  1  0  0  0  0
 37 78  2  0  0  0  0
 38 62  1  0  0  0  0
 38 72  1  0  0  0  0
 38 79  2  0  0  0  0
 39 67  1  0  0  0  0
 39 70  1  0  0  0  0
 39 80  2  0  0  0  0
 40 43  1  0  0  0  0
 41 50  1  0  0  0  0
 42 66  1  0  0  0  0
 43 45  1  0  0  0  0
 44 46  1  0  0  0  0
 44 47  1  0  0  0  0
 45 49  1  0  0  0  0
 46 51  1  0  0  0  0
 47 67  1  0  0  0  0
 48 51  1  0  0  0  0
 48 67  1  0  0  0  0
 49 71  1  0  0  0  0
 50 66  1  0  0  0  0
 51 65  1  0  0  0  0
 52 62  1  0  0  0  0
 53 63  1  0  0  0  0
 54 63  1  0  0  0  0
 55 63  1  0  0  0  0
 56 73  1  0  0  0  0
 57 74  1  0  0  0  0
 58 73  1  0  0  0  0
 59 60  1  0  0  0  0
 60 82  1  0  0  0  0
 61 63  1  0  0  0  0
 61 72  1  0  0  0  0
 62 74  1  0  0  0  0
 64 65  1  0  0  0  0
M  CHG  1  74   1
M  ISO  4  39 100  60 101  70 100  82 101
M  END
> <Batch ID>
0057

> <Smiles>
CNC(C)C(=O)NC(C(=O)N1Cc2cc([101O:1][101CH2:1]CC(=O)N(C)Cc3cccc([100NH:0][100C:0](=O)N4CCCC(n5nc(-c6ccc(Oc7ccc(F)cc7F)cc6)c(C(N)=O)c5N)C4)c3)ccc2CC1C(=O)NC1CCCc2ccccc21)C(C)(C)C

> <Shape>
0.252

> <Color>
0.110

> <Negative vol penalty>
0.000

$$$$

  -OEChem-04042322553D

 92101  0     1  0  0  0  0  0999 V2000
  -40.5056  -26.3287   17.8556 C   0  0  0  0  0  0  0  0  0  0  0  0
  -39.5274  -25.5686   18.4888 C   0  0  0  0  0  0  0  0  0  0  0  0
  -22.7057  -10.3299   20.2326 C   0  0  0  0  0  0  0  0  0  0  0  0
  -24.0702   -9.7571   22.1424 C   0  0  0  0  0  0  0  0  0  0  0  0
  -40.3187  -27.6996   17.6836 C   0  0  0  0  0  0  0  0  0  0  0  0
  -38.3622  -26.1792   18.9513 C   0  0  0  0  0  0  0  0  0  0  0  0
  -34.1972  -23.5372   17.8035 C   0  0  0  0  0  0  0  0  0  0  0  0
  -31.3380  -14.0236   26.0587 C   0  0  0  0  0  0  0  0  0  0  0  0
  -30.7887  -13.2723   25.0198 C   0  0  0  0  0  0  0  0  0  0  0  0
  -21.8969   -9.2202   20.4776 C   0  0  0  0  0  0  0  0  0  0  0  0
  -23.2613   -8.6474   22.3874 C   0  0  0  0  0  0  0  0  0  0  0  0
  -33.9151  -22.4203   18.5889 C   0  0  0  0  0  0  0  0  0  0  0  0
  -22.8804   -5.5217   21.1564 C   0  0  0  0  0  0  0  0  0  0  0  0
  -23.5108   -4.3117   21.4464 C   0  0  0  0  0  0  0  0  0  0  0  0
  -32.3041  -23.7119   19.8362 C   0  0  0  0  0  0  0  0  0  0  0  0
  -32.4114  -14.2014   23.4899 C   0  0  0  0  0  0  0  0  0  0  0  0
  -22.4025   -4.2487   23.5923 C   0  0  0  0  0  0  0  0  0  0  0  0
  -23.7924  -10.5983   21.0650 C   0  0  0  0  0  0  0  0  0  0  0  0
  -24.2348  -13.0955   20.7893 C   0  0  0  0  0  0  0  0  0  0  0  0
  -39.1463  -28.3257   18.1356 C   0  0  0  0  0  0  0  0  0  0  0  0
  -33.5417  -24.7548   18.0361 C   0  0  0  0  0  0  0  0  0  0  0  0
  -38.1601  -27.5600   18.7863 C   0  0  0  0  0  0  0  0  0  0  0  0
  -32.5778  -24.8420   19.0507 C   0  0  0  0  0  0  0  0  0  0  0  0
  -32.4240  -14.8640   25.8132 C   0  0  0  0  0  0  0  0  0  0  0  0
  -32.9607  -14.9528   24.5288 C   0  0  0  0  0  0  0  0  0  0  0  0
  -31.3254  -13.3611   23.7354 C   0  0  0  0  0  0  0  0  0  0  0  0
  -22.1747   -8.3790   21.5550 C   0  0  0  0  0  0  0  0  0  0  0  0
  -32.9705  -22.5084   19.6073 C   0  0  0  0  0  0  0  0  0  0  0  0
  -22.0112   -6.0953   22.0843 C   0  0  0  0  0  0  0  0  0  0  0  0
  -23.2718   -3.6752   22.6644 C   0  0  0  0  0  0  0  0  0  0  0  0
  -21.7722   -5.4588   23.3023 C   0  0  0  0  0  0  0  0  0  0  0  0
  -24.6287  -11.7441   20.8121 C   0  0  0  0  0  0  0  0  0  0  0  0
  -25.3889  -13.7847   20.5073 C   0  0  0  0  0  0  0  0  0  0  0  0
  -35.3168  -15.6717   24.8918 C   0  0  0  0  0  0  0  0  0  0  0  0
  -35.3886  -12.1300   25.9056 C   0  0  0  0  0  0  0  0  0  0  0  0
  -35.0234  -13.3195   25.4113 C   0  0  0  0  0  0  0  0  0  0  0  0
  -22.9415  -13.6759   21.0039 C   0  0  0  0  0  0  0  0  0  0  0  0
  -35.8132  -14.5403   25.4293 C   0  0  0  0  0  0  0  0  0  0  0  0
  -34.4681  -27.6752   18.8826 C   0  0  0  0  0  0  0  0  0  0  0  0
  -31.3507  -28.3961   18.3498 C   0  0  0  0  0  0  0  0  0  0  0  0
  -33.5879  -19.7738   21.9071 C   0  0  0  0  0  0  0  0  0  0  0  0
  -28.1458  -26.8797   19.0180 C   0  0  0  0  0  0  0  0  0  0  0  0
  -31.1786  -12.5691   21.3485 C   0  0  0  0  0  0  0  0  0  0  0  0
  -39.0101  -29.8185   17.9692 C   0  0  0  0  0  0  0  0  0  0  0  0
  -33.8380  -25.9430   17.1627 C   0  0  0  0  0  0  0  0  0  0  0  0
  -31.8316  -26.1206   19.3277 C   0  0  0  0  0  0  0  0  0  0  0  0
  -36.1867  -16.9124   24.9405 C   0  0  0  0  0  0  0  0  0  0  0  0
  -37.5816  -30.3241   18.1538 C   0  0  0  0  0  0  0  0  0  0  0  0
  -36.1261  -17.7238   23.6512 C   0  0  0  0  0  0  0  0  0  0  0  0
  -29.5843  -13.2987   18.2496 C   0  0  0  0  0  0  0  0  0  0  0  0
  -36.9543  -29.7082   19.4004 C   0  0  0  0  0  0  0  0  0  0  0  0
  -28.0963  -13.1118   18.5546 C   0  0  0  0  0  0  0  0  0  0  0  0
  -30.4476  -12.2797   18.9912 C   0  0  0  0  0  0  0  0  0  0  0  0
  -28.7371  -12.0287   20.7463 C   0  0  0  0  0  0  0  0  0  0  0  0
  -33.8734  -16.7365   23.1296 C   0  0  0  0  0  0  0  0  0  0  0  0
  -36.8716  -28.1817   19.2797 C   0  0  1  0  0  0  0  0  0  0  0  0
  -33.4833  -27.2723   17.8218 C   0  0  1  0  0  0  0  0  0  0  0  0
  -27.8326  -13.0737   20.0727 C   0  0  2  0  0  0  0  0  0  0  0  0
  -34.6731  -18.0294   23.3066 C   0  0  2  0  0  0  0  0  0  0  0  0
  -32.9926  -15.6571   26.9445 C   0  0  0  0  0  0  0  0  0  0  0  0
  -37.1814  -14.5302   26.0491 C   0  0  0  0  0  0  0  0  0  0  0  0
  -25.9525  -27.1051   17.8196 C   0  0  0  0  0  0  0  0  0  0  0  0
  -30.7794  -30.5737   20.4093 C   0  0  0  0  0  0  0  0  0  0  0  0
  -28.4083  -29.7744   20.4939 C   0  0  0  0  0  0  0  0  0  0  0  0
  -29.3450  -30.6710   18.3629 C   0  0  0  0  0  0  0  0  0  0  0  0
  -27.9214  -23.9534   18.6362 C   0  0  0  0  0  0  0  0  0  0  0  0
  -33.7506  -20.4831   20.5797 C   0  0  0  0  0  0  0  0  0  1  0  0
  -30.0963  -28.4030   19.1897 C   0  0  1  0  0  0  0  0  0  0  0  0
  -27.2038  -26.2602   18.0014 C   0  0  2  0  0  0  0  0  0  0  0  0
  -29.6787  -29.8377   19.6194 C   0  0  0  0  0  0  0  0  0  0  0  0
  -25.9311  -11.5823   20.5642 N   0  0  0  0  0  0  0  0  0  0  0  0
  -26.3657  -12.8410   20.3829 N   0  0  0  0  0  0  0  0  0  0  0  0
  -34.0688  -15.8065   24.2602 N   0  0  0  0  0  0  0  0  0  0  0  0
  -32.1610  -27.2563   18.4507 N   0  0  0  0  0  0  0  0  0  0  0  0
  -30.1463  -12.3031   20.4242 N   0  0  0  0  0  0  0  0  0  0  0  0
  -25.6533  -15.0999   20.3561 N   0  0  0  0  0  0  0  0  0  0  0  0
  -22.5793  -14.0367   22.3088 N   0  0  0  0  0  0  0  0  0  0  0  0
  -30.7666  -12.5979   22.6804 N   0  0  0  0  0  0  0  0  0  0  0  0
  -35.7663  -27.8014   18.4263 N   0  0  0  0  0  0  0  0  0  0  0  0
  -34.5943  -18.8444   22.1182 N   0  0  0  0  0  0  0  0  0  0  0  0
  -29.0835  -27.6922   18.4167 N   0  0  0  0  0  0  0  0  0  0  0  0
  -26.7909  -24.8974   18.4410 N   0  3  0  0  0  0  0  0  0  0  0  0
  -22.1246  -13.8536   20.0686 O   0  0  0  0  0  0  0  0  0  0  0  0
  -34.0788  -27.8594   20.0299 O   0  0  0  0  0  0  0  0  0  0  0  0
  -31.5986  -29.3631   17.6252 O   0  0  0  0  0  0  0  0  0  0  0  0
  -32.6645  -20.0144   22.6801 O   0  0  0  0  0  0  0  0  0  0  0  0
  -28.0562  -26.6672   20.2252 O   0  0  0  0  0  0  0  0  0  0  0  0
  -32.3371  -12.7844   20.9832 O   0  0  0  0  0  0  0  0  0  0  0  0
  -21.3855   -7.2962   21.7945 O   0  0  0  0  0  0  0  0  0  0  0  0
  -32.6937  -21.4200   20.3758 O   0  0  0  0  0  0  0  0  0  1  0  0
  -23.8760   -2.5124   22.9421 F   0  0  0  0  0  0  0  0  0  0  0  0
  -20.9372   -6.0044   24.1972 F   0  0  0  0  0  0  0  0  0  0  0  0
  1  2  1  0  0  0  0
  1  5  2  0  0  0  0
  2  6  2  0  0  0  0
  3 10  2  0  0  0  0
  3 18  1  0  0  0  0
  4 11  1  0  0  0  0
  4 18  2  0  0  0  0
  5 20  1  0  0  0  0
  6 22  1  0  0  0  0
  7 12  2  0  0  0  0
  7 21  1  0  0  0  0
  8  9  2  0  0  0  0
  8 24  1  0  0  0  0
  9 26  1  0  0  0  0
 10 27  1  0  0  0  0
 11 27  2  0  0  0  0
 12 28  1  0  0  0  0
 13 14  2  0  0  0  0
 13 29  1  0  0  0  0
 14 30  1  0  0  0  0
 15 23  1  0  0  0  0
 15 28  2  0  0  0  0
 16 25  1  0  0  0  0
 16 26  2  0  0  0  0
 17 30  2  0  0  0  0
 17 31  1  0  0  0  0
 18 32  1  0  0  0  0
 19 32  1  0  0  0  0
 19 33  2  0  0  0  0
 19 37  1  0  0  0  0
 20 22  2  0  0  0  0
 20 44  1  0  0  0  0
 21 23  2  0  0  0  0
 21 45  1  0  0  0  0
 22 56  1  0  0  0  0
 23 46  1  0  0  0  0
 24 25  2  0  0  0  0
 24 60  1  0  0  0  0
 25 73  1  0  0  0  0
 26 78  1  0  0  0  0
 27 89  1  0  0  0  0
 28 90  1  0  0  0  0
 29 31  2  0  0  0  0
 29 89  1  0  0  0  0
 30 91  1  0  0  0  0
 31 92  1  0  0  0  0
 32 71  2  0  0  0  0
 33 72  1  0  0  0  0
 33 76  1  0  0  0  0
 34 38  2  0  0  0  0
 34 47  1  0  0  0  0
 34 73  1  0  0  0  0
 35 36  2  0  0  0  0
 36 38  1  0  0  0  0
 37 77  1  0  0  0  0
 37 83  2  0  0  0  0
 38 61  1  0  0  0  0
 39 57  1  0  0  0  0
 39 79  1  0  0  0  0
 39 84  2  0  0  0  0
 40 68  1  0  0  0  0
 40 74  1  0  0  0  0
 40 85  2  0  0  0  0
 41 67  1  0  0  0  0
 41 80  1  0  0  0  0
 41 86  2  0  0  0  0
 42 69  1  0  0  0  0
 42 81  1  0  0  0  0
 42 87  2  0  0  0  0
 43 75  1  0  0  0  0
 43 78  1  0  0  0  0
 43 88  2  0  0  0  0
 44 48  1  0  0  0  0
 45 57  1  0  0  0  0
 46 74  1  0  0  0  0
 47 49  1  0  0  0  0
 48 51  1  0  0  0  0
 49 59  1  0  0  0  0
 50 52  1  0  0  0  0
 50 53  1  0  0  0  0
 51 56  1  0  0  0  0
 52 58  1  0  0  0  0
 53 75  1  0  0  0  0
 54 58  1  0  0  0  0
 54 75  1  0  0  0  0
 55 59  1  0  0  0  0
 55 73  1  0  0  0  0
 56 79  1  0  0  0  0
 57 74  1  0  0  0  0
 58 72  1  0  0  0  0
 59 80  1  0  0  0  0
 62 69  1  0  0  0  0
 63 70  1  0  0  0  0
 64 70  1  0  0  0  0
 65 70  1  0  0  0  0
 66 82  1  0  0  0  0
 67 90  1  0  0  0  0
 68 70  1  0  0  0  0
 68 81  1  0  0  0  0
 69 82  1  0  0  0  0
 71 72  1  0  0  0  0
M  CHG  1  82   1
M  ISO  4  43 100  67 101  78 100  90 101
M  END
> <Batch ID>
0057

> <Smiles>
C=CC(C)=C1CCC(NC(=O)[101CH2:1][101O:1]c2ccc3c(c2)CN(C(=O)C(NC(=O)C(C)NC)C(C)(C)C)C(C(=O)NC2CCCc4ccccc42)C3)CN1c1cc([100NH:0][100C:0](=O)N2CCCC(n3nc(-c4ccc(Oc5ccc(F)cc5F)cc4)c(C(N)=O)c3N)C2)ccc1C

> <Shape>
0.176

> <Color>
0.154

> <Negative vol penalty>
0.000

$$$$

  -OEChem-04042322553D

 90 99  0     1  0  0  0  0  0999 V2000
  -18.0629  -32.0354   19.7456 C   0  0  0  0  0  0  0  0  0  0  0  0
  -19.2506  -31.4632   19.3012 C   0  0  0  0  0  0  0  0  0  0  0  0
  -26.7467  -12.9632   19.0044 C   0  0  0  0  0  0  0  0  0  0  0  0
  -26.6165  -12.6657   21.3985 C   0  0  0  0  0  0  0  0  0  0  0  0
  -17.8500  -32.2257   21.1103 C   0  0  0  0  0  0  0  0  0  0  0  0
  -20.2266  -31.0820   20.2213 C   0  0  0  0  0  0  0  0  0  0  0  0
  -22.1588  -26.5091   19.2215 C   0  0  0  0  0  0  0  0  0  0  0  0
  -25.4561  -12.4515   18.8706 C   0  0  0  0  0  0  0  0  0  0  0  0
  -25.3258  -12.1540   21.2647 C   0  0  0  0  0  0  0  0  0  0  0  0
  -23.1017  -26.4262   18.1978 C   0  0  0  0  0  0  0  0  0  0  0  0
  -23.8859   -9.2282   20.3715 C   0  0  0  0  0  0  0  0  0  0  0  0
  -23.5675   -8.0766   21.0912 C   0  0  0  0  0  0  0  0  0  0  0  0
  -24.8710  -26.4073   19.8374 C   0  0  0  0  0  0  0  0  0  0  0  0
  -29.5727  -21.0197   18.7028 C   0  0  0  0  0  0  0  0  0  0  0  0
  -29.9033  -22.2107   20.7787 C   0  0  0  0  0  0  0  0  0  0  0  0
  -21.8155   -9.2794   22.2406 C   0  0  0  0  0  0  0  0  0  0  0  0
  -27.3270  -13.0702   20.2684 C   0  0  0  0  0  0  0  0  0  0  0  0
  -29.8421  -13.0826   19.8418 C   0  0  0  0  0  0  0  0  0  0  0  0
  -18.8198  -31.8378   22.0482 C   0  0  0  0  0  0  0  0  0  0  0  0
  -22.5661  -26.5527   20.5626 C   0  0  0  0  0  0  0  0  0  0  0  0
  -20.0270  -31.2685   21.5998 C   0  0  0  0  0  0  0  0  0  0  0  0
  -23.9312  -26.4881   20.8763 C   0  0  0  0  0  0  0  0  0  0  0  0
  -29.1384  -22.1981   18.0959 C   0  0  0  0  0  0  0  0  0  0  0  0
  -29.4690  -23.3891   20.1718 C   0  0  0  0  0  0  0  0  0  0  0  0
  -29.0866  -23.3828   18.8304 C   0  0  0  0  0  0  0  0  0  0  0  0
  -29.9551  -21.0260   20.0443 C   0  0  0  0  0  0  0  0  0  0  0  0
  -24.7456  -12.0469   20.0007 C   0  0  0  0  0  0  0  0  0  0  0  0
  -24.4582  -26.3782   18.5056 C   0  0  0  0  0  0  0  0  0  0  0  0
  -23.1692  -10.4055   20.5864 C   0  0  0  0  0  0  0  0  0  0  0  0
  -22.5323   -8.1022   22.0257 C   0  0  0  0  0  0  0  0  0  0  0  0
  -22.1340  -10.4310   21.5209 C   0  0  0  0  0  0  0  0  0  0  0  0
  -28.6604  -13.5982   20.4072 C   0  0  0  0  0  0  0  0  0  0  0  0
  -30.8286  -13.9373   20.2692 C   0  0  0  0  0  0  0  0  0  0  0  0
  -29.5469  -25.4659   17.5628 C   0  0  0  0  0  0  0  0  0  0  0  0
  -30.0310  -11.9338   19.0050 C   0  0  0  0  0  0  0  0  0  0  0  0
  -22.2847  -28.6609   22.9248 C   0  0  0  0  0  0  0  0  0  0  0  0
  -23.6193  -26.2838   24.6828 C   0  0  0  0  0  0  0  0  0  0  0  0
  -25.5393  -23.4633   24.7574 C   0  0  0  0  0  0  0  0  0  0  0  0
  -30.8103  -19.6619   21.9819 C   0  0  0  0  0  0  0  0  0  0  0  0
  -30.7835  -26.7327   21.2185 C   0  0  0  0  0  0  0  0  0  0  0  0
  -18.5645  -32.1069   23.5100 C   0  0  0  0  0  0  0  0  0  0  0  0
  -21.5353  -26.6152   21.6562 C   0  0  0  0  0  0  0  0  0  0  0  0
  -24.4194  -26.5115   22.3009 C   0  0  0  0  0  0  0  0  0  0  0  0
  -29.0371  -26.8533   17.2167 C   0  0  0  0  0  0  0  0  0  0  0  0
  -19.4915  -31.3320   24.4430 C   0  0  0  0  0  0  0  0  0  0  0  0
  -27.5835  -26.8943   16.8071 C   0  0  0  0  0  0  0  0  0  0  0  0
  -31.9312  -16.8722   23.8893 C   0  0  0  0  0  0  0  0  0  0  0  0
  -20.9364  -31.4328   23.9645 C   0  0  0  0  0  0  0  0  0  0  0  0
  -31.3322  -15.6687   23.1578 C   0  0  0  0  0  0  0  0  0  0  0  0
  -30.9828  -18.0698   23.8820 C   0  0  0  0  0  0  0  0  0  0  0  0
  -29.8952  -17.2633   21.8239 C   0  0  0  0  0  0  0  0  0  0  0  0
  -27.1819  -24.8052   18.0777 C   0  0  0  0  0  0  0  0  0  0  0  0
  -21.0993  -30.8193   22.5686 C   0  0  1  0  0  0  0  0  0  0  0  0
  -22.0861  -27.1721   22.9653 C   0  0  1  0  0  0  0  0  0  0  0  0
  -30.8406  -16.0532   21.7485 C   0  0  2  0  0  0  0  0  0  0  0  0
  -26.7495  -26.2525   17.8945 C   0  0  2  0  0  0  0  0  0  1  0  0
  -28.7341  -22.1595   16.6576 C   0  0  0  0  0  0  0  0  0  0  0  0
  -26.4850  -21.7655   26.3449 C   0  0  0  0  0  0  0  0  0  0  0  0
  -25.7248  -28.3009   25.5819 C   0  0  0  0  0  0  0  0  0  0  0  0
  -27.1315  -26.3811   26.3590 C   0  0  0  0  0  0  0  0  0  0  0  0
  -24.8952  -26.7835   27.3885 C   0  0  0  0  0  0  0  0  0  0  0  0
  -24.0819  -21.2495   23.4407 C   0  0  0  0  0  0  0  0  0  0  0  0
  -29.4247  -24.6430   20.9842 C   0  0  0  0  0  0  0  0  0  0  0  0
  -25.0300  -25.8756   25.0327 C   0  0  1  0  0  0  0  0  0  0  0  0
  -25.3259  -22.1169   25.4253 C   0  0  2  0  0  0  0  0  0  0  0  0
  -25.6866  -26.8368   26.0635 C   0  0  0  0  0  0  0  0  0  0  0  0
  -28.8747  -14.6954   21.1382 N   0  0  0  0  0  0  0  0  0  0  0  0
  -30.2024  -14.8761   21.0351 N   0  0  0  0  0  0  0  0  0  0  0  0
  -28.6356  -24.6059   18.2013 N   0  0  0  0  0  0  0  0  0  0  0  0
  -23.3732  -26.5795   23.3345 N   0  0  0  0  0  0  0  0  0  0  0  0
  -30.5623  -18.3787   22.5136 N   0  0  0  0  0  0  0  0  0  0  0  0
  -32.1620  -13.9698   20.0609 N   0  0  0  0  0  0  0  0  0  0  0  0
  -30.2920  -10.6989   19.6144 N   0  0  0  0  0  0  0  0  0  0  0  0
  -31.8669  -27.4996   20.8030 N   0  0  0  0  0  0  0  0  0  0  0  0
  -29.9670  -27.2092   22.2389 N   0  0  0  0  0  0  0  0  0  0  0  0
  -30.3956  -19.8287   20.6610 N   0  0  0  0  0  0  0  0  0  0  0  0
  -21.1335  -29.3749   22.6521 N   0  0  0  0  0  0  0  0  0  0  0  0
  -24.9557  -24.4869   25.4735 N   0  0  0  0  0  0  0  0  0  0  0  0
  -30.5438  -25.5048   20.6017 N   0  3  0  0  0  0  0  0  0  0  0  0
  -25.1984  -21.0440   24.3989 N   0  3  0  0  0  0  0  0  0  0  0  0
  -30.7280  -25.2050   17.3186 O   0  0  0  0  0  0  0  0  0  0  0  0
  -29.9864  -12.0034   17.7533 O   0  0  0  0  0  0  0  0  0  0  0  0
  -23.3996  -29.1274   23.1275 O   0  0  0  0  0  0  0  0  0  0  0  0
  -22.7654  -26.3313   25.5718 O   0  0  0  0  0  0  0  0  0  0  0  0
  -26.1646  -23.5944   23.7074 O   0  0  0  0  0  0  0  0  0  0  0  0
  -31.3752  -20.5391   22.6402 O   0  0  0  0  0  0  0  0  0  0  0  0
  -23.4860  -11.5477   19.8705 O   0  0  0  0  0  0  0  0  0  0  0  0
  -25.3807  -26.2979   17.5084 O   0  0  0  0  0  0  0  0  0  1  0  0
  -22.2256   -6.9958   22.7156 F   0  0  0  0  0  0  0  0  0  0  0  0
  -21.4411  -11.5587   21.7308 F   0  0  0  0  0  0  0  0  0  0  0  0
  1  2  1  0  0  0  0
  1  5  2  0  0  0  0
  2  6  2  0  0  0  0
  3  8  2  0  0  0  0
  3 17  1  0  0  0  0
  4  9  1  0  0  0  0
  4 17  2  0  0  0  0
  5 19  1  0  0  0  0
  6 21  1  0  0  0  0
  7 10  2  0  0  0  0
  7 20  1  0  0  0  0
  8 27  1  0  0  0  0
  9 27  2  0  0  0  0
 10 28  1  0  0  0  0
 11 12  2  0  0  0  0
 11 29  1  0  0  0  0
 12 30  1  0  0  0  0
 13 22  1  0  0  0  0
 13 28  2  0  0  0  0
 14 23  2  0  0  0  0
 14 26  1  0  0  0  0
 15 24  1  0  0  0  0
 15 26  2  0  0  0  0
 16 30  2  0  0  0  0
 16 31  1  0  0  0  0
 17 32  1  0  0  0  0
 18 32  1  0  0  0  0
 18 33  2  0  0  0  0
 18 35  1  0  0  0  0
 19 21  2  0  0  0  0
 19 41  1  0  0  0  0
 20 22  2  0  0  0  0
 20 42  1  0  0  0  0
 21 53  1  0  0  0  0
 22 43  1  0  0  0  0
 23 25  1  0  0  0  0
 23 57  1  0  0  0  0
 24 25  2  0  0  0  0
 24 63  1  0  0  0  0
 25 69  1  0  0  0  0
 26 76  1  0  0  0  0
 27 87  1  0  0  0  0
 28 88  1  0  0  0  0
 29 31  2  0  0  0  0
 29 87  1  0  0  0  0
 30 89  1  0  0  0  0
 31 90  1  0  0  0  0
 32 67  2  0  0  0  0
 33 68  1  0  0  0  0
 33 72  1  0  0  0  0
 34 44  1  0  0  0  0
 34 69  1  0  0  0  0
 34 81  2  0  0  0  0
 35 73  1  0  0  0  0
 35 82  2  0  0  0  0
 36 54  1  0  0  0  0
 36 77  1  0  0  0  0
 36 83  2  0  0  0  0
 37 64  1  0  0  0  0
 37 70  1  0  0  0  0
 37 84  2  0  0  0  0
 38 65  1  0  0  0  0
 38 78  1  0  0  0  0
 38 85  2  0  0  0  0
 39 71  1  0  0  0  0
 39 76  1  0  0  0  0
 39 86  2  0  0  0  0
 40 74  1  0  0  0  0
 40 75  1  0  0  0  0
 40 79  2  0  0  0  0
 41 45  1  0  0  0  0
 42 54  1  0  0  0  0
 43 70  1  0  0  0  0
 44 46  1  0  0  0  0
 45 48  1  0  0  0  0
 46 56  1  0  0  0  0
 47 49  1  0  0  0  0
 47 50  1  0  0  0  0
 48 53  1  0  0  0  0
 49 55  1  0  0  0  0
 50 71  1  0  0  0  0
 51 55  1  0  0  0  0
 51 71  1  0  0  0  0
 52 56  1  0  0  0  0
 52 69  1  0  0  0  0
 53 77  1  0  0  0  0
 54 70  1  0  0  0  0
 55 68  1  0  0  0  0
 56 88  1  0  0  0  0
 58 65  1  0  0  0  0
 59 66  1  0  0  0  0
 60 66  1  0  0  0  0
 61 66  1  0  0  0  0
 62 80  1  0  0  0  0
 63 79  1  0  0  0  0
 64 66  1  0  0  0  0
 64 78  1  0  0  0  0
 65 80  1  0  0  0  0
 67 68  1  0  0  0  0
M  CHG  2  79   1  80   1
M  ISO  4  39 100  56 101  76 100  88 101
M  END
> <Batch ID>
0057

> <Smiles>
CNC(C)C(=O)NC(C(=O)N1Cc2cc([101O:1][101CH:1]3CCC(=O)N(c4c(C)cc([100NH:0][100C:0](=O)N5CCCC(n6nc(-c7ccc(Oc8ccc(F)cc8F)cc7)c(C(N)=O)c6N)C5)cc4CN=C(N)N)C3)ccc2CC1C(=O)NC1CCCc2ccccc21)C(C)(C)C

> <Shape>
0.254

> <Color>
0.064

> <Negative vol penalty>
0.000

$$$$

  -OEChem-04042322553D

 82 90  0     1  0  0  0  0  0999 V2000
  -18.7581  -28.0723   22.8076 C   0  0  0  0  0  0  0  0  0  0  0  0
  -18.3198  -26.9009   22.1984 C   0  0  0  0  0  0  0  0  0  0  0  0
  -24.6269  -11.9425   21.4547 C   0  0  0  0  0  0  0  0  0  0  0  0
  -29.8015  -23.5528   19.0744 C   0  0  0  0  0  0  0  0  0  0  0  0
  -27.8934  -23.2830   20.5317 C   0  0  0  0  0  0  0  0  0  0  0  0
  -23.8725  -12.6102   20.4901 C   0  0  0  0  0  0  0  0  0  0  0  0
  -20.0600  -28.1558   23.2996 C   0  0  0  0  0  0  0  0  0  0  0  0
  -19.1835  -25.8126   22.0798 C   0  0  0  0  0  0  0  0  0  0  0  0
  -19.1665  -18.6492   22.0504 C   0  0  0  0  0  0  0  0  0  0  0  0
  -25.9676  -12.2768   21.6461 C   0  0  0  0  0  0  0  0  0  0  0  0
  -29.6975  -24.9386   19.1948 C   0  0  0  0  0  0  0  0  0  0  0  0
  -27.7894  -24.6687   20.6521 C   0  0  0  0  0  0  0  0  0  0  0  0
  -19.6100  -17.5742   21.2813 C   0  0  0  0  0  0  0  0  0  0  0  0
  -26.5920  -27.2457   18.8201 C   0  0  0  0  0  0  0  0  0  0  0  0
  -25.3224  -27.8124   18.7086 C   0  0  0  0  0  0  0  0  0  0  0  0
  -21.8120  -17.8053   22.2388 C   0  0  0  0  0  0  0  0  0  0  0  0
  -25.5270  -28.7104   20.9422 C   0  0  0  0  0  0  0  0  0  0  0  0
  -28.8994  -22.7250   19.7428 C   0  0  0  0  0  0  0  0  0  0  0  0
  -24.4587  -13.6122   19.7168 C   0  0  0  0  0  0  0  0  0  0  0  0
  -29.7523  -20.4225   20.4346 C   0  0  0  0  0  0  0  0  0  0  0  0
  -20.9370  -27.0646   23.1957 C   0  0  0  0  0  0  0  0  0  0  0  0
  -20.0467  -19.3183   22.9129 C   0  0  0  0  0  0  0  0  0  0  0  0
  -20.4987  -25.8821   22.5697 C   0  0  0  0  0  0  0  0  0  0  0  0
  -21.3766  -18.8869   23.0197 C   0  0  0  0  0  0  0  0  0  0  0  0
  -26.5538  -13.2788   20.8727 C   0  0  0  0  0  0  0  0  0  0  0  0
  -25.7993  -13.9465   19.9081 C   0  0  0  0  0  0  0  0  0  0  0  0
  -28.6915  -25.4965   19.9837 C   0  0  0  0  0  0  0  0  0  0  0  0
  -20.9336  -17.1540   21.3732 C   0  0  0  0  0  0  0  0  0  0  0  0
  -27.3292  -27.4113   19.9927 C   0  0  0  0  0  0  0  0  0  0  0  0
  -24.7899  -28.5448   19.7696 C   0  0  0  0  0  0  0  0  0  0  0  0
  -26.7967  -28.1436   21.0537 C   0  0  0  0  0  0  0  0  0  0  0  0
  -29.0060  -21.2935   19.6184 C   0  0  0  0  0  0  0  0  0  0  0  0
  -29.5235  -19.1758   19.9055 C   0  0  0  0  0  0  0  0  0  0  0  0
  -23.6306  -14.2906   18.7142 C   0  0  0  0  0  0  0  0  0  0  0  0
  -30.5784  -20.7142   21.5695 C   0  0  0  0  0  0  0  0  0  0  0  0
  -22.8893  -15.3975   18.9149 C   0  0  0  0  0  0  0  0  0  0  0  0
  -21.1599  -22.2885   23.1194 C   0  0  0  0  0  0  0  0  0  0  0  0
  -22.4816  -21.1864   25.8692 C   0  0  0  0  0  0  0  0  0  0  0  0
  -23.5957  -18.5183   27.6821 C   0  0  0  0  0  0  0  0  0  0  0  0
  -26.0840  -15.3260   17.8194 C   0  0  0  0  0  0  0  0  0  0  0  0
  -22.3501  -27.2184   23.7000 C   0  0  0  0  0  0  0  0  0  0  0  0
  -19.5460  -20.4591   23.7556 C   0  0  0  0  0  0  0  0  0  0  0  0
  -22.3563  -19.5586   23.9456 C   0  0  0  0  0  0  0  0  0  0  0  0
  -23.0839  -25.8908   23.8702 C   0  0  0  0  0  0  0  0  0  0  0  0
  -27.3135  -17.7937   15.5665 C   0  0  0  0  0  0  0  0  0  0  0  0
  -22.8811  -25.0075   22.6432 C   0  0  0  0  0  0  0  0  0  0  0  0
  -27.9248  -18.8525   16.4869 C   0  0  0  0  0  0  0  0  0  0  0  0
  -26.0492  -17.1817   16.1671 C   0  0  0  0  0  0  0  0  0  0  0  0
  -26.8134  -17.7108   18.4486 C   0  0  0  0  0  0  0  0  0  0  0  0
  -21.3981  -24.6715   22.4445 C   0  0  1  0  0  0  0  0  0  0  0  0
  -20.6594  -21.3940   24.2181 C   0  0  1  0  0  0  0  0  0  0  0  0
  -28.1253  -18.3095   17.9154 C   0  0  2  0  0  0  0  0  0  0  0  0
  -27.9924  -13.6127   21.1022 C   0  0  0  0  0  0  0  0  0  0  0  0
  -22.0965  -15.9891   17.7781 C   0  0  0  0  0  0  0  0  0  0  0  0
  -24.6578  -17.9354   29.8797 C   0  0  0  0  0  0  0  0  0  0  0  0
  -25.1684  -22.1986   24.8364 C   0  0  0  0  0  0  0  0  0  0  0  0
  -26.2896  -20.7801   26.5681 C   0  0  0  0  0  0  0  0  0  0  0  0
  -24.7587  -22.6215   27.2669 C   0  0  0  0  0  0  0  0  0  0  0  0
  -21.2896  -16.8463   28.4851 C   0  0  0  0  0  0  0  0  0  0  0  0
  -22.7419  -16.1118   20.2331 C   0  0  0  0  0  0  0  0  0  1  0  0
  -23.7881  -20.5261   26.2377 C   0  0  1  0  0  0  0  0  0  0  0  0
  -23.3502  -18.1059   29.1222 C   0  0  2  0  0  0  0  0  0  0  0  0
  -24.9835  -21.5199   26.2083 C   0  0  0  0  0  0  0  0  0  0  0  0
  -28.3522  -20.6543   18.6447 N   0  0  0  0  0  0  0  0  0  0  0  0
  -28.6869  -19.3684   18.8457 N   0  0  0  0  0  0  0  0  0  0  0  0
  -21.8204  -20.6734   24.7442 N   0  0  0  0  0  0  0  0  0  0  0  0
  -26.3160  -16.6848   17.5187 N   0  0  0  0  0  0  0  0  0  0  0  0
  -29.9584  -17.9445   20.2481 N   0  0  0  0  0  0  0  0  0  0  0  0
  -30.7037  -22.0486   21.9794 N   0  0  0  0  0  0  0  0  0  0  0  0
  -26.4047  -14.9618   19.1267 N   0  0  0  0  0  0  0  0  0  0  0  0
  -20.9862  -23.6366   23.3684 N   0  0  0  0  0  0  0  0  0  0  0  0
  -23.5726  -19.8888   27.5322 N   0  0  0  0  0  0  0  0  0  0  0  0
  -22.6065  -16.8154   29.1719 N   0  3  0  0  0  0  0  0  0  0  0  0
  -31.2006  -19.8200   22.1915 O   0  0  0  0  0  0  0  0  0  0  0  0
  -21.6675  -21.7924   22.1205 O   0  0  0  0  0  0  0  0  0  0  0  0
  -22.0595  -22.1184   26.5584 O   0  0  0  0  0  0  0  0  0  0  0  0
  -23.7924  -17.7061   26.7809 O   0  0  0  0  0  0  0  0  0  0  0  0
  -25.6596  -14.5369   16.9713 O   0  0  0  0  0  0  0  0  0  0  0  0
  -28.5898  -26.8487   20.1016 O   0  0  0  0  0  0  0  0  0  0  0  0
  -21.3693  -16.1054   20.6231 O   0  0  0  0  0  0  0  0  0  1  0  0
  -23.5713  -29.0903   19.6618 F   0  0  0  0  0  0  0  0  0  0  0  0
  -27.5006  -28.3071   22.1822 F   0  0  0  0  0  0  0  0  0  0  0  0
  1  2  1  0  0  0  0
  1  7  2  0  0  0  0
  2  8  2  0  0  0  0
  3  6  2  0  0  0  0
  3 10  1  0  0  0  0
  4 11  2  0  0  0  0
  4 18  1  0  0  0  0
  5 12  1  0  0  0  0
  5 18  2  0  0  0  0
  6 19  1  0  0  0  0
  7 21  1  0  0  0  0
  8 23  1  0  0  0  0
  9 13  2  0  0  0  0
  9 22  1  0  0  0  0
 10 25  2  0  0  0  0
 11 27  1  0  0  0  0
 12 27  2  0  0  0  0
 13 28  1  0  0  0  0
 14 15  2  0  0  0  0
 14 29  1  0  0  0  0
 15 30  1  0  0  0  0
 16 24  1  0  0  0  0
 16 28  2  0  0  0  0
 17 30  2  0  0  0  0
 17 31  1  0  0  0  0
 18 32  1  0  0  0  0
 19 26  2  0  0  0  0
 19 34  1  0  0  0  0
 20 32  1  0  0  0  0
 20 33  2  0  0  0  0
 20 35  1  0  0  0  0
 21 23  2  0  0  0  0
 21 41  1  0  0  0  0
 22 24  2  0  0  0  0
 22 42  1  0  0  0  0
 23 50  1  0  0  0  0
 24 43  1  0  0  0  0
 25 26  1  0  0  0  0
 25 53  1  0  0  0  0
 26 70  1  0  0  0  0
 27 79  1  0  0  0  0
 28 80  1  0  0  0  0
 29 31  2  0  0  0  0
 29 79  1  0  0  0  0
 30 81  1  0  0  0  0
 31 82  1  0  0  0  0
 32 64  2  0  0  0  0
 33 65  1  0  0  0  0
 33 68  1  0  0  0  0
 34 36  2  0  0  0  0
 35 69  1  0  0  0  0
 35 74  2  0  0  0  0
 36 54  1  0  0  0  0
 36 60  1  0  0  0  0
 37 51  1  0  0  0  0
 37 71  1  0  0  0  0
 37 75  2  0  0  0  0
 38 61  1  0  0  0  0
 38 66  1  0  0  0  0
 38 76  2  0  0  0  0
 39 62  1  0  0  0  0
 39 72  1  0  0  0  0
 39 77  2  0  0  0  0
 40 67  1  0  0  0  0
 40 70  1  0  0  0  0
 40 78  2  0  0  0  0
 41 44  1  0  0  0  0
 42 51  1  0  0  0  0
 43 66  1  0  0  0  0
 44 46  1  0  0  0  0
 45 47  1  0  0  0  0
 45 48  1  0  0  0  0
 46 50  1  0  0  0  0
 47 52  1  0  0  0  0
 48 67  1  0  0  0  0
 49 52  1  0  0  0  0
 49 67  1  0  0  0  0
 50 71  1  0  0  0  0
 51 66  1  0  0  0  0
 52 65  1  0  0  0  0
 55 62  1  0  0  0  0
 56 63  1  0  0  0  0
 57 63  1  0  0  0  0
 58 63  1  0  0  0  0
 59 73  1  0  0  0  0
 60 80  1  0  0  0  0
 61 63  1  0  0  0  0
 61 72  1  0  0  0  0
 62 73  1  0  0  0  0
 64 65  1  0  0  0  0
M  CHG  1  73   1
M  ISO  4  40 100  60 101  70 100  80 101
M  END
> <Batch ID>
0057

> <Smiles>
CNC(C)C(=O)NC(C(=O)N1Cc2cc([101O:1][101CH2:1]C(C)=Cc3cccc(C)c3[100NH:0][100C:0](=O)N3CCCC(n4nc(-c5ccc(Oc6ccc(F)cc6F)cc5)c(C(N)=O)c4N)C3)ccc2CC1C(=O)NC1CCCc2ccccc21)C(C)(C)C

> <Shape>
0.188

> <Color>
0.083

> <Negative vol penalty>
0.000

$$$$

  -OEChem-04042322553D

 86 94  0     1  0  0  0  0  0999 V2000
  -27.3342  -10.7713   22.8865 C   0  0  0  0  0  0  0  0  0  0  0  0
  -28.1181  -11.8713   22.5535 C   0  0  0  0  0  0  0  0  0  0  0  0
  -30.0696  -28.5573   16.5313 C   0  0  0  0  0  0  0  0  0  0  0  0
  -19.5667  -28.6413   23.7257 C   0  0  0  0  0  0  0  0  0  0  0  0
  -19.7016  -27.1812   21.8056 C   0  0  0  0  0  0  0  0  0  0  0  0
  -30.5027  -27.2916   16.9260 C   0  0  0  0  0  0  0  0  0  0  0  0
  -26.0776  -10.6104   22.3044 C   0  0  0  0  0  0  0  0  0  0  0  0
  -27.6462  -12.8105   21.6372 C   0  0  0  0  0  0  0  0  0  0  0  0
  -28.6631  -18.8493   21.7009 C   0  0  0  0  0  0  0  0  0  0  0  0
  -29.0943  -29.2236   17.2735 C   0  0  0  0  0  0  0  0  0  0  0  0
  -18.1975  -28.3921   23.8191 C   0  0  0  0  0  0  0  0  0  0  0  0
  -18.3323  -26.9318   21.8990 C   0  0  0  0  0  0  0  0  0  0  0  0
  -29.5702  -19.6551   21.0142 C   0  0  0  0  0  0  0  0  0  0  0  0
  -16.2733  -25.0157   23.7724 C   0  0  0  0  0  0  0  0  0  0  0  0
  -15.8470  -23.6933   23.6493 C   0  0  0  0  0  0  0  0  0  0  0  0
  -27.8798  -20.1408   19.3632 C   0  0  0  0  0  0  0  0  0  0  0  0
  -14.5134  -24.3020   21.7288 C   0  0  0  0  0  0  0  0  0  0  0  0
  -20.3187  -28.0359   22.7189 C   0  0  0  0  0  0  0  0  0  0  0  0
  -29.9605  -26.6919   18.0628 C   0  0  0  0  0  0  0  0  0  0  0  0
  -22.7727  -27.5745   23.2411 C   0  0  0  0  0  0  0  0  0  0  0  0
  -25.5860  -11.5532   21.3877 C   0  0  0  0  0  0  0  0  0  0  0  0
  -27.3585  -18.6743   21.2172 C   0  0  0  0  0  0  0  0  0  0  0  0
  -26.3824  -12.6613   21.0412 C   0  0  0  0  0  0  0  0  0  0  0  0
  -26.9572  -19.3344   20.0470 C   0  0  0  0  0  0  0  0  0  0  0  0
  -28.9853  -27.3581   18.8049 C   0  0  0  0  0  0  0  0  0  0  0  0
  -28.5521  -28.6240   18.4102 C   0  0  0  0  0  0  0  0  0  0  0  0
  -17.5803  -27.5373   22.9058 C   0  0  0  0  0  0  0  0  0  0  0  0
  -29.1796  -20.2987   19.8436 C   0  0  0  0  0  0  0  0  0  0  0  0
  -15.8196  -25.9813   22.8738 C   0  0  0  0  0  0  0  0  0  0  0  0
  -14.9671  -23.3365   22.6275 C   0  0  0  0  0  0  0  0  0  0  0  0
  -14.9397  -25.6244   21.8520 C   0  0  0  0  0  0  0  0  0  0  0  0
  -21.7330  -28.2935   22.6215 C   0  0  0  0  0  0  0  0  0  0  0  0
  -23.9199  -28.2119   22.8359 C   0  0  0  0  0  0  0  0  0  0  0  0
  -30.4434  -25.3436   18.4576 C   0  0  0  0  0  0  0  0  0  0  0  0
  -22.7073  -26.4325   24.1055 C   0  0  0  0  0  0  0  0  0  0  0  0
  -25.6545  -16.1873   20.2100 C   0  0  0  0  0  0  0  0  0  0  0  0
  -31.1310  -22.2818   16.4918 C   0  0  0  0  0  0  0  0  0  0  0  0
  -23.2567  -18.3694   20.1037 C   0  0  0  0  0  0  0  0  0  0  0  0
  -22.3283  -21.6439   19.8538 C   0  0  0  0  0  0  0  0  0  0  0  0
  -27.0368  -30.5815   18.8770 C   0  0  0  0  0  0  0  0  0  0  0  0
  -24.2414  -11.3118   20.7488 C   0  0  0  0  0  0  0  0  0  0  0  0
  -26.3839  -17.8232   21.9841 C   0  0  0  0  0  0  0  0  0  0  0  0
  -25.5621  -19.1955   19.4969 C   0  0  0  0  0  0  0  0  0  0  0  0
  -23.6586  -12.5488   20.0702 C   0  0  0  0  0  0  0  0  0  0  0  0
  -24.5658  -32.6194   20.4321 C   0  0  0  0  0  0  0  0  0  0  0  0
  -24.7169  -13.2361   19.2132 C   0  0  0  0  0  0  0  0  0  0  0  0
  -23.6941  -31.6165   21.1913 C   0  0  0  0  0  0  0  0  0  0  0  0
  -25.0479  -32.0550   19.0969 C   0  0  0  0  0  0  0  0  0  0  0  0
  -24.8473  -29.7486   19.9391 C   0  0  0  0  0  0  0  0  0  0  0  0
  -25.8951  -13.7147   20.0701 C   0  0  1  0  0  0  0  0  0  0  0  0
  -25.2363  -17.3052   21.1227 C   0  0  1  0  0  0  0  0  0  0  0  0
  -24.3912  -30.2479   21.3198 C   0  0  2  0  0  0  0  0  0  0  0  0
  -28.4039  -26.7132   20.0246 C   0  0  0  0  0  0  0  0  0  0  0  0
  -32.2429  -21.2663   16.5719 C   0  0  0  0  0  0  0  0  0  0  0  0
  -20.2965  -23.1135   19.7569 C   0  0  0  0  0  0  0  0  0  0  0  0
  -22.7940  -17.5346   17.2056 C   0  0  0  0  0  0  0  0  0  0  0  0
  -21.4566  -19.6273   16.8894 C   0  0  0  0  0  0  0  0  0  0  0  0
  -20.7056  -17.9053   18.5306 C   0  0  0  0  0  0  0  0  0  0  0  0
  -23.1024  -23.0744   22.3263 C   0  0  0  0  0  0  0  0  0  0  0  0
  -29.5259  -22.1832   18.4349 C   0  0  0  0  0  0  0  0  0  1  0  0
  -30.6511  -22.9690   17.7692 C   0  0  2  0  0  0  0  0  0  0  0  0
  -22.7276  -19.3266   19.0632 C   0  0  1  0  0  0  0  0  0  0  0  0
  -21.3442  -22.4759   20.6561 C   0  0  2  0  0  0  0  0  0  0  0  0
  -21.9479  -18.5997   17.9313 C   0  0  0  0  0  0  0  0  0  0  0  0
  -22.1802  -29.3100   21.8793 N   0  0  0  0  0  0  0  0  0  0  0  0
  -23.5135  -29.2343   22.0299 N   0  0  0  0  0  0  0  0  0  0  0  0
  -24.6476  -18.3474   20.2792 N   0  0  0  0  0  0  0  0  0  0  0  0
  -25.7017  -30.7600   19.2973 N   0  0  0  0  0  0  0  0  0  0  0  0
  -25.2266  -27.9919   23.0940 N   0  0  0  0  0  0  0  0  0  0  0  0
  -21.4480  -25.9038   24.4200 N   0  0  0  0  0  0  0  0  0  0  0  0
  -27.5631  -29.3192   19.1493 N   0  0  0  0  0  0  0  0  0  0  0  0
  -30.2588  -24.3316   17.5241 N   0  0  0  0  0  0  0  0  0  0  0  0
  -25.5471  -14.9304   20.7740 N   0  0  0  0  0  0  0  0  0  0  0  0
  -21.9427  -20.3218   19.7856 N   0  0  0  0  0  0  0  0  0  0  0  0
  -22.0584  -23.5603   21.3876 N   0  3  0  0  0  0  0  0  0  0  0  0
  -30.9491  -25.1882   19.5661 O   0  0  0  0  0  0  0  0  0  0  0  0
  -23.7343  -25.9068   24.5980 O   0  0  0  0  0  0  0  0  0  0  0  0
  -26.0443  -16.4457   19.0773 O   0  0  0  0  0  0  0  0  0  0  0  0
  -30.5986  -22.5322   15.4071 O   0  0  0  0  0  0  0  0  0  0  0  0
  -22.4645  -17.6722   20.7425 O   0  0  0  0  0  0  0  0  0  0  0  0
  -23.3362  -22.1199   19.3360 O   0  0  0  0  0  0  0  0  0  0  0  0
  -27.6755  -31.4909   18.3413 O   0  0  0  0  0  0  0  0  0  0  0  0
  -16.2443  -27.2936   22.9968 O   0  0  0  0  0  0  0  0  0  0  0  0
  -30.0632  -21.0852   19.1710 O   0  0  0  0  0  0  0  0  0  1  0  0
  -14.5591  -22.0662   22.5084 F   0  0  0  0  0  0  0  0  0  0  0  0
  -14.5013  -26.5474   20.9849 F   0  0  0  0  0  0  0  0  0  0  0  0
  1  2  1  0  0  0  0
  1  7  2  0  0  0  0
  2  8  2  0  0  0  0
  3  6  2  0  0  0  0
  3 10  1  0  0  0  0
  4 11  2  0  0  0  0
  4 18  1  0  0  0  0
  5 12  1  0  0  0  0
  5 18  2  0  0  0  0
  6 19  1  0  0  0  0
  7 21  1  0  0  0  0
  8 23  1  0  0  0  0
  9 13  2  0  0  0  0
  9 22  1  0  0  0  0
 10 26  2  0  0  0  0
 11 27  1  0  0  0  0
 12 27  2  0  0  0  0
 13 28  1  0  0  0  0
 14 15  2  0  0  0  0
 14 29  1  0  0  0  0
 15 30  1  0  0  0  0
 16 24  1  0  0  0  0
 16 28  2  0  0  0  0
 17 30  2  0  0  0  0
 17 31  1  0  0  0  0
 18 32  1  0  0  0  0
 19 25  2  0  0  0  0
 19 34  1  0  0  0  0
 20 32  1  0  0  0  0
 20 33  2  0  0  0  0
 20 35  1  0  0  0  0
 21 23  2  0  0  0  0
 21 41  1  0  0  0  0
 22 24  2  0  0  0  0
 22 42  1  0  0  0  0
 23 50  1  0  0  0  0
 24 43  1  0  0  0  0
 25 26  1  0  0  0  0
 25 53  1  0  0  0  0
 26 71  1  0  0  0  0
 27 83  1  0  0  0  0
 28 84  1  0  0  0  0
 29 31  2  0  0  0  0
 29 83  1  0  0  0  0
 30 85  1  0  0  0  0
 31 86  1  0  0  0  0
 32 65  2  0  0  0  0
 33 66  1  0  0  0  0
 33 69  1  0  0  0  0
 34 72  1  0  0  0  0
 34 76  2  0  0  0  0
 35 70  1  0  0  0  0
 35 77  2  0  0  0  0
 36 51  1  0  0  0  0
 36 73  1  0  0  0  0
 36 78  2  0  0  0  0
 37 54  1  0  0  0  0
 37 61  1  0  0  0  0
 37 79  2  0  0  0  0
 38 62  1  0  0  0  0
 38 67  1  0  0  0  0
 38 80  2  0  0  0  0
 39 63  1  0  0  0  0
 39 74  1  0  0  0  0
 39 81  2  0  0  0  0
 40 68  1  0  0  0  0
 40 71  1  0  0  0  0
 40 82  2  0  0  0  0
 41 44  1  0  0  0  0
 42 51  1  0  0  0  0
 43 67  1  0  0  0  0
 44 46  1  0  0  0  0
 45 47  1  0  0  0  0
 45 48  1  0  0  0  0
 46 50  1  0  0  0  0
 47 52  1  0  0  0  0
 48 68  1  0  0  0  0
 49 52  1  0  0  0  0
 49 68  1  0  0  0  0
 50 73  1  0  0  0  0
 51 67  1  0  0  0  0
 52 66  1  0  0  0  0
 55 63  1  0  0  0  0
 56 64  1  0  0  0  0
 57 64  1  0  0  0  0
 58 64  1  0  0  0  0
 59 75  1  0  0  0  0
 60 61  1  0  0  0  0
 60 84  1  0  0  0  0
 61 72  1  0  0  0  0
 62 64  1  0  0  0  0
 62 74  1  0  0  0  0
 63 75  1  0  0  0  0
 65 66  1  0  0  0  0
M  CHG  1  75   1
M  ISO  4  40 100  60 101  71 100  84 101
M  END
> <Batch ID>
0057

> <Smiles>
CNC(C)C(=O)NC(C(=O)N1Cc2cc([101O:1][101CH2:1]C(NC(=O)c3cccc([100NH:0][100C:0](=O)N4CCCC(n5nc(-c6ccc(Oc7ccc(F)cc7F)cc6)c(C(N)=O)c5N)C4)c3C)C(C)=O)ccc2CC1C(=O)NC1CCCc2ccccc21)C(C)(C)C

> <Shape>
0.209

> <Color>
0.074

> <Negative vol penalty>
0.000

$$$$

  -OEChem-04042322553D

 85 93  0     1  0  0  0  0  0999 V2000
  -19.6268  -23.5181   25.7574 C   0  0  0  0  0  0  0  0  0  0  0  0
  -19.8466  -23.9871   24.4663 C   0  0  0  0  0  0  0  0  0  0  0  0
  -26.5213  -12.6701   21.6457 C   0  0  0  0  0  0  0  0  0  0  0  0
  -26.0324  -13.7330   19.5319 C   0  0  0  0  0  0  0  0  0  0  0  0
  -28.0924  -22.3141   17.1006 C   0  0  0  0  0  0  0  0  0  0  0  0
  -20.1073  -24.2378   26.8506 C   0  0  0  0  0  0  0  0  0  0  0  0
  -20.5462  -25.1769   24.2676 C   0  0  0  0  0  0  0  0  0  0  0  0
  -23.9907  -24.8116   20.5734 C   0  0  0  0  0  0  0  0  0  0  0  0
  -28.6179  -21.2583   17.8453 C   0  0  0  0  0  0  0  0  0  0  0  0
  -25.2590  -12.0767   21.6393 C   0  0  0  0  0  0  0  0  0  0  0  0
  -24.7701  -13.1396   19.5255 C   0  0  0  0  0  0  0  0  0  0  0  0
  -23.5255  -24.8743   19.2606 C   0  0  0  0  0  0  0  0  0  0  0  0
  -23.7532   -9.4409   20.1501 C   0  0  0  0  0  0  0  0  0  0  0  0
  -23.6704   -8.0897   20.4863 C   0  0  0  0  0  0  0  0  0  0  0  0
  -24.1870  -27.1912   19.1433 C   0  0  0  0  0  0  0  0  0  0  0  0
  -28.9497  -22.7458   19.7200 C   0  0  0  0  0  0  0  0  0  0  0  0
  -22.2192   -8.6393   22.3381 C   0  0  0  0  0  0  0  0  0  0  0  0
  -26.9080  -13.4984   20.5920 C   0  0  0  0  0  0  0  0  0  0  0  0
  -27.9956  -23.5858   17.6655 C   0  0  0  0  0  0  0  0  0  0  0  0
  -29.4011  -13.5869   20.0589 C   0  0  0  0  0  0  0  0  0  0  0  0
  -20.8214  -25.4320   26.6648 C   0  0  0  0  0  0  0  0  0  0  0  0
  -24.5485  -25.9432   21.1857 C   0  0  0  0  0  0  0  0  0  0  0  0
  -21.0355  -25.9140   25.3593 C   0  0  0  0  0  0  0  0  0  0  0  0
  -24.6609  -27.1395   20.4631 C   0  0  0  0  0  0  0  0  0  0  0  0
  -28.4242  -23.8016   18.9752 C   0  0  0  0  0  0  0  0  0  0  0  0
  -29.0466  -21.4741   19.1550 C   0  0  0  0  0  0  0  0  0  0  0  0
  -24.3834  -12.3114   20.5792 C   0  0  0  0  0  0  0  0  0  0  0  0
  -23.6210  -26.0650   18.5463 C   0  0  0  0  0  0  0  0  0  0  0  0
  -23.0691  -10.3913   20.9080 C   0  0  0  0  0  0  0  0  0  0  0  0
  -22.9034   -7.6889   21.5802 C   0  0  0  0  0  0  0  0  0  0  0  0
  -22.3021   -9.9905   22.0019 C   0  0  0  0  0  0  0  0  0  0  0  0
  -28.2116  -14.1121   20.5984 C   0  0  0  0  0  0  0  0  0  0  0  0
  -30.3494  -14.5454   20.3206 C   0  0  0  0  0  0  0  0  0  0  0  0
  -27.4354  -24.6893   16.8599 C   0  0  0  0  0  0  0  0  0  0  0  0
  -29.6285  -12.3437   19.3817 C   0  0  0  0  0  0  0  0  0  0  0  0
  -23.8040  -27.7233   23.7116 C   0  0  0  0  0  0  0  0  0  0  0  0
  -26.6314  -29.1647   23.0406 C   0  0  0  0  0  0  0  0  0  0  0  0
  -29.0289  -29.9051   20.7275 C   0  0  0  0  0  0  0  0  0  0  0  0
  -30.0499  -20.4445   21.2238 C   0  0  0  0  0  0  0  0  0  0  0  0
  -21.2803  -26.1999   27.8791 C   0  0  0  0  0  0  0  0  0  0  0  0
  -25.0701  -25.8518   22.5935 C   0  0  0  0  0  0  0  0  0  0  0  0
  -25.2701  -28.3771   21.0679 C   0  0  0  0  0  0  0  0  0  0  0  0
  -22.3367  -27.2570   27.5680 C   0  0  0  0  0  0  0  0  0  0  0  0
  -31.4023  -18.0157   23.4483 C   0  0  0  0  0  0  0  0  0  0  0  0
  -21.9294  -28.0754   26.3468 C   0  0  0  0  0  0  0  0  0  0  0  0
  -30.8508  -16.6906   22.9172 C   0  0  0  0  0  0  0  0  0  0  0  0
  -30.3845  -19.1472   23.3166 C   0  0  0  0  0  0  0  0  0  0  0  0
  -29.2747  -18.0015   21.4391 C   0  0  0  0  0  0  0  0  0  0  0  0
  -21.8114  -27.1876   25.1021 C   0  0  1  0  0  0  0  0  0  0  0  0
  -25.1505  -27.2066   23.2901 C   0  0  1  0  0  0  0  0  0  0  0  0
  -30.2874  -16.8459   21.4910 C   0  0  2  0  0  0  0  0  0  0  0  0
  -28.3282  -25.1536   19.6029 C   0  0  0  0  0  0  0  0  0  0  0  0
  -31.1984  -30.7827   19.8216 C   0  0  0  0  0  0  0  0  0  0  0  0
  -21.8062  -24.5296   16.1087 C   0  0  0  0  0  0  0  0  0  0  0  0
  -25.1288  -31.8202   23.0160 C   0  0  0  0  0  0  0  0  0  0  0  0
  -27.0917  -32.8403   21.8435 C   0  0  0  0  0  0  0  0  0  0  0  0
  -27.3634  -31.8963   24.1365 C   0  0  0  0  0  0  0  0  0  0  0  0
  -30.4219  -27.3506   21.2688 C   0  0  0  0  0  0  0  0  0  0  0  0
  -24.1045  -25.1387   15.2565 C   0  0  0  0  0  0  0  0  0  0  0  0
  -25.5187  -25.5965   15.5950 C   0  0  0  0  0  0  0  0  0  0  0  0
  -27.0608  -30.3266   22.1778 C   0  0  1  0  0  0  0  0  0  0  0  0
  -30.5423  -29.7961   20.7750 C   0  0  2  0  0  0  0  0  0  0  0  0
  -23.2244  -24.9292   16.4948 C   0  0  1  0  0  0  0  0  0  1  0  0
  -26.6479  -31.6983   22.7824 C   0  0  0  0  0  0  0  0  0  0  0  0
  -28.3857  -15.3112   21.1605 N   0  0  0  0  0  0  0  0  0  0  0  0
  -29.6957  -15.5473   20.9757 N   0  0  0  0  0  0  0  0  0  0  0  0
  -25.7599  -28.2391   22.4494 N   0  0  0  0  0  0  0  0  0  0  0  0
  -29.8980  -19.2373   21.9382 N   0  0  0  0  0  0  0  0  0  0  0  0
  -31.6702  -14.6205   20.0521 N   0  0  0  0  0  0  0  0  0  0  0  0
  -28.2072  -25.7507   16.6258 N   0  0  0  0  0  0  0  0  0  0  0  0
  -28.5439  -11.4755   19.1968 N   0  0  0  0  0  0  0  0  0  0  0  0
  -29.5793  -20.4012   19.9118 N   0  0  0  0  0  0  0  0  0  0  0  0
  -23.1232  -26.8833   24.5721 N   0  0  0  0  0  0  0  0  0  0  0  0
  -28.4968  -30.1728   21.9710 N   0  0  0  0  0  0  0  0  0  0  0  0
  -26.1809  -24.5737   16.4052 N   0  3  0  0  0  0  0  0  0  0  0  0
  -30.9746  -28.4204   20.3987 N   0  3  0  0  0  0  0  0  0  0  0  0
  -30.7633  -12.0054   18.9678 O   0  0  0  0  0  0  0  0  0  0  0  0
  -23.4123  -28.8047   23.2888 O   0  0  0  0  0  0  0  0  0  0  0  0
  -27.0593  -29.0776   24.1943 O   0  0  0  0  0  0  0  0  0  0  0  0
  -28.3836  -29.7702   19.6902 O   0  0  0  0  0  0  0  0  0  0  0  0
  -30.5844  -21.4349   21.7292 O   0  0  0  0  0  0  0  0  0  0  0  0
  -23.1516  -11.7323   20.5725 O   0  0  0  0  0  0  0  0  0  0  0  0
  -23.1671  -26.1292   17.2650 O   0  0  0  0  0  0  0  0  0  1  0  0
  -22.8227   -6.3912   21.9020 F   0  0  0  0  0  0  0  0  0  0  0  0
  -21.6416  -10.8989   22.7330 F   0  0  0  0  0  0  0  0  0  0  0  0
  1  2  1  0  0  0  0
  1  6  2  0  0  0  0
  2  7  2  0  0  0  0
  3 10  2  0  0  0  0
  3 18  1  0  0  0  0
  4 11  1  0  0  0  0
  4 18  2  0  0  0  0
  5  9  2  0  0  0  0
  5 19  1  0  0  0  0
  6 21  1  0  0  0  0
  7 23  1  0  0  0  0
  8 12  2  0  0  0  0
  8 22  1  0  0  0  0
  9 26  1  0  0  0  0
 10 27  1  0  0  0  0
 11 27  2  0  0  0  0
 12 28  1  0  0  0  0
 13 14  2  0  0  0  0
 13 29  1  0  0  0  0
 14 30  1  0  0  0  0
 15 24  1  0  0  0  0
 15 28  2  0  0  0  0
 16 25  1  0  0  0  0
 16 26  2  0  0  0  0
 17 30  2  0  0  0  0
 17 31  1  0  0  0  0
 18 32  1  0  0  0  0
 19 25  2  0  0  0  0
 19 34  1  0  0  0  0
 20 32  1  0  0  0  0
 20 33  2  0  0  0  0
 20 35  1  0  0  0  0
 21 23  2  0  0  0  0
 21 40  1  0  0  0  0
 22 24  2  0  0  0  0
 22 41  1  0  0  0  0
 23 49  1  0  0  0  0
 24 42  1  0  0  0  0
 25 52  1  0  0  0  0
 26 72  1  0  0  0  0
 27 82  1  0  0  0  0
 28 83  1  0  0  0  0
 29 31  2  0  0  0  0
 29 82  1  0  0  0  0
 30 84  1  0  0  0  0
 31 85  1  0  0  0  0
 32 65  2  0  0  0  0
 33 66  1  0  0  0  0
 33 69  1  0  0  0  0
 34 70  1  0  0  0  0
 34 75  2  0  0  0  0
 35 71  1  0  0  0  0
 35 77  2  0  0  0  0
 36 50  1  0  0  0  0
 36 73  1  0  0  0  0
 36 78  2  0  0  0  0
 37 61  1  0  0  0  0
 37 67  1  0  0  0  0
 37 79  2  0  0  0  0
 38 62  1  0  0  0  0
 38 74  1  0  0  0  0
 38 80  2  0  0  0  0
 39 68  1  0  0  0  0
 39 72  1  0  0  0  0
 39 81  2  0  0  0  0
 40 43  1  0  0  0  0
 41 50  1  0  0  0  0
 42 67  1  0  0  0  0
 43 45  1  0  0  0  0
 44 46  1  0  0  0  0
 44 47  1  0  0  0  0
 45 49  1  0  0  0  0
 46 51  1  0  0  0  0
 47 68  1  0  0  0  0
 48 51  1  0  0  0  0
 48 68  1  0  0  0  0
 49 73  1  0  0  0  0
 50 67  1  0  0  0  0
 51 66  1  0  0  0  0
 53 62  1  0  0  0  0
 54 63  1  0  0  0  0
 55 64  1  0  0  0  0
 56 64  1  0  0  0  0
 57 64  1  0  0  0  0
 58 76  1  0  0  0  0
 59 60  1  0  0  0  0
 59 63  1  0  0  0  0
 60 75  1  0  0  0  0
 61 64  1  0  0  0  0
 61 74  1  0  0  0  0
 62 76  1  0  0  0  0
 63 83  1  0  0  0  0
 65 66  1  0  0  0  0
M  CHG  2  75   1  76   1
M  ISO  4  39 100  63 101  72 100  83 101
M  END
> <Batch ID>
0057

> <Smiles>
CNC(C)C(=O)NC(C(=O)N1Cc2cc([101O:1][101CH:1](C)CCNC(=N)c3ccc([100NH:0][100C:0](=O)N4CCCC(n5nc(-c6ccc(Oc7ccc(F)cc7F)cc6)c(C(N)=O)c5N)C4)cc3C)ccc2CC1C(=O)NC1CCCc2ccccc21)C(C)(C)C

> <Shape>
0.240

> <Color>
0.070

> <Negative vol penalty>
0.000

$$$$

  -OEChem-04042322553D

 83 91  0     1  0  0  0  0  0999 V2000
  -17.0931  -25.1755   24.1719 C   0  0  0  0  0  0  0  0  0  0  0  0
  -18.2713  -24.6441   24.6867 C   0  0  0  0  0  0  0  0  0  0  0  0
  -32.5347  -17.6724   23.3888 C   0  0  0  0  0  0  0  0  0  0  0  0
  -22.9991   -9.9253   20.0389 C   0  0  0  0  0  0  0  0  0  0  0  0
  -23.6972  -10.0534   22.3482 C   0  0  0  0  0  0  0  0  0  0  0  0
  -17.1460  -26.1931   23.2203 C   0  0  0  0  0  0  0  0  0  0  0  0
  -19.5032  -25.1294   24.2493 C   0  0  0  0  0  0  0  0  0  0  0  0
  -24.6160  -25.7201   27.5684 C   0  0  0  0  0  0  0  0  0  0  0  0
  -31.7238  -18.5836   24.0653 C   0  0  0  0  0  0  0  0  0  0  0  0
  -31.9645  -16.7437   22.5182 C   0  0  0  0  0  0  0  0  0  0  0  0
  -22.2400   -8.7923   20.3312 C   0  0  0  0  0  0  0  0  0  0  0  0
  -22.9381   -8.9203   22.6406 C   0  0  0  0  0  0  0  0  0  0  0  0
  -25.7520  -24.9212   27.6913 C   0  0  0  0  0  0  0  0  0  0  0  0
  -23.2183   -5.5710   22.2738 C   0  0  0  0  0  0  0  0  0  0  0  0
  -23.8065   -4.5829   23.0632 C   0  0  0  0  0  0  0  0  0  0  0  0
  -26.8787  -26.2809   26.0479 C   0  0  0  0  0  0  0  0  0  0  0  0
  -29.7723  -17.6372   23.0007 C   0  0  0  0  0  0  0  0  0  0  0  0
  -22.0613   -4.8604   24.7108 C   0  0  0  0  0  0  0  0  0  0  0  0
  -23.7278  -10.5559   21.0474 C   0  0  0  0  0  0  0  0  0  0  0  0
  -24.0921  -13.0685   20.7988 C   0  0  0  0  0  0  0  0  0  0  0  0
  -18.3791  -26.6978   22.7782 C   0  0  0  0  0  0  0  0  0  0  0  0
  -24.5991  -26.8006   26.6747 C   0  0  0  0  0  0  0  0  0  0  0  0
  -19.5727  -26.1539   23.2899 C   0  0  0  0  0  0  0  0  0  0  0  0
  -25.7422  -27.0935   25.9173 C   0  0  0  0  0  0  0  0  0  0  0  0
  -30.3426  -18.5660   23.8713 C   0  0  0  0  0  0  0  0  0  0  0  0
  -30.5833  -16.7261   22.3242 C   0  0  0  0  0  0  0  0  0  0  0  0
  -22.2094   -8.2898   21.6320 C   0  0  0  0  0  0  0  0  0  0  0  0
  -26.8826  -25.1998   26.9290 C   0  0  0  0  0  0  0  0  0  0  0  0
  -22.0517   -6.2039   22.7029 C   0  0  0  0  0  0  0  0  0  0  0  0
  -23.2279   -4.2275   24.2817 C   0  0  0  0  0  0  0  0  0  0  0  0
  -21.4732   -5.8486   23.9213 C   0  0  0  0  0  0  0  0  0  0  0  0
  -24.5126  -11.7260   20.7459 C   0  0  0  0  0  0  0  0  0  0  0  0
  -25.1993  -13.7901   20.4250 C   0  0  0  0  0  0  0  0  0  0  0  0
  -28.7499  -21.2464   25.9621 C   0  0  0  0  0  0  0  0  0  0  0  0
  -28.9213  -22.2446   26.8398 C   0  0  0  0  0  0  0  0  0  0  0  0
  -22.8148  -13.6143   21.1542 C   0  0  0  0  0  0  0  0  0  0  0  0
  -29.9226  -20.4749   25.4528 C   0  0  0  0  0  0  0  0  0  0  0  0
  -22.8934  -27.5566   24.1012 C   0  0  0  0  0  0  0  0  0  0  0  0
  -24.5307  -30.3486   24.3158 C   0  0  0  0  0  0  0  0  0  0  0  0
  -27.3070  -32.0022   25.4134 C   0  0  0  0  0  0  0  0  0  0  0  0
  -30.6667  -14.8099   20.6909 C   0  0  0  0  0  0  0  0  0  0  0  0
  -18.3866  -27.7657   21.7132 C   0  0  0  0  0  0  0  0  0  0  0  0
  -23.3750  -27.6689   26.5734 C   0  0  0  0  0  0  0  0  0  0  0  0
  -25.7821  -28.2543   24.9584 C   0  0  0  0  0  0  0  0  0  0  0  0
  -19.7275  -28.4827   21.5790 C   0  0  0  0  0  0  0  0  0  0  0  0
  -29.5977  -12.2767   18.4287 C   0  0  0  0  0  0  0  0  0  0  0  0
  -20.8719  -27.4744   21.5539 C   0  0  0  0  0  0  0  0  0  0  0  0
  -28.1449  -12.0181   18.8342 C   0  0  0  0  0  0  0  0  0  0  0  0
  -30.4820  -12.5654   19.6405 C   0  0  0  0  0  0  0  0  0  0  0  0
  -28.5443  -13.3764   20.9277 C   0  0  0  0  0  0  0  0  0  0  0  0
  -20.9280  -26.6709   22.8588 C   0  0  1  0  0  0  0  0  0  0  0  0
  -23.2916  -28.4325   25.2553 C   0  0  1  0  0  0  0  0  0  0  0  0
  -27.6021  -13.1448   19.7351 C   0  0  2  0  0  0  0  0  0  0  0  0
  -28.3812  -34.2701   25.4046 C   0  0  0  0  0  0  0  0  0  0  0  0
  -25.3526  -29.9455   21.4051 C   0  0  0  0  0  0  0  0  0  0  0  0
  -27.1362  -31.6698   21.7427 C   0  0  0  0  0  0  0  0  0  0  0  0
  -24.7349  -32.2950   21.9988 C   0  0  0  0  0  0  0  0  0  0  0  0
  -27.2443  -32.1712   28.3674 C   0  0  0  0  0  0  0  0  0  0  0  0
  -27.7914  -23.0517   27.3931 C   0  0  0  0  0  0  0  0  0  1  0  0
  -25.8390  -30.8656   23.7679 C   0  0  1  0  0  0  0  0  0  0  0  0
  -27.4688  -33.3150   26.1583 C   0  0  2  0  0  0  0  0  0  0  0  0
  -25.7646  -31.1708   22.2452 C   0  0  0  0  0  0  0  0  0  0  0  0
  -25.7875  -11.5996   20.3681 N   0  0  0  0  0  0  0  0  0  0  0  0
  -26.1775  -12.8718   20.1801 N   0  0  0  0  0  0  0  0  0  0  0  0
  -24.5584  -29.0700   24.8902 N   0  0  0  0  0  0  0  0  0  0  0  0
  -29.9076  -13.6463   20.4446 N   0  0  0  0  0  0  0  0  0  0  0  0
  -25.4218  -15.1143   20.2850 N   0  0  0  0  0  0  0  0  0  0  0  0
  -21.7873  -12.7313   21.5130 N   0  0  0  0  0  0  0  0  0  0  0  0
  -29.5197  -19.4920   24.5583 N   0  0  0  0  0  0  0  0  0  0  0  0
  -30.0047  -15.7824   21.4396 N   0  0  0  0  0  0  0  0  0  0  0  0
  -21.5278  -27.4604   23.9130 N   0  0  0  0  0  0  0  0  0  0  0  0
  -26.2005  -32.0148   24.5907 N   0  0  0  0  0  0  0  0  0  0  0  0
  -28.0516  -33.0757   27.5089 N   0  3  0  0  0  0  0  0  0  0  0  0
  -22.5865  -14.8477   21.1377 O   0  0  0  0  0  0  0  0  0  0  0  0
  -31.0624  -20.7326   25.8214 O   0  0  0  0  0  0  0  0  0  0  0  0
  -23.7608  -27.0098   23.4303 O   0  0  0  0  0  0  0  0  0  0  0  0
  -23.5230  -31.0563   24.2433 O   0  0  0  0  0  0  0  0  0  0  0  0
  -28.0865  -31.0611   25.5450 O   0  0  0  0  0  0  0  0  0  0  0  0
  -31.8092  -14.9457   20.2456 O   0  0  0  0  0  0  0  0  0  0  0  0
  -21.4686   -7.1843   21.9176 O   0  0  0  0  0  0  0  0  0  0  0  0
  -27.9925  -24.4213   27.0466 O   0  0  0  0  0  0  0  0  0  1  0  0
  -23.7920   -3.2774   25.0389 F   0  0  0  0  0  0  0  0  0  0  0  0
  -20.3518   -6.4522   24.3383 F   0  0  0  0  0  0  0  0  0  0  0  0
  1  2  1  0  0  0  0
  1  6  2  0  0  0  0
  2  7  2  0  0  0  0
  3  9  2  0  0  0  0
  3 10  1  0  0  0  0
  4 11  2  0  0  0  0
  4 19  1  0  0  0  0
  5 12  1  0  0  0  0
  5 19  2  0  0  0  0
  6 21  1  0  0  0  0
  7 23  1  0  0  0  0
  8 13  2  0  0  0  0
  8 22  1  0  0  0  0
  9 25  1  0  0  0  0
 10 26  2  0  0  0  0
 11 27  1  0  0  0  0
 12 27  2  0  0  0  0
 13 28  1  0  0  0  0
 14 15  2  0  0  0  0
 14 29  1  0  0  0  0
 15 30  1  0  0  0  0
 16 24  1  0  0  0  0
 16 28  2  0  0  0  0
 17 25  2  0  0  0  0
 17 26  1  0  0  0  0
 18 30  2  0  0  0  0
 18 31  1  0  0  0  0
 19 32  1  0  0  0  0
 20 32  1  0  0  0  0
 20 33  2  0  0  0  0
 20 36  1  0  0  0  0
 21 23  2  0  0  0  0
 21 42  1  0  0  0  0
 22 24  2  0  0  0  0
 22 43  1  0  0  0  0
 23 51  1  0  0  0  0
 24 44  1  0  0  0  0
 25 69  1  0  0  0  0
 26 70  1  0  0  0  0
 27 80  1  0  0  0  0
 28 81  1  0  0  0  0
 29 31  2  0  0  0  0
 29 80  1  0  0  0  0
 30 82  1  0  0  0  0
 31 83  1  0  0  0  0
 32 63  2  0  0  0  0
 33 64  1  0  0  0  0
 33 67  1  0  0  0  0
 34 35  2  0  0  0  0
 34 37  1  0  0  0  0
 35 59  1  0  0  0  0
 36 68  1  0  0  0  0
 36 74  2  0  0  0  0
 37 69  1  0  0  0  0
 37 75  2  0  0  0  0
 38 52  1  0  0  0  0
 38 71  1  0  0  0  0
 38 76  2  0  0  0  0
 39 60  1  0  0  0  0
 39 65  1  0  0  0  0
 39 77  2  0  0  0  0
 40 61  1  0  0  0  0
 40 72  1  0  0  0  0
 40 78  2  0  0  0  0
 41 66  1  0  0  0  0
 41 70  1  0  0  0  0
 41 79  2  0  0  0  0
 42 45  1  0  0  0  0
 43 52  1  0  0  0  0
 44 65  1  0  0  0  0
 45 47  1  0  0  0  0
 46 48  1  0  0  0  0
 46 49  1  0  0  0  0
 47 51  1  0  0  0  0
 48 53  1  0  0  0  0
 49 66  1  0  0  0  0
 50 53  1  0  0  0  0
 50 66  1  0  0  0  0
 51 71  1  0  0  0  0
 52 65  1  0  0  0  0
 53 64  1  0  0  0  0
 54 61  1  0  0  0  0
 55 62  1  0  0  0  0
 56 62  1  0  0  0  0
 57 62  1  0  0  0  0
 58 73  1  0  0  0  0
 59 81  1  0  0  0  0
 60 62  1  0  0  0  0
 60 72  1  0  0  0  0
 61 73  1  0  0  0  0
 63 64  1  0  0  0  0
M  CHG  1  73   1
M  ISO  4  41 100  59 101  70 100  81 101
M  END
> <Batch ID>
0057

> <Smiles>
CNC(C)C(=O)NC(C(=O)N1Cc2cc([101O:1][101CH2:1]C=CC(=O)Nc3cccc([100NH:0][100C:0](=O)N4CCCC(n5nc(-c6ccc(Oc7ccc(F)cc7F)cc6)c(C(N)=O)c5N)C4)c3)ccc2CC1C(=O)NC1CCCc2ccccc21)C(C)(C)C

> <Shape>
0.309

> <Color>
0.222

> <Negative vol penalty>
0.000

$$$$

  -OEChem-04042322553D

 92101  0     1  0  0  0  0  0999 V2000
  -23.7412  -34.4487   27.4166 C   0  0  0  0  0  0  0  0  0  0  0  0
  -24.9449  -33.8530   27.7759 C   0  0  0  0  0  0  0  0  0  0  0  0
  -23.2150   -9.8826   20.7575 C   0  0  0  0  0  0  0  0  0  0  0  0
  -23.8871  -10.4808   22.9997 C   0  0  0  0  0  0  0  0  0  0  0  0
  -31.0908  -19.3358   19.3761 C   0  0  0  0  0  0  0  0  0  0  0  0
  -23.1721  -34.1683   26.1761 C   0  0  0  0  0  0  0  0  0  0  0  0
  -25.5859  -32.9860   26.8903 C   0  0  0  0  0  0  0  0  0  0  0  0
  -31.2411  -27.9970   24.2227 C   0  0  0  0  0  0  0  0  0  0  0  0
  -30.9723  -17.9850   19.7029 C   0  0  0  0  0  0  0  0  0  0  0  0
  -22.5042   -8.7932   21.2612 C   0  0  0  0  0  0  0  0  0  0  0  0
  -23.1763   -9.3914   23.5034 C   0  0  0  0  0  0  0  0  0  0  0  0
  -31.5166  -27.0130   23.2742 C   0  0  0  0  0  0  0  0  0  0  0  0
  -19.9586   -8.6225   24.1930 C   0  0  0  0  0  0  0  0  0  0  0  0
  -19.1600   -8.8353   25.3166 C   0  0  0  0  0  0  0  0  0  0  0  0
  -30.7954  -28.5073   21.5235 C   0  0  0  0  0  0  0  0  0  0  0  0
  -29.2705  -18.5278   21.3296 C   0  0  0  0  0  0  0  0  0  0  0  0
  -20.4417   -7.1919   26.5387 C   0  0  0  0  0  0  0  0  0  0  0  0
  -23.9065  -10.7263   21.6268 C   0  0  0  0  0  0  0  0  0  0  0  0
  -30.2992  -20.2827   20.0262 C   0  0  0  0  0  0  0  0  0  0  0  0
  -24.1615  -13.1590   20.9023 C   0  0  0  0  0  0  0  0  0  0  0  0
  -23.8008  -33.2876   25.2805 C   0  0  0  0  0  0  0  0  0  0  0  0
  -30.7299  -29.2423   23.8294 C   0  0  0  0  0  0  0  0  0  0  0  0
  -25.0395  -32.7089   25.6241 C   0  0  0  0  0  0  0  0  0  0  0  0
  -30.5188  -29.5069   22.4685 C   0  0  0  0  0  0  0  0  0  0  0  0
  -29.3890  -19.8787   21.0028 C   0  0  0  0  0  0  0  0  0  0  0  0
  -30.0622  -17.5810   20.6796 C   0  0  0  0  0  0  0  0  0  0  0  0
  -22.4849   -8.5476   22.6341 C   0  0  0  0  0  0  0  0  0  0  0  0
  -31.2917  -27.2674   21.9246 C   0  0  0  0  0  0  0  0  0  0  0  0
  -20.9987   -7.6944   24.2421 C   0  0  0  0  0  0  0  0  0  0  0  0
  -19.4016   -8.1200   26.4895 C   0  0  0  0  0  0  0  0  0  0  0  0
  -21.2403   -6.9791   25.4150 C   0  0  0  0  0  0  0  0  0  0  0  0
  -24.6414  -11.8515   21.1070 C   0  0  0  0  0  0  0  0  0  0  0  0
  -25.2388  -13.8450   20.3972 C   0  0  0  0  0  0  0  0  0  0  0  0
  -27.0626  -22.8020   21.6227 C   0  0  0  0  0  0  0  0  0  0  0  0
  -27.6647  -21.6248   20.9166 C   0  0  0  0  0  0  0  0  0  0  0  0
  -28.6548  -20.9147   23.1079 C   0  0  0  0  0  0  0  0  0  0  0  0
  -26.1656  -23.5571   20.9719 C   0  0  0  0  0  0  0  0  0  0  0  0
  -30.8240  -22.6304   20.5536 C   0  0  0  0  0  0  0  0  0  0  0  0
  -30.4531  -21.7027   19.6529 C   0  0  0  0  0  0  0  0  0  0  0  0
  -22.8584  -13.7047   21.1469 C   0  0  0  0  0  0  0  0  0  0  0  0
  -31.0045  -24.0809   20.2428 C   0  0  0  0  0  0  0  0  0  0  0  0
  -28.0770  -30.9424   24.3929 C   0  0  0  0  0  0  0  0  0  0  0  0
  -29.7692  -33.1930   22.6252 C   0  0  0  0  0  0  0  0  0  0  0  0
  -28.6393  -35.8621   24.4250 C   0  0  0  0  0  0  0  0  0  0  0  0
  -30.6534  -15.1418   20.4625 C   0  0  0  0  0  0  0  0  0  0  0  0
  -23.1446  -33.0256   23.9478 C   0  0  0  0  0  0  0  0  0  0  0  0
  -30.4679  -30.3011   24.8661 C   0  0  0  0  0  0  0  0  0  0  0  0
  -29.9754  -30.8281   21.9953 C   0  0  0  0  0  0  0  0  0  0  0  0
  -27.4595  -23.0671   23.0362 C   0  0  0  0  0  0  0  0  0  0  0  0
  -27.5777  -21.7462   23.7611 C   0  0  0  0  0  0  0  0  0  0  0  0
  -23.6644  -31.7636   23.2671 C   0  0  0  0  0  0  0  0  0  0  0  0
  -29.7166  -12.1776   18.7266 C   0  0  0  0  0  0  0  0  0  0  0  0
  -25.1857  -31.7663   23.2592 C   0  0  0  0  0  0  0  0  0  0  0  0
  -28.2732  -11.9361   19.1743 C   0  0  0  0  0  0  0  0  0  0  0  0
  -30.5770  -12.7320   19.8607 C   0  0  0  0  0  0  0  0  0  0  0  0
  -28.5945  -13.6859   20.9693 C   0  0  0  0  0  0  0  0  0  0  0  0
  -25.7394  -31.7388   24.6895 C   0  0  1  0  0  0  0  0  0  0  0  0
  -29.5103  -31.3933   24.3943 C   0  0  1  0  0  0  0  0  0  0  0  0
  -27.6736  -13.1886   19.8431 C   0  0  2  0  0  0  0  0  0  0  0  0
  -28.1467  -38.2612   24.9716 C   0  0  0  0  0  0  0  0  0  0  0  0
  -32.6723  -33.1965   23.5617 C   0  0  0  0  0  0  0  0  0  0  0  0
  -32.3124  -35.5134   24.4396 C   0  0  0  0  0  0  0  0  0  0  0  0
  -32.0779  -35.0560   21.9986 C   0  0  0  0  0  0  0  0  0  0  0  0
  -26.0237  -35.7606   23.0439 C   0  0  0  0  0  0  0  0  0  0  0  0
  -31.4269  -24.9495   21.4095 C   0  0  0  0  0  0  0  0  0  1  0  0
  -30.3022  -34.2201   23.5925 C   0  0  1  0  0  0  0  0  0  0  0  0
  -27.8890  -37.1139   24.0073 C   0  0  2  0  0  0  0  0  0  0  0  0
  -31.8247  -34.4750   23.4068 C   0  0  0  0  0  0  0  0  0  0  0  0
  -25.9237  -11.7127   20.7602 N   0  0  0  0  0  0  0  0  0  0  0  0
  -26.2587  -12.9418   20.3323 N   0  0  0  0  0  0  0  0  0  0  0  0
  -28.5532  -20.8387   21.6959 N   0  0  0  0  0  0  0  0  0  0  0  0
  -29.8165  -31.8541   23.0341 N   0  0  0  0  0  0  0  0  0  0  0  0
  -29.9486  -13.9196   20.4434 N   0  0  0  0  0  0  0  0  0  0  0  0
  -25.4038  -15.1267   20.0066 N   0  0  0  0  0  0  0  0  0  0  0  0
  -21.8678  -12.8611   21.6681 N   0  0  0  0  0  0  0  0  0  0  0  0
  -29.9427  -16.2086   21.0115 N   0  0  0  0  0  0  0  0  0  0  0  0
  -27.1691  -31.9528   24.6464 N   0  0  0  0  0  0  0  0  0  0  0  0
  -29.4726  -35.4083   23.4245 N   0  0  0  0  0  0  0  0  0  0  0  0
  -26.4225  -36.8509   23.9708 N   0  3  0  0  0  0  0  0  0  0  0  0
  -27.3334  -21.3704   19.7575 O   0  0  0  0  0  0  0  0  0  0  0  0
  -29.5235  -20.3903   23.8061 O   0  0  0  0  0  0  0  0  0  0  0  0
  -22.5760  -14.9006   20.8949 O   0  0  0  0  0  0  0  0  0  0  0  0
  -30.8220  -24.5376   19.1182 O   0  0  0  0  0  0  0  0  0  0  0  0
  -27.8142  -29.7652   24.1763 O   0  0  0  0  0  0  0  0  0  0  0  0
  -29.3294  -33.5641   21.5334 O   0  0  0  0  0  0  0  0  0  0  0  0
  -28.5028  -35.3411   25.5297 O   0  0  0  0  0  0  0  0  0  0  0  0
  -31.7925  -15.2413   19.9993 O   0  0  0  0  0  0  0  0  0  0  0  0
  -30.2047  -21.9576   18.3205 O   0  0  0  0  0  0  0  0  0  0  0  0
  -21.7912   -7.4849   23.1260 O   0  0  0  0  0  0  0  0  0  0  0  0
  -31.5603  -26.3089   20.9966 O   0  0  0  0  0  0  0  0  0  1  0  0
  -18.6356   -8.3255   27.5689 F   0  0  0  0  0  0  0  0  0  0  0  0
  -22.2389   -6.0870   25.4687 F   0  0  0  0  0  0  0  0  0  0  0  0
  1  2  1  0  0  0  0
  1  6  2  0  0  0  0
  2  7  2  0  0  0  0
  3 10  2  0  0  0  0
  3 18  1  0  0  0  0
  4 11  1  0  0  0  0
  4 18  2  0  0  0  0
  5  9  2  0  0  0  0
  5 19  1  0  0  0  0
  6 21  1  0  0  0  0
  7 23  1  0  0  0  0
  8 12  2  0  0  0  0
  8 22  1  0  0  0  0
  9 26  1  0  0  0  0
 10 27  1  0  0  0  0
 11 27  2  0  0  0  0
 12 28  1  0  0  0  0
 13 14  2  0  0  0  0
 13 29  1  0  0  0  0
 14 30  1  0  0  0  0
 15 24  1  0  0  0  0
 15 28  2  0  0  0  0
 16 25  1  0  0  0  0
 16 26  2  0  0  0  0
 17 30  2  0  0  0  0
 17 31  1  0  0  0  0
 18 32  1  0  0  0  0
 19 25  2  0  0  0  0
 19 39  1  0  0  0  0
 20 32  1  0  0  0  0
 20 33  2  0  0  0  0
 20 40  1  0  0  0  0
 21 23  2  0  0  0  0
 21 46  1  0  0  0  0
 22 24  2  0  0  0  0
 22 47  1  0  0  0  0
 23 57  1  0  0  0  0
 24 48  1  0  0  0  0
 25 71  1  0  0  0  0
 26 76  1  0  0  0  0
 27 89  1  0  0  0  0
 28 90  1  0  0  0  0
 29 31  2  0  0  0  0
 29 89  1  0  0  0  0
 30 91  1  0  0  0  0
 31 92  1  0  0  0  0
 32 69  2  0  0  0  0
 33 70  1  0  0  0  0
 33 74  1  0  0  0  0
 34 35  1  0  0  0  0
 34 37  2  0  0  0  0
 34 49  1  0  0  0  0
 35 71  1  0  0  0  0
 35 80  2  0  0  0  0
 36 50  1  0  0  0  0
 36 71  1  0  0  0  0
 36 81  2  0  0  0  0
 38 39  2  0  0  0  0
 38 41  1  0  0  0  0
 39 88  1  0  0  0  0
 40 75  1  0  0  0  0
 40 82  2  0  0  0  0
 41 65  1  0  0  0  0
 41 83  2  0  0  0  0
 42 58  1  0  0  0  0
 42 77  1  0  0  0  0
 42 84  2  0  0  0  0
 43 66  1  0  0  0  0
 43 72  1  0  0  0  0
 43 85  2  0  0  0  0
 44 67  1  0  0  0  0
 44 78  1  0  0  0  0
 44 86  2  0  0  0  0
 45 73  1  0  0  0  0
 45 76  1  0  0  0  0
 45 87  2  0  0  0  0
 46 51  1  0  0  0  0
 47 58  1  0  0  0  0
 48 72  1  0  0  0  0
 49 50  1  0  0  0  0
 51 53  1  0  0  0  0
 52 54  1  0  0  0  0
 52 55  1  0  0  0  0
 53 57  1  0  0  0  0
 54 59  1  0  0  0  0
 55 73  1  0  0  0  0
 56 59  1  0  0  0  0
 56 73  1  0  0  0  0
 57 77  1  0  0  0  0
 58 72  1  0  0  0  0
 59 70  1  0  0  0  0
 60 67  1  0  0  0  0
 61 68  1  0  0  0  0
 62 68  1  0  0  0  0
 63 68  1  0  0  0  0
 64 79  1  0  0  0  0
 65 90  1  0  0  0  0
 66 68  1  0  0  0  0
 66 78  1  0  0  0  0
 67 79  1  0  0  0  0
 69 70  1  0  0  0  0
M  CHG  1  79   1
M  ISO  4  45 100  65 101  76 100  90 101
M  END
> <Batch ID>
0057

> <Smiles>
C=C1CCC(=O)N(c2cc([100NH:0][100C:0](=O)N3CCCC(n4nc(-c5ccc(Oc6ccc(F)cc6F)cc5)c(C(N)=O)c4N)C3)ccc2C(=O)CC(=O)[101CH2:1][101O:1]c2ccc3c(c2)CN(C(=O)C(NC(=O)C(C)NC)C(C)(C)C)C(C(=O)NC2CCCc4ccccc42)C3)C1=O

> <Shape>
0.297

> <Color>
0.190

> <Negative vol penalty>
0.000

$$$$

  -OEChem-04042322553D

 83 91  0     1  0  0  0  0  0999 V2000
  -26.1270  -34.1618   18.7706 C   0  0  0  0  0  0  0  0  0  0  0  0
  -26.6990  -33.0114   19.3042 C   0  0  0  0  0  0  0  0  0  0  0  0
  -32.3233  -17.8017   23.5384 C   0  0  0  0  0  0  0  0  0  0  0  0
  -23.1732   -9.7212   19.9125 C   0  0  0  0  0  0  0  0  0  0  0  0
  -23.8524   -9.8168   22.2291 C   0  0  0  0  0  0  0  0  0  0  0  0
  -24.9145  -34.6332   19.2721 C   0  0  0  0  0  0  0  0  0  0  0  0
  -26.0593  -32.3322   20.3405 C   0  0  0  0  0  0  0  0  0  0  0  0
  -25.9816  -26.2811   21.2805 C   0  0  0  0  0  0  0  0  0  0  0  0
  -31.8019  -16.8724   22.6384 C   0  0  0  0  0  0  0  0  0  0  0  0
  -22.4654   -8.5468   20.1684 C   0  0  0  0  0  0  0  0  0  0  0  0
  -23.1446   -8.6424   22.4850 C   0  0  0  0  0  0  0  0  0  0  0  0
  -26.7244  -25.4528   22.1206 C   0  0  0  0  0  0  0  0  0  0  0  0
  -19.9302   -7.7354   23.0001 C   0  0  0  0  0  0  0  0  0  0  0  0
  -19.1352   -7.6962   24.1456 C   0  0  0  0  0  0  0  0  0  0  0  0
  -31.4670  -18.6548   24.2345 C   0  0  0  0  0  0  0  0  0  0  0  0
  -24.9604  -25.5473   23.7634 C   0  0  0  0  0  0  0  0  0  0  0  0
  -29.5678  -17.6495   23.1304 C   0  0  0  0  0  0  0  0  0  0  0  0
  -20.4231   -5.8281   24.9755 C   0  0  0  0  0  0  0  0  0  0  0  0
  -23.8667  -10.3562   20.9428 C   0  0  0  0  0  0  0  0  0  0  0  0
  -24.1163  -12.8888   20.7660 C   0  0  0  0  0  0  0  0  0  0  0  0
  -24.2547  -33.9540   20.3084 C   0  0  0  0  0  0  0  0  0  0  0  0
  -24.7252  -26.7584   21.6807 C   0  0  0  0  0  0  0  0  0  0  0  0
  -24.8374  -32.7957   20.8572 C   0  0  0  0  0  0  0  0  0  0  0  0
  -24.2026  -26.3795   22.9254 C   0  0  0  0  0  0  0  0  0  0  0  0
  -30.4241  -16.7963   22.4343 C   0  0  0  0  0  0  0  0  0  0  0  0
  -22.4511   -8.0074   21.4547 C   0  0  0  0  0  0  0  0  0  0  0  0
  -26.2151  -25.0881   23.3635 C   0  0  0  0  0  0  0  0  0  0  0  0
  -20.9716   -6.8209   22.8423 C   0  0  0  0  0  0  0  0  0  0  0  0
  -19.3817   -6.7426   25.1333 C   0  0  0  0  0  0  0  0  0  0  0  0
  -21.2181   -5.8673   23.8300 C   0  0  0  0  0  0  0  0  0  0  0  0
  -30.0893  -18.5787   24.0305 C   0  0  0  0  0  0  0  0  0  0  0  0
  -24.5984  -11.5690   20.6789 C   0  0  0  0  0  0  0  0  0  0  0  0
  -25.1911  -13.6706   20.4195 C   0  0  0  0  0  0  0  0  0  0  0  0
  -22.8134  -13.3654   21.1279 C   0  0  0  0  0  0  0  0  0  0  0  0
  -23.4844  -29.6360   22.2131 C   0  0  0  0  0  0  0  0  0  0  0  0
  -20.7345  -27.9541   22.5766 C   0  0  0  0  0  0  0  0  0  0  0  0
  -19.2341  -24.9783   23.3115 C   0  0  0  0  0  0  0  0  0  0  0  0
  -30.6043  -14.9322   20.7494 C   0  0  0  0  0  0  0  0  0  0  0  0
  -22.9694  -34.5282   20.8498 C   0  0  0  0  0  0  0  0  0  0  0  0
  -23.9248  -27.6294   20.7517 C   0  0  0  0  0  0  0  0  0  0  0  0
  -22.8500  -26.8484   23.3936 C   0  0  0  0  0  0  0  0  0  0  0  0
  -22.1693  -33.5403   21.6949 C   0  0  0  0  0  0  0  0  0  0  0  0
  -29.6650  -12.4166   18.4112 C   0  0  0  0  0  0  0  0  0  0  0  0
  -23.0805  -32.8285   22.6897 C   0  0  0  0  0  0  0  0  0  0  0  0
  -28.2235  -12.0804   18.7999 C   0  0  0  0  0  0  0  0  0  0  0  0
  -30.5286  -12.7117   19.6363 C   0  0  0  0  0  0  0  0  0  0  0  0
  -28.5489  -13.3968   20.9326 C   0  0  0  0  0  0  0  0  0  0  0  0
  -24.1615  -32.0173   21.9651 C   0  0  1  0  0  0  0  0  0  0  0  0
  -22.8810  -28.4742   21.4757 C   0  0  1  0  0  0  0  0  0  0  0  0
  -27.6247  -13.1555   19.7279 C   0  0  2  0  0  0  0  0  0  0  0  0
  -16.9717  -23.9227   23.5656 C   0  0  0  0  0  0  0  0  0  0  0  0
  -20.4039  -29.3204   25.2847 C   0  0  0  0  0  0  0  0  0  0  0  0
  -18.7115  -27.5743   25.8808 C   0  0  0  0  0  0  0  0  0  0  0  0
  -18.2941  -29.1085   23.9586 C   0  0  0  0  0  0  0  0  0  0  0  0
  -19.7611  -23.0489   21.1301 C   0  0  0  0  0  0  0  0  0  0  0  0
  -27.9546  -22.1266   24.4733 C   0  0  0  0  0  0  0  0  0  0  0  0
  -27.8141  -23.3393   23.5659 C   0  0  0  0  0  0  0  0  0  1  0  0
  -28.8648  -21.0742   23.8648 C   0  0  0  0  0  0  0  0  0  0  0  0
  -20.0342  -27.2878   23.7361 C   0  0  1  0  0  0  0  0  0  0  0  0
  -18.1241  -24.2111   22.6160 C   0  0  2  0  0  0  0  0  0  0  0  0
  -19.3873  -28.3153   24.7073 C   0  0  0  0  0  0  0  0  0  0  0  0
  -25.8797  -11.5117   20.3061 N   0  0  0  0  0  0  0  0  0  0  0  0
  -26.2118  -12.8053   20.1558 N   0  0  0  0  0  0  0  0  0  0  0  0
  -22.1084  -27.7035   22.4521 N   0  0  0  0  0  0  0  0  0  0  0  0
  -29.9009  -13.7423   20.4662 N   0  0  0  0  0  0  0  0  0  0  0  0
  -25.3531  -15.0069   20.3176 N   0  0  0  0  0  0  0  0  0  0  0  0
  -21.8257  -12.4265   21.4555 N   0  0  0  0  0  0  0  0  0  0  0  0
  -29.8943  -15.8521   21.5203 N   0  0  0  0  0  0  0  0  0  0  0  0
  -23.6079  -30.7826   21.4519 N   0  0  0  0  0  0  0  0  0  0  0  0
  -19.0903  -26.3405   23.1531 N   0  0  0  0  0  0  0  0  0  0  0  0
  -18.6393  -22.9136   22.0945 N   0  3  0  0  0  0  0  0  0  0  0  0
  -22.5287  -14.5870   21.1439 O   0  0  0  0  0  0  0  0  0  0  0  0
  -23.8121  -29.5025   23.3863 O   0  0  0  0  0  0  0  0  0  0  0  0
  -20.0851  -28.6648   21.8054 O   0  0  0  0  0  0  0  0  0  0  0  0
  -20.1363  -24.4248   23.9361 O   0  0  0  0  0  0  0  0  0  0  0  0
  -31.7416  -15.1326   20.3156 O   0  0  0  0  0  0  0  0  0  0  0  0
  -27.7120  -19.0009   24.9816 O   0  0  0  0  0  0  0  0  0  0  0  0
  -29.6795  -20.0755   26.1304 O   0  0  0  0  0  0  0  0  0  0  0  0
  -21.7604   -6.8616   21.7049 O   0  0  0  0  0  0  0  0  0  0  0  0
  -26.9384  -24.2802   24.1857 O   0  0  0  0  0  0  0  0  0  1  0  0
  -18.6192   -6.7061   26.2339 F   0  0  0  0  0  0  0  0  0  0  0  0
  -22.2179   -4.9869   23.6845 F   0  0  0  0  0  0  0  0  0  0  0  0
  -29.0043  -19.6612   24.9124 S   0  0  0  0  0  0  0  0  0  0  0  0
  1  2  1  0  0  0  0
  1  6  2  0  0  0  0
  2  7  2  0  0  0  0
  3  9  1  0  0  0  0
  3 15  2  0  0  0  0
  4 10  2  0  0  0  0
  4 19  1  0  0  0  0
  5 11  1  0  0  0  0
  5 19  2  0  0  0  0
  6 21  1  0  0  0  0
  7 23  1  0  0  0  0
  8 12  2  0  0  0  0
  8 22  1  0  0  0  0
  9 25  2  0  0  0  0
 10 26  1  0  0  0  0
 11 26  2  0  0  0  0
 12 27  1  0  0  0  0
 13 14  2  0  0  0  0
 13 28  1  0  0  0  0
 14 29  1  0  0  0  0
 15 31  1  0  0  0  0
 16 24  1  0  0  0  0
 16 27  2  0  0  0  0
 17 25  1  0  0  0  0
 17 31  2  0  0  0  0
 18 29  2  0  0  0  0
 18 30  1  0  0  0  0
 19 32  1  0  0  0  0
 20 32  1  0  0  0  0
 20 33  2  0  0  0  0
 20 34  1  0  0  0  0
 21 23  2  0  0  0  0
 21 39  1  0  0  0  0
 22 24  2  0  0  0  0
 22 40  1  0  0  0  0
 23 48  1  0  0  0  0
 24 41  1  0  0  0  0
 25 68  1  0  0  0  0
 26 79  1  0  0  0  0
 27 80  1  0  0  0  0
 28 30  2  0  0  0  0
 28 79  1  0  0  0  0
 29 81  1  0  0  0  0
 30 82  1  0  0  0  0
 31 83  1  0  0  0  0
 32 62  2  0  0  0  0
 33 63  1  0  0  0  0
 33 66  1  0  0  0  0
 34 67  1  0  0  0  0
 34 72  2  0  0  0  0
 35 49  1  0  0  0  0
 35 69  1  0  0  0  0
 35 73  2  0  0  0  0
 36 59  1  0  0  0  0
 36 64  1  0  0  0  0
 36 74  2  0  0  0  0
 37 60  1  0  0  0  0
 37 70  1  0  0  0  0
 37 75  2  0  0  0  0
 38 65  1  0  0  0  0
 38 68  1  0  0  0  0
 38 76  2  0  0  0  0
 39 42  1  0  0  0  0
 40 49  1  0  0  0  0
 41 64  1  0  0  0  0
 42 44  1  0  0  0  0
 43 45  1  0  0  0  0
 43 46  1  0  0  0  0
 44 48  1  0  0  0  0
 45 50  1  0  0  0  0
 46 65  1  0  0  0  0
 47 50  1  0  0  0  0
 47 65  1  0  0  0  0
 48 69  1  0  0  0  0
 49 64  1  0  0  0  0
 50 63  1  0  0  0  0
 51 60  1  0  0  0  0
 52 61  1  0  0  0  0
 53 61  1  0  0  0  0
 54 61  1  0  0  0  0
 55 71  1  0  0  0  0
 56 57  1  0  0  0  0
 56 58  1  0  0  0  0
 57 80  1  0  0  0  0
 58 83  1  0  0  0  0
 59 61  1  0  0  0  0
 59 70  1  0  0  0  0
 60 71  1  0  0  0  0
 62 63  1  0  0  0  0
 77 83  2  0  0  0  0
 78 83  2  0  0  0  0
M  CHG  1  71   1
M  ISO  4  38 100  57 101  68 100  80 101
M  END
> <Batch ID>
0057

> <Smiles>
CNC(C)C(=O)NC(C(=O)N1Cc2cc([101O:1][101CH2:1]CCS(=O)(=O)c3cccc([100NH:0][100C:0](=O)N4CCCC(n5nc(-c6ccc(Oc7ccc(F)cc7F)cc6)c(C(N)=O)c5N)C4)c3)ccc2CC1C(=O)NC1CCCc2ccccc21)C(C)(C)C

> <Shape>
0.262

> <Color>
0.200

> <Negative vol penalty>
0.000

$$$$

  -OEChem-04042322553D

 93102  0     1  0  0  0  0  0999 V2000
  -30.0699  -11.6437   19.5622 C   0  0  0  0  0  0  0  0  0  0  0  0
  -29.9855  -12.6669   20.5010 C   0  0  0  0  0  0  0  0  0  0  0  0
  -24.9639  -31.5973   21.7333 C   0  0  0  0  0  0  0  0  0  0  0  0
  -29.6886  -20.3559   18.0749 C   0  0  0  0  0  0  0  0  0  0  0  0
  -28.4682  -20.5326   20.1525 C   0  0  0  0  0  0  0  0  0  0  0  0
  -29.1191  -11.5507   18.5467 C   0  0  0  0  0  0  0  0  0  0  0  0
  -28.9508  -13.5985   20.4241 C   0  0  0  0  0  0  0  0  0  0  0  0
  -24.7689  -17.6543   24.5929 C   0  0  0  0  0  0  0  0  0  0  0  0
  -23.6254  -31.2628   21.5284 C   0  0  0  0  0  0  0  0  0  0  0  0
  -25.9725  -30.8119   21.1751 C   0  0  0  0  0  0  0  0  0  0  0  0
  -22.5364  -25.8817   22.7514 C   0  0  0  0  0  0  0  0  0  0  0  0
  -22.4215  -27.2641   22.6053 C   0  0  0  0  0  0  0  0  0  0  0  0
  -30.1297  -19.0846   18.4421 C   0  0  0  0  0  0  0  0  0  0  0  0
  -28.9092  -19.2613   20.5197 C   0  0  0  0  0  0  0  0  0  0  0  0
  -24.3610  -18.9786   24.7461 C   0  0  0  0  0  0  0  0  0  0  0  0
  -32.4913  -17.7549   20.4618 C   0  0  0  0  0  0  0  0  0  0  0  0
  -33.8391  -17.4551   20.2639 C   0  0  0  0  0  0  0  0  0  0  0  0
  -22.7301  -18.6725   22.9951 C   0  0  0  0  0  0  0  0  0  0  0  0
  -20.4994  -25.5788   21.4880 C   0  0  0  0  0  0  0  0  0  0  0  0
  -33.2196  -15.6401   18.7946 C   0  0  0  0  0  0  0  0  0  0  0  0
  -28.8579  -21.0799   18.9302 C   0  0  0  0  0  0  0  0  0  0  0  0
  -27.2326  -22.7145   17.8374 C   0  0  0  0  0  0  0  0  0  0  0  0
  -28.0667  -12.4760   18.4630 C   0  0  0  0  0  0  0  0  0  0  0  0
  -24.1669  -16.8309   23.6306 C   0  0  0  0  0  0  0  0  0  0  0  0
  -27.9858  -13.5187   19.4057 C   0  0  0  0  0  0  0  0  0  0  0  0
  -23.1305  -17.3373   22.8335 C   0  0  0  0  0  0  0  0  0  0  0  0
  -23.2954  -30.1427   20.7653 C   0  0  0  0  0  0  0  0  0  0  0  0
  -20.3845  -26.9613   21.3420 C   0  0  0  0  0  0  0  0  0  0  0  0
  -24.3040  -29.3572   20.2071 C   0  0  0  0  0  0  0  0  0  0  0  0
  -21.5754  -25.0391   22.1927 C   0  0  0  0  0  0  0  0  0  0  0  0
  -21.3455  -27.8039   21.9006 C   0  0  0  0  0  0  0  0  0  0  0  0
  -25.6425  -29.6918   20.4121 C   0  0  0  0  0  0  0  0  0  0  0  0
  -29.7400  -18.5372   19.6645 C   0  0  0  0  0  0  0  0  0  0  0  0
  -23.3435  -19.4888   23.9451 C   0  0  0  0  0  0  0  0  0  0  0  0
  -31.5076  -16.9972   19.8262 C   0  0  0  0  0  0  0  0  0  0  0  0
  -34.2033  -16.3977   19.4303 C   0  0  0  0  0  0  0  0  0  0  0  0
  -31.8718  -15.9399   18.9925 C   0  0  0  0  0  0  0  0  0  0  0  0
  -28.4024  -22.3935   18.5516 C   0  0  0  0  0  0  0  0  0  0  0  0
  -27.2570  -24.0840   17.7362 C   0  0  0  0  0  0  0  0  0  0  0  0
  -19.9687  -29.5626   23.7408 C   0  0  0  0  0  0  0  0  0  0  0  0
  -20.5859  -30.0233   22.6507 C   0  0  0  0  0  0  0  0  0  0  0  0
  -26.2148  -21.8518   17.3124 C   0  0  0  0  0  0  0  0  0  0  0  0
  -25.1861  -15.2855   21.0466 C   0  0  0  0  0  0  0  0  0  0  0  0
  -22.1681  -14.0963   21.0451 C   0  0  0  0  0  0  0  0  0  0  0  0
  -22.6915  -22.9361   23.0087 C   0  0  0  0  0  0  0  0  0  0  0  0
  -18.9065  -14.4698   21.9773 C   0  0  0  0  0  0  0  0  0  0  0  0
  -28.0563  -29.1199   19.9730 C   0  0  0  0  0  0  0  0  0  0  0  0
  -27.0897  -12.3627   17.3196 C   0  0  0  0  0  0  0  0  0  0  0  0
  -24.6001  -15.3967   23.4962 C   0  0  0  0  0  0  0  0  0  0  0  0
  -22.4380  -16.4886   21.7997 C   0  0  0  0  0  0  0  0  0  0  0  0
  -25.8106  -13.1690   17.5292 C   0  0  0  0  0  0  0  0  0  0  0  0
  -30.9366  -27.3991   18.7814 C   0  0  0  0  0  0  0  0  0  0  0  0
  -26.1404  -14.5755   18.0189 C   0  0  0  0  0  0  0  0  0  0  0  0
  -30.4378  -25.9698   18.5566 C   0  0  0  0  0  0  0  0  0  0  0  0
  -30.2929  -28.0377   20.0109 C   0  0  0  0  0  0  0  0  0  0  0  0
  -28.3265  -26.5673   19.8105 C   0  0  0  0  0  0  0  0  0  0  0  0
  -26.8640  -14.5337   19.3702 C   0  0  1  0  0  0  0  0  0  0  0  0
  -24.2692  -14.7980   22.1326 C   0  0  1  0  0  0  0  0  0  0  0  0
  -28.8979  -25.9055   18.5459 C   0  0  2  0  0  0  0  0  0  0  0  0
  -19.2214  -27.5127   20.5832 C   0  0  0  0  0  0  0  0  0  0  0  0
  -23.9450  -28.1565   19.3890 C   0  0  0  0  0  0  0  0  0  0  0  0
  -16.6663  -13.3530   21.7985 C   0  0  0  0  0  0  0  0  0  0  0  0
  -21.9331  -15.0365   18.1519 C   0  0  0  0  0  0  0  0  0  0  0  0
  -19.4507  -14.7711   18.3405 C   0  0  0  0  0  0  0  0  0  0  0  0
  -20.9389  -12.7862   18.6016 C   0  0  0  0  0  0  0  0  0  0  0  0
  -18.6866  -14.1809   24.9145 C   0  0  0  0  0  0  0  0  0  0  0  0
  -21.8469  -29.8053   20.5603 C   0  0  0  0  0  0  0  0  0  0  0  0
  -22.4408  -21.4416   22.9314 C   0  0  0  0  0  0  0  0  0  1  0  0
  -20.8522  -14.5206   20.4391 C   0  0  1  0  0  0  0  0  0  0  0  0
  -17.9294  -13.5093   22.6310 C   0  0  2  0  0  0  0  0  0  0  0  0
  -20.8079  -14.2954   18.9013 C   0  0  0  0  0  0  0  0  0  0  0  0
  -29.1180  -23.4722   18.8808 N   0  0  0  0  0  0  0  0  0  0  0  0
  -28.3958  -24.4844   18.3710 N   0  0  0  0  0  0  0  0  0  0  0  0
  -22.9015  -15.0947   21.7018 N   0  0  0  0  0  0  0  0  0  0  0  0
  -28.8337  -27.9433   19.9293 N   0  0  0  0  0  0  0  0  0  0  0  0
  -26.4153  -24.9728   17.1670 N   0  0  0  0  0  0  0  0  0  0  0  0
  -26.3452  -20.4698   17.5057 N   0  0  0  0  0  0  0  0  0  0  0  0
  -21.6922  -23.6367   22.3419 N   0  0  0  0  0  0  0  0  0  0  0  0
  -26.6831  -28.9085   19.8541 N   0  0  0  0  0  0  0  0  0  0  0  0
  -25.9220  -14.2853   20.4404 N   0  0  0  0  0  0  0  0  0  0  0  0
  -19.8145  -13.8088   21.1773 N   0  0  0  0  0  0  0  0  0  0  0  0
  -21.2456  -29.2058   21.7625 N   0  0  0  0  0  0  0  0  0  0  0  0
  -17.5431  -14.0037   23.9828 N   0  3  0  0  0  0  0  0  0  0  0  0
  -25.2276  -22.2922   16.6760 O   0  0  0  0  0  0  0  0  0  0  0  0
  -25.2221  -16.4805   20.7775 O   0  0  0  0  0  0  0  0  0  0  0  0
  -22.5286  -12.9208   20.9458 O   0  0  0  0  0  0  0  0  0  0  0  0
  -23.6655  -23.3946   23.5968 O   0  0  0  0  0  0  0  0  0  0  0  0
  -18.8658  -15.6852   22.1554 O   0  0  0  0  0  0  0  0  0  0  0  0
  -28.5728  -30.2353   20.0789 O   0  0  0  0  0  0  0  0  0  0  0  0
  -30.1700  -17.2966   20.0230 O   0  0  0  0  0  0  0  0  0  0  0  0
  -22.9438  -20.7813   24.0921 O   0  0  0  0  0  0  0  0  0  1  0  0
  -35.4976  -16.1109   19.2392 F   0  0  0  0  0  0  0  0  0  0  0  0
  -30.9313  -15.2092   18.3782 F   0  0  0  0  0  0  0  0  0  0  0  0
  1  2  1  0  0  0  0
  1  6  2  0  0  0  0
  2  7  2  0  0  0  0
  3  9  2  0  0  0  0
  3 10  1  0  0  0  0
  4 13  2  0  0  0  0
  4 21  1  0  0  0  0
  5 14  1  0  0  0  0
  5 21  2  0  0  0  0
  6 23  1  0  0  0  0
  7 25  1  0  0  0  0
  8 15  2  0  0  0  0
  8 24  1  0  0  0  0
  9 27  1  0  0  0  0
 10 32  2  0  0  0  0
 11 12  2  0  0  0  0
 11 30  1  0  0  0  0
 12 31  1  0  0  0  0
 13 33  1  0  0  0  0
 14 33  2  0  0  0  0
 15 34  1  0  0  0  0
 16 17  2  0  0  0  0
 16 35  1  0  0  0  0
 17 36  1  0  0  0  0
 18 26  1  0  0  0  0
 18 34  2  0  0  0  0
 19 28  1  0  0  0  0
 19 30  2  0  0  0  0
 20 36  2  0  0  0  0
 20 37  1  0  0  0  0
 21 38  1  0  0  0  0
 22 38  1  0  0  0  0
 22 39  2  0  0  0  0
 22 42  1  0  0  0  0
 23 25  2  0  0  0  0
 23 48  1  0  0  0  0
 24 26  2  0  0  0  0
 24 49  1  0  0  0  0
 25 57  1  0  0  0  0
 26 50  1  0  0  0  0
 27 29  2  0  0  0  0
 27 67  1  0  0  0  0
 28 31  2  0  0  0  0
 28 60  1  0  0  0  0
 29 32  1  0  0  0  0
 29 61  1  0  0  0  0
 30 78  1  0  0  0  0
 31 82  1  0  0  0  0
 32 79  1  0  0  0  0
 33 90  1  0  0  0  0
 34 91  1  0  0  0  0
 35 37  2  0  0  0  0
 35 90  1  0  0  0  0
 36 92  1  0  0  0  0
 37 93  1  0  0  0  0
 38 72  2  0  0  0  0
 39 73  1  0  0  0  0
 39 76  1  0  0  0  0
 40 41  2  0  0  0  0
 41 82  1  0  0  0  0
 42 77  1  0  0  0  0
 42 84  2  0  0  0  0
 43 58  1  0  0  0  0
 43 80  1  0  0  0  0
 43 85  2  0  0  0  0
 44 69  1  0  0  0  0
 44 74  1  0  0  0  0
 44 86  2  0  0  0  0
 45 68  1  0  0  0  0
 45 78  1  0  0  0  0
 45 87  2  0  0  0  0
 46 70  1  0  0  0  0
 46 81  1  0  0  0  0
 46 88  2  0  0  0  0
 47 75  1  0  0  0  0
 47 79  1  0  0  0  0
 47 89  2  0  0  0  0
 48 51  1  0  0  0  0
 49 58  1  0  0  0  0
 50 74  1  0  0  0  0
 51 53  1  0  0  0  0
 52 54  1  0  0  0  0
 52 55  1  0  0  0  0
 53 57  1  0  0  0  0
 54 59  1  0  0  0  0
 55 75  1  0  0  0  0
 56 59  1  0  0  0  0
 56 75  1  0  0  0  0
 57 80  1  0  0  0  0
 58 74  1  0  0  0  0
 59 73  1  0  0  0  0
 62 70  1  0  0  0  0
 63 71  1  0  0  0  0
 64 71  1  0  0  0  0
 65 71  1  0  0  0  0
 66 83  1  0  0  0  0
 67 82  1  0  0  0  0
 68 91  1  0  0  0  0
 69 71  1  0  0  0  0
 69 81  1  0  0  0  0
 70 83  1  0  0  0  0
 72 73  1  0  0  0  0
M  CHG  1  83   1
M  ISO  4  47 100  68 101  79 100  91 101
M  END
> <Batch ID>
0057

> <Smiles>
C=CN(Cc1cccc([100NH:0][100C:0](=O)N2CCCC(n3nc(-c4ccc(Oc5ccc(F)cc5F)cc4)c(C(N)=O)c3N)C2)c1C)c1ccc(NC(=O)[101CH2:1][101O:1]c2ccc3c(c2)CN(C(=O)C(NC(=O)C(C)NC)C(C)(C)C)C(C(=O)NC2CCCc4ccccc42)C3)cc1C

> <Shape>
0.258

> <Color>
0.076

> <Negative vol penalty>
0.000

$$$$

  -OEChem-04042322553D

 86 94  0     1  0  0  0  0  0999 V2000
  -29.5972  -15.8824   25.9232 C   0  0  0  0  0  0  0  0  0  0  0  0
  -29.9225  -17.1882   25.5701 C   0  0  0  0  0  0  0  0  0  0  0  0
  -22.5433  -21.1135   22.0061 C   0  0  0  0  0  0  0  0  0  0  0  0
  -20.9283  -21.3582   23.7863 C   0  0  0  0  0  0  0  0  0  0  0  0
  -29.3482  -14.9347   24.9314 C   0  0  0  0  0  0  0  0  0  0  0  0
  -30.0000  -17.5467   24.2248 C   0  0  0  0  0  0  0  0  0  0  0  0
  -28.4753  -22.9411   21.7587 C   0  0  0  0  0  0  0  0  0  0  0  0
  -23.1448  -20.0613   22.6965 C   0  0  0  0  0  0  0  0  0  0  0  0
  -21.5298  -20.3060   24.4766 C   0  0  0  0  0  0  0  0  0  0  0  0
  -29.2338  -24.0499   21.3859 C   0  0  0  0  0  0  0  0  0  0  0  0
  -22.5608  -16.7733   23.2267 C   0  0  0  0  0  0  0  0  0  0  0  0
  -22.8930  -15.6286   22.5022 C   0  0  0  0  0  0  0  0  0  0  0  0
  -29.2971  -23.2357   19.1160 C   0  0  0  0  0  0  0  0  0  0  0  0
  -25.7763  -28.0151   18.9087 C   0  0  0  0  0  0  0  0  0  0  0  0
  -27.1349  -29.2080   20.5112 C   0  0  0  0  0  0  0  0  0  0  0  0
  -25.2157  -15.9266   23.0964 C   0  0  0  0  0  0  0  0  0  0  0  0
  -21.4350  -21.7621   22.5510 C   0  0  0  0  0  0  0  0  0  0  0  0
  -24.7285  -29.4128   20.5776 C   0  0  0  0  0  0  0  0  0  0  0  0
  -20.2330  -22.8044   20.5570 C   0  0  0  0  0  0  0  0  0  0  0  0
  -29.4132  -15.2842   23.5733 C   0  0  0  0  0  0  0  0  0  0  0  0
  -28.1307  -21.9641   20.8137 C   0  0  0  0  0  0  0  0  0  0  0  0
  -29.7529  -16.6024   23.2138 C   0  0  0  0  0  0  0  0  0  0  0  0
  -28.5320  -22.1168   19.4789 C   0  0  0  0  0  0  0  0  0  0  0  0
  -24.6249  -28.5492   19.4872 C   0  0  0  0  0  0  0  0  0  0  0  0
  -27.0313  -28.3444   19.4208 C   0  0  0  0  0  0  0  0  0  0  0  0
  -22.6380  -19.6575   23.9317 C   0  0  0  0  0  0  0  0  0  0  0  0
  -29.6473  -24.1959   20.0649 C   0  0  0  0  0  0  0  0  0  0  0  0
  -23.5561  -17.4948   23.8860 C   0  0  0  0  0  0  0  0  0  0  0  0
  -24.2204  -15.2052   22.4371 C   0  0  0  0  0  0  0  0  0  0  0  0
  -25.9835  -29.7422   21.0897 C   0  0  0  0  0  0  0  0  0  0  0  0
  -24.8835  -17.0714   23.8209 C   0  0  0  0  0  0  0  0  0  0  0  0
  -20.8136  -22.8495   21.8387 C   0  0  0  0  0  0  0  0  0  0  0  0
  -19.7872  -24.0848   20.3368 C   0  0  0  0  0  0  0  0  0  0  0  0
  -23.5163  -29.9931   21.2105 C   0  0  0  0  0  0  0  0  0  0  0  0
  -20.1079  -21.7037   19.6468 C   0  0  0  0  0  0  0  0  0  0  0  0
  -28.7314  -18.8613   20.4739 C   0  0  0  0  0  0  0  0  0  0  0  0
  -26.6629  -19.1306   17.9898 C   0  0  0  0  0  0  0  0  0  0  0  0
  -29.5209  -28.0229   19.2149 C   0  0  0  0  0  0  0  0  0  0  0  0
  -25.1826  -21.1332   15.6563 C   0  0  0  0  0  0  0  0  0  0  0  0
  -21.4310  -29.4084   22.4077 C   0  0  0  0  0  0  0  0  0  0  0  0
  -29.1822  -14.2137   22.5364 C   0  0  0  0  0  0  0  0  0  0  0  0
  -27.2894  -20.7875   21.2264 C   0  0  0  0  0  0  0  0  0  0  0  0
  -28.1710  -21.1065   18.4218 C   0  0  0  0  0  0  0  0  0  0  0  0
  -28.9178  -14.7667   21.1384 C   0  0  0  0  0  0  0  0  0  0  0  0
  -18.2179  -27.9600   22.6816 C   0  0  0  0  0  0  0  0  0  0  0  0
  -29.9305  -15.8544   20.7942 C   0  0  0  0  0  0  0  0  0  0  0  0
  -18.4599  -26.4818   22.3645 C   0  0  0  0  0  0  0  0  0  0  0  0
  -19.3667  -28.5627   23.4890 C   0  0  0  0  0  0  0  0  0  0  0  0
  -20.9417  -26.8941   22.5984 C   0  0  0  0  0  0  0  0  0  0  0  0
  -29.8225  -17.0360   21.7656 C   0  0  1  0  0  0  0  0  0  0  0  0
  -27.4320  -19.5928   20.2885 C   0  0  1  0  0  0  0  0  0  0  0  0
  -19.8460  -26.2597   21.7266 C   0  0  1  0  0  0  0  0  0  0  0  0
  -23.2936  -28.1798   18.9185 C   0  0  0  0  0  0  0  0  0  0  0  0
  -23.5650  -21.0606   13.7392 C   0  0  0  0  0  0  0  0  0  0  0  0
  -28.8133  -17.8760   16.2259 C   0  0  0  0  0  0  0  0  0  0  0  0
  -27.5486  -18.6906   14.2246 C   0  0  0  0  0  0  0  0  0  0  0  0
  -26.4925  -17.0554   15.7846 C   0  0  0  0  0  0  0  0  0  0  0  0
  -23.3229  -23.0001   17.0035 C   0  0  0  0  0  0  0  0  0  0  0  0
  -30.4725  -27.2439   18.3140 C   0  0  0  0  0  0  0  0  0  0  0  0
  -30.2404  -25.7411   18.3572 C   0  0  0  0  0  0  0  0  0  1  0  0
  -26.7923  -19.4553   16.5212 C   0  0  1  0  0  0  0  0  0  0  0  0
  -23.7325  -21.2857   15.2338 C   0  0  2  0  0  0  0  0  0  0  0  0
  -27.4203  -18.2876   15.7091 C   0  0  0  0  0  0  0  0  0  0  0  0
  -20.7445  -24.0624   22.3937 N   0  0  0  0  0  0  0  0  0  0  0  0
  -20.1154  -24.7914   21.4563 N   0  0  0  0  0  0  0  0  0  0  0  0
  -27.3524  -19.9703   18.8760 N   0  0  0  0  0  0  0  0  0  0  0  0
  -20.6421  -28.3178   22.8133 N   0  0  0  0  0  0  0  0  0  0  0  0
  -19.1505  -24.6638   19.2968 N   0  0  0  0  0  0  0  0  0  0  0  0
  -18.9631  -20.8989   19.7251 N   0  0  0  0  0  0  0  0  0  0  0  0
  -28.1998  -27.8027   18.8344 N   0  0  0  0  0  0  0  0  0  0  0  0
  -22.6095  -29.0706   21.7331 N   0  0  0  0  0  0  0  0  0  0  0  0
  -28.6843  -17.8642   21.4295 N   0  0  0  0  0  0  0  0  0  0  0  0
  -25.4613  -19.8481   16.0711 N   0  0  0  0  0  0  0  0  0  0  0  0
  -23.2386  -22.6531   15.5615 N   0  3  0  0  0  0  0  0  0  0  0  0
  -23.4006  -31.2140   21.2731 O   0  0  0  0  0  0  0  0  0  0  0  0
  -20.9928  -21.4317   18.8005 O   0  0  0  0  0  0  0  0  0  0  0  0
  -29.7042  -19.1771   19.7989 O   0  0  0  0  0  0  0  0  0  0  0  0
  -25.9695  -18.1717   18.3383 O   0  0  0  0  0  0  0  0  0  0  0  0
  -29.9231  -28.7305   20.1324 O   0  0  0  0  0  0  0  0  0  0  0  0
  -25.9885  -22.0604   15.6183 O   0  0  0  0  0  0  0  0  0  0  0  0
  -21.0967  -30.5824   22.5958 O   0  0  0  0  0  0  0  0  0  0  0  0
  -23.2246  -18.6306   24.6055 O   0  0  0  0  0  0  0  0  0  0  0  0
  -30.3883  -25.2769   19.6984 O   0  0  0  0  0  0  0  0  0  1  0  0
  -24.5390  -14.1051   21.7426 F   0  0  0  0  0  0  0  0  0  0  0  0
  -26.0963  -30.5709   22.1376 F   0  0  0  0  0  0  0  0  0  0  0  0
  -25.8439  -17.7596   24.4531 F   0  0  0  0  0  0  0  0  0  0  0  0
  1  2  1  0  0  0  0
  1  5  2  0  0  0  0
  2  6  2  0  0  0  0
  3  8  2  0  0  0  0
  3 17  1  0  0  0  0
  4  9  1  0  0  0  0
  4 17  2  0  0  0  0
  5 20  1  0  0  0  0
  6 22  1  0  0  0  0
  7 10  2  0  0  0  0
  7 21  1  0  0  0  0
  8 26  1  0  0  0  0
  9 26  2  0  0  0  0
 10 27  1  0  0  0  0
 11 12  2  0  0  0  0
 11 28  1  0  0  0  0
 12 29  1  0  0  0  0
 13 23  1  0  0  0  0
 13 27  2  0  0  0  0
 14 24  2  0  0  0  0
 14 25  1  0  0  0  0
 15 25  2  0  0  0  0
 15 30  1  0  0  0  0
 16 29  2  0  0  0  0
 16 31  1  0  0  0  0
 17 32  1  0  0  0  0
 18 24  1  0  0  0  0
 18 30  2  0  0  0  0
 18 34  1  0  0  0  0
 19 32  1  0  0  0  0
 19 33  2  0  0  0  0
 19 35  1  0  0  0  0
 20 22  2  0  0  0  0
 20 41  1  0  0  0  0
 21 23  2  0  0  0  0
 21 42  1  0  0  0  0
 22 50  1  0  0  0  0
 23 43  1  0  0  0  0
 24 53  1  0  0  0  0
 25 70  1  0  0  0  0
 26 82  1  0  0  0  0
 27 83  1  0  0  0  0
 28 31  2  0  0  0  0
 28 82  1  0  0  0  0
 29 84  1  0  0  0  0
 30 85  1  0  0  0  0
 31 86  1  0  0  0  0
 32 64  2  0  0  0  0
 33 65  1  0  0  0  0
 33 68  1  0  0  0  0
 34 71  1  0  0  0  0
 34 75  2  0  0  0  0
 35 69  1  0  0  0  0
 35 76  2  0  0  0  0
 36 51  1  0  0  0  0
 36 72  1  0  0  0  0
 36 77  2  0  0  0  0
 37 61  1  0  0  0  0
 37 66  1  0  0  0  0
 37 78  2  0  0  0  0
 38 59  1  0  0  0  0
 38 70  1  0  0  0  0
 38 79  2  0  0  0  0
 39 62  1  0  0  0  0
 39 73  1  0  0  0  0
 39 80  2  0  0  0  0
 40 67  1  0  0  0  0
 40 71  1  0  0  0  0
 40 81  2  0  0  0  0
 41 44  1  0  0  0  0
 42 51  1  0  0  0  0
 43 66  1  0  0  0  0
 44 46  1  0  0  0  0
 45 47  1  0  0  0  0
 45 48  1  0  0  0  0
 46 50  1  0  0  0  0
 47 52  1  0  0  0  0
 48 67  1  0  0  0  0
 49 52  1  0  0  0  0
 49 67  1  0  0  0  0
 50 72  1  0  0  0  0
 51 66  1  0  0  0  0
 52 65  1  0  0  0  0
 54 62  1  0  0  0  0
 55 63  1  0  0  0  0
 56 63  1  0  0  0  0
 57 63  1  0  0  0  0
 58 74  1  0  0  0  0
 59 60  1  0  0  0  0
 60 83  1  0  0  0  0
 61 63  1  0  0  0  0
 61 73  1  0  0  0  0
 62 74  1  0  0  0  0
 64 65  1  0  0  0  0
M  CHG  1  74   1
M  ISO  4  40 100  60 101  71 100  83 101
M  END
> <Batch ID>
0057

> <Smiles>
CNC(C)C(=O)NC(C(=O)N1Cc2cc([101O:1][101CH2:1]CC(=O)Nc3cc(C)c(C(=O)[100NH:0][100C:0](=O)N4CCCC(n5nc(-c6ccc(Oc7ccc(F)cc7F)cc6)c(C(N)=O)c5N)C4)c(F)c3)ccc2CC1C(=O)NC1CCCc2ccccc21)C(C)(C)C

> <Shape>
0.222

> <Color>
0.051

> <Negative vol penalty>
0.000

$$$$

  -OEChem-04042322553D

 84 92  0     1  0  0  0  0  0999 V2000
  -21.3188  -32.1611   17.6322 C   0  0  0  0  0  0  0  0  0  0  0  0
  -21.5211  -30.7994   17.8329 C   0  0  0  0  0  0  0  0  0  0  0  0
  -31.1206  -19.6146   19.4361 C   0  0  0  0  0  0  0  0  0  0  0  0
  -23.0434   -9.9032   19.9158 C   0  0  0  0  0  0  0  0  0  0  0  0
  -23.8806   -9.7855   22.1790 C   0  0  0  0  0  0  0  0  0  0  0  0
  -21.6766  -33.0717   18.6255 C   0  0  0  0  0  0  0  0  0  0  0  0
  -22.0825  -30.3476   19.0268 C   0  0  0  0  0  0  0  0  0  0  0  0
  -20.7747  -25.1392   21.9708 C   0  0  0  0  0  0  0  0  0  0  0  0
  -31.4157  -18.5161   20.2435 C   0  0  0  0  0  0  0  0  0  0  0  0
  -29.8821  -20.2471   19.5443 C   0  0  0  0  0  0  0  0  0  0  0  0
  -22.3171   -8.7306   20.1234 C   0  0  0  0  0  0  0  0  0  0  0  0
  -23.1543   -8.6129   22.3867 C   0  0  0  0  0  0  0  0  0  0  0  0
  -21.4072  -23.8972   22.0058 C   0  0  0  0  0  0  0  0  0  0  0  0
  -23.4510   -5.3313   21.6290 C   0  0  0  0  0  0  0  0  0  0  0  0
  -24.0982   -4.2723   22.2655 C   0  0  0  0  0  0  0  0  0  0  0  0
  -22.5484  -24.5423   24.0308 C   0  0  0  0  0  0  0  0  0  0  0  0
  -29.2337  -18.6825   21.2673 C   0  0  0  0  0  0  0  0  0  0  0  0
  -22.4544   -4.3315   24.0352 C   0  0  0  0  0  0  0  0  0  0  0  0
  -23.8252  -10.4306   20.9435 C   0  0  0  0  0  0  0  0  0  0  0  0
  -24.1439  -12.9616   20.9582 C   0  0  0  0  0  0  0  0  0  0  0  0
  -22.2337  -32.6301   19.8360 C   0  0  0  0  0  0  0  0  0  0  0  0
  -21.0330  -26.0977   22.9612 C   0  0  0  0  0  0  0  0  0  0  0  0
  -22.4493  -31.2533   20.0366 C   0  0  0  0  0  0  0  0  0  0  0  0
  -21.9159  -25.7947   24.0075 C   0  0  0  0  0  0  0  0  0  0  0  0
  -30.4723  -18.0501   21.1591 C   0  0  0  0  0  0  0  0  0  0  0  0
  -28.9387  -19.7810   20.4599 C   0  0  0  0  0  0  0  0  0  0  0  0
  -22.3725   -8.0855   21.3589 C   0  0  0  0  0  0  0  0  0  0  0  0
  -22.2965  -23.5997   23.0343 C   0  0  0  0  0  0  0  0  0  0  0  0
  -22.3056   -5.8905   22.1955 C   0  0  0  0  0  0  0  0  0  0  0  0
  -23.5999   -3.7724   23.4686 C   0  0  0  0  0  0  0  0  0  0  0  0
  -21.8073   -5.3906   23.3986 C   0  0  0  0  0  0  0  0  0  0  0  0
  -24.5762  -11.6415   20.7294 C   0  0  0  0  0  0  0  0  0  0  0  0
  -25.2174  -13.7410   20.6025 C   0  0  0  0  0  0  0  0  0  0  0  0
  -25.4785  -21.0143   21.2338 C   0  0  0  0  0  0  0  0  0  0  0  0
  -24.3638  -20.8655   21.9627 C   0  0  0  0  0  0  0  0  0  0  0  0
  -22.8845  -13.4405   21.4485 C   0  0  0  0  0  0  0  0  0  0  0  0
  -26.6369  -20.0912   21.4228 C   0  0  0  0  0  0  0  0  0  0  0  0
  -22.2658  -29.0274   22.9802 C   0  0  0  0  0  0  0  0  0  0  0  0
  -21.3986  -28.9508   26.1050 C   0  0  0  0  0  0  0  0  0  0  0  0
  -20.6835  -27.0800   28.8683 C   0  0  0  0  0  0  0  0  0  0  0  0
  -30.6966  -14.7993   20.6659 C   0  0  0  0  0  0  0  0  0  0  0  0
  -22.6483  -33.6557   20.8612 C   0  0  0  0  0  0  0  0  0  0  0  0
  -20.3222  -27.4227   22.9239 C   0  0  0  0  0  0  0  0  0  0  0  0
  -22.2120  -26.7815   25.1061 C   0  0  0  0  0  0  0  0  0  0  0  0
  -22.8913  -33.0666   22.2483 C   0  0  0  0  0  0  0  0  0  0  0  0
  -29.4966  -12.5453   18.1848 C   0  0  0  0  0  0  0  0  0  0  0  0
  -23.7427  -31.8046   22.1507 C   0  0  0  0  0  0  0  0  0  0  0  0
  -28.0769  -12.2136   18.6478 C   0  0  0  0  0  0  0  0  0  0  0  0
  -30.4522  -12.7053   19.3650 C   0  0  0  0  0  0  0  0  0  0  0  0
  -28.5932  -13.3375   20.8544 C   0  0  0  0  0  0  0  0  0  0  0  0
  -23.0328  -30.7225   21.3281 C   0  0  1  0  0  0  0  0  0  0  0  0
  -21.0516  -28.5141   23.7012 C   0  0  1  0  0  0  0  0  0  0  0  0
  -27.5810  -13.2217   19.7019 C   0  0  2  0  0  0  0  0  0  0  0  0
  -20.0454  -27.3004   31.2852 C   0  0  0  0  0  0  0  0  0  0  0  0
  -24.2726  -29.7111   26.7919 C   0  0  0  0  0  0  0  0  0  0  0  0
  -23.8253  -28.9941   29.1486 C   0  0  0  0  0  0  0  0  0  0  0  0
  -22.5305  -30.8798   28.1535 C   0  0  0  0  0  0  0  0  0  0  0  0
  -18.1316  -25.6419   28.4457 C   0  0  0  0  0  0  0  0  0  0  0  0
  -30.7883  -16.8757   22.0221 C   0  0  0  0  0  0  0  0  0  0  0  0
  -23.1673  -21.7500   21.8194 C   0  0  0  0  0  0  0  0  0  1  0  0
  -22.0633  -28.5157   27.3887 C   0  0  1  0  0  0  0  0  0  0  0  0
  -19.5365  -27.1464   29.8604 C   0  0  2  0  0  0  0  0  0  0  0  0
  -23.1691  -29.5071   27.8491 C   0  0  0  0  0  0  0  0  0  0  0  0
  -25.8268  -11.5819   20.2642 N   0  0  0  0  0  0  0  0  0  0  0  0
  -26.1895  -12.8742   20.1977 N   0  0  0  0  0  0  0  0  0  0  0  0
  -21.4970  -28.0658   25.0221 N   0  0  0  0  0  0  0  0  0  0  0  0
  -29.9244  -13.6760   20.3269 N   0  0  0  0  0  0  0  0  0  0  0  0
  -25.4152  -15.0764   20.5995 N   0  0  0  0  0  0  0  0  0  0  0  0
  -21.8914  -12.5039   21.7663 N   0  0  0  0  0  0  0  0  0  0  0  0
  -27.6812  -20.4240   20.5701 N   0  0  0  0  0  0  0  0  0  0  0  0
  -22.0073  -30.0773   22.1198 N   0  0  0  0  0  0  0  0  0  0  0  0
  -20.9910  -28.3240   28.3591 N   0  0  0  0  0  0  0  0  0  0  0  0
  -30.1194  -15.6725   21.5798 N   0  0  0  0  0  0  0  0  0  0  0  0
  -18.7150  -25.9052   29.7863 N   0  3  0  0  0  0  0  0  0  0  0  0
  -22.6411  -14.6635   21.5847 O   0  0  0  0  0  0  0  0  0  0  0  0
  -26.5983  -19.1813   22.2426 O   0  0  0  0  0  0  0  0  0  0  0  0
  -23.3568  -28.5103   23.1902 O   0  0  0  0  0  0  0  0  0  0  0  0
  -20.8074  -30.0328   26.0667 O   0  0  0  0  0  0  0  0  0  0  0  0
  -21.2524  -26.0302   28.5771 O   0  0  0  0  0  0  0  0  0  0  0  0
  -31.8151  -15.0112   20.1854 O   0  0  0  0  0  0  0  0  0  0  0  0
  -21.6638   -6.9414   21.5620 O   0  0  0  0  0  0  0  0  0  0  0  0
  -22.9157  -22.3885   23.0705 O   0  0  0  0  0  0  0  0  0  1  0  0
  -24.2206   -2.7543   24.0789 F   0  0  0  0  0  0  0  0  0  0  0  0
  -20.7066   -5.9229   23.9471 F   0  0  0  0  0  0  0  0  0  0  0  0
  1  2  1  0  0  0  0
  1  6  2  0  0  0  0
  2  7  2  0  0  0  0
  3  9  1  0  0  0  0
  3 10  2  0  0  0  0
  4 11  2  0  0  0  0
  4 19  1  0  0  0  0
  5 12  1  0  0  0  0
  5 19  2  0  0  0  0
  6 21  1  0  0  0  0
  7 23  1  0  0  0  0
  8 13  2  0  0  0  0
  8 22  1  0  0  0  0
  9 25  2  0  0  0  0
 10 26  1  0  0  0  0
 11 27  1  0  0  0  0
 12 27  2  0  0  0  0
 13 28  1  0  0  0  0
 14 15  2  0  0  0  0
 14 29  1  0  0  0  0
 15 30  1  0  0  0  0
 16 24  1  0  0  0  0
 16 28  2  0  0  0  0
 17 25  1  0  0  0  0
 17 26  2  0  0  0  0
 18 30  2  0  0  0  0
 18 31  1  0  0  0  0
 19 32  1  0  0  0  0
 20 32  1  0  0  0  0
 20 33  2  0  0  0  0
 20 36  1  0  0  0  0
 21 23  2  0  0  0  0
 21 42  1  0  0  0  0
 22 24  2  0  0  0  0
 22 43  1  0  0  0  0
 23 51  1  0  0  0  0
 24 44  1  0  0  0  0
 25 59  1  0  0  0  0
 26 70  1  0  0  0  0
 27 81  1  0  0  0  0
 28 82  1  0  0  0  0
 29 31  2  0  0  0  0
 29 81  1  0  0  0  0
 30 83  1  0  0  0  0
 31 84  1  0  0  0  0
 32 64  2  0  0  0  0
 33 65  1  0  0  0  0
 33 68  1  0  0  0  0
 34 35  2  0  0  0  0
 34 37  1  0  0  0  0
 35 60  1  0  0  0  0
 36 69  1  0  0  0  0
 36 75  2  0  0  0  0
 37 70  1  0  0  0  0
 37 76  2  0  0  0  0
 38 52  1  0  0  0  0
 38 71  1  0  0  0  0
 38 77  2  0  0  0  0
 39 61  1  0  0  0  0
 39 66  1  0  0  0  0
 39 78  2  0  0  0  0
 40 62  1  0  0  0  0
 40 72  1  0  0  0  0
 40 79  2  0  0  0  0
 41 67  1  0  0  0  0
 41 73  1  0  0  0  0
 41 80  2  0  0  0  0
 42 45  1  0  0  0  0
 43 52  1  0  0  0  0
 44 66  1  0  0  0  0
 45 47  1  0  0  0  0
 46 48  1  0  0  0  0
 46 49  1  0  0  0  0
 47 51  1  0  0  0  0
 48 53  1  0  0  0  0
 49 67  1  0  0  0  0
 50 53  1  0  0  0  0
 50 67  1  0  0  0  0
 51 71  1  0  0  0  0
 52 66  1  0  0  0  0
 53 65  1  0  0  0  0
 54 62  1  0  0  0  0
 55 63  1  0  0  0  0
 56 63  1  0  0  0  0
 57 63  1  0  0  0  0
 58 74  1  0  0  0  0
 59 73  1  0  0  0  0
 60 82  1  0  0  0  0
 61 63  1  0  0  0  0
 61 72  1  0  0  0  0
 62 74  1  0  0  0  0
 64 65  1  0  0  0  0
M  CHG  1  74   1
M  ISO  4  41 100  60 101  73 100  82 101
M  END
> <Batch ID>
0057

> <Smiles>
CNC(C)C(=O)NC(C(=O)N1Cc2cc([101O:1][101CH2:1]C=CC(=O)Nc3cccc(C[100NH:0][100C:0](=O)N4CCCC(n5nc(-c6ccc(Oc7ccc(F)cc7F)cc6)c(C(N)=O)c5N)C4)c3)ccc2CC1C(=O)NC1CCCc2ccccc21)C(C)(C)C

> <Shape>
0.272

> <Color>
0.222

> <Negative vol penalty>
0.000

$$$$

  -OEChem-04042322553D

 86 94  0     1  0  0  0  0  0999 V2000
  -17.6747  -25.2085   25.1413 C   0  0  0  0  0  0  0  0  0  0  0  0
  -19.0329  -24.9075   25.1390 C   0  0  0  0  0  0  0  0  0  0  0  0
  -30.8527  -19.4413   21.0824 C   0  0  0  0  0  0  0  0  0  0  0  0
  -23.3246   -9.6878   19.9085 C   0  0  0  0  0  0  0  0  0  0  0  0
  -23.5512  -10.0267   22.2899 C   0  0  0  0  0  0  0  0  0  0  0  0
  -29.9199  -20.2959   21.6699 C   0  0  0  0  0  0  0  0  0  0  0  0
  -17.2112  -26.3390   24.4697 C   0  0  0  0  0  0  0  0  0  0  0  0
  -19.9284  -25.7363   24.4640 C   0  0  0  0  0  0  0  0  0  0  0  0
  -24.0927  -26.7134   27.1749 C   0  0  0  0  0  0  0  0  0  0  0  0
  -30.7286  -18.0606   21.2379 C   0  0  0  0  0  0  0  0  0  0  0  0
  -22.5914   -8.5247   20.1438 C   0  0  0  0  0  0  0  0  0  0  0  0
  -22.8180   -8.8637   22.5252 C   0  0  0  0  0  0  0  0  0  0  0  0
  -25.0662  -25.7168   27.2280 C   0  0  0  0  0  0  0  0  0  0  0  0
  -23.3618   -5.5269   22.4947 C   0  0  0  0  0  0  0  0  0  0  0  0
  -23.8425   -4.6419   23.4597 C   0  0  0  0  0  0  0  0  0  0  0  0
  -26.3397  -26.8794   25.5411 C   0  0  0  0  0  0  0  0  0  0  0  0
  -21.7967   -4.9032   24.7182 C   0  0  0  0  0  0  0  0  0  0  0  0
  -23.8045  -10.4388   20.9816 C   0  0  0  0  0  0  0  0  0  0  0  0
  -28.8631  -19.7700   22.4129 C   0  0  0  0  0  0  0  0  0  0  0  0
  -24.0610  -12.9482   20.6009 C   0  0  0  0  0  0  0  0  0  0  0  0
  -18.1026  -27.1874   23.7943 C   0  0  0  0  0  0  0  0  0  0  0  0
  -24.2302  -27.7967   26.2952 C   0  0  0  0  0  0  0  0  0  0  0  0
  -19.4762  -26.8785   23.7816 C   0  0  0  0  0  0  0  0  0  0  0  0
  -25.3677  -27.8898   25.4806 C   0  0  0  0  0  0  0  0  0  0  0  0
  -28.7389  -18.3893   22.5684 C   0  0  0  0  0  0  0  0  0  0  0  0
  -29.6717  -17.5347   21.9809 C   0  0  0  0  0  0  0  0  0  0  0  0
  -22.3381   -8.1127   21.4521 C   0  0  0  0  0  0  0  0  0  0  0  0
  -26.1885  -25.7982   26.4089 C   0  0  0  0  0  0  0  0  0  0  0  0
  -22.0986   -6.1001   22.6414 C   0  0  0  0  0  0  0  0  0  0  0  0
  -23.0599   -4.3300   24.5715 C   0  0  0  0  0  0  0  0  0  0  0  0
  -21.3161   -5.7882   23.7532 C   0  0  0  0  0  0  0  0  0  0  0  0
  -24.5624  -11.6400   20.7392 C   0  0  0  0  0  0  0  0  0  0  0  0
  -25.1751  -13.7220   20.3857 C   0  0  0  0  0  0  0  0  0  0  0  0
  -27.8856  -20.7063   23.0251 C   0  0  0  0  0  0  0  0  0  0  0  0
  -22.7090  -13.4215   20.6618 C   0  0  0  0  0  0  0  0  0  0  0  0
  -22.5649  -28.9061   23.8255 C   0  0  0  0  0  0  0  0  0  0  0  0
  -24.6987  -31.3443   23.9817 C   0  0  0  0  0  0  0  0  0  0  0  0
  -27.7850  -32.4361   24.9460 C   0  0  0  0  0  0  0  0  0  0  0  0
  -30.4162  -15.1587   21.5981 C   0  0  0  0  0  0  0  0  0  0  0  0
  -17.5490  -28.3720   23.0427 C   0  0  0  0  0  0  0  0  0  0  0  0
  -23.1842  -28.8772   26.2692 C   0  0  0  0  0  0  0  0  0  0  0  0
  -25.5726  -29.0428   24.5335 C   0  0  0  0  0  0  0  0  0  0  0  0
  -18.6089  -29.4041   22.6664 C   0  0  0  0  0  0  0  0  0  0  0  0
  -29.9596  -12.4029   19.3903 C   0  0  0  0  0  0  0  0  0  0  0  0
  -19.8334  -28.7183   22.0689 C   0  0  0  0  0  0  0  0  0  0  0  0
  -28.4735  -12.0664   19.5330 C   0  0  0  0  0  0  0  0  0  0  0  0
  -30.5725  -12.8394   20.7198 C   0  0  0  0  0  0  0  0  0  0  0  0
  -28.3769  -13.5922   21.5454 C   0  0  0  0  0  0  0  0  0  0  0  0
  -20.4818  -27.7667   23.0816 C   0  0  1  0  0  0  0  0  0  0  0  0
  -23.1764  -29.6700   24.9658 C   0  0  1  0  0  0  0  0  0  0  0  0
  -27.7001  -13.2096   20.2190 C   0  0  2  0  0  0  0  0  0  0  0  0
  -27.6043  -17.8262   23.3665 C   0  0  0  0  0  0  0  0  0  0  0  0
  -29.2578  -34.4674   24.9039 C   0  0  0  0  0  0  0  0  0  0  0  0
  -25.2828  -30.8566   21.0268 C   0  0  0  0  0  0  0  0  0  0  0  0
  -27.3690  -32.2161   21.2865 C   0  0  0  0  0  0  0  0  0  0  0  0
  -25.1408  -33.2670   21.6782 C   0  0  0  0  0  0  0  0  0  0  0  0
  -29.0673  -22.6333   26.6750 C   0  0  0  0  0  0  0  0  0  0  0  0
  -27.1190  -21.0530   26.6031 C   0  0  0  0  0  0  0  0  0  0  0  0
  -27.9049  -32.5531   27.9008 C   0  0  0  0  0  0  0  0  0  0  0  0
  -27.5802  -22.5768   24.6264 C   0  0  0  0  0  0  0  0  0  0  0  0
  -26.7072  -23.5105   26.8004 C   0  0  0  0  0  0  0  0  0  1  0  0
  -26.0504  -31.6229   23.3698 C   0  0  1  0  0  0  0  0  0  0  0  0
  -28.2243  -33.6811   25.6953 C   0  0  2  0  0  0  0  0  0  0  0  0
  -25.9562  -31.9678   21.8567 C   0  0  0  0  0  0  0  0  0  0  0  0
  -27.6258  -22.4400   26.1671 C   0  0  0  0  0  0  0  0  0  0  0  0
  -25.8916  -11.5822   20.6215 N   0  0  0  0  0  0  0  0  0  0  0  0
  -26.2349  -12.8637   20.4069 N   0  0  0  0  0  0  0  0  0  0  0  0
  -24.5188  -30.0709   24.5400 N   0  0  0  0  0  0  0  0  0  0  0  0
  -29.7897  -13.9279   21.3089 N   0  0  0  0  0  0  0  0  0  0  0  0
  -25.3419  -15.0460   20.1821 N   0  0  0  0  0  0  0  0  0  0  0  0
  -21.6853  -12.4920   20.8907 N   0  0  0  0  0  0  0  0  0  0  0  0
  -29.5649  -16.1292   22.1253 N   0  0  0  0  0  0  0  0  0  0  0  0
  -28.4030  -21.6221   23.9330 N   0  0  0  0  0  0  0  0  0  0  0  0
  -21.2596  -28.5114   24.0486 N   0  0  0  0  0  0  0  0  0  0  0  0
  -26.6594  -32.6689   24.1843 N   0  0  0  0  0  0  0  0  0  0  0  0
  -28.8208  -33.3111   27.0099 N   0  3  0  0  0  0  0  0  0  0  0  0
  -26.6982  -20.6155   22.7242 O   0  0  0  0  0  0  0  0  0  0  0  0
  -22.4157  -14.6305   20.5010 O   0  0  0  0  0  0  0  0  0  0  0  0
  -23.2278  -28.6921   22.8173 O   0  0  0  0  0  0  0  0  0  0  0  0
  -23.8367  -32.2266   23.9711 O   0  0  0  0  0  0  0  0  0  0  0  0
  -28.3828  -31.3652   25.0254 O   0  0  0  0  0  0  0  0  0  0  0  0
  -31.6134  -15.3473   21.3678 O   0  0  0  0  0  0  0  0  0  0  0  0
  -21.6225   -6.9779   21.6820 O   0  0  0  0  0  0  0  0  0  0  0  0
  -27.1400  -24.8266   26.4583 O   0  0  0  0  0  0  0  0  0  1  0  0
  -23.5210   -3.4789   25.4974 F   0  0  0  0  0  0  0  0  0  0  0  0
  -20.1013   -6.3349   23.8990 F   0  0  0  0  0  0  0  0  0  0  0  0
  1  2  1  0  0  0  0
  1  7  2  0  0  0  0
  2  8  2  0  0  0  0
  3  6  2  0  0  0  0
  3 10  1  0  0  0  0
  4 11  2  0  0  0  0
  4 18  1  0  0  0  0
  5 12  1  0  0  0  0
  5 18  2  0  0  0  0
  6 19  1  0  0  0  0
  7 21  1  0  0  0  0
  8 23  1  0  0  0  0
  9 13  2  0  0  0  0
  9 22  1  0  0  0  0
 10 26  2  0  0  0  0
 11 27  1  0  0  0  0
 12 27  2  0  0  0  0
 13 28  1  0  0  0  0
 14 15  2  0  0  0  0
 14 29  1  0  0  0  0
 15 30  1  0  0  0  0
 16 24  1  0  0  0  0
 16 28  2  0  0  0  0
 17 30  2  0  0  0  0
 17 31  1  0  0  0  0
 18 32  1  0  0  0  0
 19 25  2  0  0  0  0
 19 34  1  0  0  0  0
 20 32  1  0  0  0  0
 20 33  2  0  0  0  0
 20 35  1  0  0  0  0
 21 23  2  0  0  0  0
 21 40  1  0  0  0  0
 22 24  2  0  0  0  0
 22 41  1  0  0  0  0
 23 49  1  0  0  0  0
 24 42  1  0  0  0  0
 25 26  1  0  0  0  0
 25 52  1  0  0  0  0
 26 72  1  0  0  0  0
 27 83  1  0  0  0  0
 28 84  1  0  0  0  0
 29 31  2  0  0  0  0
 29 83  1  0  0  0  0
 30 85  1  0  0  0  0
 31 86  1  0  0  0  0
 32 66  2  0  0  0  0
 33 67  1  0  0  0  0
 33 70  1  0  0  0  0
 34 73  1  0  0  0  0
 34 77  2  0  0  0  0
 35 71  1  0  0  0  0
 35 78  2  0  0  0  0
 36 50  1  0  0  0  0
 36 74  1  0  0  0  0
 36 79  2  0  0  0  0
 37 62  1  0  0  0  0
 37 68  1  0  0  0  0
 37 80  2  0  0  0  0
 38 63  1  0  0  0  0
 38 75  1  0  0  0  0
 38 81  2  0  0  0  0
 39 69  1  0  0  0  0
 39 72  1  0  0  0  0
 39 82  2  0  0  0  0
 40 43  1  0  0  0  0
 41 50  1  0  0  0  0
 42 68  1  0  0  0  0
 43 45  1  0  0  0  0
 44 46  1  0  0  0  0
 44 47  1  0  0  0  0
 45 49  1  0  0  0  0
 46 51  1  0  0  0  0
 47 69  1  0  0  0  0
 48 51  1  0  0  0  0
 48 69  1  0  0  0  0
 49 74  1  0  0  0  0
 50 68  1  0  0  0  0
 51 67  1  0  0  0  0
 53 63  1  0  0  0  0
 54 64  1  0  0  0  0
 55 64  1  0  0  0  0
 56 64  1  0  0  0  0
 57 65  1  0  0  0  0
 58 65  1  0  0  0  0
 59 76  1  0  0  0  0
 60 65  1  0  0  0  0
 60 73  1  0  0  0  0
 61 65  1  0  0  0  0
 61 84  1  0  0  0  0
 62 64  1  0  0  0  0
 62 75  1  0  0  0  0
 63 76  1  0  0  0  0
 66 67  1  0  0  0  0
M  CHG  1  76   1
M  ISO  4  39 100  61 101  72 100  84 101
M  END
> <Batch ID>
0057

> <Smiles>
CNC(C)C(=O)NC(C(=O)N1Cc2cc([101O:1][101CH2:1]C(C)(C)CNC(=O)c3cccc([100NH:0][100C:0](=O)N4CCCC(n5nc(-c6ccc(Oc7ccc(F)cc7F)cc6)c(C(N)=O)c5N)C4)c3C)ccc2CC1C(=O)NC1CCCc2ccccc21)C(C)(C)C

> <Shape>
0.305

> <Color>
0.219

> <Negative vol penalty>
0.000

$$$$

  -OEChem-04042322553D

 85 94  0     1  0  0  0  0  0999 V2000
  -16.5699  -29.1032   22.9204 C   0  0  0  0  0  0  0  0  0  0  0  0
  -17.5499  -29.8740   22.3032 C   0  0  0  0  0  0  0  0  0  0  0  0
  -26.4751  -13.5899   19.3214 C   0  0  0  0  0  0  0  0  0  0  0  0
  -26.4694  -12.9206   21.6429 C   0  0  0  0  0  0  0  0  0  0  0  0
  -16.8650  -28.4127   24.0951 C   0  0  0  0  0  0  0  0  0  0  0  0
  -18.8253  -29.9556   22.8610 C   0  0  0  0  0  0  0  0  0  0  0  0
  -24.6432  -27.9356   19.1244 C   0  0  0  0  0  0  0  0  0  0  0  0
  -31.0897  -23.6810   21.3321 C   0  0  0  0  0  0  0  0  0  0  0  0
  -30.9972  -22.4159   21.9124 C   0  0  0  0  0  0  0  0  0  0  0  0
  -25.1734  -13.1093   19.1796 C   0  0  0  0  0  0  0  0  0  0  0  0
  -25.1676  -12.4400   21.5011 C   0  0  0  0  0  0  0  0  0  0  0  0
  -25.8237  -27.7675   18.4002 C   0  0  0  0  0  0  0  0  0  0  0  0
  -23.6489   -9.6949   20.2406 C   0  0  0  0  0  0  0  0  0  0  0  0
  -23.3562   -8.4456   20.7874 C   0  0  0  0  0  0  0  0  0  0  0  0
  -27.1213  -28.2506   20.3829 C   0  0  0  0  0  0  0  0  0  0  0  0
  -29.9286  -22.8684   19.3754 C   0  0  0  0  0  0  0  0  0  0  0  0
  -21.6819   -9.4580   22.2047 C   0  0  0  0  0  0  0  0  0  0  0  0
  -27.1231  -13.4955   20.5530 C   0  0  0  0  0  0  0  0  0  0  0  0
  -29.6118  -13.5674   19.9972 C   0  0  0  0  0  0  0  0  0  0  0  0
  -18.1474  -28.4781   24.6624 C   0  0  0  0  0  0  0  0  0  0  0  0
  -24.6975  -28.2472   20.4858 C   0  0  0  0  0  0  0  0  0  0  0  0
  -19.1374  -29.2663   24.0451 C   0  0  0  0  0  0  0  0  0  0  0  0
  -25.9422  -28.4080   21.1162 C   0  0  0  0  0  0  0  0  0  0  0  0
  -29.8362  -21.6033   19.9556 C   0  0  0  0  0  0  0  0  0  0  0  0
  -30.5553  -23.9072   20.0637 C   0  0  0  0  0  0  0  0  0  0  0  0
  -30.3705  -21.3771   21.2241 C   0  0  0  0  0  0  0  0  0  0  0  0
  -24.5196  -12.5344   20.2695 C   0  0  0  0  0  0  0  0  0  0  0  0
  -27.0596  -27.9248   19.0279 C   0  0  0  0  0  0  0  0  0  0  0  0
  -22.9581  -10.8259   20.6760 C   0  0  0  0  0  0  0  0  0  0  0  0
  -22.3727   -8.3271   21.7694 C   0  0  0  0  0  0  0  0  0  0  0  0
  -21.9746  -10.7075   21.6579 C   0  0  0  0  0  0  0  0  0  0  0  0
  -28.4680  -13.9913   20.6999 C   0  0  0  0  0  0  0  0  0  0  0  0
  -30.6295  -14.3415   20.4987 C   0  0  0  0  0  0  0  0  0  0  0  0
  -31.8719  -25.8396   19.2057 C   0  0  0  0  0  0  0  0  0  0  0  0
  -33.0569  -25.2302   19.0056 C   0  0  0  0  0  0  0  0  0  0  0  0
  -29.7427  -12.5636   18.9818 C   0  0  0  0  0  0  0  0  0  0  0  0
  -22.7964  -28.9440   23.6443 C   0  0  0  0  0  0  0  0  0  0  0  0
  -25.1967  -27.1967   24.4161 C   0  0  0  0  0  0  0  0  0  0  0  0
  -27.7164  -24.9265   24.7830 C   0  0  0  0  0  0  0  0  0  0  0  0
  -30.7679  -19.7263   23.0852 C   0  0  0  0  0  0  0  0  0  0  0  0
  -18.4055  -27.7521   25.9589 C   0  0  0  0  0  0  0  0  0  0  0  0
  -23.4513  -28.4980   21.2908 C   0  0  0  0  0  0  0  0  0  0  0  0
  -25.9521  -28.7773   22.5745 C   0  0  0  0  0  0  0  0  0  0  0  0
  -31.8352  -27.3523   19.1059 C   0  0  0  0  0  0  0  0  0  0  0  0
  -19.8888  -27.5906   26.2817 C   0  0  0  0  0  0  0  0  0  0  0  0
  -30.5962  -27.8568   18.3811 C   0  0  0  0  0  0  0  0  0  0  0  0
  -31.9571  -16.6685   24.4682 C   0  0  0  0  0  0  0  0  0  0  0  0
  -20.6279  -28.9078   26.0689 C   0  0  0  0  0  0  0  0  0  0  0  0
  -31.3062  -15.5965   23.5911 C   0  0  0  0  0  0  0  0  0  0  0  0
  -31.0234  -17.8552   24.7003 C   0  0  0  0  0  0  0  0  0  0  0  0
  -29.8184  -17.3850   22.6036 C   0  0  0  0  0  0  0  0  0  0  0  0
  -29.3695  -25.7525   18.9926 C   0  0  0  0  0  0  0  0  0  0  0  0
  -20.5397  -29.3599   24.6062 C   0  0  1  0  0  0  0  0  0  0  0  0
  -23.5687  -28.0200   22.7492 C   0  0  1  0  0  0  0  0  0  0  0  0
  -30.7446  -16.1990   22.2883 C   0  0  2  0  0  0  0  0  0  0  0  0
  -29.3462  -27.2794   19.0278 C   0  0  2  0  0  0  0  0  0  1  0  0
  -29.1581  -20.5094   19.1962 C   0  0  0  0  0  0  0  0  0  0  0  0
  -28.8870  -23.5469   26.5218 C   0  0  0  0  0  0  0  0  0  0  0  0
  -26.6651  -29.6841   25.3959 C   0  0  0  0  0  0  0  0  0  0  0  0
  -28.4100  -28.1808   26.3774 C   0  0  0  0  0  0  0  0  0  0  0  0
  -26.0561  -28.0558   27.1937 C   0  0  0  0  0  0  0  0  0  0  0  0
  -26.9587  -22.3946   23.4510 C   0  0  0  0  0  0  0  0  0  0  0  0
  -26.6231  -27.1502   24.9023 C   0  0  1  0  0  0  0  0  0  0  0  0
  -27.7688  -23.5852   25.4919 C   0  0  2  0  0  0  0  0  0  0  0  0
  -26.9323  -28.2664   25.9396 C   0  0  0  0  0  0  0  0  0  0  0  0
  -28.7335  -14.9595   21.5809 N   0  0  0  0  0  0  0  0  0  0  0  0
  -30.0558  -15.1503   21.4352 N   0  0  0  0  0  0  0  0  0  0  0  0
  -30.6493  -25.1993   19.4715 N   0  0  0  0  0  0  0  0  0  0  0  0
  -24.9355  -27.9969   23.2972 N   0  0  0  0  0  0  0  0  0  0  0  0
  -30.5341  -18.3763   23.4221 N   0  0  0  0  0  0  0  0  0  0  0  0
  -31.9502  -14.4024   20.2257 N   0  0  0  0  0  0  0  0  0  0  0  0
  -28.5963  -11.8624   18.5838 N   0  0  0  0  0  0  0  0  0  0  0  0
  -30.2852  -20.0996   21.8313 N   0  0  0  0  0  0  0  0  0  0  0  0
  -21.4643  -28.6055   23.7874 N   0  0  0  0  0  0  0  0  0  0  0  0
  -26.8413  -25.7959   25.3990 N   0  0  0  0  0  0  0  0  0  0  0  0
  -27.9973  -22.4885   24.5090 N   0  3  0  0  0  0  0  0  0  0  0  0
  -30.8465  -12.2851   18.4550 O   0  0  0  0  0  0  0  0  0  0  0  0
  -23.3663  -29.8938   24.1684 O   0  0  0  0  0  0  0  0  0  0  0  0
  -24.3343  -26.5466   25.0136 O   0  0  0  0  0  0  0  0  0  0  0  0
  -28.3878  -25.1792   23.7850 O   0  0  0  0  0  0  0  0  0  0  0  0
  -31.3772  -20.4876   23.8410 O   0  0  0  0  0  0  0  0  0  0  0  0
  -23.2493  -12.0655   20.1316 O   0  0  0  0  0  0  0  0  0  0  0  0
  -28.2082  -27.7547   18.3161 O   0  0  0  0  0  0  0  0  0  1  0  0
  -22.0907   -7.1270   22.2933 F   0  0  0  0  0  0  0  0  0  0  0  0
  -21.3068  -11.7902   22.0793 F   0  0  0  0  0  0  0  0  0  0  0  0
  1  2  1  0  0  0  0
  1  5  2  0  0  0  0
  2  6  2  0  0  0  0
  3 10  2  0  0  0  0
  3 18  1  0  0  0  0
  4 11  1  0  0  0  0
  4 18  2  0  0  0  0
  5 20  1  0  0  0  0
  6 22  1  0  0  0  0
  7 12  2  0  0  0  0
  7 21  1  0  0  0  0
  8  9  2  0  0  0  0
  8 25  1  0  0  0  0
  9 26  1  0  0  0  0
 10 27  1  0  0  0  0
 11 27  2  0  0  0  0
 12 28  1  0  0  0  0
 13 14  2  0  0  0  0
 13 29  1  0  0  0  0
 14 30  1  0  0  0  0
 15 23  1  0  0  0  0
 15 28  2  0  0  0  0
 16 24  1  0  0  0  0
 16 25  2  0  0  0  0
 17 30  2  0  0  0  0
 17 31  1  0  0  0  0
 18 32  1  0  0  0  0
 19 32  1  0  0  0  0
 19 33  2  0  0  0  0
 19 36  1  0  0  0  0
 20 22  2  0  0  0  0
 20 41  1  0  0  0  0
 21 23  2  0  0  0  0
 21 42  1  0  0  0  0
 22 53  1  0  0  0  0
 23 43  1  0  0  0  0
 24 26  2  0  0  0  0
 24 57  1  0  0  0  0
 25 68  1  0  0  0  0
 26 73  1  0  0  0  0
 27 82  1  0  0  0  0
 28 83  1  0  0  0  0
 29 31  2  0  0  0  0
 29 82  1  0  0  0  0
 30 84  1  0  0  0  0
 31 85  1  0  0  0  0
 32 66  2  0  0  0  0
 33 67  1  0  0  0  0
 33 71  1  0  0  0  0
 34 35  2  0  0  0  0
 34 44  1  0  0  0  0
 34 68  1  0  0  0  0
 36 72  1  0  0  0  0
 36 77  2  0  0  0  0
 37 54  1  0  0  0  0
 37 74  1  0  0  0  0
 37 78  2  0  0  0  0
 38 63  1  0  0  0  0
 38 69  1  0  0  0  0
 38 79  2  0  0  0  0
 39 64  1  0  0  0  0
 39 75  1  0  0  0  0
 39 80  2  0  0  0  0
 40 70  1  0  0  0  0
 40 73  1  0  0  0  0
 40 81  2  0  0  0  0
 41 45  1  0  0  0  0
 42 54  1  0  0  0  0
 43 69  1  0  0  0  0
 44 46  1  0  0  0  0
 45 48  1  0  0  0  0
 46 56  1  0  0  0  0
 47 49  1  0  0  0  0
 47 50  1  0  0  0  0
 48 53  1  0  0  0  0
 49 55  1  0  0  0  0
 50 70  1  0  0  0  0
 51 55  1  0  0  0  0
 51 70  1  0  0  0  0
 52 56  1  0  0  0  0
 52 68  1  0  0  0  0
 53 74  1  0  0  0  0
 54 69  1  0  0  0  0
 55 67  1  0  0  0  0
 56 83  1  0  0  0  0
 58 64  1  0  0  0  0
 59 65  1  0  0  0  0
 60 65  1  0  0  0  0
 61 65  1  0  0  0  0
 62 76  1  0  0  0  0
 63 65  1  0  0  0  0
 63 75  1  0  0  0  0
 64 76  1  0  0  0  0
 66 67  1  0  0  0  0
M  CHG  1  76   1
M  ISO  4  40 100  56 101  73 100  83 101
M  END
> <Batch ID>
0057

> <Smiles>
C=C1CC[101CH:1]([101O:1]c2ccc3c(c2)CN(C(=O)C(NC(=O)C(C)NC)C(C)(C)C)C(C(=O)NC2CCCc4ccccc42)C3)CN1c1ccc([100NH:0][100C:0](=O)N2CCCC(n3nc(-c4ccc(Oc5ccc(F)cc5F)cc4)c(C(N)=O)c3N)C2)c(C)c1

> <Shape>
0.280

> <Color>
0.083

> <Negative vol penalty>
0.000

$$$$

  -OEChem-04042322553D

 94103  0     1  0  0  0  0  0999 V2000
  -37.3067  -12.2195   22.7275 C   0  0  0  0  0  0  0  0  0  0  0  0
  -36.8246  -13.5046   22.5007 C   0  0  0  0  0  0  0  0  0  0  0  0
  -25.8005  -34.0706   23.7757 C   0  0  0  0  0  0  0  0  0  0  0  0
  -17.3136  -24.9397   21.9151 C   0  0  0  0  0  0  0  0  0  0  0  0
  -16.8044  -26.0089   24.0210 C   0  0  0  0  0  0  0  0  0  0  0  0
  -36.6580  -11.1229   22.1613 C   0  0  0  0  0  0  0  0  0  0  0  0
  -35.6941  -13.6939   21.7066 C   0  0  0  0  0  0  0  0  0  0  0  0
  -31.3680  -17.9696   22.4199 C   0  0  0  0  0  0  0  0  0  0  0  0
  -24.7277  -34.0645   24.6670 C   0  0  0  0  0  0  0  0  0  0  0  0
  -26.3055  -32.8670   23.2837 C   0  0  0  0  0  0  0  0  0  0  0  0
  -16.2225  -24.0873   22.0840 C   0  0  0  0  0  0  0  0  0  0  0  0
  -15.7132  -25.1565   24.1899 C   0  0  0  0  0  0  0  0  0  0  0  0
  -31.1586  -19.2037   21.8060 C   0  0  0  0  0  0  0  0  0  0  0  0
  -12.5458  -24.9096   23.0380 C   0  0  0  0  0  0  0  0  0  0  0  0
  -11.3432  -25.4750   23.4620 C   0  0  0  0  0  0  0  0  0  0  0  0
  -27.0993  -28.4361   21.1108 C   0  0  0  0  0  0  0  0  0  0  0  0
  -29.6232  -18.1675   20.2606 C   0  0  0  0  0  0  0  0  0  0  0  0
  -28.9018  -26.6850   22.3223 C   0  0  0  0  0  0  0  0  0  0  0  0
  -11.3753  -24.0695   25.4269 C   0  0  0  0  0  0  0  0  0  0  0  0
  -17.6046  -25.9005   22.8836 C   0  0  0  0  0  0  0  0  0  0  0  0
  -27.8080  -28.8378   22.2431 C   0  0  0  0  0  0  0  0  0  0  0  0
  -18.7396  -28.0370   22.0744 C   0  0  0  0  0  0  0  0  0  0  0  0
  -35.5134  -11.2981   21.3677 C   0  0  0  0  0  0  0  0  0  0  0  0
  -30.7138  -16.8213   21.9512 C   0  0  0  0  0  0  0  0  0  0  0  0
  -35.0303  -12.5987   21.1281 C   0  0  0  0  0  0  0  0  0  0  0  0
  -29.8241  -16.9205   20.8720 C   0  0  0  0  0  0  0  0  0  0  0  0
  -24.1598  -32.8547   25.0665 C   0  0  0  0  0  0  0  0  0  0  0  0
  -27.2918  -27.1588   20.5843 C   0  0  0  0  0  0  0  0  0  0  0  0
  -28.7093  -27.9623   22.8488 C   0  0  0  0  0  0  0  0  0  0  0  0
  -25.7376  -31.6572   23.6832 C   0  0  0  0  0  0  0  0  0  0  0  0
  -28.1930  -26.2833   21.1900 C   0  0  0  0  0  0  0  0  0  0  0  0
  -24.6648  -31.6510   24.5746 C   0  0  0  0  0  0  0  0  0  0  0  0
  -15.4223  -24.1958   23.2214 C   0  0  0  0  0  0  0  0  0  0  0  0
  -30.2883  -19.3023   20.7243 C   0  0  0  0  0  0  0  0  0  0  0  0
  -13.1631  -23.9241   23.8084 C   0  0  0  0  0  0  0  0  0  0  0  0
  -10.7580  -25.0550   24.6565 C   0  0  0  0  0  0  0  0  0  0  0  0
  -12.5779  -23.5041   25.0028 C   0  0  0  0  0  0  0  0  0  0  0  0
  -18.7319  -26.7809   22.7100 C   0  0  0  0  0  0  0  0  0  0  0  0
  -20.0412  -28.4639   22.1733 C   0  0  0  0  0  0  0  0  0  0  0  0
  -27.5880  -30.1770   22.7727 C   0  0  0  0  0  0  0  0  0  0  0  0
  -17.6660  -28.7537   21.4503 C   0  0  0  0  0  0  0  0  0  0  0  0
  -31.6576  -14.0497   20.7136 C   0  0  0  0  0  0  0  0  0  0  0  0
  -29.2788  -22.7681   20.4506 C   0  0  0  0  0  0  0  0  0  0  0  0
  -28.5001  -13.3325   20.9093 C   0  0  0  0  0  0  0  0  0  0  0  0
  -25.2785  -14.4499   21.0489 C   0  0  0  0  0  0  0  0  0  0  0  0
  -24.7204  -29.1885   25.1031 C   0  0  0  0  0  0  0  0  0  0  0  0
  -34.8739  -10.0859   20.7382 C   0  0  0  0  0  0  0  0  0  0  0  0
  -30.9300  -15.5024   22.6413 C   0  0  0  0  0  0  0  0  0  0  0  0
  -29.0817  -15.7214   20.3434 C   0  0  0  0  0  0  0  0  0  0  0  0
  -33.4627  -10.3436   20.2163 C   0  0  0  0  0  0  0  0  0  0  0  0
  -24.2176  -25.9935   23.6145 C   0  0  0  0  0  0  0  0  0  0  0  0
  -33.4182  -11.6416   19.4162 C   0  0  0  0  0  0  0  0  0  0  0  0
  -22.7462  -26.0169   23.1941 C   0  0  0  0  0  0  0  0  0  0  0  0
  -24.4414  -26.7249   24.9369 C   0  0  0  0  0  0  0  0  0  0  0  0
  -22.4442  -28.1185   24.5649 C   0  0  0  0  0  0  0  0  0  0  0  0
  -33.7923  -12.8429   20.2927 C   0  0  1  0  0  0  0  0  0  0  0  0
  -30.6049  -14.3039   21.7552 C   0  0  1  0  0  0  0  0  0  0  0  0
  -22.1795  -27.4501   23.2059 C   0  0  2  0  0  0  0  0  0  0  0  0
  -23.0114  -32.8811   26.0227 C   0  0  0  0  0  0  0  0  0  0  0  0
  -26.5187  -26.7538   19.3716 C   0  0  0  0  0  0  0  0  0  0  0  0
  -29.4800  -28.3668   24.0629 C   0  0  0  0  0  0  0  0  0  0  0  0
  -22.9110  -13.6260   21.1656 C   0  0  0  0  0  0  0  0  0  0  0  0
  -28.6098  -12.6053   17.9480 C   0  0  0  0  0  0  0  0  0  0  0  0
  -26.1091  -12.7161   17.8997 C   0  0  0  0  0  0  0  0  0  0  0  0
  -27.2538  -11.0452   19.3558 C   0  0  0  0  0  0  0  0  0  0  0  0
  -24.8172  -15.7912   23.6464 C   0  0  0  0  0  0  0  0  0  0  0  0
  -29.3084  -24.0522   21.2521 C   0  0  0  0  0  0  0  0  0  0  0  0
  -30.2018  -21.6691   20.9401 C   0  0  0  0  0  0  0  0  0  1  0  0
  -27.3092  -13.4907   19.9951 C   0  0  1  0  0  0  0  0  0  0  0  0
  -24.1234  -14.0819   21.9625 C   0  0  2  0  0  0  0  0  0  0  0  0
  -27.3358  -12.4868   18.8081 C   0  0  0  0  0  0  0  0  0  0  0  0
  -19.9334  -26.4325   23.1780 N   0  0  0  0  0  0  0  0  0  0  0  0
  -20.7082  -27.4760   22.8361 N   0  0  0  0  0  0  0  0  0  0  0  0
  -29.3315  -14.4530   21.0478 N   0  0  0  0  0  0  0  0  0  0  0  0
  -23.8824  -28.0770   24.8724 N   0  0  0  0  0  0  0  0  0  0  0  0
  -20.6690  -29.5842   21.7571 N   0  0  0  0  0  0  0  0  0  0  0  0
  -16.3917  -28.1704   21.4375 N   0  0  0  0  0  0  0  0  0  0  0  0
  -26.2701  -30.4484   23.1684 N   0  0  0  0  0  0  0  0  0  0  0  0
  -24.0853  -30.4242   24.9829 N   0  0  0  0  0  0  0  0  0  0  0  0
  -28.3960  -25.0090   20.6799 N   0  0  0  0  0  0  0  0  0  0  0  0
  -32.6783  -13.2197   21.1362 N   0  0  0  0  0  0  0  0  0  0  0  0
  -26.1267  -13.3826   20.8427 N   0  0  0  0  0  0  0  0  0  0  0  0
  -23.7262  -15.2537   22.7932 N   0  3  0  0  0  0  0  0  0  0  0  0
  -28.5009  -31.0106   22.8287 O   0  0  0  0  0  0  0  0  0  0  0  0
  -17.8354  -29.8708   20.9054 O   0  0  0  0  0  0  0  0  0  0  0  0
  -31.5508  -14.5671   19.6079 O   0  0  0  0  0  0  0  0  0  0  0  0
  -28.5578  -22.6152   19.4654 O   0  0  0  0  0  0  0  0  0  0  0  0
  -28.6819  -12.2568   21.4850 O   0  0  0  0  0  0  0  0  0  0  0  0
  -25.4127  -15.5710   20.5635 O   0  0  0  0  0  0  0  0  0  0  0  0
  -25.9197  -29.0549   25.3597 O   0  0  0  0  0  0  0  0  0  0  0  0
  -14.3574  -23.3643   23.3864 O   0  0  0  0  0  0  0  0  0  0  0  0
  -30.0826  -20.5055   20.1227 O   0  0  0  0  0  0  0  0  0  1  0  0
   -9.6040  -25.5991   25.0644 F   0  0  0  0  0  0  0  0  0  0  0  0
  -13.1669  -22.5586   25.7478 F   0  0  0  0  0  0  0  0  0  0  0  0
  1  2  1  0  0  0  0
  1  6  2  0  0  0  0
  2  7  2  0  0  0  0
  3  9  1  0  0  0  0
  3 10  2  0  0  0  0
  4 11  2  0  0  0  0
  4 20  1  0  0  0  0
  5 12  1  0  0  0  0
  5 20  2  0  0  0  0
  6 23  1  0  0  0  0
  7 25  1  0  0  0  0
  8 13  2  0  0  0  0
  8 24  1  0  0  0  0
  9 27  2  0  0  0  0
 10 30  1  0  0  0  0
 11 33  1  0  0  0  0
 12 33  2  0  0  0  0
 13 34  1  0  0  0  0
 14 15  2  0  0  0  0
 14 35  1  0  0  0  0
 15 36  1  0  0  0  0
 16 21  2  0  0  0  0
 16 28  1  0  0  0  0
 17 26  1  0  0  0  0
 17 34  2  0  0  0  0
 18 29  2  0  0  0  0
 18 31  1  0  0  0  0
 19 36  2  0  0  0  0
 19 37  1  0  0  0  0
 20 38  1  0  0  0  0
 21 29  1  0  0  0  0
 21 40  1  0  0  0  0
 22 38  1  0  0  0  0
 22 39  2  0  0  0  0
 22 41  1  0  0  0  0
 23 25  2  0  0  0  0
 23 47  1  0  0  0  0
 24 26  2  0  0  0  0
 24 48  1  0  0  0  0
 25 56  1  0  0  0  0
 26 49  1  0  0  0  0
 27 32  1  0  0  0  0
 27 59  1  0  0  0  0
 28 31  2  0  0  0  0
 28 60  1  0  0  0  0
 29 61  1  0  0  0  0
 30 32  2  0  0  0  0
 30 78  1  0  0  0  0
 31 80  1  0  0  0  0
 32 79  1  0  0  0  0
 33 91  1  0  0  0  0
 34 92  1  0  0  0  0
 35 37  2  0  0  0  0
 35 91  1  0  0  0  0
 36 93  1  0  0  0  0
 37 94  1  0  0  0  0
 38 72  2  0  0  0  0
 39 73  1  0  0  0  0
 39 76  1  0  0  0  0
 40 78  1  0  0  0  0
 40 84  2  0  0  0  0
 41 77  1  0  0  0  0
 41 85  2  0  0  0  0
 42 57  1  0  0  0  0
 42 81  1  0  0  0  0
 42 86  2  0  0  0  0
 43 67  1  0  0  0  0
 43 68  1  0  0  0  0
 43 87  2  0  0  0  0
 44 69  1  0  0  0  0
 44 74  1  0  0  0  0
 44 88  2  0  0  0  0
 45 70  1  0  0  0  0
 45 82  1  0  0  0  0
 45 89  2  0  0  0  0
 46 75  1  0  0  0  0
 46 79  1  0  0  0  0
 46 90  2  0  0  0  0
 47 50  1  0  0  0  0
 48 57  1  0  0  0  0
 49 74  1  0  0  0  0
 50 52  1  0  0  0  0
 51 53  1  0  0  0  0
 51 54  1  0  0  0  0
 52 56  1  0  0  0  0
 53 58  1  0  0  0  0
 54 75  1  0  0  0  0
 55 58  1  0  0  0  0
 55 75  1  0  0  0  0
 56 81  1  0  0  0  0
 57 74  1  0  0  0  0
 58 73  1  0  0  0  0
 62 70  1  0  0  0  0
 63 71  1  0  0  0  0
 64 71  1  0  0  0  0
 65 71  1  0  0  0  0
 66 83  1  0  0  0  0
 67 80  1  0  0  0  0
 68 92  1  0  0  0  0
 69 71  1  0  0  0  0
 69 82  1  0  0  0  0
 70 83  1  0  0  0  0
 72 73  1  0  0  0  0
M  CHG  1  83   1
M  ISO  4  46 100  68 101  79 100  92 101
M  END
> <Batch ID>
0057

> <Smiles>
CNC(C)C(=O)NC(C(=O)N1Cc2cc([101O:1][101CH2:1]C(=O)CNc3cc(C)c(C(=O)Nc4cccc(C)c4[100NH:0][100C:0](=O)N4CCCC(n5nc(-c6ccc(Oc7ccc(F)cc7F)cc6)c(C(N)=O)c5N)C4)cc3C)ccc2CC1C(=O)NC1CCCc2ccccc21)C(C)(C)C

> <Shape>
0.276

> <Color>
0.072

> <Negative vol penalty>
0.000

$$$$

  -OEChem-04042322553D

 91 99  0     1  0  0  0  0  0999 V2000
  -28.7641  -11.0430   21.1259 C   0  0  0  0  0  0  0  0  0  0  0  0
  -29.0185  -12.4044   20.9948 C   0  0  0  0  0  0  0  0  0  0  0  0
  -29.5600  -28.7750   20.2900 C   0  0  0  0  0  0  0  0  0  0  0  0
  -27.8692  -27.4929   19.1348 C   0  0  0  0  0  0  0  0  0  0  0  0
  -27.4618  -10.5625   20.9949 C   0  0  0  0  0  0  0  0  0  0  0  0
  -27.9708  -13.2861   20.7313 C   0  0  0  0  0  0  0  0  0  0  0  0
  -25.8476  -19.9944   22.0755 C   0  0  0  0  0  0  0  0  0  0  0  0
  -18.5356  -27.3922   23.6390 C   0  0  0  0  0  0  0  0  0  0  0  0
  -19.5752  -28.3222   23.6409 C   0  0  0  0  0  0  0  0  0  0  0  0
  -30.4618  -27.7218   20.1391 C   0  0  0  0  0  0  0  0  0  0  0  0
  -28.7711  -26.4396   18.9838 C   0  0  0  0  0  0  0  0  0  0  0  0
  -25.4085  -21.1387   21.4111 C   0  0  0  0  0  0  0  0  0  0  0  0
  -30.0142  -23.9329   20.8817 C   0  0  0  0  0  0  0  0  0  0  0  0
  -29.5573  -22.6441   21.1568 C   0  0  0  0  0  0  0  0  0  0  0  0
  -20.0434  -27.8036   21.3281 C   0  0  0  0  0  0  0  0  0  0  0  0
  -23.1879  -20.2050   21.2833 C   0  0  0  0  0  0  0  0  0  0  0  0
  -30.0587  -21.9820   18.8880 C   0  0  0  0  0  0  0  0  0  0  0  0
  -28.2636  -28.6606   19.7879 C   0  0  0  0  0  0  0  0  0  0  0  0
  -19.0039  -26.8735   21.3262 C   0  0  0  0  0  0  0  0  0  0  0  0
  -27.1219  -30.8221   19.0583 C   0  0  0  0  0  0  0  0  0  0  0  0
  -26.3962  -11.4399   20.7392 C   0  0  0  0  0  0  0  0  0  0  0  0
  -24.9612  -18.9404   22.3396 C   0  0  0  0  0  0  0  0  0  0  0  0
  -26.6532  -12.8167   20.5953 C   0  0  0  0  0  0  0  0  0  0  0  0
  -23.6177  -19.0495   21.9535 C   0  0  0  0  0  0  0  0  0  0  0  0
  -18.2500  -26.6678   22.4816 C   0  0  0  0  0  0  0  0  0  0  0  0
  -20.3291  -28.5279   22.4854 C   0  0  0  0  0  0  0  0  0  0  0  0
  -30.0674  -26.5541   19.4860 C   0  0  0  0  0  0  0  0  0  0  0  0
  -24.0791  -21.2429   21.0123 C   0  0  0  0  0  0  0  0  0  0  0  0
  -30.4933  -24.2463   19.6097 C   0  0  0  0  0  0  0  0  0  0  0  0
  -29.5796  -21.6686   20.1600 C   0  0  0  0  0  0  0  0  0  0  0  0
  -30.5156  -23.2709   18.6129 C   0  0  0  0  0  0  0  0  0  0  0  0
  -27.3314  -29.7481   19.9440 C   0  0  0  0  0  0  0  0  0  0  0  0
  -26.1411  -31.5746   19.6568 C   0  0  0  0  0  0  0  0  0  0  0  0
  -18.7208  -26.1162   20.0798 C   0  0  0  0  0  0  0  0  0  0  0  0
  -27.7571  -31.1133   17.8063 C   0  0  0  0  0  0  0  0  0  0  0  0
  -24.7939  -15.8830   21.4863 C   0  0  0  0  0  0  0  0  0  0  0  0
  -22.6138  -23.1016   20.9780 C   0  0  0  0  0  0  0  0  0  1  0  0
  -22.3102  -15.8404   23.5723 C   0  0  0  0  0  0  0  0  0  0  0  0
  -19.8756  -17.5792   25.2143 C   0  0  0  0  0  0  0  0  0  0  0  0
  -21.8019  -30.2710   23.5526 C   0  0  0  0  0  0  0  0  0  0  0  0
  -25.0124  -10.8681   20.5587 C   0  0  0  0  0  0  0  0  0  0  0  0
  -25.4444  -17.7241   23.0810 C   0  0  0  0  0  0  0  0  0  0  0  0
  -22.6214  -17.9546   22.2312 C   0  0  0  0  0  0  0  0  0  0  0  0
  -23.9043  -11.9140   20.6515 C   0  0  0  0  0  0  0  0  0  0  0  0
  -24.3833  -32.6874   23.9703 C   0  0  0  0  0  0  0  0  0  0  0  0
  -24.2581  -13.1419   19.8185 C   0  0  0  0  0  0  0  0  0  0  0  0
  -25.4104  -32.3093   22.9005 C   0  0  0  0  0  0  0  0  0  0  0  0
  -23.7268  -31.4538   24.5874 C   0  0  0  0  0  0  0  0  0  0  0  0
  -24.1680  -30.1361   22.5531 C   0  0  0  0  0  0  0  0  0  0  0  0
  -25.5397  -13.8077   20.3341 C   0  0  1  0  0  0  0  0  0  0  0  0
  -24.5748  -16.4937   22.8415 C   0  0  1  0  0  0  0  0  0  0  0  0
  -24.8091  -31.3477   21.8568 C   0  0  2  0  0  0  0  0  0  0  0  0
  -17.1312  -25.6780   22.5071 C   0  0  0  0  0  0  0  0  0  0  0  0
  -17.9748  -17.2655   26.8224 C   0  0  0  0  0  0  0  0  0  0  0  0
  -24.6824  -25.0324   23.6509 C   0  0  0  0  0  0  0  0  0  0  0  0
  -23.9053  -25.7450   21.3818 C   0  0  0  0  0  0  0  0  0  0  0  0
  -18.7978  -22.4845   19.5576 C   0  0  0  0  0  0  0  0  0  0  0  0
  -20.6079  -14.6683   21.3276 C   0  0  0  0  0  0  0  0  0  0  0  0
  -18.5709  -15.2615   22.6570 C   0  0  0  0  0  0  0  0  0  0  0  0
  -20.2267  -13.6364   23.5736 C   0  0  0  0  0  0  0  0  0  0  0  0
  -21.1257  -19.3607   27.2199 C   0  0  0  0  0  0  0  0  0  0  0  0
  -23.0493  -23.5896   22.3429 C   0  0  0  0  0  0  0  0  0  0  0  0
  -21.2720  -22.7378   19.0698 C   0  0  0  0  0  0  0  0  0  0  0  0
  -19.6473  -24.5614   18.3828 C   0  0  0  0  0  0  0  0  0  0  0  0
  -20.8249  -16.0907   23.4714 C   0  0  1  0  0  0  0  0  0  0  0  0
  -19.4534  -17.5880   26.6724 C   0  0  2  0  0  0  0  0  0  0  0  0
  -24.2503  -24.5451   22.2660 C   0  0  0  0  0  0  0  0  0  0  0  0
  -19.8467  -23.0532   18.5958 C   0  0  2  0  0  0  0  0  0  0  0  0
  -20.0766  -14.9342   22.7503 C   0  0  0  0  0  0  0  0  0  0  0  0
  -26.5468  -29.8094   21.0233 N   0  0  0  0  0  0  0  0  0  0  0  0
  -21.4841  -23.3018   20.3923 N   0  0  0  0  0  0  0  0  0  0  0  0
  -25.8349  -30.9309   20.8196 N   0  0  0  0  0  0  0  0  0  0  0  0
  -23.1436  -16.7827   22.9533 N   0  0  0  0  0  0  0  0  0  0  0  0
  -23.1759  -30.5916   23.5395 N   0  0  0  0  0  0  0  0  0  0  0  0
  -25.5195  -32.7175   19.2967 N   0  0  0  0  0  0  0  0  0  0  0  0
  -28.7440  -30.2355   17.3376 N   0  0  0  0  0  0  0  0  0  0  0  0
  -21.3863  -29.4713   22.4884 N   0  0  0  0  0  0  0  0  0  0  0  0
  -19.7594  -25.3326   19.5907 N   0  0  0  0  0  0  0  0  0  0  0  0
  -25.2627  -14.5837   21.5238 N   0  0  0  0  0  0  0  0  0  0  0  0
  -20.3608  -16.3469   24.8306 N   0  0  0  0  0  0  0  0  0  0  0  0
  -19.7060  -18.9266   27.2768 N   0  3  0  0  0  0  0  0  0  0  0  0
  -17.6213  -26.2311   19.5446 O   0  0  0  0  0  0  0  0  0  0  0  0
  -27.4699  -32.1310   17.1314 O   0  0  0  0  0  0  0  0  0  0  0  0
  -24.5539  -16.5414   20.4809 O   0  0  0  0  0  0  0  0  0  0  0  0
  -22.7161  -14.8492   24.1841 O   0  0  0  0  0  0  0  0  0  0  0  0
  -19.7808  -18.5656   24.4874 O   0  0  0  0  0  0  0  0  0  0  0  0
  -21.0441  -30.6984   24.4272 O   0  0  0  0  0  0  0  0  0  0  0  0
  -30.9473  -25.5261   19.3383 O   0  0  0  0  0  0  0  0  0  0  0  0
  -23.6480  -22.3585   20.3630 O   0  0  0  0  0  0  0  0  0  1  0  0
  -29.1422  -20.4305   20.4248 F   0  0  0  0  0  0  0  0  0  0  0  0
  -30.9758  -23.5657   17.3894 F   0  0  0  0  0  0  0  0  0  0  0  0
  1  2  1  0  0  0  0
  1  5  2  0  0  0  0
  2  6  2  0  0  0  0
  3 10  2  0  0  0  0
  3 18  1  0  0  0  0
  4 11  1  0  0  0  0
  4 18  2  0  0  0  0
  5 21  1  0  0  0  0
  6 23  1  0  0  0  0
  7 12  2  0  0  0  0
  7 22  1  0  0  0  0
  8  9  2  0  0  0  0
  8 25  1  0  0  0  0
  9 26  1  0  0  0  0
 10 27  1  0  0  0  0
 11 27  2  0  0  0  0
 12 28  1  0  0  0  0
 13 14  2  0  0  0  0
 13 29  1  0  0  0  0
 14 30  1  0  0  0  0
 15 19  1  0  0  0  0
 15 26  2  0  0  0  0
 16 24  1  0  0  0  0
 16 28  2  0  0  0  0
 17 30  2  0  0  0  0
 17 31  1  0  0  0  0
 18 32  1  0  0  0  0
 19 25  2  0  0  0  0
 19 34  1  0  0  0  0
 20 32  1  0  0  0  0
 20 33  2  0  0  0  0
 20 35  1  0  0  0  0
 21 23  2  0  0  0  0
 21 41  1  0  0  0  0
 22 24  2  0  0  0  0
 22 42  1  0  0  0  0
 23 50  1  0  0  0  0
 24 43  1  0  0  0  0
 25 53  1  0  0  0  0
 26 77  1  0  0  0  0
 27 88  1  0  0  0  0
 28 89  1  0  0  0  0
 29 31  2  0  0  0  0
 29 88  1  0  0  0  0
 30 90  1  0  0  0  0
 31 91  1  0  0  0  0
 32 70  2  0  0  0  0
 33 72  1  0  0  0  0
 33 75  1  0  0  0  0
 34 78  1  0  0  0  0
 34 82  2  0  0  0  0
 35 76  1  0  0  0  0
 35 83  2  0  0  0  0
 36 51  1  0  0  0  0
 36 79  1  0  0  0  0
 36 84  2  0  0  0  0
 37 62  1  0  0  0  0
 37 71  2  0  0  0  0
 37 89  1  0  0  0  0
 38 65  1  0  0  0  0
 38 73  1  0  0  0  0
 38 85  2  0  0  0  0
 39 66  1  0  0  0  0
 39 80  1  0  0  0  0
 39 86  2  0  0  0  0
 40 74  1  0  0  0  0
 40 77  1  0  0  0  0
 40 87  2  0  0  0  0
 41 44  1  0  0  0  0
 42 51  1  0  0  0  0
 43 73  1  0  0  0  0
 44 46  1  0  0  0  0
 45 47  1  0  0  0  0
 45 48  1  0  0  0  0
 46 50  1  0  0  0  0
 47 52  1  0  0  0  0
 48 74  1  0  0  0  0
 49 52  1  0  0  0  0
 49 74  1  0  0  0  0
 50 79  1  0  0  0  0
 51 73  1  0  0  0  0
 52 72  1  0  0  0  0
 54 66  1  0  0  0  0
 55 67  1  0  0  0  0
 56 67  1  0  0  0  0
 57 68  1  0  0  0  0
 58 69  1  0  0  0  0
 59 69  1  0  0  0  0
 60 69  1  0  0  0  0
 61 81  1  0  0  0  0
 62 67  1  0  0  0  0
 63 68  1  0  0  0  0
 63 71  1  0  0  0  0
 64 68  1  0  0  0  0
 64 78  1  0  0  0  0
 65 69  1  0  0  0  0
 65 80  1  0  0  0  0
 66 81  1  0  0  0  0
 70 72  1  0  0  0  0
M  CHG  1  81   1
M  ISO  4  37 101  40 100  77 100  89 101
M  END
> <Batch ID>
0057

> <Smiles>
CNC(C)C(=O)NC(C(=O)N1Cc2cc([101O:1][101C:1](CC(C)C)=NCC(C)CNC(=O)c3cc([100NH:0][100C:0](=O)N4CCCC(n5nc(-c6ccc(Oc7ccc(F)cc7F)cc6)c(C(N)=O)c5N)C4)ccc3C)ccc2CC1C(=O)NC1CCCc2ccccc21)C(C)(C)C

> <Shape>
0.231

> <Color>
0.076

> <Negative vol penalty>
0.000

$$$$

  -OEChem-04042322553D

 84 92  0     1  0  0  0  0  0999 V2000
  -29.7615  -23.6109   17.9556 C   0  0  0  0  0  0  0  0  0  0  0  0
  -28.5771  -23.6742   18.6827 C   0  0  0  0  0  0  0  0  0  0  0  0
  -28.3771  -14.5847   20.6597 C   0  0  0  0  0  0  0  0  0  0  0  0
  -26.1830  -15.5871   20.7947 C   0  0  0  0  0  0  0  0  0  0  0  0
  -30.8200  -24.4604   18.2745 C   0  0  0  0  0  0  0  0  0  0  0  0
  -28.4509  -24.5864   19.7297 C   0  0  0  0  0  0  0  0  0  0  0  0
  -24.0144  -27.0271   19.6561 C   0  0  0  0  0  0  0  0  0  0  0  0
  -25.0030  -22.6808   28.2579 C   0  0  0  0  0  0  0  0  0  0  0  0
  -26.1106  -22.2590   27.5225 C   0  0  0  0  0  0  0  0  0  0  0  0
  -27.7940  -13.3212   20.5637 C   0  0  0  0  0  0  0  0  0  0  0  0
  -25.5998  -14.3236   20.6986 C   0  0  0  0  0  0  0  0  0  0  0  0
  -22.9003  -26.3373   20.1323 C   0  0  0  0  0  0  0  0  0  0  0  0
  -25.0137  -11.6889   22.7347 C   0  0  0  0  0  0  0  0  0  0  0  0
  -23.9700  -11.3886   23.6099 C   0  0  0  0  0  0  0  0  0  0  0  0
  -24.7159  -22.0085   25.5656 C   0  0  0  0  0  0  0  0  0  0  0  0
  -23.0858  -27.5026   22.2364 C   0  0  0  0  0  0  0  0  0  0  0  0
  -22.4960  -11.0310   21.7294 C   0  0  0  0  0  0  0  0  0  0  0  0
  -27.5716  -15.7176   20.7753 C   0  0  0  0  0  0  0  0  0  0  0  0
  -23.6082  -22.4303   26.3011 C   0  0  0  0  0  0  0  0  0  0  0  0
  -28.5041  -17.8899   19.8163 C   0  0  0  0  0  0  0  0  0  0  0  0
  -30.7033  -25.3902   19.3197 C   0  0  0  0  0  0  0  0  0  0  0  0
  -24.6803  -27.9533   20.4716 C   0  0  0  0  0  0  0  0  0  0  0  0
  -29.5094  -25.4482   20.0637 C   0  0  0  0  0  0  0  0  0  0  0  0
  -24.2066  -28.2046   21.7672 C   0  0  0  0  0  0  0  0  0  0  0  0
  -23.7517  -22.7664   27.6473 C   0  0  0  0  0  0  0  0  0  0  0  0
  -25.9670  -21.9229   26.1763 C   0  0  0  0  0  0  0  0  0  0  0  0
  -26.4054  -13.1907   20.5831 C   0  0  0  0  0  0  0  0  0  0  0  0
  -22.4376  -26.5729   21.4236 C   0  0  0  0  0  0  0  0  0  0  0  0
  -24.7986  -11.6603   21.3568 C   0  0  0  0  0  0  0  0  0  0  0  0
  -22.7111  -11.0596   23.1073 C   0  0  0  0  0  0  0  0  0  0  0  0
  -23.5397  -11.3314   20.8542 C   0  0  0  0  0  0  0  0  0  0  0  0
  -28.1733  -17.0230   20.8751 C   0  0  0  0  0  0  0  0  0  0  0  0
  -29.0447  -18.9925   20.4314 C   0  0  0  0  0  0  0  0  0  0  0  0
  -22.2876  -22.5130   25.6258 C   0  0  0  0  0  0  0  0  0  0  0  0
  -28.3373  -17.7141   18.4032 C   0  0  0  0  0  0  0  0  0  0  0  0
  -27.6152  -28.1839   21.6703 C   0  0  0  0  0  0  0  0  0  0  0  0
  -26.5579  -31.0824   22.6720 C   0  0  0  0  0  0  0  0  0  0  0  0
  -23.9130  -33.0736   23.5005 C   0  0  0  0  0  0  0  0  0  0  0  0
  -28.4028  -21.3502   25.8844 C   0  0  0  0  0  0  0  0  0  0  0  0
  -31.8916  -26.2552   19.6580 C   0  0  0  0  0  0  0  0  0  0  0  0
  -25.8646  -28.7086   19.9337 C   0  0  0  0  0  0  0  0  0  0  0  0
  -24.8737  -29.2038   22.6756 C   0  0  0  0  0  0  0  0  0  0  0  0
  -31.5429  -27.4515   20.5398 C   0  0  0  0  0  0  0  0  0  0  0  0
  -31.4436  -20.2837   24.3700 C   0  0  0  0  0  0  0  0  0  0  0  0
  -30.6520  -27.0180   21.6996 C   0  0  0  0  0  0  0  0  0  0  0  0
  -30.9801  -19.4103   23.2019 C   0  0  0  0  0  0  0  0  0  0  0  0
  -30.5424  -20.1206   25.5927 C   0  0  0  0  0  0  0  0  0  0  0  0
  -28.6464  -19.4473   24.1711 C   0  0  0  0  0  0  0  0  0  0  0  0
  -29.3253  -26.4415   21.1906 C   0  0  1  0  0  0  0  0  0  0  0  0
  -26.7748  -29.2525   21.0306 C   0  0  1  0  0  0  0  0  0  0  0  0
  -29.4852  -19.6265   22.8952 C   0  0  2  0  0  0  0  0  0  0  0  0
  -22.5822  -23.2210   28.4581 C   0  0  0  0  0  0  0  0  0  0  0  0
  -23.3653  -35.3821   24.3180 C   0  0  0  0  0  0  0  0  0  0  0  0
  -27.4421  -30.2937   25.4838 C   0  0  0  0  0  0  0  0  0  0  0  0
  -26.0426  -32.1689   26.3745 C   0  0  0  0  0  0  0  0  0  0  0  0
  -27.9577  -32.6581   24.8528 C   0  0  0  0  0  0  0  0  0  0  0  0
  -22.3490  -33.6908   21.0649 C   0  0  0  0  0  0  0  0  0  0  0  0
  -20.5030  -24.3706   23.5341 C   0  0  0  0  0  0  0  0  0  0  0  0
  -20.4022  -24.0030   25.0083 C   0  0  0  0  0  0  0  0  0  0  0  0
  -21.2968  -25.6493   23.2948 C   0  0  0  0  0  0  0  0  0  1  0  0
  -25.8649  -31.5982   23.9100 C   0  0  1  0  0  0  0  0  0  0  0  0
  -23.5564  -34.4935   23.0988 C   0  0  2  0  0  0  0  0  0  0  0  0
  -26.8152  -31.6594   25.1391 C   0  0  0  0  0  0  0  0  0  0  0  0
  -28.4785  -17.5311   22.0721 N   0  0  0  0  0  0  0  0  0  0  0  0
  -29.0068  -18.7292   21.7691 N   0  0  0  0  0  0  0  0  0  0  0  0
  -26.0317  -29.9124   22.1061 N   0  0  0  0  0  0  0  0  0  0  0  0
  -29.1420  -20.3440   25.2271 N   0  0  0  0  0  0  0  0  0  0  0  0
  -29.5442  -20.1519   19.9532 N   0  0  0  0  0  0  0  0  0  0  0  0
  -27.7648  -16.5212   17.9412 N   0  0  0  0  0  0  0  0  0  0  0  0
  -27.0921  -21.4926   25.4302 N   0  0  0  0  0  0  0  0  0  0  0  0
  -21.6890  -23.7678   25.6024 N   0  0  0  0  0  0  0  0  0  0  0  0
  -28.4333  -27.5069   20.7861 N   0  0  0  0  0  0  0  0  0  0  0  0
  -25.2779  -32.8827   23.5440 N   0  0  0  0  0  0  0  0  0  0  0  0
  -22.2948  -34.5060   22.3057 N   0  3  0  0  0  0  0  0  0  0  0  0
  -21.7913  -21.4945   25.1516 O   0  0  0  0  0  0  0  0  0  0  0  0
  -28.7009  -18.5821   17.5738 O   0  0  0  0  0  0  0  0  0  0  0  0
  -27.5290  -27.9891   22.8771 O   0  0  0  0  0  0  0  0  0  0  0  0
  -27.5258  -31.6988   22.2195 O   0  0  0  0  0  0  0  0  0  0  0  0
  -23.0656  -32.2204   23.7542 O   0  0  0  0  0  0  0  0  0  0  0  0
  -28.9046  -22.0535   26.7651 O   0  0  0  0  0  0  0  0  0  0  0  0
  -25.8360  -11.9580   20.4891 O   0  0  0  0  0  0  0  0  0  0  0  0
  -21.3507  -25.9006   21.8912 O   0  0  0  0  0  0  0  0  0  1  0  0
  -21.7093  -10.7698   23.9479 F   0  0  0  0  0  0  0  0  0  0  0  0
  -23.3273  -11.3011   19.5314 F   0  0  0  0  0  0  0  0  0  0  0  0
  1  2  1  0  0  0  0
  1  5  2  0  0  0  0
  2  6  2  0  0  0  0
  3 10  2  0  0  0  0
  3 18  1  0  0  0  0
  4 11  1  0  0  0  0
  4 18  2  0  0  0  0
  5 21  1  0  0  0  0
  6 23  1  0  0  0  0
  7 12  2  0  0  0  0
  7 22  1  0  0  0  0
  8  9  2  0  0  0  0
  8 25  1  0  0  0  0
  9 26  1  0  0  0  0
 10 27  1  0  0  0  0
 11 27  2  0  0  0  0
 12 28  1  0  0  0  0
 13 14  2  0  0  0  0
 13 29  1  0  0  0  0
 14 30  1  0  0  0  0
 15 19  1  0  0  0  0
 15 26  2  0  0  0  0
 16 24  1  0  0  0  0
 16 28  2  0  0  0  0
 17 30  2  0  0  0  0
 17 31  1  0  0  0  0
 18 32  1  0  0  0  0
 19 25  2  0  0  0  0
 19 34  1  0  0  0  0
 20 32  1  0  0  0  0
 20 33  2  0  0  0  0
 20 35  1  0  0  0  0
 21 23  2  0  0  0  0
 21 40  1  0  0  0  0
 22 24  2  0  0  0  0
 22 41  1  0  0  0  0
 23 49  1  0  0  0  0
 24 42  1  0  0  0  0
 25 52  1  0  0  0  0
 26 70  1  0  0  0  0
 27 81  1  0  0  0  0
 28 82  1  0  0  0  0
 29 31  2  0  0  0  0
 29 81  1  0  0  0  0
 30 83  1  0  0  0  0
 31 84  1  0  0  0  0
 32 64  2  0  0  0  0
 33 65  1  0  0  0  0
 33 68  1  0  0  0  0
 34 71  1  0  0  0  0
 34 75  2  0  0  0  0
 35 69  1  0  0  0  0
 35 76  2  0  0  0  0
 36 50  1  0  0  0  0
 36 72  1  0  0  0  0
 36 77  2  0  0  0  0
 37 61  1  0  0  0  0
 37 66  1  0  0  0  0
 37 78  2  0  0  0  0
 38 62  1  0  0  0  0
 38 73  1  0  0  0  0
 38 79  2  0  0  0  0
 39 67  1  0  0  0  0
 39 70  1  0  0  0  0
 39 80  2  0  0  0  0
 40 43  1  0  0  0  0
 41 50  1  0  0  0  0
 42 66  1  0  0  0  0
 43 45  1  0  0  0  0
 44 46  1  0  0  0  0
 44 47  1  0  0  0  0
 45 49  1  0  0  0  0
 46 51  1  0  0  0  0
 47 67  1  0  0  0  0
 48 51  1  0  0  0  0
 48 67  1  0  0  0  0
 49 72  1  0  0  0  0
 50 66  1  0  0  0  0
 51 65  1  0  0  0  0
 53 62  1  0  0  0  0
 54 63  1  0  0  0  0
 55 63  1  0  0  0  0
 56 63  1  0  0  0  0
 57 74  1  0  0  0  0
 58 59  1  0  0  0  0
 58 60  1  0  0  0  0
 59 71  1  0  0  0  0
 60 82  1  0  0  0  0
 61 63  1  0  0  0  0
 61 73  1  0  0  0  0
 62 74  1  0  0  0  0
 64 65  1  0  0  0  0
M  CHG  1  74   1
M  ISO  4  39 100  60 101  70 100  82 101
M  END
> <Batch ID>
0057

> <Smiles>
CNC(C)C(=O)NC(C(=O)N1Cc2cc([101O:1][101CH2:1]CCNC(=O)c3cc([100NH:0][100C:0](=O)N4CCCC(n5nc(-c6ccc(Oc7ccc(F)cc7F)cc6)c(C(N)=O)c5N)C4)ccc3C)ccc2CC1C(=O)NC1CCCc2ccccc21)C(C)(C)C

> <Shape>
0.262

> <Color>
0.073

> <Negative vol penalty>
0.000

$$$$

  -OEChem-04042322553D

 90 99  0     1  0  0  0  0  0999 V2000
  -30.0025  -34.0066   24.7363 C   0  0  0  0  0  0  0  0  0  0  0  0
  -29.6318  -32.6999   24.4354 C   0  0  0  0  0  0  0  0  0  0  0  0
  -31.7823  -18.9430   18.8486 C   0  0  0  0  0  0  0  0  0  0  0  0
  -22.7926  -10.9816   21.6132 C   0  0  0  0  0  0  0  0  0  0  0  0
  -23.8957   -9.0720   20.6264 C   0  0  0  0  0  0  0  0  0  0  0  0
  -29.0237  -34.9711   24.9715 C   0  0  0  0  0  0  0  0  0  0  0  0
  -28.2818  -32.3567   24.3708 C   0  0  0  0  0  0  0  0  0  0  0  0
  -27.1957  -29.4952   20.3363 C   0  0  0  0  0  0  0  0  0  0  0  0
  -30.8011  -19.9021   18.5979 C   0  0  0  0  0  0  0  0  0  0  0  0
  -31.4144  -17.6446   19.2015 C   0  0  0  0  0  0  0  0  0  0  0  0
  -21.9334  -10.1279   22.3049 C   0  0  0  0  0  0  0  0  0  0  0  0
  -23.0366   -8.2182   21.3182 C   0  0  0  0  0  0  0  0  0  0  0  0
  -27.5286  -28.1432   20.4064 C   0  0  0  0  0  0  0  0  0  0  0  0
  -19.1646   -8.3069   21.6402 C   0  0  0  0  0  0  0  0  0  0  0  0
  -17.8060   -8.6227   21.6477 C   0  0  0  0  0  0  0  0  0  0  0  0
  -25.2361  -27.6125   20.9375 C   0  0  0  0  0  0  0  0  0  0  0  0
  -29.0840  -18.2646   19.0532 C   0  0  0  0  0  0  0  0  0  0  0  0
  -17.8549   -8.7759   24.0583 C   0  0  0  0  0  0  0  0  0  0  0  0
  -23.7737  -10.4537   20.7739 C   0  0  0  0  0  0  0  0  0  0  0  0
  -24.3047  -12.3228   19.1209 C   0  0  0  0  0  0  0  0  0  0  0  0
  -27.6609  -34.6418   24.9002 C   0  0  0  0  0  0  0  0  0  0  0  0
  -25.8805  -29.9178   20.5773 C   0  0  0  0  0  0  0  0  0  0  0  0
  -27.2837  -33.3175   24.6066 C   0  0  0  0  0  0  0  0  0  0  0  0
  -24.8886  -28.9702   20.8673 C   0  0  0  0  0  0  0  0  0  0  0  0
  -29.4520  -19.5630   18.7003 C   0  0  0  0  0  0  0  0  0  0  0  0
  -30.0653  -17.3054   19.3039 C   0  0  0  0  0  0  0  0  0  0  0  0
  -22.0554   -8.7462   22.1575 C   0  0  0  0  0  0  0  0  0  0  0  0
  -26.5494  -27.2018   20.7099 C   0  0  0  0  0  0  0  0  0  0  0  0
  -19.8684   -8.2256   22.8417 C   0  0  0  0  0  0  0  0  0  0  0  0
  -17.1511   -8.8572   22.8568 C   0  0  0  0  0  0  0  0  0  0  0  0
  -19.2136   -8.4601   24.0508 C   0  0  0  0  0  0  0  0  0  0  0  0
  -24.6612  -11.3351   20.0586 C   0  0  0  0  0  0  0  0  0  0  0  0
  -25.5005  -12.8775   18.7351 C   0  0  0  0  0  0  0  0  0  0  0  0
  -26.2023  -21.3371   19.2190 C   0  0  0  0  0  0  0  0  0  0  0  0
  -24.3344  -18.9057   21.2601 C   0  0  0  0  0  0  0  0  0  0  0  0
  -25.3066  -19.6154   20.6737 C   0  0  0  0  0  0  0  0  0  0  0  0
  -23.0085  -12.7047   18.6416 C   0  0  0  0  0  0  0  0  0  0  0  0
  -25.1303  -20.7108   19.7318 C   0  0  0  0  0  0  0  0  0  0  0  0
  -24.4878  -31.8003   22.7268 C   0  0  0  0  0  0  0  0  0  0  0  0
  -21.8658  -31.3134   20.8801 C   0  0  0  0  0  0  0  0  0  0  0  0
  -20.3447  -28.5394   19.1456 C   0  0  0  0  0  0  0  0  0  0  0  0
  -30.5396  -14.9152   19.9428 C   0  0  0  0  0  0  0  0  0  0  0  0
  -26.6394  -35.7077   25.2089 C   0  0  0  0  0  0  0  0  0  0  0  0
  -25.5321  -31.3772   20.4715 C   0  0  0  0  0  0  0  0  0  0  0  0
  -23.4577  -29.3702   21.1144 C   0  0  0  0  0  0  0  0  0  0  0  0
  -26.0654  -22.4745   18.2420 C   0  0  0  0  0  0  0  0  0  0  0  0
  -25.2276  -35.3487   24.7525 C   0  0  0  0  0  0  0  0  0  0  0  0
  -26.3603  -23.8458   18.8440 C   0  0  0  0  0  0  0  0  0  0  0  0
  -30.2578  -11.3821   19.6033 C   0  0  0  0  0  0  0  0  0  0  0  0
  -24.8810  -33.9208   25.1621 C   0  0  0  0  0  0  0  0  0  0  0  0
  -28.7473  -11.1362   19.6143 C   0  0  0  0  0  0  0  0  0  0  0  0
  -27.7160  -23.1055   20.8668 C   0  0  0  0  0  0  0  0  0  0  0  0
  -30.6558  -12.5094   20.5543 C   0  0  0  0  0  0  0  0  0  0  0  0
  -28.4186  -13.5248   20.3717 C   0  0  0  0  0  0  0  0  0  0  0  0
  -28.1414  -21.6441   20.7152 C   0  0  0  0  0  0  0  0  0  0  0  0
  -25.8294  -32.9121   24.5030 C   0  0  1  0  0  0  0  0  0  0  0  0
  -24.2680  -31.7471   21.2414 C   0  0  1  0  0  0  0  0  0  0  0  0
  -27.7036  -23.9569   19.5867 C   0  0  2  0  0  0  0  0  0  0  0  0
  -27.9620  -12.4417   19.3807 C   0  0  2  0  0  0  0  0  0  0  0  0
  -23.7414  -21.1325   19.3404 C   0  0  0  0  0  0  0  0  0  0  0  0
  -18.8687  -28.4954   17.1167 C   0  0  0  0  0  0  0  0  0  0  0  0
  -19.5791  -31.3384   22.9001 C   0  0  0  0  0  0  0  0  0  0  0  0
  -18.3397  -29.7518   21.4119 C   0  0  0  0  0  0  0  0  0  0  0  0
  -18.9334  -32.0292   20.5849 C   0  0  0  0  0  0  0  0  0  0  0  0
  -22.1489  -26.6680   17.7307 C   0  0  0  0  0  0  0  0  0  0  0  0
  -28.3969  -20.5950   18.4305 C   0  0  0  0  0  0  0  0  0  0  0  0
  -27.9409  -25.4293   19.9498 C   0  0  0  0  0  0  0  0  0  1  0  0
  -20.7527  -30.2939   20.8513 C   0  0  1  0  0  0  0  0  0  0  0  0
  -20.2856  -28.3291   17.6434 C   0  0  2  0  0  0  0  0  0  0  0  0
  -19.4271  -30.8468   21.4468 C   0  0  0  0  0  0  0  0  0  0  0  0
  -25.9802  -11.2640   20.2563 N   0  0  0  0  0  0  0  0  0  0  0  0
  -26.4630  -12.2140   19.4375 N   0  0  0  0  0  0  0  0  0  0  0  0
  -23.1681  -30.8096   21.0058 N   0  0  0  0  0  0  0  0  0  0  0  0
  -29.8741  -13.7151   20.2711 N   0  0  0  0  0  0  0  0  0  0  0  0
  -25.8119  -13.8632   17.8669 N   0  0  0  0  0  0  0  0  0  0  0  0
  -21.8858  -12.0318   19.1428 N   0  0  0  0  0  0  0  0  0  0  0  0
  -29.6919  -15.9862   19.6618 N   0  0  0  0  0  0  0  0  0  0  0  0
  -25.4599  -32.7003   23.1198 N   0  0  0  0  0  0  0  0  0  0  0  0
  -20.6450  -29.8462   19.4670 N   0  0  0  0  0  0  0  0  0  0  0  0
  -27.4991  -20.8440   19.6133 N   0  3  2  0  0  0  0  0  0  0  0  0
  -20.7597  -26.9605   17.2928 N   0  3  0  0  0  0  0  0  0  0  0  0
  -22.8518  -13.6045   17.7818 O   0  0  0  0  0  0  0  0  0  0  0  0
  -23.8234  -31.0794   23.4621 O   0  0  0  0  0  0  0  0  0  0  0  0
  -21.5903  -32.5122   20.7871 O   0  0  0  0  0  0  0  0  0  0  0  0
  -20.1410  -27.6356   19.9532 O   0  0  0  0  0  0  0  0  0  0  0  0
  -31.7702  -14.9804   19.8867 O   0  0  0  0  0  0  0  0  0  0  0  0
  -21.2174   -7.9128   22.8326 O   0  0  0  0  0  0  0  0  0  0  0  0
  -26.8717  -25.8816   20.7797 O   0  0  0  0  0  0  0  0  0  1  0  0
  -15.8468   -9.1619   22.8637 F   0  0  0  0  0  0  0  0  0  0  0  0
  -19.8847   -8.3847   25.2083 F   0  0  0  0  0  0  0  0  0  0  0  0
  1  2  1  0  0  0  0
  1  6  2  0  0  0  0
  2  7  2  0  0  0  0
  3  9  2  0  0  0  0
  3 10  1  0  0  0  0
  4 11  2  0  0  0  0
  4 19  1  0  0  0  0
  5 12  1  0  0  0  0
  5 19  2  0  0  0  0
  6 21  1  0  0  0  0
  7 23  1  0  0  0  0
  8 13  2  0  0  0  0
  8 22  1  0  0  0  0
  9 25  1  0  0  0  0
 10 26  2  0  0  0  0
 11 27  1  0  0  0  0
 12 27  2  0  0  0  0
 13 28  1  0  0  0  0
 14 15  2  0  0  0  0
 14 29  1  0  0  0  0
 15 30  1  0  0  0  0
 16 24  1  0  0  0  0
 16 28  2  0  0  0  0
 17 25  2  0  0  0  0
 17 26  1  0  0  0  0
 18 30  2  0  0  0  0
 18 31  1  0  0  0  0
 19 32  1  0  0  0  0
 20 32  1  0  0  0  0
 20 33  2  0  0  0  0
 20 37  1  0  0  0  0
 21 23  2  0  0  0  0
 21 43  1  0  0  0  0
 22 24  2  0  0  0  0
 22 44  1  0  0  0  0
 23 56  1  0  0  0  0
 24 45  1  0  0  0  0
 25 66  1  0  0  0  0
 26 77  1  0  0  0  0
 27 87  1  0  0  0  0
 28 88  1  0  0  0  0
 29 31  2  0  0  0  0
 29 87  1  0  0  0  0
 30 89  1  0  0  0  0
 31 90  1  0  0  0  0
 32 71  2  0  0  0  0
 33 72  1  0  0  0  0
 33 75  1  0  0  0  0
 34 38  2  0  0  0  0
 34 46  1  0  0  0  0
 34 80  1  0  0  0  0
 35 36  2  0  0  0  0
 36 38  1  0  0  0  0
 37 76  1  0  0  0  0
 37 82  2  0  0  0  0
 38 60  1  0  0  0  0
 39 57  1  0  0  0  0
 39 78  1  0  0  0  0
 39 83  2  0  0  0  0
 40 68  1  0  0  0  0
 40 73  1  0  0  0  0
 40 84  2  0  0  0  0
 41 69  1  0  0  0  0
 41 79  1  0  0  0  0
 41 85  2  0  0  0  0
 42 74  1  0  0  0  0
 42 77  1  0  0  0  0
 42 86  2  0  0  0  0
 43 47  1  0  0  0  0
 44 57  1  0  0  0  0
 45 73  1  0  0  0  0
 46 48  1  0  0  0  0
 47 50  1  0  0  0  0
 48 58  1  0  0  0  0
 49 51  1  0  0  0  0
 49 53  1  0  0  0  0
 50 56  1  0  0  0  0
 51 59  1  0  0  0  0
 52 55  1  0  0  0  0
 52 58  1  0  0  0  0
 53 74  1  0  0  0  0
 54 59  1  0  0  0  0
 54 74  1  0  0  0  0
 55 80  1  0  0  0  0
 56 78  1  0  0  0  0
 57 73  1  0  0  0  0
 58 67  1  0  0  0  0
 59 72  1  0  0  0  0
 61 69  1  0  0  0  0
 62 70  1  0  0  0  0
 63 70  1  0  0  0  0
 64 70  1  0  0  0  0
 65 81  1  0  0  0  0
 66 80  1  0  0  0  0
 67 88  1  0  0  0  0
 68 70  1  0  0  0  0
 68 79  1  0  0  0  0
 69 81  1  0  0  0  0
 71 72  1  0  0  0  0
M  CHG  2  80   1  81   1
M  ISO  4  42 100  67 101  77 100  88 101
M  END
> <Batch ID>
0057

> <Smiles>
C=CC(C)=C1CCC([101CH2:1][101O:1]c2ccc3c(c2)CN(C(=O)C(NC(=O)C(C)NC)C(C)(C)C)C(C(=O)NC2CCCc4ccccc42)C3)CCN1Cc1cccc([100NH:0][100C:0](=O)N2CCCC(n3nc(-c4ccc(Oc5ccc(F)cc5F)cc4)c(C(N)=O)c3N)C2)c1

> <Shape>
0.261

> <Color>
0.099

> <Negative vol penalty>
0.000

$$$$
