
  -OEChem-04042322583D

 85 93  0     1  0  0  0  0  0999 V2000
  -17.0105  -26.7671   22.8317 C   0  0  0  0  0  0  0  0  0  0  0  0
  -18.2630  -26.1850   22.6649 C   0  0  0  0  0  0  0  0  0  0  0  0
  -23.3709  -25.6839   15.9842 C   0  0  0  0  0  0  0  0  0  0  0  0
  -27.8148  -16.5453   22.6552 C   0  0  0  0  0  0  0  0  0  0  0  0
  -26.8326  -16.2454   20.4683 C   0  0  0  0  0  0  0  0  0  0  0  0
  -24.7159  -25.8949   16.2876 C   0  0  0  0  0  0  0  0  0  0  0  0
  -16.8228  -28.1142   22.5250 C   0  0  0  0  0  0  0  0  0  0  0  0
  -19.3283  -26.9494   22.1903 C   0  0  0  0  0  0  0  0  0  0  0  0
  -25.2221  -26.4334   23.7720 C   0  0  0  0  0  0  0  0  0  0  0  0
  -22.4761  -25.3266   16.9928 C   0  0  0  0  0  0  0  0  0  0  0  0
  -28.2063  -15.2066   22.6630 C   0  0  0  0  0  0  0  0  0  0  0  0
  -27.2242  -14.9066   20.4761 C   0  0  0  0  0  0  0  0  0  0  0  0
  -26.3047  -25.8000   23.1632 C   0  0  0  0  0  0  0  0  0  0  0  0
  -28.2817  -11.5016   19.7648 C   0  0  0  0  0  0  0  0  0  0  0  0
  -28.8670  -10.9896   18.6069 C   0  0  0  0  0  0  0  0  0  0  0  0
  -26.9487  -27.8907   22.1467 C   0  0  0  0  0  0  0  0  0  0  0  0
  -30.6391  -12.6227   18.7805 C   0  0  0  0  0  0  0  0  0  0  0  0
  -27.1279  -17.0647   21.5579 C   0  0  0  0  0  0  0  0  0  0  0  0
  -25.1661  -25.7486   17.5997 C   0  0  0  0  0  0  0  0  0  0  0  0
  -27.4591  -19.5462   21.0678 C   0  0  0  0  0  0  0  0  0  0  0  0
  -17.8886  -28.8979   22.0555 C   0  0  0  0  0  0  0  0  0  0  0  0
  -24.9881  -27.8003   23.5636 C   0  0  0  0  0  0  0  0  0  0  0  0
  -19.1543  -28.3079   21.8757 C   0  0  0  0  0  0  0  0  0  0  0  0
  -25.8640  -28.5397   22.7560 C   0  0  0  0  0  0  0  0  0  0  0  0
  -22.9263  -25.1803   18.3049 C   0  0  0  0  0  0  0  0  0  0  0  0
  -27.9111  -14.3872   21.5734 C   0  0  0  0  0  0  0  0  0  0  0  0
  -27.1665  -26.5280   22.3481 C   0  0  0  0  0  0  0  0  0  0  0  0
  -28.8751  -12.5742   20.4306 C   0  0  0  0  0  0  0  0  0  0  0  0
  -30.0457  -11.5501   18.1147 C   0  0  0  0  0  0  0  0  0  0  0  0
  -30.0537  -13.1347   19.9385 C   0  0  0  0  0  0  0  0  0  0  0  0
  -24.2713  -25.3913   18.6083 C   0  0  0  0  0  0  0  0  0  0  0  0
  -26.7226  -18.4474   21.5495 C   0  0  0  0  0  0  0  0  0  0  0  0
  -26.6424  -20.6289   21.2852 C   0  0  0  0  0  0  0  0  0  0  0  0
  -26.5995  -25.9750   17.9179 C   0  0  0  0  0  0  0  0  0  0  0  0
  -28.7647  -19.5848   20.4766 C   0  0  0  0  0  0  0  0  0  0  0  0
  -22.6265  -29.5026   22.2874 C   0  0  0  0  0  0  0  0  0  0  0  0
  -24.3797  -32.0128   23.3584 C   0  0  0  0  0  0  0  0  0  0  0  0
  -27.4305  -33.2314   24.2830 C   0  0  0  0  0  0  0  0  0  0  0  0
  -21.6161  -23.0474   21.1047 C   0  0  0  0  0  0  0  0  0  0  0  0
  -17.6259  -30.3380   21.6924 C   0  0  0  0  0  0  0  0  0  0  0  0
  -23.8313  -28.4745   24.2489 C   0  0  0  0  0  0  0  0  0  0  0  0
  -25.6683  -30.0137   22.5165 C   0  0  0  0  0  0  0  0  0  0  0  0
  -18.8966  -31.1718   21.5502 C   0  0  0  0  0  0  0  0  0  0  0  0
  -22.3629  -21.0420   23.9502 C   0  0  0  0  0  0  0  0  0  0  0  0
  -19.9331  -30.4271   20.7148 C   0  0  0  0  0  0  0  0  0  0  0  0
  -23.6202  -20.2747   23.5372 C   0  0  0  0  0  0  0  0  0  0  0  0
  -21.4056  -21.2307   22.7755 C   0  0  0  0  0  0  0  0  0  0  0  0
  -23.2652  -21.0794   21.1654 C   0  0  0  0  0  0  0  0  0  0  0  0
  -20.3405  -29.1103   21.3867 C   0  0  1  0  0  0  0  0  0  0  0  0
  -23.3921  -29.7599   23.5544 C   0  0  1  0  0  0  0  0  0  0  0  0
  -24.2866  -20.9129   22.3036 C   0  0  2  0  0  0  0  0  0  0  0  0
  -28.5560  -35.3301   25.0742 C   0  0  0  0  0  0  0  0  0  0  0  0
  -30.0946  -26.9276   20.6196 C   0  0  0  0  0  0  0  0  0  0  0  0
  -24.2724  -33.1363   20.5236 C   0  0  0  0  0  0  0  0  0  0  0  0
  -26.1526  -34.6720   21.1357 C   0  0  0  0  0  0  0  0  0  0  0  0
  -23.9699  -34.8371   22.3319 C   0  0  0  0  0  0  0  0  0  0  0  0
  -28.2636  -31.9646   26.8247 C   0  0  0  0  0  0  0  0  0  0  0  0
  -21.9661  -24.7978   19.3805 C   0  0  0  0  0  0  0  0  0  0  0  0
  -28.4754  -25.3668   19.4236 C   0  0  0  0  0  0  0  0  0  0  0  0
  -25.4862  -32.8657   22.7862 C   0  0  1  0  0  0  0  0  0  0  0  0
  -27.8684  -34.0394   25.4912 C   0  0  2  0  0  0  0  0  0  0  0  0
  -28.6582  -26.4362   20.4981 C   0  0  1  0  0  0  0  0  0  1  0  0
  -24.9731  -33.8496   21.6971 C   0  0  0  0  0  0  0  0  0  0  0  0
  -25.5298  -18.7997   22.0363 N   0  0  0  0  0  0  0  0  0  0  0  0
  -25.5105  -20.1321   21.8618 N   0  0  0  0  0  0  0  0  0  0  0  0
  -24.5193  -30.6263   23.2036 N   0  0  0  0  0  0  0  0  0  0  0  0
  -22.0993  -21.8416   21.6391 N   0  0  0  0  0  0  0  0  0  0  0  0
  -26.7891  -21.9478   21.0376 N   0  0  0  0  0  0  0  0  0  0  0  0
  -29.4665  -18.3808   20.3274 N   0  0  0  0  0  0  0  0  0  0  0  0
  -27.1126  -25.2402   18.9794 N   0  0  0  0  0  0  0  0  0  0  0  0
  -21.2643  -29.3614   22.4721 N   0  0  0  0  0  0  0  0  0  0  0  0
  -26.1301  -33.5153   23.9228 N   0  0  0  0  0  0  0  0  0  0  0  0
  -22.3358  -23.5616   20.0331 N   0  0  0  0  0  0  0  0  0  0  0  0
  -28.8174  -33.2498   26.3261 N   0  3  0  0  0  0  0  0  0  0  0  0
  -27.2384  -26.7921   17.2600 O   0  0  0  0  0  0  0  0  0  0  0  0
  -29.3002  -20.6573   20.1070 O   0  0  0  0  0  0  0  0  0  0  0  0
  -23.2269  -29.4385   21.2211 O   0  0  0  0  0  0  0  0  0  0  0  0
  -23.4303  -32.5564   23.9282 O   0  0  0  0  0  0  0  0  0  0  0  0
  -28.1694  -32.4314   23.7133 O   0  0  0  0  0  0  0  0  0  0  0  0
  -20.6204  -23.6258   21.5529 O   0  0  0  0  0  0  0  0  0  0  0  0
  -28.2932  -13.0809   21.5806 O   0  0  0  0  0  0  0  0  0  0  0  0
  -28.2236  -25.9120   21.7522 O   0  0  0  0  0  0  0  0  0  1  0  0
  -30.6084  -11.0574   17.0036 F   0  0  0  0  0  0  0  0  0  0  0  0
  -30.6290  -14.1645   20.5744 F   0  0  0  0  0  0  0  0  0  0  0  0
  -24.7026  -25.2500   19.8708 F   0  0  0  0  0  0  0  0  0  0  0  0
  1  2  1  0  0  0  0
  1  7  2  0  0  0  0
  2  8  2  0  0  0  0
  3  6  2  0  0  0  0
  3 10  1  0  0  0  0
  4 11  2  0  0  0  0
  4 18  1  0  0  0  0
  5 12  1  0  0  0  0
  5 18  2  0  0  0  0
  6 19  1  0  0  0  0
  7 21  1  0  0  0  0
  8 23  1  0  0  0  0
  9 13  2  0  0  0  0
  9 22  1  0  0  0  0
 10 25  2  0  0  0  0
 11 26  1  0  0  0  0
 12 26  2  0  0  0  0
 13 27  1  0  0  0  0
 14 15  2  0  0  0  0
 14 28  1  0  0  0  0
 15 29  1  0  0  0  0
 16 24  1  0  0  0  0
 16 27  2  0  0  0  0
 17 29  2  0  0  0  0
 17 30  1  0  0  0  0
 18 32  1  0  0  0  0
 19 31  2  0  0  0  0
 19 34  1  0  0  0  0
 20 32  1  0  0  0  0
 20 33  2  0  0  0  0
 20 35  1  0  0  0  0
 21 23  2  0  0  0  0
 21 40  1  0  0  0  0
 22 24  2  0  0  0  0
 22 41  1  0  0  0  0
 23 49  1  0  0  0  0
 24 42  1  0  0  0  0
 25 31  1  0  0  0  0
 25 58  1  0  0  0  0
 26 81  1  0  0  0  0
 27 82  1  0  0  0  0
 28 30  2  0  0  0  0
 28 81  1  0  0  0  0
 29 83  1  0  0  0  0
 30 84  1  0  0  0  0
 31 85  1  0  0  0  0
 32 64  2  0  0  0  0
 33 65  1  0  0  0  0
 33 68  1  0  0  0  0
 34 70  1  0  0  0  0
 34 75  2  0  0  0  0
 35 69  1  0  0  0  0
 35 76  2  0  0  0  0
 36 50  1  0  0  0  0
 36 71  1  0  0  0  0
 36 77  2  0  0  0  0
 37 60  1  0  0  0  0
 37 66  1  0  0  0  0
 37 78  2  0  0  0  0
 38 61  1  0  0  0  0
 38 72  1  0  0  0  0
 38 79  2  0  0  0  0
 39 67  1  0  0  0  0
 39 73  1  0  0  0  0
 39 80  2  0  0  0  0
 40 43  1  0  0  0  0
 41 50  1  0  0  0  0
 42 66  1  0  0  0  0
 43 45  1  0  0  0  0
 44 46  1  0  0  0  0
 44 47  1  0  0  0  0
 45 49  1  0  0  0  0
 46 51  1  0  0  0  0
 47 67  1  0  0  0  0
 48 51  1  0  0  0  0
 48 67  1  0  0  0  0
 49 71  1  0  0  0  0
 50 66  1  0  0  0  0
 51 65  1  0  0  0  0
 52 61  1  0  0  0  0
 53 62  1  0  0  0  0
 54 63  1  0  0  0  0
 55 63  1  0  0  0  0
 56 63  1  0  0  0  0
 57 74  1  0  0  0  0
 58 73  1  0  0  0  0
 59 62  1  0  0  0  0
 59 70  1  0  0  0  0
 60 63  1  0  0  0  0
 60 72  1  0  0  0  0
 61 74  1  0  0  0  0
 62 82  1  0  0  0  0
 64 65  1  0  0  0  0
M  CHG  1  74   1
M  ISO  4  39 100  62 101  73 100  82 101
M  END
> <Batch ID>
0058

> <Smiles>
CNC(C)C(=O)NC(C(=O)N1Cc2cc([101O:1][101CH:1](C)CNC(=O)c3cccc(C[100NH:0][100C:0](=O)N4CCCC(n5nc(-c6ccc(Oc7ccc(F)cc7F)cc6)c(C(N)=O)c5N)C4)c3F)ccc2CC1C(=O)NC1CCCc2ccccc21)C(C)(C)C

> <Shape>
0.234

> <Color>
0.077

> <Negative vol penalty>
0.000

$$$$

  -OEChem-04042322583D

 84 92  0     1  0  0  0  0  0999 V2000
  -27.0810  -24.5947   16.0607 C   0  0  0  0  0  0  0  0  0  0  0  0
  -26.0635  -25.4484   16.4716 C   0  0  0  0  0  0  0  0  0  0  0  0
  -23.2304  -25.2768   20.8169 C   0  0  0  0  0  0  0  0  0  0  0  0
  -24.7780  -12.6757   19.8212 C   0  0  0  0  0  0  0  0  0  0  0  0
  -25.5022  -13.8279   21.8174 C   0  0  0  0  0  0  0  0  0  0  0  0
  -28.1780  -24.3739   16.8907 C   0  0  0  0  0  0  0  0  0  0  0  0
  -26.1483  -26.0908   17.7073 C   0  0  0  0  0  0  0  0  0  0  0  0
  -22.7047  -29.4559   18.7181 C   0  0  0  0  0  0  0  0  0  0  0  0
  -22.2249  -25.2034   21.7808 C   0  0  0  0  0  0  0  0  0  0  0  0
  -23.5747  -24.1432   20.0805 C   0  0  0  0  0  0  0  0  0  0  0  0
  -25.4698  -11.5351   20.2284 C   0  0  0  0  0  0  0  0  0  0  0  0
  -26.1941  -12.6872   22.2247 C   0  0  0  0  0  0  0  0  0  0  0  0
  -21.3832  -29.1186   19.0071 C   0  0  0  0  0  0  0  0  0  0  0  0
  -25.0125   -8.9891   22.4060 C   0  0  0  0  0  0  0  0  0  0  0  0
  -24.3597   -7.7614   22.2963 C   0  0  0  0  0  0  0  0  0  0  0  0
  -21.7989  -29.5217   21.3489 C   0  0  0  0  0  0  0  0  0  0  0  0
  -21.9080  -22.8629   21.2721 C   0  0  0  0  0  0  0  0  0  0  0  0
  -26.0933   -6.9725   20.8099 C   0  0  0  0  0  0  0  0  0  0  0  0
  -24.7942  -13.8222   20.6156 C   0  0  0  0  0  0  0  0  0  0  0  0
  -22.7442  -15.3350   20.4873 C   0  0  0  0  0  0  0  0  0  0  0  0
  -28.2696  -25.0046   18.1424 C   0  0  0  0  0  0  0  0  0  0  0  0
  -23.5877  -29.8187   19.7453 C   0  0  0  0  0  0  0  0  0  0  0  0
  -27.2590  -25.8995   18.5490 C   0  0  0  0  0  0  0  0  0  0  0  0
  -23.1304  -29.8656   21.0700 C   0  0  0  0  0  0  0  0  0  0  0  0
  -21.5637  -23.9965   22.0084 C   0  0  0  0  0  0  0  0  0  0  0  0
  -22.9135  -22.9363   20.3081 C   0  0  0  0  0  0  0  0  0  0  0  0
  -26.1778  -11.5408   21.4302 C   0  0  0  0  0  0  0  0  0  0  0  0
  -20.9308  -29.1487   20.3230 C   0  0  0  0  0  0  0  0  0  0  0  0
  -26.2056   -9.2087   21.7176 C   0  0  0  0  0  0  0  0  0  0  0  0
  -24.9001   -6.7530   21.4983 C   0  0  0  0  0  0  0  0  0  0  0  0
  -26.7460   -8.2003   20.9195 C   0  0  0  0  0  0  0  0  0  0  0  0
  -24.0802  -15.0009   20.1952 C   0  0  0  0  0  0  0  0  0  0  0  0
  -22.5477  -16.5424   19.8627 C   0  0  0  0  0  0  0  0  0  0  0  0
  -21.7681  -14.6181   21.2547 C   0  0  0  0  0  0  0  0  0  0  0  0
  -26.3042  -28.6312   20.8918 C   0  0  0  0  0  0  0  0  0  0  0  0
  -26.2696  -31.3295   22.6919 C   0  0  0  0  0  0  0  0  0  0  0  0
  -19.0259  -25.8349   23.6425 C   0  0  0  0  0  0  0  0  0  0  0  0
  -24.4484  -33.8445   24.1079 C   0  0  0  0  0  0  0  0  0  0  0  0
  -24.2365  -21.6872   18.5658 C   0  0  0  0  0  0  0  0  0  0  0  0
  -29.4829  -24.7359   18.9974 C   0  0  0  0  0  0  0  0  0  0  0  0
  -25.0030  -30.2055   19.4139 C   0  0  0  0  0  0  0  0  0  0  0  0
  -24.0329  -30.2679   22.2067 C   0  0  0  0  0  0  0  0  0  0  0  0
  -29.2725  -25.1074   20.4616 C   0  0  0  0  0  0  0  0  0  0  0  0
  -25.4219  -19.0268   16.5178 C   0  0  0  0  0  0  0  0  0  0  0  0
  -28.6968  -26.5119   20.5640 C   0  0  0  0  0  0  0  0  0  0  0  0
  -25.0686  -17.7698   17.3159 C   0  0  0  0  0  0  0  0  0  0  0  0
  -25.8488  -20.1760   17.4292 C   0  0  0  0  0  0  0  0  0  0  0  0
  -24.5494  -19.2429   19.3027 C   0  0  0  0  0  0  0  0  0  0  0  0
  -27.3150  -26.5854   19.9020 C   0  0  1  0  0  0  0  0  0  0  0  0
  -25.9543  -30.0626   20.5979 C   0  0  1  0  0  0  0  0  0  0  0  0
  -24.0510  -18.0781   18.4317 C   0  0  2  0  0  0  0  0  0  0  0  0
  -24.6933  -35.8809   25.5537 C   0  0  0  0  0  0  0  0  0  0  0  0
  -26.5826  -29.5456   25.1474 C   0  0  0  0  0  0  0  0  0  0  0  0
  -25.8743  -31.4865   26.5615 C   0  0  0  0  0  0  0  0  0  0  0  0
  -27.9555  -31.6354   25.1944 C   0  0  0  0  0  0  0  0  0  0  0  0
  -23.4109  -35.6218   21.9810 C   0  0  0  0  0  0  0  0  0  0  0  0
  -20.4814  -23.9181   23.0461 C   0  0  0  0  0  0  0  0  0  0  0  0
  -17.8595  -26.6451   23.1056 C   0  0  0  0  0  0  0  0  0  0  0  0
  -18.1797  -27.3168   21.7751 C   0  0  0  0  0  0  0  0  0  0  0  0
  -19.3873  -28.2362   21.8853 C   0  0  0  0  0  0  0  0  0  1  0  0
  -25.7070  -31.7077   24.0408 C   0  0  1  0  0  0  0  0  0  0  0  0
  -24.6545  -35.3483   24.1297 C   0  0  2  0  0  0  0  0  0  0  0  0
  -26.5131  -31.0843   25.2150 C   0  0  0  0  0  0  0  0  0  0  0  0
  -24.6894  -15.9216   19.4434 N   0  0  0  0  0  0  0  0  0  0  0  0
  -23.7318  -16.8461   19.2577 N   0  0  0  0  0  0  0  0  0  0  0  0
  -25.4096  -30.6312   21.8324 N   0  0  0  0  0  0  0  0  0  0  0  0
  -24.8347  -20.4138   18.4587 N   0  0  0  0  0  0  0  0  0  0  0  0
  -21.4794  -17.3632   19.7774 N   0  0  0  0  0  0  0  0  0  0  0  0
  -22.1365  -13.3930   21.8271 N   0  0  0  0  0  0  0  0  0  0  0  0
  -23.2630  -21.7852   19.5594 N   0  0  0  0  0  0  0  0  0  0  0  0
  -26.8970  -27.9683   19.8342 N   0  0  0  0  0  0  0  0  0  0  0  0
  -19.3957  -24.8269   22.7641 N   0  0  0  0  0  0  0  0  0  0  0  0
  -25.6475  -33.1652   24.0642 N   0  0  0  0  0  0  0  0  0  0  0  0
  -23.5492  -36.0333   23.4017 N   0  3  0  0  0  0  0  0  0  0  0  0
  -20.5987  -15.0431   21.4139 O   0  0  0  0  0  0  0  0  0  0  0  0
  -26.0561  -28.1633   21.9969 O   0  0  0  0  0  0  0  0  0  0  0  0
  -27.4270  -31.6484   22.4084 O   0  0  0  0  0  0  0  0  0  0  0  0
  -19.5630  -26.0602   24.7237 O   0  0  0  0  0  0  0  0  0  0  0  0
  -23.3351  -33.3244   24.1313 O   0  0  0  0  0  0  0  0  0  0  0  0
  -24.5443  -22.6143   17.8122 O   0  0  0  0  0  0  0  0  0  0  0  0
  -26.8529  -10.4279   21.8281 O   0  0  0  0  0  0  0  0  0  0  0  0
  -19.6416  -28.8193   20.6079 O   0  0  0  0  0  0  0  0  0  1  0  0
  -24.2740   -5.5735   21.3943 F   0  0  0  0  0  0  0  0  0  0  0  0
  -27.8926   -8.4049   20.2567 F   0  0  0  0  0  0  0  0  0  0  0  0
  1  2  1  0  0  0  0
  1  6  2  0  0  0  0
  2  7  2  0  0  0  0
  3  9  2  0  0  0  0
  3 10  1  0  0  0  0
  4 11  2  0  0  0  0
  4 19  1  0  0  0  0
  5 12  1  0  0  0  0
  5 19  2  0  0  0  0
  6 21  1  0  0  0  0
  7 23  1  0  0  0  0
  8 13  2  0  0  0  0
  8 22  1  0  0  0  0
  9 25  1  0  0  0  0
 10 26  2  0  0  0  0
 11 27  1  0  0  0  0
 12 27  2  0  0  0  0
 13 28  1  0  0  0  0
 14 15  2  0  0  0  0
 14 29  1  0  0  0  0
 15 30  1  0  0  0  0
 16 24  1  0  0  0  0
 16 28  2  0  0  0  0
 17 25  2  0  0  0  0
 17 26  1  0  0  0  0
 18 30  2  0  0  0  0
 18 31  1  0  0  0  0
 19 32  1  0  0  0  0
 20 32  1  0  0  0  0
 20 33  2  0  0  0  0
 20 34  1  0  0  0  0
 21 23  2  0  0  0  0
 21 40  1  0  0  0  0
 22 24  2  0  0  0  0
 22 41  1  0  0  0  0
 23 49  1  0  0  0  0
 24 42  1  0  0  0  0
 25 57  1  0  0  0  0
 26 70  1  0  0  0  0
 27 81  1  0  0  0  0
 28 82  1  0  0  0  0
 29 31  2  0  0  0  0
 29 81  1  0  0  0  0
 30 83  1  0  0  0  0
 31 84  1  0  0  0  0
 32 64  2  0  0  0  0
 33 65  1  0  0  0  0
 33 68  1  0  0  0  0
 34 69  1  0  0  0  0
 34 75  2  0  0  0  0
 35 50  1  0  0  0  0
 35 71  1  0  0  0  0
 35 76  2  0  0  0  0
 36 61  1  0  0  0  0
 36 66  1  0  0  0  0
 36 77  2  0  0  0  0
 37 58  1  0  0  0  0
 37 72  1  0  0  0  0
 37 78  2  0  0  0  0
 38 62  1  0  0  0  0
 38 73  1  0  0  0  0
 38 79  2  0  0  0  0
 39 67  1  0  0  0  0
 39 70  1  0  0  0  0
 39 80  2  0  0  0  0
 40 43  1  0  0  0  0
 41 50  1  0  0  0  0
 42 66  1  0  0  0  0
 43 45  1  0  0  0  0
 44 46  1  0  0  0  0
 44 47  1  0  0  0  0
 45 49  1  0  0  0  0
 46 51  1  0  0  0  0
 47 67  1  0  0  0  0
 48 51  1  0  0  0  0
 48 67  1  0  0  0  0
 49 71  1  0  0  0  0
 50 66  1  0  0  0  0
 51 65  1  0  0  0  0
 52 62  1  0  0  0  0
 53 63  1  0  0  0  0
 54 63  1  0  0  0  0
 55 63  1  0  0  0  0
 56 74  1  0  0  0  0
 57 72  1  0  0  0  0
 58 59  1  0  0  0  0
 59 60  1  0  0  0  0
 60 82  1  0  0  0  0
 61 63  1  0  0  0  0
 61 73  1  0  0  0  0
 62 74  1  0  0  0  0
 64 65  1  0  0  0  0
M  CHG  1  74   1
M  ISO  4  39 100  60 101  70 100  82 101
M  END
> <Batch ID>
0058

> <Smiles>
CNC(C)C(=O)NC(C(=O)N1Cc2cc([101O:1][101CH2:1]CCC(=O)NCc3cccc([100NH:0][100C:0](=O)N4CCCC(n5nc(-c6ccc(Oc7ccc(F)cc7F)cc6)c(C(N)=O)c5N)C4)c3)ccc2CC1C(=O)NC1CCCc2ccccc21)C(C)(C)C

> <Shape>
0.246

> <Color>
0.080

> <Negative vol penalty>
0.000

$$$$

  -OEChem-04042322583D

 85 93  0     1  0  0  0  0  0999 V2000
  -32.2563  -32.8635   22.3810 C   0  0  0  0  0  0  0  0  0  0  0  0
  -31.6887  -31.8404   21.6284 C   0  0  0  0  0  0  0  0  0  0  0  0
  -28.3447  -23.5975   22.8525 C   0  0  0  0  0  0  0  0  0  0  0  0
  -26.4903  -12.2257   21.4692 C   0  0  0  0  0  0  0  0  0  0  0  0
  -25.7656  -13.9746   19.9681 C   0  0  0  0  0  0  0  0  0  0  0  0
  -27.7438  -23.8861   21.6273 C   0  0  0  0  0  0  0  0  0  0  0  0
  -31.7187  -33.1933   23.6244 C   0  0  0  0  0  0  0  0  0  0  0  0
  -30.5837  -31.1458   22.1192 C   0  0  0  0  0  0  0  0  0  0  0  0
  -26.9903  -30.4843   18.6128 C   0  0  0  0  0  0  0  0  0  0  0  0
  -28.9255  -22.3476   23.0672 C   0  0  0  0  0  0  0  0  0  0  0  0
  -25.2225  -11.6473   21.4075 C   0  0  0  0  0  0  0  0  0  0  0  0
  -24.4978  -13.3962   19.9063 C   0  0  0  0  0  0  0  0  0  0  0  0
  -27.1967  -29.4765   17.6718 C   0  0  0  0  0  0  0  0  0  0  0  0
  -22.0702   -9.9109   21.9285 C   0  0  0  0  0  0  0  0  0  0  0  0
  -21.4888   -9.4899   23.1244 C   0  0  0  0  0  0  0  0  0  0  0  0
  -25.7300  -28.0216   18.9173 C   0  0  0  0  0  0  0  0  0  0  0  0
  -21.5922  -11.7506   23.9704 C   0  0  0  0  0  0  0  0  0  0  0  0
  -26.7618  -13.3894   20.7496 C   0  0  0  0  0  0  0  0  0  0  0  0
  -27.7234  -22.9248   20.6169 C   0  0  0  0  0  0  0  0  0  0  0  0
  -29.1690  -13.7219   19.9734 C   0  0  0  0  0  0  0  0  0  0  0  0
  -30.6006  -32.5089   24.1265 C   0  0  0  0  0  0  0  0  0  0  0  0
  -26.1594  -30.2643   19.7208 C   0  0  0  0  0  0  0  0  0  0  0  0
  -30.0315  -31.4659   23.3711 C   0  0  0  0  0  0  0  0  0  0  0  0
  -25.5127  -29.0291   19.8695 C   0  0  0  0  0  0  0  0  0  0  0  0
  -28.3040  -21.6748   20.8316 C   0  0  0  0  0  0  0  0  0  0  0  0
  -28.9051  -21.3862   22.0568 C   0  0  0  0  0  0  0  0  0  0  0  0
  -24.2263  -12.2325   20.6260 C   0  0  0  0  0  0  0  0  0  0  0  0
  -26.5688  -28.2439   17.8255 C   0  0  0  0  0  0  0  0  0  0  0  0
  -22.4127  -11.2517   21.7535 C   0  0  0  0  0  0  0  0  0  0  0  0
  -21.2498  -10.4097   24.1454 C   0  0  0  0  0  0  0  0  0  0  0  0
  -22.1737  -12.1715   22.7745 C   0  0  0  0  0  0  0  0  0  0  0  0
  -28.0710  -13.9877   20.8134 C   0  0  0  0  0  0  0  0  0  0  0  0
  -30.1670  -14.5402   20.4435 C   0  0  0  0  0  0  0  0  0  0  0  0
  -27.0765  -23.2630   19.3229 C   0  0  0  0  0  0  0  0  0  0  0  0
  -29.2772  -12.8164   18.8670 C   0  0  0  0  0  0  0  0  0  0  0  0
  -26.5801  -30.2446   22.8714 C   0  0  0  0  0  0  0  0  0  0  0  0
  -23.3558  -29.8914   22.9081 C   0  0  0  0  0  0  0  0  0  0  0  0
  -20.5328  -28.8845   21.2760 C   0  0  0  0  0  0  0  0  0  0  0  0
  -30.1350  -19.6963   23.4632 C   0  0  0  0  0  0  0  0  0  0  0  0
  -30.0838  -32.8695   25.4967 C   0  0  0  0  0  0  0  0  0  0  0  0
  -25.9259  -31.3706   20.7127 C   0  0  0  0  0  0  0  0  0  0  0  0
  -24.5949  -28.7491   21.0305 C   0  0  0  0  0  0  0  0  0  0  0  0
  -28.6818  -32.3354   25.7789 C   0  0  0  0  0  0  0  0  0  0  0  0
  -31.6952  -16.6548   24.4594 C   0  0  0  0  0  0  0  0  0  0  0  0
  -28.5746  -30.8716   25.3636 C   0  0  0  0  0  0  0  0  0  0  0  0
  -31.0472  -15.6024   23.5568 C   0  0  0  0  0  0  0  0  0  0  0  0
  -30.6981  -17.7335   24.8792 C   0  0  0  0  0  0  0  0  0  0  0  0
  -29.3311  -17.3261   22.8706 C   0  0  0  0  0  0  0  0  0  0  0  0
  -28.8170  -30.7059   23.8585 C   0  0  1  0  0  0  0  0  0  0  0  0
  -25.4658  -30.8636   22.0760 C   0  0  1  0  0  0  0  0  0  0  0  0
  -30.3123  -16.2541   22.3690 C   0  0  2  0  0  0  0  0  0  0  0  0
  -28.2811  -20.6437   19.7463 C   0  0  0  0  0  0  0  0  0  0  0  0
  -18.0495  -28.6836   21.5761 C   0  0  0  0  0  0  0  0  0  0  0  0
  -29.0431  -25.4545   16.5498 C   0  0  0  0  0  0  0  0  0  0  0  0
  -23.7701  -27.4373   24.6732 C   0  0  0  0  0  0  0  0  0  0  0  0
  -21.4178  -26.7541   24.1555 C   0  0  0  0  0  0  0  0  0  0  0  0
  -21.8574  -28.8989   25.3510 C   0  0  0  0  0  0  0  0  0  0  0  0
  -19.9946  -30.7240   19.0209 C   0  0  0  0  0  0  0  0  0  0  0  0
  -27.4183  -23.5298   16.8800 C   0  0  0  0  0  0  0  0  0  0  0  0
  -26.6941  -25.9120   17.3759 C   0  0  0  0  0  0  0  0  0  1  0  0
  -22.4088  -28.7158   22.8905 C   0  0  1  0  0  0  0  0  0  0  0  0
  -19.1880  -29.5606   21.0787 C   0  0  2  0  0  0  0  0  0  0  0  0
  -27.5773  -25.0097   16.5058 C   0  0  1  0  0  0  0  0  0  0  0  0
  -22.3823  -27.9558   24.2466 C   0  0  0  0  0  0  0  0  0  0  0  0
  -28.3454  -14.9031   21.7466 N   0  0  0  0  0  0  0  0  0  0  0  0
  -29.6272  -15.2196   21.4958 N   0  0  0  0  0  0  0  0  0  0  0  0
  -24.4036  -29.8605   21.9769 N   0  0  0  0  0  0  0  0  0  0  0  0
  -30.0439  -18.3087   23.7019 N   0  0  0  0  0  0  0  0  0  0  0  0
  -31.4448  -14.7375   20.0554 N   0  0  0  0  0  0  0  0  0  0  0  0
  -28.1561  -12.0512   18.5179 N   0  0  0  0  0  0  0  0  0  0  0  0
  -29.5016  -20.1235   22.2966 N   0  0  0  0  0  0  0  0  0  0  0  0
  -27.8917  -23.2070   18.1987 N   0  0  0  0  0  0  0  0  0  0  0  0
  -27.6410  -31.0969   23.1111 N   0  0  0  0  0  0  0  0  0  0  0  0
  -21.1131  -29.2417   22.4747 N   0  0  0  0  0  0  0  0  0  0  0  0
  -18.9612  -29.8510   19.6347 N   0  3  0  0  0  0  0  0  0  0  0  0
  -25.8918  -23.5867   19.3109 O   0  0  0  0  0  0  0  0  0  0  0  0
  -30.3415  -12.6777   18.2179 O   0  0  0  0  0  0  0  0  0  0  0  0
  -26.4839  -29.0804   23.2416 O   0  0  0  0  0  0  0  0  0  0  0  0
  -23.1685  -30.8068   23.7134 O   0  0  0  0  0  0  0  0  0  0  0  0
  -21.0182  -28.1135   20.4510 O   0  0  0  0  0  0  0  0  0  0  0  0
  -30.7543  -20.4461   24.2223 O   0  0  0  0  0  0  0  0  0  0  0  0
  -22.9892  -11.6682   20.5653 O   0  0  0  0  0  0  0  0  0  0  0  0
  -26.7691  -27.2583   16.9088 O   0  0  0  0  0  0  0  0  0  1  0  0
  -20.6900  -10.0056   25.2932 F   0  0  0  0  0  0  0  0  0  0  0  0
  -22.4994  -13.4612   22.6118 F   0  0  0  0  0  0  0  0  0  0  0  0
  1  2  1  0  0  0  0
  1  7  2  0  0  0  0
  2  8  2  0  0  0  0
  3  6  2  0  0  0  0
  3 10  1  0  0  0  0
  4 11  2  0  0  0  0
  4 18  1  0  0  0  0
  5 12  1  0  0  0  0
  5 18  2  0  0  0  0
  6 19  1  0  0  0  0
  7 21  1  0  0  0  0
  8 23  1  0  0  0  0
  9 13  2  0  0  0  0
  9 22  1  0  0  0  0
 10 26  2  0  0  0  0
 11 27  1  0  0  0  0
 12 27  2  0  0  0  0
 13 28  1  0  0  0  0
 14 15  2  0  0  0  0
 14 29  1  0  0  0  0
 15 30  1  0  0  0  0
 16 24  1  0  0  0  0
 16 28  2  0  0  0  0
 17 30  2  0  0  0  0
 17 31  1  0  0  0  0
 18 32  1  0  0  0  0
 19 25  2  0  0  0  0
 19 34  1  0  0  0  0
 20 32  1  0  0  0  0
 20 33  2  0  0  0  0
 20 35  1  0  0  0  0
 21 23  2  0  0  0  0
 21 40  1  0  0  0  0
 22 24  2  0  0  0  0
 22 41  1  0  0  0  0
 23 49  1  0  0  0  0
 24 42  1  0  0  0  0
 25 26  1  0  0  0  0
 25 52  1  0  0  0  0
 26 71  1  0  0  0  0
 27 82  1  0  0  0  0
 28 83  1  0  0  0  0
 29 31  2  0  0  0  0
 29 82  1  0  0  0  0
 30 84  1  0  0  0  0
 31 85  1  0  0  0  0
 32 65  2  0  0  0  0
 33 66  1  0  0  0  0
 33 69  1  0  0  0  0
 34 72  1  0  0  0  0
 34 76  2  0  0  0  0
 35 70  1  0  0  0  0
 35 77  2  0  0  0  0
 36 50  1  0  0  0  0
 36 73  1  0  0  0  0
 36 78  2  0  0  0  0
 37 61  1  0  0  0  0
 37 67  1  0  0  0  0
 37 79  2  0  0  0  0
 38 62  1  0  0  0  0
 38 74  1  0  0  0  0
 38 80  2  0  0  0  0
 39 68  1  0  0  0  0
 39 71  1  0  0  0  0
 39 81  2  0  0  0  0
 40 43  1  0  0  0  0
 41 50  1  0  0  0  0
 42 67  1  0  0  0  0
 43 45  1  0  0  0  0
 44 46  1  0  0  0  0
 44 47  1  0  0  0  0
 45 49  1  0  0  0  0
 46 51  1  0  0  0  0
 47 68  1  0  0  0  0
 48 51  1  0  0  0  0
 48 68  1  0  0  0  0
 49 73  1  0  0  0  0
 50 67  1  0  0  0  0
 51 66  1  0  0  0  0
 53 62  1  0  0  0  0
 54 63  1  0  0  0  0
 55 64  1  0  0  0  0
 56 64  1  0  0  0  0
 57 64  1  0  0  0  0
 58 75  1  0  0  0  0
 59 63  1  0  0  0  0
 59 72  1  0  0  0  0
 60 63  1  0  0  0  0
 60 83  1  0  0  0  0
 61 64  1  0  0  0  0
 61 74  1  0  0  0  0
 62 75  1  0  0  0  0
 65 66  1  0  0  0  0
M  CHG  1  75   1
M  ISO  4  39 100  60 101  71 100  83 101
M  END
> <Batch ID>
0058

> <Smiles>
CNC(C)C(=O)NC(C(=O)N1Cc2cc([101O:1][101CH2:1]C(C)CNC(=O)c3cccc([100NH:0][100C:0](=O)N4CCCC(n5nc(-c6ccc(Oc7ccc(F)cc7F)cc6)c(C(N)=O)c5N)C4)c3C)ccc2CC1C(=O)NC1CCCc2ccccc21)C(C)(C)C

> <Shape>
0.248

> <Color>
0.068

> <Negative vol penalty>
0.000

$$$$

  -OEChem-04042322583D

 93101  0     1  0  0  0  0  0999 V2000
  -29.9510  -32.8061   26.1473 C   0  0  0  0  0  0  0  0  0  0  0  0
  -30.2644  -31.8258   25.2113 C   0  0  0  0  0  0  0  0  0  0  0  0
  -23.1819   -9.7625   21.5751 C   0  0  0  0  0  0  0  0  0  0  0  0
  -23.8392  -10.8999   23.6027 C   0  0  0  0  0  0  0  0  0  0  0  0
  -28.6681  -32.8654   26.6901 C   0  0  0  0  0  0  0  0  0  0  0  0
  -29.2952  -30.9033   24.8183 C   0  0  0  0  0  0  0  0  0  0  0  0
  -28.6113  -28.4242   19.2603 C   0  0  0  0  0  0  0  0  0  0  0  0
  -22.4980   -8.8104   22.3309 C   0  0  0  0  0  0  0  0  0  0  0  0
  -23.1552   -9.9478   24.3586 C   0  0  0  0  0  0  0  0  0  0  0  0
  -29.0061  -27.1990   18.7247 C   0  0  0  0  0  0  0  0  0  0  0  0
  -23.2540   -6.0680   24.1563 C   0  0  0  0  0  0  0  0  0  0  0  0
  -23.4231   -4.7264   23.8139 C   0  0  0  0  0  0  0  0  0  0  0  0
  -26.8202  -26.2948   19.1974 C   0  0  0  0  0  0  0  0  0  0  0  0
  -30.7388  -17.5532   18.5510 C   0  0  0  0  0  0  0  0  0  0  0  0
  -29.0241  -18.4311   20.0092 C   0  0  0  0  0  0  0  0  0  0  0  0
  -21.0506   -4.5329   23.4007 C   0  0  0  0  0  0  0  0  0  0  0  0
  -23.8526  -10.8073   22.2110 C   0  0  0  0  0  0  0  0  0  0  0  0
  -24.0480  -12.9985   20.9195 C   0  0  0  0  0  0  0  0  0  0  0  0
  -27.6800  -31.9492   26.2964 C   0  0  0  0  0  0  0  0  0  0  0  0
  -27.3193  -28.5909   19.7793 C   0  0  0  0  0  0  0  0  0  0  0  0
  -27.9983  -30.9496   25.3574 C   0  0  0  0  0  0  0  0  0  0  0  0
  -26.4106  -27.5238   19.7367 C   0  0  0  0  0  0  0  0  0  0  0  0
  -30.8238  -18.7878   17.9076 C   0  0  0  0  0  0  0  0  0  0  0  0
  -29.8388  -17.3748   19.6017 C   0  0  0  0  0  0  0  0  0  0  0  0
  -29.1092  -19.6658   19.3658 C   0  0  0  0  0  0  0  0  0  0  0  0
  -30.0091  -19.8442   18.3150 C   0  0  0  0  0  0  0  0  0  0  0  0
  -22.4846   -8.9030   23.7226 C   0  0  0  0  0  0  0  0  0  0  0  0
  -28.1114  -26.1332   18.6958 C   0  0  0  0  0  0  0  0  0  0  0  0
  -21.9832   -6.6420   24.1210 C   0  0  0  0  0  0  0  0  0  0  0  0
  -22.3214   -3.9589   23.4361 C   0  0  0  0  0  0  0  0  0  0  0  0
  -20.8815   -5.8745   23.7432 C   0  0  0  0  0  0  0  0  0  0  0  0
  -24.5597  -11.7908   21.4309 C   0  0  0  0  0  0  0  0  0  0  0  0
  -25.1083  -13.5677   20.2575 C   0  0  0  0  0  0  0  0  0  0  0  0
  -24.9498  -24.1212   23.5224 C   0  0  0  0  0  0  0  0  0  0  0  0
  -25.5258  -23.7248   22.3819 C   0  0  0  0  0  0  0  0  0  0  0  0
  -26.3588  -22.5482   22.2790 C   0  0  0  0  0  0  0  0  0  0  0  0
  -26.9292  -22.1640   21.1284 C   0  0  0  0  0  0  0  0  0  0  0  0
  -22.7320  -13.5560   21.0329 C   0  0  0  0  0  0  0  0  0  0  0  0
  -27.7810  -20.9373   21.0807 C   0  0  0  0  0  0  0  0  0  0  0  0
  -26.1242  -29.2874   22.6412 C   0  0  0  0  0  0  0  0  0  0  0  0
  -23.3177  -29.3740   21.0169 C   0  0  0  0  0  0  0  0  0  0  0  0
  -29.8615  -22.3559   18.2001 C   0  0  0  0  0  0  0  0  0  0  0  0
  -21.5101  -28.3728   18.3009 C   0  0  0  0  0  0  0  0  0  0  0  0
  -30.4895  -14.9700   19.9762 C   0  0  0  0  0  0  0  0  0  0  0  0
  -26.3210  -32.0235   26.9461 C   0  0  0  0  0  0  0  0  0  0  0  0
  -26.9003  -29.9267   20.3293 C   0  0  0  0  0  0  0  0  0  0  0  0
  -25.0056  -27.6572   20.2626 C   0  0  0  0  0  0  0  0  0  0  0  0
  -25.2445  -31.2415   26.1978 C   0  0  0  0  0  0  0  0  0  0  0  0
  -29.6256  -11.6532   19.0122 C   0  0  0  0  0  0  0  0  0  0  0  0
  -25.7559  -29.8540   25.8232 C   0  0  0  0  0  0  0  0  0  0  0  0
  -28.1885  -11.4926   19.5135 C   0  0  0  0  0  0  0  0  0  0  0  0
  -30.4721  -12.4851   19.9740 C   0  0  0  0  0  0  0  0  0  0  0  0
  -28.4668  -13.6310   20.8314 C   0  0  0  0  0  0  0  0  0  0  0  0
  -26.9672  -29.9466   24.8875 C   0  0  1  0  0  0  0  0  0  0  0  0
  -25.7261  -29.8321   21.2986 C   0  0  1  0  0  0  0  0  0  0  0  0
  -27.5584  -12.8549   19.8639 C   0  0  2  0  0  0  0  0  0  0  0  0
  -19.2322  -28.5743   17.2674 C   0  0  0  0  0  0  0  0  0  0  0  0
  -33.1614  -19.4195   17.2786 C   0  0  0  0  0  0  0  0  0  0  0  0
  -22.2178  -27.3933   23.0607 C   0  0  0  0  0  0  0  0  0  0  0  0
  -20.3360  -26.9145   21.4803 C   0  0  0  0  0  0  0  0  0  0  0  0
  -20.6284  -29.2110   22.4095 C   0  0  0  0  0  0  0  0  0  0  0  0
  -22.6001  -29.6592   15.8686 C   0  0  0  0  0  0  0  0  0  0  0  0
  -30.0714  -23.4368   17.1457 C   0  0  0  0  0  0  0  0  0  0  0  0
  -29.8276  -24.8423   17.6739 C   0  0  0  0  0  0  0  0  0  1  0  0
  -22.2528  -28.3625   20.6679 C   0  0  1  0  0  0  0  0  0  0  0  0
  -20.6392  -29.1482   17.3290 C   0  0  2  0  0  0  0  0  0  0  0  0
  -31.7972  -18.9476   16.7847 C   0  0  0  0  0  0  0  0  0  0  0  0
  -21.3858  -27.9669   21.8964 C   0  0  0  0  0  0  0  0  0  0  0  0
  -25.8451  -11.6029   21.1202 N   0  0  0  0  0  0  0  0  0  0  0  0
  -26.1500  -12.7000   20.4064 N   0  0  0  0  0  0  0  0  0  0  0  0
  -24.6454  -28.9813   20.7961 N   0  0  0  0  0  0  0  0  0  0  0  0
  -29.8148  -13.7630   20.2567 N   0  0  0  0  0  0  0  0  0  0  0  0
  -25.2419  -14.7208   19.5683 N   0  0  0  0  0  0  0  0  0  0  0  0
  -21.7623  -12.8399   21.7480 N   0  0  0  0  0  0  0  0  0  0  0  0
  -28.2816  -20.7085   19.7934 N   0  0  0  0  0  0  0  0  0  0  0  0
  -30.0985  -21.0950   17.6592 N   0  0  0  0  0  0  0  0  0  0  0  0
  -29.7530  -16.1207   20.2557 N   0  0  0  0  0  0  0  0  0  0  0  0
  -26.5415  -30.2520   23.5384 N   0  0  0  0  0  0  0  0  0  0  0  0
  -21.4944  -28.9339   19.5603 N   0  0  0  0  0  0  0  0  0  0  0  0
  -21.2252  -29.1038   15.9594 N   0  3  0  0  0  0  0  0  0  0  0  0
  -22.4204  -14.6487   20.5015 O   0  0  0  0  0  0  0  0  0  0  0  0
  -27.9766  -20.2590   22.0823 O   0  0  0  0  0  0  0  0  0  0  0  0
  -26.0564  -28.0815   22.8483 O   0  0  0  0  0  0  0  0  0  0  0  0
  -22.9834  -30.4748   21.4622 O   0  0  0  0  0  0  0  0  0  0  0  0
  -29.5289  -22.6218   19.3503 O   0  0  0  0  0  0  0  0  0  0  0  0
  -22.1383  -27.3675   17.9763 O   0  0  0  0  0  0  0  0  0  0  0  0
  -31.6259  -14.9818   19.4960 O   0  0  0  0  0  0  0  0  0  0  0  0
  -21.8171   -7.9742   24.4604 O   0  0  0  0  0  0  0  0  0  0  0  0
  -28.4944  -24.9361   18.1742 O   0  0  0  0  0  0  0  0  0  1  0  0
  -22.4841   -2.6710   23.1058 F   0  0  0  0  0  0  0  0  0  0  0  0
  -19.6584   -6.4207   23.7062 F   0  0  0  0  0  0  0  0  0  0  0  0
  -31.3774  -19.8464   15.8391 F   0  0  0  0  0  0  0  0  0  0  0  0
  -32.0004  -17.7862   16.0860 F   0  0  0  0  0  0  0  0  0  0  0  0
  1  2  1  0  0  0  0
  1  5  2  0  0  0  0
  2  6  2  0  0  0  0
  3  8  2  0  0  0  0
  3 17  1  0  0  0  0
  4  9  1  0  0  0  0
  4 17  2  0  0  0  0
  5 19  1  0  0  0  0
  6 21  1  0  0  0  0
  7 10  2  0  0  0  0
  7 20  1  0  0  0  0
  8 27  1  0  0  0  0
  9 27  2  0  0  0  0
 10 28  1  0  0  0  0
 11 12  2  0  0  0  0
 11 29  1  0  0  0  0
 12 30  1  0  0  0  0
 13 22  1  0  0  0  0
 13 28  2  0  0  0  0
 14 23  2  0  0  0  0
 14 24  1  0  0  0  0
 15 24  2  0  0  0  0
 15 25  1  0  0  0  0
 16 30  2  0  0  0  0
 16 31  1  0  0  0  0
 17 32  1  0  0  0  0
 18 32  1  0  0  0  0
 18 33  2  0  0  0  0
 18 38  1  0  0  0  0
 19 21  2  0  0  0  0
 19 45  1  0  0  0  0
 20 22  2  0  0  0  0
 20 46  1  0  0  0  0
 21 54  1  0  0  0  0
 22 47  1  0  0  0  0
 23 26  1  0  0  0  0
 23 67  1  0  0  0  0
 24 77  1  0  0  0  0
 25 26  2  0  0  0  0
 25 75  1  0  0  0  0
 26 76  1  0  0  0  0
 27 88  1  0  0  0  0
 28 89  1  0  0  0  0
 29 31  2  0  0  0  0
 29 88  1  0  0  0  0
 30 90  1  0  0  0  0
 31 91  1  0  0  0  0
 32 69  2  0  0  0  0
 33 70  1  0  0  0  0
 33 73  1  0  0  0  0
 34 35  2  0  0  0  0
 35 36  1  0  0  0  0
 36 37  2  0  0  0  0
 37 39  1  0  0  0  0
 38 74  1  0  0  0  0
 38 81  2  0  0  0  0
 39 75  1  0  0  0  0
 39 82  2  0  0  0  0
 40 55  1  0  0  0  0
 40 78  1  0  0  0  0
 40 83  2  0  0  0  0
 41 65  1  0  0  0  0
 41 71  1  0  0  0  0
 41 84  2  0  0  0  0
 42 63  1  0  0  0  0
 42 76  1  0  0  0  0
 42 85  2  0  0  0  0
 43 66  1  0  0  0  0
 43 79  1  0  0  0  0
 43 86  2  0  0  0  0
 44 72  1  0  0  0  0
 44 77  1  0  0  0  0
 44 87  2  0  0  0  0
 45 48  1  0  0  0  0
 46 55  1  0  0  0  0
 47 71  1  0  0  0  0
 48 50  1  0  0  0  0
 49 51  1  0  0  0  0
 49 52  1  0  0  0  0
 50 54  1  0  0  0  0
 51 56  1  0  0  0  0
 52 72  1  0  0  0  0
 53 56  1  0  0  0  0
 53 72  1  0  0  0  0
 54 78  1  0  0  0  0
 55 71  1  0  0  0  0
 56 70  1  0  0  0  0
 57 66  1  0  0  0  0
 58 67  1  0  0  0  0
 59 68  1  0  0  0  0
 60 68  1  0  0  0  0
 61 68  1  0  0  0  0
 62 80  1  0  0  0  0
 63 64  1  0  0  0  0
 64 89  1  0  0  0  0
 65 68  1  0  0  0  0
 65 79  1  0  0  0  0
 66 80  1  0  0  0  0
 67 92  1  0  0  0  0
 67 93  1  0  0  0  0
 69 70  1  0  0  0  0
M  CHG  1  80   1
M  ISO  4  44 100  64 101  77 100  89 101
M  END
> <Batch ID>
0058

> <Smiles>
C=CC=CC(=O)Nc1cc([100NH:0][100C:0](=O)N2CCCC(n3nc(-c4ccc(Oc5ccc(F)cc5F)cc4)c(C(N)=O)c3N)C2)cc(C(C)(F)F)c1NC(=O)C[101CH2:1][101O:1]c1ccc2c(c1)CN(C(=O)C(NC(=O)C(C)NC)C(C)(C)C)C(C(=O)NC1CCCc3ccccc31)C2

> <Shape>
0.370

> <Color>
0.154

> <Negative vol penalty>
0.000

$$$$

  -OEChem-04042322583D

 83 91  0     1  0  0  0  0  0999 V2000
  -17.6148  -25.7674   22.8924 C   0  0  0  0  0  0  0  0  0  0  0  0
  -18.8940  -25.2205   22.8902 C   0  0  0  0  0  0  0  0  0  0  0  0
  -23.1182  -10.2558   21.5473 C   0  0  0  0  0  0  0  0  0  0  0  0
  -23.0016  -12.3564   22.7351 C   0  0  0  0  0  0  0  0  0  0  0  0
  -17.4093  -27.0590   22.4093 C   0  0  0  0  0  0  0  0  0  0  0  0
  -19.9683  -25.9645   22.4038 C   0  0  0  0  0  0  0  0  0  0  0  0
  -25.7358  -25.8816   24.4617 C   0  0  0  0  0  0  0  0  0  0  0  0
  -31.5635  -19.4566   19.0586 C   0  0  0  0  0  0  0  0  0  0  0  0
  -29.4191  -19.7925   17.9977 C   0  0  0  0  0  0  0  0  0  0  0  0
  -31.2475  -18.1151   19.2727 C   0  0  0  0  0  0  0  0  0  0  0  0
  -29.1031  -18.4509   18.2117 C   0  0  0  0  0  0  0  0  0  0  0  0
  -22.2138   -9.6955   22.4493 C   0  0  0  0  0  0  0  0  0  0  0  0
  -22.0972  -11.7961   23.6372 C   0  0  0  0  0  0  0  0  0  0  0  0
  -26.8814  -25.2237   24.0160 C   0  0  0  0  0  0  0  0  0  0  0  0
  -18.8736   -9.7292   22.9731 C   0  0  0  0  0  0  0  0  0  0  0  0
  -17.8307   -8.9624   22.4535 C   0  0  0  0  0  0  0  0  0  0  0  0
  -27.5363  -27.2010   22.7993 C   0  0  0  0  0  0  0  0  0  0  0  0
  -18.6129   -7.0501   23.7058 C   0  0  0  0  0  0  0  0  0  0  0  0
  -23.5122  -11.5863   21.6902 C   0  0  0  0  0  0  0  0  0  0  0  0
  -24.1460  -12.8299   19.5549 C   0  0  0  0  0  0  0  0  0  0  0  0
  -18.4832  -27.8228   21.9256 C   0  0  0  0  0  0  0  0  0  0  0  0
  -25.4760  -27.2027   24.0700 C   0  0  0  0  0  0  0  0  0  0  0  0
  -19.7768  -27.2671   21.9125 C   0  0  0  0  0  0  0  0  0  0  0  0
  -26.3881  -27.8743   23.2435 C   0  0  0  0  0  0  0  0  0  0  0  0
  -30.6493  -20.2954   18.4212 C   0  0  0  0  0  0  0  0  0  0  0  0
  -30.0173  -17.6121   18.8492 C   0  0  0  0  0  0  0  0  0  0  0  0
  -21.7033  -10.4656   23.4942 C   0  0  0  0  0  0  0  0  0  0  0  0
  -27.7804  -25.8824   23.1823 C   0  0  0  0  0  0  0  0  0  0  0  0
  -19.7862   -9.1564   23.8590 C   0  0  0  0  0  0  0  0  0  0  0  0
  -17.7003   -7.6228   22.8199 C   0  0  0  0  0  0  0  0  0  0  0  0
  -19.6558   -7.8169   24.2254 C   0  0  0  0  0  0  0  0  0  0  0  0
  -24.4468  -12.1655   20.7590 C   0  0  0  0  0  0  0  0  0  0  0  0
  -25.3701  -13.1872   19.0448 C   0  0  0  0  0  0  0  0  0  0  0  0
  -29.8640  -23.8819   21.0610 C   0  0  0  0  0  0  0  0  0  0  0  0
  -28.8237  -24.5428   21.5737 C   0  0  0  0  0  0  0  0  0  1  0  0
  -22.8737  -13.1000   18.9515 C   0  0  0  0  0  0  0  0  0  0  0  0
  -29.7136  -23.1407   19.7808 C   0  0  0  0  0  0  0  0  0  0  0  0
  -23.1679  -28.6421   22.4255 C   0  0  0  0  0  0  0  0  0  0  0  0
  -24.7540  -31.3318   23.3038 C   0  0  0  0  0  0  0  0  0  0  0  0
  -27.6848  -32.7753   24.2908 C   0  0  0  0  0  0  0  0  0  0  0  0
  -30.4894  -15.2822   19.6828 C   0  0  0  0  0  0  0  0  0  0  0  0
  -18.2045  -29.1969   21.3697 C   0  0  0  0  0  0  0  0  0  0  0  0
  -24.2493  -27.9073   24.5811 C   0  0  0  0  0  0  0  0  0  0  0  0
  -26.1655  -29.2996   22.8106 C   0  0  0  0  0  0  0  0  0  0  0  0
  -19.4557  -30.0582   21.2187 C   0  0  0  0  0  0  0  0  0  0  0  0
  -30.0431  -11.8321   20.4407 C   0  0  0  0  0  0  0  0  0  0  0  0
  -20.5763  -29.2608   20.5591 C   0  0  0  0  0  0  0  0  0  0  0  0
  -28.5226  -11.6659   20.4920 C   0  0  0  0  0  0  0  0  0  0  0  0
  -30.4858  -13.1798   21.0075 C   0  0  0  0  0  0  0  0  0  0  0  0
  -28.3011  -14.1833   20.4697 C   0  0  0  0  0  0  0  0  0  0  0  0
  -20.9716  -28.0520   21.4160 C   0  0  1  0  0  0  0  0  0  0  0  0
  -23.8251  -29.0809   23.7034 C   0  0  1  0  0  0  0  0  0  0  0  0
  -27.8024  -12.8677   19.8498 C   0  0  2  0  0  0  0  0  0  0  0  0
  -28.6798  -34.9978   24.8972 C   0  0  0  0  0  0  0  0  0  0  0  0
  -24.8306  -32.1003   20.3520 C   0  0  0  0  0  0  0  0  0  0  0  0
  -26.6091  -33.7733   20.9054 C   0  0  0  0  0  0  0  0  0  0  0  0
  -24.3365  -33.9930   21.9102 C   0  0  0  0  0  0  0  0  0  0  0  0
  -28.3584  -31.8587   27.0230 C   0  0  0  0  0  0  0  0  0  0  0  0
  -30.9895  -21.7395   18.1909 C   0  0  0  0  0  0  0  0  0  0  0  0
  -25.8741  -32.1536   22.7130 C   0  0  1  0  0  0  0  0  0  0  0  0
  -28.0027  -33.7400   25.4189 C   0  0  2  0  0  0  0  0  0  0  0  0
  -25.4161  -32.9775   21.4765 C   0  0  0  0  0  0  0  0  0  0  0  0
  -25.7592  -12.1029   20.9994 N   0  0  0  0  0  0  0  0  0  0  0  0
  -26.2938  -12.7325   19.9394 N   0  0  0  0  0  0  0  0  0  0  0  0
  -24.9483  -29.9436   23.3316 N   0  0  0  0  0  0  0  0  0  0  0  0
  -29.7648  -14.2713   20.3490 N   0  0  0  0  0  0  0  0  0  0  0  0
  -25.7358  -13.8428   17.9228 N   0  0  0  0  0  0  0  0  0  0  0  0
  -21.7159  -12.6628   19.6094 N   0  0  0  0  0  0  0  0  0  0  0  0
  -29.6962  -16.2492   19.0662 N   0  0  0  0  0  0  0  0  0  0  0  0
  -30.8908  -22.5179   19.4031 N   0  0  0  0  0  0  0  0  0  0  0  0
  -21.8006  -28.4692   22.5265 N   0  0  0  0  0  0  0  0  0  0  0  0
  -26.4079  -32.9609   23.8046 N   0  0  0  0  0  0  0  0  0  0  0  0
  -28.9086  -33.0957   26.4115 N   0  3  0  0  0  0  0  0  0  0  0  0
  -22.7675  -13.6964   17.8531 O   0  0  0  0  0  0  0  0  0  0  0  0
  -28.6581  -23.1068   19.1564 O   0  0  0  0  0  0  0  0  0  0  0  0
  -23.8505  -28.4743   21.4217 O   0  0  0  0  0  0  0  0  0  0  0  0
  -23.7469  -31.9013   23.7317 O   0  0  0  0  0  0  0  0  0  0  0  0
  -28.4900  -31.9430   23.8792 O   0  0  0  0  0  0  0  0  0  0  0  0
  -31.7223  -15.2746   19.6377 O   0  0  0  0  0  0  0  0  0  0  0  0
  -20.8206   -9.9192   24.3745 O   0  0  0  0  0  0  0  0  0  0  0  0
  -28.8990  -25.2423   22.7454 O   0  0  0  0  0  0  0  0  0  1  0  0
  -16.6978   -6.8870   22.3221 F   0  0  0  0  0  0  0  0  0  0  0  0
  -20.5288   -7.2614   25.0770 F   0  0  0  0  0  0  0  0  0  0  0  0
  1  2  1  0  0  0  0
  1  5  2  0  0  0  0
  2  6  2  0  0  0  0
  3 12  2  0  0  0  0
  3 19  1  0  0  0  0
  4 13  1  0  0  0  0
  4 19  2  0  0  0  0
  5 21  1  0  0  0  0
  6 23  1  0  0  0  0
  7 14  2  0  0  0  0
  7 22  1  0  0  0  0
  8 10  2  0  0  0  0
  8 25  1  0  0  0  0
  9 11  1  0  0  0  0
  9 25  2  0  0  0  0
 10 26  1  0  0  0  0
 11 26  2  0  0  0  0
 12 27  1  0  0  0  0
 13 27  2  0  0  0  0
 14 28  1  0  0  0  0
 15 16  2  0  0  0  0
 15 29  1  0  0  0  0
 16 30  1  0  0  0  0
 17 24  1  0  0  0  0
 17 28  2  0  0  0  0
 18 30  2  0  0  0  0
 18 31  1  0  0  0  0
 19 32  1  0  0  0  0
 20 32  1  0  0  0  0
 20 33  2  0  0  0  0
 20 36  1  0  0  0  0
 21 23  2  0  0  0  0
 21 42  1  0  0  0  0
 22 24  2  0  0  0  0
 22 43  1  0  0  0  0
 23 51  1  0  0  0  0
 24 44  1  0  0  0  0
 25 59  1  0  0  0  0
 26 69  1  0  0  0  0
 27 80  1  0  0  0  0
 28 81  1  0  0  0  0
 29 31  2  0  0  0  0
 29 80  1  0  0  0  0
 30 82  1  0  0  0  0
 31 83  1  0  0  0  0
 32 63  2  0  0  0  0
 33 64  1  0  0  0  0
 33 67  1  0  0  0  0
 34 35  2  0  0  0  0
 34 37  1  0  0  0  0
 35 81  1  0  0  0  0
 36 68  1  0  0  0  0
 36 74  2  0  0  0  0
 37 70  1  0  0  0  0
 37 75  2  0  0  0  0
 38 52  1  0  0  0  0
 38 71  1  0  0  0  0
 38 76  2  0  0  0  0
 39 60  1  0  0  0  0
 39 65  1  0  0  0  0
 39 77  2  0  0  0  0
 40 61  1  0  0  0  0
 40 72  1  0  0  0  0
 40 78  2  0  0  0  0
 41 66  1  0  0  0  0
 41 69  1  0  0  0  0
 41 79  2  0  0  0  0
 42 45  1  0  0  0  0
 43 52  1  0  0  0  0
 44 65  1  0  0  0  0
 45 47  1  0  0  0  0
 46 48  1  0  0  0  0
 46 49  1  0  0  0  0
 47 51  1  0  0  0  0
 48 53  1  0  0  0  0
 49 66  1  0  0  0  0
 50 53  1  0  0  0  0
 50 66  1  0  0  0  0
 51 71  1  0  0  0  0
 52 65  1  0  0  0  0
 53 64  1  0  0  0  0
 54 61  1  0  0  0  0
 55 62  1  0  0  0  0
 56 62  1  0  0  0  0
 57 62  1  0  0  0  0
 58 73  1  0  0  0  0
 59 70  1  0  0  0  0
 60 62  1  0  0  0  0
 60 72  1  0  0  0  0
 61 73  1  0  0  0  0
 63 64  1  0  0  0  0
M  CHG  1  73   1
M  ISO  4  35 101  41 100  69 100  81 101
M  END
> <Batch ID>
0058

> <Smiles>
CNC(C)C(=O)NC(C(=O)N1Cc2cc([101O:1][101CH:1]=CC(=O)NCc3ccc([100NH:0][100C:0](=O)N4CCCC(n5nc(-c6ccc(Oc7ccc(F)cc7F)cc6)c(C(N)=O)c5N)C4)cc3)ccc2CC1C(=O)NC1CCCc2ccccc21)C(C)(C)C

> <Shape>
0.253

> <Color>
0.098

> <Negative vol penalty>
0.000

$$$$

  -OEChem-04042322583D

 87 95  0     1  0  0  0  0  0999 V2000
  -30.5373  -18.3825   17.2067 C   0  0  0  0  0  0  0  0  0  0  0  0
  -30.5385  -17.4736   18.2588 C   0  0  0  0  0  0  0  0  0  0  0  0
  -24.0021  -28.6818   19.4413 C   0  0  0  0  0  0  0  0  0  0  0  0
  -24.1807  -28.0510   21.7667 C   0  0  0  0  0  0  0  0  0  0  0  0
  -29.3431  -18.6909   16.5585 C   0  0  0  0  0  0  0  0  0  0  0  0
  -29.3478  -16.8638   18.6552 C   0  0  0  0  0  0  0  0  0  0  0  0
  -29.6770  -13.3051   22.0362 C   0  0  0  0  0  0  0  0  0  0  0  0
  -22.6947  -29.1161   19.6595 C   0  0  0  0  0  0  0  0  0  0  0  0
  -22.8732  -28.4854   21.9849 C   0  0  0  0  0  0  0  0  0  0  0  0
  -29.9674  -13.5623   23.3753 C   0  0  0  0  0  0  0  0  0  0  0  0
  -19.7417  -27.3298   21.4474 C   0  0  0  0  0  0  0  0  0  0  0  0
  -18.9009  -26.5048   22.1943 C   0  0  0  0  0  0  0  0  0  0  0  0
  -27.6439  -13.2355   23.9355 C   0  0  0  0  0  0  0  0  0  0  0  0
  -28.4019  -19.5981   22.4855 C   0  0  0  0  0  0  0  0  0  0  0  0
  -28.2631  -21.4076   24.0803 C   0  0  0  0  0  0  0  0  0  0  0  0
  -18.6169  -28.2676   23.8218 C   0  0  0  0  0  0  0  0  0  0  0  0
  -24.7451  -28.1492   20.4949 C   0  0  0  0  0  0  0  0  0  0  0  0
  -28.0845  -19.1185   24.8320 C   0  0  0  0  0  0  0  0  0  0  0  0
  -27.2748  -28.4599   20.3859 C   0  0  0  0  0  0  0  0  0  0  0  0
  -28.1356  -18.0935   16.9560 C   0  0  0  0  0  0  0  0  0  0  0  0
  -28.3638  -13.0215   21.6343 C   0  0  0  0  0  0  0  0  0  0  0  0
  -28.1361  -17.1438   17.9979 C   0  0  0  0  0  0  0  0  0  0  0  0
  -27.3400  -12.9726   22.5910 C   0  0  0  0  0  0  0  0  0  0  0  0
  -28.2366  -18.6752   23.5182 C   0  0  0  0  0  0  0  0  0  0  0  0
  -28.4152  -20.9643   22.7666 C   0  0  0  0  0  0  0  0  0  0  0  0
  -22.1303  -29.0179   20.9313 C   0  0  0  0  0  0  0  0  0  0  0  0
  -28.9502  -13.5304   24.3248 C   0  0  0  0  0  0  0  0  0  0  0  0
  -20.0202  -28.6237   21.8877 C   0  0  0  0  0  0  0  0  0  0  0  0
  -18.3385  -26.9737   23.3815 C   0  0  0  0  0  0  0  0  0  0  0  0
  -28.0977  -20.4847   25.1131 C   0  0  0  0  0  0  0  0  0  0  0  0
  -19.4578  -29.0927   23.0749 C   0  0  0  0  0  0  0  0  0  0  0  0
  -26.0955  -27.6998   20.2701 C   0  0  0  0  0  0  0  0  0  0  0  0
  -28.2821  -27.5809   20.0710 C   0  0  0  0  0  0  0  0  0  0  0  0
  -27.9083  -18.1561   25.9380 C   0  0  0  0  0  0  0  0  0  0  0  0
  -27.4444  -29.8373   20.7460 C   0  0  0  0  0  0  0  0  0  0  0  0
  -26.2648  -14.4053   19.6894 C   0  0  0  0  0  0  0  0  0  0  0  0
  -24.5149  -11.7483   20.3221 C   0  0  0  0  0  0  0  0  0  0  0  0
  -23.8517   -9.1509   22.4341 C   0  0  0  0  0  0  0  0  0  0  0  0
  -28.7464  -21.6306   20.3598 C   0  0  0  0  0  0  0  0  0  0  0  0
  -26.8735  -18.4576   16.2146 C   0  0  0  0  0  0  0  0  0  0  0  0
  -28.0718  -12.7200   20.1899 C   0  0  0  0  0  0  0  0  0  0  0  0
  -25.9172  -12.6530   22.2143 C   0  0  0  0  0  0  0  0  0  0  0  0
  -25.6070  -18.1037   16.9872 C   0  0  0  0  0  0  0  0  0  0  0  0
  -29.1513  -23.6600   17.4624 C   0  0  0  0  0  0  0  0  0  0  0  0
  -25.6846  -16.6674   17.4826 C   0  0  0  0  0  0  0  0  0  0  0  0
  -28.5264  -24.9973   17.8662 C   0  0  0  0  0  0  0  0  0  0  0  0
  -28.3863  -22.4758   18.0509 C   0  0  0  0  0  0  0  0  0  0  0  0
  -27.5575  -23.8662   19.9080 C   0  0  0  0  0  0  0  0  0  0  0  0
  -26.8482  -16.4912   18.4664 C   0  0  1  0  0  0  0  0  0  0  0  0
  -26.6106  -12.9485   19.8155 C   0  0  1  0  0  0  0  0  0  0  0  0
  -28.3316  -25.0904   19.3923 C   0  0  2  0  0  0  0  0  0  0  0  0
  -28.2262  -17.2175   23.1921 C   0  0  0  0  0  0  0  0  0  0  0  0
  -22.3410   -7.1649   22.7004 C   0  0  0  0  0  0  0  0  0  0  0  0
  -22.2286  -13.5992   21.1327 C   0  0  0  0  0  0  0  0  0  0  0  0
  -21.1396  -11.6463   22.2591 C   0  0  0  0  0  0  0  0  0  0  0  0
  -21.5315  -11.6038   19.7959 C   0  0  0  0  0  0  0  0  0  0  0  0
  -31.2920  -16.3529   27.5041 C   0  0  0  0  0  0  0  0  0  0  0  0
  -30.0442  -14.3704   28.3812 C   0  0  0  0  0  0  0  0  0  0  0  0
  -26.1339   -7.2666   22.4184 C   0  0  0  0  0  0  0  0  0  0  0  0
  -28.8157  -16.2543   27.2250 C   0  0  0  0  0  0  0  0  0  0  0  0
  -30.3162  -14.6669   25.9054 C   0  0  0  0  0  0  0  0  0  1  0  0
  -23.4968  -11.3626   21.3679 C   0  0  1  0  0  0  0  0  0  0  0  0
  -23.6796   -7.6642   22.1794 C   0  0  2  0  0  0  0  0  0  0  0  0
  -22.1255  -12.0609   21.1460 C   0  0  0  0  0  0  0  0  0  0  0  0
  -30.1038  -15.4060   27.2443 C   0  0  0  0  0  0  0  0  0  0  0  0
  -26.3304  -26.4353   19.9096 N   0  0  0  0  0  0  0  0  0  0  0  0
  -27.6689  -26.3941   19.7961 N   0  0  0  0  0  0  0  0  0  0  0  0
  -25.6809  -12.3716   20.7886 N   0  0  0  0  0  0  0  0  0  0  0  0
  -28.2441  -22.6305   19.5002 N   0  0  0  0  0  0  0  0  0  0  0  0
  -29.6238  -27.7152   20.0051 N   0  0  0  0  0  0  0  0  0  0  0  0
  -26.7911  -18.2285   26.6616 N   0  0  0  0  0  0  0  0  0  0  0  0
  -26.3035  -30.5968   21.0388 N   0  0  0  0  0  0  0  0  0  0  0  0
  -28.5828  -21.9022   21.7177 N   0  0  0  0  0  0  0  0  0  0  0  0
  -27.0178  -15.0830   18.7497 N   0  0  0  0  0  0  0  0  0  0  0  0
  -23.4336   -9.9051   21.3582 N   0  0  0  0  0  0  0  0  0  0  0  0
  -28.8774  -17.2609   26.1617 N   0  3  0  0  0  0  0  0  0  0  0  0
  -24.7631   -6.8944   22.8535 N   0  3  0  0  0  0  0  0  0  0  0  0
  -28.5731  -30.3829   20.7903 O   0  0  0  0  0  0  0  0  0  0  0  0
  -25.3792  -14.8790   20.3916 O   0  0  0  0  0  0  0  0  0  0  0  0
  -24.2872  -11.4990   19.1356 O   0  0  0  0  0  0  0  0  0  0  0  0
  -24.3077   -9.5984   23.4840 O   0  0  0  0  0  0  0  0  0  0  0  0
  -29.3065  -20.6215   19.9239 O   0  0  0  0  0  0  0  0  0  0  0  0
  -20.8546  -29.4419   21.1446 O   0  0  0  0  0  0  0  0  0  0  0  0
  -29.2307  -13.7816   25.6325 O   0  0  0  0  0  0  0  0  0  1  0  0
  -17.5298  -26.1818   24.0978 F   0  0  0  0  0  0  0  0  0  0  0  0
  -27.9522  -20.9212   26.3722 F   0  0  0  0  0  0  0  0  0  0  0  0
  -19.7208  -30.3352   23.5024 F   0  0  0  0  0  0  0  0  0  0  0  0
  1  2  1  0  0  0  0
  1  5  2  0  0  0  0
  2  6  2  0  0  0  0
  3  8  2  0  0  0  0
  3 17  1  0  0  0  0
  4  9  1  0  0  0  0
  4 17  2  0  0  0  0
  5 20  1  0  0  0  0
  6 22  1  0  0  0  0
  7 10  2  0  0  0  0
  7 21  1  0  0  0  0
  8 26  1  0  0  0  0
  9 26  2  0  0  0  0
 10 27  1  0  0  0  0
 11 12  2  0  0  0  0
 11 28  1  0  0  0  0
 12 29  1  0  0  0  0
 13 23  1  0  0  0  0
 13 27  2  0  0  0  0
 14 24  2  0  0  0  0
 14 25  1  0  0  0  0
 15 25  2  0  0  0  0
 15 30  1  0  0  0  0
 16 29  2  0  0  0  0
 16 31  1  0  0  0  0
 17 32  1  0  0  0  0
 18 24  1  0  0  0  0
 18 30  2  0  0  0  0
 18 34  1  0  0  0  0
 19 32  1  0  0  0  0
 19 33  2  0  0  0  0
 19 35  1  0  0  0  0
 20 22  2  0  0  0  0
 20 40  1  0  0  0  0
 21 23  2  0  0  0  0
 21 41  1  0  0  0  0
 22 49  1  0  0  0  0
 23 42  1  0  0  0  0
 24 52  1  0  0  0  0
 25 73  1  0  0  0  0
 26 83  1  0  0  0  0
 27 84  1  0  0  0  0
 28 31  2  0  0  0  0
 28 83  1  0  0  0  0
 29 85  1  0  0  0  0
 30 86  1  0  0  0  0
 31 87  1  0  0  0  0
 32 66  2  0  0  0  0
 33 67  1  0  0  0  0
 33 70  1  0  0  0  0
 34 71  1  0  0  0  0
 34 76  2  0  0  0  0
 35 72  1  0  0  0  0
 35 78  2  0  0  0  0
 36 50  1  0  0  0  0
 36 74  1  0  0  0  0
 36 79  2  0  0  0  0
 37 62  1  0  0  0  0
 37 68  1  0  0  0  0
 37 80  2  0  0  0  0
 38 63  1  0  0  0  0
 38 75  1  0  0  0  0
 38 81  2  0  0  0  0
 39 69  1  0  0  0  0
 39 73  1  0  0  0  0
 39 82  2  0  0  0  0
 40 43  1  0  0  0  0
 41 50  1  0  0  0  0
 42 68  1  0  0  0  0
 43 45  1  0  0  0  0
 44 46  1  0  0  0  0
 44 47  1  0  0  0  0
 45 49  1  0  0  0  0
 46 51  1  0  0  0  0
 47 69  1  0  0  0  0
 48 51  1  0  0  0  0
 48 69  1  0  0  0  0
 49 74  1  0  0  0  0
 50 68  1  0  0  0  0
 51 67  1  0  0  0  0
 53 63  1  0  0  0  0
 54 64  1  0  0  0  0
 55 64  1  0  0  0  0
 56 64  1  0  0  0  0
 57 65  1  0  0  0  0
 58 65  1  0  0  0  0
 59 77  1  0  0  0  0
 60 65  1  0  0  0  0
 60 76  1  0  0  0  0
 61 65  1  0  0  0  0
 61 84  1  0  0  0  0
 62 64  1  0  0  0  0
 62 75  1  0  0  0  0
 63 77  1  0  0  0  0
 66 67  1  0  0  0  0
M  CHG  2  76   1  77   1
M  ISO  4  39 100  61 101  73 100  84 101
M  END
> <Batch ID>
0058

> <Smiles>
CNC(C)C(=O)NC(C(=O)N1Cc2cc([101O:1][101CH2:1]C(C)(C)CNC(=N)c3c(C)cc([100NH:0][100C:0](=O)N4CCCC(n5nc(-c6ccc(Oc7ccc(F)cc7F)cc6)c(C(N)=O)c5N)C4)cc3F)ccc2CC1C(=O)NC1CCCc2ccccc21)C(C)(C)C

> <Shape>
0.274

> <Color>
0.057

> <Negative vol penalty>
0.000

$$$$

  -OEChem-04042322583D

 85 93  0     1  0  0  0  0  0999 V2000
  -27.2256  -23.0484   18.2161 C   0  0  0  0  0  0  0  0  0  0  0  0
  -26.0885  -23.4877   18.8865 C   0  0  0  0  0  0  0  0  0  0  0  0
  -27.9291  -14.8532   21.3788 C   0  0  0  0  0  0  0  0  0  0  0  0
  -26.0887  -15.5465   19.9755 C   0  0  0  0  0  0  0  0  0  0  0  0
  -28.4800  -23.5359   18.5801 C   0  0  0  0  0  0  0  0  0  0  0  0
  -26.2054  -24.4141   19.9221 C   0  0  0  0  0  0  0  0  0  0  0  0
  -22.7476  -28.1023   19.6290 C   0  0  0  0  0  0  0  0  0  0  0  0
  -20.6852  -22.8316   21.2165 C   0  0  0  0  0  0  0  0  0  0  0  0
  -20.6219  -23.6157   23.5009 C   0  0  0  0  0  0  0  0  0  0  0  0
  -22.0143  -22.4440   21.3864 C   0  0  0  0  0  0  0  0  0  0  0  0
  -21.9510  -23.2280   23.6708 C   0  0  0  0  0  0  0  0  0  0  0  0
  -27.5278  -13.5238   21.2485 C   0  0  0  0  0  0  0  0  0  0  0  0
  -25.6873  -14.2170   19.8451 C   0  0  0  0  0  0  0  0  0  0  0  0
  -21.4554  -27.7990   20.0558 C   0  0  0  0  0  0  0  0  0  0  0  0
  -24.0101  -11.9292   21.6846 C   0  0  0  0  0  0  0  0  0  0  0  0
  -22.6516  -11.6456   21.8247 C   0  0  0  0  0  0  0  0  0  0  0  0
  -21.9011  -28.8901   22.1606 C   0  0  0  0  0  0  0  0  0  0  0  0
  -22.6052  -10.7576   19.5783 C   0  0  0  0  0  0  0  0  0  0  0  0
  -27.2095  -15.8646   20.7423 C   0  0  0  0  0  0  0  0  0  0  0  0
  -28.5190  -17.9413   20.0493 C   0  0  0  0  0  0  0  0  0  0  0  0
  -28.6114  -24.4761   19.6143 C   0  0  0  0  0  0  0  0  0  0  0  0
  -23.6313  -28.7933   20.4704 C   0  0  0  0  0  0  0  0  0  0  0  0
  -27.4629  -24.9137   20.3012 C   0  0  0  0  0  0  0  0  0  0  0  0
  -23.2031  -29.2031   21.7411 C   0  0  0  0  0  0  0  0  0  0  0  0
  -19.9890  -23.4176   22.2738 C   0  0  0  0  0  0  0  0  0  0  0  0
  -22.6472  -22.6421   22.6135 C   0  0  0  0  0  0  0  0  0  0  0  0
  -26.4069  -13.2056   20.4816 C   0  0  0  0  0  0  0  0  0  0  0  0
  -21.0330  -28.1904   21.3228 C   0  0  0  0  0  0  0  0  0  0  0  0
  -24.6662  -11.6270   20.4913 C   0  0  0  0  0  0  0  0  0  0  0  0
  -21.9491  -11.0598   20.7716 C   0  0  0  0  0  0  0  0  0  0  0  0
  -23.9637  -11.0412   19.4382 C   0  0  0  0  0  0  0  0  0  0  0  0
  -27.6233  -17.2382   20.8770 C   0  0  0  0  0  0  0  0  0  0  0  0
  -28.5754  -19.2002   20.5957 C   0  0  0  0  0  0  0  0  0  0  0  0
  -29.2358  -17.4963   18.8901 C   0  0  0  0  0  0  0  0  0  0  0  0
  -26.4393  -28.1303   21.8041 C   0  0  0  0  0  0  0  0  0  0  0  0
  -17.6034  -28.2033   21.2808 C   0  0  0  0  0  0  0  0  0  0  0  0
  -26.2872  -31.2321   22.7412 C   0  0  0  0  0  0  0  0  0  0  0  0
  -17.1463  -25.8837   22.2116 C   0  0  0  0  0  0  0  0  0  0  0  0
  -24.3539  -33.9574   23.4352 C   0  0  0  0  0  0  0  0  0  0  0  0
  -24.7728  -22.3735   23.9386 C   0  0  0  0  0  0  0  0  0  0  0  0
  -29.9931  -24.9387   20.0036 C   0  0  0  0  0  0  0  0  0  0  0  0
  -25.0130  -29.1362   19.9849 C   0  0  0  0  0  0  0  0  0  0  0  0
  -24.1065  -29.9650   22.6749 C   0  0  0  0  0  0  0  0  0  0  0  0
  -29.9934  -26.2007   20.8624 C   0  0  0  0  0  0  0  0  0  0  0  0
  -28.1193  -21.4919   24.7759 C   0  0  0  0  0  0  0  0  0  0  0  0
  -28.9631  -26.0854   21.9812 C   0  0  0  0  0  0  0  0  0  0  0  0
  -28.4555  -20.3692   23.7917 C   0  0  0  0  0  0  0  0  0  0  0  0
  -26.6652  -21.4235   25.2391 C   0  0  0  0  0  0  0  0  0  0  0  0
  -26.0075  -20.2503   23.1751 C   0  0  0  0  0  0  0  0  0  0  0  0
  -27.5464  -25.9365   21.4134 C   0  0  1  0  0  0  0  0  0  0  0  0
  -25.9986  -29.3937   21.1205 C   0  0  1  0  0  0  0  0  0  0  0  0
  -27.4436  -20.3161   22.6303 C   0  0  2  0  0  0  0  0  0  0  0  0
  -16.4593  -28.7876   20.4919 C   0  0  0  0  0  0  0  0  0  0  0  0
  -24.5115  -36.3374   24.2151 C   0  0  0  0  0  0  0  0  0  0  0  0
  -26.7625  -30.2629   25.5951 C   0  0  0  0  0  0  0  0  0  0  0  0
  -25.9738  -32.4949   26.4102 C   0  0  0  0  0  0  0  0  0  0  0  0
  -28.0101  -32.3405   24.9775 C   0  0  0  0  0  0  0  0  0  0  0  0
  -23.1635  -34.9804   20.9261 C   0  0  0  0  0  0  0  0  0  0  0  0
  -18.5584  -23.8348   22.0908 C   0  0  0  0  0  0  0  0  0  0  0  0
  -17.2538  -27.3669   22.4957 C   0  0  0  0  0  0  0  0  0  0  0  0
  -25.7348  -31.9600   23.9429 C   0  0  1  0  0  0  0  0  0  0  0  0
  -24.4711  -35.4101   23.0105 C   0  0  2  0  0  0  0  0  0  0  0  0
  -26.6037  -31.7485   25.2148 C   0  0  0  0  0  0  0  0  0  0  0  0
  -27.1453  -17.9881   21.8736 N   0  0  0  0  0  0  0  0  0  0  0  0
  -18.8131  -28.4750   20.8952 N   0  0  0  0  0  0  0  0  0  1  0  0
  -27.7428  -19.1754   21.6757 N   0  0  0  0  0  0  0  0  0  0  0  0
  -25.4502  -30.2709   22.1569 N   0  0  0  0  0  0  0  0  0  0  0  0
  -25.7642  -21.3803   24.0854 N   0  0  0  0  0  0  0  0  0  0  0  0
  -29.2556  -20.3147   20.2530 N   0  0  0  0  0  0  0  0  0  0  0  0
  -29.0624  -16.1722   18.4647 N   0  0  0  0  0  0  0  0  0  0  0  0
  -23.9972  -22.2482   22.7865 N   0  0  0  0  0  0  0  0  0  0  0  0
  -27.0455  -27.2172   20.9625 N   0  0  0  0  0  0  0  0  0  0  0  0
  -18.3746  -25.2500   22.3181 N   0  0  0  0  0  0  0  0  0  0  0  0
  -25.5898  -33.3557   23.5436 N   0  0  0  0  0  0  0  0  0  0  0  0
  -23.3104  -35.7961   22.1590 N   0  3  0  0  0  0  0  0  0  0  0  0
  -30.0200  -18.2458   18.2600 O   0  0  0  0  0  0  0  0  0  0  0  0
  -26.2452  -27.9946   23.0065 O   0  0  0  0  0  0  0  0  0  0  0  0
  -27.4167  -31.5112   22.3316 O   0  0  0  0  0  0  0  0  0  0  0  0
  -16.0857  -25.3380   21.9185 O   0  0  0  0  0  0  0  0  0  0  0  0
  -23.2742  -33.4122   23.6531 O   0  0  0  0  0  0  0  0  0  0  0  0
  -24.6408  -23.2850   24.7595 O   0  0  0  0  0  0  0  0  0  0  0  0
  -26.0151  -11.9084   20.3540 O   0  0  0  0  0  0  0  0  0  0  0  0
  -19.7725  -27.8951   21.7422 O   0  0  0  0  0  0  0  0  0  1  0  0
  -20.6449  -10.7861   20.9069 F   0  0  0  0  0  0  0  0  0  0  0  0
  -24.5889  -10.7475   18.2898 F   0  0  0  0  0  0  0  0  0  0  0  0
  1  2  1  0  0  0  0
  1  5  2  0  0  0  0
  2  6  2  0  0  0  0
  3 12  2  0  0  0  0
  3 19  1  0  0  0  0
  4 13  1  0  0  0  0
  4 19  2  0  0  0  0
  5 21  1  0  0  0  0
  6 23  1  0  0  0  0
  7 14  2  0  0  0  0
  7 22  1  0  0  0  0
  8 10  2  0  0  0  0
  8 25  1  0  0  0  0
  9 11  1  0  0  0  0
  9 25  2  0  0  0  0
 10 26  1  0  0  0  0
 11 26  2  0  0  0  0
 12 27  1  0  0  0  0
 13 27  2  0  0  0  0
 14 28  1  0  0  0  0
 15 16  2  0  0  0  0
 15 29  1  0  0  0  0
 16 30  1  0  0  0  0
 17 24  1  0  0  0  0
 17 28  2  0  0  0  0
 18 30  2  0  0  0  0
 18 31  1  0  0  0  0
 19 32  1  0  0  0  0
 20 32  1  0  0  0  0
 20 33  2  0  0  0  0
 20 34  1  0  0  0  0
 21 23  2  0  0  0  0
 21 41  1  0  0  0  0
 22 24  2  0  0  0  0
 22 42  1  0  0  0  0
 23 50  1  0  0  0  0
 24 43  1  0  0  0  0
 25 59  1  0  0  0  0
 26 71  1  0  0  0  0
 27 82  1  0  0  0  0
 28 83  1  0  0  0  0
 29 31  2  0  0  0  0
 29 82  1  0  0  0  0
 30 84  1  0  0  0  0
 31 85  1  0  0  0  0
 32 64  2  0  0  0  0
 33 66  1  0  0  0  0
 33 69  1  0  0  0  0
 34 70  1  0  0  0  0
 34 76  2  0  0  0  0
 35 51  1  0  0  0  0
 35 72  1  0  0  0  0
 35 77  2  0  0  0  0
 36 53  1  0  0  0  0
 36 60  1  0  0  0  0
 36 65  2  0  0  0  0
 37 61  1  0  0  0  0
 37 67  1  0  0  0  0
 37 78  2  0  0  0  0
 38 60  1  0  0  0  0
 38 73  1  0  0  0  0
 38 79  2  0  0  0  0
 39 62  1  0  0  0  0
 39 74  1  0  0  0  0
 39 80  2  0  0  0  0
 40 68  1  0  0  0  0
 40 71  1  0  0  0  0
 40 81  2  0  0  0  0
 41 44  1  0  0  0  0
 42 51  1  0  0  0  0
 43 67  1  0  0  0  0
 44 46  1  0  0  0  0
 45 47  1  0  0  0  0
 45 48  1  0  0  0  0
 46 50  1  0  0  0  0
 47 52  1  0  0  0  0
 48 68  1  0  0  0  0
 49 52  1  0  0  0  0
 49 68  1  0  0  0  0
 50 72  1  0  0  0  0
 51 67  1  0  0  0  0
 52 66  1  0  0  0  0
 54 62  1  0  0  0  0
 55 63  1  0  0  0  0
 56 63  1  0  0  0  0
 57 63  1  0  0  0  0
 58 75  1  0  0  0  0
 59 73  1  0  0  0  0
 61 63  1  0  0  0  0
 61 74  1  0  0  0  0
 62 75  1  0  0  0  0
 64 66  1  0  0  0  0
 65 83  1  0  0  0  0
M  CHG  1  75   1
M  ISO  4  40 100  65 101  71 100  83 101
M  END
> <Batch ID>
0058

> <Smiles>
CNC(C)C(=O)NC(C(=O)N1Cc2cc([101O:1][101N:1]=C(C)CC(=O)NCc3ccc([100NH:0][100C:0](=O)N4CCCC(n5nc(-c6ccc(Oc7ccc(F)cc7F)cc6)c(C(N)=O)c5N)C4)cc3)ccc2CC1C(=O)NC1CCCc2ccccc21)C(C)(C)C

> <Shape>
0.279

> <Color>
0.075

> <Negative vol penalty>
0.000

$$$$

  -OEChem-04042322583D

 86 94  0     1  0  0  0  0  0999 V2000
  -27.5556  -16.7257   14.0233 C   0  0  0  0  0  0  0  0  0  0  0  0
  -28.1576  -16.2430   15.1809 C   0  0  0  0  0  0  0  0  0  0  0  0
  -31.7317  -17.7738   25.0160 C   0  0  0  0  0  0  0  0  0  0  0  0
  -28.0038  -26.3549   17.9198 C   0  0  0  0  0  0  0  0  0  0  0  0
  -27.3720  -25.8381   20.1938 C   0  0  0  0  0  0  0  0  0  0  0  0
  -31.9728  -16.4055   24.8919 C   0  0  0  0  0  0  0  0  0  0  0  0
  -26.2553  -17.2264   14.0719 C   0  0  0  0  0  0  0  0  0  0  0  0
  -27.4600  -16.2619   16.3881 C   0  0  0  0  0  0  0  0  0  0  0  0
  -27.9226  -11.9284   18.9672 C   0  0  0  0  0  0  0  0  0  0  0  0
  -31.2814  -18.5051   23.9168 C   0  0  0  0  0  0  0  0  0  0  0  0
  -26.9419  -27.2548   17.8292 C   0  0  0  0  0  0  0  0  0  0  0  0
  -26.3101  -26.7380   20.1032 C   0  0  0  0  0  0  0  0  0  0  0  0
  -29.1121  -11.7273   19.6660 C   0  0  0  0  0  0  0  0  0  0  0  0
  -25.8618  -30.0837   20.2655 C   0  0  0  0  0  0  0  0  0  0  0  0
  -25.6601  -30.9555   21.3354 C   0  0  0  0  0  0  0  0  0  0  0  0
  -31.3136  -16.4999   22.5695 C   0  0  0  0  0  0  0  0  0  0  0  0
  -28.0177  -12.3958   21.7092 C   0  0  0  0  0  0  0  0  0  0  0  0
  -23.4486  -30.0400   21.6645 C   0  0  0  0  0  0  0  0  0  0  0  0
  -28.2188  -25.6465   19.1021 C   0  0  0  0  0  0  0  0  0  0  0  0
  -31.7638  -15.7686   23.6687 C   0  0  0  0  0  0  0  0  0  0  0  0
  -30.6283  -24.9905   19.6234 C   0  0  0  0  0  0  0  0  0  0  0  0
  -25.5379  -17.2425   15.2784 C   0  0  0  0  0  0  0  0  0  0  0  0
  -26.7727  -12.3760   19.6333 C   0  0  0  0  0  0  0  0  0  0  0  0
  -26.1493  -16.7646   16.4531 C   0  0  0  0  0  0  0  0  0  0  0  0
  -26.8142  -12.5994   21.0169 C   0  0  0  0  0  0  0  0  0  0  0  0
  -31.0724  -17.8682   22.6936 C   0  0  0  0  0  0  0  0  0  0  0  0
  -26.0951  -27.4464   18.9209 C   0  0  0  0  0  0  0  0  0  0  0  0
  -29.1606  -11.9638   21.0367 C   0  0  0  0  0  0  0  0  0  0  0  0
  -24.8568  -29.1900   19.8950 C   0  0  0  0  0  0  0  0  0  0  0  0
  -24.4535  -30.9337   22.0349 C   0  0  0  0  0  0  0  0  0  0  0  0
  -23.6503  -29.1682   20.5945 C   0  0  0  0  0  0  0  0  0  0  0  0
  -29.3152  -24.7164   19.1961 C   0  0  0  0  0  0  0  0  0  0  0  0
  -31.2784  -23.7842   19.5308 C   0  0  0  0  0  0  0  0  0  0  0  0
  -32.0210  -14.3112   23.5381 C   0  0  0  0  0  0  0  0  0  0  0  0
  -31.2084  -26.2252   20.0647 C   0  0  0  0  0  0  0  0  0  0  0  0
  -24.9241  -14.9539   19.4320 C   0  0  0  0  0  0  0  0  0  0  0  0
  -23.1028  -13.3365   21.5741 C   0  0  0  0  0  0  0  0  0  0  0  0
  -22.9239  -10.9506   24.0077 C   0  0  0  0  0  0  0  0  0  0  0  0
  -30.3568  -18.1335   20.2928 C   0  0  0  0  0  0  0  0  0  0  0  0
  -24.1519  -17.8371   15.2909 C   0  0  0  0  0  0  0  0  0  0  0  0
  -25.4903  -12.5624   18.8697 C   0  0  0  0  0  0  0  0  0  0  0  0
  -25.6020  -13.0612   21.7824 C   0  0  0  0  0  0  0  0  0  0  0  0
  -23.3454  -17.4761   16.5357 C   0  0  0  0  0  0  0  0  0  0  0  0
  -30.4871  -19.5811   17.0425 C   0  0  0  0  0  0  0  0  0  0  0  0
  -24.1895  -17.6656   17.7921 C   0  0  0  0  0  0  0  0  0  0  0  0
  -30.3268  -21.0800   17.3065 C   0  0  0  0  0  0  0  0  0  0  0  0
  -29.6353  -18.7433   17.9944 C   0  0  0  0  0  0  0  0  0  0  0  0
  -29.6667  -20.5354   19.6845 C   0  0  0  0  0  0  0  0  0  0  0  0
  -25.4160  -16.7454   17.7768 C   0  0  1  0  0  0  0  0  0  0  0  0
  -24.5169  -13.5133   19.5596 C   0  0  1  0  0  0  0  0  0  0  0  0
  -30.5553  -21.4180   18.7928 C   0  0  2  0  0  0  0  0  0  0  0  0
  -21.3082   -9.8796   25.6014 C   0  0  0  0  0  0  0  0  0  0  0  0
  -23.2274  -15.8087   23.3581 C   0  0  0  0  0  0  0  0  0  0  0  0
  -22.4468  -14.3865   25.2649 C   0  0  0  0  0  0  0  0  0  0  0  0
  -20.9874  -14.7004   23.2663 C   0  0  0  0  0  0  0  0  0  0  0  0
  -34.3523  -10.7312   21.3324 C   0  0  0  0  0  0  0  0  0  0  0  0
  -34.3124  -12.9072   20.1259 C   0  0  0  0  0  0  0  0  0  0  0  0
  -35.1179  -12.8156   22.4911 C   0  0  0  0  0  0  0  0  0  0  0  0
  -23.3174   -8.2801   22.7941 C   0  0  0  0  0  0  0  0  0  0  0  0
  -31.5386  -11.9719   21.0061 C   0  0  0  0  0  0  0  0  0  1  0  0
  -23.0485  -13.2481   23.0802 C   0  0  1  0  0  0  0  0  0  0  0  0
  -21.9520   -9.8049   24.2256 C   0  0  2  0  0  0  0  0  0  0  0  0
  -32.6137  -12.4765   21.9765 C   0  0  1  0  0  0  0  0  0  0  0  0
  -22.4511  -14.5291   23.7279 C   0  0  0  0  0  0  0  0  0  0  0  0
  -34.0861  -12.2437   21.5008 C   0  0  0  0  0  0  0  0  0  0  0  0
  -29.1400  -23.4365   18.8570 N   0  0  0  0  0  0  0  0  0  0  0  0
  -30.3514  -22.8955   19.0711 N   0  0  0  0  0  0  0  0  0  0  0  0
  -24.3734  -13.2352   20.9901 N   0  0  0  0  0  0  0  0  0  0  0  0
  -29.9083  -19.1154   19.3843 N   0  0  0  0  0  0  0  0  0  0  0  0
  -32.5468  -23.4075   19.7984 N   0  0  0  0  0  0  0  0  0  0  0  0
  -30.3992  -27.3690   20.0991 N   0  0  0  0  0  0  0  0  0  0  0  0
  -30.6148  -18.6112   21.5772 N   0  0  0  0  0  0  0  0  0  0  0  0
  -32.3571  -13.8752   22.2703 N   0  0  0  0  0  0  0  0  0  0  0  0
  -25.0376  -15.3930   18.1267 N   0  0  0  0  0  0  0  0  0  0  0  0
  -22.3174  -12.0245   23.3912 N   0  0  0  0  0  0  0  0  0  0  0  0
  -22.6574   -8.4976   24.1072 N   0  3  0  0  0  0  0  0  0  0  0  0
  -31.9052  -13.5906   24.5259 O   0  0  0  0  0  0  0  0  0  0  0  0
  -32.4131  -26.3150   20.4026 O   0  0  0  0  0  0  0  0  0  0  0  0
  -25.1194  -15.6184   20.4429 O   0  0  0  0  0  0  0  0  0  0  0  0
  -22.0555  -13.4826   20.9388 O   0  0  0  0  0  0  0  0  0  0  0  0
  -24.1022  -10.8994   24.3533 O   0  0  0  0  0  0  0  0  0  0  0  0
  -30.5274  -16.9610   19.9491 O   0  0  0  0  0  0  0  0  0  0  0  0
  -25.0589  -28.3245   18.8330 O   0  0  0  0  0  0  0  0  0  0  0  0
  -30.3205  -11.7689   21.7212 O   0  0  0  0  0  0  0  0  0  1  0  0
  -24.2606  -31.7699   23.0634 F   0  0  0  0  0  0  0  0  0  0  0  0
  -22.6816  -28.3111   20.2440 F   0  0  0  0  0  0  0  0  0  0  0  0
  1  2  1  0  0  0  0
  1  7  2  0  0  0  0
  2  8  2  0  0  0  0
  3  6  2  0  0  0  0
  3 10  1  0  0  0  0
  4 11  2  0  0  0  0
  4 19  1  0  0  0  0
  5 12  1  0  0  0  0
  5 19  2  0  0  0  0
  6 20  1  0  0  0  0
  7 22  1  0  0  0  0
  8 24  1  0  0  0  0
  9 13  2  0  0  0  0
  9 23  1  0  0  0  0
 10 26  2  0  0  0  0
 11 27  1  0  0  0  0
 12 27  2  0  0  0  0
 13 28  1  0  0  0  0
 14 15  2  0  0  0  0
 14 29  1  0  0  0  0
 15 30  1  0  0  0  0
 16 20  2  0  0  0  0
 16 26  1  0  0  0  0
 17 25  1  0  0  0  0
 17 28  2  0  0  0  0
 18 30  2  0  0  0  0
 18 31  1  0  0  0  0
 19 32  1  0  0  0  0
 20 34  1  0  0  0  0
 21 32  1  0  0  0  0
 21 33  2  0  0  0  0
 21 35  1  0  0  0  0
 22 24  2  0  0  0  0
 22 40  1  0  0  0  0
 23 25  2  0  0  0  0
 23 41  1  0  0  0  0
 24 49  1  0  0  0  0
 25 42  1  0  0  0  0
 26 72  1  0  0  0  0
 27 83  1  0  0  0  0
 28 84  1  0  0  0  0
 29 31  2  0  0  0  0
 29 83  1  0  0  0  0
 30 85  1  0  0  0  0
 31 86  1  0  0  0  0
 32 66  2  0  0  0  0
 33 67  1  0  0  0  0
 33 70  1  0  0  0  0
 34 73  1  0  0  0  0
 34 77  2  0  0  0  0
 35 71  1  0  0  0  0
 35 78  2  0  0  0  0
 36 50  1  0  0  0  0
 36 74  1  0  0  0  0
 36 79  2  0  0  0  0
 37 61  1  0  0  0  0
 37 68  1  0  0  0  0
 37 80  2  0  0  0  0
 38 62  1  0  0  0  0
 38 75  1  0  0  0  0
 38 81  2  0  0  0  0
 39 69  1  0  0  0  0
 39 72  1  0  0  0  0
 39 82  2  0  0  0  0
 40 43  1  0  0  0  0
 41 50  1  0  0  0  0
 42 68  1  0  0  0  0
 43 45  1  0  0  0  0
 44 46  1  0  0  0  0
 44 47  1  0  0  0  0
 45 49  1  0  0  0  0
 46 51  1  0  0  0  0
 47 69  1  0  0  0  0
 48 51  1  0  0  0  0
 48 69  1  0  0  0  0
 49 74  1  0  0  0  0
 50 68  1  0  0  0  0
 51 67  1  0  0  0  0
 52 62  1  0  0  0  0
 53 64  1  0  0  0  0
 54 64  1  0  0  0  0
 55 64  1  0  0  0  0
 56 65  1  0  0  0  0
 57 65  1  0  0  0  0
 58 65  1  0  0  0  0
 59 76  1  0  0  0  0
 60 63  1  0  0  0  0
 60 84  1  0  0  0  0
 61 64  1  0  0  0  0
 61 75  1  0  0  0  0
 62 76  1  0  0  0  0
 63 65  1  0  0  0  0
 63 73  1  0  0  0  0
 66 67  1  0  0  0  0
M  CHG  1  76   1
M  ISO  4  39 100  60 101  72 100  84 101
M  END
> <Batch ID>
0058

> <Smiles>
CNC(C)C(=O)NC(C(=O)N1Cc2cc([101O:1][101CH2:1]C(NC(=O)c3cccc([100NH:0][100C:0](=O)N4CCCC(n5nc(-c6ccc(Oc7ccc(F)cc7F)cc6)c(C(N)=O)c5N)C4)c3)C(C)(C)C)ccc2CC1C(=O)NC1CCCc2ccccc21)C(C)(C)C

> <Shape>
0.239

> <Color>
0.082

> <Negative vol penalty>
0.000

$$$$

  -OEChem-04042322583D

 82 90  0     1  0  0  0  0  0999 V2000
  -20.4687  -24.1349   26.1623 C   0  0  0  0  0  0  0  0  0  0  0  0
  -21.7462  -24.4298   25.6972 C   0  0  0  0  0  0  0  0  0  0  0  0
  -29.1515  -21.7584   16.9513 C   0  0  0  0  0  0  0  0  0  0  0  0
  -26.5123  -12.4587   21.7143 C   0  0  0  0  0  0  0  0  0  0  0  0
  -26.2996  -13.4483   19.5206 C   0  0  0  0  0  0  0  0  0  0  0  0
  -19.3992  -24.0772   25.2697 C   0  0  0  0  0  0  0  0  0  0  0  0
  -21.9552  -24.6662   24.3389 C   0  0  0  0  0  0  0  0  0  0  0  0
  -25.9537  -28.5848   21.8566 C   0  0  0  0  0  0  0  0  0  0  0  0
  -29.0866  -23.0591   17.4507 C   0  0  0  0  0  0  0  0  0  0  0  0
  -29.5314  -20.7084   17.7873 C   0  0  0  0  0  0  0  0  0  0  0  0
  -25.2196  -11.9457   21.6083 C   0  0  0  0  0  0  0  0  0  0  0  0
  -25.0069  -12.9352   19.4145 C   0  0  0  0  0  0  0  0  0  0  0  0
  -27.2270  -28.4094   21.3166 C   0  0  0  0  0  0  0  0  0  0  0  0
  -23.6901   -9.3412   20.0882 C   0  0  0  0  0  0  0  0  0  0  0  0
  -23.4855   -8.0153   20.4701 C   0  0  0  0  0  0  0  0  0  0  0  0
  -26.2655  -28.2747   19.1083 C   0  0  0  0  0  0  0  0  0  0  0  0
  -29.7816  -22.2599   19.6223 C   0  0  0  0  0  0  0  0  0  0  0  0
  -21.9041   -8.7421   22.1459 C   0  0  0  0  0  0  0  0  0  0  0  0
  -27.0523  -13.2100   20.6705 C   0  0  0  0  0  0  0  0  0  0  0  0
  -29.5853  -13.1171   20.3820 C   0  0  0  0  0  0  0  0  0  0  0  0
  -19.5934  -24.3226   23.9013 C   0  0  0  0  0  0  0  0  0  0  0  0
  -24.8237  -28.5956   21.0262 C   0  0  0  0  0  0  0  0  0  0  0  0
  -20.8874  -24.6105   23.4270 C   0  0  0  0  0  0  0  0  0  0  0  0
  -24.9791  -28.4530   19.6400 C   0  0  0  0  0  0  0  0  0  0  0  0
  -29.4017  -23.3099   18.7862 C   0  0  0  0  0  0  0  0  0  0  0  0
  -29.8464  -20.9592   19.1228 C   0  0  0  0  0  0  0  0  0  0  0  0
  -24.4669  -12.1839   20.4583 C   0  0  0  0  0  0  0  0  0  0  0  0
  -27.3828  -28.2514   19.9426 C   0  0  0  0  0  0  0  0  0  0  0  0
  -23.0018  -10.3675   20.7352 C   0  0  0  0  0  0  0  0  0  0  0  0
  -22.5925   -7.7157   21.4989 C   0  0  0  0  0  0  0  0  0  0  0  0
  -22.1088  -10.0679   21.7640 C   0  0  0  0  0  0  0  0  0  0  0  0
  -28.3874  -13.7407   20.7797 C   0  0  0  0  0  0  0  0  0  0  0  0
  -30.5661  -14.0259   20.6960 C   0  0  0  0  0  0  0  0  0  0  0  0
  -29.7928  -11.8314   19.7824 C   0  0  0  0  0  0  0  0  0  0  0  0
  -22.2182  -26.7945   20.7601 C   0  0  0  0  0  0  0  0  0  0  0  0
  -30.5827  -26.7217   19.3309 C   0  0  0  0  0  0  0  0  0  0  0  0
  -21.3467  -29.0584   18.6066 C   0  0  0  0  0  0  0  0  0  0  0  0
  -22.3029  -31.5010   16.4235 C   0  0  0  0  0  0  0  0  0  0  0  0
  -30.5765  -19.9685   21.3209 C   0  0  0  0  0  0  0  0  0  0  0  0
  -18.4149  -24.2025   22.9678 C   0  0  0  0  0  0  0  0  0  0  0  0
  -23.4595  -28.8127   21.6214 C   0  0  0  0  0  0  0  0  0  0  0  0
  -23.8001  -28.4776   18.7031 C   0  0  0  0  0  0  0  0  0  0  0  0
  -18.6550  -24.8345   21.5992 C   0  0  0  0  0  0  0  0  0  0  0  0
  -31.5451  -17.5685   23.7662 C   0  0  0  0  0  0  0  0  0  0  0  0
  -20.0159  -24.4180   21.0502 C   0  0  0  0  0  0  0  0  0  0  0  0
  -30.9594  -16.2567   23.2385 C   0  0  0  0  0  0  0  0  0  0  0  0
  -30.6223  -18.7538   23.4883 C   0  0  0  0  0  0  0  0  0  0  0  0
  -29.6229  -17.5917   21.5597 C   0  0  0  0  0  0  0  0  0  0  0  0
  -21.1498  -24.8974   21.9645 C   0  0  1  0  0  0  0  0  0  0  0  0
  -22.3315  -28.2925   20.7358 C   0  0  1  0  0  0  0  0  0  0  0  0
  -30.5465  -16.3789   21.7586 C   0  0  2  0  0  0  0  0  0  0  0  0
  -31.7685  -27.5263   18.8551 C   0  0  0  0  0  0  0  0  0  0  0  0
  -21.3675  -33.1499   14.7793 C   0  0  0  0  0  0  0  0  0  0  0  0
  -20.8920  -26.8008   16.6050 C   0  0  0  0  0  0  0  0  0  0  0  0
  -20.8954  -28.5132   14.7786 C   0  0  0  0  0  0  0  0  0  0  0  0
  -19.1539  -28.5984   16.5626 C   0  0  0  0  0  0  0  0  0  0  0  0
  -23.3855  -33.8016   17.9382 C   0  0  0  0  0  0  0  0  0  0  0  0
  -29.3316  -24.7118   19.3239 C   0  0  0  0  0  0  0  0  0  0  0  0
  -29.5964  -27.4319   20.2331 C   0  0  0  0  0  0  0  0  0  1  0  0
  -21.5326  -29.2482   17.1206 C   0  0  1  0  0  0  0  0  0  0  0  0
  -21.8039  -32.9198   16.2178 C   0  0  2  0  0  0  0  0  0  0  0  0
  -20.6407  -28.2877   16.2843 C   0  0  0  0  0  0  0  0  0  0  0  0
  -28.5868  -14.9519   21.3062 N   0  0  0  0  0  0  0  0  0  0  0  0
  -30.4756  -25.5073   18.9113 N   0  0  0  0  0  0  0  0  0  0  0  0
  -29.9213  -15.0967   21.2416 N   0  0  0  0  0  0  0  0  0  0  0  0
  -22.4862  -28.6863   19.3339 N   0  0  0  0  0  0  0  0  0  0  0  0
  -30.2769  -18.8085   22.0662 N   0  0  0  0  0  0  0  0  0  0  0  0
  -31.9086  -14.0054   20.5558 N   0  0  0  0  0  0  0  0  0  0  0  0
  -28.6752  -11.0248   19.5277 N   0  0  0  0  0  0  0  0  0  0  0  0
  -30.2316  -19.8922   19.9719 N   0  0  0  0  0  0  0  0  0  0  0  0
  -21.4000  -26.3084   21.7620 N   0  0  0  0  0  0  0  0  0  0  0  0
  -21.2970  -30.6636   16.8572 N   0  0  0  0  0  0  0  0  0  0  0  0
  -22.8782  -33.8994   16.5453 N   0  3  0  0  0  0  0  0  0  0  0  0
  -30.9367  -11.4035   19.4965 O   0  0  0  0  0  0  0  0  0  0  0  0
  -22.8268  -26.1289   19.9304 O   0  0  0  0  0  0  0  0  0  0  0  0
  -20.2332  -29.2407   19.1049 O   0  0  0  0  0  0  0  0  0  0  0  0
  -23.4677  -31.1679   16.2163 O   0  0  0  0  0  0  0  0  0  0  0  0
  -31.1253  -20.9464   21.8352 O   0  0  0  0  0  0  0  0  0  0  0  0
  -23.2055  -11.6832   20.3544 O   0  0  0  0  0  0  0  0  0  0  0  0
  -28.6245  -28.0793   19.4130 O   0  0  0  0  0  0  0  0  0  1  0  0
  -22.3949   -6.4424   21.8645 F   0  0  0  0  0  0  0  0  0  0  0  0
  -21.4437  -11.0496   22.3884 F   0  0  0  0  0  0  0  0  0  0  0  0
  1  2  1  0  0  0  0
  1  6  2  0  0  0  0
  2  7  2  0  0  0  0
  3  9  2  0  0  0  0
  3 10  1  0  0  0  0
  4 11  2  0  0  0  0
  4 19  1  0  0  0  0
  5 12  1  0  0  0  0
  5 19  2  0  0  0  0
  6 21  1  0  0  0  0
  7 23  1  0  0  0  0
  8 13  2  0  0  0  0
  8 22  1  0  0  0  0
  9 25  1  0  0  0  0
 10 26  2  0  0  0  0
 11 27  1  0  0  0  0
 12 27  2  0  0  0  0
 13 28  1  0  0  0  0
 14 15  2  0  0  0  0
 14 29  1  0  0  0  0
 15 30  1  0  0  0  0
 16 24  1  0  0  0  0
 16 28  2  0  0  0  0
 17 25  2  0  0  0  0
 17 26  1  0  0  0  0
 18 30  2  0  0  0  0
 18 31  1  0  0  0  0
 19 32  1  0  0  0  0
 20 32  1  0  0  0  0
 20 33  2  0  0  0  0
 20 34  1  0  0  0  0
 21 23  2  0  0  0  0
 21 40  1  0  0  0  0
 22 24  2  0  0  0  0
 22 41  1  0  0  0  0
 23 49  1  0  0  0  0
 24 42  1  0  0  0  0
 25 58  1  0  0  0  0
 26 70  1  0  0  0  0
 27 79  1  0  0  0  0
 28 80  1  0  0  0  0
 29 31  2  0  0  0  0
 29 79  1  0  0  0  0
 30 81  1  0  0  0  0
 31 82  1  0  0  0  0
 32 63  2  0  0  0  0
 33 65  1  0  0  0  0
 33 68  1  0  0  0  0
 34 69  1  0  0  0  0
 34 74  2  0  0  0  0
 35 50  1  0  0  0  0
 35 71  1  0  0  0  0
 35 75  2  0  0  0  0
 36 52  1  0  0  0  0
 36 59  1  0  0  0  0
 36 64  2  0  0  0  0
 37 60  1  0  0  0  0
 37 66  1  0  0  0  0
 37 76  2  0  0  0  0
 38 61  1  0  0  0  0
 38 72  1  0  0  0  0
 38 77  2  0  0  0  0
 39 67  1  0  0  0  0
 39 70  1  0  0  0  0
 39 78  2  0  0  0  0
 40 43  1  0  0  0  0
 41 50  1  0  0  0  0
 42 66  1  0  0  0  0
 43 45  1  0  0  0  0
 44 46  1  0  0  0  0
 44 47  1  0  0  0  0
 45 49  1  0  0  0  0
 46 51  1  0  0  0  0
 47 67  1  0  0  0  0
 48 51  1  0  0  0  0
 48 67  1  0  0  0  0
 49 71  1  0  0  0  0
 50 66  1  0  0  0  0
 51 65  1  0  0  0  0
 53 61  1  0  0  0  0
 54 62  1  0  0  0  0
 55 62  1  0  0  0  0
 56 62  1  0  0  0  0
 57 73  1  0  0  0  0
 58 64  1  0  0  0  0
 59 80  1  0  0  0  0
 60 62  1  0  0  0  0
 60 72  1  0  0  0  0
 61 73  1  0  0  0  0
 63 65  1  0  0  0  0
M  CHG  1  73   1
M  ISO  4  39 100  59 101  70 100  80 101
M  END
> <Batch ID>
0058

> <Smiles>
CNC(C)C(=O)NC(C(=O)N1Cc2cc([101O:1][101CH2:1]C(C)=NCc3cccc([100NH:0][100C:0](=O)N4CCCC(n5nc(-c6ccc(Oc7ccc(F)cc7F)cc6)c(C(N)=O)c5N)C4)c3)ccc2CC1C(=O)NC1CCCc2ccccc21)C(C)(C)C

> <Shape>
0.257

> <Color>
0.073

> <Negative vol penalty>
0.000

$$$$

  -OEChem-04042322583D

 93102  0     1  0  0  0  0  0999 V2000
  -35.1639  -31.3420   19.6172 C   0  0  0  0  0  0  0  0  0  0  0  0
  -34.9016  -30.4765   20.6744 C   0  0  0  0  0  0  0  0  0  0  0  0
  -23.0013   -9.8902   19.9846 C   0  0  0  0  0  0  0  0  0  0  0  0
  -23.7218   -9.9509   22.2899 C   0  0  0  0  0  0  0  0  0  0  0  0
  -29.0817  -18.9015   25.9326 C   0  0  0  0  0  0  0  0  0  0  0  0
  -34.1669  -32.2015   19.1578 C   0  0  0  0  0  0  0  0  0  0  0  0
  -33.6425  -30.4709   21.2735 C   0  0  0  0  0  0  0  0  0  0  0  0
  -31.8911  -25.7865   22.0701 C   0  0  0  0  0  0  0  0  0  0  0  0
  -22.2346   -8.7566   20.2541 C   0  0  0  0  0  0  0  0  0  0  0  0
  -22.9551   -8.8173   22.5594 C   0  0  0  0  0  0  0  0  0  0  0  0
  -28.2586  -19.7755   26.6426 C   0  0  0  0  0  0  0  0  0  0  0  0
  -32.4064  -25.0915   23.1633 C   0  0  0  0  0  0  0  0  0  0  0  0
  -23.2013   -5.4765   22.1017 C   0  0  0  0  0  0  0  0  0  0  0  0
  -23.7876   -4.4626   22.8591 C   0  0  0  0  0  0  0  0  0  0  0  0
  -29.8718  -17.4604   23.0849 C   0  0  0  0  0  0  0  0  0  0  0  0
  -30.4351  -25.6469   24.4379 C   0  0  0  0  0  0  0  0  0  0  0  0
  -32.0511  -16.5597   22.5590 C   0  0  0  0  0  0  0  0  0  0  0  0
  -28.4754  -21.4124   24.8789 C   0  0  0  0  0  0  0  0  0  0  0  0
  -22.0603   -4.7119   24.5299 C   0  0  0  0  0  0  0  0  0  0  0  0
  -23.7450  -10.4874   21.0025 C   0  0  0  0  0  0  0  0  0  0  0  0
  -29.6018  -19.2829   24.6958 C   0  0  0  0  0  0  0  0  0  0  0  0
  -30.4583  -18.3596   23.9754 C   0  0  0  0  0  0  0  0  0  0  0  0
  -24.1299  -13.0023   20.8169 C   0  0  0  0  0  0  0  0  0  0  0  0
  -32.8919  -32.1996   19.7452 C   0  0  0  0  0  0  0  0  0  0  0  0
  -30.6468  -26.4273   22.1563 C   0  0  0  0  0  0  0  0  0  0  0  0
  -32.6279  -31.3321   20.8223 C   0  0  0  0  0  0  0  0  0  0  0  0
  -29.9051  -26.3473   23.3436 C   0  0  0  0  0  0  0  0  0  0  0  0
  -32.6376  -17.4590   23.4495 C   0  0  0  0  0  0  0  0  0  0  0  0
  -30.6682  -16.5603   22.3768 C   0  0  0  0  0  0  0  0  0  0  0  0
  -31.8412  -18.3590   24.1576 C   0  0  0  0  0  0  0  0  0  0  0  0
  -22.2114   -8.2202   21.5414 C   0  0  0  0  0  0  0  0  0  0  0  0
  -31.6797  -25.0240   24.3484 C   0  0  0  0  0  0  0  0  0  0  0  0
  -27.9554  -21.0310   26.1157 C   0  0  0  0  0  0  0  0  0  0  0  0
  -22.0445   -6.1082   22.5583 C   0  0  0  0  0  0  0  0  0  0  0  0
  -29.2986  -20.5384   24.1689 C   0  0  0  0  0  0  0  0  0  0  0  0
  -23.2171   -4.0802   24.0732 C   0  0  0  0  0  0  0  0  0  0  0  0
  -21.4740   -5.7259   23.7724 C   0  0  0  0  0  0  0  0  0  0  0  0
  -24.5377  -11.6581   20.7246 C   0  0  0  0  0  0  0  0  0  0  0  0
  -25.2402  -13.7237   20.4518 C   0  0  0  0  0  0  0  0  0  0  0  0
  -22.8611  -13.5499   21.1987 C   0  0  0  0  0  0  0  0  0  0  0  0
  -29.6530  -29.4377   21.9243 C   0  0  0  0  0  0  0  0  0  0  0  0
  -26.7167  -28.0740   22.1265 C   0  0  0  0  0  0  0  0  0  0  0  0
  -33.3994  -20.2405   24.7696 C   0  0  0  0  0  0  0  0  0  0  0  0
  -24.8147  -25.4282   23.1409 C   0  0  0  0  0  0  0  0  0  0  0  0
  -30.7189  -14.6874   20.6928 C   0  0  0  0  0  0  0  0  0  0  0  0
  -31.8608  -33.1801   19.2452 C   0  0  0  0  0  0  0  0  0  0  0  0
  -30.0928  -27.1504   20.9594 C   0  0  0  0  0  0  0  0  0  0  0  0
  -28.5551  -27.0008   23.4808 C   0  0  0  0  0  0  0  0  0  0  0  0
  -30.4385  -32.8476   19.6889 C   0  0  0  0  0  0  0  0  0  0  0  0
  -29.6060  -12.2246   18.3747 C   0  0  0  0  0  0  0  0  0  0  0  0
  -30.4081  -32.5123   21.1767 C   0  0  0  0  0  0  0  0  0  0  0  0
  -28.1547  -11.9683   18.7870 C   0  0  0  0  0  0  0  0  0  0  0  0
  -30.5041  -12.4733   19.5853 C   0  0  0  0  0  0  0  0  0  0  0  0
  -28.5858  -13.2671   20.9117 C   0  0  0  0  0  0  0  0  0  0  0  0
  -31.2669  -31.2790   21.4818 C   0  0  1  0  0  0  0  0  0  0  0  0
  -29.0476  -28.1995   21.3260 C   0  0  1  0  0  0  0  0  0  0  0  0
  -27.6306  -13.0755   19.7224 C   0  0  2  0  0  0  0  0  0  0  0  0
  -34.1220  -17.4330   23.6227 C   0  0  0  0  0  0  0  0  0  0  0  0
  -22.4406  -24.6177   23.2024 C   0  0  0  0  0  0  0  0  0  0  0  0
  -26.1287  -29.9792   24.4362 C   0  0  0  0  0  0  0  0  0  0  0  0
  -24.1898  -28.5207   25.0540 C   0  0  0  0  0  0  0  0  0  0  0  0
  -24.2326  -29.6625   22.8365 C   0  0  0  0  0  0  0  0  0  0  0  0
  -25.4564  -23.0647   21.4793 C   0  0  0  0  0  0  0  0  0  0  0  0
  -29.4267  -22.2376   22.5100 C   0  0  0  0  0  0  0  0  0  0  0  0
  -33.7844  -21.0011   26.0309 C   0  0  0  0  0  0  0  0  0  0  0  0
  -32.9068  -22.2249   26.2698 C   0  0  0  0  0  0  0  0  0  0  0  0
  -33.0346  -23.2374   25.1410 C   0  0  0  0  0  0  0  0  0  1  0  0
  -25.7827  -27.7095   23.2551 C   0  0  1  0  0  0  0  0  0  0  0  0
  -23.7470  -24.6217   22.4240 C   0  0  2  0  0  0  0  0  0  0  0  0
  -25.1098  -28.9572   23.8938 C   0  0  0  0  0  0  0  0  0  0  0  0
  -25.8078  -11.5303   20.3315 N   0  0  0  0  0  0  0  0  0  0  0  0
  -26.2077  -12.8036   20.1735 N   0  0  0  0  0  0  0  0  0  0  0  0
  -28.0591  -27.7014   22.2847 N   0  0  0  0  0  0  0  0  0  0  0  0
  -29.9470  -13.5375   20.4231 N   0  0  0  0  0  0  0  0  0  0  0  0
  -25.4735  -15.0491   20.3447 N   0  0  0  0  0  0  0  0  0  0  0  0
  -21.8288  -12.6669   21.5437 N   0  0  0  0  0  0  0  0  0  0  0  0
  -32.4471  -19.2670   25.0582 N   0  0  0  0  0  0  0  0  0  0  0  0
  -30.0728  -15.6456   21.4731 N   0  0  0  0  0  0  0  0  0  0  0  0
  -30.5674  -30.0699   21.1035 N   0  0  0  0  0  0  0  0  0  0  0  0
  -24.8421  -26.7373   22.7087 N   0  0  0  0  0  0  0  0  0  0  0  0
  -24.1940  -23.2109   22.2487 N   0  3  0  0  0  0  0  0  0  0  0  0
  -22.6439  -14.7853   21.2169 O   0  0  0  0  0  0  0  0  0  0  0  0
  -29.3145  -29.7940   23.0468 O   0  0  0  0  0  0  0  0  0  0  0  0
  -26.2703  -28.6612   21.1378 O   0  0  0  0  0  0  0  0  0  0  0  0
  -33.8958  -20.4966   23.6777 O   0  0  0  0  0  0  0  0  0  0  0  0
  -25.5484  -24.9462   24.0010 O   0  0  0  0  0  0  0  0  0  0  0  0
  -31.8585  -14.8248   20.2405 O   0  0  0  0  0  0  0  0  0  0  0  0
  -27.1517  -21.8837   26.8081 O   0  0  0  0  0  0  0  0  0  0  0  0
  -21.4632   -7.1141   21.8048 O   0  0  0  0  0  0  0  0  0  0  0  0
  -29.7942  -20.9366   22.9624 O   0  0  0  0  0  0  0  0  0  0  0  0
  -32.1806  -24.3468   25.4172 O   0  0  0  0  0  0  0  0  0  1  0  0
  -23.7794   -3.1055   24.7997 F   0  0  0  0  0  0  0  0  0  0  0  0
  -20.3621   -6.3282   24.2157 F   0  0  0  0  0  0  0  0  0  0  0  0
  1  2  1  0  0  0  0
  1  6  2  0  0  0  0
  2  7  2  0  0  0  0
  3  9  2  0  0  0  0
  3 20  1  0  0  0  0
  4 10  1  0  0  0  0
  4 20  2  0  0  0  0
  5 11  2  0  0  0  0
  5 21  1  0  0  0  0
  6 24  1  0  0  0  0
  7 26  1  0  0  0  0
  8 12  2  0  0  0  0
  8 25  1  0  0  0  0
  9 31  1  0  0  0  0
 10 31  2  0  0  0  0
 11 33  1  0  0  0  0
 12 32  1  0  0  0  0
 13 14  2  0  0  0  0
 13 34  1  0  0  0  0
 14 36  1  0  0  0  0
 15 22  1  0  0  0  0
 15 29  2  0  0  0  0
 16 27  1  0  0  0  0
 16 32  2  0  0  0  0
 17 28  2  0  0  0  0
 17 29  1  0  0  0  0
 18 33  2  0  0  0  0
 18 35  1  0  0  0  0
 19 36  2  0  0  0  0
 19 37  1  0  0  0  0
 20 38  1  0  0  0  0
 21 22  1  0  0  0  0
 21 35  2  0  0  0  0
 22 30  2  0  0  0  0
 23 38  1  0  0  0  0
 23 39  2  0  0  0  0
 23 40  1  0  0  0  0
 24 26  2  0  0  0  0
 24 46  1  0  0  0  0
 25 27  2  0  0  0  0
 25 47  1  0  0  0  0
 26 55  1  0  0  0  0
 27 48  1  0  0  0  0
 28 30  1  0  0  0  0
 28 58  1  0  0  0  0
 29 78  1  0  0  0  0
 30 77  1  0  0  0  0
 31 89  1  0  0  0  0
 32 91  1  0  0  0  0
 33 88  1  0  0  0  0
 34 37  2  0  0  0  0
 34 89  1  0  0  0  0
 35 90  1  0  0  0  0
 36 92  1  0  0  0  0
 37 93  1  0  0  0  0
 38 71  2  0  0  0  0
 39 72  1  0  0  0  0
 39 75  1  0  0  0  0
 40 76  1  0  0  0  0
 40 82  2  0  0  0  0
 41 56  1  0  0  0  0
 41 79  1  0  0  0  0
 41 83  2  0  0  0  0
 42 68  1  0  0  0  0
 42 73  1  0  0  0  0
 42 84  2  0  0  0  0
 43 65  1  0  0  0  0
 43 77  1  0  0  0  0
 43 85  2  0  0  0  0
 44 69  1  0  0  0  0
 44 80  1  0  0  0  0
 44 86  2  0  0  0  0
 45 74  1  0  0  0  0
 45 78  1  0  0  0  0
 45 87  2  0  0  0  0
 46 49  1  0  0  0  0
 47 56  1  0  0  0  0
 48 73  1  0  0  0  0
 49 51  1  0  0  0  0
 50 52  1  0  0  0  0
 50 53  1  0  0  0  0
 51 55  1  0  0  0  0
 52 57  1  0  0  0  0
 53 74  1  0  0  0  0
 54 57  1  0  0  0  0
 54 74  1  0  0  0  0
 55 79  1  0  0  0  0
 56 73  1  0  0  0  0
 57 72  1  0  0  0  0
 59 69  1  0  0  0  0
 60 70  1  0  0  0  0
 61 70  1  0  0  0  0
 62 70  1  0  0  0  0
 63 81  1  0  0  0  0
 64 90  1  0  0  0  0
 65 66  1  0  0  0  0
 66 67  1  0  0  0  0
 67 91  1  0  0  0  0
 68 70  1  0  0  0  0
 68 80  1  0  0  0  0
 69 81  1  0  0  0  0
 71 72  1  0  0  0  0
M  CHG  1  81   1
M  ISO  4  45 100  67 101  78 100  91 101
M  END
> <Batch ID>
0058

> <Smiles>
CNC(C)C(=O)NC(C(=O)N1Cc2cc([101O:1][101CH2:1]CCC(=O)Nc3c(C)cc([100NH:0][100C:0](=O)N4CCCC(n5nc(-c6ccc(Oc7ccc(F)cc7F)cc6)c(C(N)=O)c5N)C4)cc3C3=CCC(=O)C=C3OC)ccc2CC1C(=O)NC1CCCc2ccccc21)C(C)(C)C

> <Shape>
0.215

> <Color>
0.182

> <Negative vol penalty>
0.000

$$$$

  -OEChem-04042322583D

 88 97  0     1  0  0  0  0  0999 V2000
  -28.7450  -23.7214   18.3920 C   0  0  0  0  0  0  0  0  0  0  0  0
  -27.5538  -23.9562   19.0714 C   0  0  0  0  0  0  0  0  0  0  0  0
  -24.8386  -24.7346   23.8084 C   0  0  0  0  0  0  0  0  0  0  0  0
  -26.0082  -13.3874   19.2383 C   0  0  0  0  0  0  0  0  0  0  0  0
  -24.6858  -13.6266   21.2461 C   0  0  0  0  0  0  0  0  0  0  0  0
  -29.8984  -24.4190   18.7482 C   0  0  0  0  0  0  0  0  0  0  0  0
  -27.5157  -24.8879   20.1081 C   0  0  0  0  0  0  0  0  0  0  0  0
  -23.4683  -27.9202   19.8473 C   0  0  0  0  0  0  0  0  0  0  0  0
  -23.5031  -24.5634   24.1726 C   0  0  0  0  0  0  0  0  0  0  0  0
  -25.6577  -23.6217   23.6181 C   0  0  0  0  0  0  0  0  0  0  0  0
  -26.0198  -12.0034   19.4108 C   0  0  0  0  0  0  0  0  0  0  0  0
  -24.6973  -12.2425   21.4185 C   0  0  0  0  0  0  0  0  0  0  0  0
  -22.2515  -27.3969   20.2825 C   0  0  0  0  0  0  0  0  0  0  0  0
  -23.0858   -9.5612   20.1401 C   0  0  0  0  0  0  0  0  0  0  0  0
  -21.8812   -8.9409   20.4715 C   0  0  0  0  0  0  0  0  0  0  0  0
  -22.5165  -28.5468   22.3865 C   0  0  0  0  0  0  0  0  0  0  0  0
  -23.8058  -22.1665   24.1563 C   0  0  0  0  0  0  0  0  0  0  0  0
  -22.8655   -8.1245   22.5213 C   0  0  0  0  0  0  0  0  0  0  0  0
  -25.3412  -14.1991   20.1560 C   0  0  0  0  0  0  0  0  0  0  0  0
  -24.3835  -16.3893   19.2654 C   0  0  0  0  0  0  0  0  0  0  0  0
  -29.8722  -25.3668   19.7835 C   0  0  0  0  0  0  0  0  0  0  0  0
  -24.2248  -28.7534   20.6839 C   0  0  0  0  0  0  0  0  0  0  0  0
  -28.6702  -25.5978   20.4794 C   0  0  0  0  0  0  0  0  0  0  0  0
  -23.7412  -29.0815   21.9585 C   0  0  0  0  0  0  0  0  0  0  0  0
  -22.9867  -23.2794   24.3466 C   0  0  0  0  0  0  0  0  0  0  0  0
  -25.1413  -22.3377   23.7921 C   0  0  0  0  0  0  0  0  0  0  0  0
  -25.3643  -11.4309   20.5008 C   0  0  0  0  0  0  0  0  0  0  0  0
  -21.7768  -27.7078   21.5534 C   0  0  0  0  0  0  0  0  0  0  0  0
  -24.1803   -9.4632   20.9993 C   0  0  0  0  0  0  0  0  0  0  0  0
  -21.7711   -8.2226   21.6621 C   0  0  0  0  0  0  0  0  0  0  0  0
  -24.0701   -8.7449   22.1899 C   0  0  0  0  0  0  0  0  0  0  0  0
  -25.3294  -15.6290   19.9787 C   0  0  0  0  0  0  0  0  0  0  0  0
  -24.8159  -17.6863   19.3968 C   0  0  0  0  0  0  0  0  0  0  0  0
  -20.2005  -24.9937   23.7682 C   0  0  0  0  0  0  0  0  0  0  0  0
  -23.2180  -15.9615   18.5482 C   0  0  0  0  0  0  0  0  0  0  0  0
  -27.1149  -28.5866   21.9964 C   0  0  0  0  0  0  0  0  0  0  0  0
  -18.1039  -25.9641   22.7480 C   0  0  0  0  0  0  0  0  0  0  0  0
  -26.4336  -31.6140   22.9412 C   0  0  0  0  0  0  0  0  0  0  0  0
  -24.0618  -33.9618   23.6547 C   0  0  0  0  0  0  0  0  0  0  0  0
  -27.3199  -21.2020   23.2348 C   0  0  0  0  0  0  0  0  0  0  0  0
  -31.1554  -26.0618   20.1641 C   0  0  0  0  0  0  0  0  0  0  0  0
  -25.5224  -29.3313   20.1894 C   0  0  0  0  0  0  0  0  0  0  0  0
  -24.5055  -29.9877   22.8875 C   0  0  0  0  0  0  0  0  0  0  0  0
  -30.9430  -27.3040   21.0255 C   0  0  0  0  0  0  0  0  0  0  0  0
  -29.1397  -19.8230   20.5028 C   0  0  0  0  0  0  0  0  0  0  0  0
  -29.9565  -27.0106   22.1513 C   0  0  0  0  0  0  0  0  0  0  0  0
  -28.2513  -18.6749   20.0181 C   0  0  0  0  0  0  0  0  0  0  0  0
  -19.0434  -23.7515   22.0821 C   0  0  0  0  0  0  0  0  0  0  0  0
  -29.1028  -19.9656   22.0233 C   0  0  0  0  0  0  0  0  0  0  0  0
  -20.1957  -22.9241   22.6208 C   0  0  0  0  0  0  0  0  0  0  0  0
  -26.8702  -18.9284   22.1194 C   0  0  0  0  0  0  0  0  0  0  0  0
  -28.5831  -26.6186   21.5932 C   0  0  1  0  0  0  0  0  0  0  0  0
  -26.4566  -29.7549   21.3187 C   0  0  1  0  0  0  0  0  0  0  0  0
  -26.8241  -18.7869   20.5891 C   0  0  2  0  0  0  0  0  0  0  0  0
  -19.3680  -25.1928   22.5088 C   0  0  2  0  0  0  0  0  0  0  0  0
  -23.8097  -36.3324   24.4385 C   0  0  0  0  0  0  0  0  0  0  0  0
  -27.0908  -30.7395   25.7896 C   0  0  0  0  0  0  0  0  0  0  0  0
  -25.9327  -32.8000   26.6150 C   0  0  0  0  0  0  0  0  0  0  0  0
  -27.9543  -33.0027   25.1677 C   0  0  0  0  0  0  0  0  0  0  0  0
  -22.6937  -34.7649   21.1562 C   0  0  0  0  0  0  0  0  0  0  0  0
  -21.5491  -23.0957   24.7387 C   0  0  0  0  0  0  0  0  0  0  0  0
  -20.2043  -25.9261   21.4611 C   0  0  0  0  0  0  0  0  0  1  0  0
  -25.7721  -32.2340   24.1483 C   0  0  1  0  0  0  0  0  0  0  0  0
  -23.9220  -35.4132   23.2322 C   0  0  2  0  0  0  0  0  0  0  0  0
  -26.6738  -32.1754   25.4136 C   0  0  0  0  0  0  0  0  0  0  0  0
  -26.2904  -16.3803   20.5228 N   0  0  0  0  0  0  0  0  0  0  0  0
  -25.9506  -17.6263   20.1512 N   0  0  0  0  0  0  0  0  0  0  0  0
  -20.6449  -23.6738   23.7679 N   0  0  0  0  0  0  0  0  0  0  0  0
  -25.7719  -30.5227   22.3607 N   0  0  0  0  0  0  0  0  0  0  0  0
  -27.7192  -20.0709   22.4920 N   0  0  0  0  0  0  0  0  0  0  0  0
  -24.3326  -18.8608   18.9394 N   0  0  0  0  0  0  0  0  0  0  0  0
  -22.9197  -14.5925   18.5139 N   0  0  0  0  0  0  0  0  0  0  0  0
  -17.3356  -26.1329   21.6204 N   0  0  0  0  0  0  0  0  0  0  0  0
  -25.9735  -21.2074   23.5980 N   0  0  0  0  0  0  0  0  0  0  0  0
  -27.8642  -27.7933   21.1485 N   0  0  0  0  0  0  0  0  0  0  0  0
  -25.3841  -33.5836   23.7530 N   0  0  0  0  0  0  0  0  0  0  0  0
  -22.7058  -35.5926   22.3898 N   0  3  0  0  0  0  0  0  0  0  0  0
  -20.4443  -25.8627   24.5936 O   0  0  0  0  0  0  0  0  0  0  0  0
  -22.4726  -16.7676   17.9416 O   0  0  0  0  0  0  0  0  0  0  0  0
  -26.9561  -28.4181   23.1998 O   0  0  0  0  0  0  0  0  0  0  0  0
  -17.7951  -26.3823   23.8611 O   0  0  0  0  0  0  0  0  0  0  0  0
  -27.4946  -32.0854   22.5242 O   0  0  0  0  0  0  0  0  0  0  0  0
  -23.0947  -33.2373   23.8790 O   0  0  0  0  0  0  0  0  0  0  0  0
  -28.1073  -22.1128   23.5038 O   0  0  0  0  0  0  0  0  0  0  0  0
  -25.3752  -10.0803   20.6693 O   0  0  0  0  0  0  0  0  0  0  0  0
  -20.5898  -27.1979   21.9809 O   0  0  0  0  0  0  0  0  0  1  0  0
  -20.6138   -7.6282   21.9809 F   0  0  0  0  0  0  0  0  0  0  0  0
  -25.1178   -8.6481   23.0199 F   0  0  0  0  0  0  0  0  0  0  0  0
  1  2  1  0  0  0  0
  1  6  2  0  0  0  0
  2  7  2  0  0  0  0
  3  9  2  0  0  0  0
  3 10  1  0  0  0  0
  4 11  2  0  0  0  0
  4 19  1  0  0  0  0
  5 12  1  0  0  0  0
  5 19  2  0  0  0  0
  6 21  1  0  0  0  0
  7 23  1  0  0  0  0
  8 13  2  0  0  0  0
  8 22  1  0  0  0  0
  9 25  1  0  0  0  0
 10 26  2  0  0  0  0
 11 27  1  0  0  0  0
 12 27  2  0  0  0  0
 13 28  1  0  0  0  0
 14 15  2  0  0  0  0
 14 29  1  0  0  0  0
 15 30  1  0  0  0  0
 16 24  1  0  0  0  0
 16 28  2  0  0  0  0
 17 25  2  0  0  0  0
 17 26  1  0  0  0  0
 18 30  2  0  0  0  0
 18 31  1  0  0  0  0
 19 32  1  0  0  0  0
 20 32  1  0  0  0  0
 20 33  2  0  0  0  0
 20 35  1  0  0  0  0
 21 23  2  0  0  0  0
 21 41  1  0  0  0  0
 22 24  2  0  0  0  0
 22 42  1  0  0  0  0
 23 52  1  0  0  0  0
 24 43  1  0  0  0  0
 25 61  1  0  0  0  0
 26 74  1  0  0  0  0
 27 85  1  0  0  0  0
 28 86  1  0  0  0  0
 29 31  2  0  0  0  0
 29 85  1  0  0  0  0
 30 87  1  0  0  0  0
 31 88  1  0  0  0  0
 32 66  2  0  0  0  0
 33 67  1  0  0  0  0
 33 71  1  0  0  0  0
 34 55  1  0  0  0  0
 34 68  1  0  0  0  0
 34 78  2  0  0  0  0
 35 72  1  0  0  0  0
 35 79  2  0  0  0  0
 36 53  1  0  0  0  0
 36 75  1  0  0  0  0
 36 80  2  0  0  0  0
 37 55  1  0  0  0  0
 37 73  1  0  0  0  0
 37 81  2  0  0  0  0
 38 63  1  0  0  0  0
 38 69  1  0  0  0  0
 38 82  2  0  0  0  0
 39 64  1  0  0  0  0
 39 76  1  0  0  0  0
 39 83  2  0  0  0  0
 40 70  1  0  0  0  0
 40 74  1  0  0  0  0
 40 84  2  0  0  0  0
 41 44  1  0  0  0  0
 42 53  1  0  0  0  0
 43 69  1  0  0  0  0
 44 46  1  0  0  0  0
 45 47  1  0  0  0  0
 45 49  1  0  0  0  0
 46 52  1  0  0  0  0
 47 54  1  0  0  0  0
 48 50  1  0  0  0  0
 48 55  1  0  0  0  0
 49 70  1  0  0  0  0
 50 68  1  0  0  0  0
 51 54  1  0  0  0  0
 51 70  1  0  0  0  0
 52 75  1  0  0  0  0
 53 69  1  0  0  0  0
 54 67  1  0  0  0  0
 55 62  1  0  0  0  0
 56 64  1  0  0  0  0
 57 65  1  0  0  0  0
 58 65  1  0  0  0  0
 59 65  1  0  0  0  0
 60 77  1  0  0  0  0
 61 68  1  0  0  0  0
 62 86  1  0  0  0  0
 63 65  1  0  0  0  0
 63 76  1  0  0  0  0
 64 77  1  0  0  0  0
 66 67  1  0  0  0  0
M  CHG  1  77   1
M  ISO  4  40 100  62 101  74 100  86 101
M  END
> <Batch ID>
0058

> <Smiles>
CNC(C)C(=O)NC(C(=O)N1Cc2cc([101O:1][101CH2:1]C3(C(N)=O)CCN(Cc4cccc([100NH:0][100C:0](=O)N5CCCC(n6nc(-c7ccc(Oc8ccc(F)cc8F)cc7)c(C(N)=O)c6N)C5)c4)C3=O)ccc2CC1C(=O)NC1CCCc2ccccc21)C(C)(C)C

> <Shape>
0.299

> <Color>
0.069

> <Negative vol penalty>
0.000

$$$$

  -OEChem-04042322583D

 85 93  0     1  0  0  0  0  0999 V2000
  -28.6281  -33.7298   24.8947 C   0  0  0  0  0  0  0  0  0  0  0  0
  -28.2366  -32.4186   24.6439 C   0  0  0  0  0  0  0  0  0  0  0  0
  -30.8475  -19.0868   18.3847 C   0  0  0  0  0  0  0  0  0  0  0  0
  -23.2135   -9.8396   21.4465 C   0  0  0  0  0  0  0  0  0  0  0  0
  -23.9312  -10.7870   23.5499 C   0  0  0  0  0  0  0  0  0  0  0  0
  -27.8070  -34.7876   24.5063 C   0  0  0  0  0  0  0  0  0  0  0  0
  -27.0232  -32.1644   24.0056 C   0  0  0  0  0  0  0  0  0  0  0  0
  -27.4329  -28.6506   20.3820 C   0  0  0  0  0  0  0  0  0  0  0  0
  -30.0612  -20.1234   18.8877 C   0  0  0  0  0  0  0  0  0  0  0  0
  -30.7520  -17.8087   18.9353 C   0  0  0  0  0  0  0  0  0  0  0  0
  -22.5427   -8.8266   22.1316 C   0  0  0  0  0  0  0  0  0  0  0  0
  -23.2604   -9.7740   24.2350 C   0  0  0  0  0  0  0  0  0  0  0  0
  -27.4890  -27.3186   20.7901 C   0  0  0  0  0  0  0  0  0  0  0  0
  -23.3266   -5.9276   23.6827 C   0  0  0  0  0  0  0  0  0  0  0  0
  -23.4773   -4.6215   23.2169 C   0  0  0  0  0  0  0  0  0  0  0  0
  -25.1500  -27.0634   20.2582 C   0  0  0  0  0  0  0  0  0  0  0  0
  -21.0935   -4.4770   22.8510 C   0  0  0  0  0  0  0  0  0  0  0  0
  -23.9078  -10.8198   22.1556 C   0  0  0  0  0  0  0  0  0  0  0  0
  -29.0842  -18.6038   20.4919 C   0  0  0  0  0  0  0  0  0  0  0  0
  -24.0851  -13.1174   21.0613 C   0  0  0  0  0  0  0  0  0  0  0  0
  -26.5874  -34.5465   23.8543 C   0  0  0  0  0  0  0  0  0  0  0  0
  -26.2303  -29.2029   19.9184 C   0  0  0  0  0  0  0  0  0  0  0  0
  -26.1844  -33.2199   23.6094 C   0  0  0  0  0  0  0  0  0  0  0  0
  -25.0819  -28.4019   19.8424 C   0  0  0  0  0  0  0  0  0  0  0  0
  -29.1796  -19.8819   19.9413 C   0  0  0  0  0  0  0  0  0  0  0  0
  -29.8704  -17.5672   19.9889 C   0  0  0  0  0  0  0  0  0  0  0  0
  -22.5661   -8.7938   23.5258 C   0  0  0  0  0  0  0  0  0  0  0  0
  -26.3468  -26.5256   20.7310 C   0  0  0  0  0  0  0  0  0  0  0  0
  -22.0594   -6.5084   23.7327 C   0  0  0  0  0  0  0  0  0  0  0  0
  -22.3608   -3.8962   22.8010 C   0  0  0  0  0  0  0  0  0  0  0  0
  -20.9428   -5.7831   23.3168 C   0  0  0  0  0  0  0  0  0  0  0  0
  -24.6014  -11.8662   21.4484 C   0  0  0  0  0  0  0  0  0  0  0  0
  -25.1318  -13.7389   20.4252 C   0  0  0  0  0  0  0  0  0  0  0  0
  -27.4122  -23.0894   20.7619 C   0  0  0  0  0  0  0  0  0  0  0  0
  -27.2581  -24.3865   20.4772 C   0  0  0  0  0  0  0  0  0  1  0  0
  -22.7764  -13.6686   21.2591 C   0  0  0  0  0  0  0  0  0  0  0  0
  -28.1628  -18.3513   21.5979 C   0  0  0  0  0  0  0  0  0  0  0  0
  -28.3825  -22.2658   19.9832 C   0  0  0  0  0  0  0  0  0  0  0  0
  -24.3287  -31.5625   20.8776 C   0  0  0  0  0  0  0  0  0  0  0  0
  -22.7686  -30.9072   18.1102 C   0  0  0  0  0  0  0  0  0  0  0  0
  -22.0456  -28.6477   15.6569 C   0  0  0  0  0  0  0  0  0  0  0  0
  -30.5137  -15.1356   20.1285 C   0  0  0  0  0  0  0  0  0  0  0  0
  -25.7115  -35.7208   23.4957 C   0  0  0  0  0  0  0  0  0  0  0  0
  -26.1928  -30.6339   19.4567 C   0  0  0  0  0  0  0  0  0  0  0  0
  -23.7711  -28.9414   19.3332 C   0  0  0  0  0  0  0  0  0  0  0  0
  -24.6163  -35.3787   22.4889 C   0  0  0  0  0  0  0  0  0  0  0  0
  -29.6016  -11.9229   18.8939 C   0  0  0  0  0  0  0  0  0  0  0  0
  -23.9101  -34.0865   22.8867 C   0  0  0  0  0  0  0  0  0  0  0  0
  -28.1770  -11.7247   19.4166 C   0  0  0  0  0  0  0  0  0  0  0  0
  -30.4787  -12.6610   19.9038 C   0  0  0  0  0  0  0  0  0  0  0  0
  -28.5045  -13.7346   20.9133 C   0  0  0  0  0  0  0  0  0  0  0  0
  -24.8870  -32.9045   22.8971 C   0  0  1  0  0  0  0  0  0  0  0  0
  -24.7908  -31.2347   19.4860 C   0  0  1  0  0  0  0  0  0  0  0  0
  -27.5658  -13.0529   19.9045 C   0  0  2  0  0  0  0  0  0  0  0  0
  -20.7116  -28.3900   13.5470 C   0  0  0  0  0  0  0  0  0  0  0  0
  -20.2168  -30.6313   19.7602 C   0  0  0  0  0  0  0  0  0  0  0  0
  -19.1631  -29.4707   17.8080 C   0  0  0  0  0  0  0  0  0  0  0  0
  -19.9288  -31.8344   17.5867 C   0  0  0  0  0  0  0  0  0  0  0  0
  -24.4751  -28.1384   14.0454 C   0  0  0  0  0  0  0  0  0  0  0  0
  -21.6450  -29.9820   17.7096 C   0  0  1  0  0  0  0  0  0  0  0  0
  -22.0593  -28.7651   14.1434 C   0  0  2  0  0  0  0  0  0  0  0  0
  -20.2625  -30.4697   18.2276 C   0  0  0  0  0  0  0  0  0  0  0  0
  -25.8769  -11.7010   21.0882 N   0  0  0  0  0  0  0  0  0  0  0  0
  -26.1709  -12.8564   20.4680 N   0  0  0  0  0  0  0  0  0  0  0  0
  -23.7837  -30.3482   18.8994 N   0  0  0  0  0  0  0  0  0  0  0  0
  -29.8380  -13.9114   20.3173 N   0  0  0  0  0  0  0  0  0  0  0  0
  -25.2556  -14.9486   19.8390 N   0  0  0  0  0  0  0  0  0  0  0  0
  -21.8206  -12.8956   21.9325 N   0  0  0  0  0  0  0  0  0  0  0  0
  -28.3922  -20.9521   20.4326 N   0  0  0  0  0  0  0  0  0  0  0  0
  -29.7928  -16.2598   20.5296 N   0  0  0  0  0  0  0  0  0  0  0  0
  -25.1472  -32.4520   21.5473 N   0  0  0  0  0  0  0  0  0  0  0  0
  -21.7256  -29.8460   16.2593 N   0  0  0  0  0  0  0  0  0  0  0  0
  -23.0966  -27.8659   13.5635 N   0  3  0  0  0  0  0  0  0  0  0  0
  -22.4588  -14.8061   20.8364 O   0  0  0  0  0  0  0  0  0  0  0  0
  -27.1108  -18.9496   21.7835 O   0  0  0  0  0  0  0  0  0  0  0  0
  -29.0488  -22.7554   19.0788 O   0  0  0  0  0  0  0  0  0  0  0  0
  -23.3047  -31.0478   21.3112 O   0  0  0  0  0  0  0  0  0  0  0  0
  -22.7500  -32.0808   17.7307 O   0  0  0  0  0  0  0  0  0  0  0  0
  -22.2903  -27.5970   16.2457 O   0  0  0  0  0  0  0  0  0  0  0  0
  -31.6372  -15.1852   19.6214 O   0  0  0  0  0  0  0  0  0  0  0  0
  -21.9115   -7.8055   24.1947 O   0  0  0  0  0  0  0  0  0  0  0  0
  -26.3986  -25.2254   21.1293 O   0  0  0  0  0  0  0  0  0  1  0  0
  -22.5058   -2.6426   22.3522 F   0  0  0  0  0  0  0  0  0  0  0  0
  -19.7230   -6.3362   23.3615 F   0  0  0  0  0  0  0  0  0  0  0  0
  -28.4782  -17.3930   22.4862 F   0  0  0  0  0  0  0  0  0  0  0  0
  1  2  1  0  0  0  0
  1  6  2  0  0  0  0
  2  7  2  0  0  0  0
  3  9  2  0  0  0  0
  3 10  1  0  0  0  0
  4 11  2  0  0  0  0
  4 18  1  0  0  0  0
  5 12  1  0  0  0  0
  5 18  2  0  0  0  0
  6 21  1  0  0  0  0
  7 23  1  0  0  0  0
  8 13  2  0  0  0  0
  8 22  1  0  0  0  0
  9 25  1  0  0  0  0
 10 26  2  0  0  0  0
 11 27  1  0  0  0  0
 12 27  2  0  0  0  0
 13 28  1  0  0  0  0
 14 15  2  0  0  0  0
 14 29  1  0  0  0  0
 15 30  1  0  0  0  0
 16 24  1  0  0  0  0
 16 28  2  0  0  0  0
 17 30  2  0  0  0  0
 17 31  1  0  0  0  0
 18 32  1  0  0  0  0
 19 25  2  0  0  0  0
 19 26  1  0  0  0  0
 19 37  1  0  0  0  0
 20 32  1  0  0  0  0
 20 33  2  0  0  0  0
 20 36  1  0  0  0  0
 21 23  2  0  0  0  0
 21 43  1  0  0  0  0
 22 24  2  0  0  0  0
 22 44  1  0  0  0  0
 23 52  1  0  0  0  0
 24 45  1  0  0  0  0
 25 69  1  0  0  0  0
 26 70  1  0  0  0  0
 27 81  1  0  0  0  0
 28 82  1  0  0  0  0
 29 31  2  0  0  0  0
 29 81  1  0  0  0  0
 30 83  1  0  0  0  0
 31 84  1  0  0  0  0
 32 63  2  0  0  0  0
 33 64  1  0  0  0  0
 33 67  1  0  0  0  0
 34 35  2  0  0  0  0
 34 38  1  0  0  0  0
 35 82  1  0  0  0  0
 36 68  1  0  0  0  0
 36 74  2  0  0  0  0
 37 75  2  0  0  0  0
 37 85  1  0  0  0  0
 38 69  1  0  0  0  0
 38 76  2  0  0  0  0
 39 53  1  0  0  0  0
 39 71  1  0  0  0  0
 39 77  2  0  0  0  0
 40 60  1  0  0  0  0
 40 65  1  0  0  0  0
 40 78  2  0  0  0  0
 41 61  1  0  0  0  0
 41 72  1  0  0  0  0
 41 79  2  0  0  0  0
 42 66  1  0  0  0  0
 42 70  1  0  0  0  0
 42 80  2  0  0  0  0
 43 46  1  0  0  0  0
 44 53  1  0  0  0  0
 45 65  1  0  0  0  0
 46 48  1  0  0  0  0
 47 49  1  0  0  0  0
 47 50  1  0  0  0  0
 48 52  1  0  0  0  0
 49 54  1  0  0  0  0
 50 66  1  0  0  0  0
 51 54  1  0  0  0  0
 51 66  1  0  0  0  0
 52 71  1  0  0  0  0
 53 65  1  0  0  0  0
 54 64  1  0  0  0  0
 55 61  1  0  0  0  0
 56 62  1  0  0  0  0
 57 62  1  0  0  0  0
 58 62  1  0  0  0  0
 59 73  1  0  0  0  0
 60 62  1  0  0  0  0
 60 72  1  0  0  0  0
 61 73  1  0  0  0  0
 63 64  1  0  0  0  0
M  CHG  1  73   1
M  ISO  4  35 101  42 100  70 100  82 101
M  END
> <Batch ID>
0058

> <Smiles>
CNC(C)C(=O)NC(C(=O)N1Cc2cc([101O:1][101CH:1]=CC(=O)Nc3cccc([100NH:0][100C:0](=O)N4CCCC(n5nc(-c6ccc(Oc7ccc(F)cc7F)cc6)c(C(N)=O)c5N)C4)c3C(=O)F)ccc2CC1C(=O)NC1CCCc2ccccc21)C(C)(C)C

> <Shape>
0.325

> <Color>
0.189

> <Negative vol penalty>
0.000

$$$$

  -OEChem-04042322583D

 84 92  0     1  0  0  0  0  0999 V2000
  -21.4924  -35.3324   21.9634 C   0  0  0  0  0  0  0  0  0  0  0  0
  -22.3052  -34.3591   21.3910 C   0  0  0  0  0  0  0  0  0  0  0  0
  -24.7649   -8.6273   20.8408 C   0  0  0  0  0  0  0  0  0  0  0  0
  -23.0341  -10.1813   20.1877 C   0  0  0  0  0  0  0  0  0  0  0  0
  -21.9703  -36.1036   23.0220 C   0  0  0  0  0  0  0  0  0  0  0  0
  -23.5968  -34.1573   21.8763 C   0  0  0  0  0  0  0  0  0  0  0  0
  -24.7128  -29.2508   22.4473 C   0  0  0  0  0  0  0  0  0  0  0  0
  -27.4991  -20.6664   16.9788 C   0  0  0  0  0  0  0  0  0  0  0  0
  -23.7918   -7.7019   21.2178 C   0  0  0  0  0  0  0  0  0  0  0  0
  -22.0610   -9.2558   20.5646 C   0  0  0  0  0  0  0  0  0  0  0  0
  -25.0409  -28.5344   21.2971 C   0  0  0  0  0  0  0  0  0  0  0  0
  -21.7220   -7.1934   23.8411 C   0  0  0  0  0  0  0  0  0  0  0  0
  -27.4180  -19.4128   16.3726 C   0  0  0  0  0  0  0  0  0  0  0  0
  -21.8909   -6.5366   25.0600 C   0  0  0  0  0  0  0  0  0  0  0  0
  -27.3819  -28.7496   21.8380 C   0  0  0  0  0  0  0  0  0  0  0  0
  -27.8442  -19.6073   19.1227 C   0  0  0  0  0  0  0  0  0  0  0  0
  -21.9298   -4.4122   23.9099 C   0  0  0  0  0  0  0  0  0  0  0  0
  -24.3861   -9.8671   20.3258 C   0  0  0  0  0  0  0  0  0  0  0  0
  -25.9904  -10.9594   18.6703 C   0  0  0  0  0  0  0  0  0  0  0  0
  -23.2649  -35.9045   23.5269 C   0  0  0  0  0  0  0  0  0  0  0  0
  -25.7190  -29.7322   23.2972 C   0  0  0  0  0  0  0  0  0  0  0  0
  -24.0928  -34.9275   22.9419 C   0  0  0  0  0  0  0  0  0  0  0  0
  -27.0639  -29.4696   22.9997 C   0  0  0  0  0  0  0  0  0  0  0  0
  -27.7123  -20.7636   18.3539 C   0  0  0  0  0  0  0  0  0  0  0  0
  -27.7630  -18.3537   18.5165 C   0  0  0  0  0  0  0  0  0  0  0  0
  -22.4398   -8.0161   21.0797 C   0  0  0  0  0  0  0  0  0  0  0  0
  -26.3756  -28.2862   20.9908 C   0  0  0  0  0  0  0  0  0  0  0  0
  -21.6569   -6.4596   22.6566 C   0  0  0  0  0  0  0  0  0  0  0  0
  -21.9948   -5.1460   25.0944 C   0  0  0  0  0  0  0  0  0  0  0  0
  -27.5500  -18.2564   17.1414 C   0  0  0  0  0  0  0  0  0  0  0  0
  -21.7608   -5.0690   22.6910 C   0  0  0  0  0  0  0  0  0  0  0  0
  -25.3909  -10.8237   19.9368 C   0  0  0  0  0  0  0  0  0  0  0  0
  -26.8709  -12.0032   18.8173 C   0  0  0  0  0  0  0  0  0  0  0  0
  -27.8290  -24.3807   19.3517 C   0  0  0  0  0  0  0  0  0  0  0  0
  -27.7549  -25.6615   18.9643 C   0  0  0  0  0  0  0  0  0  0  0  0
  -25.7708  -10.2091   17.4684 C   0  0  0  0  0  0  0  0  0  0  0  0
  -27.6856  -23.2778   18.3554 C   0  0  0  0  0  0  0  0  0  0  0  0
  -26.6577  -32.6142   24.2546 C   0  0  0  0  0  0  0  0  0  0  0  0
  -28.6289  -30.9040   26.1812 C   0  0  0  0  0  0  0  0  0  0  0  0
  -30.2889  -27.9799   26.7650 C   0  0  0  0  0  0  0  0  0  0  0  0
  -28.1131  -17.1031   20.6752 C   0  0  0  0  0  0  0  0  0  0  0  0
  -23.7542  -36.7949   24.6416 C   0  0  0  0  0  0  0  0  0  0  0  0
  -25.3476  -30.4803   24.5481 C   0  0  0  0  0  0  0  0  0  0  0  0
  -28.1809  -29.9471   23.8901 C   0  0  0  0  0  0  0  0  0  0  0  0
  -25.0014  -36.2630   25.3430 C   0  0  0  0  0  0  0  0  0  0  0  0
  -28.4628  -14.4090   22.9766 C   0  0  0  0  0  0  0  0  0  0  0  0
  -26.0360  -35.8066   24.3192 C   0  0  0  0  0  0  0  0  0  0  0  0
  -27.7441  -13.2472   22.2867 C   0  0  0  0  0  0  0  0  0  0  0  0
  -27.7597  -15.7414   22.7235 C   0  0  0  0  0  0  0  0  0  0  0  0
  -26.7967  -14.8941   20.6202 C   0  0  0  0  0  0  0  0  0  0  0  0
  -25.4909  -34.6618   23.4568 C   0  0  1  0  0  0  0  0  0  0  0  0
  -26.4740  -31.3663   25.0711 C   0  0  1  0  0  0  0  0  0  0  0  0
  -27.5046  -13.5402   20.7926 C   0  0  2  0  0  0  0  0  0  0  0  0
  -31.8510  -26.8944   28.4018 C   0  0  0  0  0  0  0  0  0  0  0  0
  -30.9460  -32.5330   25.0467 C   0  0  0  0  0  0  0  0  0  0  0  0
  -32.5148  -30.8120   25.9660 C   0  0  0  0  0  0  0  0  0  0  0  0
  -31.0644  -32.1274   27.5116 C   0  0  0  0  0  0  0  0  0  0  0  0
  -28.3329  -25.8507   27.3969 C   0  0  0  0  0  0  0  0  0  0  0  0
  -27.8957  -26.8121   19.9080 C   0  0  0  0  0  0  0  0  0  1  0  0
  -30.0243  -30.3420   26.0546 C   0  0  1  0  0  0  0  0  0  0  0  0
  -30.3988  -27.1147   28.0075 C   0  0  2  0  0  0  0  0  0  0  0  0
  -31.1166  -31.4462   26.1267 C   0  0  0  0  0  0  0  0  0  0  0  0
  -25.8518  -11.7103   20.8231 N   0  0  0  0  0  0  0  0  0  0  0  0
  -26.7503  -12.4131   20.1125 N   0  0  0  0  0  0  0  0  0  0  0  0
  -27.7671  -30.6796   25.0982 N   0  0  0  0  0  0  0  0  0  0  0  0
  -27.5706  -15.9531   21.2868 N   0  0  0  0  0  0  0  0  0  0  0  0
  -27.7289  -12.6012   17.9637 N   0  0  0  0  0  0  0  0  0  0  0  0
  -24.8303   -9.1702   17.4917 N   0  0  0  0  0  0  0  0  0  0  0  0
  -27.7945  -22.0369   18.9693 N   0  0  0  0  0  0  0  0  0  0  0  0
  -27.8977  -17.1805   19.2996 N   0  0  0  0  0  0  0  0  0  0  0  0
  -25.5327  -33.4138   24.1883 N   0  0  0  0  0  0  0  0  0  0  0  0
  -30.1452  -29.3139   27.0826 N   0  0  0  0  0  0  0  0  0  0  0  0
  -29.7693  -25.7849   27.7701 N   0  3  0  0  0  0  0  0  0  0  0  0
  -26.4022  -10.4420   16.4098 O   0  0  0  0  0  0  0  0  0  0  0  0
  -27.4981  -23.5135   17.1677 O   0  0  0  0  0  0  0  0  0  0  0  0
  -27.7404  -32.8360   23.7253 O   0  0  0  0  0  0  0  0  0  0  0  0
  -28.3130  -31.5131   27.2062 O   0  0  0  0  0  0  0  0  0  0  0  0
  -30.3305  -27.5188   25.6265 O   0  0  0  0  0  0  0  0  0  0  0  0
  -28.7472  -17.9428   21.3193 O   0  0  0  0  0  0  0  0  0  0  0  0
  -21.4900   -7.1131   21.4472 O   0  0  0  0  0  0  0  0  0  0  0  0
  -26.6986  -27.5877   19.8684 O   0  0  0  0  0  0  0  0  0  1  0  0
  -22.1586   -4.5156   26.2648 F   0  0  0  0  0  0  0  0  0  0  0  0
  -27.4699  -17.0572   16.5479 F   0  0  0  0  0  0  0  0  0  0  0  0
  -21.7002   -4.3588   21.5562 F   0  0  0  0  0  0  0  0  0  0  0  0
  1  2  1  0  0  0  0
  1  5  2  0  0  0  0
  2  6  2  0  0  0  0
  3  9  2  0  0  0  0
  3 18  1  0  0  0  0
  4 10  1  0  0  0  0
  4 18  2  0  0  0  0
  5 20  1  0  0  0  0
  6 22  1  0  0  0  0
  7 11  2  0  0  0  0
  7 21  1  0  0  0  0
  8 13  2  0  0  0  0
  8 24  1  0  0  0  0
  9 26  1  0  0  0  0
 10 26  2  0  0  0  0
 11 27  1  0  0  0  0
 12 14  2  0  0  0  0
 12 28  1  0  0  0  0
 13 30  1  0  0  0  0
 14 29  1  0  0  0  0
 15 23  1  0  0  0  0
 15 27  2  0  0  0  0
 16 24  2  0  0  0  0
 16 25  1  0  0  0  0
 17 29  2  0  0  0  0
 17 31  1  0  0  0  0
 18 32  1  0  0  0  0
 19 32  1  0  0  0  0
 19 33  2  0  0  0  0
 19 36  1  0  0  0  0
 20 22  2  0  0  0  0
 20 42  1  0  0  0  0
 21 23  2  0  0  0  0
 21 43  1  0  0  0  0
 22 51  1  0  0  0  0
 23 44  1  0  0  0  0
 24 69  1  0  0  0  0
 25 30  2  0  0  0  0
 25 70  1  0  0  0  0
 26 80  1  0  0  0  0
 27 81  1  0  0  0  0
 28 31  2  0  0  0  0
 28 80  1  0  0  0  0
 29 82  1  0  0  0  0
 30 83  1  0  0  0  0
 31 84  1  0  0  0  0
 32 63  2  0  0  0  0
 33 64  1  0  0  0  0
 33 67  1  0  0  0  0
 34 35  2  0  0  0  0
 34 37  1  0  0  0  0
 35 59  1  0  0  0  0
 36 68  1  0  0  0  0
 36 74  2  0  0  0  0
 37 69  1  0  0  0  0
 37 75  2  0  0  0  0
 38 52  1  0  0  0  0
 38 71  1  0  0  0  0
 38 76  2  0  0  0  0
 39 60  1  0  0  0  0
 39 65  1  0  0  0  0
 39 77  2  0  0  0  0
 40 61  1  0  0  0  0
 40 72  1  0  0  0  0
 40 78  2  0  0  0  0
 41 66  1  0  0  0  0
 41 70  1  0  0  0  0
 41 79  2  0  0  0  0
 42 45  1  0  0  0  0
 43 52  1  0  0  0  0
 44 65  1  0  0  0  0
 45 47  1  0  0  0  0
 46 48  1  0  0  0  0
 46 49  1  0  0  0  0
 47 51  1  0  0  0  0
 48 53  1  0  0  0  0
 49 66  1  0  0  0  0
 50 53  1  0  0  0  0
 50 66  1  0  0  0  0
 51 71  1  0  0  0  0
 52 65  1  0  0  0  0
 53 64  1  0  0  0  0
 54 61  1  0  0  0  0
 55 62  1  0  0  0  0
 56 62  1  0  0  0  0
 57 62  1  0  0  0  0
 58 73  1  0  0  0  0
 59 81  1  0  0  0  0
 60 62  1  0  0  0  0
 60 72  1  0  0  0  0
 61 73  1  0  0  0  0
 63 64  1  0  0  0  0
M  CHG  1  73   1
M  ISO  4  41 100  59 101  70 100  81 101
M  END
> <Batch ID>
0058

> <Smiles>
CNC(C)C(=O)NC(C(=O)N1Cc2cc([101O:1][101CH2:1]C=CC(=O)Nc3ccc(F)c([100NH:0][100C:0](=O)N4CCCC(n5nc(-c6ccc(Oc7ccc(F)cc7F)cc6)c(C(N)=O)c5N)C4)c3)ccc2CC1C(=O)NC1CCCc2ccccc21)C(C)(C)C

> <Shape>
0.264

> <Color>
0.079

> <Negative vol penalty>
0.000

$$$$

  -OEChem-04042322583D

 87 96  0     1  0  0  0  0  0999 V2000
  -30.7668  -31.8075   12.9963 C   0  0  0  0  0  0  0  0  0  0  0  0
  -30.7927  -31.0197   14.1426 C   0  0  0  0  0  0  0  0  0  0  0  0
  -22.6427  -10.3713   20.2122 C   0  0  0  0  0  0  0  0  0  0  0  0
  -24.2667   -9.5525   21.8026 C   0  0  0  0  0  0  0  0  0  0  0  0
  -29.5519  -32.2885   12.5097 C   0  0  0  0  0  0  0  0  0  0  0  0
  -29.6038  -30.7132   14.8037 C   0  0  0  0  0  0  0  0  0  0  0  0
  -29.3196  -25.8338   16.1285 C   0  0  0  0  0  0  0  0  0  0  0  0
  -31.6292  -18.9084   20.7980 C   0  0  0  0  0  0  0  0  0  0  0  0
  -30.0523  -19.0567   22.6225 C   0  0  0  0  0  0  0  0  0  0  0  0
  -31.4114  -17.5328   20.7216 C   0  0  0  0  0  0  0  0  0  0  0  0
  -29.8345  -17.6810   22.5460 C   0  0  0  0  0  0  0  0  0  0  0  0
  -21.8646   -9.2326   20.4205 C   0  0  0  0  0  0  0  0  0  0  0  0
  -23.4885   -8.4138   22.0110 C   0  0  0  0  0  0  0  0  0  0  0  0
  -30.0396  -25.4368   17.2545 C   0  0  0  0  0  0  0  0  0  0  0  0
  -20.7090   -7.5812   23.7435 C   0  0  0  0  0  0  0  0  0  0  0  0
  -20.5096   -7.1665   25.0602 C   0  0  0  0  0  0  0  0  0  0  0  0
  -28.0202  -25.5294   18.5709 C   0  0  0  0  0  0  0  0  0  0  0  0
  -21.5528   -5.0476   24.5508 C   0  0  0  0  0  0  0  0  0  0  0  0
  -23.8438  -10.5312   20.9032 C   0  0  0  0  0  0  0  0  0  0  0  0
  -24.2732  -13.0458   20.9084 C   0  0  0  0  0  0  0  0  0  0  0  0
  -28.3465  -31.9797   13.1596 C   0  0  0  0  0  0  0  0  0  0  0  0
  -27.9443  -26.0926   16.2179 C   0  0  0  0  0  0  0  0  0  0  0  0
  -28.3718  -31.1916   14.3261 C   0  0  0  0  0  0  0  0  0  0  0  0
  -27.2846  -25.9271   17.4440 C   0  0  0  0  0  0  0  0  0  0  0  0
  -30.9497  -19.6703   21.7485 C   0  0  0  0  0  0  0  0  0  0  0  0
  -30.5140  -16.9191   21.5955 C   0  0  0  0  0  0  0  0  0  0  0  0
  -22.2874   -8.2539   21.3199 C   0  0  0  0  0  0  0  0  0  0  0  0
  -29.3905  -25.2873   18.4766 C   0  0  0  0  0  0  0  0  0  0  0  0
  -21.3302   -6.7292   22.8304 C   0  0  0  0  0  0  0  0  0  0  0  0
  -20.9315   -5.8997   25.4639 C   0  0  0  0  0  0  0  0  0  0  0  0
  -21.7521   -5.4624   23.2340 C   0  0  0  0  0  0  0  0  0  0  0  0
  -24.6484  -11.7070   20.6880 C   0  0  0  0  0  0  0  0  0  0  0  0
  -25.3819  -13.7757   20.5553 C   0  0  0  0  0  0  0  0  0  0  0  0
  -31.4590  -23.1909   20.5767 C   0  0  0  0  0  0  0  0  0  0  0  0
  -30.9167  -21.9513   20.7418 C   0  0  0  0  0  0  0  0  0  0  0  0
  -31.5522  -22.6854   23.6373 C   0  0  0  0  0  0  0  0  0  0  0  0
  -23.0334  -13.5818   21.3893 C   0  0  0  0  0  0  0  0  0  0  0  0
  -26.1073  -28.6448   15.7540 C   0  0  0  0  0  0  0  0  0  0  0  0
  -23.7046  -26.5194   16.2354 C   0  0  0  0  0  0  0  0  0  0  0  0
  -23.0332  -23.7648   18.4667 C   0  0  0  0  0  0  0  0  0  0  0  0
  -30.8849  -14.6205   20.6336 C   0  0  0  0  0  0  0  0  0  0  0  0
  -27.0628  -32.5617   12.6231 C   0  0  0  0  0  0  0  0  0  0  0  0
  -27.1769  -26.4942   14.9881 C   0  0  0  0  0  0  0  0  0  0  0  0
  -25.8057  -26.1728   17.5884 C   0  0  0  0  0  0  0  0  0  0  0  0
  -32.3821  -23.8403   21.5823 C   0  0  0  0  0  0  0  0  0  0  0  0
  -32.0174  -21.4033   22.9899 C   0  0  0  0  0  0  0  0  0  0  0  0
  -25.8103  -31.8807   13.1690 C   0  0  0  0  0  0  0  0  0  0  0  0
  -29.6233  -12.3787   18.1719 C   0  0  0  0  0  0  0  0  0  0  0  0
  -25.9119  -31.7097   14.6813 C   0  0  0  0  0  0  0  0  0  0  0  0
  -28.1857  -12.1142   18.6252 C   0  0  0  0  0  0  0  0  0  0  0  0
  -30.5769  -12.5102   19.3582 C   0  0  0  0  0  0  0  0  0  0  0  0
  -28.7337  -13.2242   20.8285 C   0  0  0  0  0  0  0  0  0  0  0  0
  -27.1008  -30.8169   15.0570 C   0  0  1  0  0  0  0  0  0  0  0  0
  -25.8784  -27.2286   15.3074 C   0  0  1  0  0  0  0  0  0  0  0  0
  -27.7251  -13.1488   19.6706 C   0  0  2  0  0  0  0  0  0  0  0  0
  -29.8761  -21.4689   19.7386 C   0  0  0  0  0  0  0  0  0  0  0  0
  -21.5892  -21.7348   18.1642 C   0  0  0  0  0  0  0  0  0  0  0  0
  -21.5611  -28.1951   17.6165 C   0  0  0  0  0  0  0  0  0  0  0  0
  -20.8127  -26.1264   18.8116 C   0  0  0  0  0  0  0  0  0  0  0  0
  -20.6857  -26.2419   16.3230 C   0  0  0  0  0  0  0  0  0  0  0  0
  -25.2769  -21.9346   19.0791 C   0  0  0  0  0  0  0  0  0  0  0  0
  -31.2263  -24.0630   19.3635 C   0  0  0  0  0  0  0  0  0  1  0  0
  -22.9431  -26.0214   17.4400 C   0  0  1  0  0  0  0  0  0  0  0  0
  -23.0037  -22.2903   18.1070 C   0  0  2  0  0  0  0  0  0  0  0  0
  -21.5276  -26.6552   17.5499 C   0  0  0  0  0  0  0  0  0  0  0  0
  -25.8977  -11.5903   20.2302 N   0  0  0  0  0  0  0  0  0  0  0  0
  -26.3172  -12.8651   20.1600 N   0  0  0  0  0  0  0  0  0  0  0  0
  -31.7730  -23.8259   22.8977 N   0  0  0  0  0  0  0  0  0  0  0  0
  -31.1741  -21.0786   21.8283 N   0  0  0  0  0  0  0  0  0  0  0  0
  -25.1003  -26.5699   16.3586 N   0  0  0  0  0  0  0  0  0  0  0  0
  -30.0783  -13.5107   20.3044 N   0  0  0  0  0  0  0  0  0  0  0  0
  -25.6382  -15.1011   20.5475 N   0  0  0  0  0  0  0  0  0  0  0  0
  -22.8727  -13.7580   22.7704 N   0  0  0  0  0  0  0  0  0  0  0  0
  -30.2927  -15.5217   21.5177 N   0  0  0  0  0  0  0  0  0  0  0  0
  -26.7783  -29.4243   14.8312 N   0  0  0  0  0  0  0  0  0  0  0  0
  -22.9404  -24.5654   17.3479 N   0  0  0  0  0  0  0  0  0  0  0  0
  -23.8536  -21.5099   19.0502 N   0  3  0  0  0  0  0  0  0  0  0  0
  -31.0178  -22.6942   24.7454 O   0  0  0  0  0  0  0  0  0  0  0  0
  -22.0898  -13.8799   20.6185 O   0  0  0  0  0  0  0  0  0  0  0  0
  -25.7037  -29.0042   16.8539 O   0  0  0  0  0  0  0  0  0  0  0  0
  -23.0844  -26.8446   15.2199 O   0  0  0  0  0  0  0  0  0  0  0  0
  -23.1252  -24.1662   19.6247 O   0  0  0  0  0  0  0  0  0  0  0  0
  -32.0069  -14.7752   20.1444 O   0  0  0  0  0  0  0  0  0  0  0  0
  -21.5282   -7.1427   21.5237 O   0  0  0  0  0  0  0  0  0  0  0  0
  -30.0909  -24.9006   19.5773 O   0  0  0  0  0  0  0  0  0  1  0  0
  -20.7413   -5.5021   26.7288 F   0  0  0  0  0  0  0  0  0  0  0  0
  -22.3506   -4.6399   22.3616 F   0  0  0  0  0  0  0  0  0  0  0  0
  1  2  1  0  0  0  0
  1  5  2  0  0  0  0
  2  6  2  0  0  0  0
  3 12  2  0  0  0  0
  3 19  1  0  0  0  0
  4 13  1  0  0  0  0
  4 19  2  0  0  0  0
  5 21  1  0  0  0  0
  6 23  1  0  0  0  0
  7 14  2  0  0  0  0
  7 22  1  0  0  0  0
  8 10  2  0  0  0  0
  8 25  1  0  0  0  0
  9 11  1  0  0  0  0
  9 25  2  0  0  0  0
 10 26  1  0  0  0  0
 11 26  2  0  0  0  0
 12 27  1  0  0  0  0
 13 27  2  0  0  0  0
 14 28  1  0  0  0  0
 15 16  2  0  0  0  0
 15 29  1  0  0  0  0
 16 30  1  0  0  0  0
 17 24  1  0  0  0  0
 17 28  2  0  0  0  0
 18 30  2  0  0  0  0
 18 31  1  0  0  0  0
 19 32  1  0  0  0  0
 20 32  1  0  0  0  0
 20 33  2  0  0  0  0
 20 37  1  0  0  0  0
 21 23  2  0  0  0  0
 21 42  1  0  0  0  0
 22 24  2  0  0  0  0
 22 43  1  0  0  0  0
 23 53  1  0  0  0  0
 24 44  1  0  0  0  0
 25 69  1  0  0  0  0
 26 74  1  0  0  0  0
 27 84  1  0  0  0  0
 28 85  1  0  0  0  0
 29 31  2  0  0  0  0
 29 84  1  0  0  0  0
 30 86  1  0  0  0  0
 31 87  1  0  0  0  0
 32 66  2  0  0  0  0
 33 67  1  0  0  0  0
 33 72  1  0  0  0  0
 34 35  2  0  0  0  0
 34 45  1  0  0  0  0
 34 62  1  0  0  0  0
 35 56  1  0  0  0  0
 35 69  1  0  0  0  0
 36 46  1  0  0  0  0
 36 68  1  0  0  0  0
 36 78  2  0  0  0  0
 37 73  1  0  0  0  0
 37 79  2  0  0  0  0
 38 54  1  0  0  0  0
 38 75  1  0  0  0  0
 38 80  2  0  0  0  0
 39 63  1  0  0  0  0
 39 70  1  0  0  0  0
 39 81  2  0  0  0  0
 40 64  1  0  0  0  0
 40 76  1  0  0  0  0
 40 82  2  0  0  0  0
 41 71  1  0  0  0  0
 41 74  1  0  0  0  0
 41 83  2  0  0  0  0
 42 47  1  0  0  0  0
 43 54  1  0  0  0  0
 44 70  1  0  0  0  0
 45 68  1  0  0  0  0
 46 69  1  0  0  0  0
 47 49  1  0  0  0  0
 48 50  1  0  0  0  0
 48 51  1  0  0  0  0
 49 53  1  0  0  0  0
 50 55  1  0  0  0  0
 51 71  1  0  0  0  0
 52 55  1  0  0  0  0
 52 71  1  0  0  0  0
 53 75  1  0  0  0  0
 54 70  1  0  0  0  0
 55 67  1  0  0  0  0
 57 64  1  0  0  0  0
 58 65  1  0  0  0  0
 59 65  1  0  0  0  0
 60 65  1  0  0  0  0
 61 77  1  0  0  0  0
 62 85  1  0  0  0  0
 63 65  1  0  0  0  0
 63 76  1  0  0  0  0
 64 77  1  0  0  0  0
 66 67  1  0  0  0  0
M  CHG  1  77   1
M  ISO  4  41 100  62 101  74 100  85 101
M  END
> <Batch ID>
0058

> <Smiles>
CNC(C)C(=O)NC(C(=O)N1Cc2cc([101O:1][101CH2:1]C3=C(C)N(c4ccc([100NH:0][100C:0](=O)N5CCCC(n6nc(-c7ccc(Oc8ccc(F)cc8F)cc7)c(C(N)=O)c6N)C5)cc4)CC(=O)NC3)ccc2CC1C(=O)NC1CCCc2ccccc21)C(C)(C)C

> <Shape>
0.228

> <Color>
0.184

> <Negative vol penalty>
0.000

$$$$

  -OEChem-04042322583D

 87 96  0     1  0  0  0  0  0999 V2000
  -20.1616  -35.6381   17.2983 C   0  0  0  0  0  0  0  0  0  0  0  0
  -20.6295  -34.3865   16.9111 C   0  0  0  0  0  0  0  0  0  0  0  0
  -21.6385  -13.5699   20.6916 C   0  0  0  0  0  0  0  0  0  0  0  0
  -22.4398  -15.3538   19.2730 C   0  0  0  0  0  0  0  0  0  0  0  0
  -20.8792  -36.3932   18.2251 C   0  0  0  0  0  0  0  0  0  0  0  0
  -21.8159  -33.8897   17.4497 C   0  0  0  0  0  0  0  0  0  0  0  0
  -24.9222  -27.7296   19.3788 C   0  0  0  0  0  0  0  0  0  0  0  0
  -30.8013  -20.9256   18.9531 C   0  0  0  0  0  0  0  0  0  0  0  0
  -30.3635  -19.9094   19.8023 C   0  0  0  0  0  0  0  0  0  0  0  0
  -20.3230  -13.9115   20.3781 C   0  0  0  0  0  0  0  0  0  0  0  0
  -21.1243  -15.6954   18.9595 C   0  0  0  0  0  0  0  0  0  0  0  0
  -26.0967  -27.0061   19.1768 C   0  0  0  0  0  0  0  0  0  0  0  0
  -18.0727  -16.2593   21.2990 C   0  0  0  0  0  0  0  0  0  0  0  0
  -17.1532  -16.3227   22.3460 C   0  0  0  0  0  0  0  0  0  0  0  0
  -27.2109  -28.3649   20.8295 C   0  0  0  0  0  0  0  0  0  0  0  0
  -29.5033  -18.6915   17.9013 C   0  0  0  0  0  0  0  0  0  0  0  0
  -15.8248  -14.6072   21.2832 C   0  0  0  0  0  0  0  0  0  0  0  0
  -22.6969  -14.2911   20.1391 C   0  0  0  0  0  0  0  0  0  0  0  0
  -24.6940  -12.7063   20.2282 C   0  0  0  0  0  0  0  0  0  0  0  0
  -22.0699  -35.9012   18.7826 C   0  0  0  0  0  0  0  0  0  0  0  0
  -24.8862  -28.7851   20.3014 C   0  0  0  0  0  0  0  0  0  0  0  0
  -22.5507  -34.6394   18.3838 C   0  0  0  0  0  0  0  0  0  0  0  0
  -26.0340  -29.0986   21.0432 C   0  0  0  0  0  0  0  0  0  0  0  0
  -30.5900  -20.8249   17.5780 C   0  0  0  0  0  0  0  0  0  0  0  0
  -29.9410  -19.7078   17.0521 C   0  0  0  0  0  0  0  0  0  0  0  0
  -29.7145  -18.7923   19.2764 C   0  0  0  0  0  0  0  0  0  0  0  0
  -20.0659  -14.9742   19.5120 C   0  0  0  0  0  0  0  0  0  0  0  0
  -27.2421  -27.3256   19.9000 C   0  0  0  0  0  0  0  0  0  0  0  0
  -17.8682  -15.3699   20.2440 C   0  0  0  0  0  0  0  0  0  0  0  0
  -16.0293  -15.4966   22.3381 C   0  0  0  0  0  0  0  0  0  0  0  0
  -16.7443  -14.5438   20.2362 C   0  0  0  0  0  0  0  0  0  0  0  0
  -24.0561  -13.9391   20.4631 C   0  0  0  0  0  0  0  0  0  0  0  0
  -25.9669  -12.8803   20.7140 C   0  0  0  0  0  0  0  0  0  0  0  0
  -32.2265  -23.9604   17.4685 C   0  0  0  0  0  0  0  0  0  0  0  0
  -24.1817  -11.5108   19.6249 C   0  0  0  0  0  0  0  0  0  0  0  0
  -24.3465  -31.9119   20.1126 C   0  0  0  0  0  0  0  0  0  0  0  0
  -24.5040  -31.7397   23.3480 C   0  0  0  0  0  0  0  0  0  0  0  0
  -25.6341  -30.0834   26.1096 C   0  0  0  0  0  0  0  0  0  0  0  0
  -29.4029  -17.7011   21.5255 C   0  0  0  0  0  0  0  0  0  0  0  0
  -22.8356  -36.7740   19.7453 C   0  0  0  0  0  0  0  0  0  0  0  0
  -23.6040  -29.5385   20.5270 C   0  0  0  0  0  0  0  0  0  0  0  0
  -26.0420  -30.2095   22.0603 C   0  0  0  0  0  0  0  0  0  0  0  0
  -32.1485  -25.2586   18.2479 C   0  0  0  0  0  0  0  0  0  0  0  0
  -23.8876  -36.0155   20.5504 C   0  0  0  0  0  0  0  0  0  0  0  0
  -30.7864  -25.9241   18.2303 C   0  0  0  0  0  0  0  0  0  0  0  0
  -28.4127  -15.3494   24.0087 C   0  0  0  0  0  0  0  0  0  0  0  0
  -24.7078  -35.1097   19.6374 C   0  0  0  0  0  0  0  0  0  0  0  0
  -27.2451  -14.6046   23.3576 C   0  0  0  0  0  0  0  0  0  0  0  0
  -28.4195  -16.8307   23.6351 C   0  0  0  0  0  0  0  0  0  0  0  0
  -29.7226  -23.7594   17.6665 C   0  0  0  0  0  0  0  0  0  0  0  0
  -27.2065  -16.3628   21.5425 C   0  0  0  0  0  0  0  0  0  0  0  0
  -23.8205  -34.0556   18.9643 C   0  0  1  0  0  0  0  0  0  0  0  0
  -23.8233  -30.9271   21.1196 C   0  0  1  0  0  0  0  0  0  0  0  0
  -29.7282  -24.9169   18.6601 C   0  0  2  0  0  0  0  0  0  0  0  0
  -27.1952  -14.8539   21.8374 C   0  0  2  0  0  0  0  0  0  0  0  0
  -29.7057  -19.5774   15.5830 C   0  0  0  0  0  0  0  0  0  0  0  0
  -25.6353  -30.2045   28.6161 C   0  0  0  0  0  0  0  0  0  0  0  0
  -26.6087  -33.9461   23.2380 C   0  0  0  0  0  0  0  0  0  0  0  0
  -27.2417  -33.3634   25.5892 C   0  0  0  0  0  0  0  0  0  0  0  0
  -24.9411  -34.1862   25.0863 C   0  0  0  0  0  0  0  0  0  0  0  0
  -24.2160  -27.4970   26.3509 C   0  0  0  0  0  0  0  0  0  0  0  0
  -31.0696  -21.9318   16.6842 C   0  0  0  0  0  0  0  0  0  0  0  0
  -28.3498  -25.5681   18.7424 C   0  0  0  0  0  0  0  0  0  1  0  0
  -25.6071  -31.8541   24.3723 C   0  0  1  0  0  0  0  0  0  0  0  0
  -24.9313  -29.6551   27.3851 C   0  0  2  0  0  0  0  0  0  0  0  0
  -26.1004  -33.3177   24.5509 C   0  0  0  0  0  0  0  0  0  0  0  0
  -24.8576  -14.8304   21.0523 N   0  0  0  0  0  0  0  0  0  0  0  0
  -26.0122  -14.1569   21.1919 N   0  0  0  0  0  0  0  0  0  0  0  0
  -31.0491  -23.2237   17.3573 N   0  0  0  0  0  0  0  0  0  0  0  0
  -24.7657  -30.9209   22.2403 N   0  0  0  0  0  0  0  0  0  0  0  0
  -28.3752  -16.9895   22.1799 N   0  0  0  0  0  0  0  0  0  0  0  0
  -27.0406  -12.0643   20.7747 N   0  0  0  0  0  0  0  0  0  0  0  0
  -22.8524  -11.5032   19.1807 N   0  0  0  0  0  0  0  0  0  0  0  0
  -29.2714  -17.7587   20.1384 N   0  0  0  0  0  0  0  0  0  0  0  0
  -23.5098  -32.9893   19.8921 N   0  0  0  0  0  0  0  0  0  0  0  0
  -25.0948  -31.2429   25.5939 N   0  0  0  0  0  0  0  0  0  0  0  0
  -24.9006  -28.1685   27.4855 N   0  3  0  0  0  0  0  0  0  0  0  0
  -33.3224  -23.5820   17.0458 O   0  0  0  0  0  0  0  0  0  0  0  0
  -24.8770  -10.4743   19.4988 O   0  0  0  0  0  0  0  0  0  0  0  0
  -25.4298  -31.7100   19.5765 O   0  0  0  0  0  0  0  0  0  0  0  0
  -23.4463  -32.3485   23.5278 O   0  0  0  0  0  0  0  0  0  0  0  0
  -26.5706  -29.4545   25.6216 O   0  0  0  0  0  0  0  0  0  0  0  0
  -30.3456  -18.1979   22.1471 O   0  0  0  0  0  0  0  0  0  0  0  0
  -18.7823  -15.3077   19.2057 O   0  0  0  0  0  0  0  0  0  0  0  0
  -28.3900  -26.6214   19.7043 O   0  0  0  0  0  0  0  0  0  1  0  0
  -15.1473  -15.5565   23.3444 F   0  0  0  0  0  0  0  0  0  0  0  0
  -16.5431  -13.6865   19.2261 F   0  0  0  0  0  0  0  0  0  0  0  0
  1  2  1  0  0  0  0
  1  5  2  0  0  0  0
  2  6  2  0  0  0  0
  3 10  2  0  0  0  0
  3 18  1  0  0  0  0
  4 11  1  0  0  0  0
  4 18  2  0  0  0  0
  5 20  1  0  0  0  0
  6 22  1  0  0  0  0
  7 12  2  0  0  0  0
  7 21  1  0  0  0  0
  8  9  2  0  0  0  0
  8 24  1  0  0  0  0
  9 26  1  0  0  0  0
 10 27  1  0  0  0  0
 11 27  2  0  0  0  0
 12 28  1  0  0  0  0
 13 14  2  0  0  0  0
 13 29  1  0  0  0  0
 14 30  1  0  0  0  0
 15 23  1  0  0  0  0
 15 28  2  0  0  0  0
 16 25  1  0  0  0  0
 16 26  2  0  0  0  0
 17 30  2  0  0  0  0
 17 31  1  0  0  0  0
 18 32  1  0  0  0  0
 19 32  1  0  0  0  0
 19 33  2  0  0  0  0
 19 35  1  0  0  0  0
 20 22  2  0  0  0  0
 20 40  1  0  0  0  0
 21 23  2  0  0  0  0
 21 41  1  0  0  0  0
 22 52  1  0  0  0  0
 23 42  1  0  0  0  0
 24 25  2  0  0  0  0
 24 62  1  0  0  0  0
 25 56  1  0  0  0  0
 26 74  1  0  0  0  0
 27 84  1  0  0  0  0
 28 85  1  0  0  0  0
 29 31  2  0  0  0  0
 29 84  1  0  0  0  0
 30 86  1  0  0  0  0
 31 87  1  0  0  0  0
 32 67  2  0  0  0  0
 33 68  1  0  0  0  0
 33 72  1  0  0  0  0
 34 43  1  0  0  0  0
 34 69  1  0  0  0  0
 34 78  2  0  0  0  0
 35 73  1  0  0  0  0
 35 79  2  0  0  0  0
 36 53  1  0  0  0  0
 36 75  1  0  0  0  0
 36 80  2  0  0  0  0
 37 64  1  0  0  0  0
 37 70  1  0  0  0  0
 37 81  2  0  0  0  0
 38 65  1  0  0  0  0
 38 76  1  0  0  0  0
 38 82  2  0  0  0  0
 39 71  1  0  0  0  0
 39 74  1  0  0  0  0
 39 83  2  0  0  0  0
 40 44  1  0  0  0  0
 41 53  1  0  0  0  0
 42 70  1  0  0  0  0
 43 45  1  0  0  0  0
 44 47  1  0  0  0  0
 45 54  1  0  0  0  0
 46 48  1  0  0  0  0
 46 49  1  0  0  0  0
 47 52  1  0  0  0  0
 48 55  1  0  0  0  0
 49 71  1  0  0  0  0
 50 54  1  0  0  0  0
 50 69  1  0  0  0  0
 51 55  1  0  0  0  0
 51 71  1  0  0  0  0
 52 75  1  0  0  0  0
 53 70  1  0  0  0  0
 54 63  1  0  0  0  0
 55 68  1  0  0  0  0
 57 65  1  0  0  0  0
 58 66  1  0  0  0  0
 59 66  1  0  0  0  0
 60 66  1  0  0  0  0
 61 77  1  0  0  0  0
 62 69  1  0  0  0  0
 63 85  1  0  0  0  0
 64 66  1  0  0  0  0
 64 76  1  0  0  0  0
 65 77  1  0  0  0  0
 67 68  1  0  0  0  0
M  CHG  1  77   1
M  ISO  4  39 100  63 101  74 100  85 101
M  END
> <Batch ID>
0058

> <Smiles>
CNC(C)C(=O)NC(C(=O)N1Cc2cc([101O:1][101CH2:1]C3CCC(=O)N(Cc4ccc([100NH:0][100C:0](=O)N5CCCC(n6nc(-c7ccc(Oc8ccc(F)cc8F)cc7)c(C(N)=O)c6N)C5)cc4C)C3)ccc2CC1C(=O)NC1CCCc2ccccc21)C(C)(C)C

> <Shape>
0.244

> <Color>
0.091

> <Negative vol penalty>
0.000

$$$$

  -OEChem-04042322583D

 83 91  0     1  0  0  0  0  0999 V2000
  -26.6947  -32.9117   27.9205 C   0  0  0  0  0  0  0  0  0  0  0  0
  -26.6913  -31.5307   27.7524 C   0  0  0  0  0  0  0  0  0  0  0  0
  -32.6387  -17.5197   23.2573 C   0  0  0  0  0  0  0  0  0  0  0  0
  -22.9675   -9.8812   20.0663 C   0  0  0  0  0  0  0  0  0  0  0  0
  -23.6088  -10.1112   22.3843 C   0  0  0  0  0  0  0  0  0  0  0  0
  -31.8538  -18.4931   23.8754 C   0  0  0  0  0  0  0  0  0  0  0  0
  -25.7868  -33.7008   27.2157 C   0  0  0  0  0  0  0  0  0  0  0  0
  -25.7792  -30.9379   26.8801 C   0  0  0  0  0  0  0  0  0  0  0  0
  -27.9145  -27.4128   23.9375 C   0  0  0  0  0  0  0  0  0  0  0  0
  -32.0458  -16.5722   22.4228 C   0  0  0  0  0  0  0  0  0  0  0  0
  -22.1712   -8.7843   20.3954 C   0  0  0  0  0  0  0  0  0  0  0  0
  -22.8124   -9.0143   22.7134 C   0  0  0  0  0  0  0  0  0  0  0  0
  -28.1621  -26.1675   24.5133 C   0  0  0  0  0  0  0  0  0  0  0  0
  -23.0130   -5.6445   22.5262 C   0  0  0  0  0  0  0  0  0  0  0  0
  -23.5540   -4.6841   23.3809 C   0  0  0  0  0  0  0  0  0  0  0  0
  -26.1667  -25.2969   23.4742 C   0  0  0  0  0  0  0  0  0  0  0  0
  -21.7747   -5.0905   24.9639 C   0  0  0  0  0  0  0  0  0  0  0  0
  -23.6864  -10.5447   21.0607 C   0  0  0  0  0  0  0  0  0  0  0  0
  -30.4761  -18.5190   23.6590 C   0  0  0  0  0  0  0  0  0  0  0  0
  -24.1236  -13.0310   20.6940 C   0  0  0  0  0  0  0  0  0  0  0  0
  -24.8695  -33.1183   26.3269 C   0  0  0  0  0  0  0  0  0  0  0  0
  -26.7833  -27.6128   23.1332 C   0  0  0  0  0  0  0  0  0  0  0  0
  -24.8572  -31.7199   26.1637 C   0  0  0  0  0  0  0  0  0  0  0  0
  -25.9084  -26.5451   22.8872 C   0  0  0  0  0  0  0  0  0  0  0  0
  -29.8832  -17.5714   22.8245 C   0  0  0  0  0  0  0  0  0  0  0  0
  -30.6681  -16.5980   22.2064 C   0  0  0  0  0  0  0  0  0  0  0  0
  -22.0937   -8.3509   21.7189 C   0  0  0  0  0  0  0  0  0  0  0  0
  -27.2867  -25.1101   24.2840 C   0  0  0  0  0  0  0  0  0  0  0  0
  -21.8529   -6.3281   22.8904 C   0  0  0  0  0  0  0  0  0  0  0  0
  -22.9349   -4.4071   24.5997 C   0  0  0  0  0  0  0  0  0  0  0  0
  -21.2337   -6.0510   24.1093 C   0  0  0  0  0  0  0  0  0  0  0  0
  -24.5096  -11.6775   20.7213 C   0  0  0  0  0  0  0  0  0  0  0  0
  -25.2589  -13.7042   20.3140 C   0  0  0  0  0  0  0  0  0  0  0  0
  -29.6812  -19.5569   24.3254 C   0  0  0  0  0  0  0  0  0  0  0  0
  -28.5948  -21.7671   24.5690 C   0  0  0  0  0  0  0  0  0  0  0  0
  -28.2803  -22.9974   24.1418 C   0  0  0  0  0  0  0  0  0  1  0  0
  -22.8525  -13.6266   20.9861 C   0  0  0  0  0  0  0  0  0  0  0  0
  -29.3964  -20.7847   23.8427 C   0  0  0  0  0  0  0  0  0  0  0  0
  -24.2122  -29.4742   23.3012 C   0  0  0  0  0  0  0  0  0  0  0  0
  -23.6261  -28.2682   20.3475 C   0  0  0  0  0  0  0  0  0  0  0  0
  -24.1066  -25.7447   18.1007 C   0  0  0  0  0  0  0  0  0  0  0  0
  -30.7428  -14.5982   20.6762 C   0  0  0  0  0  0  0  0  0  0  0  0
  -23.8758  -34.0079   25.6228 C   0  0  0  0  0  0  0  0  0  0  0  0
  -26.5447  -28.9550   22.4976 C   0  0  0  0  0  0  0  0  0  0  0  0
  -24.6907  -26.7024   22.0149 C   0  0  0  0  0  0  0  0  0  0  0  0
  -23.1914  -33.3361   24.4351 C   0  0  0  0  0  0  0  0  0  0  0  0
  -29.6658  -11.9789   18.5183 C   0  0  0  0  0  0  0  0  0  0  0  0
  -22.7180  -31.9363   24.8136 C   0  0  0  0  0  0  0  0  0  0  0  0
  -28.1966  -11.7784   18.8968 C   0  0  0  0  0  0  0  0  0  0  0  0
  -30.5258  -12.3077   19.7373 C   0  0  0  0  0  0  0  0  0  0  0  0
  -28.5776  -13.2329   20.9281 C   0  0  0  0  0  0  0  0  0  0  0  0
  -23.8996  -31.0420   25.2078 C   0  0  1  0  0  0  0  0  0  0  0  0
  -25.0860  -29.1836   22.1139 C   0  0  1  0  0  0  0  0  0  0  0  0
  -27.6608  -12.9636   19.7237 C   0  0  2  0  0  0  0  0  0  0  0  0
  -28.4038  -17.5930   22.5875 C   0  0  0  0  0  0  0  0  0  0  0  0
  -29.9169  -21.1701   22.4796 C   0  0  0  0  0  0  0  0  0  0  0  0
  -23.4692  -25.0224   15.7835 C   0  0  0  0  0  0  0  0  0  0  0  0
  -20.8620  -27.4659   21.3604 C   0  0  0  0  0  0  0  0  0  0  0  0
  -20.6509  -25.9527   19.3770 C   0  0  0  0  0  0  0  0  0  0  0  0
  -20.8904  -28.4136   19.0462 C   0  0  0  0  0  0  0  0  0  0  0  0
  -26.9243  -25.7605   17.1956 C   0  0  0  0  0  0  0  0  0  0  0  0
  -22.8880  -27.0656   19.8109 C   0  0  1  0  0  0  0  0  0  0  0  0
  -24.4909  -25.7631   16.6322 C   0  0  2  0  0  0  0  0  0  0  0  0
  -21.3446  -27.2217   19.9167 C   0  0  0  0  0  0  0  0  0  0  0  0
  -25.7899  -11.4995   20.3853 N   0  0  0  0  0  0  0  0  0  0  0  0
  -26.2184  -12.7501   20.1431 N   0  0  0  0  0  0  0  0  0  0  0  0
  -24.4972  -28.0357   21.4212 N   0  0  0  0  0  0  0  0  0  0  0  0
  -29.9597  -13.4429   20.4692 N   0  0  0  0  0  0  0  0  0  0  0  0
  -25.5201  -15.0133   20.1126 N   0  0  0  0  0  0  0  0  0  0  0  0
  -21.7929  -12.7896   21.3615 N   0  0  0  0  0  0  0  0  0  0  0  0
  -30.0877  -15.6247   21.3559 N   0  0  0  0  0  0  0  0  0  0  0  0
  -24.6015  -30.5829   24.0283 N   0  0  0  0  0  0  0  0  0  0  0  0
  -23.3760  -26.8603   18.4514 N   0  0  0  0  0  0  0  0  0  0  0  0
  -25.8203  -25.1186   16.4366 N   0  3  0  0  0  0  0  0  0  0  0  0
  -22.6576  -14.8628   20.9003 O   0  0  0  0  0  0  0  0  0  0  0  0
  -23.2547  -28.7473   23.5391 O   0  0  0  0  0  0  0  0  0  0  0  0
  -23.4420  -29.3719   19.8283 O   0  0  0  0  0  0  0  0  0  0  0  0
  -24.4197  -24.8303   18.8598 O   0  0  0  0  0  0  0  0  0  0  0  0
  -31.8996  -14.6819   20.2558 O   0  0  0  0  0  0  0  0  0  0  0  0
  -21.3166   -7.2807   22.0405 O   0  0  0  0  0  0  0  0  0  0  0  0
  -27.5257  -23.8937   24.8454 O   0  0  0  0  0  0  0  0  0  1  0  0
  -23.4537   -3.4836   25.4196 F   0  0  0  0  0  0  0  0  0  0  0  0
  -20.1183   -6.7036   24.4641 F   0  0  0  0  0  0  0  0  0  0  0  0
  1  2  1  0  0  0  0
  1  7  2  0  0  0  0
  2  8  2  0  0  0  0
  3  6  2  0  0  0  0
  3 10  1  0  0  0  0
  4 11  2  0  0  0  0
  4 18  1  0  0  0  0
  5 12  1  0  0  0  0
  5 18  2  0  0  0  0
  6 19  1  0  0  0  0
  7 21  1  0  0  0  0
  8 23  1  0  0  0  0
  9 13  2  0  0  0  0
  9 22  1  0  0  0  0
 10 26  2  0  0  0  0
 11 27  1  0  0  0  0
 12 27  2  0  0  0  0
 13 28  1  0  0  0  0
 14 15  2  0  0  0  0
 14 29  1  0  0  0  0
 15 30  1  0  0  0  0
 16 24  1  0  0  0  0
 16 28  2  0  0  0  0
 17 30  2  0  0  0  0
 17 31  1  0  0  0  0
 18 32  1  0  0  0  0
 19 25  2  0  0  0  0
 19 34  1  0  0  0  0
 20 32  1  0  0  0  0
 20 33  2  0  0  0  0
 20 37  1  0  0  0  0
 21 23  2  0  0  0  0
 21 43  1  0  0  0  0
 22 24  2  0  0  0  0
 22 44  1  0  0  0  0
 23 52  1  0  0  0  0
 24 45  1  0  0  0  0
 25 26  1  0  0  0  0
 25 55  1  0  0  0  0
 26 71  1  0  0  0  0
 27 80  1  0  0  0  0
 28 81  1  0  0  0  0
 29 31  2  0  0  0  0
 29 80  1  0  0  0  0
 30 82  1  0  0  0  0
 31 83  1  0  0  0  0
 32 65  2  0  0  0  0
 33 66  1  0  0  0  0
 33 69  1  0  0  0  0
 34 38  2  0  0  0  0
 35 36  2  0  0  0  0
 35 38  1  0  0  0  0
 36 81  1  0  0  0  0
 37 70  1  0  0  0  0
 37 75  2  0  0  0  0
 38 56  1  0  0  0  0
 39 53  1  0  0  0  0
 39 72  1  0  0  0  0
 39 76  2  0  0  0  0
 40 62  1  0  0  0  0
 40 67  1  0  0  0  0
 40 77  2  0  0  0  0
 41 63  1  0  0  0  0
 41 73  1  0  0  0  0
 41 78  2  0  0  0  0
 42 68  1  0  0  0  0
 42 71  1  0  0  0  0
 42 79  2  0  0  0  0
 43 46  1  0  0  0  0
 44 53  1  0  0  0  0
 45 67  1  0  0  0  0
 46 48  1  0  0  0  0
 47 49  1  0  0  0  0
 47 50  1  0  0  0  0
 48 52  1  0  0  0  0
 49 54  1  0  0  0  0
 50 68  1  0  0  0  0
 51 54  1  0  0  0  0
 51 68  1  0  0  0  0
 52 72  1  0  0  0  0
 53 67  1  0  0  0  0
 54 66  1  0  0  0  0
 57 63  1  0  0  0  0
 58 64  1  0  0  0  0
 59 64  1  0  0  0  0
 60 64  1  0  0  0  0
 61 74  1  0  0  0  0
 62 64  1  0  0  0  0
 62 73  1  0  0  0  0
 63 74  1  0  0  0  0
 65 66  1  0  0  0  0
M  CHG  1  74   1
M  ISO  4  36 101  42 100  71 100  81 101
M  END
> <Batch ID>
0058

> <Smiles>
CNC(C)C(=O)NC(C(=O)N1Cc2cc([101O:1][101CH:1]=CC(C)=Cc3cccc([100NH:0][100C:0](=O)N4CCCC(n5nc(-c6ccc(Oc7ccc(F)cc7F)cc6)c(C(N)=O)c5N)C4)c3C)ccc2CC1C(=O)NC1CCCc2ccccc21)C(C)(C)C

> <Shape>
0.267

> <Color>
0.216

> <Negative vol penalty>
0.000

$$$$

  -OEChem-04042322583D

 90 99  0     1  0  0  0  0  0999 V2000
  -18.5389  -32.2532   25.3938 C   0  0  0  0  0  0  0  0  0  0  0  0
  -19.9010  -32.4097   25.1579 C   0  0  0  0  0  0  0  0  0  0  0  0
  -23.8934  -13.2575   19.7844 C   0  0  0  0  0  0  0  0  0  0  0  0
  -25.7950  -13.8760   21.1403 C   0  0  0  0  0  0  0  0  0  0  0  0
  -30.5837  -21.0101   23.6560 C   0  0  0  0  0  0  0  0  0  0  0  0
  -17.9232  -31.0300   25.1319 C   0  0  0  0  0  0  0  0  0  0  0  0
  -20.6484  -31.3426   24.6608 C   0  0  0  0  0  0  0  0  0  0  0  0
  -26.2540  -29.9471   20.4245 C   0  0  0  0  0  0  0  0  0  0  0  0
  -29.4988  -20.6788   22.8443 C   0  0  0  0  0  0  0  0  0  0  0  0
  -24.2004  -11.9094   19.9687 C   0  0  0  0  0  0  0  0  0  0  0  0
  -26.1020  -12.5279   21.3247 C   0  0  0  0  0  0  0  0  0  0  0  0
  -27.4609  -29.2492   20.4301 C   0  0  0  0  0  0  0  0  0  0  0  0
  -23.8093   -9.5730   22.3814 C   0  0  0  0  0  0  0  0  0  0  0  0
  -22.7617   -8.7062   22.6925 C   0  0  0  0  0  0  0  0  0  0  0  0
  -26.2750  -27.2065   19.9400 C   0  0  0  0  0  0  0  0  0  0  0  0
  -30.6250  -21.6526   20.9416 C   0  0  0  0  0  0  0  0  0  0  0  0
  -23.2238   -7.4300   20.6938 C   0  0  0  0  0  0  0  0  0  0  0  0
  -24.6907  -14.2408   20.3701 C   0  0  0  0  0  0  0  0  0  0  0  0
  -31.6893  -21.6627   23.1105 C   0  0  0  0  0  0  0  0  0  0  0  0
  -23.1860  -16.2933   20.5460 C   0  0  0  0  0  0  0  0  0  0  0  0
  -18.6616  -29.9503   24.6222 C   0  0  0  0  0  0  0  0  0  0  0  0
  -25.0454  -29.2770   20.1870 C   0  0  0  0  0  0  0  0  0  0  0  0
  -20.0423  -30.1034   24.3930 C   0  0  0  0  0  0  0  0  0  0  0  0
  -25.0544  -27.8987   19.9293 C   0  0  0  0  0  0  0  0  0  0  0  0
  -31.7099  -21.9839   21.7533 C   0  0  0  0  0  0  0  0  0  0  0  0
  -29.5194  -21.0001   21.4871 C   0  0  0  0  0  0  0  0  0  0  0  0
  -25.3047  -11.5446   20.7389 C   0  0  0  0  0  0  0  0  0  0  0  0
  -27.4713  -27.8782   20.1907 C   0  0  0  0  0  0  0  0  0  0  0  0
  -24.5642   -9.3683   21.2264 C   0  0  0  0  0  0  0  0  0  0  0  0
  -22.4689   -7.6348   21.8488 C   0  0  0  0  0  0  0  0  0  0  0  0
  -24.2715   -8.2968   20.3826 C   0  0  0  0  0  0  0  0  0  0  0  0
  -24.3745  -15.6336   20.1796 C   0  0  0  0  0  0  0  0  0  0  0  0
  -23.3805  -17.5948   20.1526 C   0  0  0  0  0  0  0  0  0  0  0  0
  -32.0864  -25.3847   18.5744 C   0  0  0  0  0  0  0  0  0  0  0  0
  -30.8782  -25.8455   18.9302 C   0  0  0  0  0  0  0  0  0  0  0  0
  -32.6679  -24.1472   19.1618 C   0  0  0  0  0  0  0  0  0  0  0  0
  -30.6844  -25.4592   21.3176 C   0  0  0  0  0  0  0  0  0  0  0  0
  -32.6941  -22.7542   25.0635 C   0  0  0  0  0  0  0  0  0  0  0  0
  -32.8069  -21.9948   23.9840 C   0  0  0  0  0  0  0  0  0  0  0  0
  -22.0114  -15.7759   21.1848 C   0  0  0  0  0  0  0  0  0  0  0  0
  -22.3862  -28.7870   21.8580 C   0  0  0  0  0  0  0  0  0  0  0  0
  -21.3498  -27.4656   19.0827 C   0  0  0  0  0  0  0  0  0  0  0  0
  -22.1319  -25.9748   16.1141 C   0  0  0  0  0  0  0  0  0  0  0  0
  -28.2759  -20.9129   19.2980 C   0  0  0  0  0  0  0  0  0  0  0  0
  -17.9617  -28.6331   24.3992 C   0  0  0  0  0  0  0  0  0  0  0  0
  -23.7548  -30.0489   20.1578 C   0  0  0  0  0  0  0  0  0  0  0  0
  -23.7863  -27.1361   19.6488 C   0  0  0  0  0  0  0  0  0  0  0  0
  -32.1342  -25.0267   21.4652 C   0  0  0  0  0  0  0  0  0  0  0  0
  -18.7500  -27.6656   23.5201 C   0  0  0  0  0  0  0  0  0  0  0  0
  -25.7330  -20.2139   16.9059 C   0  0  0  0  0  0  0  0  0  0  0  0
  -20.2077  -27.6063   23.9656 C   0  0  0  0  0  0  0  0  0  0  0  0
  -24.9841  -19.0239   17.5102 C   0  0  0  0  0  0  0  0  0  0  0  0
  -27.2340  -20.1375   17.1795 C   0  0  0  0  0  0  0  0  0  0  0  0
  -26.8509  -18.7742   19.1953 C   0  0  0  0  0  0  0  0  0  0  0  0
  -20.8820  -28.9769   23.8309 C   0  0  1  0  0  0  0  0  0  0  0  0
  -29.9986  -25.2161   19.9771 C   0  0  1  0  0  0  0  0  0  0  0  0
  -22.5303  -29.1757   20.4137 C   0  0  1  0  0  0  0  0  0  0  0  0
  -25.3272  -18.8405   19.0016 C   0  0  2  0  0  0  0  0  0  0  0  0
  -21.0703  -24.9716   14.0736 C   0  0  0  0  0  0  0  0  0  0  0  0
  -20.6409  -24.9664   20.6831 C   0  0  0  0  0  0  0  0  0  0  0  0
  -20.4956  -23.7090   18.5230 C   0  0  0  0  0  0  0  0  0  0  0  0
  -18.9488  -25.6166   18.9602 C   0  0  0  0  0  0  0  0  0  0  0  0
  -23.4162  -27.9562   14.3298 C   0  0  0  0  0  0  0  0  0  0  0  0
  -32.8829  -22.6854   21.1318 C   0  0  0  0  0  0  0  0  0  0  0  0
  -28.5848  -25.7914   19.9434 C   0  0  0  0  0  0  0  0  0  1  0  0
  -21.3864  -26.0830   18.4778 C   0  0  1  0  0  0  0  0  0  0  0  0
  -21.6467  -26.2323   14.6990 C   0  0  2  0  0  0  0  0  0  0  0  0
  -20.3918  -25.1075   19.1682 C   0  0  0  0  0  0  0  0  0  0  0  0
  -25.2584  -16.4487   19.5980 N   0  0  0  0  0  0  0  0  0  0  0  0
  -24.6250  -17.6339   19.5959 N   0  0  0  0  0  0  0  0  0  0  0  0
  -32.5029  -23.9580   20.5347 N   0  0  0  0  0  0  0  0  0  0  0  0
  -22.5492  -27.9343   19.6374 N   0  0  0  0  0  0  0  0  0  0  0  0
  -27.4829  -19.9683   18.6127 N   0  0  0  0  0  0  0  0  0  0  0  0
  -22.6067  -18.6981   20.2320 N   0  0  0  0  0  0  0  0  0  0  0  0
  -21.9780  -14.4158   21.5214 N   0  0  0  0  0  0  0  0  0  0  0  0
  -28.4161  -20.6661   20.6633 N   0  0  0  0  0  0  0  0  0  0  0  0
  -21.2218  -29.2393   22.4488 N   0  0  0  0  0  0  0  0  0  0  0  0
  -21.1571  -26.2569   17.0476 N   0  0  0  0  0  0  0  0  0  0  0  0
  -22.7709  -26.7090   13.8446 N   0  3  0  0  0  0  0  0  0  0  0  0
  -33.2449  -23.3649   18.4056 O   0  0  0  0  0  0  0  0  0  0  0  0
  -30.1368  -26.0856   22.2274 O   0  0  0  0  0  0  0  0  0  0  0  0
  -21.0142  -16.4948   21.4346 O   0  0  0  0  0  0  0  0  0  0  0  0
  -23.2655  -28.1246   22.3960 O   0  0  0  0  0  0  0  0  0  0  0  0
  -20.2976  -28.1090   19.0575 O   0  0  0  0  0  0  0  0  0  0  0  0
  -23.2614  -25.5609   16.3661 O   0  0  0  0  0  0  0  0  0  0  0  0
  -28.7701  -21.8854   18.7217 O   0  0  0  0  0  0  0  0  0  0  0  0
  -25.6044  -10.2292   20.9192 O   0  0  0  0  0  0  0  0  0  0  0  0
  -28.6478  -27.1944   20.1962 O   0  0  0  0  0  0  0  0  0  1  0  0
  -21.4639   -6.8016   22.1485 F   0  0  0  0  0  0  0  0  0  0  0  0
  -24.9939   -8.0944   19.2723 F   0  0  0  0  0  0  0  0  0  0  0  0
  1  2  1  0  0  0  0
  1  6  2  0  0  0  0
  2  7  2  0  0  0  0
  3 10  2  0  0  0  0
  3 18  1  0  0  0  0
  4 11  1  0  0  0  0
  4 18  2  0  0  0  0
  5  9  2  0  0  0  0
  5 19  1  0  0  0  0
  6 21  1  0  0  0  0
  7 23  1  0  0  0  0
  8 12  2  0  0  0  0
  8 22  1  0  0  0  0
  9 26  1  0  0  0  0
 10 27  1  0  0  0  0
 11 27  2  0  0  0  0
 12 28  1  0  0  0  0
 13 14  2  0  0  0  0
 13 29  1  0  0  0  0
 14 30  1  0  0  0  0
 15 24  1  0  0  0  0
 15 28  2  0  0  0  0
 16 25  1  0  0  0  0
 16 26  2  0  0  0  0
 17 30  2  0  0  0  0
 17 31  1  0  0  0  0
 18 32  1  0  0  0  0
 19 25  2  0  0  0  0
 19 39  1  0  0  0  0
 20 32  1  0  0  0  0
 20 33  2  0  0  0  0
 20 40  1  0  0  0  0
 21 23  2  0  0  0  0
 21 45  1  0  0  0  0
 22 24  2  0  0  0  0
 22 46  1  0  0  0  0
 23 55  1  0  0  0  0
 24 47  1  0  0  0  0
 25 64  1  0  0  0  0
 26 76  1  0  0  0  0
 27 87  1  0  0  0  0
 28 88  1  0  0  0  0
 29 31  2  0  0  0  0
 29 87  1  0  0  0  0
 30 89  1  0  0  0  0
 31 90  1  0  0  0  0
 32 69  2  0  0  0  0
 33 70  1  0  0  0  0
 33 74  1  0  0  0  0
 34 35  2  0  0  0  0
 34 36  1  0  0  0  0
 35 56  1  0  0  0  0
 36 71  1  0  0  0  0
 36 80  2  0  0  0  0
 37 48  1  0  0  0  0
 37 56  1  0  0  0  0
 37 81  2  0  0  0  0
 38 39  2  0  0  0  0
 40 75  1  0  0  0  0
 40 82  2  0  0  0  0
 41 57  1  0  0  0  0
 41 77  1  0  0  0  0
 41 83  2  0  0  0  0
 42 66  1  0  0  0  0
 42 72  1  0  0  0  0
 42 84  2  0  0  0  0
 43 67  1  0  0  0  0
 43 78  1  0  0  0  0
 43 85  2  0  0  0  0
 44 73  1  0  0  0  0
 44 76  1  0  0  0  0
 44 86  2  0  0  0  0
 45 49  1  0  0  0  0
 46 57  1  0  0  0  0
 47 72  1  0  0  0  0
 48 71  1  0  0  0  0
 49 51  1  0  0  0  0
 50 52  1  0  0  0  0
 50 53  1  0  0  0  0
 51 55  1  0  0  0  0
 52 58  1  0  0  0  0
 53 73  1  0  0  0  0
 54 58  1  0  0  0  0
 54 73  1  0  0  0  0
 55 77  1  0  0  0  0
 56 65  1  0  0  0  0
 57 72  1  0  0  0  0
 58 70  1  0  0  0  0
 59 67  1  0  0  0  0
 60 68  1  0  0  0  0
 61 68  1  0  0  0  0
 62 68  1  0  0  0  0
 63 79  1  0  0  0  0
 64 71  1  0  0  0  0
 65 88  1  0  0  0  0
 66 68  1  0  0  0  0
 66 78  1  0  0  0  0
 67 79  1  0  0  0  0
 69 70  1  0  0  0  0
M  CHG  1  79   1
M  ISO  4  44 100  65 101  76 100  88 101
M  END
> <Batch ID>
0058

> <Smiles>
C=Cc1ccc([100NH:0][100C:0](=O)N2CCCC(n3nc(-c4ccc(Oc5ccc(F)cc5F)cc4)c(C(N)=O)c3N)C2)cc1CN1CC(=O)C([101CH2:1][101O:1]c2ccc3c(c2)CN(C(=O)C(NC(=O)C(C)NC)C(C)(C)C)C(C(=O)NC2CCCc4ccccc42)C3)C=CC1=O

> <Shape>
0.235

> <Color>
0.090

> <Negative vol penalty>
0.000

$$$$

  -OEChem-04042322583D

 84 92  0     1  0  0  0  0  0999 V2000
  -17.9433  -25.6964   21.4807 C   0  0  0  0  0  0  0  0  0  0  0  0
  -19.2645  -25.7098   21.0452 C   0  0  0  0  0  0  0  0  0  0  0  0
  -27.0011  -21.3044   18.5640 C   0  0  0  0  0  0  0  0  0  0  0  0
  -23.6807  -13.2974   24.9670 C   0  0  0  0  0  0  0  0  0  0  0  0
  -22.6710  -15.1065   23.7243 C   0  0  0  0  0  0  0  0  0  0  0  0
  -17.3058  -26.8928   21.8066 C   0  0  0  0  0  0  0  0  0  0  0  0
  -19.9486  -26.9198   20.9343 C   0  0  0  0  0  0  0  0  0  0  0  0
  -24.6336  -26.6845   22.8423 C   0  0  0  0  0  0  0  0  0  0  0  0
  -28.1235  -22.1244   18.6805 C   0  0  0  0  0  0  0  0  0  0  0  0
  -27.0836  -19.9558   18.9107 C   0  0  0  0  0  0  0  0  0  0  0  0
  -22.8189  -13.5494   26.0344 C   0  0  0  0  0  0  0  0  0  0  0  0
  -21.8091  -15.3586   24.7916 C   0  0  0  0  0  0  0  0  0  0  0  0
  -25.6097  -26.0692   22.0598 C   0  0  0  0  0  0  0  0  0  0  0  0
  -18.9643  -14.0452   26.0576 C   0  0  0  0  0  0  0  0  0  0  0  0
  -17.6173  -14.2582   25.7645 C   0  0  0  0  0  0  0  0  0  0  0  0
  -26.4032  -28.2360   21.3564 C   0  0  0  0  0  0  0  0  0  0  0  0
  -29.4109  -20.2470   19.4901 C   0  0  0  0  0  0  0  0  0  0  0  0
  -17.7504  -16.4589   26.7527 C   0  0  0  0  0  0  0  0  0  0  0  0
  -23.6069  -14.0759   23.8120 C   0  0  0  0  0  0  0  0  0  0  0  0
  -24.2757  -12.9475   21.6241 C   0  0  0  0  0  0  0  0  0  0  0  0
  -17.9855  -28.1171   21.7089 C   0  0  0  0  0  0  0  0  0  0  0  0
  -24.5278  -28.0823   22.8794 C   0  0  0  0  0  0  0  0  0  0  0  0
  -19.3192  -28.1338   21.2579 C   0  0  0  0  0  0  0  0  0  0  0  0
  -25.4265  -28.8666   22.1422 C   0  0  0  0  0  0  0  0  0  0  0  0
  -29.3284  -21.5957   19.1435 C   0  0  0  0  0  0  0  0  0  0  0  0
  -28.2885  -19.4271   19.3737 C   0  0  0  0  0  0  0  0  0  0  0  0
  -21.8830  -14.5800   25.9467 C   0  0  0  0  0  0  0  0  0  0  0  0
  -26.4928  -26.8448   21.3144 C   0  0  0  0  0  0  0  0  0  0  0  0
  -19.7043  -15.0389   26.6983 C   0  0  0  0  0  0  0  0  0  0  0  0
  -17.0104  -15.4651   26.1120 C   0  0  0  0  0  0  0  0  0  0  0  0
  -19.0974  -16.2457   27.0459 C   0  0  0  0  0  0  0  0  0  0  0  0
  -24.4973  -13.8164   22.7093 C   0  0  0  0  0  0  0  0  0  0  0  0
  -25.4112  -13.0570   20.8592 C   0  0  0  0  0  0  0  0  0  0  0  0
  -29.3494  -24.7963   20.5466 C   0  0  0  0  0  0  0  0  0  0  0  0
  -28.3610  -25.4447   21.1716 C   0  0  0  0  0  0  0  0  0  1  0  0
  -23.1445  -12.1159   21.3333 C   0  0  0  0  0  0  0  0  0  0  0  0
  -30.2701  -23.9275   21.3342 C   0  0  0  0  0  0  0  0  0  0  0  0
  -22.2819  -30.1840   22.0777 C   0  0  0  0  0  0  0  0  0  0  0  0
  -24.3392  -32.3055   23.4152 C   0  0  0  0  0  0  0  0  0  0  0  0
  -27.5457  -33.0676   24.3008 C   0  0  0  0  0  0  0  0  0  0  0  0
  -29.4902  -17.3740   20.2024 C   0  0  0  0  0  0  0  0  0  0  0  0
  -17.2398  -29.3889   22.0271 C   0  0  0  0  0  0  0  0  0  0  0  0
  -23.4866  -28.7313   23.7494 C   0  0  0  0  0  0  0  0  0  0  0  0
  -25.3680  -30.3715   22.1635 C   0  0  0  0  0  0  0  0  0  0  0  0
  -18.1530  -30.5934   22.2403 C   0  0  0  0  0  0  0  0  0  0  0  0
  -30.0898  -14.0144   21.2176 C   0  0  0  0  0  0  0  0  0  0  0  0
  -19.2052  -30.6672   21.1383 C   0  0  0  0  0  0  0  0  0  0  0  0
  -28.7026  -13.5014   21.6108 C   0  0  0  0  0  0  0  0  0  0  0  0
  -30.2826  -15.4801   21.6025 C   0  0  0  0  0  0  0  0  0  0  0  0
  -27.8535  -15.8794   21.5074 C   0  0  0  0  0  0  0  0  0  0  0  0
  -20.1026  -29.4239   21.1482 C   0  0  1  0  0  0  0  0  0  0  0  0
  -23.1410  -30.1508   23.3100 C   0  0  1  0  0  0  0  0  0  0  0  0
  -27.5889  -14.4261   21.0815 C   0  0  2  0  0  0  0  0  0  0  0  0
  -28.9218  -34.8899   25.3415 C   0  0  0  0  0  0  0  0  0  0  0  0
  -24.1841  -33.9017   20.8194 C   0  0  0  0  0  0  0  0  0  0  0  0
  -26.2424  -35.1340   21.5358 C   0  0  0  0  0  0  0  0  0  0  0  0
  -24.1598  -35.2889   22.9001 C   0  0  0  0  0  0  0  0  0  0  0  0
  -31.6995  -21.9196   21.3734 C   0  0  0  0  0  0  0  0  0  0  0  0
  -28.3902  -31.3152   26.5313 C   0  0  0  0  0  0  0  0  0  0  0  0
  -30.5362  -22.4787   19.2687 C   0  0  0  0  0  0  0  0  0  0  0  0
  -25.4918  -33.1401   22.9113 C   0  0  1  0  0  0  0  0  0  0  0  0
  -28.1318  -33.6143   25.5899 C   0  0  2  0  0  0  0  0  0  0  0  0
  -25.0197  -34.3378   22.0395 C   0  0  0  0  0  0  0  0  0  0  0  0
  -25.6806  -14.4323   22.6435 N   0  0  0  0  0  0  0  0  0  0  0  0
  -26.2129  -13.9498   21.5077 N   0  0  0  0  0  0  0  0  0  0  0  0
  -24.3283  -30.9590   23.0246 N   0  0  0  0  0  0  0  0  0  0  0  0
  -29.1927  -16.2963   21.0632 N   0  0  0  0  0  0  0  0  0  0  0  0
  -25.7923  -12.4757   19.7019 N   0  0  0  0  0  0  0  0  0  0  0  0
  -22.0630  -12.1235   22.2247 N   0  0  0  0  0  0  0  0  0  0  0  0
  -28.3717  -18.0573   19.7263 N   0  0  0  0  0  0  0  0  0  0  0  0
  -21.0803  -29.5147   22.2114 N   0  0  0  0  0  0  0  0  0  0  0  0
  -26.2624  -33.5251   24.0887 N   0  0  0  0  0  0  0  0  0  0  0  0
  -30.8143  -22.8311   20.6595 N   0  0  0  0  0  0  0  0  0  0  0  0
  -29.0420  -32.6113   26.2115 N   0  3  0  0  0  0  0  0  0  0  0  0
  -23.1013  -11.3752   20.3219 O   0  0  0  0  0  0  0  0  0  0  0  0
  -30.4899  -24.1860   22.5187 O   0  0  0  0  0  0  0  0  0  0  0  0
  -22.6790  -30.7743   21.0800 O   0  0  0  0  0  0  0  0  0  0  0  0
  -23.4840  -32.8273   24.1349 O   0  0  0  0  0  0  0  0  0  0  0  0
  -28.1658  -32.3132   23.5545 O   0  0  0  0  0  0  0  0  0  0  0  0
  -30.6502  -17.6520   19.8876 O   0  0  0  0  0  0  0  0  0  0  0  0
  -21.0417  -14.8261   26.9879 O   0  0  0  0  0  0  0  0  0  0  0  0
  -27.4460  -26.2467   20.5492 O   0  0  0  0  0  0  0  0  0  1  0  0
  -15.7173  -15.6702   25.8291 F   0  0  0  0  0  0  0  0  0  0  0  0
  -19.8035  -17.2046   27.6605 F   0  0  0  0  0  0  0  0  0  0  0  0
  1  2  1  0  0  0  0
  1  6  2  0  0  0  0
  2  7  2  0  0  0  0
  3  9  2  0  0  0  0
  3 10  1  0  0  0  0
  4 11  2  0  0  0  0
  4 19  1  0  0  0  0
  5 12  1  0  0  0  0
  5 19  2  0  0  0  0
  6 21  1  0  0  0  0
  7 23  1  0  0  0  0
  8 13  2  0  0  0  0
  8 22  1  0  0  0  0
  9 25  1  0  0  0  0
 10 26  2  0  0  0  0
 11 27  1  0  0  0  0
 12 27  2  0  0  0  0
 13 28  1  0  0  0  0
 14 15  2  0  0  0  0
 14 29  1  0  0  0  0
 15 30  1  0  0  0  0
 16 24  1  0  0  0  0
 16 28  2  0  0  0  0
 17 25  2  0  0  0  0
 17 26  1  0  0  0  0
 18 30  2  0  0  0  0
 18 31  1  0  0  0  0
 19 32  1  0  0  0  0
 20 32  1  0  0  0  0
 20 33  2  0  0  0  0
 20 36  1  0  0  0  0
 21 23  2  0  0  0  0
 21 42  1  0  0  0  0
 22 24  2  0  0  0  0
 22 43  1  0  0  0  0
 23 51  1  0  0  0  0
 24 44  1  0  0  0  0
 25 60  1  0  0  0  0
 26 70  1  0  0  0  0
 27 81  1  0  0  0  0
 28 82  1  0  0  0  0
 29 31  2  0  0  0  0
 29 81  1  0  0  0  0
 30 83  1  0  0  0  0
 31 84  1  0  0  0  0
 32 64  2  0  0  0  0
 33 65  1  0  0  0  0
 33 68  1  0  0  0  0
 34 35  2  0  0  0  0
 34 37  1  0  0  0  0
 35 82  1  0  0  0  0
 36 69  1  0  0  0  0
 36 75  2  0  0  0  0
 37 73  1  0  0  0  0
 37 76  2  0  0  0  0
 38 52  1  0  0  0  0
 38 71  1  0  0  0  0
 38 77  2  0  0  0  0
 39 61  1  0  0  0  0
 39 66  1  0  0  0  0
 39 78  2  0  0  0  0
 40 62  1  0  0  0  0
 40 72  1  0  0  0  0
 40 79  2  0  0  0  0
 41 67  1  0  0  0  0
 41 70  1  0  0  0  0
 41 80  2  0  0  0  0
 42 45  1  0  0  0  0
 43 52  1  0  0  0  0
 44 66  1  0  0  0  0
 45 47  1  0  0  0  0
 46 48  1  0  0  0  0
 46 49  1  0  0  0  0
 47 51  1  0  0  0  0
 48 53  1  0  0  0  0
 49 67  1  0  0  0  0
 50 53  1  0  0  0  0
 50 67  1  0  0  0  0
 51 71  1  0  0  0  0
 52 66  1  0  0  0  0
 53 65  1  0  0  0  0
 54 62  1  0  0  0  0
 55 63  1  0  0  0  0
 56 63  1  0  0  0  0
 57 63  1  0  0  0  0
 58 73  1  0  0  0  0
 59 74  1  0  0  0  0
 60 73  1  0  0  0  0
 61 63  1  0  0  0  0
 61 72  1  0  0  0  0
 62 74  1  0  0  0  0
 64 65  1  0  0  0  0
M  CHG  1  74   1
M  ISO  4  35 101  41 100  70 100  82 101
M  END
> <Batch ID>
0058

> <Smiles>
CNC(C)C(=O)NC(C(=O)N1Cc2cc([101O:1][101CH:1]=CC(=O)N(C)Cc3cccc([100NH:0][100C:0](=O)N4CCCC(n5nc(-c6ccc(Oc7ccc(F)cc7F)cc6)c(C(N)=O)c5N)C4)c3)ccc2CC1C(=O)NC1CCCc2ccccc21)C(C)(C)C

> <Shape>
0.263

> <Color>
0.081

> <Negative vol penalty>
0.000

$$$$

  -OEChem-04042322583D

 86 94  0     1  0  0  0  0  0999 V2000
  -20.2084  -24.6655   24.2896 C   0  0  0  0  0  0  0  0  0  0  0  0
  -21.3319  -25.4248   24.5966 C   0  0  0  0  0  0  0  0  0  0  0  0
  -24.9377  -12.8449   19.4398 C   0  0  0  0  0  0  0  0  0  0  0  0
  -25.1586  -13.7599   21.6649 C   0  0  0  0  0  0  0  0  0  0  0  0
  -19.4394  -24.9858   23.1728 C   0  0  0  0  0  0  0  0  0  0  0  0
  -21.6799  -26.5117   23.7939 C   0  0  0  0  0  0  0  0  0  0  0  0
  -25.3726  -29.3580   25.3642 C   0  0  0  0  0  0  0  0  0  0  0  0
  -24.8516  -24.6572   21.3675 C   0  0  0  0  0  0  0  0  0  0  0  0
  -25.0800  -23.4503   20.7067 C   0  0  0  0  0  0  0  0  0  0  0  0
  -25.0239  -11.5544   19.9620 C   0  0  0  0  0  0  0  0  0  0  0  0
  -25.2448  -12.4694   22.1871 C   0  0  0  0  0  0  0  0  0  0  0  0
  -26.7038  -28.9441   25.3455 C   0  0  0  0  0  0  0  0  0  0  0  0
  -27.5857  -10.0459   22.4658 C   0  0  0  0  0  0  0  0  0  0  0  0
  -28.5748   -9.7965   23.4171 C   0  0  0  0  0  0  0  0  0  0  0  0
  -27.3860  -24.0793   20.3546 C   0  0  0  0  0  0  0  0  0  0  0  0
  -27.0961  -30.3141   23.3992 C   0  0  0  0  0  0  0  0  0  0  0  0
  -26.8768   -9.1752   25.0196 C   0  0  0  0  0  0  0  0  0  0  0  0
  -25.0051  -13.9477   20.2913 C   0  0  0  0  0  0  0  0  0  0  0  0
  -27.1576  -25.2864   21.0154 C   0  0  0  0  0  0  0  0  0  0  0  0
  -23.7491  -16.0426   19.5554 C   0  0  0  0  0  0  0  0  0  0  0  0
  -19.7860  -26.0698   22.3494 C   0  0  0  0  0  0  0  0  0  0  0  0
  -24.8896  -30.2462   24.3924 C   0  0  0  0  0  0  0  0  0  0  0  0
  -20.9028  -26.8655   22.6761 C   0  0  0  0  0  0  0  0  0  0  0  0
  -25.7591  -30.7398   23.4093 C   0  0  0  0  0  0  0  0  0  0  0  0
  -25.8904  -25.5753   21.5218 C   0  0  0  0  0  0  0  0  0  0  0  0
  -26.3471  -23.1613   20.2003 C   0  0  0  0  0  0  0  0  0  0  0  0
  -25.1775  -11.3666   21.3356 C   0  0  0  0  0  0  0  0  0  0  0  0
  -27.5651  -29.4198   24.3612 C   0  0  0  0  0  0  0  0  0  0  0  0
  -26.2422   -9.8601   22.7913 C   0  0  0  0  0  0  0  0  0  0  0  0
  -28.2204   -9.3611   24.6940 C   0  0  0  0  0  0  0  0  0  0  0  0
  -25.8877   -9.4247   24.0682 C   0  0  0  0  0  0  0  0  0  0  0  0
  -24.9166  -15.2811   19.7525 C   0  0  0  0  0  0  0  0  0  0  0  0
  -24.1975  -17.2274   19.0246 C   0  0  0  0  0  0  0  0  0  0  0  0
  -32.0725  -26.9775   20.9862 C   0  0  0  0  0  0  0  0  0  0  0  0
  -31.3850  -26.3819   21.9677 C   0  0  0  0  0  0  0  0  0  0  0  0
  -28.2818  -26.2458   21.1664 C   0  0  0  0  0  0  0  0  0  0  0  0
  -22.3816  -15.7090   19.8279 C   0  0  0  0  0  0  0  0  0  0  0  0
  -22.6651  -30.0990   22.1267 C   0  0  0  0  0  0  0  0  0  0  0  0
  -23.3791  -33.2427   21.7662 C   0  0  0  0  0  0  0  0  0  0  0  0
  -25.6465  -35.7625   22.1614 C   0  0  0  0  0  0  0  0  0  0  0  0
  -27.7751  -21.4936   18.9650 C   0  0  0  0  0  0  0  0  0  0  0  0
  -18.9139  -26.3767   21.1576 C   0  0  0  0  0  0  0  0  0  0  0  0
  -23.4577  -30.7038   24.4423 C   0  0  0  0  0  0  0  0  0  0  0  0
  -25.2951  -31.7106   22.3554 C   0  0  0  0  0  0  0  0  0  0  0  0
  -19.6069  -27.2606   20.1257 C   0  0  0  0  0  0  0  0  0  0  0  0
  -28.7591  -18.5281   17.2577 C   0  0  0  0  0  0  0  0  0  0  0  0
  -20.2298  -28.4681   20.8102 C   0  0  0  0  0  0  0  0  0  0  0  0
  -27.7511  -17.4816   17.7384 C   0  0  0  0  0  0  0  0  0  0  0  0
  -29.1388  -19.5030   18.3709 C   0  0  0  0  0  0  0  0  0  0  0  0
  -26.9969  -19.1060   19.5215 C   0  0  0  0  0  0  0  0  0  0  0  0
  -21.3181  -28.0336   21.8000 C   0  0  1  0  0  0  0  0  0  0  0  0
  -22.9453  -31.2109   23.0978 C   0  0  1  0  0  0  0  0  0  0  0  0
  -26.5347  -18.1410   18.4175 C   0  0  2  0  0  0  0  0  0  0  0  0
  -25.6185  -26.8604   22.2337 C   0  0  0  0  0  0  0  0  0  0  0  0
  -25.9584  -38.2162   21.7379 C   0  0  0  0  0  0  0  0  0  0  0  0
  -23.8341  -32.6710   18.8038 C   0  0  0  0  0  0  0  0  0  0  0  0
  -25.0319  -34.8632   18.6362 C   0  0  0  0  0  0  0  0  0  0  0  0
  -22.6225  -34.8063   19.2801 C   0  0  0  0  0  0  0  0  0  0  0  0
  -25.9832  -36.3358   25.0454 C   0  0  0  0  0  0  0  0  0  0  0  0
  -30.3640  -27.1290   24.1284 C   0  0  0  0  0  0  0  0  0  0  0  0
  -29.1486  -27.7128   24.8454 C   0  0  0  0  0  0  0  0  0  1  0  0
  -30.1621  -26.9733   22.6124 C   0  0  2  0  0  0  0  0  0  0  0  0
  -24.3667  -34.0263   20.9358 C   0  0  1  0  0  0  0  0  0  0  0  0
  -25.5085  -37.1608   22.7361 C   0  0  2  0  0  0  0  0  0  0  0  0
  -23.9724  -34.0719   19.4326 C   0  0  0  0  0  0  0  0  0  0  0  0
  -26.0235  -15.9277   19.3772 N   0  0  0  0  0  0  0  0  0  0  0  0
  -25.5534  -17.1080   18.9389 N   0  0  0  0  0  0  0  0  0  0  0  0
  -23.8846  -32.1234   22.4426 N   0  0  0  0  0  0  0  0  0  0  0  0
  -27.9366  -20.0919   18.9647 N   0  0  0  0  0  0  0  0  0  0  0  0
  -23.5602  -18.3492   18.6273 N   0  0  0  0  0  0  0  0  0  0  0  0
  -22.0971  -14.4496   20.3733 N   0  0  0  0  0  0  0  0  0  0  0  0
  -26.5782  -21.9360   19.5273 N   0  0  0  0  0  0  0  0  0  0  0  0
  -29.0511  -26.1028   22.3115 N   0  0  0  0  0  0  0  0  0  0  0  0
  -21.7355  -29.1806   22.5760 N   0  0  0  0  0  0  0  0  0  0  0  0
  -24.4783  -35.3381   21.5644 N   0  0  0  0  0  0  0  0  0  0  0  0
  -26.3341  -37.2979   23.9692 N   0  3  0  0  0  0  0  0  0  0  0  0
  -28.4568  -27.1051   20.3065 O   0  0  0  0  0  0  0  0  0  0  0  0
  -21.4384  -16.4977   19.5795 O   0  0  0  0  0  0  0  0  0  0  0  0
  -23.2479  -30.0770   21.0490 O   0  0  0  0  0  0  0  0  0  0  0  0
  -22.2040  -33.6143   21.8187 O   0  0  0  0  0  0  0  0  0  0  0  0
  -26.6877  -35.1133   22.2317 O   0  0  0  0  0  0  0  0  0  0  0  0
  -28.6230  -22.2446   18.4761 O   0  0  0  0  0  0  0  0  0  0  0  0
  -25.2614  -10.1074   21.8455 O   0  0  0  0  0  0  0  0  0  0  0  0
  -28.8647  -29.0169   24.3402 O   0  0  0  0  0  0  0  0  0  1  0  0
  -29.1704   -9.1201   25.6070 F   0  0  0  0  0  0  0  0  0  0  0  0
  -24.5987   -9.2433   24.3865 F   0  0  0  0  0  0  0  0  0  0  0  0
  1  2  1  0  0  0  0
  1  5  2  0  0  0  0
  2  6  2  0  0  0  0
  3 10  2  0  0  0  0
  3 18  1  0  0  0  0
  4 11  1  0  0  0  0
  4 18  2  0  0  0  0
  5 21  1  0  0  0  0
  6 23  1  0  0  0  0
  7 12  2  0  0  0  0
  7 22  1  0  0  0  0
  8  9  2  0  0  0  0
  8 25  1  0  0  0  0
  9 26  1  0  0  0  0
 10 27  1  0  0  0  0
 11 27  2  0  0  0  0
 12 28  1  0  0  0  0
 13 14  2  0  0  0  0
 13 29  1  0  0  0  0
 14 30  1  0  0  0  0
 15 19  1  0  0  0  0
 15 26  2  0  0  0  0
 16 24  1  0  0  0  0
 16 28  2  0  0  0  0
 17 30  2  0  0  0  0
 17 31  1  0  0  0  0
 18 32  1  0  0  0  0
 19 25  2  0  0  0  0
 19 36  1  0  0  0  0
 20 32  1  0  0  0  0
 20 33  2  0  0  0  0
 20 37  1  0  0  0  0
 21 23  2  0  0  0  0
 21 42  1  0  0  0  0
 22 24  2  0  0  0  0
 22 43  1  0  0  0  0
 23 51  1  0  0  0  0
 24 44  1  0  0  0  0
 25 54  1  0  0  0  0
 26 72  1  0  0  0  0
 27 83  1  0  0  0  0
 28 84  1  0  0  0  0
 29 31  2  0  0  0  0
 29 83  1  0  0  0  0
 30 85  1  0  0  0  0
 31 86  1  0  0  0  0
 32 66  2  0  0  0  0
 33 67  1  0  0  0  0
 33 70  1  0  0  0  0
 34 35  2  0  0  0  0
 35 62  1  0  0  0  0
 36 73  1  0  0  0  0
 36 77  2  0  0  0  0
 37 71  1  0  0  0  0
 37 78  2  0  0  0  0
 38 52  1  0  0  0  0
 38 74  1  0  0  0  0
 38 79  2  0  0  0  0
 39 63  1  0  0  0  0
 39 68  1  0  0  0  0
 39 80  2  0  0  0  0
 40 64  1  0  0  0  0
 40 75  1  0  0  0  0
 40 81  2  0  0  0  0
 41 69  1  0  0  0  0
 41 72  1  0  0  0  0
 41 82  2  0  0  0  0
 42 45  1  0  0  0  0
 43 52  1  0  0  0  0
 44 68  1  0  0  0  0
 45 47  1  0  0  0  0
 46 48  1  0  0  0  0
 46 49  1  0  0  0  0
 47 51  1  0  0  0  0
 48 53  1  0  0  0  0
 49 69  1  0  0  0  0
 50 53  1  0  0  0  0
 50 69  1  0  0  0  0
 51 74  1  0  0  0  0
 52 68  1  0  0  0  0
 53 67  1  0  0  0  0
 55 64  1  0  0  0  0
 56 65  1  0  0  0  0
 57 65  1  0  0  0  0
 58 65  1  0  0  0  0
 59 76  1  0  0  0  0
 60 61  1  0  0  0  0
 60 62  1  0  0  0  0
 61 84  1  0  0  0  0
 62 73  1  0  0  0  0
 63 65  1  0  0  0  0
 63 75  1  0  0  0  0
 64 76  1  0  0  0  0
 66 67  1  0  0  0  0
M  CHG  1  76   1
M  ISO  4  41 100  61 101  72 100  84 101
M  END
> <Batch ID>
0058

> <Smiles>
C=CC(C[101CH2:1][101O:1]c1ccc2c(c1)CN(C(=O)C(NC(=O)C(C)NC)C(C)(C)C)C(C(=O)NC1CCCc3ccccc31)C2)NC(=O)c1cc([100NH:0][100C:0](=O)N2CCCC(n3nc(-c4ccc(Oc5ccc(F)cc5F)cc4)c(C(N)=O)c3N)C2)ccc1C

> <Shape>
0.219

> <Color>
0.121

> <Negative vol penalty>
0.000

$$$$

  -OEChem-04042322583D

 85 93  0     1  0  0  0  0  0999 V2000
  -32.4009  -22.3486   14.9212 C   0  0  0  0  0  0  0  0  0  0  0  0
  -32.2148  -22.3223   16.2996 C   0  0  0  0  0  0  0  0  0  0  0  0
  -23.0764   -9.8670   19.9406 C   0  0  0  0  0  0  0  0  0  0  0  0
  -23.8351   -9.8745   22.2344 C   0  0  0  0  0  0  0  0  0  0  0  0
  -31.3168  -19.0830   20.6064 C   0  0  0  0  0  0  0  0  0  0  0  0
  -33.2919  -21.4592   14.3221 C   0  0  0  0  0  0  0  0  0  0  0  0
  -32.9189  -21.4057   17.0797 C   0  0  0  0  0  0  0  0  0  0  0  0
  -34.8527  -23.4987   21.2660 C   0  0  0  0  0  0  0  0  0  0  0  0
  -31.1498  -17.6983   20.6000 C   0  0  0  0  0  0  0  0  0  0  0  0
  -22.3326   -8.7138   20.1904 C   0  0  0  0  0  0  0  0  0  0  0  0
  -23.0912   -8.7213   22.4842 C   0  0  0  0  0  0  0  0  0  0  0  0
  -33.9784  -23.7209   22.3290 C   0  0  0  0  0  0  0  0  0  0  0  0
  -21.1060   -5.9841   23.8202 C   0  0  0  0  0  0  0  0  0  0  0  0
  -20.3492   -5.9406   24.9911 C   0  0  0  0  0  0  0  0  0  0  0  0
  -34.7855  -21.7175   23.4035 C   0  0  0  0  0  0  0  0  0  0  0  0
  -29.5170  -17.8871   22.3707 C   0  0  0  0  0  0  0  0  0  0  0  0
  -19.1047   -7.8776   24.2586 C   0  0  0  0  0  0  0  0  0  0  0  0
  -23.8277  -10.4474   20.9626 C   0  0  0  0  0  0  0  0  0  0  0  0
  -30.5840  -19.8699   21.4950 C   0  0  0  0  0  0  0  0  0  0  0  0
  -24.1692  -12.9725   20.8423 C   0  0  0  0  0  0  0  0  0  0  0  0
  -34.0146  -20.5378   15.0963 C   0  0  0  0  0  0  0  0  0  0  0  0
  -35.6936  -22.3766   21.2585 C   0  0  0  0  0  0  0  0  0  0  0  0
  -33.8195  -20.5023   16.4903 C   0  0  0  0  0  0  0  0  0  0  0  0
  -35.6714  -21.4848   22.3404 C   0  0  0  0  0  0  0  0  0  0  0  0
  -29.6841  -19.2719   22.3771 C   0  0  0  0  0  0  0  0  0  0  0  0
  -30.2499  -17.1003   21.4822 C   0  0  0  0  0  0  0  0  0  0  0  0
  -22.3400   -8.1410   21.4622 C   0  0  0  0  0  0  0  0  0  0  0  0
  -33.9427  -22.8287   23.3966 C   0  0  0  0  0  0  0  0  0  0  0  0
  -20.8623   -6.9744   22.8686 C   0  0  0  0  0  0  0  0  0  0  0  0
  -19.3485   -6.8873   25.2102 C   0  0  0  0  0  0  0  0  0  0  0  0
  -19.8616   -7.9211   23.0877 C   0  0  0  0  0  0  0  0  0  0  0  0
  -24.5968  -11.6383   20.7051 C   0  0  0  0  0  0  0  0  0  0  0  0
  -25.2615  -13.7221   20.4795 C   0  0  0  0  0  0  0  0  0  0  0  0
  -30.7755  -21.3341   21.4846 C   0  0  0  0  0  0  0  0  0  0  0  0
  -22.8985  -13.4882   21.2605 C   0  0  0  0  0  0  0  0  0  0  0  0
  -36.0289  -19.8372   19.3763 C   0  0  0  0  0  0  0  0  0  0  0  0
  -38.5885  -19.2497   21.2805 C   0  0  0  0  0  0  0  0  0  0  0  0
  -40.1198  -19.7011   24.2968 C   0  0  0  0  0  0  0  0  0  0  0  0
  -30.7274  -14.7686   20.6568 C   0  0  0  0  0  0  0  0  0  0  0  0
  -34.9313  -19.5645   14.3985 C   0  0  0  0  0  0  0  0  0  0  0  0
  -36.6501  -22.1656   20.1170 C   0  0  0  0  0  0  0  0  0  0  0  0
  -36.5683  -20.2759   22.3901 C   0  0  0  0  0  0  0  0  0  0  0  0
  -35.9181  -18.8764   15.3382 C   0  0  0  0  0  0  0  0  0  0  0  0
  -29.6146  -12.3542   18.2883 C   0  0  0  0  0  0  0  0  0  0  0  0
  -35.2035  -18.3761   16.5896 C   0  0  0  0  0  0  0  0  0  0  0  0
  -28.1747  -12.0625   18.7172 C   0  0  0  0  0  0  0  0  0  0  0  0
  -30.5290  -12.5833   19.4904 C   0  0  0  0  0  0  0  0  0  0  0  0
  -28.6213  -13.3077   20.8706 C   0  0  0  0  0  0  0  0  0  0  0  0
  -34.5835  -19.5394   17.3731 C   0  0  1  0  0  0  0  0  0  0  0  0
  -37.0948  -20.7136   19.9707 C   0  0  1  0  0  0  0  0  0  0  0  0
  -27.6491  -13.1341   19.6923 C   0  0  2  0  0  0  0  0  0  0  0  0
  -28.8860  -20.0934   23.3359 C   0  0  0  0  0  0  0  0  0  0  0  0
  -42.1863  -19.0666   25.5714 C   0  0  0  0  0  0  0  0  0  0  0  0
  -37.4356  -16.4654   21.7588 C   0  0  0  0  0  0  0  0  0  0  0  0
  -38.9748  -16.2412   23.7206 C   0  0  0  0  0  0  0  0  0  0  0  0
  -39.9137  -16.5257   21.4271 C   0  0  0  0  0  0  0  0  0  0  0  0
  -32.1167  -25.2207   24.3159 C   0  0  0  0  0  0  0  0  0  0  0  0
  -30.8153  -23.2476   25.1481 C   0  0  0  0  0  0  0  0  0  0  0  0
  -40.9691  -22.5245   24.5530 C   0  0  0  0  0  0  0  0  0  0  0  0
  -31.4290  -23.3703   22.7188 C   0  0  0  0  0  0  0  0  0  0  0  0
  -38.8119  -18.4943   22.5683 C   0  0  1  0  0  0  0  0  0  0  0  0
  -41.5411  -20.0954   24.6559 C   0  0  2  0  0  0  0  0  0  0  0  0
  -38.7656  -16.9533   22.3671 C   0  0  0  0  0  0  0  0  0  0  0  0
  -31.8689  -23.7215   24.1437 C   0  0  0  0  0  0  0  0  0  1  0  0
  -25.8618  -11.5426   20.2874 N   0  0  0  0  0  0  0  0  0  0  0  0
  -26.2386  -12.8262   20.1591 N   0  0  0  0  0  0  0  0  0  0  0  0
  -37.4815  -20.1096   21.2474 N   0  0  0  0  0  0  0  0  0  0  0  0
  -29.9695  -13.6142   20.3674 N   0  0  0  0  0  0  0  0  0  0  0  0
  -25.4717  -15.0536   20.4064 N   0  0  0  0  0  0  0  0  0  0  0  0
  -30.5121  -21.9940   20.3567 N   0  0  0  0  0  0  0  0  0  0  0  0
  -21.8865  -12.5790   21.5974 N   0  0  0  0  0  0  0  0  0  0  0  0
  -30.0795  -15.6936   21.4747 N   0  0  0  0  0  0  0  0  0  0  0  0
  -35.6011  -20.2409   18.1259 N   0  0  0  0  0  0  0  0  0  0  0  0
  -40.0701  -18.9877   23.1179 N   0  0  0  0  0  0  0  0  0  0  0  0
  -31.2053  -21.9256   22.6046 N   0  3  0  0  0  0  0  0  0  0  0  0
  -41.5532  -21.4146   25.3490 N   0  3  0  0  0  0  0  0  0  0  0  0
  -22.6620  -14.7188   21.3176 O   0  0  0  0  0  0  0  0  0  0  0  0
  -35.6255  -18.8657   20.0049 O   0  0  0  0  0  0  0  0  0  0  0  0
  -39.3715  -19.0884   20.3411 O   0  0  0  0  0  0  0  0  0  0  0  0
  -39.1511  -19.9932   24.9944 O   0  0  0  0  0  0  0  0  0  0  0  0
  -31.8567  -14.9374   20.1897 O   0  0  0  0  0  0  0  0  0  0  0  0
  -21.6140   -7.0158   21.7063 O   0  0  0  0  0  0  0  0  0  0  0  0
  -33.0898  -23.0428   24.4352 O   0  0  0  0  0  0  0  0  0  1  0  0
  -18.6207   -6.8445   26.3339 F   0  0  0  0  0  0  0  0  0  0  0  0
  -19.6220   -8.8741   22.1766 F   0  0  0  0  0  0  0  0  0  0  0  0
  1  2  1  0  0  0  0
  1  6  2  0  0  0  0
  2  7  2  0  0  0  0
  3 10  2  0  0  0  0
  3 18  1  0  0  0  0
  4 11  1  0  0  0  0
  4 18  2  0  0  0  0
  5  9  2  0  0  0  0
  5 19  1  0  0  0  0
  6 21  1  0  0  0  0
  7 23  1  0  0  0  0
  8 12  2  0  0  0  0
  8 22  1  0  0  0  0
  9 26  1  0  0  0  0
 10 27  1  0  0  0  0
 11 27  2  0  0  0  0
 12 28  1  0  0  0  0
 13 14  2  0  0  0  0
 13 29  1  0  0  0  0
 14 30  1  0  0  0  0
 15 24  1  0  0  0  0
 15 28  2  0  0  0  0
 16 25  1  0  0  0  0
 16 26  2  0  0  0  0
 17 30  2  0  0  0  0
 17 31  1  0  0  0  0
 18 32  1  0  0  0  0
 19 25  2  0  0  0  0
 19 34  1  0  0  0  0
 20 32  1  0  0  0  0
 20 33  2  0  0  0  0
 20 35  1  0  0  0  0
 21 23  2  0  0  0  0
 21 40  1  0  0  0  0
 22 24  2  0  0  0  0
 22 41  1  0  0  0  0
 23 49  1  0  0  0  0
 24 42  1  0  0  0  0
 25 52  1  0  0  0  0
 26 72  1  0  0  0  0
 27 82  1  0  0  0  0
 28 83  1  0  0  0  0
 29 31  2  0  0  0  0
 29 82  1  0  0  0  0
 30 84  1  0  0  0  0
 31 85  1  0  0  0  0
 32 65  2  0  0  0  0
 33 66  1  0  0  0  0
 33 69  1  0  0  0  0
 34 70  1  0  0  0  0
 34 75  2  0  0  0  0
 35 71  1  0  0  0  0
 35 77  2  0  0  0  0
 36 50  1  0  0  0  0
 36 73  1  0  0  0  0
 36 78  2  0  0  0  0
 37 61  1  0  0  0  0
 37 67  1  0  0  0  0
 37 79  2  0  0  0  0
 38 62  1  0  0  0  0
 38 74  1  0  0  0  0
 38 80  2  0  0  0  0
 39 68  1  0  0  0  0
 39 72  1  0  0  0  0
 39 81  2  0  0  0  0
 40 43  1  0  0  0  0
 41 50  1  0  0  0  0
 42 67  1  0  0  0  0
 43 45  1  0  0  0  0
 44 46  1  0  0  0  0
 44 47  1  0  0  0  0
 45 49  1  0  0  0  0
 46 51  1  0  0  0  0
 47 68  1  0  0  0  0
 48 51  1  0  0  0  0
 48 68  1  0  0  0  0
 49 73  1  0  0  0  0
 50 67  1  0  0  0  0
 51 66  1  0  0  0  0
 53 62  1  0  0  0  0
 54 63  1  0  0  0  0
 55 63  1  0  0  0  0
 56 63  1  0  0  0  0
 57 64  1  0  0  0  0
 58 64  1  0  0  0  0
 59 76  1  0  0  0  0
 60 64  1  0  0  0  0
 60 75  1  0  0  0  0
 61 63  1  0  0  0  0
 61 74  1  0  0  0  0
 62 76  1  0  0  0  0
 64 83  1  0  0  0  0
 65 66  1  0  0  0  0
M  CHG  2  75   1  76   1
M  ISO  4  39 100  64 101  72 100  83 101
M  END
> <Batch ID>
0058

> <Smiles>
CNC(C)C(=O)NC(C(=O)N1Cc2cc([101O:1][101C:1](C)(C)CNC(=N)c3ccc([100NH:0][100C:0](=O)N4CCCC(n5nc(-c6ccc(Oc7ccc(F)cc7F)cc6)c(C(N)=O)c5N)C4)cc3C)ccc2CC1C(=O)NC1CCCc2ccccc21)C(C)(C)C

> <Shape>
0.175

> <Color>
0.184

> <Negative vol penalty>
0.000

$$$$

  -OEChem-04042322583D

 96105  0     1  0  0  0  0  0999 V2000
  -28.4224  -14.3337   21.4754 C   0  0  0  0  0  0  0  0  0  0  0  0
  -27.8974  -15.2556   22.3753 C   0  0  0  0  0  0  0  0  0  0  0  0
  -28.6472  -31.1009   25.4564 C   0  0  0  0  0  0  0  0  0  0  0  0
  -28.6689  -30.0423   24.5485 C   0  0  0  0  0  0  0  0  0  0  0  0
  -23.2847  -15.3527   20.7530 C   0  0  0  0  0  0  0  0  0  0  0  0
  -21.5763  -14.2467   22.0550 C   0  0  0  0  0  0  0  0  0  0  0  0
  -29.4817  -14.6974   20.6450 C   0  0  0  0  0  0  0  0  0  0  0  0
  -28.4321  -16.5415   22.4460 C   0  0  0  0  0  0  0  0  0  0  0  0
  -25.3950  -21.7331   23.5992 C   0  0  0  0  0  0  0  0  0  0  0  0
  -27.5041  -31.3429   26.2184 C   0  0  0  0  0  0  0  0  0  0  0  0
  -27.5476  -29.2256   24.4024 C   0  0  0  0  0  0  0  0  0  0  0  0
  -19.7107  -26.6617   21.7849 C   0  0  0  0  0  0  0  0  0  0  0  0
  -19.3299  -25.3597   22.1095 C   0  0  0  0  0  0  0  0  0  0  0  0
  -23.5330  -14.1631   20.0683 C   0  0  0  0  0  0  0  0  0  0  0  0
  -21.8245  -13.0571   21.3703 C   0  0  0  0  0  0  0  0  0  0  0  0
  -25.2280  -22.4835   24.7623 C   0  0  0  0  0  0  0  0  0  0  0  0
  -24.1180  -10.5741   21.4408 C   0  0  0  0  0  0  0  0  0  0  0  0
  -24.2152   -9.4024   22.1914 C   0  0  0  0  0  0  0  0  0  0  0  0
  -21.6162  -24.8354   22.6886 C   0  0  0  0  0  0  0  0  0  0  0  0
  -27.0529  -23.9130   24.0948 C   0  0  0  0  0  0  0  0  0  0  0  0
  -22.3552   -8.4643   20.9677 C   0  0  0  0  0  0  0  0  0  0  0  0
  -22.3063  -15.3945   21.7465 C   0  0  0  0  0  0  0  0  0  0  0  0
  -21.9970  -26.1374   22.3639 C   0  0  0  0  0  0  0  0  0  0  0  0
  -22.9601  -17.3601   23.2353 C   0  0  0  0  0  0  0  0  0  0  0  0
  -30.0233  -15.9914   20.6988 C   0  0  0  0  0  0  0  0  0  0  0  0
  -26.4010  -22.0609   22.6789 C   0  0  0  0  0  0  0  0  0  0  0  0
  -29.5004  -16.9224   21.6165 C   0  0  0  0  0  0  0  0  0  0  0  0
  -27.2289  -23.1667   22.9196 C   0  0  0  0  0  0  0  0  0  0  0  0
  -21.0443  -27.0506   21.9120 C   0  0  0  0  0  0  0  0  0  0  0  0
  -26.3828  -30.5262   26.0724 C   0  0  0  0  0  0  0  0  0  0  0  0
  -26.4045  -29.4676   25.1644 C   0  0  0  0  0  0  0  0  0  0  0  0
  -20.2826  -24.4466   22.5614 C   0  0  0  0  0  0  0  0  0  0  0  0
  -22.8029  -13.0154   20.3769 C   0  0  0  0  0  0  0  0  0  0  0  0
  -26.0589  -23.5719   25.0117 C   0  0  0  0  0  0  0  0  0  0  0  0
  -23.1394  -10.6909   20.4537 C   0  0  0  0  0  0  0  0  0  0  0  0
  -23.3338   -8.3475   21.9548 C   0  0  0  0  0  0  0  0  0  0  0  0
  -22.2580   -9.6360   20.2171 C   0  0  0  0  0  0  0  0  0  0  0  0
  -22.0498  -16.6229   22.4545 C   0  0  0  0  0  0  0  0  0  0  0  0
  -22.2336  -18.4348   23.6867 C   0  0  0  0  0  0  0  0  0  0  0  0
  -23.4137  -26.5293   22.5056 C   0  0  0  0  0  0  0  0  0  0  0  0
  -24.3392  -17.0971   23.5263 C   0  0  0  0  0  0  0  0  0  0  0  0
  -28.9754  -20.5793   21.5473 C   0  0  0  0  0  0  0  0  0  0  0  0
  -29.1323  -23.1704   19.6021 C   0  0  0  0  0  0  0  0  0  0  0  0
  -24.0860  -26.8535   26.4190 C   0  0  0  0  0  0  0  0  0  0  0  0
  -28.3299  -26.4440   19.0666 C   0  0  0  0  0  0  0  0  0  0  0  0
  -18.6145  -22.5768   22.8217 C   0  0  0  0  0  0  0  0  0  0  0  0
  -31.1990  -16.3236   19.8145 C   0  0  0  0  0  0  0  0  0  0  0  0
  -26.5508  -21.2576   21.4162 C   0  0  0  0  0  0  0  0  0  0  0  0
  -28.3108  -23.5725   21.9534 C   0  0  0  0  0  0  0  0  0  0  0  0
  -31.4622  -17.8220   19.6885 C   0  0  0  0  0  0  0  0  0  0  0  0
  -17.2597  -19.3567   23.5091 C   0  0  0  0  0  0  0  0  0  0  0  0
  -31.4195  -18.4886   21.0599 C   0  0  0  0  0  0  0  0  0  0  0  0
  -18.4600  -18.4191   23.3602 C   0  0  0  0  0  0  0  0  0  0  0  0
  -17.2992  -20.4947   22.4906 C   0  0  0  0  0  0  0  0  0  0  0  0
  -19.7508  -20.3252   22.3174 C   0  0  0  0  0  0  0  0  0  0  0  0
  -30.0371  -18.3346   21.7054 C   0  0  1  0  0  0  0  0  0  0  0  0
  -27.9409  -21.3703   20.7978 C   0  0  1  0  0  0  0  0  0  0  0  0
  -19.7889  -19.1998   23.3642 C   0  0  2  0  0  0  0  0  0  0  0  0
  -21.4272  -28.4505   21.5591 C   0  0  0  0  0  0  0  0  0  0  0  0
  -25.1705  -30.8034   26.8996 C   0  0  0  0  0  0  0  0  0  0  0  0
  -23.2973  -25.6310   28.4481 C   0  0  0  0  0  0  0  0  0  0  0  0
  -28.6294  -28.2989   17.4032 C   0  0  0  0  0  0  0  0  0  0  0  0
  -32.0099  -23.5473   20.5441 C   0  0  0  0  0  0  0  0  0  0  0  0
  -31.9324  -25.8747   19.6246 C   0  0  0  0  0  0  0  0  0  0  0  0
  -31.6557  -23.9222   18.0969 C   0  0  0  0  0  0  0  0  0  0  0  0
  -25.4122  -26.6801   18.6303 C   0  0  0  0  0  0  0  0  0  0  0  0
  -25.0818  -28.0111   23.5629 C   0  0  0  0  0  0  0  0  0  0  0  0
  -24.5803  -24.3858   26.6871 C   0  0  0  0  0  0  0  0  0  1  0  0
  -25.1964  -28.5656   24.9873 C   0  0  1  0  0  0  0  0  0  0  0  0
  -29.7831  -24.5302   19.6830 C   0  0  1  0  0  0  0  0  0  0  0  0
  -24.4088  -25.7268   27.4042 C   0  0  1  0  0  0  0  0  0  0  0  0
  -27.7409  -27.1524   17.8601 C   0  0  2  0  0  0  0  0  0  0  0  0
  -31.3262  -24.4600   19.5065 C   0  0  0  0  0  0  0  0  0  0  0  0
  -20.8375  -17.1818   22.4105 N   0  0  0  0  0  0  0  0  0  0  0  0
  -20.9810  -18.2817   23.1694 N   0  0  0  0  0  0  0  0  0  0  0  0
  -28.4219  -22.7520   20.7361 N   0  0  0  0  0  0  0  0  0  0  0  0
  -18.5856  -21.1917   22.5548 N   0  0  0  0  0  0  0  0  0  0  0  0
  -22.5504  -19.4863   24.4718 N   0  0  0  0  0  0  0  0  0  0  0  0
  -24.3236  -25.8637   21.7943 N   0  0  0  0  0  0  0  0  0  0  0  0
  -24.6488  -16.3308   24.6582 N   0  0  0  0  0  0  0  0  0  0  0  0
  -19.8952  -23.1241   22.8911 N   0  0  0  0  0  0  0  0  0  0  0  0
  -29.0999  -19.2704   21.1221 N   0  0  0  0  0  0  0  0  0  0  0  0
  -25.2287  -27.4681   25.9272 N   0  0  0  0  0  0  0  0  0  0  0  0
  -29.1062  -25.3660   18.6973 N   0  0  0  0  0  0  0  0  0  0  0  0
  -23.7145  -27.5296   23.3409 N   0  3  0  0  0  0  0  0  0  0  0  0
  -26.3953  -27.7025   18.1883 N   0  3  0  0  0  0  0  0  0  0  0  0
  -25.2700  -17.5427   22.8132 O   0  0  0  0  0  0  0  0  0  0  0  0
  -29.6145  -21.1171   22.4439 O   0  0  0  0  0  0  0  0  0  0  0  0
  -29.2439  -22.5071   18.5681 O   0  0  0  0  0  0  0  0  0  0  0  0
  -22.9359  -27.1654   26.1178 O   0  0  0  0  0  0  0  0  0  0  0  0
  -28.1251  -26.8125   20.2211 O   0  0  0  0  0  0  0  0  0  0  0  0
  -17.5803  -23.2242   23.0042 O   0  0  0  0  0  0  0  0  0  0  0  0
  -23.0448  -11.8545   19.7088 O   0  0  0  0  0  0  0  0  0  0  0  0
  -25.8984  -24.3057   26.1464 O   0  0  0  0  0  0  0  0  0  1  0  0
  -23.4282   -7.2218   22.6746 F   0  0  0  0  0  0  0  0  0  0  0  0
  -21.3165   -9.7419   19.2694 F   0  0  0  0  0  0  0  0  0  0  0  0
  1  2  1  0  0  0  0
  1  7  2  0  0  0  0
  2  8  2  0  0  0  0
  3  4  1  0  0  0  0
  3 10  2  0  0  0  0
  4 11  2  0  0  0  0
  5 14  2  0  0  0  0
  5 22  1  0  0  0  0
  6 15  1  0  0  0  0
  6 22  2  0  0  0  0
  7 25  1  0  0  0  0
  8 27  1  0  0  0  0
  9 16  2  0  0  0  0
  9 26  1  0  0  0  0
 10 30  1  0  0  0  0
 11 31  1  0  0  0  0
 12 13  2  0  0  0  0
 12 29  1  0  0  0  0
 13 32  1  0  0  0  0
 14 33  1  0  0  0  0
 15 33  2  0  0  0  0
 16 34  1  0  0  0  0
 17 18  2  0  0  0  0
 17 35  1  0  0  0  0
 18 36  1  0  0  0  0
 19 23  1  0  0  0  0
 19 32  2  0  0  0  0
 20 28  1  0  0  0  0
 20 34  2  0  0  0  0
 21 36  2  0  0  0  0
 21 37  1  0  0  0  0
 22 38  1  0  0  0  0
 23 29  2  0  0  0  0
 23 40  1  0  0  0  0
 24 38  1  0  0  0  0
 24 39  2  0  0  0  0
 24 41  1  0  0  0  0
 25 27  2  0  0  0  0
 25 47  1  0  0  0  0
 26 28  2  0  0  0  0
 26 48  1  0  0  0  0
 27 56  1  0  0  0  0
 28 49  1  0  0  0  0
 29 59  1  0  0  0  0
 30 31  2  0  0  0  0
 30 60  1  0  0  0  0
 31 69  1  0  0  0  0
 32 81  1  0  0  0  0
 33 93  1  0  0  0  0
 34 94  1  0  0  0  0
 35 37  2  0  0  0  0
 35 93  1  0  0  0  0
 36 95  1  0  0  0  0
 37 96  1  0  0  0  0
 38 74  2  0  0  0  0
 39 75  1  0  0  0  0
 39 78  1  0  0  0  0
 40 79  1  0  0  0  0
 40 85  2  0  0  0  0
 41 80  1  0  0  0  0
 41 87  2  0  0  0  0
 42 57  1  0  0  0  0
 42 82  1  0  0  0  0
 42 88  2  0  0  0  0
 43 70  1  0  0  0  0
 43 76  1  0  0  0  0
 43 89  2  0  0  0  0
 44 71  1  0  0  0  0
 44 83  1  0  0  0  0
 44 90  2  0  0  0  0
 45 72  1  0  0  0  0
 45 84  1  0  0  0  0
 45 91  2  0  0  0  0
 46 77  1  0  0  0  0
 46 81  1  0  0  0  0
 46 92  2  0  0  0  0
 47 50  1  0  0  0  0
 48 57  1  0  0  0  0
 49 76  1  0  0  0  0
 50 52  1  0  0  0  0
 51 53  1  0  0  0  0
 51 54  1  0  0  0  0
 52 56  1  0  0  0  0
 53 58  1  0  0  0  0
 54 77  1  0  0  0  0
 55 58  1  0  0  0  0
 55 77  1  0  0  0  0
 56 82  1  0  0  0  0
 57 76  1  0  0  0  0
 58 75  1  0  0  0  0
 61 71  1  0  0  0  0
 62 72  1  0  0  0  0
 63 73  1  0  0  0  0
 64 73  1  0  0  0  0
 65 73  1  0  0  0  0
 66 86  1  0  0  0  0
 67 69  1  0  0  0  0
 67 85  1  0  0  0  0
 68 71  1  0  0  0  0
 68 94  1  0  0  0  0
 69 83  1  0  0  0  0
 70 73  1  0  0  0  0
 70 84  1  0  0  0  0
 72 86  1  0  0  0  0
 74 75  1  0  0  0  0
M  CHG  2  85   1  86   1
M  ISO  4  46 100  68 101  81 100  94 101
M  END
> <Batch ID>
0058

> <Smiles>
CNC(C)C(=O)NC(C(=O)N1Cc2cc([101O:1][101CH2:1]C(C)C(=O)NC(CNC(=N)c3cc([100NH:0][100C:0](=O)N4CCCC(n5nc(-c6ccc(Oc7ccc(F)cc7F)cc6)c(C(N)=O)c5N)C4)ccc3C)c3ccccc3C)ccc2CC1C(=O)NC1CCCc2ccccc21)C(C)(C)C

> <Shape>
0.232

> <Color>
0.042

> <Negative vol penalty>
0.000

$$$$

  -OEChem-04042322583D

 92100  0     1  0  0  0  0  0999 V2000
  -21.6657  -30.6667   14.9370 C   0  0  0  0  0  0  0  0  0  0  0  0
  -22.8377  -29.9208   15.0112 C   0  0  0  0  0  0  0  0  0  0  0  0
  -24.2006   -9.6731   21.9910 C   0  0  0  0  0  0  0  0  0  0  0  0
  -22.8495  -11.5815   21.3834 C   0  0  0  0  0  0  0  0  0  0  0  0
  -21.3170  -31.5209   15.9823 C   0  0  0  0  0  0  0  0  0  0  0  0
  -23.6622  -30.0295   16.1305 C   0  0  0  0  0  0  0  0  0  0  0  0
  -26.9961  -25.5772   18.6932 C   0  0  0  0  0  0  0  0  0  0  0  0
  -23.2681   -9.3238   22.9678 C   0  0  0  0  0  0  0  0  0  0  0  0
  -21.9169  -11.2323   22.3602 C   0  0  0  0  0  0  0  0  0  0  0  0
  -28.3440  -25.2364   18.5892 C   0  0  0  0  0  0  0  0  0  0  0  0
  -20.2532   -7.7990   23.1012 C   0  0  0  0  0  0  0  0  0  0  0  0
  -19.8785   -6.4583   23.1899 C   0  0  0  0  0  0  0  0  0  0  0  0
  -26.7355  -20.9190   19.9180 C   0  0  0  0  0  0  0  0  0  0  0  0
  -28.3868  -19.1688   20.1346 C   0  0  0  0  0  0  0  0  0  0  0  0
  -28.8099  -26.4913   20.5961 C   0  0  0  0  0  0  0  0  0  0  0  0
  -26.2075  -18.6670   19.2203 C   0  0  0  0  0  0  0  0  0  0  0  0
  -20.6880   -6.3825   25.4650 C   0  0  0  0  0  0  0  0  0  0  0  0
  -23.9914  -10.8020   21.1989 C   0  0  0  0  0  0  0  0  0  0  0  0
  -28.0123  -20.5029   20.2950 C   0  0  0  0  0  0  0  0  0  0  0  0
  -24.9733  -10.7488   18.8450 C   0  0  0  0  0  0  0  0  0  0  0  0
  -22.1328  -31.6328   17.1192 C   0  0  0  0  0  0  0  0  0  0  0  0
  -26.5461  -26.3879   19.7451 C   0  0  0  0  0  0  0  0  0  0  0  0
  -23.3248  -30.8870   17.1914 C   0  0  0  0  0  0  0  0  0  0  0  0
  -27.4554  -26.8388   20.7126 C   0  0  0  0  0  0  0  0  0  0  0  0
  -25.8330  -20.0010   19.3807 C   0  0  0  0  0  0  0  0  0  0  0  0
  -27.4844  -18.2508   19.5973 C   0  0  0  0  0  0  0  0  0  0  0  0
  -22.1263  -10.1034   23.1523 C   0  0  0  0  0  0  0  0  0  0  0  0
  -29.2517  -25.6958   19.5391 C   0  0  0  0  0  0  0  0  0  0  0  0
  -20.8453   -8.4314   24.1945 C   0  0  0  0  0  0  0  0  0  0  0  0
  -20.0959   -5.7501   24.3717 C   0  0  0  0  0  0  0  0  0  0  0  0
  -21.0627   -7.7232   25.3763 C   0  0  0  0  0  0  0  0  0  0  0  0
  -24.9546  -11.1636   20.1902 C   0  0  0  0  0  0  0  0  0  0  0  0
  -26.0797  -11.3634   18.3115 C   0  0  0  0  0  0  0  0  0  0  0  0
  -28.3830  -22.6229   21.6356 C   0  0  0  0  0  0  0  0  0  0  0  0
  -22.3820  -20.9506   19.7962 C   0  0  0  0  0  0  0  0  0  0  0  0
  -28.9823  -21.4898   20.8726 C   0  0  0  0  0  0  0  0  0  0  0  0
  -24.0711   -9.8853   18.1407 C   0  0  0  0  0  0  0  0  0  0  0  0
  -28.1543  -22.5530   22.9585 C   0  0  0  0  0  0  0  0  0  0  0  0
  -25.1628  -29.2429   19.9431 C   0  0  0  0  0  0  0  0  0  0  0  0
  -31.1623  -22.2063   21.2004 C   0  0  0  0  0  0  0  0  0  0  0  0
  -24.9614  -28.4947   23.0930 C   0  0  0  0  0  0  0  0  0  0  0  0
  -26.1672  -26.6863   25.7241 C   0  0  0  0  0  0  0  0  0  0  0  0
  -29.0919  -16.3177   19.7561 C   0  0  0  0  0  0  0  0  0  0  0  0
  -21.7384  -32.6049   18.2028 C   0  0  0  0  0  0  0  0  0  0  0  0
  -25.0844  -26.7245   19.8581 C   0  0  0  0  0  0  0  0  0  0  0  0
  -27.0197  -27.6951   21.8725 C   0  0  0  0  0  0  0  0  0  0  0  0
  -22.4763  -32.3807   19.5202 C   0  0  0  0  0  0  0  0  0  0  0  0
  -30.4037  -13.0147   19.5406 C   0  0  0  0  0  0  0  0  0  0  0  0
  -23.9695  -32.1935   19.2706 C   0  0  0  0  0  0  0  0  0  0  0  0
  -29.1566  -12.1277   19.5541 C   0  0  0  0  0  0  0  0  0  0  0  0
  -30.2454  -14.2298   20.4528 C   0  0  0  0  0  0  0  0  0  0  0  0
  -27.7937  -14.1474   20.2252 C   0  0  0  0  0  0  0  0  0  0  0  0
  -24.2327  -30.9589   18.4000 C   0  0  1  0  0  0  0  0  0  0  0  0
  -24.8226  -27.9805   20.6835 C   0  0  1  0  0  0  0  0  0  0  0  0
  -27.8808  -12.9449   19.2713 C   0  0  2  0  0  0  0  0  0  0  0  0
  -21.3386  -21.1783   20.8442 C   0  0  0  0  0  0  0  0  0  0  0  0
  -27.5399  -23.7190   23.6831 C   0  0  0  0  0  0  0  0  0  0  0  0
  -28.4795  -21.3732   23.8312 C   0  0  0  0  0  0  0  0  0  0  0  0
  -26.2880  -25.7632   28.0545 C   0  0  0  0  0  0  0  0  0  0  0  0
  -26.3443  -31.1496   23.6837 C   0  0  0  0  0  0  0  0  0  0  0  0
  -26.8216  -30.3075   25.9927 C   0  0  0  0  0  0  0  0  0  0  0  0
  -24.4624  -30.5865   25.2316 C   0  0  0  0  0  0  0  0  0  0  0  0
  -24.4107  -24.4058   25.0363 C   0  0  0  0  0  0  0  0  0  0  0  0
  -24.4675  -20.4457   18.9776 C   0  0  0  0  0  0  0  0  0  0  0  0
  -32.0060  -22.8659   20.1215 C   0  0  0  0  0  0  0  0  0  0  0  0
  -32.4609  -24.2820   20.4799 C   0  0  0  0  0  0  0  0  0  0  0  0
  -31.3056  -25.2622   20.6568 C   0  0  0  0  0  0  0  0  0  1  0  0
  -25.8502  -28.6909   24.2974 C   0  0  1  0  0  0  0  0  0  0  0  0
  -25.4640  -25.8519   26.7794 C   0  0  2  0  0  0  0  0  0  0  0  0
  -25.8785  -30.1691   24.7785 C   0  0  0  0  0  0  0  0  0  0  0  0
  -25.9687  -11.9785   20.4926 N   0  0  0  0  0  0  0  0  0  0  0  0
  -23.5777  -20.6260   20.1315 N   0  0  0  0  0  0  0  0  0  0  0  0
  -30.2546  -21.3113   20.6783 N   0  0  0  0  0  0  0  0  0  0  0  0
  -26.6351  -12.0807   19.3300 N   0  0  0  0  0  0  0  0  0  0  0  0
  -25.5812  -28.0023   21.9358 N   0  0  0  0  0  0  0  0  0  0  0  0
  -29.0177  -14.9575   20.1239 N   0  0  0  0  0  0  0  0  0  0  0  0
  -26.6221  -11.3547   17.0753 N   0  0  0  0  0  0  0  0  0  0  0  0
  -22.9863   -9.3390   18.8400 N   0  0  0  0  0  0  0  0  0  0  0  0
  -27.8644  -16.8956   19.4339 N   0  0  0  0  0  0  0  0  0  0  0  0
  -24.1220  -29.7509   19.1893 N   0  0  0  0  0  0  0  0  0  0  0  0
  -25.3870  -27.7432   25.3053 N   0  0  0  0  0  0  0  0  0  0  0  0
  -25.2288  -24.4695   26.2747 N   0  3  0  0  0  0  0  0  0  0  0  0
  -24.2317   -9.5934   16.9314 O   0  0  0  0  0  0  0  0  0  0  0  0
  -26.2859  -29.7215   20.0491 O   0  0  0  0  0  0  0  0  0  0  0  0
  -31.3461  -22.4112   22.3975 O   0  0  0  0  0  0  0  0  0  0  0  0
  -23.7601  -28.7615   23.1781 O   0  0  0  0  0  0  0  0  0  0  0  0
  -27.2972  -26.4286   25.3151 O   0  0  0  0  0  0  0  0  0  0  0  0
  -30.1685  -16.9177   19.7027 O   0  0  0  0  0  0  0  0  0  0  0  0
  -21.2160   -9.7627   24.1051 O   0  0  0  0  0  0  0  0  0  0  0  0
  -30.5680  -25.3652   19.4395 O   0  0  0  0  0  0  0  0  0  1  0  0
  -19.7347   -4.4631   24.4572 F   0  0  0  0  0  0  0  0  0  0  0  0
  -21.6300   -8.3257   26.4303 F   0  0  0  0  0  0  0  0  0  0  0  0
  1  2  1  0  0  0  0
  1  5  2  0  0  0  0
  2  6  2  0  0  0  0
  3  8  2  0  0  0  0
  3 18  1  0  0  0  0
  4  9  1  0  0  0  0
  4 18  2  0  0  0  0
  5 21  1  0  0  0  0
  6 23  1  0  0  0  0
  7 10  2  0  0  0  0
  7 22  1  0  0  0  0
  8 27  1  0  0  0  0
  9 27  2  0  0  0  0
 10 28  1  0  0  0  0
 11 12  2  0  0  0  0
 11 29  1  0  0  0  0
 12 30  1  0  0  0  0
 13 19  1  0  0  0  0
 13 25  2  0  0  0  0
 14 19  2  0  0  0  0
 14 26  1  0  0  0  0
 15 24  1  0  0  0  0
 15 28  2  0  0  0  0
 16 25  1  0  0  0  0
 16 26  2  0  0  0  0
 17 30  2  0  0  0  0
 17 31  1  0  0  0  0
 18 32  1  0  0  0  0
 19 36  1  0  0  0  0
 20 32  1  0  0  0  0
 20 33  2  0  0  0  0
 20 37  1  0  0  0  0
 21 23  2  0  0  0  0
 21 44  1  0  0  0  0
 22 24  2  0  0  0  0
 22 45  1  0  0  0  0
 23 53  1  0  0  0  0
 24 46  1  0  0  0  0
 25 64  1  0  0  0  0
 26 79  1  0  0  0  0
 27 89  1  0  0  0  0
 28 90  1  0  0  0  0
 29 31  2  0  0  0  0
 29 89  1  0  0  0  0
 30 91  1  0  0  0  0
 31 92  1  0  0  0  0
 32 71  2  0  0  0  0
 33 74  1  0  0  0  0
 33 77  1  0  0  0  0
 34 36  1  0  0  0  0
 34 38  2  0  0  0  0
 35 56  1  0  0  0  0
 35 72  2  0  0  0  0
 36 73  2  0  0  0  0
 37 78  1  0  0  0  0
 37 83  2  0  0  0  0
 38 57  1  0  0  0  0
 38 58  1  0  0  0  0
 39 54  1  0  0  0  0
 39 80  1  0  0  0  0
 39 84  2  0  0  0  0
 40 65  1  0  0  0  0
 40 73  1  0  0  0  0
 40 85  2  0  0  0  0
 41 68  1  0  0  0  0
 41 75  1  0  0  0  0
 41 86  2  0  0  0  0
 42 69  1  0  0  0  0
 42 81  1  0  0  0  0
 42 87  2  0  0  0  0
 43 76  1  0  0  0  0
 43 79  1  0  0  0  0
 43 88  2  0  0  0  0
 44 47  1  0  0  0  0
 45 54  1  0  0  0  0
 46 75  1  0  0  0  0
 47 49  1  0  0  0  0
 48 50  1  0  0  0  0
 48 51  1  0  0  0  0
 49 53  1  0  0  0  0
 50 55  1  0  0  0  0
 51 76  1  0  0  0  0
 52 55  1  0  0  0  0
 52 76  1  0  0  0  0
 53 80  1  0  0  0  0
 54 75  1  0  0  0  0
 55 74  1  0  0  0  0
 59 69  1  0  0  0  0
 60 70  1  0  0  0  0
 61 70  1  0  0  0  0
 62 70  1  0  0  0  0
 63 82  1  0  0  0  0
 64 72  1  0  0  0  0
 65 66  1  0  0  0  0
 66 67  1  0  0  0  0
 67 90  1  0  0  0  0
 68 70  1  0  0  0  0
 68 81  1  0  0  0  0
 69 82  1  0  0  0  0
 71 74  1  0  0  0  0
M  CHG  1  82   1
M  ISO  4  43 100  67 101  79 100  90 101
M  END
> <Batch ID>
0058

> <Smiles>
C=CNCc1cc([100NH:0][100C:0](=O)N2CCCC(n3nc(-c4ccc(Oc5ccc(F)cc5F)cc4)c(C(N)=O)c3N)C2)cc(C(C=C(C)C)=NC(=O)CC[101CH2:1][101O:1]c2ccc3c(c2)CN(C(=O)C(NC(=O)C(C)NC)C(C)(C)C)C(C(=O)NC2CCCc4ccccc42)C3)c1

> <Shape>
0.235

> <Color>
0.081

> <Negative vol penalty>
0.000

$$$$

  -OEChem-04042322583D

 83 91  0     1  0  0  0  0  0999 V2000
  -17.0931  -25.1755   24.1719 C   0  0  0  0  0  0  0  0  0  0  0  0
  -18.2713  -24.6441   24.6867 C   0  0  0  0  0  0  0  0  0  0  0  0
  -32.5347  -17.6724   23.3888 C   0  0  0  0  0  0  0  0  0  0  0  0
  -22.9991   -9.9253   20.0389 C   0  0  0  0  0  0  0  0  0  0  0  0
  -23.6972  -10.0534   22.3482 C   0  0  0  0  0  0  0  0  0  0  0  0
  -17.1460  -26.1931   23.2203 C   0  0  0  0  0  0  0  0  0  0  0  0
  -19.5032  -25.1294   24.2493 C   0  0  0  0  0  0  0  0  0  0  0  0
  -24.6160  -25.7201   27.5684 C   0  0  0  0  0  0  0  0  0  0  0  0
  -31.7238  -18.5836   24.0653 C   0  0  0  0  0  0  0  0  0  0  0  0
  -31.9645  -16.7437   22.5182 C   0  0  0  0  0  0  0  0  0  0  0  0
  -22.2400   -8.7923   20.3312 C   0  0  0  0  0  0  0  0  0  0  0  0
  -22.9381   -8.9203   22.6406 C   0  0  0  0  0  0  0  0  0  0  0  0
  -25.7520  -24.9212   27.6913 C   0  0  0  0  0  0  0  0  0  0  0  0
  -23.2183   -5.5710   22.2738 C   0  0  0  0  0  0  0  0  0  0  0  0
  -23.8065   -4.5829   23.0632 C   0  0  0  0  0  0  0  0  0  0  0  0
  -26.8787  -26.2809   26.0479 C   0  0  0  0  0  0  0  0  0  0  0  0
  -29.7723  -17.6372   23.0007 C   0  0  0  0  0  0  0  0  0  0  0  0
  -22.0613   -4.8604   24.7108 C   0  0  0  0  0  0  0  0  0  0  0  0
  -23.7278  -10.5559   21.0474 C   0  0  0  0  0  0  0  0  0  0  0  0
  -24.0921  -13.0685   20.7988 C   0  0  0  0  0  0  0  0  0  0  0  0
  -18.3791  -26.6978   22.7782 C   0  0  0  0  0  0  0  0  0  0  0  0
  -24.5991  -26.8006   26.6747 C   0  0  0  0  0  0  0  0  0  0  0  0
  -19.5727  -26.1539   23.2899 C   0  0  0  0  0  0  0  0  0  0  0  0
  -25.7422  -27.0935   25.9173 C   0  0  0  0  0  0  0  0  0  0  0  0
  -30.3426  -18.5660   23.8713 C   0  0  0  0  0  0  0  0  0  0  0  0
  -30.5833  -16.7261   22.3242 C   0  0  0  0  0  0  0  0  0  0  0  0
  -22.2094   -8.2898   21.6320 C   0  0  0  0  0  0  0  0  0  0  0  0
  -26.8826  -25.1998   26.9290 C   0  0  0  0  0  0  0  0  0  0  0  0
  -22.0517   -6.2039   22.7029 C   0  0  0  0  0  0  0  0  0  0  0  0
  -23.2279   -4.2275   24.2817 C   0  0  0  0  0  0  0  0  0  0  0  0
  -21.4732   -5.8486   23.9213 C   0  0  0  0  0  0  0  0  0  0  0  0
  -24.5126  -11.7260   20.7459 C   0  0  0  0  0  0  0  0  0  0  0  0
  -25.1993  -13.7901   20.4250 C   0  0  0  0  0  0  0  0  0  0  0  0
  -28.7499  -21.2464   25.9621 C   0  0  0  0  0  0  0  0  0  0  0  0
  -28.9213  -22.2446   26.8398 C   0  0  0  0  0  0  0  0  0  0  0  0
  -22.8148  -13.6143   21.1542 C   0  0  0  0  0  0  0  0  0  0  0  0
  -29.9226  -20.4749   25.4528 C   0  0  0  0  0  0  0  0  0  0  0  0
  -22.8934  -27.5566   24.1012 C   0  0  0  0  0  0  0  0  0  0  0  0
  -24.5307  -30.3486   24.3158 C   0  0  0  0  0  0  0  0  0  0  0  0
  -27.3070  -32.0022   25.4134 C   0  0  0  0  0  0  0  0  0  0  0  0
  -30.6667  -14.8099   20.6909 C   0  0  0  0  0  0  0  0  0  0  0  0
  -18.3866  -27.7657   21.7132 C   0  0  0  0  0  0  0  0  0  0  0  0
  -23.3750  -27.6689   26.5734 C   0  0  0  0  0  0  0  0  0  0  0  0
  -25.7821  -28.2543   24.9584 C   0  0  0  0  0  0  0  0  0  0  0  0
  -19.7275  -28.4827   21.5790 C   0  0  0  0  0  0  0  0  0  0  0  0
  -29.5977  -12.2767   18.4287 C   0  0  0  0  0  0  0  0  0  0  0  0
  -20.8719  -27.4744   21.5539 C   0  0  0  0  0  0  0  0  0  0  0  0
  -28.1449  -12.0181   18.8342 C   0  0  0  0  0  0  0  0  0  0  0  0
  -30.4820  -12.5654   19.6405 C   0  0  0  0  0  0  0  0  0  0  0  0
  -28.5443  -13.3764   20.9277 C   0  0  0  0  0  0  0  0  0  0  0  0
  -20.9280  -26.6709   22.8588 C   0  0  1  0  0  0  0  0  0  0  0  0
  -23.2916  -28.4325   25.2553 C   0  0  1  0  0  0  0  0  0  0  0  0
  -27.6021  -13.1448   19.7351 C   0  0  2  0  0  0  0  0  0  0  0  0
  -28.3812  -34.2701   25.4046 C   0  0  0  0  0  0  0  0  0  0  0  0
  -25.3526  -29.9455   21.4051 C   0  0  0  0  0  0  0  0  0  0  0  0
  -27.1362  -31.6698   21.7427 C   0  0  0  0  0  0  0  0  0  0  0  0
  -24.7349  -32.2950   21.9988 C   0  0  0  0  0  0  0  0  0  0  0  0
  -27.2443  -32.1712   28.3674 C   0  0  0  0  0  0  0  0  0  0  0  0
  -27.7914  -23.0517   27.3931 C   0  0  0  0  0  0  0  0  0  1  0  0
  -25.8390  -30.8656   23.7679 C   0  0  1  0  0  0  0  0  0  0  0  0
  -27.4688  -33.3150   26.1583 C   0  0  2  0  0  0  0  0  0  0  0  0
  -25.7646  -31.1708   22.2452 C   0  0  0  0  0  0  0  0  0  0  0  0
  -25.7875  -11.5996   20.3681 N   0  0  0  0  0  0  0  0  0  0  0  0
  -26.1775  -12.8718   20.1801 N   0  0  0  0  0  0  0  0  0  0  0  0
  -24.5584  -29.0700   24.8902 N   0  0  0  0  0  0  0  0  0  0  0  0
  -29.9076  -13.6463   20.4446 N   0  0  0  0  0  0  0  0  0  0  0  0
  -25.4218  -15.1143   20.2850 N   0  0  0  0  0  0  0  0  0  0  0  0
  -21.7873  -12.7313   21.5130 N   0  0  0  0  0  0  0  0  0  0  0  0
  -29.5197  -19.4920   24.5583 N   0  0  0  0  0  0  0  0  0  0  0  0
  -30.0047  -15.7824   21.4396 N   0  0  0  0  0  0  0  0  0  0  0  0
  -21.5278  -27.4604   23.9130 N   0  0  0  0  0  0  0  0  0  0  0  0
  -26.2005  -32.0148   24.5907 N   0  0  0  0  0  0  0  0  0  0  0  0
  -28.0516  -33.0757   27.5089 N   0  3  0  0  0  0  0  0  0  0  0  0
  -22.5865  -14.8477   21.1377 O   0  0  0  0  0  0  0  0  0  0  0  0
  -31.0624  -20.7326   25.8214 O   0  0  0  0  0  0  0  0  0  0  0  0
  -23.7608  -27.0098   23.4303 O   0  0  0  0  0  0  0  0  0  0  0  0
  -23.5230  -31.0563   24.2433 O   0  0  0  0  0  0  0  0  0  0  0  0
  -28.0865  -31.0611   25.5450 O   0  0  0  0  0  0  0  0  0  0  0  0
  -31.8092  -14.9457   20.2456 O   0  0  0  0  0  0  0  0  0  0  0  0
  -21.4686   -7.1843   21.9176 O   0  0  0  0  0  0  0  0  0  0  0  0
  -27.9925  -24.4213   27.0466 O   0  0  0  0  0  0  0  0  0  1  0  0
  -23.7920   -3.2774   25.0389 F   0  0  0  0  0  0  0  0  0  0  0  0
  -20.3518   -6.4522   24.3383 F   0  0  0  0  0  0  0  0  0  0  0  0
  1  2  1  0  0  0  0
  1  6  2  0  0  0  0
  2  7  2  0  0  0  0
  3  9  2  0  0  0  0
  3 10  1  0  0  0  0
  4 11  2  0  0  0  0
  4 19  1  0  0  0  0
  5 12  1  0  0  0  0
  5 19  2  0  0  0  0
  6 21  1  0  0  0  0
  7 23  1  0  0  0  0
  8 13  2  0  0  0  0
  8 22  1  0  0  0  0
  9 25  1  0  0  0  0
 10 26  2  0  0  0  0
 11 27  1  0  0  0  0
 12 27  2  0  0  0  0
 13 28  1  0  0  0  0
 14 15  2  0  0  0  0
 14 29  1  0  0  0  0
 15 30  1  0  0  0  0
 16 24  1  0  0  0  0
 16 28  2  0  0  0  0
 17 25  2  0  0  0  0
 17 26  1  0  0  0  0
 18 30  2  0  0  0  0
 18 31  1  0  0  0  0
 19 32  1  0  0  0  0
 20 32  1  0  0  0  0
 20 33  2  0  0  0  0
 20 36  1  0  0  0  0
 21 23  2  0  0  0  0
 21 42  1  0  0  0  0
 22 24  2  0  0  0  0
 22 43  1  0  0  0  0
 23 51  1  0  0  0  0
 24 44  1  0  0  0  0
 25 69  1  0  0  0  0
 26 70  1  0  0  0  0
 27 80  1  0  0  0  0
 28 81  1  0  0  0  0
 29 31  2  0  0  0  0
 29 80  1  0  0  0  0
 30 82  1  0  0  0  0
 31 83  1  0  0  0  0
 32 63  2  0  0  0  0
 33 64  1  0  0  0  0
 33 67  1  0  0  0  0
 34 35  2  0  0  0  0
 34 37  1  0  0  0  0
 35 59  1  0  0  0  0
 36 68  1  0  0  0  0
 36 74  2  0  0  0  0
 37 69  1  0  0  0  0
 37 75  2  0  0  0  0
 38 52  1  0  0  0  0
 38 71  1  0  0  0  0
 38 76  2  0  0  0  0
 39 60  1  0  0  0  0
 39 65  1  0  0  0  0
 39 77  2  0  0  0  0
 40 61  1  0  0  0  0
 40 72  1  0  0  0  0
 40 78  2  0  0  0  0
 41 66  1  0  0  0  0
 41 70  1  0  0  0  0
 41 79  2  0  0  0  0
 42 45  1  0  0  0  0
 43 52  1  0  0  0  0
 44 65  1  0  0  0  0
 45 47  1  0  0  0  0
 46 48  1  0  0  0  0
 46 49  1  0  0  0  0
 47 51  1  0  0  0  0
 48 53  1  0  0  0  0
 49 66  1  0  0  0  0
 50 53  1  0  0  0  0
 50 66  1  0  0  0  0
 51 71  1  0  0  0  0
 52 65  1  0  0  0  0
 53 64  1  0  0  0  0
 54 61  1  0  0  0  0
 55 62  1  0  0  0  0
 56 62  1  0  0  0  0
 57 62  1  0  0  0  0
 58 73  1  0  0  0  0
 59 81  1  0  0  0  0
 60 62  1  0  0  0  0
 60 72  1  0  0  0  0
 61 73  1  0  0  0  0
 63 64  1  0  0  0  0
M  CHG  1  73   1
M  ISO  4  41 100  59 101  70 100  81 101
M  END
> <Batch ID>
0058

> <Smiles>
CNC(C)C(=O)NC(C(=O)N1Cc2cc([101O:1][101CH2:1]C=CC(=O)Nc3cccc([100NH:0][100C:0](=O)N4CCCC(n5nc(-c6ccc(Oc7ccc(F)cc7F)cc6)c(C(N)=O)c5N)C4)c3)ccc2CC1C(=O)NC1CCCc2ccccc21)C(C)(C)C

> <Shape>
0.309

> <Color>
0.222

> <Negative vol penalty>
0.000

$$$$

  -OEChem-04042322583D

 85 93  0     1  0  0  0  0  0999 V2000
  -27.5076  -20.8242   17.9455 C   0  0  0  0  0  0  0  0  0  0  0  0
  -26.6911  -21.8561   18.3970 C   0  0  0  0  0  0  0  0  0  0  0  0
  -25.7677  -14.4141   19.5806 C   0  0  0  0  0  0  0  0  0  0  0  0
  -24.3906  -14.2742   21.5607 C   0  0  0  0  0  0  0  0  0  0  0  0
  -28.6791  -20.5116   18.6338 C   0  0  0  0  0  0  0  0  0  0  0  0
  -27.0451  -22.5754   19.5380 C   0  0  0  0  0  0  0  0  0  0  0  0
  -26.4696  -27.5711   18.9414 C   0  0  0  0  0  0  0  0  0  0  0  0
  -21.6575  -24.6383   23.5971 C   0  0  0  0  0  0  0  0  0  0  0  0
  -20.7831  -25.7119   23.4289 C   0  0  0  0  0  0  0  0  0  0  0  0
  -25.9751  -13.0355   19.6273 C   0  0  0  0  0  0  0  0  0  0  0  0
  -24.5979  -12.8956   21.6075 C   0  0  0  0  0  0  0  0  0  0  0  0
  -25.1741  -28.0782   19.0324 C   0  0  0  0  0  0  0  0  0  0  0  0
  -23.4102  -10.1454   20.0435 C   0  0  0  0  0  0  0  0  0  0  0  0
  -22.3018   -9.3326   20.2806 C   0  0  0  0  0  0  0  0  0  0  0  0
  -25.6120  -28.7730   21.3006 C   0  0  0  0  0  0  0  0  0  0  0  0
  -20.4799  -23.4104   21.8816 C   0  0  0  0  0  0  0  0  0  0  0  0
  -23.3580   -8.4748   22.2771 C   0  0  0  0  0  0  0  0  0  0  0  0
  -24.9756  -15.0334   20.5473 C   0  0  0  0  0  0  0  0  0  0  0  0
  -24.1698  -17.1939   19.4561 C   0  0  0  0  0  0  0  0  0  0  0  0
  -29.0526  -21.2338   19.7782 C   0  0  0  0  0  0  0  0  0  0  0  0
  -27.3440  -27.6516   20.0347 C   0  0  0  0  0  0  0  0  0  0  0  0
  -28.2220  -22.2713   20.2431 C   0  0  0  0  0  0  0  0  0  0  0  0
  -26.9189  -28.2685   21.2200 C   0  0  0  0  0  0  0  0  0  0  0  0
  -19.6054  -24.4841   21.7135 C   0  0  0  0  0  0  0  0  0  0  0  0
  -21.5059  -23.4875   22.8234 C   0  0  0  0  0  0  0  0  0  0  0  0
  -19.7571  -25.6348   22.4871 C   0  0  0  0  0  0  0  0  0  0  0  0
  -25.3901  -12.2763   20.6408 C   0  0  0  0  0  0  0  0  0  0  0  0
  -24.7442  -28.6767   20.2131 C   0  0  0  0  0  0  0  0  0  0  0  0
  -24.4926  -10.1229   20.9230 C   0  0  0  0  0  0  0  0  0  0  0  0
  -22.2757   -8.4973   21.3975 C   0  0  0  0  0  0  0  0  0  0  0  0
  -24.4665   -9.2877   22.0399 C   0  0  0  0  0  0  0  0  0  0  0  0
  -24.7615  -16.4575   20.4998 C   0  0  0  0  0  0  0  0  0  0  0  0
  -24.2009  -18.4955   19.8936 C   0  0  0  0  0  0  0  0  0  0  0  0
  -20.4618  -27.5811   20.6559 C   0  0  0  0  0  0  0  0  0  0  0  0
  -21.1654  -28.6428   20.2393 C   0  0  0  0  0  0  0  0  0  0  0  0
  -23.6394  -16.7418   18.2031 C   0  0  0  0  0  0  0  0  0  0  0  0
  -19.1795  -27.7737   21.3966 C   0  0  0  0  0  0  0  0  0  0  0  0
  -28.8491  -25.5320   21.8639 C   0  0  0  0  0  0  0  0  0  0  0  0
  -30.2399  -28.1820   23.1154 C   0  0  0  0  0  0  0  0  0  0  0  0
  -30.0764  -31.5415   23.6930 C   0  0  0  0  0  0  0  0  0  0  0  0
  -23.4680  -22.3129   23.8802 C   0  0  0  0  0  0  0  0  0  0  0  0
  -30.3039  -20.8284   20.5162 C   0  0  0  0  0  0  0  0  0  0  0  0
  -28.7471  -27.1237   19.9115 C   0  0  0  0  0  0  0  0  0  0  0  0
  -27.8255  -28.3981   22.4158 C   0  0  0  0  0  0  0  0  0  0  0  0
  -30.7993  -21.8842   21.5011 C   0  0  0  0  0  0  0  0  0  0  0  0
  -26.5825  -20.5880   23.8396 C   0  0  0  0  0  0  0  0  0  0  0  0
  -29.6424  -22.4138   22.3426 C   0  0  0  0  0  0  0  0  0  0  0  0
  -26.3377  -19.4202   22.8813 C   0  0  0  0  0  0  0  0  0  0  0  0
  -25.3469  -20.8984   24.6827 C   0  0  0  0  0  0  0  0  0  0  0  0
  -23.8667  -19.9445   22.9598 C   0  0  0  0  0  0  0  0  0  0  0  0
  -28.5848  -23.0908   21.4625 C   0  0  1  0  0  0  0  0  0  0  0  0
  -29.3839  -26.7993   21.2593 C   0  0  1  0  0  0  0  0  0  0  0  0
  -25.0622  -19.6366   22.0435 C   0  0  2  0  0  0  0  0  0  0  0  0
  -18.5166  -24.3751   20.6959 C   0  0  0  0  0  0  0  0  0  0  0  0
  -30.8375  -33.8181   24.4247 C   0  0  0  0  0  0  0  0  0  0  0  0
  -29.3542  -27.1962   25.8638 C   0  0  0  0  0  0  0  0  0  0  0  0
  -29.7847  -29.4975   26.7509 C   0  0  0  0  0  0  0  0  0  0  0  0
  -31.6608  -28.1602   25.7947 C   0  0  0  0  0  0  0  0  0  0  0  0
  -17.6316  -26.8297   23.1381 C   0  0  0  0  0  0  0  0  0  0  0  0
  -31.2868  -32.1127   21.0533 C   0  0  0  0  0  0  0  0  0  0  0  0
  -22.4727  -28.5300   19.5239 C   0  0  0  0  0  0  0  0  0  1  0  0
  -29.9133  -29.1284   24.2452 C   0  0  1  0  0  0  0  0  0  0  0  0
  -31.0925  -32.6499   23.4849 C   0  0  2  0  0  0  0  0  0  0  0  0
  -30.1603  -28.4916   25.6420 C   0  0  0  0  0  0  0  0  0  0  0  0
  -25.1409  -17.2273   21.5233 N   0  0  0  0  0  0  0  0  0  0  0  0
  -24.7869  -18.4610   21.1247 N   0  0  0  0  0  0  0  0  0  0  0  0
  -29.1860  -27.8610   22.2481 N   0  0  0  0  0  0  0  0  0  0  0  0
  -24.1788  -21.0955   23.8216 N   0  0  0  0  0  0  0  0  0  0  0  0
  -23.7841  -19.6547   19.3415 N   0  0  0  0  0  0  0  0  0  0  0  0
  -22.2861  -16.3823   18.1412 N   0  0  0  0  0  0  0  0  0  0  0  0
  -22.3960  -22.3980   22.9925 N   0  0  0  0  0  0  0  0  0  0  0  0
  -29.0237  -24.4133   21.0718 N   0  0  0  0  0  0  0  0  0  0  0  0
  -30.6844  -30.3418   23.9970 N   0  0  0  0  0  0  0  0  0  0  0  0
  -18.8582  -26.7644   22.3262 N   0  0  0  0  0  0  0  0  0  0  0  0
  -31.0312  -33.1524   22.0832 N   0  3  0  0  0  0  0  0  0  0  0  0
  -24.3485  -16.6436   17.1730 O   0  0  0  0  0  0  0  0  0  0  0  0
  -18.5051  -28.7776   21.1666 O   0  0  0  0  0  0  0  0  0  0  0  0
  -28.3187  -25.5664   22.9681 O   0  0  0  0  0  0  0  0  0  0  0  0
  -31.3894  -27.7492   23.0022 O   0  0  0  0  0  0  0  0  0  0  0  0
  -28.8644  -31.7227   23.5992 O   0  0  0  0  0  0  0  0  0  0  0  0
  -23.8035  -23.2242   24.6412 O   0  0  0  0  0  0  0  0  0  0  0  0
  -25.5920  -10.9310   20.6866 O   0  0  0  0  0  0  0  0  0  0  0  0
  -23.4800  -29.1718   20.3049 O   0  0  0  0  0  0  0  0  0  1  0  0
  -21.2105   -7.7180   21.6260 F   0  0  0  0  0  0  0  0  0  0  0  0
  -25.5028   -9.2626   22.8891 F   0  0  0  0  0  0  0  0  0  0  0  0
  1  2  1  0  0  0  0
  1  5  2  0  0  0  0
  2  6  2  0  0  0  0
  3 10  2  0  0  0  0
  3 18  1  0  0  0  0
  4 11  1  0  0  0  0
  4 18  2  0  0  0  0
  5 20  1  0  0  0  0
  6 22  1  0  0  0  0
  7 12  2  0  0  0  0
  7 21  1  0  0  0  0
  8  9  2  0  0  0  0
  8 25  1  0  0  0  0
  9 26  1  0  0  0  0
 10 27  1  0  0  0  0
 11 27  2  0  0  0  0
 12 28  1  0  0  0  0
 13 14  2  0  0  0  0
 13 29  1  0  0  0  0
 14 30  1  0  0  0  0
 15 23  1  0  0  0  0
 15 28  2  0  0  0  0
 16 24  1  0  0  0  0
 16 25  2  0  0  0  0
 17 30  2  0  0  0  0
 17 31  1  0  0  0  0
 18 32  1  0  0  0  0
 19 32  1  0  0  0  0
 19 33  2  0  0  0  0
 19 36  1  0  0  0  0
 20 22  2  0  0  0  0
 20 42  1  0  0  0  0
 21 23  2  0  0  0  0
 21 43  1  0  0  0  0
 22 51  1  0  0  0  0
 23 44  1  0  0  0  0
 24 26  2  0  0  0  0
 24 54  1  0  0  0  0
 25 71  1  0  0  0  0
 26 74  1  0  0  0  0
 27 82  1  0  0  0  0
 28 83  1  0  0  0  0
 29 31  2  0  0  0  0
 29 82  1  0  0  0  0
 30 84  1  0  0  0  0
 31 85  1  0  0  0  0
 32 65  2  0  0  0  0
 33 66  1  0  0  0  0
 33 69  1  0  0  0  0
 34 35  2  0  0  0  0
 34 37  1  0  0  0  0
 35 61  1  0  0  0  0
 36 70  1  0  0  0  0
 36 76  2  0  0  0  0
 37 74  1  0  0  0  0
 37 77  2  0  0  0  0
 38 52  1  0  0  0  0
 38 72  1  0  0  0  0
 38 78  2  0  0  0  0
 39 62  1  0  0  0  0
 39 67  1  0  0  0  0
 39 79  2  0  0  0  0
 40 63  1  0  0  0  0
 40 73  1  0  0  0  0
 40 80  2  0  0  0  0
 41 68  1  0  0  0  0
 41 71  1  0  0  0  0
 41 81  2  0  0  0  0
 42 45  1  0  0  0  0
 43 52  1  0  0  0  0
 44 67  1  0  0  0  0
 45 47  1  0  0  0  0
 46 48  1  0  0  0  0
 46 49  1  0  0  0  0
 47 51  1  0  0  0  0
 48 53  1  0  0  0  0
 49 68  1  0  0  0  0
 50 53  1  0  0  0  0
 50 68  1  0  0  0  0
 51 72  1  0  0  0  0
 52 67  1  0  0  0  0
 53 66  1  0  0  0  0
 55 63  1  0  0  0  0
 56 64  1  0  0  0  0
 57 64  1  0  0  0  0
 58 64  1  0  0  0  0
 59 74  1  0  0  0  0
 60 75  1  0  0  0  0
 61 83  1  0  0  0  0
 62 64  1  0  0  0  0
 62 73  1  0  0  0  0
 63 75  1  0  0  0  0
 65 66  1  0  0  0  0
M  CHG  1  75   1
M  ISO  4  41 100  61 101  71 100  83 101
M  END
> <Batch ID>
0058

> <Smiles>
CNC(C)C(=O)NC(C(=O)N1Cc2cc([101O:1][101CH2:1]C=CC(=O)N(C)c3ccc([100NH:0][100C:0](=O)N4CCCC(n5nc(-c6ccc(Oc7ccc(F)cc7F)cc6)c(C(N)=O)c5N)C4)cc3C)ccc2CC1C(=O)NC1CCCc2ccccc21)C(C)(C)C

> <Shape>
0.204

> <Color>
0.054

> <Negative vol penalty>
0.000

$$$$

  -OEChem-04042322583D

 88 96  0     1  0  0  0  0  0999 V2000
  -21.9537  -12.2351   18.9795 C   0  0  0  0  0  0  0  0  0  0  0  0
  -21.8349  -13.5684   19.3583 C   0  0  0  0  0  0  0  0  0  0  0  0
  -29.7025  -28.1942   18.2605 C   0  0  0  0  0  0  0  0  0  0  0  0
  -29.7872  -27.3936   20.5384 C   0  0  0  0  0  0  0  0  0  0  0  0
  -23.1132  -11.5247   19.2872 C   0  0  0  0  0  0  0  0  0  0  0  0
  -22.8754  -14.1919   20.0462 C   0  0  0  0  0  0  0  0  0  0  0  0
  -23.9017  -18.8119   18.2442 C   0  0  0  0  0  0  0  0  0  0  0  0
  -17.9984  -28.5890   22.2822 C   0  0  0  0  0  0  0  0  0  0  0  0
  -19.2594  -29.1782   22.3730 C   0  0  0  0  0  0  0  0  0  0  0  0
  -31.0948  -28.1452   18.1915 C   0  0  0  0  0  0  0  0  0  0  0  0
  -31.1795  -27.3446   20.4695 C   0  0  0  0  0  0  0  0  0  0  0  0
  -23.0446  -19.8460   18.6180 C   0  0  0  0  0  0  0  0  0  0  0  0
  -34.6085  -27.8874   17.2956 C   0  0  0  0  0  0  0  0  0  0  0  0
  -35.1820  -27.3321   16.1518 C   0  0  0  0  0  0  0  0  0  0  0  0
  -20.2381  -27.0148   22.8191 C   0  0  0  0  0  0  0  0  0  0  0  0
  -24.6330  -20.5497   20.2915 C   0  0  0  0  0  0  0  0  0  0  0  0
  -34.0607  -25.2406   16.6050 C   0  0  0  0  0  0  0  0  0  0  0  0
  -29.0487  -27.8184   19.4340 C   0  0  0  0  0  0  0  0  0  0  0  0
  -18.9770  -26.4256   22.7283 C   0  0  0  0  0  0  0  0  0  0  0  0
  -26.7061  -26.8414   19.1786 C   0  0  0  0  0  0  0  0  0  0  0  0
  -24.1724  -12.1426   19.9707 C   0  0  0  0  0  0  0  0  0  0  0  0
  -25.1282  -18.6320   18.8998 C   0  0  0  0  0  0  0  0  0  0  0  0
  -24.0497  -13.4888   20.3645 C   0  0  0  0  0  0  0  0  0  0  0  0
  -25.5051  -19.5142   19.9225 C   0  0  0  0  0  0  0  0  0  0  0  0
  -17.8571  -27.2127   22.4599 C   0  0  0  0  0  0  0  0  0  0  0  0
  -20.3792  -28.3911   22.6414 C   0  0  0  0  0  0  0  0  0  0  0  0
  -31.8333  -27.7204   19.2960 C   0  0  0  0  0  0  0  0  0  0  0  0
  -23.4089  -20.7134   19.6437 C   0  0  0  0  0  0  0  0  0  0  0  0
  -33.7611  -27.1193   18.0942 C   0  0  0  0  0  0  0  0  0  0  0  0
  -34.9081  -26.0087   15.8065 C   0  0  0  0  0  0  0  0  0  0  0  0
  -33.4872  -25.7959   17.7488 C   0  0  0  0  0  0  0  0  0  0  0  0
  -27.6105  -27.8693   19.5060 C   0  0  0  0  0  0  0  0  0  0  0  0
  -25.4675  -27.3852   19.4166 C   0  0  0  0  0  0  0  0  0  0  0  0
  -18.8552  -24.9576   22.9211 C   0  0  0  0  0  0  0  0  0  0  0  0
  -26.9626  -25.5137   18.7019 C   0  0  0  0  0  0  0  0  0  0  0  0
  -26.4204  -16.3093   20.6430 C   0  0  0  0  0  0  0  0  0  0  0  0
  -29.0500  -18.2040   20.5105 C   0  0  0  0  0  0  0  0  0  0  0  0
  -16.6405  -22.5649   21.7500 C   0  0  0  0  0  0  0  0  0  0  0  0
  -30.3486  -21.3328   20.0971 C   0  0  0  0  0  0  0  0  0  0  0  0
  -21.9733  -30.3411   22.5878 C   0  0  0  0  0  0  0  0  0  0  0  0
  -25.3868  -11.3206   20.3228 C   0  0  0  0  0  0  0  0  0  0  0  0
  -26.0534  -17.5280   18.4667 C   0  0  0  0  0  0  0  0  0  0  0  0
  -26.8199  -19.3763   20.6441 C   0  0  0  0  0  0  0  0  0  0  0  0
  -26.5959  -12.1615   20.7246 C   0  0  0  0  0  0  0  0  0  0  0  0
  -24.0976  -32.1609   20.3850 C   0  0  0  0  0  0  0  0  0  0  0  0
  -26.1860  -13.2469   21.7148 C   0  0  0  0  0  0  0  0  0  0  0  0
  -25.1265  -31.1221   19.9330 C   0  0  0  0  0  0  0  0  0  0  0  0
  -23.7005  -31.9669   21.8473 C   0  0  0  0  0  0  0  0  0  0  0  0
  -24.2780  -29.5743   21.7417 C   0  0  0  0  0  0  0  0  0  0  0  0
  -25.1666  -14.2071   21.0902 C   0  0  1  0  0  0  0  0  0  0  0  0
  -27.0500  -17.1246   19.5491 C   0  0  1  0  0  0  0  0  0  0  0  0
  -24.6603  -29.6892   20.2570 C   0  0  2  0  0  0  0  0  0  0  0  0
  -16.4951  -26.6074   22.3573 C   0  0  0  0  0  0  0  0  0  0  0  0
  -32.5296  -22.5739   20.0795 C   0  0  0  0  0  0  0  0  0  0  0  0
  -29.1547  -18.0582   23.5564 C   0  0  0  0  0  0  0  0  0  0  0  0
  -30.7068  -20.0225   23.5276 C   0  0  0  0  0  0  0  0  0  0  0  0
  -31.3794  -17.8874   22.4267 C   0  0  0  0  0  0  0  0  0  0  0  0
  -29.9725  -22.1878   17.2888 C   0  0  0  0  0  0  0  0  0  0  0  0
  -20.4217  -22.2759   20.9179 C   0  0  0  0  0  0  0  0  0  0  0  0
  -18.9087  -22.0939   20.7866 C   0  0  0  0  0  0  0  0  0  0  0  0
  -21.1740  -21.5015   19.8443 C   0  0  0  0  0  0  0  0  0  1  0  0
  -29.6009  -19.3287   21.3535 C   0  0  1  0  0  0  0  0  0  0  0  0
  -18.1346  -22.8180   21.8920 C   0  0  1  0  0  0  0  0  0  0  0  0
  -31.4930  -21.8433   19.2402 C   0  0  2  0  0  0  0  0  0  0  0  0
  -30.1847  -18.8259   22.7040 C   0  0  0  0  0  0  0  0  0  0  0  0
  -26.9986  -28.9819   19.9203 N   0  0  0  0  0  0  0  0  0  0  0  0
  -25.6964  -28.6564   19.8547 N   0  0  0  0  0  0  0  0  0  0  0  0
  -27.6873  -18.2774   20.1886 N   0  0  0  0  0  0  0  0  0  0  0  0
  -23.2659  -30.5876   22.0787 N   0  0  0  0  0  0  0  0  0  0  0  0
  -24.2158  -26.8953   19.2917 N   0  0  0  0  0  0  0  0  0  0  0  0
  -28.2935  -25.1174   18.5124 N   0  0  0  0  0  0  0  0  0  0  0  0
  -16.2190  -21.4463   22.4374 N   0  0  0  0  0  0  0  0  0  0  0  0
  -21.6598  -28.9903   22.7356 N   0  0  0  0  0  0  0  0  0  0  0  0
  -18.3363  -24.2434   21.8493 N   0  0  0  0  0  0  0  0  0  0  0  0
  -25.8285  -15.1403   20.2039 N   0  0  0  0  0  0  0  0  0  0  0  0
  -30.5615  -20.0357   20.5135 N   0  0  0  0  0  0  0  0  0  0  0  0
  -30.9833  -22.7820   18.2010 N   0  3  0  0  0  0  0  0  0  0  0  0
  -19.1900  -24.4636   23.9946 O   0  0  0  0  0  0  0  0  0  0  0  0
  -26.0383  -24.7084   18.4359 O   0  0  0  0  0  0  0  0  0  0  0  0
  -26.4693  -16.7103   21.7999 O   0  0  0  0  0  0  0  0  0  0  0  0
  -29.8026  -17.2977   20.1449 O   0  0  0  0  0  0  0  0  0  0  0  0
  -15.8940  -23.2557   21.0603 O   0  0  0  0  0  0  0  0  0  0  0  0
  -29.3660  -22.0176   20.3728 O   0  0  0  0  0  0  0  0  0  0  0  0
  -21.1914  -31.2597   22.8461 O   0  0  0  0  0  0  0  0  0  0  0  0
  -33.1919  -27.6723   19.2290 O   0  0  0  0  0  0  0  0  0  0  0  0
  -22.5738  -21.7232   20.0109 O   0  0  0  0  0  0  0  0  0  1  0  0
  -35.4577  -25.4761   14.7072 F   0  0  0  0  0  0  0  0  0  0  0  0
  -32.6730  -25.0534   18.5114 F   0  0  0  0  0  0  0  0  0  0  0  0
  1  2  1  0  0  0  0
  1  5  2  0  0  0  0
  2  6  2  0  0  0  0
  3 10  2  0  0  0  0
  3 18  1  0  0  0  0
  4 11  1  0  0  0  0
  4 18  2  0  0  0  0
  5 21  1  0  0  0  0
  6 23  1  0  0  0  0
  7 12  2  0  0  0  0
  7 22  1  0  0  0  0
  8  9  2  0  0  0  0
  8 25  1  0  0  0  0
  9 26  1  0  0  0  0
 10 27  1  0  0  0  0
 11 27  2  0  0  0  0
 12 28  1  0  0  0  0
 13 14  2  0  0  0  0
 13 29  1  0  0  0  0
 14 30  1  0  0  0  0
 15 19  1  0  0  0  0
 15 26  2  0  0  0  0
 16 24  1  0  0  0  0
 16 28  2  0  0  0  0
 17 30  2  0  0  0  0
 17 31  1  0  0  0  0
 18 32  1  0  0  0  0
 19 25  2  0  0  0  0
 19 34  1  0  0  0  0
 20 32  1  0  0  0  0
 20 33  2  0  0  0  0
 20 35  1  0  0  0  0
 21 23  2  0  0  0  0
 21 41  1  0  0  0  0
 22 24  2  0  0  0  0
 22 42  1  0  0  0  0
 23 50  1  0  0  0  0
 24 43  1  0  0  0  0
 25 53  1  0  0  0  0
 26 73  1  0  0  0  0
 27 85  1  0  0  0  0
 28 86  1  0  0  0  0
 29 31  2  0  0  0  0
 29 85  1  0  0  0  0
 30 87  1  0  0  0  0
 31 88  1  0  0  0  0
 32 66  2  0  0  0  0
 33 67  1  0  0  0  0
 33 70  1  0  0  0  0
 34 74  1  0  0  0  0
 34 78  2  0  0  0  0
 35 71  1  0  0  0  0
 35 79  2  0  0  0  0
 36 51  1  0  0  0  0
 36 75  1  0  0  0  0
 36 80  2  0  0  0  0
 37 62  1  0  0  0  0
 37 68  1  0  0  0  0
 37 81  2  0  0  0  0
 38 63  1  0  0  0  0
 38 72  1  0  0  0  0
 38 82  2  0  0  0  0
 39 64  1  0  0  0  0
 39 76  1  0  0  0  0
 39 83  2  0  0  0  0
 40 69  1  0  0  0  0
 40 73  1  0  0  0  0
 40 84  2  0  0  0  0
 41 44  1  0  0  0  0
 42 51  1  0  0  0  0
 43 68  1  0  0  0  0
 44 46  1  0  0  0  0
 45 47  1  0  0  0  0
 45 48  1  0  0  0  0
 46 50  1  0  0  0  0
 47 52  1  0  0  0  0
 48 69  1  0  0  0  0
 49 52  1  0  0  0  0
 49 69  1  0  0  0  0
 50 75  1  0  0  0  0
 51 68  1  0  0  0  0
 52 67  1  0  0  0  0
 54 64  1  0  0  0  0
 55 65  1  0  0  0  0
 56 65  1  0  0  0  0
 57 65  1  0  0  0  0
 58 77  1  0  0  0  0
 59 60  1  0  0  0  0
 59 61  1  0  0  0  0
 60 63  1  0  0  0  0
 61 86  1  0  0  0  0
 62 65  1  0  0  0  0
 62 76  1  0  0  0  0
 63 74  1  0  0  0  0
 64 77  1  0  0  0  0
 66 67  1  0  0  0  0
M  CHG  1  77   1
M  ISO  4  40 100  61 101  73 100  86 101
M  END
> <Batch ID>
0058

> <Smiles>
CNC(C)C(=O)NC(C(=O)N1Cc2cc([101O:1][101CH2:1]CCC(NC(=O)c3cc([100NH:0][100C:0](=O)N4CCCC(n5nc(-c6ccc(Oc7ccc(F)cc7F)cc6)c(C(N)=O)c5N)C4)ccc3C)C(N)=O)ccc2CC1C(=O)NC1CCCc2ccccc21)C(C)(C)C

> <Shape>
0.244

> <Color>
0.097

> <Negative vol penalty>
0.000

$$$$

  -OEChem-04042322583D

 92101  0     1  0  0  0  0  0999 V2000
  -30.0755  -36.0801   19.1813 C   0  0  0  0  0  0  0  0  0  0  0  0
  -30.9027  -35.0820   18.6789 C   0  0  0  0  0  0  0  0  0  0  0  0
  -32.7231  -17.1919   23.6506 C   0  0  0  0  0  0  0  0  0  0  0  0
  -23.2756  -10.0972   22.1828 C   0  0  0  0  0  0  0  0  0  0  0  0
  -23.4953   -9.5883   19.8313 C   0  0  0  0  0  0  0  0  0  0  0  0
  -29.0001  -35.7422   20.0002 C   0  0  0  0  0  0  0  0  0  0  0  0
  -30.6478  -33.7448   18.9855 C   0  0  0  0  0  0  0  0  0  0  0  0
  -31.7070  -25.8163   18.9241 C   0  0  0  0  0  0  0  0  0  0  0  0
  -31.9724  -18.0111   24.4938 C   0  0  0  0  0  0  0  0  0  0  0  0
  -32.0827  -16.3896   22.7062 C   0  0  0  0  0  0  0  0  0  0  0  0
  -22.5297   -8.9328   22.3652 C   0  0  0  0  0  0  0  0  0  0  0  0
  -22.7494   -8.4238   20.0136 C   0  0  0  0  0  0  0  0  0  0  0  0
  -31.3734  -24.6318   19.5794 C   0  0  0  0  0  0  0  0  0  0  0  0
  -23.1219   -5.6185   22.6774 C   0  0  0  0  0  0  0  0  0  0  0  0
  -23.4309   -4.8160   23.7757 C   0  0  0  0  0  0  0  0  0  0  0  0
  -29.0346  -25.1866   19.3786 C   0  0  0  0  0  0  0  0  0  0  0  0
  -21.1848   -5.1038   24.6179 C   0  0  0  0  0  0  0  0  0  0  0  0
  -23.7584  -10.4250   20.9159 C   0  0  0  0  0  0  0  0  0  0  0  0
  -24.1153  -12.9502   20.9779 C   0  0  0  0  0  0  0  0  0  0  0  0
  -28.7401  -34.4010   20.3267 C   0  0  0  0  0  0  0  0  0  0  0  0
  -30.7059  -26.7017   18.4993 C   0  0  0  0  0  0  0  0  0  0  0  0
  -29.5532  -33.3817   19.7909 C   0  0  0  0  0  0  0  0  0  0  0  0
  -29.3580  -26.3792   18.7138 C   0  0  0  0  0  0  0  0  0  0  0  0
  -30.5813  -18.0278   24.3928 C   0  0  0  0  0  0  0  0  0  0  0  0
  -29.9409  -17.2254   23.4484 C   0  0  0  0  0  0  0  0  0  0  0  0
  -30.6916  -16.4064   22.6051 C   0  0  0  0  0  0  0  0  0  0  0  0
  -22.2666   -8.0961   21.2806 C   0  0  0  0  0  0  0  0  0  0  0  0
  -30.0371  -24.3179   19.8088 C   0  0  0  0  0  0  0  0  0  0  0  0
  -21.8444   -6.1637   22.5495 C   0  0  0  0  0  0  0  0  0  0  0  0
  -22.4624   -4.5587   24.7459 C   0  0  0  0  0  0  0  0  0  0  0  0
  -20.8759   -5.9064   23.5197 C   0  0  0  0  0  0  0  0  0  0  0  0
  -24.5285  -11.6281   20.7268 C   0  0  0  0  0  0  0  0  0  0  0  0
  -25.2020  -13.7195   20.6406 C   0  0  0  0  0  0  0  0  0  0  0  0
  -27.7731  -21.3442   22.2560 C   0  0  0  0  0  0  0  0  0  0  0  0
  -27.9402  -20.3842   24.5912 C   0  0  0  0  0  0  0  0  0  0  0  0
  -30.2749  -20.7251   22.5077 C   0  0  0  0  0  0  0  0  0  0  0  0
  -22.8613  -13.4392   21.4719 C   0  0  0  0  0  0  0  0  0  0  0  0
  -29.8930  -29.7401   19.0935 C   0  0  0  0  0  0  0  0  0  0  0  0
  -27.7047  -29.0809   16.6790 C   0  0  0  0  0  0  0  0  0  0  0  0
  -27.8562  -32.2027   15.3110 C   0  0  0  0  0  0  0  0  0  0  0  0
  -29.5178  -22.0614   19.5992 C   0  0  0  0  0  0  0  0  0  1  0  0
  -30.6786  -14.7203   20.7334 C   0  0  0  0  0  0  0  0  0  0  0  0
  -27.5580  -34.0910   21.2110 C   0  0  0  0  0  0  0  0  0  0  0  0
  -31.0860  -27.9601   17.7669 C   0  0  0  0  0  0  0  0  0  0  0  0
  -28.2469  -27.2939   18.2741 C   0  0  0  0  0  0  0  0  0  0  0  0
  -27.5817  -21.5717   23.7356 C   0  0  0  0  0  0  0  0  0  0  0  0
  -30.2771  -20.9711   23.9970 C   0  0  0  0  0  0  0  0  0  0  0  0
  -27.6319  -32.7022   21.8370 C   0  0  0  0  0  0  0  0  0  0  0  0
  -29.4783  -12.4995   18.2225 C   0  0  0  0  0  0  0  0  0  0  0  0
  -27.9394  -31.6654   20.7668 C   0  0  0  0  0  0  0  0  0  0  0  0
  -28.0495  -12.1836   18.6708 C   0  0  0  0  0  0  0  0  0  0  0  0
  -30.4294  -12.6315   19.4106 C   0  0  0  0  0  0  0  0  0  0  0  0
  -28.5686  -13.2586   20.8984 C   0  0  0  0  0  0  0  0  0  0  0  0
  -29.3136  -31.9229   20.1358 C   0  0  1  0  0  0  0  0  0  0  0  0
  -29.9916  -29.0254   17.7756 C   0  0  1  0  0  0  0  0  0  0  0  0
  -27.5609  -13.1806   19.7399 C   0  0  2  0  0  0  0  0  0  0  0  0
  -28.4481  -17.2469   23.3437 C   0  0  0  0  0  0  0  0  0  0  0  0
  -27.1669  -34.1664   13.9089 C   0  0  0  0  0  0  0  0  0  0  0  0
  -29.1220  -27.5340   14.4645 C   0  0  0  0  0  0  0  0  0  0  0  0
  -28.7855  -29.5106   12.9652 C   0  0  0  0  0  0  0  0  0  0  0  0
  -26.8111  -28.2979   13.8893 C   0  0  0  0  0  0  0  0  0  0  0  0
  -26.1543  -33.2958   17.4715 C   0  0  0  0  0  0  0  0  0  0  0  0
  -29.7975  -18.9186   25.3127 C   0  0  0  0  0  0  0  0  0  0  0  0
  -29.1545  -20.7969   20.3447 C   0  0  0  0  0  0  0  0  0  0  0  0
  -28.2033  -29.7488   15.4219 C   0  0  1  0  0  0  0  0  0  0  0  0
  -26.7812  -33.2434   15.0543 C   0  0  2  0  0  0  0  0  0  0  0  0
  -28.2442  -28.7756   14.2100 C   0  0  0  0  0  0  0  0  0  0  0  0
  -25.7800  -11.5578   20.2654 N   0  0  0  0  0  0  0  0  0  0  0  0
  -26.1625  -12.8454   20.2239 N   0  0  0  0  0  0  0  0  0  0  0  0
  -29.0704  -20.9821   21.7938 N   0  0  0  0  0  0  0  0  0  0  0  0
  -29.2997  -20.1036   24.6300 N   0  0  0  0  0  0  0  0  0  0  0  0
  -28.6648  -28.4642   17.4913 N   0  0  0  0  0  0  0  0  0  0  0  0
  -29.9037  -13.5954   20.3798 N   0  0  0  0  0  0  0  0  0  0  0  0
  -25.4201  -15.0515   20.6627 N   0  0  0  0  0  0  0  0  0  0  0  0
  -21.8563  -13.7549   20.5475 N   0  0  0  0  0  0  0  0  0  0  0  0
  -30.0620  -15.5837   21.6383 N   0  0  0  0  0  0  0  0  0  0  0  0
  -29.4777  -31.0541   18.9912 N   0  0  0  0  0  0  0  0  0  0  0  0
  -27.3578  -30.9203   15.2192 N   0  0  0  0  0  0  0  0  0  0  0  0
  -26.5618  -34.0729   16.2728 N   0  3  0  0  0  0  0  0  0  0  0  0
  -26.8027  -21.4955   21.5050 O   0  0  0  0  0  0  0  0  0  0  0  0
  -27.0656  -19.7330   25.1621 O   0  0  0  0  0  0  0  0  0  0  0  0
  -31.3301  -20.3731   21.9693 O   0  0  0  0  0  0  0  0  0  0  0  0
  -22.6444  -13.6072   22.6960 O   0  0  0  0  0  0  0  0  0  0  0  0
  -30.1716  -29.1432   20.1268 O   0  0  0  0  0  0  0  0  0  0  0  0
  -26.4968  -29.0975   16.9321 O   0  0  0  0  0  0  0  0  0  0  0  0
  -29.0222  -32.4978   15.5637 O   0  0  0  0  0  0  0  0  0  0  0  0
  -29.6254  -22.0939   18.3774 O   0  0  0  0  0  0  0  0  0  0  0  0
  -31.7949  -14.9183   20.2469 O   0  0  0  0  0  0  0  0  0  0  0  0
  -21.5389   -6.9596   21.4581 O   0  0  0  0  0  0  0  0  0  0  0  0
  -29.7086  -23.1622   20.4477 O   0  0  0  0  0  0  0  0  0  1  0  0
  -22.7588   -3.7867   25.7997 F   0  0  0  0  0  0  0  0  0  0  0  0
  -19.6465   -6.4264   23.4016 F   0  0  0  0  0  0  0  0  0  0  0  0
  1  2  1  0  0  0  0
  1  6  2  0  0  0  0
  2  7  2  0  0  0  0
  3  9  2  0  0  0  0
  3 10  1  0  0  0  0
  4 11  2  0  0  0  0
  4 18  1  0  0  0  0
  5 12  1  0  0  0  0
  5 18  2  0  0  0  0
  6 20  1  0  0  0  0
  7 22  1  0  0  0  0
  8 13  2  0  0  0  0
  8 21  1  0  0  0  0
  9 24  1  0  0  0  0
 10 26  2  0  0  0  0
 11 27  1  0  0  0  0
 12 27  2  0  0  0  0
 13 28  1  0  0  0  0
 14 15  2  0  0  0  0
 14 29  1  0  0  0  0
 15 30  1  0  0  0  0
 16 23  1  0  0  0  0
 16 28  2  0  0  0  0
 17 30  2  0  0  0  0
 17 31  1  0  0  0  0
 18 32  1  0  0  0  0
 19 32  1  0  0  0  0
 19 33  2  0  0  0  0
 19 37  1  0  0  0  0
 20 22  2  0  0  0  0
 20 43  1  0  0  0  0
 21 23  2  0  0  0  0
 21 44  1  0  0  0  0
 22 54  1  0  0  0  0
 23 45  1  0  0  0  0
 24 25  2  0  0  0  0
 24 63  1  0  0  0  0
 25 26  1  0  0  0  0
 25 57  1  0  0  0  0
 26 76  1  0  0  0  0
 27 89  1  0  0  0  0
 28 90  1  0  0  0  0
 29 31  2  0  0  0  0
 29 89  1  0  0  0  0
 30 91  1  0  0  0  0
 31 92  1  0  0  0  0
 32 68  2  0  0  0  0
 33 69  1  0  0  0  0
 33 74  1  0  0  0  0
 34 46  1  0  0  0  0
 34 70  1  0  0  0  0
 34 80  2  0  0  0  0
 35 46  1  0  0  0  0
 35 71  1  0  0  0  0
 35 81  2  0  0  0  0
 36 47  1  0  0  0  0
 36 70  1  0  0  0  0
 36 82  2  0  0  0  0
 37 75  1  0  0  0  0
 37 83  2  0  0  0  0
 38 55  1  0  0  0  0
 38 77  1  0  0  0  0
 38 84  2  0  0  0  0
 39 65  1  0  0  0  0
 39 72  1  0  0  0  0
 39 85  2  0  0  0  0
 40 66  1  0  0  0  0
 40 78  1  0  0  0  0
 40 86  2  0  0  0  0
 41 64  1  0  0  0  0
 41 87  2  0  0  0  0
 41 90  1  0  0  0  0
 42 73  1  0  0  0  0
 42 76  1  0  0  0  0
 42 88  2  0  0  0  0
 43 48  1  0  0  0  0
 44 55  1  0  0  0  0
 45 72  1  0  0  0  0
 47 71  1  0  0  0  0
 48 50  1  0  0  0  0
 49 51  1  0  0  0  0
 49 52  1  0  0  0  0
 50 54  1  0  0  0  0
 51 56  1  0  0  0  0
 52 73  1  0  0  0  0
 53 56  1  0  0  0  0
 53 73  1  0  0  0  0
 54 77  1  0  0  0  0
 55 72  1  0  0  0  0
 56 69  1  0  0  0  0
 58 66  1  0  0  0  0
 59 67  1  0  0  0  0
 60 67  1  0  0  0  0
 61 67  1  0  0  0  0
 62 79  1  0  0  0  0
 63 71  1  0  0  0  0
 64 70  1  0  0  0  0
 65 67  1  0  0  0  0
 65 78  1  0  0  0  0
 66 79  1  0  0  0  0
 68 69  1  0  0  0  0
M  CHG  1  79   1
M  ISO  4  41 101  42 100  76 100  90 101
M  END
> <Batch ID>
0058

> <Smiles>
CNC(C)C(=O)NC(C(=O)N1Cc2cc([101O:1][101C:1](=O)CN3C(=O)CC(=O)N(Cc4cccc([100NH:0][100C:0](=O)N5CCCC(n6nc(-c7ccc(Oc8ccc(F)cc8F)cc7)c(C(N)=O)c6N)C5)c4C)CC3=O)ccc2CC1C(=O)NC1CCCc2ccccc21)C(C)(C)C

> <Shape>
0.240

> <Color>
0.170

> <Negative vol penalty>
0.000

$$$$

  -OEChem-04042322583D

 84 92  0     1  0  0  0  0  0999 V2000
  -31.5854  -27.0764   14.7401 C   0  0  0  0  0  0  0  0  0  0  0  0
  -31.1925  -26.4956   15.9416 C   0  0  0  0  0  0  0  0  0  0  0  0
  -32.8273  -17.7477   22.5824 C   0  0  0  0  0  0  0  0  0  0  0  0
  -22.9846   -9.9174   20.6131 C   0  0  0  0  0  0  0  0  0  0  0  0
  -23.7142  -10.3947   22.8663 C   0  0  0  0  0  0  0  0  0  0  0  0
  -32.0731  -18.7929   23.1157 C   0  0  0  0  0  0  0  0  0  0  0  0
  -31.5038  -28.4585   14.5756 C   0  0  0  0  0  0  0  0  0  0  0  0
  -30.7188  -27.2969   16.9799 C   0  0  0  0  0  0  0  0  0  0  0  0
  -26.5615  -25.3961   19.1590 C   0  0  0  0  0  0  0  0  0  0  0  0
  -32.1969  -16.7200   21.8809 C   0  0  0  0  0  0  0  0  0  0  0  0
  -22.1927   -8.8732   21.0906 C   0  0  0  0  0  0  0  0  0  0  0  0
  -22.9222   -9.3504   23.3439 C   0  0  0  0  0  0  0  0  0  0  0  0
  -26.7378  -24.3462   20.0592 C   0  0  0  0  0  0  0  0  0  0  0  0
  -19.6576   -8.8179   24.0359 C   0  0  0  0  0  0  0  0  0  0  0  0
  -18.8844   -9.0599   25.1713 C   0  0  0  0  0  0  0  0  0  0  0  0
  -26.5430  -25.8970   21.8967 C   0  0  0  0  0  0  0  0  0  0  0  0
  -20.0388   -7.2854   26.3356 C   0  0  0  0  0  0  0  0  0  0  0  0
  -23.7454  -10.6781   21.5009 C   0  0  0  0  0  0  0  0  0  0  0  0
  -30.6885  -18.8102   22.9477 C   0  0  0  0  0  0  0  0  0  0  0  0
  -24.1880  -13.1033   20.8449 C   0  0  0  0  0  0  0  0  0  0  0  0
  -31.0198  -29.2761   15.6090 C   0  0  0  0  0  0  0  0  0  0  0  0
  -26.3852  -26.7081   19.6214 C   0  0  0  0  0  0  0  0  0  0  0  0
  -30.6319  -28.6913   16.8296 C   0  0  0  0  0  0  0  0  0  0  0  0
  -26.3621  -26.9614   21.0003 C   0  0  0  0  0  0  0  0  0  0  0  0
  -30.0581  -17.7825   22.2463 C   0  0  0  0  0  0  0  0  0  0  0  0
  -30.8123  -16.7374   21.7129 C   0  0  0  0  0  0  0  0  0  0  0  0
  -22.1615   -8.5897   22.4560 C   0  0  0  0  0  0  0  0  0  0  0  0
  -26.7314  -24.5970   21.4282 C   0  0  0  0  0  0  0  0  0  0  0  0
  -20.6213   -7.8095   24.0502 C   0  0  0  0  0  0  0  0  0  0  0  0
  -19.0751   -8.2937   26.3212 C   0  0  0  0  0  0  0  0  0  0  0  0
  -20.8120   -7.0433   25.2001 C   0  0  0  0  0  0  0  0  0  0  0  0
  -24.5641  -11.7566   21.0082 C   0  0  0  0  0  0  0  0  0  0  0  0
  -25.3135  -13.7167   20.3515 C   0  0  0  0  0  0  0  0  0  0  0  0
  -29.9114  -19.9278   23.5219 C   0  0  0  0  0  0  0  0  0  0  0  0
  -22.9335  -13.7426   21.1153 C   0  0  0  0  0  0  0  0  0  0  0  0
  -27.9935  -29.4319   19.3082 C   0  0  0  0  0  0  0  0  0  0  0  0
  -25.4343  -30.6696   20.8705 C   0  0  0  0  0  0  0  0  0  0  0  0
  -28.3833  -21.8298   23.0551 C   0  0  0  0  0  0  0  0  0  0  0  0
  -22.7946  -30.1531   22.9710 C   0  0  0  0  0  0  0  0  0  0  0  0
  -30.8139  -14.5799   20.4122 C   0  0  0  0  0  0  0  0  0  0  0  0
  -30.9944  -30.7698   15.4014 C   0  0  0  0  0  0  0  0  0  0  0  0
  -26.1696  -27.8256   18.6379 C   0  0  0  0  0  0  0  0  0  0  0  0
  -26.1563  -28.3491   21.5483 C   0  0  0  0  0  0  0  0  0  0  0  0
  -30.1289  -31.5112   16.4171 C   0  0  0  0  0  0  0  0  0  0  0  0
  -29.6363  -11.7511   18.5989 C   0  0  0  0  0  0  0  0  0  0  0  0
  -30.4204  -31.0153   17.8298 C   0  0  0  0  0  0  0  0  0  0  0  0
  -28.1808  -11.6111   19.0506 C   0  0  0  0  0  0  0  0  0  0  0  0
  -30.5439  -12.2024   19.7418 C   0  0  0  0  0  0  0  0  0  0  0  0
  -28.6491  -13.2767   20.8928 C   0  0  0  0  0  0  0  0  0  0  0  0
  -30.0894  -29.5246   17.9705 C   0  0  1  0  0  0  0  0  0  0  0  0
  -26.5126  -29.1983   19.2086 C   0  0  1  0  0  0  0  0  0  0  0  0
  -27.6857  -12.8868   19.7599 C   0  0  2  0  0  0  0  0  0  0  0  0
  -28.5717  -17.8030   22.0705 C   0  0  0  0  0  0  0  0  0  0  0  0
  -20.9047  -31.3633   24.0941 C   0  0  0  0  0  0  0  0  0  0  0  0
  -27.3962  -31.8654   22.8782 C   0  0  0  0  0  0  0  0  0  0  0  0
  -25.4722  -32.2238   24.4395 C   0  0  0  0  0  0  0  0  0  0  0  0
  -25.5147  -33.3798   22.2294 C   0  0  0  0  0  0  0  0  0  0  0  0
  -20.7638  -28.4902   21.6038 C   0  0  0  0  0  0  0  0  0  0  0  0
  -27.7009  -22.4722   21.8768 C   0  0  0  0  0  0  0  0  0  1  0  0
  -25.0711  -30.8924   22.3188 C   0  0  1  0  0  0  0  0  0  0  0  0
  -21.3360  -30.5626   22.8752 C   0  0  2  0  0  0  0  0  0  0  0  0
  -25.8694  -32.0644   22.9564 C   0  0  0  0  0  0  0  0  0  0  0  0
  -25.8296  -11.5273   20.6475 N   0  0  0  0  0  0  0  0  0  0  0  0
  -26.2584  -12.7382   20.2527 N   0  0  0  0  0  0  0  0  0  0  0  0
  -25.9561  -29.4092   20.5465 N   0  0  0  0  0  0  0  0  0  0  0  0
  -30.0146  -13.4182   20.3634 N   0  0  0  0  0  0  0  0  0  0  0  0
  -25.5771  -14.9923   19.9967 N   0  0  0  0  0  0  0  0  0  0  0  0
  -21.8822  -12.9649   21.6196 N   0  0  0  0  0  0  0  0  0  0  0  0
  -30.1928  -15.6829   20.9972 N   0  0  0  0  0  0  0  0  0  0  0  0
  -29.1930  -20.6921   22.6878 N   0  0  0  0  0  0  0  0  0  0  0  0
  -28.6608  -29.3342   18.1021 N   0  0  0  0  0  0  0  0  0  0  0  0
  -23.6231  -31.0667   22.3543 N   0  0  0  0  0  0  0  0  0  0  0  0
  -29.9685  -20.1096   24.8409 N   0  3  0  0  0  0  0  0  0  0  0  0
  -20.4653  -29.3574   22.7724 N   0  3  0  0  0  0  0  0  0  0  0  0
  -22.7452  -14.9640   20.9000 O   0  0  0  0  0  0  0  0  0  0  0  0
  -28.4935  -29.6837   20.3982 O   0  0  0  0  0  0  0  0  0  0  0  0
  -25.2547  -31.5779   20.0554 O   0  0  0  0  0  0  0  0  0  0  0  0
  -28.2849  -22.2037   24.2149 O   0  0  0  0  0  0  0  0  0  0  0  0
  -23.1626  -29.1275   23.5395 O   0  0  0  0  0  0  0  0  0  0  0  0
  -31.9548  -14.6028   19.9433 O   0  0  0  0  0  0  0  0  0  0  0  0
  -21.3887   -7.5710   22.9224 O   0  0  0  0  0  0  0  0  0  0  0  0
  -26.9039  -23.5742   22.3091 O   0  0  0  0  0  0  0  0  0  1  0  0
  -18.3336   -8.5272   27.4120 F   0  0  0  0  0  0  0  0  0  0  0  0
  -21.7371   -6.0740   25.2203 F   0  0  0  0  0  0  0  0  0  0  0  0
  1  2  1  0  0  0  0
  1  7  2  0  0  0  0
  2  8  2  0  0  0  0
  3  6  2  0  0  0  0
  3 10  1  0  0  0  0
  4 11  2  0  0  0  0
  4 18  1  0  0  0  0
  5 12  1  0  0  0  0
  5 18  2  0  0  0  0
  6 19  1  0  0  0  0
  7 21  1  0  0  0  0
  8 23  1  0  0  0  0
  9 13  2  0  0  0  0
  9 22  1  0  0  0  0
 10 26  2  0  0  0  0
 11 27  1  0  0  0  0
 12 27  2  0  0  0  0
 13 28  1  0  0  0  0
 14 15  2  0  0  0  0
 14 29  1  0  0  0  0
 15 30  1  0  0  0  0
 16 24  1  0  0  0  0
 16 28  2  0  0  0  0
 17 30  2  0  0  0  0
 17 31  1  0  0  0  0
 18 32  1  0  0  0  0
 19 25  2  0  0  0  0
 19 34  1  0  0  0  0
 20 32  1  0  0  0  0
 20 33  2  0  0  0  0
 20 35  1  0  0  0  0
 21 23  2  0  0  0  0
 21 41  1  0  0  0  0
 22 24  2  0  0  0  0
 22 42  1  0  0  0  0
 23 50  1  0  0  0  0
 24 43  1  0  0  0  0
 25 26  1  0  0  0  0
 25 53  1  0  0  0  0
 26 69  1  0  0  0  0
 27 81  1  0  0  0  0
 28 82  1  0  0  0  0
 29 31  2  0  0  0  0
 29 81  1  0  0  0  0
 30 83  1  0  0  0  0
 31 84  1  0  0  0  0
 32 63  2  0  0  0  0
 33 64  1  0  0  0  0
 33 67  1  0  0  0  0
 34 70  1  0  0  0  0
 34 73  2  0  0  0  0
 35 68  1  0  0  0  0
 35 75  2  0  0  0  0
 36 51  1  0  0  0  0
 36 71  1  0  0  0  0
 36 76  2  0  0  0  0
 37 60  1  0  0  0  0
 37 65  1  0  0  0  0
 37 77  2  0  0  0  0
 38 59  1  0  0  0  0
 38 70  1  0  0  0  0
 38 78  2  0  0  0  0
 39 61  1  0  0  0  0
 39 72  1  0  0  0  0
 39 79  2  0  0  0  0
 40 66  1  0  0  0  0
 40 69  1  0  0  0  0
 40 80  2  0  0  0  0
 41 44  1  0  0  0  0
 42 51  1  0  0  0  0
 43 65  1  0  0  0  0
 44 46  1  0  0  0  0
 45 47  1  0  0  0  0
 45 48  1  0  0  0  0
 46 50  1  0  0  0  0
 47 52  1  0  0  0  0
 48 66  1  0  0  0  0
 49 52  1  0  0  0  0
 49 66  1  0  0  0  0
 50 71  1  0  0  0  0
 51 65  1  0  0  0  0
 52 64  1  0  0  0  0
 54 61  1  0  0  0  0
 55 62  1  0  0  0  0
 56 62  1  0  0  0  0
 57 62  1  0  0  0  0
 58 74  1  0  0  0  0
 59 82  1  0  0  0  0
 60 62  1  0  0  0  0
 60 72  1  0  0  0  0
 61 74  1  0  0  0  0
 63 64  1  0  0  0  0
M  CHG  2  73   1  74   1
M  ISO  4  40 100  59 101  69 100  82 101
M  END
> <Batch ID>
0058

> <Smiles>
CNC(C)C(=O)NC(C(=O)N1Cc2cc([101O:1][101CH2:1]C(=O)NC(=N)c3cccc([100NH:0][100C:0](=O)N4CCCC(n5nc(-c6ccc(Oc7ccc(F)cc7F)cc6)c(C(N)=O)c5N)C4)c3C)ccc2CC1C(=O)NC1CCCc2ccccc21)C(C)(C)C

> <Shape>
0.284

> <Color>
0.200

> <Negative vol penalty>
0.000

$$$$

  -OEChem-04042322583D

 86 94  0     1  0  0  0  0  0999 V2000
  -31.4629  -12.2800   22.4700 C   0  0  0  0  0  0  0  0  0  0  0  0
  -30.3672  -12.7646   23.1754 C   0  0  0  0  0  0  0  0  0  0  0  0
  -26.6220  -29.0662   19.3830 C   0  0  0  0  0  0  0  0  0  0  0  0
  -26.1453  -27.8555   21.4188 C   0  0  0  0  0  0  0  0  0  0  0  0
  -31.4071  -12.1874   21.0809 C   0  0  0  0  0  0  0  0  0  0  0  0
  -29.2113  -13.1455   22.4932 C   0  0  0  0  0  0  0  0  0  0  0  0
  -25.2924  -14.3277   25.2223 C   0  0  0  0  0  0  0  0  0  0  0  0
  -29.3791  -18.0093   21.5802 C   0  0  0  0  0  0  0  0  0  0  0  0
  -29.8384  -19.1442   20.9120 C   0  0  0  0  0  0  0  0  0  0  0  0
  -25.3138  -29.5497   19.3642 C   0  0  0  0  0  0  0  0  0  0  0  0
  -24.8371  -28.3391   21.4000 C   0  0  0  0  0  0  0  0  0  0  0  0
  -25.2182  -15.5058   25.9642 C   0  0  0  0  0  0  0  0  0  0  0  0
  -21.9491  -27.6494   19.7829 C   0  0  0  0  0  0  0  0  0  0  0  0
  -20.9197  -26.7435   20.0382 C   0  0  0  0  0  0  0  0  0  0  0  0
  -29.3052  -20.4962   22.8420 C   0  0  0  0  0  0  0  0  0  0  0  0
  -23.7586  -16.4573   24.2959 C   0  0  0  0  0  0  0  0  0  0  0  0
  -20.2373  -28.0571   21.9476 C   0  0  0  0  0  0  0  0  0  0  0  0
  -27.0378  -28.2191   20.4103 C   0  0  0  0  0  0  0  0  0  0  0  0
  -28.8458  -19.3612   23.5102 C   0  0  0  0  0  0  0  0  0  0  0  0
  -29.5066  -28.3134   21.0455 C   0  0  0  0  0  0  0  0  0  0  0  0
  -30.2540  -12.5794   20.3811 C   0  0  0  0  0  0  0  0  0  0  0  0
  -24.6078  -14.2093   24.0042 C   0  0  0  0  0  0  0  0  0  0  0  0
  -29.1268  -13.0371   21.0933 C   0  0  0  0  0  0  0  0  0  0  0  0
  -23.8236  -15.2758   23.5418 C   0  0  0  0  0  0  0  0  0  0  0  0
  -28.8827  -18.1178   22.8792 C   0  0  0  0  0  0  0  0  0  0  0  0
  -29.8015  -20.3877   21.5429 C   0  0  0  0  0  0  0  0  0  0  0  0
  -24.4213  -29.1862   20.3727 C   0  0  0  0  0  0  0  0  0  0  0  0
  -24.4536  -16.5719   25.4996 C   0  0  0  0  0  0  0  0  0  0  0  0
  -22.1227  -28.7591   20.6100 C   0  0  0  0  0  0  0  0  0  0  0  0
  -20.0637  -26.9473   21.1205 C   0  0  0  0  0  0  0  0  0  0  0  0
  -21.2668  -28.9630   21.6923 C   0  0  0  0  0  0  0  0  0  0  0  0
  -28.3889  -27.7188   20.4300 C   0  0  0  0  0  0  0  0  0  0  0  0
  -30.5438  -27.4536   20.7780 C   0  0  0  0  0  0  0  0  0  0  0  0
  -28.3243  -19.4973   24.8850 C   0  0  0  0  0  0  0  0  0  0  0  0
  -29.5991  -29.5338   21.7924 C   0  0  0  0  0  0  0  0  0  0  0  0
  -25.4724  -13.7413   20.9815 C   0  0  0  0  0  0  0  0  0  0  0  0
  -22.2698  -13.5486   20.5036 C   0  0  0  0  0  0  0  0  0  0  0  0
  -19.1282  -14.3507   21.5682 C   0  0  0  0  0  0  0  0  0  0  0  0
  -30.7913  -21.6063   19.5727 C   0  0  0  0  0  0  0  0  0  0  0  0
  -30.2450  -12.4509   18.8782 C   0  0  0  0  0  0  0  0  0  0  0  0
  -24.6766  -12.9222   23.2291 C   0  0  0  0  0  0  0  0  0  0  0  0
  -23.0533  -15.1919   22.2503 C   0  0  0  0  0  0  0  0  0  0  0  0
  -29.1551  -13.2879   18.2165 C   0  0  0  0  0  0  0  0  0  0  0  0
  -32.0137  -24.2549   17.5312 C   0  0  0  0  0  0  0  0  0  0  0  0
  -27.8204  -13.0400   18.9033 C   0  0  0  0  0  0  0  0  0  0  0  0
  -31.3293  -25.4987   18.1028 C   0  0  0  0  0  0  0  0  0  0  0  0
  -31.0933  -23.0360   17.5629 C   0  0  0  0  0  0  0  0  0  0  0  0
  -29.8166  -23.9830   19.4449 C   0  0  0  0  0  0  0  0  0  0  0  0
  -27.8699  -13.4861   20.3701 C   0  0  1  0  0  0  0  0  0  0  0  0
  -24.3521  -13.0981   21.7488 C   0  0  1  0  0  0  0  0  0  0  0  0
  -30.7267  -25.2212   19.4940 C   0  0  2  0  0  0  0  0  0  0  0  0
  -28.3975  -16.8878   23.5741 C   0  0  0  0  0  0  0  0  0  0  0  0
  -16.7108  -14.0852   20.9494 C   0  0  0  0  0  0  0  0  0  0  0  0
  -22.5887  -15.6867   18.3503 C   0  0  0  0  0  0  0  0  0  0  0  0
  -20.1143  -16.0552   18.4480 C   0  0  0  0  0  0  0  0  0  0  0  0
  -21.0165  -13.8347   17.7566 C   0  0  0  0  0  0  0  0  0  0  0  0
  -24.2669  -20.2908   27.6161 C   0  0  0  0  0  0  0  0  0  0  0  0
  -24.5972  -21.4078   25.4026 C   0  0  0  0  0  0  0  0  0  0  0  0
  -18.5315  -12.8751   24.0634 C   0  0  0  0  0  0  0  0  0  0  0  0
  -26.3852  -19.8975   26.3602 C   0  0  0  0  0  0  0  0  0  0  0  0
  -24.1864  -18.9350   25.4933 C   0  0  0  0  0  0  0  0  0  1  0  0
  -21.1758  -14.5372   20.1801 C   0  0  1  0  0  0  0  0  0  0  0  0
  -17.8765  -13.5087   21.7378 C   0  0  2  0  0  0  0  0  0  0  0  0
  -21.2398  -15.0310   18.7072 C   0  0  0  0  0  0  0  0  0  0  0  0
  -24.8672  -20.1234   26.2063 C   0  0  0  0  0  0  0  0  0  0  0  0
  -28.6878  -26.5702   19.8174 N   0  0  0  0  0  0  0  0  0  0  0  0
  -30.0052  -26.4361   20.0467 N   0  0  0  0  0  0  0  0  0  0  0  0
  -23.1574  -13.9148   21.5252 N   0  0  0  0  0  0  0  0  0  0  0  0
  -30.5634  -22.8324   18.9129 N   0  0  0  0  0  0  0  0  0  0  0  0
  -31.8548  -27.4763   21.0993 N   0  0  0  0  0  0  0  0  0  0  0  0
  -29.1820  -19.3701   25.8975 N   0  0  0  0  0  0  0  0  0  0  0  0
  -28.4371  -30.2963   21.9729 N   0  0  0  0  0  0  0  0  0  0  0  0
  -30.2683  -21.5403   20.8637 N   0  0  0  0  0  0  0  0  0  0  0  0
  -26.6652  -13.0458   21.0383 N   0  0  0  0  0  0  0  0  0  0  0  0
  -19.9196  -13.8876   20.5384 N   0  0  0  0  0  0  0  0  0  0  0  0
  -27.0184  -19.7390   25.0481 N   0  3  0  0  0  0  0  0  0  0  0  0
  -17.4861  -13.4446   23.1746 N   0  3  0  0  0  0  0  0  0  0  0  0
  -30.6835  -29.9444   22.2711 O   0  0  0  0  0  0  0  0  0  0  0  0
  -25.2694  -14.7900   20.3810 O   0  0  0  0  0  0  0  0  0  0  0  0
  -22.3302  -12.4872   19.8778 O   0  0  0  0  0  0  0  0  0  0  0  0
  -19.3771  -15.3242   22.2760 O   0  0  0  0  0  0  0  0  0  0  0  0
  -31.4288  -20.6927   19.0426 O   0  0  0  0  0  0  0  0  0  0  0  0
  -23.1448  -29.6580   20.3548 O   0  0  0  0  0  0  0  0  0  0  0  0
  -24.3800  -17.7231   26.2215 O   0  0  0  0  0  0  0  0  0  1  0  0
  -19.0742  -26.0781   21.3646 F   0  0  0  0  0  0  0  0  0  0  0  0
  -21.4278  -30.0279   22.4897 F   0  0  0  0  0  0  0  0  0  0  0  0
  1  2  1  0  0  0  0
  1  5  2  0  0  0  0
  2  6  2  0  0  0  0
  3 10  2  0  0  0  0
  3 18  1  0  0  0  0
  4 11  1  0  0  0  0
  4 18  2  0  0  0  0
  5 21  1  0  0  0  0
  6 23  1  0  0  0  0
  7 12  2  0  0  0  0
  7 22  1  0  0  0  0
  8  9  2  0  0  0  0
  8 25  1  0  0  0  0
  9 26  1  0  0  0  0
 10 27  1  0  0  0  0
 11 27  2  0  0  0  0
 12 28  1  0  0  0  0
 13 14  2  0  0  0  0
 13 29  1  0  0  0  0
 14 30  1  0  0  0  0
 15 19  1  0  0  0  0
 15 26  2  0  0  0  0
 16 24  1  0  0  0  0
 16 28  2  0  0  0  0
 17 30  2  0  0  0  0
 17 31  1  0  0  0  0
 18 32  1  0  0  0  0
 19 25  2  0  0  0  0
 19 34  1  0  0  0  0
 20 32  1  0  0  0  0
 20 33  2  0  0  0  0
 20 35  1  0  0  0  0
 21 23  2  0  0  0  0
 21 40  1  0  0  0  0
 22 24  2  0  0  0  0
 22 41  1  0  0  0  0
 23 49  1  0  0  0  0
 24 42  1  0  0  0  0
 25 52  1  0  0  0  0
 26 73  1  0  0  0  0
 27 83  1  0  0  0  0
 28 84  1  0  0  0  0
 29 31  2  0  0  0  0
 29 83  1  0  0  0  0
 30 85  1  0  0  0  0
 31 86  1  0  0  0  0
 32 66  2  0  0  0  0
 33 67  1  0  0  0  0
 33 70  1  0  0  0  0
 34 71  1  0  0  0  0
 34 76  2  0  0  0  0
 35 72  1  0  0  0  0
 35 78  2  0  0  0  0
 36 50  1  0  0  0  0
 36 74  1  0  0  0  0
 36 79  2  0  0  0  0
 37 62  1  0  0  0  0
 37 68  1  0  0  0  0
 37 80  2  0  0  0  0
 38 63  1  0  0  0  0
 38 75  1  0  0  0  0
 38 81  2  0  0  0  0
 39 69  1  0  0  0  0
 39 73  1  0  0  0  0
 39 82  2  0  0  0  0
 40 43  1  0  0  0  0
 41 50  1  0  0  0  0
 42 68  1  0  0  0  0
 43 45  1  0  0  0  0
 44 46  1  0  0  0  0
 44 47  1  0  0  0  0
 45 49  1  0  0  0  0
 46 51  1  0  0  0  0
 47 69  1  0  0  0  0
 48 51  1  0  0  0  0
 48 69  1  0  0  0  0
 49 74  1  0  0  0  0
 50 68  1  0  0  0  0
 51 67  1  0  0  0  0
 53 63  1  0  0  0  0
 54 64  1  0  0  0  0
 55 64  1  0  0  0  0
 56 64  1  0  0  0  0
 57 65  1  0  0  0  0
 58 65  1  0  0  0  0
 59 77  1  0  0  0  0
 60 65  1  0  0  0  0
 60 76  1  0  0  0  0
 61 65  1  0  0  0  0
 61 84  1  0  0  0  0
 62 64  1  0  0  0  0
 62 75  1  0  0  0  0
 63 77  1  0  0  0  0
 66 67  1  0  0  0  0
M  CHG  2  76   1  77   1
M  ISO  4  39 100  61 101  73 100  84 101
M  END
> <Batch ID>
0058

> <Smiles>
CNC(C)C(=O)NC(C(=O)N1Cc2cc([101O:1][101CH2:1]C(C)(C)CNC(=N)c3cc([100NH:0][100C:0](=O)N4CCCC(n5nc(-c6ccc(Oc7ccc(F)cc7F)cc6)c(C(N)=O)c5N)C4)ccc3C)ccc2CC1C(=O)NC1CCCc2ccccc21)C(C)(C)C

> <Shape>
0.238

> <Color>
0.062

> <Negative vol penalty>
0.000

$$$$

  -OEChem-04042322583D

 84 92  0     1  0  0  0  0  0999 V2000
  -17.9433  -25.6964   21.4807 C   0  0  0  0  0  0  0  0  0  0  0  0
  -19.2645  -25.7098   21.0452 C   0  0  0  0  0  0  0  0  0  0  0  0
  -27.0011  -21.3044   18.5640 C   0  0  0  0  0  0  0  0  0  0  0  0
  -23.6807  -13.2974   24.9670 C   0  0  0  0  0  0  0  0  0  0  0  0
  -22.6710  -15.1065   23.7243 C   0  0  0  0  0  0  0  0  0  0  0  0
  -17.3058  -26.8928   21.8066 C   0  0  0  0  0  0  0  0  0  0  0  0
  -19.9486  -26.9198   20.9343 C   0  0  0  0  0  0  0  0  0  0  0  0
  -24.6336  -26.6845   22.8423 C   0  0  0  0  0  0  0  0  0  0  0  0
  -28.1235  -22.1244   18.6805 C   0  0  0  0  0  0  0  0  0  0  0  0
  -27.0836  -19.9558   18.9107 C   0  0  0  0  0  0  0  0  0  0  0  0
  -22.8189  -13.5494   26.0344 C   0  0  0  0  0  0  0  0  0  0  0  0
  -21.8091  -15.3586   24.7916 C   0  0  0  0  0  0  0  0  0  0  0  0
  -25.6097  -26.0692   22.0598 C   0  0  0  0  0  0  0  0  0  0  0  0
  -18.9643  -14.0452   26.0576 C   0  0  0  0  0  0  0  0  0  0  0  0
  -17.6173  -14.2582   25.7645 C   0  0  0  0  0  0  0  0  0  0  0  0
  -26.4032  -28.2360   21.3564 C   0  0  0  0  0  0  0  0  0  0  0  0
  -29.4109  -20.2470   19.4901 C   0  0  0  0  0  0  0  0  0  0  0  0
  -17.7504  -16.4589   26.7527 C   0  0  0  0  0  0  0  0  0  0  0  0
  -23.6069  -14.0759   23.8120 C   0  0  0  0  0  0  0  0  0  0  0  0
  -24.2757  -12.9475   21.6241 C   0  0  0  0  0  0  0  0  0  0  0  0
  -17.9855  -28.1171   21.7089 C   0  0  0  0  0  0  0  0  0  0  0  0
  -24.5278  -28.0823   22.8794 C   0  0  0  0  0  0  0  0  0  0  0  0
  -19.3192  -28.1338   21.2579 C   0  0  0  0  0  0  0  0  0  0  0  0
  -25.4265  -28.8666   22.1422 C   0  0  0  0  0  0  0  0  0  0  0  0
  -29.3284  -21.5957   19.1435 C   0  0  0  0  0  0  0  0  0  0  0  0
  -28.2885  -19.4271   19.3737 C   0  0  0  0  0  0  0  0  0  0  0  0
  -21.8830  -14.5800   25.9467 C   0  0  0  0  0  0  0  0  0  0  0  0
  -26.4928  -26.8448   21.3144 C   0  0  0  0  0  0  0  0  0  0  0  0
  -19.7043  -15.0389   26.6983 C   0  0  0  0  0  0  0  0  0  0  0  0
  -17.0104  -15.4651   26.1120 C   0  0  0  0  0  0  0  0  0  0  0  0
  -19.0974  -16.2457   27.0459 C   0  0  0  0  0  0  0  0  0  0  0  0
  -24.4973  -13.8164   22.7093 C   0  0  0  0  0  0  0  0  0  0  0  0
  -25.4112  -13.0570   20.8592 C   0  0  0  0  0  0  0  0  0  0  0  0
  -29.3494  -24.7963   20.5466 C   0  0  0  0  0  0  0  0  0  0  0  0
  -28.3610  -25.4447   21.1716 C   0  0  0  0  0  0  0  0  0  1  0  0
  -23.1445  -12.1159   21.3333 C   0  0  0  0  0  0  0  0  0  0  0  0
  -30.2701  -23.9275   21.3342 C   0  0  0  0  0  0  0  0  0  0  0  0
  -22.2819  -30.1840   22.0777 C   0  0  0  0  0  0  0  0  0  0  0  0
  -24.3392  -32.3055   23.4152 C   0  0  0  0  0  0  0  0  0  0  0  0
  -27.5457  -33.0676   24.3008 C   0  0  0  0  0  0  0  0  0  0  0  0
  -29.4902  -17.3740   20.2024 C   0  0  0  0  0  0  0  0  0  0  0  0
  -17.2398  -29.3889   22.0271 C   0  0  0  0  0  0  0  0  0  0  0  0
  -23.4866  -28.7313   23.7494 C   0  0  0  0  0  0  0  0  0  0  0  0
  -25.3680  -30.3715   22.1635 C   0  0  0  0  0  0  0  0  0  0  0  0
  -18.1530  -30.5934   22.2403 C   0  0  0  0  0  0  0  0  0  0  0  0
  -30.0898  -14.0144   21.2176 C   0  0  0  0  0  0  0  0  0  0  0  0
  -19.2052  -30.6672   21.1383 C   0  0  0  0  0  0  0  0  0  0  0  0
  -28.7026  -13.5014   21.6108 C   0  0  0  0  0  0  0  0  0  0  0  0
  -30.2826  -15.4801   21.6025 C   0  0  0  0  0  0  0  0  0  0  0  0
  -27.8535  -15.8794   21.5074 C   0  0  0  0  0  0  0  0  0  0  0  0
  -20.1026  -29.4239   21.1482 C   0  0  1  0  0  0  0  0  0  0  0  0
  -23.1410  -30.1508   23.3100 C   0  0  1  0  0  0  0  0  0  0  0  0
  -27.5889  -14.4261   21.0815 C   0  0  2  0  0  0  0  0  0  0  0  0
  -28.9218  -34.8899   25.3415 C   0  0  0  0  0  0  0  0  0  0  0  0
  -24.1841  -33.9017   20.8194 C   0  0  0  0  0  0  0  0  0  0  0  0
  -26.2424  -35.1340   21.5358 C   0  0  0  0  0  0  0  0  0  0  0  0
  -24.1598  -35.2889   22.9001 C   0  0  0  0  0  0  0  0  0  0  0  0
  -31.6995  -21.9196   21.3734 C   0  0  0  0  0  0  0  0  0  0  0  0
  -28.3902  -31.3152   26.5313 C   0  0  0  0  0  0  0  0  0  0  0  0
  -30.5362  -22.4787   19.2687 C   0  0  0  0  0  0  0  0  0  0  0  0
  -25.4918  -33.1401   22.9113 C   0  0  1  0  0  0  0  0  0  0  0  0
  -28.1318  -33.6143   25.5899 C   0  0  2  0  0  0  0  0  0  0  0  0
  -25.0197  -34.3378   22.0395 C   0  0  0  0  0  0  0  0  0  0  0  0
  -25.6806  -14.4323   22.6435 N   0  0  0  0  0  0  0  0  0  0  0  0
  -26.2129  -13.9498   21.5077 N   0  0  0  0  0  0  0  0  0  0  0  0
  -24.3283  -30.9590   23.0246 N   0  0  0  0  0  0  0  0  0  0  0  0
  -29.1927  -16.2963   21.0632 N   0  0  0  0  0  0  0  0  0  0  0  0
  -25.7923  -12.4757   19.7019 N   0  0  0  0  0  0  0  0  0  0  0  0
  -22.0630  -12.1235   22.2247 N   0  0  0  0  0  0  0  0  0  0  0  0
  -28.3717  -18.0573   19.7263 N   0  0  0  0  0  0  0  0  0  0  0  0
  -21.0803  -29.5147   22.2114 N   0  0  0  0  0  0  0  0  0  0  0  0
  -26.2624  -33.5251   24.0887 N   0  0  0  0  0  0  0  0  0  0  0  0
  -30.8143  -22.8311   20.6595 N   0  0  0  0  0  0  0  0  0  0  0  0
  -29.0420  -32.6113   26.2115 N   0  3  0  0  0  0  0  0  0  0  0  0
  -23.1013  -11.3752   20.3219 O   0  0  0  0  0  0  0  0  0  0  0  0
  -30.4899  -24.1860   22.5187 O   0  0  0  0  0  0  0  0  0  0  0  0
  -22.6790  -30.7743   21.0800 O   0  0  0  0  0  0  0  0  0  0  0  0
  -23.4840  -32.8273   24.1349 O   0  0  0  0  0  0  0  0  0  0  0  0
  -28.1658  -32.3132   23.5545 O   0  0  0  0  0  0  0  0  0  0  0  0
  -30.6502  -17.6520   19.8876 O   0  0  0  0  0  0  0  0  0  0  0  0
  -21.0417  -14.8261   26.9879 O   0  0  0  0  0  0  0  0  0  0  0  0
  -27.4460  -26.2467   20.5492 O   0  0  0  0  0  0  0  0  0  1  0  0
  -15.7173  -15.6702   25.8291 F   0  0  0  0  0  0  0  0  0  0  0  0
  -19.8035  -17.2046   27.6605 F   0  0  0  0  0  0  0  0  0  0  0  0
  1  2  1  0  0  0  0
  1  6  2  0  0  0  0
  2  7  2  0  0  0  0
  3  9  2  0  0  0  0
  3 10  1  0  0  0  0
  4 11  2  0  0  0  0
  4 19  1  0  0  0  0
  5 12  1  0  0  0  0
  5 19  2  0  0  0  0
  6 21  1  0  0  0  0
  7 23  1  0  0  0  0
  8 13  2  0  0  0  0
  8 22  1  0  0  0  0
  9 25  1  0  0  0  0
 10 26  2  0  0  0  0
 11 27  1  0  0  0  0
 12 27  2  0  0  0  0
 13 28  1  0  0  0  0
 14 15  2  0  0  0  0
 14 29  1  0  0  0  0
 15 30  1  0  0  0  0
 16 24  1  0  0  0  0
 16 28  2  0  0  0  0
 17 25  2  0  0  0  0
 17 26  1  0  0  0  0
 18 30  2  0  0  0  0
 18 31  1  0  0  0  0
 19 32  1  0  0  0  0
 20 32  1  0  0  0  0
 20 33  2  0  0  0  0
 20 36  1  0  0  0  0
 21 23  2  0  0  0  0
 21 42  1  0  0  0  0
 22 24  2  0  0  0  0
 22 43  1  0  0  0  0
 23 51  1  0  0  0  0
 24 44  1  0  0  0  0
 25 60  1  0  0  0  0
 26 70  1  0  0  0  0
 27 81  1  0  0  0  0
 28 82  1  0  0  0  0
 29 31  2  0  0  0  0
 29 81  1  0  0  0  0
 30 83  1  0  0  0  0
 31 84  1  0  0  0  0
 32 64  2  0  0  0  0
 33 65  1  0  0  0  0
 33 68  1  0  0  0  0
 34 35  2  0  0  0  0
 34 37  1  0  0  0  0
 35 82  1  0  0  0  0
 36 69  1  0  0  0  0
 36 75  2  0  0  0  0
 37 73  1  0  0  0  0
 37 76  2  0  0  0  0
 38 52  1  0  0  0  0
 38 71  1  0  0  0  0
 38 77  2  0  0  0  0
 39 61  1  0  0  0  0
 39 66  1  0  0  0  0
 39 78  2  0  0  0  0
 40 62  1  0  0  0  0
 40 72  1  0  0  0  0
 40 79  2  0  0  0  0
 41 67  1  0  0  0  0
 41 70  1  0  0  0  0
 41 80  2  0  0  0  0
 42 45  1  0  0  0  0
 43 52  1  0  0  0  0
 44 66  1  0  0  0  0
 45 47  1  0  0  0  0
 46 48  1  0  0  0  0
 46 49  1  0  0  0  0
 47 51  1  0  0  0  0
 48 53  1  0  0  0  0
 49 67  1  0  0  0  0
 50 53  1  0  0  0  0
 50 67  1  0  0  0  0
 51 71  1  0  0  0  0
 52 66  1  0  0  0  0
 53 65  1  0  0  0  0
 54 62  1  0  0  0  0
 55 63  1  0  0  0  0
 56 63  1  0  0  0  0
 57 63  1  0  0  0  0
 58 73  1  0  0  0  0
 59 74  1  0  0  0  0
 60 73  1  0  0  0  0
 61 63  1  0  0  0  0
 61 72  1  0  0  0  0
 62 74  1  0  0  0  0
 64 65  1  0  0  0  0
M  CHG  1  74   1
M  ISO  4  35 101  41 100  70 100  82 101
M  END
> <Batch ID>
0058

> <Smiles>
CNC(C)C(=O)NC(C(=O)N1Cc2cc([101O:1][101CH:1]=CC(=O)N(C)Cc3cccc([100NH:0][100C:0](=O)N4CCCC(n5nc(-c6ccc(Oc7ccc(F)cc7F)cc6)c(C(N)=O)c5N)C4)c3)ccc2CC1C(=O)NC1CCCc2ccccc21)C(C)(C)C

> <Shape>
0.263

> <Color>
0.081

> <Negative vol penalty>
0.000

$$$$

  -OEChem-04042322583D

 84 92  0     1  0  0  0  0  0999 V2000
  -28.1958  -33.3073   25.8979 C   0  0  0  0  0  0  0  0  0  0  0  0
  -28.2391  -31.9915   25.4483 C   0  0  0  0  0  0  0  0  0  0  0  0
  -22.3665  -10.1177   22.7314 C   0  0  0  0  0  0  0  0  0  0  0  0
  -23.3399   -9.9552   20.5262 C   0  0  0  0  0  0  0  0  0  0  0  0
  -28.6189  -19.6943   18.8805 C   0  0  0  0  0  0  0  0  0  0  0  0
  -26.9744  -33.9747   25.9803 C   0  0  0  0  0  0  0  0  0  0  0  0
  -27.0609  -31.3419   25.0818 C   0  0  0  0  0  0  0  0  0  0  0  0
  -27.5292  -28.7690   20.7452 C   0  0  0  0  0  0  0  0  0  0  0  0
  -27.6080  -18.7704   19.1448 C   0  0  0  0  0  0  0  0  0  0  0  0
  -21.8710   -8.8196   22.6084 C   0  0  0  0  0  0  0  0  0  0  0  0
  -22.8445   -8.6570   20.4032 C   0  0  0  0  0  0  0  0  0  0  0  0
  -28.1815  -27.5382   20.8024 C   0  0  0  0  0  0  0  0  0  0  0  0
  -20.6574   -5.4178   23.0205 C   0  0  0  0  0  0  0  0  0  0  0  0
  -20.8105   -4.5594   24.1092 C   0  0  0  0  0  0  0  0  0  0  0  0
  -26.0471  -26.4142   20.8085 C   0  0  0  0  0  0  0  0  0  0  0  0
  -25.9467  -20.4925   18.8110 C   0  0  0  0  0  0  0  0  0  0  0  0
  -23.2097   -4.8051   23.9657 C   0  0  0  0  0  0  0  0  0  0  0  0
  -23.1009  -10.6855   21.6903 C   0  0  0  0  0  0  0  0  0  0  0  0
  -28.2938  -21.0174   18.5815 C   0  0  0  0  0  0  0  0  0  0  0  0
  -24.8609  -12.4145   22.3388 C   0  0  0  0  0  0  0  0  0  0  0  0
  -25.7818  -33.3362   25.6054 C   0  0  0  0  0  0  0  0  0  0  0  0
  -26.1284  -28.8322   20.7302 C   0  0  0  0  0  0  0  0  0  0  0  0
  -25.8223  -32.0010   25.1604 C   0  0  0  0  0  0  0  0  0  0  0  0
  -25.3795  -27.6470   20.7486 C   0  0  0  0  0  0  0  0  0  0  0  0
  -26.2719  -19.1694   19.1101 C   0  0  0  0  0  0  0  0  0  0  0  0
  -22.1100   -8.0893   21.4443 C   0  0  0  0  0  0  0  0  0  0  0  0
  -27.4404  -26.3606   20.8370 C   0  0  0  0  0  0  0  0  0  0  0  0
  -21.7805   -5.9698   22.4043 C   0  0  0  0  0  0  0  0  0  0  0  0
  -26.9577  -21.4165   18.5467 C   0  0  0  0  0  0  0  0  0  0  0  0
  -22.0865   -4.2530   24.5818 C   0  0  0  0  0  0  0  0  0  0  0  0
  -23.0566   -5.6635   22.8770 C   0  0  0  0  0  0  0  0  0  0  0  0
  -23.6125  -12.0266   21.8165 C   0  0  0  0  0  0  0  0  0  0  0  0
  -24.8643  -13.7843   22.2384 C   0  0  0  0  0  0  0  0  0  0  0  0
  -29.5443  -23.6604   19.8127 C   0  0  0  0  0  0  0  0  0  0  0  0
  -29.3887  -21.9872   18.3025 C   0  0  0  0  0  0  0  0  0  0  0  0
  -25.9225  -11.6087   22.8672 C   0  0  0  0  0  0  0  0  0  0  0  0
  -23.9183  -30.0721   22.6490 C   0  0  0  0  0  0  0  0  0  0  0  0
  -21.9062  -29.1748   20.2682 C   0  0  0  0  0  0  0  0  0  0  0  0
  -21.3008  -27.1314   17.6027 C   0  0  0  0  0  0  0  0  0  0  0  0
  -23.8699  -18.4618   19.3862 C   0  0  0  0  0  0  0  0  0  0  0  0
  -24.4801  -34.0829   25.7564 C   0  0  0  0  0  0  0  0  0  0  0  0
  -25.4403  -30.1668   20.6414 C   0  0  0  0  0  0  0  0  0  0  0  0
  -23.8738  -27.6597   20.7139 C   0  0  0  0  0  0  0  0  0  0  0  0
  -23.3209  -33.4467   24.9937 C   0  0  0  0  0  0  0  0  0  0  0  0
  -21.1273  -17.0159   21.1367 C   0  0  0  0  0  0  0  0  0  0  0  0
  -23.2853  -31.9410   25.2353 C   0  0  0  0  0  0  0  0  0  0  0  0
  -21.6321  -15.6208   21.5126 C   0  0  0  0  0  0  0  0  0  0  0  0
  -21.6316  -17.4500   19.7616 C   0  0  0  0  0  0  0  0  0  0  0  0
  -23.5907  -15.9688   19.9539 C   0  0  0  0  0  0  0  0  0  0  0  0
  -24.5687  -31.2707   24.7303 C   0  0  1  0  0  0  0  0  0  0  0  0
  -24.0025  -30.1327   21.1501 C   0  0  1  0  0  0  0  0  0  0  0  0
  -23.1620  -15.5147   21.3587 C   0  0  2  0  0  0  0  0  0  0  0  0
  -19.5535  -26.6069   15.8795 C   0  0  0  0  0  0  0  0  0  0  0  0
  -20.2805  -27.6817   22.3747 C   0  0  0  0  0  0  0  0  0  0  0  0
  -19.1509  -26.4363   20.5196 C   0  0  0  0  0  0  0  0  0  0  0  0
  -18.9130  -28.9141   20.6819 C   0  0  0  0  0  0  0  0  0  0  0  0
  -23.1108  -27.8597   15.3773 C   0  0  0  0  0  0  0  0  0  0  0  0
  -25.2299  -23.0223   18.2438 C   0  0  0  0  0  0  0  0  0  0  0  0
  -29.3603  -25.0722   20.2805 C   0  0  0  0  0  0  0  0  0  1  0  0
  -21.1209  -27.9265   19.9458 C   0  0  1  0  0  0  0  0  0  0  0  0
  -20.7936  -27.4258   16.2025 C   0  0  2  0  0  0  0  0  0  0  0  0
  -19.8947  -27.7391   20.8831 C   0  0  0  0  0  0  0  0  0  0  0  0
  -22.8762  -13.0659   21.4144 N   0  0  0  0  0  0  0  0  0  0  0  0
  -29.1881  -23.3090   18.6198 N   0  0  0  0  0  0  0  0  0  0  0  0
  -23.6644  -14.1205   21.6841 N   0  0  0  0  0  0  0  0  0  0  0  0
  -23.2471  -28.9895   20.6335 N   0  0  0  0  0  0  0  0  0  0  0  0
  -23.0892  -17.3268   19.6910 N   0  0  0  0  0  0  0  0  0  0  0  0
  -25.7767  -14.7220   22.5712 N   0  0  0  0  0  0  0  0  0  0  0  0
  -25.7544  -10.2176   22.8964 N   0  0  0  0  0  0  0  0  0  0  0  0
  -25.2451  -18.2308   19.3793 N   0  0  0  0  0  0  0  0  0  0  0  0
  -24.5328  -31.1308   23.2903 N   0  0  0  0  0  0  0  0  0  0  0  0
  -20.7827  -28.0115   18.5291 N   0  0  0  0  0  0  0  0  0  0  0  0
  -30.4927  -21.6396   17.7415 N   0  3  0  0  0  0  0  0  0  0  0  0
  -21.8432  -27.1071   15.1937 N   0  3  0  0  0  0  0  0  0  0  0  0
  -26.9819  -12.1087   23.3159 O   0  0  0  0  0  0  0  0  0  0  0  0
  -23.3376  -29.1351   23.1842 O   0  0  0  0  0  0  0  0  0  0  0  0
  -21.3524  -30.2743   20.1916 O   0  0  0  0  0  0  0  0  0  0  0  0
  -22.0759  -26.2103   17.8504 O   0  0  0  0  0  0  0  0  0  0  0  0
  -23.3578  -19.5643   19.1756 O   0  0  0  0  0  0  0  0  0  0  0  0
  -21.6269   -6.8225   21.3241 O   0  0  0  0  0  0  0  0  0  0  0  0
  -26.6200  -22.7047   18.2568 O   0  0  0  0  0  0  0  0  0  0  0  0
  -28.0745  -25.1579   20.8935 O   0  0  0  0  0  0  0  0  0  1  0  0
  -22.2333   -3.4299   25.6283 F   0  0  0  0  0  0  0  0  0  0  0  0
  -24.1393   -6.1917   22.2899 F   0  0  0  0  0  0  0  0  0  0  0  0
  1  2  1  0  0  0  0
  1  6  2  0  0  0  0
  2  7  2  0  0  0  0
  3 10  2  0  0  0  0
  3 18  1  0  0  0  0
  4 11  1  0  0  0  0
  4 18  2  0  0  0  0
  5  9  2  0  0  0  0
  5 19  1  0  0  0  0
  6 21  1  0  0  0  0
  7 23  1  0  0  0  0
  8 12  2  0  0  0  0
  8 22  1  0  0  0  0
  9 25  1  0  0  0  0
 10 26  1  0  0  0  0
 11 26  2  0  0  0  0
 12 27  1  0  0  0  0
 13 14  2  0  0  0  0
 13 28  1  0  0  0  0
 14 30  1  0  0  0  0
 15 24  1  0  0  0  0
 15 27  2  0  0  0  0
 16 25  2  0  0  0  0
 16 29  1  0  0  0  0
 17 30  2  0  0  0  0
 17 31  1  0  0  0  0
 18 32  1  0  0  0  0
 19 29  2  0  0  0  0
 19 35  1  0  0  0  0
 20 32  1  0  0  0  0
 20 33  2  0  0  0  0
 20 36  1  0  0  0  0
 21 23  2  0  0  0  0
 21 41  1  0  0  0  0
 22 24  2  0  0  0  0
 22 42  1  0  0  0  0
 23 50  1  0  0  0  0
 24 43  1  0  0  0  0
 25 70  1  0  0  0  0
 26 80  1  0  0  0  0
 27 82  1  0  0  0  0
 28 31  2  0  0  0  0
 28 80  1  0  0  0  0
 29 81  1  0  0  0  0
 30 83  1  0  0  0  0
 31 84  1  0  0  0  0
 32 63  2  0  0  0  0
 33 65  1  0  0  0  0
 33 68  1  0  0  0  0
 34 59  1  0  0  0  0
 34 64  2  0  0  0  0
 35 64  1  0  0  0  0
 35 73  2  0  0  0  0
 36 69  1  0  0  0  0
 36 75  2  0  0  0  0
 37 51  1  0  0  0  0
 37 71  1  0  0  0  0
 37 76  2  0  0  0  0
 38 60  1  0  0  0  0
 38 66  1  0  0  0  0
 38 77  2  0  0  0  0
 39 61  1  0  0  0  0
 39 72  1  0  0  0  0
 39 78  2  0  0  0  0
 40 67  1  0  0  0  0
 40 70  1  0  0  0  0
 40 79  2  0  0  0  0
 41 44  1  0  0  0  0
 42 51  1  0  0  0  0
 43 66  1  0  0  0  0
 44 46  1  0  0  0  0
 45 47  1  0  0  0  0
 45 48  1  0  0  0  0
 46 50  1  0  0  0  0
 47 52  1  0  0  0  0
 48 67  1  0  0  0  0
 49 52  1  0  0  0  0
 49 67  1  0  0  0  0
 50 71  1  0  0  0  0
 51 66  1  0  0  0  0
 52 65  1  0  0  0  0
 53 61  1  0  0  0  0
 54 62  1  0  0  0  0
 55 62  1  0  0  0  0
 56 62  1  0  0  0  0
 57 74  1  0  0  0  0
 58 81  1  0  0  0  0
 59 82  1  0  0  0  0
 60 62  1  0  0  0  0
 60 72  1  0  0  0  0
 61 74  1  0  0  0  0
 63 65  1  0  0  0  0
M  CHG  2  73   1  74   1
M  ISO  4  40 100  59 101  70 100  82 101
M  END
> <Batch ID>
0058

> <Smiles>
CNC(C)C(=O)NC(C(=O)N1Cc2cc([101O:1][101CH:1]=CNC(=N)c3ccc([100NH:0][100C:0](=O)N4CCCC(n5nc(-c6ccc(Oc7ccc(F)cc7F)cc6)c(C(N)=O)c5N)C4)cc3OC)ccc2CC1C(=O)NC1CCCc2ccccc21)C(C)(C)C

> <Shape>
0.269

> <Color>
0.091

> <Negative vol penalty>
0.000

$$$$

  -OEChem-04042322583D

 90 98  0     1  0  0  0  0  0999 V2000
  -20.7117  -32.1872   26.4334 C   0  0  0  0  0  0  0  0  0  0  0  0
  -21.9190  -31.6222   26.0352 C   0  0  0  0  0  0  0  0  0  0  0  0
  -26.7744  -20.2484   15.6155 C   0  0  0  0  0  0  0  0  0  0  0  0
  -21.6577  -10.3244   21.7318 C   0  0  0  0  0  0  0  0  0  0  0  0
  -23.6690  -10.0298   20.4262 C   0  0  0  0  0  0  0  0  0  0  0  0
  -19.5110  -31.6935   25.9250 C   0  0  0  0  0  0  0  0  0  0  0  0
  -21.9262  -30.5623   25.1291 C   0  0  0  0  0  0  0  0  0  0  0  0
  -26.1209  -29.4391   20.8107 C   0  0  0  0  0  0  0  0  0  0  0  0
  -27.8956  -20.3599   16.4378 C   0  0  0  0  0  0  0  0  0  0  0  0
  -25.6765  -19.4952   16.0315 C   0  0  0  0  0  0  0  0  0  0  0  0
  -21.5141   -8.9400   21.8230 C   0  0  0  0  0  0  0  0  0  0  0  0
  -23.5254   -8.6453   20.5174 C   0  0  0  0  0  0  0  0  0  0  0  0
  -27.2169  -28.5784   20.7690 C   0  0  0  0  0  0  0  0  0  0  0  0
  -22.8512   -6.4103   23.6246 C   0  0  0  0  0  0  0  0  0  0  0  0
  -22.5349   -5.8721   24.8719 C   0  0  0  0  0  0  0  0  0  0  0  0
  -25.8711  -26.9294   19.6337 C   0  0  0  0  0  0  0  0  0  0  0  0
  -20.5012   -4.9438   23.9557 C   0  0  0  0  0  0  0  0  0  0  0  0
  -22.7352  -10.8693   21.0333 C   0  0  0  0  0  0  0  0  0  0  0  0
  -23.5821  -13.1422   21.8236 C   0  0  0  0  0  0  0  0  0  0  0  0
  -19.5040  -30.6333   25.0048 C   0  0  0  0  0  0  0  0  0  0  0  0
  -24.8867  -29.0464   20.2731 C   0  0  0  0  0  0  0  0  0  0  0  0
  -20.7242  -30.0530   24.6090 C   0  0  0  0  0  0  0  0  0  0  0  0
  -24.7617  -27.7879   19.6676 C   0  0  0  0  0  0  0  0  0  0  0  0
  -27.9190  -19.7180   17.6760 C   0  0  0  0  0  0  0  0  0  0  0  0
  -26.8211  -18.9648   18.0919 C   0  0  0  0  0  0  0  0  0  0  0  0
  -25.6999  -18.8533   17.2697 C   0  0  0  0  0  0  0  0  0  0  0  0
  -22.4479   -8.1004   21.2158 C   0  0  0  0  0  0  0  0  0  0  0  0
  -27.0913  -27.3222   20.1830 C   0  0  0  0  0  0  0  0  0  0  0  0
  -21.9924   -6.2152   22.5428 C   0  0  0  0  0  0  0  0  0  0  0  0
  -21.3599   -5.1389   25.0375 C   0  0  0  0  0  0  0  0  0  0  0  0
  -20.8175   -5.4819   22.7083 C   0  0  0  0  0  0  0  0  0  0  0  0
  -22.8838  -12.2993   20.9383 C   0  0  0  0  0  0  0  0  0  0  0  0
  -23.4248  -14.4004   21.2958 C   0  0  0  0  0  0  0  0  0  0  0  0
  -30.4267  -24.8298   22.5976 C   0  0  0  0  0  0  0  0  0  0  0  0
  -24.3082  -12.8168   23.0163 C   0  0  0  0  0  0  0  0  0  0  0  0
  -30.6872  -25.3128   23.9882 C   0  0  0  0  0  0  0  0  0  0  0  0
  -21.9690  -28.5945   21.4505 C   0  0  0  0  0  0  0  0  0  0  0  0
  -21.1988  -28.1649   18.3288 C   0  0  0  0  0  0  0  0  0  0  0  0
  -29.1364  -22.1308   19.5472 C   0  0  0  0  0  0  0  0  0  0  0  0
  -22.2202  -27.3319   15.1809 C   0  0  0  0  0  0  0  0  0  0  0  0
  -23.3907  -17.8948   16.9610 C   0  0  0  0  0  0  0  0  0  0  0  0
  -18.1785  -30.1025   24.5190 C   0  0  0  0  0  0  0  0  0  0  0  0
  -23.7213  -29.9969   20.3022 C   0  0  0  0  0  0  0  0  0  0  0  0
  -23.4640  -27.3266   19.0580 C   0  0  0  0  0  0  0  0  0  0  0  0
  -18.2930  -29.2234   23.2763 C   0  0  0  0  0  0  0  0  0  0  0  0
  -20.4025  -16.0646   17.5920 C   0  0  0  0  0  0  0  0  0  0  0  0
  -19.4236  -28.2125   23.4398 C   0  0  0  0  0  0  0  0  0  0  0  0
  -20.8391  -14.9912   18.5917 C   0  0  0  0  0  0  0  0  0  0  0  0
  -21.4878  -16.3491   16.5552 C   0  0  0  0  0  0  0  0  0  0  0  0
  -23.2447  -15.5987   18.1107 C   0  0  0  0  0  0  0  0  0  0  0  0
  -20.7745  -28.9183   23.6090 C   0  0  1  0  0  0  0  0  0  0  0  0
  -22.3731  -29.2930   20.1830 C   0  0  1  0  0  0  0  0  0  0  0  0
  -22.2094  -15.3244   19.2137 C   0  0  2  0  0  0  0  0  0  0  0  0
  -26.8508  -18.2780   19.4214 C   0  0  0  0  0  0  0  0  0  0  0  0
  -31.3100  -24.3236   24.9229 C   0  0  0  0  0  0  0  0  0  0  0  0
  -21.3561  -27.0333   12.8439 C   0  0  0  0  0  0  0  0  0  0  0  0
  -19.9540  -25.4976   19.1325 C   0  0  0  0  0  0  0  0  0  0  0  0
  -19.9748  -24.8395   16.7170 C   0  0  0  0  0  0  0  0  0  0  0  0
  -18.6307  -26.8048   17.4608 C   0  0  0  0  0  0  0  0  0  0  0  0
  -23.9921  -29.4567   14.1300 C   0  0  0  0  0  0  0  0  0  0  0  0
  -29.1383  -19.8546   18.5413 C   0  0  0  0  0  0  0  0  0  0  0  0
  -28.8123  -22.8398   20.8539 C   0  0  0  0  0  0  0  0  0  0  0  0
  -27.8839  -25.0800   20.1668 C   0  0  0  0  0  0  0  0  0  1  0  0
  -21.1518  -26.9818   17.3923 C   0  0  1  0  0  0  0  0  0  0  0  0
  -21.9863  -27.9975   13.8368 C   0  0  2  0  0  0  0  0  0  0  0  0
  -29.0629  -24.3476   20.8021 C   0  0  1  0  0  0  0  0  0  0  0  0
  -19.9519  -26.0386   17.6888 C   0  0  0  0  0  0  0  0  0  0  0  0
  -22.3243  -12.9660   19.9251 N   0  0  0  0  0  0  0  0  0  0  0  0
  -29.2216  -24.8412   22.1793 N   0  0  0  0  0  0  0  0  0  0  0  0
  -22.6709  -14.2410   20.1705 N   0  0  0  0  0  0  0  0  0  0  0  0
  -22.3517  -28.2894   19.1169 N   0  0  0  0  0  0  0  0  0  0  0  0
  -22.7563  -16.6610   17.2175 N   0  0  0  0  0  0  0  0  0  0  0  0
  -23.8592  -15.6165   21.6892 N   0  0  0  0  0  0  0  0  0  0  0  0
  -24.3700  -11.4748   23.4157 N   0  0  0  0  0  0  0  0  0  0  0  0
  -24.5735  -18.0939   17.6723 N   0  0  0  0  0  0  0  0  0  0  0  0
  -21.2614  -29.3908   22.3307 N   0  0  0  0  0  0  0  0  0  0  0  0
  -28.9204  -20.7635   19.6430 N   0  0  0  0  0  0  0  0  0  0  0  0
  -21.1607  -27.5306   16.0406 N   0  0  0  0  0  0  0  0  0  0  0  0
  -23.2754  -28.4824   13.2675 N   0  3  0  0  0  0  0  0  0  0  0  0
  -24.8713  -13.6922   23.7164 O   0  0  0  0  0  0  0  0  0  0  0  0
  -30.4098  -26.4683   24.2680 O   0  0  0  0  0  0  0  0  0  0  0  0
  -22.2750  -27.4196   21.6168 O   0  0  0  0  0  0  0  0  0  0  0  0
  -20.2507  -28.9536   18.3548 O   0  0  0  0  0  0  0  0  0  0  0  0
  -29.5282  -22.7158   18.5410 O   0  0  0  0  0  0  0  0  0  0  0  0
  -23.2393  -26.6958   15.4408 O   0  0  0  0  0  0  0  0  0  0  0  0
  -22.9054  -18.7260   16.1892 O   0  0  0  0  0  0  0  0  0  0  0  0
  -22.3082   -6.7495   21.3048 O   0  0  0  0  0  0  0  0  0  0  0  0
  -28.1594  -26.4799   20.1415 O   0  0  0  0  0  0  0  0  0  1  0  0
  -21.0570   -4.6208   26.2351 F   0  0  0  0  0  0  0  0  0  0  0  0
  -19.9892   -5.2902   21.6725 F   0  0  0  0  0  0  0  0  0  0  0  0
  1  2  1  0  0  0  0
  1  6  2  0  0  0  0
  2  7  2  0  0  0  0
  3  9  2  0  0  0  0
  3 10  1  0  0  0  0
  4 11  2  0  0  0  0
  4 18  1  0  0  0  0
  5 12  1  0  0  0  0
  5 18  2  0  0  0  0
  6 20  1  0  0  0  0
  7 22  1  0  0  0  0
  8 13  2  0  0  0  0
  8 21  1  0  0  0  0
  9 24  1  0  0  0  0
 10 26  2  0  0  0  0
 11 27  1  0  0  0  0
 12 27  2  0  0  0  0
 13 28  1  0  0  0  0
 14 15  2  0  0  0  0
 14 29  1  0  0  0  0
 15 30  1  0  0  0  0
 16 23  1  0  0  0  0
 16 28  2  0  0  0  0
 17 30  2  0  0  0  0
 17 31  1  0  0  0  0
 18 32  1  0  0  0  0
 19 32  1  0  0  0  0
 19 33  2  0  0  0  0
 19 35  1  0  0  0  0
 20 22  2  0  0  0  0
 20 42  1  0  0  0  0
 21 23  2  0  0  0  0
 21 43  1  0  0  0  0
 22 51  1  0  0  0  0
 23 44  1  0  0  0  0
 24 25  2  0  0  0  0
 24 61  1  0  0  0  0
 25 26  1  0  0  0  0
 25 54  1  0  0  0  0
 26 75  1  0  0  0  0
 27 87  1  0  0  0  0
 28 88  1  0  0  0  0
 29 31  2  0  0  0  0
 29 87  1  0  0  0  0
 30 89  1  0  0  0  0
 31 90  1  0  0  0  0
 32 68  2  0  0  0  0
 33 70  1  0  0  0  0
 33 73  1  0  0  0  0
 34 36  1  0  0  0  0
 34 69  2  0  0  0  0
 35 74  1  0  0  0  0
 35 80  2  0  0  0  0
 36 55  1  0  0  0  0
 36 81  2  0  0  0  0
 37 52  1  0  0  0  0
 37 76  1  0  0  0  0
 37 82  2  0  0  0  0
 38 64  1  0  0  0  0
 38 71  1  0  0  0  0
 38 83  2  0  0  0  0
 39 62  1  0  0  0  0
 39 77  1  0  0  0  0
 39 84  2  0  0  0  0
 40 65  1  0  0  0  0
 40 78  1  0  0  0  0
 40 85  2  0  0  0  0
 41 72  1  0  0  0  0
 41 75  1  0  0  0  0
 41 86  2  0  0  0  0
 42 45  1  0  0  0  0
 43 52  1  0  0  0  0
 44 71  1  0  0  0  0
 45 47  1  0  0  0  0
 46 48  1  0  0  0  0
 46 49  1  0  0  0  0
 47 51  1  0  0  0  0
 48 53  1  0  0  0  0
 49 72  1  0  0  0  0
 50 53  1  0  0  0  0
 50 72  1  0  0  0  0
 51 76  1  0  0  0  0
 52 71  1  0  0  0  0
 53 70  1  0  0  0  0
 56 65  1  0  0  0  0
 57 67  1  0  0  0  0
 58 67  1  0  0  0  0
 59 67  1  0  0  0  0
 60 79  1  0  0  0  0
 61 77  1  0  0  0  0
 62 66  1  0  0  0  0
 63 66  1  0  0  0  0
 63 88  1  0  0  0  0
 64 67  1  0  0  0  0
 64 78  1  0  0  0  0
 65 79  1  0  0  0  0
 66 69  1  0  0  0  0
 68 70  1  0  0  0  0
M  CHG  1  79   1
M  ISO  4  41 100  63 101  75 100  88 101
M  END
> <Batch ID>
0058

> <Smiles>
CNC(C)C(=O)NC(C(=O)N1Cc2cc([101O:1][101CH2:1]C(CC(=O)NCc3cccc([100NH:0][100C:0](=O)N4CCCC(n5nc(-c6ccc(Oc7ccc(F)cc7F)cc6)c(C(N)=O)c5N)C4)c3C)N=CC(C)=O)ccc2CC1C(=O)NC1CCCc2ccccc21)C(C)(C)C

> <Shape>
0.221

> <Color>
0.108

> <Negative vol penalty>
0.000

$$$$

  -OEChem-04042322583D

 85 93  0     1  0  0  0  0  0999 V2000
  -21.2869  -30.4525   14.5406 C   0  0  0  0  0  0  0  0  0  0  0  0
  -22.4691  -29.9337   15.0591 C   0  0  0  0  0  0  0  0  0  0  0  0
  -23.5029   -9.3171   20.1552 C   0  0  0  0  0  0  0  0  0  0  0  0
  -23.3012  -10.9309   21.9419 C   0  0  0  0  0  0  0  0  0  0  0  0
  -20.7773  -31.6521   15.0356 C   0  0  0  0  0  0  0  0  0  0  0  0
  -23.1429  -30.6149   16.0721 C   0  0  0  0  0  0  0  0  0  0  0  0
  -24.6958  -27.5379   19.7823 C   0  0  0  0  0  0  0  0  0  0  0  0
  -28.9434  -18.4869   19.5140 C   0  0  0  0  0  0  0  0  0  0  0  0
  -22.6535   -8.4500   20.8424 C   0  0  0  0  0  0  0  0  0  0  0  0
  -22.4518  -10.0638   22.6291 C   0  0  0  0  0  0  0  0  0  0  0  0
  -25.8398  -26.7780   19.5424 C   0  0  0  0  0  0  0  0  0  0  0  0
  -22.7401   -7.2992   24.5540 C   0  0  0  0  0  0  0  0  0  0  0  0
  -22.9626   -7.1210   25.9194 C   0  0  0  0  0  0  0  0  0  0  0  0
  -29.1794  -19.8447   19.7287 C   0  0  0  0  0  0  0  0  0  0  0  0
  -27.1488  -28.3596   20.8090 C   0  0  0  0  0  0  0  0  0  0  0  0
  -31.1293  -17.9665   20.4017 C   0  0  0  0  0  0  0  0  0  0  0  0
  -20.7417   -7.9481   26.3891 C   0  0  0  0  0  0  0  0  0  0  0  0
  -23.8267  -10.5576   20.7050 C   0  0  0  0  0  0  0  0  0  0  0  0
  -24.3376  -12.4414   19.0624 C   0  0  0  0  0  0  0  0  0  0  0  0
  -21.4401  -32.3435   16.0619 C   0  0  0  0  0  0  0  0  0  0  0  0
  -24.7718  -28.7222   20.5295 C   0  0  0  0  0  0  0  0  0  0  0  0
  -22.6424  -31.8256   16.5804 C   0  0  0  0  0  0  0  0  0  0  0  0
  -26.0039  -29.1314   21.0592 C   0  0  0  0  0  0  0  0  0  0  0  0
  -31.3654  -19.3244   20.6163 C   0  0  0  0  0  0  0  0  0  0  0  0
  -29.9183  -17.5477   19.8505 C   0  0  0  0  0  0  0  0  0  0  0  0
  -22.1279   -8.8233   22.0794 C   0  0  0  0  0  0  0  0  0  0  0  0
  -27.0671  -27.1903   20.0532 C   0  0  0  0  0  0  0  0  0  0  0  0
  -21.5185   -7.8020   24.1061 C   0  0  0  0  0  0  0  0  0  0  0  0
  -21.9634   -7.4454   26.8370 C   0  0  0  0  0  0  0  0  0  0  0  0
  -20.5193   -8.1264   25.0237 C   0  0  0  0  0  0  0  0  0  0  0  0
  -30.3904  -20.2635   20.2798 C   0  0  0  0  0  0  0  0  0  0  0  0
  -24.7045  -11.4535   19.9958 C   0  0  0  0  0  0  0  0  0  0  0  0
  -25.5271  -13.0128   18.6817 C   0  0  0  0  0  0  0  0  0  0  0  0
  -23.0377  -12.8096   18.5825 C   0  0  0  0  0  0  0  0  0  0  0  0
  -24.1870  -31.7898   19.9369 C   0  0  0  0  0  0  0  0  0  0  0  0
  -29.2515  -24.2943   20.1127 C   0  0  0  0  0  0  0  0  0  0  0  0
  -24.7660  -32.1114   23.1124 C   0  0  0  0  0  0  0  0  0  0  0  0
  -26.2596  -30.8824   25.9240 C   0  0  0  0  0  0  0  0  0  0  0  0
  -30.5382  -15.1067   19.9093 C   0  0  0  0  0  0  0  0  0  0  0  0
  -20.8758  -33.6608   16.5320 C   0  0  0  0  0  0  0  0  0  0  0  0
  -23.5240  -29.5165   20.8021 C   0  0  0  0  0  0  0  0  0  0  0  0
  -26.1354  -30.3842   21.8848 C   0  0  0  0  0  0  0  0  0  0  0  0
  -21.4522  -34.1292   17.8656 C   0  0  0  0  0  0  0  0  0  0  0  0
  -30.3010  -11.5722   19.5516 C   0  0  0  0  0  0  0  0  0  0  0  0
  -22.9710  -33.9878   17.8699 C   0  0  0  0  0  0  0  0  0  0  0  0
  -28.7936  -11.3075   19.5585 C   0  0  0  0  0  0  0  0  0  0  0  0
  -30.6832  -12.6996   20.5090 C   0  0  0  0  0  0  0  0  0  0  0  0
  -28.4339  -13.6880   20.3272 C   0  0  0  0  0  0  0  0  0  0  0  0
  -23.3892  -32.5226   17.6969 C   0  0  1  0  0  0  0  0  0  0  0  0
  -23.8074  -30.9765   21.1419 C   0  0  1  0  0  0  0  0  0  0  0  0
  -27.9927  -12.6043   19.3298 C   0  0  2  0  0  0  0  0  0  0  0  0
  -32.6726  -19.7401   21.2076 C   0  0  0  0  0  0  0  0  0  0  0  0
  -26.5863  -31.3844   28.3609 C   0  0  0  0  0  0  0  0  0  0  0  0
  -26.8206  -34.2497   22.3939 C   0  0  0  0  0  0  0  0  0  0  0  0
  -27.7592  -34.0250   24.7040 C   0  0  0  0  0  0  0  0  0  0  0  0
  -25.4061  -34.7891   24.3846 C   0  0  0  0  0  0  0  0  0  0  0  0
  -24.9059  -28.3803   26.7401 C   0  0  0  0  0  0  0  0  0  0  0  0
  -28.0120  -25.0430   19.6632 C   0  0  0  0  0  0  0  0  0  1  0  0
  -29.1880  -22.7913   19.9790 C   0  0  0  0  0  0  0  0  0  0  0  0
  -25.9921  -32.3675   23.9549 C   0  0  1  0  0  0  0  0  0  0  0  0
  -25.7324  -30.6622   27.3304 C   0  0  2  0  0  0  0  0  0  0  0  0
  -26.4927  -33.8352   23.8422 C   0  0  0  0  0  0  0  0  0  0  0  0
  -26.0240  -11.3978   20.1957 N   0  0  0  0  0  0  0  0  0  0  0  0
  -31.8000  -22.3823   19.5676 N   0  0  0  0  0  0  0  0  0  0  0  0
  -26.4965  -12.3578   19.3826 N   0  0  0  0  0  0  0  0  0  0  0  0
  -24.8878  -31.1301   22.1183 N   0  0  0  0  0  0  0  0  0  0  0  0
  -29.8871  -13.8969   20.2303 N   0  0  0  0  0  0  0  0  0  0  0  0
  -25.8280  -14.0066   17.8190 N   0  0  0  0  0  0  0  0  0  0  0  0
  -21.9225  -12.1203   19.0781 N   0  0  0  0  0  0  0  0  0  0  0  0
  -29.6779  -16.1686   19.6320 N   0  0  0  0  0  0  0  0  0  0  0  0
  -23.2289  -31.8010   18.9411 N   0  0  0  0  0  0  0  0  0  0  0  0
  -25.6483  -31.9560   25.3117 N   0  0  0  0  0  0  0  0  0  0  0  0
  -25.7270  -29.2088   27.6600 N   0  3  0  0  0  0  0  0  0  0  0  0
  -22.8714  -13.7117   17.7268 O   0  0  0  0  0  0  0  0  0  0  0  0
  -25.2683  -32.3658   19.9129 O   0  0  0  0  0  0  0  0  0  0  0  0
  -30.2364  -24.8836   20.5546 O   0  0  0  0  0  0  0  0  0  0  0  0
  -23.7358  -32.7531   23.3329 O   0  0  0  0  0  0  0  0  0  0  0  0
  -27.1295  -30.1752   25.4204 O   0  0  0  0  0  0  0  0  0  0  0  0
  -31.7681  -15.1875   19.8559 O   0  0  0  0  0  0  0  0  0  0  0  0
  -30.6863  -22.1969   21.9820 O   0  0  0  0  0  0  0  0  0  0  0  0
  -21.2989   -7.9776   22.7502 O   0  0  0  0  0  0  0  0  0  0  0  0
  -28.1853  -26.4507   19.8199 O   0  0  0  0  0  0  0  0  0  1  0  0
  -22.1766   -7.2728   28.1480 F   0  0  0  0  0  0  0  0  0  0  0  0
  -19.3432   -8.6086   24.5994 F   0  0  0  0  0  0  0  0  0  0  0  0
  -30.6572  -21.9998   20.5389 S   0  0  2  0  0  0  0  0  0  0  0  0
  1  2  1  0  0  0  0
  1  5  2  0  0  0  0
  2  6  2  0  0  0  0
  3  9  2  0  0  0  0
  3 18  1  0  0  0  0
  4 10  1  0  0  0  0
  4 18  2  0  0  0  0
  5 20  1  0  0  0  0
  6 22  1  0  0  0  0
  7 11  2  0  0  0  0
  7 21  1  0  0  0  0
  8 14  2  0  0  0  0
  8 25  1  0  0  0  0
  9 26  1  0  0  0  0
 10 26  2  0  0  0  0
 11 27  1  0  0  0  0
 12 13  2  0  0  0  0
 12 28  1  0  0  0  0
 13 29  1  0  0  0  0
 14 31  1  0  0  0  0
 15 23  1  0  0  0  0
 15 27  2  0  0  0  0
 16 24  1  0  0  0  0
 16 25  2  0  0  0  0
 17 29  2  0  0  0  0
 17 30  1  0  0  0  0
 18 32  1  0  0  0  0
 19 32  1  0  0  0  0
 19 33  2  0  0  0  0
 19 34  1  0  0  0  0
 20 22  2  0  0  0  0
 20 40  1  0  0  0  0
 21 23  2  0  0  0  0
 21 41  1  0  0  0  0
 22 49  1  0  0  0  0
 23 42  1  0  0  0  0
 24 31  2  0  0  0  0
 24 52  1  0  0  0  0
 25 70  1  0  0  0  0
 26 81  1  0  0  0  0
 27 82  1  0  0  0  0
 28 30  2  0  0  0  0
 28 81  1  0  0  0  0
 29 83  1  0  0  0  0
 30 84  1  0  0  0  0
 31 85  1  0  0  0  0
 32 63  2  0  0  0  0
 33 65  1  0  0  0  0
 33 68  1  0  0  0  0
 34 69  1  0  0  0  0
 34 74  2  0  0  0  0
 35 50  1  0  0  0  0
 35 71  1  0  0  0  0
 35 75  2  0  0  0  0
 36 58  1  0  0  0  0
 36 59  1  0  0  0  0
 36 76  2  0  0  0  0
 37 60  1  0  0  0  0
 37 66  1  0  0  0  0
 37 77  2  0  0  0  0
 38 61  1  0  0  0  0
 38 72  1  0  0  0  0
 38 78  2  0  0  0  0
 39 67  1  0  0  0  0
 39 70  1  0  0  0  0
 39 79  2  0  0  0  0
 40 43  1  0  0  0  0
 41 50  1  0  0  0  0
 42 66  1  0  0  0  0
 43 45  1  0  0  0  0
 44 46  1  0  0  0  0
 44 47  1  0  0  0  0
 45 49  1  0  0  0  0
 46 51  1  0  0  0  0
 47 67  1  0  0  0  0
 48 51  1  0  0  0  0
 48 67  1  0  0  0  0
 49 71  1  0  0  0  0
 50 66  1  0  0  0  0
 51 65  1  0  0  0  0
 53 61  1  0  0  0  0
 54 62  1  0  0  0  0
 55 62  1  0  0  0  0
 56 62  1  0  0  0  0
 57 73  1  0  0  0  0
 58 82  1  0  0  0  0
 59 85  1  0  0  0  0
 60 62  1  0  0  0  0
 60 72  1  0  0  0  0
 61 73  1  0  0  0  0
 63 65  1  0  0  0  0
 64 85  2  0  0  0  0
 80 85  2  0  0  0  0
M  CHG  1  73   1
M  ISO  4  39 100  58 101  70 100  82 101
M  END
> <Batch ID>
0058

> <Smiles>
CNC(C)C(=O)NC(C(=O)N1Cc2cc([101O:1][101CH2:1]C(=O)CS(=N)(=O)c3ccc([100NH:0][100C:0](=O)N4CCCC(n5nc(-c6ccc(Oc7ccc(F)cc7F)cc6)c(C(N)=O)c5N)C4)cc3C)ccc2CC1C(=O)NC1CCCc2ccccc21)C(C)(C)C

> <Shape>
0.299

> <Color>
0.135

> <Negative vol penalty>
0.000

$$$$

  -OEChem-04042322583D

 86 95  0     1  0  0  0  0  0999 V2000
  -26.6016  -31.1172   28.8920 C   0  0  0  0  0  0  0  0  0  0  0  0
  -27.1463  -30.5282   27.7554 C   0  0  0  0  0  0  0  0  0  0  0  0
  -26.3990  -12.6485   21.4692 C   0  0  0  0  0  0  0  0  0  0  0  0
  -26.3424  -13.0694   19.0908 C   0  0  0  0  0  0  0  0  0  0  0  0
  -25.2203  -31.1186   29.0812 C   0  0  0  0  0  0  0  0  0  0  0  0
  -26.3099  -29.9392   26.8078 C   0  0  0  0  0  0  0  0  0  0  0  0
  -27.1340  -29.8138   20.7406 C   0  0  0  0  0  0  0  0  0  0  0  0
  -25.1166  -12.1039   21.4034 C   0  0  0  0  0  0  0  0  0  0  0  0
  -25.0600  -12.5247   19.0250 C   0  0  0  0  0  0  0  0  0  0  0  0
  -27.6453  -28.8404   19.8834 C   0  0  0  0  0  0  0  0  0  0  0  0
  -23.6962   -9.1824   20.4651 C   0  0  0  0  0  0  0  0  0  0  0  0
  -23.4641   -7.9866   21.1446 C   0  0  0  0  0  0  0  0  0  0  0  0
  -25.4029  -28.0866   19.4116 C   0  0  0  0  0  0  0  0  0  0  0  0
  -29.2766  -21.9298   14.9303 C   0  0  0  0  0  0  0  0  0  0  0  0
  -29.6941  -19.7398   15.8609 C   0  0  0  0  0  0  0  0  0  0  0  0
  -29.4562  -26.0679   15.9136 C   0  0  0  0  0  0  0  0  0  0  0  0
  -29.8158  -21.6958   17.2737 C   0  0  0  0  0  0  0  0  0  0  0  0
  -21.7690   -9.0740   22.4792 C   0  0  0  0  0  0  0  0  0  0  0  0
  -27.0119  -13.1313   20.3130 C   0  0  0  0  0  0  0  0  0  0  0  0
  -29.5588  -13.0126   20.2305 C   0  0  0  0  0  0  0  0  0  0  0  0
  -24.3659  -30.5378   28.1308 C   0  0  0  0  0  0  0  0  0  0  0  0
  -25.7516  -29.9240   20.9485 C   0  0  0  0  0  0  0  0  0  0  0  0
  -24.9159  -29.9315   26.9852 C   0  0  0  0  0  0  0  0  0  0  0  0
  -24.8764  -29.0639   20.2700 C   0  0  0  0  0  0  0  0  0  0  0  0
  -29.3753  -20.5478   14.7695 C   0  0  0  0  0  0  0  0  0  0  0  0
  -29.0397  -25.8830   17.2550 C   0  0  0  0  0  0  0  0  0  0  0  0
  -29.4969  -22.5039   16.1824 C   0  0  0  0  0  0  0  0  0  0  0  0
  -29.9143  -20.3138   17.1130 C   0  0  0  0  0  0  0  0  0  0  0  0
  -24.4471  -12.0419   20.1813 C   0  0  0  0  0  0  0  0  0  0  0  0
  -26.7800  -27.9748   19.2209 C   0  0  0  0  0  0  0  0  0  0  0  0
  -22.9647  -10.3240   20.7927 C   0  0  0  0  0  0  0  0  0  0  0  0
  -22.5005   -7.9323   22.1516 C   0  0  0  0  0  0  0  0  0  0  0  0
  -22.0011  -10.2698   21.7997 C   0  0  0  0  0  0  0  0  0  0  0  0
  -28.3364  -13.6946   20.3804 C   0  0  0  0  0  0  0  0  0  0  0  0
  -30.5158  -13.9866   20.3792 C   0  0  0  0  0  0  0  0  0  0  0  0
  -29.6708  -24.8191   15.3736 C   0  0  0  0  0  0  0  0  0  0  0  0
  -29.0126  -24.5266   17.4939 C   0  0  0  0  0  0  0  0  0  0  0  0
  -29.8071  -11.6231   19.9792 C   0  0  0  0  0  0  0  0  0  0  0  0
  -23.8317  -29.6352   23.4653 C   0  0  0  0  0  0  0  0  0  0  0  0
  -21.5736  -30.6489   21.3687 C   0  0  0  0  0  0  0  0  0  0  0  0
  -20.5609  -30.9529   18.1239 C   0  0  0  0  0  0  0  0  0  0  0  0
  -30.4867  -19.9014   19.5314 C   0  0  0  0  0  0  0  0  0  0  0  0
  -22.8824  -30.5219   28.4019 C   0  0  0  0  0  0  0  0  0  0  0  0
  -25.2143  -30.9967   21.8558 C   0  0  0  0  0  0  0  0  0  0  0  0
  -23.3830  -29.1540   20.4431 C   0  0  0  0  0  0  0  0  0  0  0  0
  -22.0409  -30.2073   27.1677 C   0  0  0  0  0  0  0  0  0  0  0  0
  -31.2785  -18.1868   22.5497 C   0  0  0  0  0  0  0  0  0  0  0  0
  -22.6187  -29.0108   26.4185 C   0  0  0  0  0  0  0  0  0  0  0  0
  -30.7305  -16.7764   22.3199 C   0  0  0  0  0  0  0  0  0  0  0  0
  -30.3786  -19.2532   21.9279 C   0  0  0  0  0  0  0  0  0  0  0  0
  -29.5168  -17.6393   20.2780 C   0  0  0  0  0  0  0  0  0  0  0  0
  -24.0398  -29.3043   25.9226 C   0  0  1  0  0  0  0  0  0  0  0  0
  -23.8198  -30.6844   22.3898 C   0  0  1  0  0  0  0  0  0  0  0  0
  -30.4232  -16.5270   20.8303 C   0  0  2  0  0  0  0  0  0  0  0  0
  -29.1391  -19.9340   13.4311 C   0  0  0  0  0  0  0  0  0  0  0  0
  -18.6523  -31.7901   16.7261 C   0  0  0  0  0  0  0  0  0  0  0  0
  -19.9367  -28.1909   22.1360 C   0  0  0  0  0  0  0  0  0  0  0  0
  -18.5499  -28.5601   20.0845 C   0  0  0  0  0  0  0  0  0  0  0  0
  -18.6053  -30.2922   21.8788 C   0  0  0  0  0  0  0  0  0  0  0  0
  -22.2859  -32.9183   16.7380 C   0  0  0  0  0  0  0  0  0  0  0  0
  -28.6942  -26.9684   18.2316 C   0  0  0  0  0  0  0  0  0  1  0  0
  -20.6321  -29.9726   20.4017 C   0  0  1  0  0  0  0  0  0  0  0  0
  -19.9961  -32.1312   17.3511 C   0  0  2  0  0  0  0  0  0  0  0  0
  -19.4592  -29.2507   21.1233 C   0  0  0  0  0  0  0  0  0  0  0  0
  -28.4991  -15.0007   20.6072 N   0  0  0  0  0  0  0  0  0  0  0  0
  -29.3984  -23.8899   16.3434 N   0  0  0  0  0  0  0  0  0  0  0  0
  -29.8350  -15.1474   20.6009 N   0  0  0  0  0  0  0  0  0  0  0  0
  -22.9067  -30.2152   21.3456 N   0  0  0  0  0  0  0  0  0  0  0  0
  -30.1343  -18.9535   20.5153 N   0  0  0  0  0  0  0  0  0  0  0  0
  -31.8649  -13.9547   20.3408 N   0  0  0  0  0  0  0  0  0  0  0  0
  -28.7097  -10.7604   19.8534 N   0  0  0  0  0  0  0  0  0  0  0  0
  -30.2378  -19.4927   18.2216 N   0  0  0  0  0  0  0  0  0  0  0  0
  -24.0005  -30.1390   24.7409 N   0  0  0  0  0  0  0  0  0  0  0  0
  -20.2099  -31.0006   19.4565 N   0  0  0  0  0  0  0  0  0  0  0  0
  -20.9317  -32.5336   16.2633 N   0  3  0  0  0  0  0  0  0  0  0  0
  -30.9681  -11.1573   19.8857 O   0  0  0  0  0  0  0  0  0  0  0  0
  -23.6961  -28.4560   23.1606 O   0  0  0  0  0  0  0  0  0  0  0  0
  -21.1436  -31.5345   22.1120 O   0  0  0  0  0  0  0  0  0  0  0  0
  -21.2420  -30.0758   17.5972 O   0  0  0  0  0  0  0  0  0  0  0  0
  -30.9987  -20.9842   19.8273 O   0  0  0  0  0  0  0  0  0  0  0  0
  -30.0671  -24.4638   14.1573 O   0  0  0  0  0  0  0  0  0  0  0  0
  -28.6933  -23.8479   18.5900 O   0  0  0  0  0  0  0  0  0  0  0  0
  -23.1958  -11.5103   20.1166 O   0  0  0  0  0  0  0  0  0  0  0  0
  -27.2764  -27.0234   18.3842 O   0  0  0  0  0  0  0  0  0  1  0  0
  -22.2766   -6.7835   22.8030 F   0  0  0  0  0  0  0  0  0  0  0  0
  -21.2944  -11.3630   22.1180 F   0  0  0  0  0  0  0  0  0  0  0  0
  1  2  1  0  0  0  0
  1  5  2  0  0  0  0
  2  6  2  0  0  0  0
  3  8  2  0  0  0  0
  3 19  1  0  0  0  0
  4  9  1  0  0  0  0
  4 19  2  0  0  0  0
  5 21  1  0  0  0  0
  6 23  1  0  0  0  0
  7 10  2  0  0  0  0
  7 22  1  0  0  0  0
  8 29  1  0  0  0  0
  9 29  2  0  0  0  0
 10 30  1  0  0  0  0
 11 12  2  0  0  0  0
 11 31  1  0  0  0  0
 12 32  1  0  0  0  0
 13 24  1  0  0  0  0
 13 30  2  0  0  0  0
 14 25  2  0  0  0  0
 14 27  1  0  0  0  0
 15 25  1  0  0  0  0
 15 28  2  0  0  0  0
 16 26  1  0  0  0  0
 16 36  2  0  0  0  0
 17 27  2  0  0  0  0
 17 28  1  0  0  0  0
 18 32  2  0  0  0  0
 18 33  1  0  0  0  0
 19 34  1  0  0  0  0
 20 34  1  0  0  0  0
 20 35  2  0  0  0  0
 20 38  1  0  0  0  0
 21 23  2  0  0  0  0
 21 43  1  0  0  0  0
 22 24  2  0  0  0  0
 22 44  1  0  0  0  0
 23 52  1  0  0  0  0
 24 45  1  0  0  0  0
 25 55  1  0  0  0  0
 26 37  2  0  0  0  0
 26 61  1  0  0  0  0
 27 66  1  0  0  0  0
 28 72  1  0  0  0  0
 29 83  1  0  0  0  0
 30 84  1  0  0  0  0
 31 33  2  0  0  0  0
 31 83  1  0  0  0  0
 32 85  1  0  0  0  0
 33 86  1  0  0  0  0
 34 65  2  0  0  0  0
 35 67  1  0  0  0  0
 35 70  1  0  0  0  0
 36 66  1  0  0  0  0
 36 81  1  0  0  0  0
 37 66  1  0  0  0  0
 37 82  1  0  0  0  0
 38 71  1  0  0  0  0
 38 76  2  0  0  0  0
 39 53  1  0  0  0  0
 39 73  1  0  0  0  0
 39 77  2  0  0  0  0
 40 62  1  0  0  0  0
 40 68  1  0  0  0  0
 40 78  2  0  0  0  0
 41 63  1  0  0  0  0
 41 74  1  0  0  0  0
 41 79  2  0  0  0  0
 42 69  1  0  0  0  0
 42 72  1  0  0  0  0
 42 80  2  0  0  0  0
 43 46  1  0  0  0  0
 44 53  1  0  0  0  0
 45 68  1  0  0  0  0
 46 48  1  0  0  0  0
 47 49  1  0  0  0  0
 47 50  1  0  0  0  0
 48 52  1  0  0  0  0
 49 54  1  0  0  0  0
 50 69  1  0  0  0  0
 51 54  1  0  0  0  0
 51 69  1  0  0  0  0
 52 73  1  0  0  0  0
 53 68  1  0  0  0  0
 54 67  1  0  0  0  0
 56 63  1  0  0  0  0
 57 64  1  0  0  0  0
 58 64  1  0  0  0  0
 59 64  1  0  0  0  0
 60 75  1  0  0  0  0
 61 84  1  0  0  0  0
 62 64  1  0  0  0  0
 62 74  1  0  0  0  0
 63 75  1  0  0  0  0
 65 67  1  0  0  0  0
M  CHG  1  75   1
M  ISO  4  42 100  61 101  72 100  84 101
M  END
> <Batch ID>
0058

> <Smiles>
CNC(C)C(=O)NC(C(=O)N1Cc2cc([101O:1][101CH2:1]C3CC(=O)N(c4cc(C)cc([100NH:0][100C:0](=O)N5CCCC(n6nc(-c7ccc(Oc8ccc(F)cc8F)cc7)c(C(N)=O)c6N)C5)c4)C3=O)ccc2CC1C(=O)NC1CCCc2ccccc21)C(C)(C)C

> <Shape>
0.268

> <Color>
0.086

> <Negative vol penalty>
0.000

$$$$

  -OEChem-04042322583D

 87 96  0     1  0  0  0  0  0999 V2000
  -29.8734  -24.2652   23.9306 C   0  0  0  0  0  0  0  0  0  0  0  0
  -28.8150  -23.4537   24.3263 C   0  0  0  0  0  0  0  0  0  0  0  0
  -24.9486  -30.4201   20.3250 C   0  0  0  0  0  0  0  0  0  0  0  0
  -24.0733  -28.7228   21.8049 C   0  0  0  0  0  0  0  0  0  0  0  0
  -30.3091  -24.2443   22.6063 C   0  0  0  0  0  0  0  0  0  0  0  0
  -28.1909  -22.6215   23.3976 C   0  0  0  0  0  0  0  0  0  0  0  0
  -24.9310  -16.2618   22.9047 C   0  0  0  0  0  0  0  0  0  0  0  0
  -24.6460  -31.4002   21.2702 C   0  0  0  0  0  0  0  0  0  0  0  0
  -23.7708  -29.7029   22.7501 C   0  0  0  0  0  0  0  0  0  0  0  0
  -23.7459  -15.6920   22.4414 C   0  0  0  0  0  0  0  0  0  0  0  0
  -24.4344  -34.3081   23.4415 C   0  0  0  0  0  0  0  0  0  0  0  0
  -25.4010  -35.2798   23.7003 C   0  0  0  0  0  0  0  0  0  0  0  0
  -24.6351  -15.6806   20.1990 C   0  0  0  0  0  0  0  0  0  0  0  0
  -19.9972  -20.4479   18.8714 C   0  0  0  0  0  0  0  0  0  0  0  0
  -21.2113  -19.9324   16.8471 C   0  0  0  0  0  0  0  0  0  0  0  0
  -26.9436  -33.5583   24.4030 C   0  0  0  0  0  0  0  0  0  0  0  0
  -24.6622  -29.0813   20.5924 C   0  0  0  0  0  0  0  0  0  0  0  0
  -26.1753  -27.3444   19.4965 C   0  0  0  0  0  0  0  0  0  0  0  0
  -29.6963  -23.4044   21.6631 C   0  0  0  0  0  0  0  0  0  0  0  0
  -25.9746  -16.5558   22.0154 C   0  0  0  0  0  0  0  0  0  0  0  0
  -28.6179  -22.5903   22.0592 C   0  0  0  0  0  0  0  0  0  0  0  0
  -25.8334  -16.2517   20.6539 C   0  0  0  0  0  0  0  0  0  0  0  0
  -20.1351  -21.8105   18.6071 C   0  0  0  0  0  0  0  0  0  0  0  0
  -20.5354  -19.5089   17.9914 C   0  0  0  0  0  0  0  0  0  0  0  0
  -20.8110  -22.2341   17.4628 C   0  0  0  0  0  0  0  0  0  0  0  0
  -24.0571  -31.0417   22.4827 C   0  0  0  0  0  0  0  0  0  0  0  0
  -23.5967  -15.4039   21.0879 C   0  0  0  0  0  0  0  0  0  0  0  0
  -24.7224  -32.9614   23.6635 C   0  0  0  0  0  0  0  0  0  0  0  0
  -26.6556  -34.9049   24.1810 C   0  0  0  0  0  0  0  0  0  0  0  0
  -21.3491  -21.2951   16.5828 C   0  0  0  0  0  0  0  0  0  0  0  0
  -25.9769  -32.5865   24.1442 C   0  0  0  0  0  0  0  0  0  0  0  0
  -24.9740  -28.0685   19.6162 C   0  0  0  0  0  0  0  0  0  0  0  0
  -25.9696  -26.5130   18.4227 C   0  0  0  0  0  0  0  0  0  0  0  0
  -20.1858  -15.8645   17.9774 C   0  0  0  0  0  0  0  0  0  0  0  0
  -20.1797  -16.1252   19.2865 C   0  0  0  0  0  0  0  0  0  0  0  0
  -20.3265  -17.1553   17.2745 C   0  0  0  0  0  0  0  0  0  0  0  0
  -27.3703  -27.4167   20.2855 C   0  0  0  0  0  0  0  0  0  0  0  0
  -27.4650  -19.2119   21.1055 C   0  0  0  0  0  0  0  0  0  0  0  0
  -29.3780  -17.1293   19.5163 C   0  0  0  0  0  0  0  0  0  0  0  0
  -29.7551  -14.0528   18.0882 C   0  0  0  0  0  0  0  0  0  0  0  0
  -21.0532  -24.2135   15.9234 C   0  0  0  0  0  0  0  0  0  0  0  0
  -30.1712  -23.4511   20.2324 C   0  0  0  0  0  0  0  0  0  0  0  0
  -27.2569  -17.1458   22.5352 C   0  0  0  0  0  0  0  0  0  0  0  0
  -26.9317  -16.5292   19.6614 C   0  0  0  0  0  0  0  0  0  0  0  0
  -20.3117  -17.5792   19.5836 C   0  0  0  0  0  0  0  0  0  0  0  0
  -29.7006  -22.2645   19.3953 C   0  0  0  0  0  0  0  0  0  0  0  0
  -23.5118  -26.2307   14.3223 C   0  0  0  0  0  0  0  0  0  0  0  0
  -28.2140  -22.0080   19.6213 C   0  0  0  0  0  0  0  0  0  0  0  0
  -24.2790  -26.8602   15.4873 C   0  0  0  0  0  0  0  0  0  0  0  0
  -22.0208  -26.1012   14.6291 C   0  0  0  0  0  0  0  0  0  0  0  0
  -22.4704  -26.0402   17.0505 C   0  0  0  0  0  0  0  0  0  0  0  0
  -27.9315  -21.6558   21.0868 C   0  0  1  0  0  0  0  0  0  0  0  0
  -28.0565  -17.8773   21.4614 C   0  0  1  0  0  0  0  0  0  0  0  0
  -23.9868  -26.1317   16.8137 C   0  0  2  0  0  0  0  0  0  0  0  0
  -19.5495  -22.7941   19.5680 C   0  0  0  0  0  0  0  0  0  0  0  0
  -31.4183  -12.6539   16.8335 C   0  0  0  0  0  0  0  0  0  0  0  0
  -28.8299  -18.7487   16.9889 C   0  0  0  0  0  0  0  0  0  0  0  0
  -29.6986  -16.8205   15.6489 C   0  0  0  0  0  0  0  0  0  0  0  0
  -31.2010  -17.9992   17.2539 C   0  0  0  0  0  0  0  0  0  0  0  0
  -29.7885  -11.9857   20.2060 C   0  0  0  0  0  0  0  0  0  0  0  0
  -20.0571  -15.1260   20.3893 C   0  0  0  0  0  0  0  0  0  0  0  0
  -21.2441  -15.1664   21.3423 C   0  0  0  0  0  0  0  0  0  1  0  0
  -29.3675  -16.5025   18.1430 C   0  0  1  0  0  0  0  0  0  0  0  0
  -30.8608  -13.0188   18.2006 C   0  0  2  0  0  0  0  0  0  0  0  0
  -29.7526  -17.5141   17.0268 C   0  0  0  0  0  0  0  0  0  0  0  0
  -24.0720  -27.7272   18.6921 N   0  0  0  0  0  0  0  0  0  0  0  0
  -24.7069  -26.7796   17.9815 N   0  0  0  0  0  0  0  0  0  0  0  0
  -20.3986  -18.1516   18.2560 N   0  0  0  0  0  0  0  0  0  0  0  0
  -28.1639  -17.1124   20.2174 N   0  0  0  0  0  0  0  0  0  0  0  0
  -21.8208  -25.3971   15.8976 N   0  0  0  0  0  0  0  0  0  0  0  0
  -26.7475  -25.5874   17.8223 N   0  0  0  0  0  0  0  0  0  0  0  0
  -27.4130  -28.3253   21.3517 N   0  0  0  0  0  0  0  0  0  0  0  0
  -20.9594  -23.6145   17.1792 N   0  0  0  0  0  0  0  0  0  0  0  0
  -28.3011  -20.2829   21.3570 N   0  0  0  0  0  0  0  0  0  0  0  0
  -30.2409  -15.3365   18.2198 N   0  0  0  0  0  0  0  0  0  0  0  0
  -30.3458  -11.7775   18.8447 N   0  3  0  0  0  0  0  0  0  0  0  0
  -20.3665  -17.2676   16.0600 O   0  0  0  0  0  0  0  0  0  0  0  0
  -28.3766  -26.7085   20.0417 O   0  0  0  0  0  0  0  0  0  0  0  0
  -26.3343  -19.2658   20.6361 O   0  0  0  0  0  0  0  0  0  0  0  0
  -30.4265  -17.6097   19.9538 O   0  0  0  0  0  0  0  0  0  0  0  0
  -28.5786  -13.7520   17.8986 O   0  0  0  0  0  0  0  0  0  0  0  0
  -20.5411  -23.7497   14.9013 O   0  0  0  0  0  0  0  0  0  0  0  0
  -23.7619  -31.9978   23.4054 O   0  0  0  0  0  0  0  0  0  0  0  0
  -22.4408  -14.8483   20.6329 O   0  0  0  0  0  0  0  0  0  1  0  0
  -27.5843  -35.8381   24.4280 F   0  0  0  0  0  0  0  0  0  0  0  0
  -22.0009  -21.6901   15.4798 F   0  0  0  0  0  0  0  0  0  0  0  0
  -26.2598  -31.2943   24.3583 F   0  0  0  0  0  0  0  0  0  0  0  0
  1  2  1  0  0  0  0
  1  5  2  0  0  0  0
  2  6  2  0  0  0  0
  3  8  2  0  0  0  0
  3 17  1  0  0  0  0
  4  9  1  0  0  0  0
  4 17  2  0  0  0  0
  5 19  1  0  0  0  0
  6 21  1  0  0  0  0
  7 10  2  0  0  0  0
  7 20  1  0  0  0  0
  8 26  1  0  0  0  0
  9 26  2  0  0  0  0
 10 27  1  0  0  0  0
 11 12  2  0  0  0  0
 11 28  1  0  0  0  0
 12 29  1  0  0  0  0
 13 22  1  0  0  0  0
 13 27  2  0  0  0  0
 14 23  2  0  0  0  0
 14 24  1  0  0  0  0
 15 24  2  0  0  0  0
 15 30  1  0  0  0  0
 16 29  2  0  0  0  0
 16 31  1  0  0  0  0
 17 32  1  0  0  0  0
 18 32  1  0  0  0  0
 18 33  2  0  0  0  0
 18 37  1  0  0  0  0
 19 21  2  0  0  0  0
 19 42  1  0  0  0  0
 20 22  2  0  0  0  0
 20 43  1  0  0  0  0
 21 52  1  0  0  0  0
 22 44  1  0  0  0  0
 23 25  1  0  0  0  0
 23 55  1  0  0  0  0
 24 68  1  0  0  0  0
 25 30  2  0  0  0  0
 25 73  1  0  0  0  0
 26 83  1  0  0  0  0
 27 84  1  0  0  0  0
 28 31  2  0  0  0  0
 28 83  1  0  0  0  0
 29 85  1  0  0  0  0
 30 86  1  0  0  0  0
 31 87  1  0  0  0  0
 32 66  2  0  0  0  0
 33 67  1  0  0  0  0
 33 71  1  0  0  0  0
 34 35  2  0  0  0  0
 34 36  1  0  0  0  0
 35 45  1  0  0  0  0
 35 61  1  0  0  0  0
 36 68  1  0  0  0  0
 36 77  2  0  0  0  0
 37 72  1  0  0  0  0
 37 78  2  0  0  0  0
 38 53  1  0  0  0  0
 38 74  1  0  0  0  0
 38 79  2  0  0  0  0
 39 63  1  0  0  0  0
 39 69  1  0  0  0  0
 39 80  2  0  0  0  0
 40 64  1  0  0  0  0
 40 75  1  0  0  0  0
 40 81  2  0  0  0  0
 41 70  1  0  0  0  0
 41 73  1  0  0  0  0
 41 82  2  0  0  0  0
 42 46  1  0  0  0  0
 43 53  1  0  0  0  0
 44 69  1  0  0  0  0
 45 68  1  0  0  0  0
 46 48  1  0  0  0  0
 47 49  1  0  0  0  0
 47 50  1  0  0  0  0
 48 52  1  0  0  0  0
 49 54  1  0  0  0  0
 50 70  1  0  0  0  0
 51 54  1  0  0  0  0
 51 70  1  0  0  0  0
 52 74  1  0  0  0  0
 53 69  1  0  0  0  0
 54 67  1  0  0  0  0
 56 64  1  0  0  0  0
 57 65  1  0  0  0  0
 58 65  1  0  0  0  0
 59 65  1  0  0  0  0
 60 76  1  0  0  0  0
 61 62  1  0  0  0  0
 62 84  1  0  0  0  0
 63 65  1  0  0  0  0
 63 75  1  0  0  0  0
 64 76  1  0  0  0  0
 66 67  1  0  0  0  0
M  CHG  1  76   1
M  ISO  4  41 100  62 101  73 100  84 101
M  END
> <Batch ID>
0058

> <Smiles>
CNC(C)C(=O)NC(C(=O)N1Cc2cc([101O:1][101CH2:1]C=C3CC(=O)N(c4cc(C)c([100NH:0][100C:0](=O)N5CCCC(n6nc(-c7ccc(Oc8ccc(F)cc8F)cc7)c(C(N)=O)c6N)C5)c(F)c4)C3)ccc2CC1C(=O)NC1CCCc2ccccc21)C(C)(C)C

> <Shape>
0.220

> <Color>
0.085

> <Negative vol penalty>
0.000

$$$$

  -OEChem-04042322583D

 90100  0     1  0  0  0  0  0999 V2000
  -31.8171  -14.0122   21.5585 C   0  0  0  0  0  0  0  0  0  0  0  0
  -31.2036  -15.2587   21.4860 C   0  0  0  0  0  0  0  0  0  0  0  0
  -29.8413  -25.3462   19.3054 C   0  0  0  0  0  0  0  0  0  0  0  0
  -27.5539  -24.7364   19.7880 C   0  0  0  0  0  0  0  0  0  0  0  0
  -20.8357  -26.7999   22.9991 C   0  0  0  0  0  0  0  0  0  0  0  0
  -31.1954  -12.8970   20.9985 C   0  0  0  0  0  0  0  0  0  0  0  0
  -29.9685  -15.3909   20.8525 C   0  0  0  0  0  0  0  0  0  0  0  0
  -26.7254  -18.2449   23.4950 C   0  0  0  0  0  0  0  0  0  0  0  0
  -21.5319  -25.9781   23.8873 C   0  0  0  0  0  0  0  0  0  0  0  0
  -30.1557  -24.0031   19.0987 C   0  0  0  0  0  0  0  0  0  0  0  0
  -27.8683  -23.3933   19.5812 C   0  0  0  0  0  0  0  0  0  0  0  0
  -26.8970  -19.6271   23.4330 C   0  0  0  0  0  0  0  0  0  0  0  0
  -28.3363  -21.3226   16.9518 C   0  0  0  0  0  0  0  0  0  0  0  0
  -27.4543  -20.5630   16.1833 C   0  0  0  0  0  0  0  0  0  0  0  0
  -25.1210  -19.7685   21.8066 C   0  0  0  0  0  0  0  0  0  0  0  0
  -23.1424  -27.7473   24.3228 C   0  0  0  0  0  0  0  0  0  0  0  0
  -27.1004  -19.0788   18.0565 C   0  0  0  0  0  0  0  0  0  0  0  0
  -28.5403  -25.7129   19.6502 C   0  0  0  0  0  0  0  0  0  0  0  0
  -21.3095  -28.0854   22.7768 C   0  0  0  0  0  0  0  0  0  0  0  0
  -28.3310  -28.1534   18.9377 C   0  0  0  0  0  0  0  0  0  0  0  0
  -29.9474  -13.0138   20.3663 C   0  0  0  0  0  0  0  0  0  0  0  0
  -25.7560  -17.6118   22.7039 C   0  0  0  0  0  0  0  0  0  0  0  0
  -29.3301  -14.2764   20.2824 C   0  0  0  0  0  0  0  0  0  0  0  0
  -24.9374  -18.3784   21.8624 C   0  0  0  0  0  0  0  0  0  0  0  0
  -22.6712  -26.4522   24.5518 C   0  0  0  0  0  0  0  0  0  0  0  0
  -22.4723  -28.5430   23.4045 C   0  0  0  0  0  0  0  0  0  0  0  0
  -29.1693  -23.0266   19.2365 C   0  0  0  0  0  0  0  0  0  0  0  0
  -26.0967  -20.3888   22.5866 C   0  0  0  0  0  0  0  0  0  0  0  0
  -28.6004  -20.9603   18.2727 C   0  0  0  0  0  0  0  0  0  0  0  0
  -26.8363  -19.4411   16.7356 C   0  0  0  0  0  0  0  0  0  0  0  0
  -27.9824  -19.8384   18.8250 C   0  0  0  0  0  0  0  0  0  0  0  0
  -28.2150  -27.1001   19.8644 C   0  0  0  0  0  0  0  0  0  0  0  0
  -27.8994  -29.2628   19.6230 C   0  0  0  0  0  0  0  0  0  0  0  0
  -20.7576  -29.1762   21.9766 C   0  0  0  0  0  0  0  0  0  0  0  0
  -24.7385  -23.8792   24.1975 C   0  0  0  0  0  0  0  0  0  0  0  0
  -28.7880  -28.1311   17.5789 C   0  0  0  0  0  0  0  0  0  0  0  0
  -19.7195  -29.1161   21.1373 C   0  0  0  0  0  0  0  0  0  0  0  0
  -25.8221  -15.4320   20.3913 C   0  0  0  0  0  0  0  0  0  0  0  0
  -22.5952  -15.5965   20.6776 C   0  0  0  0  0  0  0  0  0  0  0  0
  -19.8590  -17.4024   21.6258 C   0  0  0  0  0  0  0  0  0  0  0  0
  -23.7896  -30.6951   23.4251 C   0  0  0  0  0  0  0  0  0  0  0  0
  -29.3363  -11.7883   19.7343 C   0  0  0  0  0  0  0  0  0  0  0  0
  -25.5654  -16.1230   22.8022 C   0  0  0  0  0  0  0  0  0  0  0  0
  -23.8686  -17.7494   21.0076 C   0  0  0  0  0  0  0  0  0  0  0  0
  -21.6010  -30.3922   22.2512 C   0  0  0  0  0  0  0  0  0  0  0  0
  -27.8531  -11.9459   19.4096 C   0  0  0  0  0  0  0  0  0  0  0  0
  -27.2967  -29.8697   24.5596 C   0  0  0  0  0  0  0  0  0  0  0  0
  -27.5970  -13.2806   18.7170 C   0  0  0  0  0  0  0  0  0  0  0  0
  -28.0013  -29.6578   23.2181 C   0  0  0  0  0  0  0  0  0  0  0  0
  -26.9097  -24.7164   24.7231 C   0  0  0  0  0  0  0  0  0  0  0  0
  -26.0397  -30.7145   24.4175 C   0  0  0  0  0  0  0  0  0  0  0  0
  -25.8687  -25.7585   25.0863 C   0  0  0  0  0  0  0  0  0  0  0  0
  -25.6148  -29.2250   22.4516 C   0  0  0  0  0  0  0  0  0  0  0  0
  -27.9787  -14.4556   19.6253 C   0  0  1  0  0  0  0  0  0  0  0  0
  -26.1810  -23.8097   23.7284 C   0  0  1  0  0  0  0  0  0  0  0  0
  -24.8947  -15.5238   21.5699 C   0  0  1  0  0  0  0  0  0  0  0  0
  -27.0287  -29.6531   22.0223 C   0  0  2  0  0  0  0  0  0  0  0  0
  -19.2457  -30.3160   20.3672 C   0  0  0  0  0  0  0  0  0  0  0  0
  -18.9536  -27.8444   20.9059 C   0  0  0  0  0  0  0  0  0  0  0  0
  -17.3534  -17.2882   21.7030 C   0  0  0  0  0  0  0  0  0  0  0  0
  -22.4810  -16.1255   17.6748 C   0  0  0  0  0  0  0  0  0  0  0  0
  -20.1294  -16.9302   17.9765 C   0  0  0  0  0  0  0  0  0  0  0  0
  -20.7185  -14.5698   18.5277 C   0  0  0  0  0  0  0  0  0  0  0  0
  -19.8227  -17.6528   24.5745 C   0  0  0  0  0  0  0  0  0  0  0  0
  -23.3895  -25.5618   25.5103 C   0  0  0  0  0  0  0  0  0  0  0  0
  -26.7250  -22.3945   23.6993 C   0  0  0  0  0  0  0  0  0  1  0  0
  -21.5070  -16.4310   20.0463 C   0  0  1  0  0  0  0  0  0  0  0  0
  -18.6467  -17.0309   22.4605 C   0  0  2  0  0  0  0  0  0  0  0  0
  -21.2303  -16.0261   18.5708 C   0  0  0  0  0  0  0  0  0  0  0  0
  -27.7466  -27.5041   21.0483 N   0  0  0  0  0  0  0  0  0  0  0  0
  -27.5645  -28.8236   20.8701 N   0  0  0  0  0  0  0  0  0  0  0  0
  -22.7462  -29.8749   23.0187 N   0  0  0  0  0  0  0  0  0  0  0  0
  -24.6215  -25.0415   24.9582 N   0  0  0  0  0  0  0  0  0  0  0  0
  -23.7251  -16.2896   21.1343 N   0  0  0  0  0  0  0  0  0  0  0  0
  -25.0749  -30.1332   23.4813 N   0  0  0  0  0  0  0  0  0  0  0  0
  -27.7776  -30.5613   19.2745 N   0  0  0  0  0  0  0  0  0  0  0  0
  -27.8493  -27.9099   16.5619 N   0  0  0  0  0  0  0  0  0  0  0  0
  -26.9549  -14.6756   20.6242 N   0  0  0  0  0  0  0  0  0  0  0  0
  -20.3468  -16.3205   20.9239 N   0  0  0  0  0  0  0  0  0  0  0  0
  -18.6206  -17.8281   23.7194 N   0  3  0  0  0  0  0  0  0  0  0  0
  -23.8610  -23.0808   23.9047 O   0  0  0  0  0  0  0  0  0  0  0  0
  -29.9955  -28.2859   17.2767 O   0  0  0  0  0  0  0  0  0  0  0  0
  -25.5308  -16.0038   19.3473 O   0  0  0  0  0  0  0  0  0  0  0  0
  -22.4449  -14.3756   20.7688 O   0  0  0  0  0  0  0  0  0  0  0  0
  -20.3243  -18.5396   21.5963 O   0  0  0  0  0  0  0  0  0  0  0  0
  -23.5965  -31.8939   23.6667 O   0  0  0  0  0  0  0  0  0  0  0  0
  -29.4757  -21.7160   19.0346 O   0  0  0  0  0  0  0  0  0  0  0  0
  -26.2638  -21.7489   22.5231 O   0  0  0  0  0  0  0  0  0  1  0  0
  -25.9882  -18.7126   15.9980 F   0  0  0  0  0  0  0  0  0  0  0  0
  -28.2313  -19.4861   20.0938 F   0  0  0  0  0  0  0  0  0  0  0  0
  1  2  1  0  0  0  0
  1  6  2  0  0  0  0
  2  7  2  0  0  0  0
  3 10  2  0  0  0  0
  3 18  1  0  0  0  0
  4 11  1  0  0  0  0
  4 18  2  0  0  0  0
  5  9  2  0  0  0  0
  5 19  1  0  0  0  0
  6 21  1  0  0  0  0
  7 23  1  0  0  0  0
  8 12  2  0  0  0  0
  8 22  1  0  0  0  0
  9 25  1  0  0  0  0
 10 27  1  0  0  0  0
 11 27  2  0  0  0  0
 12 28  1  0  0  0  0
 13 14  2  0  0  0  0
 13 29  1  0  0  0  0
 14 30  1  0  0  0  0
 15 24  1  0  0  0  0
 15 28  2  0  0  0  0
 16 25  2  0  0  0  0
 16 26  1  0  0  0  0
 17 30  2  0  0  0  0
 17 31  1  0  0  0  0
 18 32  1  0  0  0  0
 19 26  2  0  0  0  0
 19 34  1  0  0  0  0
 20 32  1  0  0  0  0
 20 33  2  0  0  0  0
 20 36  1  0  0  0  0
 21 23  2  0  0  0  0
 21 42  1  0  0  0  0
 22 24  2  0  0  0  0
 22 43  1  0  0  0  0
 23 54  1  0  0  0  0
 24 44  1  0  0  0  0
 25 65  1  0  0  0  0
 26 72  1  0  0  0  0
 27 87  1  0  0  0  0
 28 88  1  0  0  0  0
 29 31  2  0  0  0  0
 29 87  1  0  0  0  0
 30 89  1  0  0  0  0
 31 90  1  0  0  0  0
 32 70  2  0  0  0  0
 33 71  1  0  0  0  0
 33 76  1  0  0  0  0
 34 37  2  0  0  0  0
 34 45  1  0  0  0  0
 35 55  1  0  0  0  0
 35 73  1  0  0  0  0
 35 81  2  0  0  0  0
 36 77  1  0  0  0  0
 36 82  2  0  0  0  0
 37 58  1  0  0  0  0
 37 59  1  0  0  0  0
 38 56  1  0  0  0  0
 38 78  1  0  0  0  0
 38 83  2  0  0  0  0
 39 67  1  0  0  0  0
 39 74  1  0  0  0  0
 39 84  2  0  0  0  0
 40 68  1  0  0  0  0
 40 79  1  0  0  0  0
 40 85  2  0  0  0  0
 41 72  1  0  0  0  0
 41 75  1  0  0  0  0
 41 86  2  0  0  0  0
 42 46  1  0  0  0  0
 43 56  1  0  0  0  0
 44 74  1  0  0  0  0
 45 72  1  0  0  0  0
 46 48  1  0  0  0  0
 47 49  1  0  0  0  0
 47 51  1  0  0  0  0
 48 54  1  0  0  0  0
 49 57  1  0  0  0  0
 50 52  1  0  0  0  0
 50 55  1  0  0  0  0
 51 75  1  0  0  0  0
 52 73  1  0  0  0  0
 53 57  1  0  0  0  0
 53 75  1  0  0  0  0
 54 78  1  0  0  0  0
 55 66  1  0  0  0  0
 56 74  1  0  0  0  0
 57 71  1  0  0  0  0
 60 68  1  0  0  0  0
 61 69  1  0  0  0  0
 62 69  1  0  0  0  0
 63 69  1  0  0  0  0
 64 80  1  0  0  0  0
 65 73  1  0  0  0  0
 66 88  1  0  0  0  0
 67 69  1  0  0  0  0
 67 79  1  0  0  0  0
 68 80  1  0  0  0  0
 70 71  1  0  0  0  0
M  CHG  1  80   1
M  ISO  4  41 100  66 101  72 100  88 101
M  END
> <Batch ID>
0058

> <Smiles>
CNC(C)C(=O)NC(C(=O)N1Cc2cc([101O:1][101CH2:1]C3CCN(Cc4ccc5c(c4)[100N:0]([100C:0](=O)N4CCCC(n6nc(-c7ccc(Oc8ccc(F)cc8F)cc7)c(C(N)=O)c6N)C4)CC5=C(C)C)C3=O)ccc2CC1C(=O)NC1CCCc2ccccc21)C(C)(C)C

> <Shape>
0.218

> <Color>
0.060

> <Negative vol penalty>
0.000

$$$$

  -OEChem-04042322583D

 84 92  0     1  0  0  0  0  0999 V2000
  -28.1368  -36.4025   22.3659 C   0  0  0  0  0  0  0  0  0  0  0  0
  -28.4178  -35.0415   22.3017 C   0  0  0  0  0  0  0  0  0  0  0  0
  -24.6680  -12.2897   19.7785 C   0  0  0  0  0  0  0  0  0  0  0  0
  -25.6650  -12.9805   21.8680 C   0  0  0  0  0  0  0  0  0  0  0  0
  -26.9051  -36.8365   22.8542 C   0  0  0  0  0  0  0  0  0  0  0  0
  -27.4676  -34.1137   22.7268 C   0  0  0  0  0  0  0  0  0  0  0  0
  -26.9741  -30.2283   19.5166 C   0  0  0  0  0  0  0  0  0  0  0  0
  -30.9074  -21.7156   22.8996 C   0  0  0  0  0  0  0  0  0  0  0  0
  -29.9552  -20.9233   23.5409 C   0  0  0  0  0  0  0  0  0  0  0  0
  -25.1818  -11.0054   19.9579 C   0  0  0  0  0  0  0  0  0  0  0  0
  -26.1787  -11.6962   22.0474 C   0  0  0  0  0  0  0  0  0  0  0  0
  -27.9527  -29.2363   19.5625 C   0  0  0  0  0  0  0  0  0  0  0  0
  -25.9271   -7.4484   20.0425 C   0  0  0  0  0  0  0  0  0  0  0  0
  -25.0786   -6.3698   19.7930 C   0  0  0  0  0  0  0  0  0  0  0  0
  -26.4804  -27.8534   20.8813 C   0  0  0  0  0  0  0  0  0  0  0  0
  -29.6982  -21.4861   20.8206 C   0  0  0  0  0  0  0  0  0  0  0  0
  -23.5666   -7.1639   21.5019 C   0  0  0  0  0  0  0  0  0  0  0  0
  -24.9097  -13.2773   20.7335 C   0  0  0  0  0  0  0  0  0  0  0  0
  -23.1319  -15.0897   20.9835 C   0  0  0  0  0  0  0  0  0  0  0  0
  -25.9356  -35.9132   23.2765 C   0  0  0  0  0  0  0  0  0  0  0  0
  -25.7434  -30.0444   20.1631 C   0  0  0  0  0  0  0  0  0  0  0  0
  -26.2222  -34.5358   23.2225 C   0  0  0  0  0  0  0  0  0  0  0  0
  -25.4870  -28.8435   20.8400 C   0  0  0  0  0  0  0  0  0  0  0  0
  -30.7788  -21.9970   21.5395 C   0  0  0  0  0  0  0  0  0  0  0  0
  -28.8745  -20.4123   22.8220 C   0  0  0  0  0  0  0  0  0  0  0  0
  -28.7460  -20.6937   21.4619 C   0  0  0  0  0  0  0  0  0  0  0  0
  -25.9371  -10.7086   21.0924 C   0  0  0  0  0  0  0  0  0  0  0  0
  -27.7070  -28.0498   20.2473 C   0  0  0  0  0  0  0  0  0  0  0  0
  -25.5954   -8.3847   21.0218 C   0  0  0  0  0  0  0  0  0  0  0  0
  -23.8983   -6.2275   20.5226 C   0  0  0  0  0  0  0  0  0  0  0  0
  -24.4151   -8.2425   21.7515 C   0  0  0  0  0  0  0  0  0  0  0  0
  -24.3797  -14.6043   20.5484 C   0  0  0  0  0  0  0  0  0  0  0  0
  -23.1070  -16.3974   20.5641 C   0  0  0  0  0  0  0  0  0  0  0  0
  -22.0887  -14.4186   21.7026 C   0  0  0  0  0  0  0  0  0  0  0  0
  -24.2069  -31.5189   22.5230 C   0  0  0  0  0  0  0  0  0  0  0  0
  -21.8194  -29.4737   21.7234 C   0  0  0  0  0  0  0  0  0  0  0  0
  -30.8533  -25.1174   20.4445 C   0  0  0  0  0  0  0  0  0  0  0  0
  -20.8962  -26.5135   20.2979 C   0  0  0  0  0  0  0  0  0  0  0  0
  -27.3952  -20.3802   19.3587 C   0  0  0  0  0  0  0  0  0  0  0  0
  -24.6367  -36.4316   23.8411 C   0  0  0  0  0  0  0  0  0  0  0  0
  -24.6882  -31.1133   20.0817 C   0  0  0  0  0  0  0  0  0  0  0  0
  -24.1744  -28.5887   21.5334 C   0  0  0  0  0  0  0  0  0  0  0  0
  -23.5412  -35.3715   23.9214 C   0  0  0  0  0  0  0  0  0  0  0  0
  -24.8397  -19.2667   17.1437 C   0  0  0  0  0  0  0  0  0  0  0  0
  -24.0897  -34.0816   24.5231 C   0  0  0  0  0  0  0  0  0  0  0  0
  -24.3140  -17.9922   17.8081 C   0  0  0  0  0  0  0  0  0  0  0  0
  -26.3496  -19.4171   17.3205 C   0  0  0  0  0  0  0  0  0  0  0  0
  -26.2985  -18.0538   19.3718 C   0  0  0  0  0  0  0  0  0  0  0  0
  -25.2078  -33.4978   23.6511 C   0  0  1  0  0  0  0  0  0  0  0  0
  -23.6647  -31.0296   21.2099 C   0  0  1  0  0  0  0  0  0  0  0  0
  -24.7726  -17.8917   19.2762 C   0  0  2  0  0  0  0  0  0  0  0  0
  -27.8703  -19.5658   23.5348 C   0  0  0  0  0  0  0  0  0  0  0  0
  -18.8780  -25.0983   19.8277 C   0  0  0  0  0  0  0  0  0  0  0  0
  -21.7369  -28.6225   24.6523 C   0  0  0  0  0  0  0  0  0  0  0  0
  -20.4288  -26.6043   23.9567 C   0  0  0  0  0  0  0  0  0  0  0  0
  -19.4935  -28.8858   23.5789 C   0  0  0  0  0  0  0  0  0  0  0  0
  -21.3354  -26.6534   17.3745 C   0  0  0  0  0  0  0  0  0  0  0  0
  -31.8041  -22.8501   20.8501 C   0  0  0  0  0  0  0  0  0  0  0  0
  -30.8862  -26.5243   21.0210 C   0  0  0  0  0  0  0  0  0  0  0  0
  -30.0220  -27.5051   20.2437 C   0  0  0  0  0  0  0  0  0  1  0  0
  -21.4167  -28.0821   22.1480 C   0  0  1  0  0  0  0  0  0  0  0  0
  -19.8097  -26.1748   19.2933 C   0  0  2  0  0  0  0  0  0  0  0  0
  -20.7945  -28.0540   23.5727 C   0  0  0  0  0  0  0  0  0  0  0  0
  -25.0955  -15.5283   19.9020 N   0  0  0  0  0  0  0  0  0  0  0  0
  -24.2949  -16.6075   19.9278 N   0  0  0  0  0  0  0  0  0  0  0  0
  -23.1769  -29.6666   21.4306 N   0  0  0  0  0  0  0  0  0  0  0  0
  -26.7095  -19.3156   18.7365 N   0  0  0  0  0  0  0  0  0  0  0  0
  -22.1850  -17.3765   20.6812 N   0  0  0  0  0  0  0  0  0  0  0  0
  -22.2778  -13.0755   22.0555 N   0  0  0  0  0  0  0  0  0  0  0  0
  -27.6550  -20.1846   20.7147 N   0  0  0  0  0  0  0  0  0  0  0  0
  -24.6502  -32.8274   22.4961 N   0  0  0  0  0  0  0  0  0  0  0  0
  -31.6510  -24.2496   21.1763 N   0  0  0  0  0  0  0  0  0  0  0  0
  -20.5362  -27.5746   21.1013 N   0  0  0  0  0  0  0  0  0  0  0  0
  -20.4140  -25.6847   18.0222 N   0  3  0  0  0  0  0  0  0  0  0  0
  -21.0138  -14.9882   22.0083 O   0  0  0  0  0  0  0  0  0  0  0  0
  -24.2207  -30.7655   23.4894 O   0  0  0  0  0  0  0  0  0  0  0  0
  -20.9599  -30.3552   21.6471 O   0  0  0  0  0  0  0  0  0  0  0  0
  -30.1954  -24.8106   19.4541 O   0  0  0  0  0  0  0  0  0  0  0  0
  -21.9567  -25.8959   20.3658 O   0  0  0  0  0  0  0  0  0  0  0  0
  -27.7034  -21.4027   18.7410 O   0  0  0  0  0  0  0  0  0  0  0  0
  -26.4384   -9.4554   21.2679 O   0  0  0  0  0  0  0  0  0  0  0  0
  -28.6607  -27.0801   20.2941 O   0  0  0  0  0  0  0  0  0  1  0  0
  -23.0829   -5.1926   20.2818 F   0  0  0  0  0  0  0  0  0  0  0  0
  -24.0905   -9.1394   22.6927 F   0  0  0  0  0  0  0  0  0  0  0  0
  1  2  1  0  0  0  0
  1  5  2  0  0  0  0
  2  6  2  0  0  0  0
  3 10  2  0  0  0  0
  3 18  1  0  0  0  0
  4 11  1  0  0  0  0
  4 18  2  0  0  0  0
  5 20  1  0  0  0  0
  6 22  1  0  0  0  0
  7 12  2  0  0  0  0
  7 21  1  0  0  0  0
  8  9  2  0  0  0  0
  8 24  1  0  0  0  0
  9 25  1  0  0  0  0
 10 27  1  0  0  0  0
 11 27  2  0  0  0  0
 12 28  1  0  0  0  0
 13 14  2  0  0  0  0
 13 29  1  0  0  0  0
 14 30  1  0  0  0  0
 15 23  1  0  0  0  0
 15 28  2  0  0  0  0
 16 24  2  0  0  0  0
 16 26  1  0  0  0  0
 17 30  2  0  0  0  0
 17 31  1  0  0  0  0
 18 32  1  0  0  0  0
 19 32  1  0  0  0  0
 19 33  2  0  0  0  0
 19 34  1  0  0  0  0
 20 22  2  0  0  0  0
 20 40  1  0  0  0  0
 21 23  2  0  0  0  0
 21 41  1  0  0  0  0
 22 49  1  0  0  0  0
 23 42  1  0  0  0  0
 24 58  1  0  0  0  0
 25 26  2  0  0  0  0
 25 52  1  0  0  0  0
 26 70  1  0  0  0  0
 27 81  1  0  0  0  0
 28 82  1  0  0  0  0
 29 31  2  0  0  0  0
 29 81  1  0  0  0  0
 30 83  1  0  0  0  0
 31 84  1  0  0  0  0
 32 64  2  0  0  0  0
 33 65  1  0  0  0  0
 33 68  1  0  0  0  0
 34 69  1  0  0  0  0
 34 75  2  0  0  0  0
 35 50  1  0  0  0  0
 35 71  1  0  0  0  0
 35 76  2  0  0  0  0
 36 61  1  0  0  0  0
 36 66  1  0  0  0  0
 36 77  2  0  0  0  0
 37 59  1  0  0  0  0
 37 72  1  0  0  0  0
 37 78  2  0  0  0  0
 38 62  1  0  0  0  0
 38 73  1  0  0  0  0
 38 79  2  0  0  0  0
 39 67  1  0  0  0  0
 39 70  1  0  0  0  0
 39 80  2  0  0  0  0
 40 43  1  0  0  0  0
 41 50  1  0  0  0  0
 42 66  1  0  0  0  0
 43 45  1  0  0  0  0
 44 46  1  0  0  0  0
 44 47  1  0  0  0  0
 45 49  1  0  0  0  0
 46 51  1  0  0  0  0
 47 67  1  0  0  0  0
 48 51  1  0  0  0  0
 48 67  1  0  0  0  0
 49 71  1  0  0  0  0
 50 66  1  0  0  0  0
 51 65  1  0  0  0  0
 53 62  1  0  0  0  0
 54 63  1  0  0  0  0
 55 63  1  0  0  0  0
 56 63  1  0  0  0  0
 57 74  1  0  0  0  0
 58 72  1  0  0  0  0
 59 60  1  0  0  0  0
 60 82  1  0  0  0  0
 61 63  1  0  0  0  0
 61 73  1  0  0  0  0
 62 74  1  0  0  0  0
 64 65  1  0  0  0  0
M  CHG  1  74   1
M  ISO  4  39 100  60 101  70 100  82 101
M  END
> <Batch ID>
0058

> <Smiles>
CNC(C)C(=O)NC(C(=O)N1Cc2cc([101O:1][101CH2:1]CC(=O)NCc3ccc(C)c([100NH:0][100C:0](=O)N4CCCC(n5nc(-c6ccc(Oc7ccc(F)cc7F)cc6)c(C(N)=O)c5N)C4)c3)ccc2CC1C(=O)NC1CCCc2ccccc21)C(C)(C)C

> <Shape>
0.279

> <Color>
0.094

> <Negative vol penalty>
0.000

$$$$

  -OEChem-04042322583D

 85 93  0     1  0  0  0  0  0999 V2000
  -17.8101  -25.9177   23.2936 C   0  0  0  0  0  0  0  0  0  0  0  0
  -18.9164  -25.7023   22.4781 C   0  0  0  0  0  0  0  0  0  0  0  0
  -22.4866  -24.3263   18.2694 C   0  0  0  0  0  0  0  0  0  0  0  0
  -26.6820  -14.4840   22.7636 C   0  0  0  0  0  0  0  0  0  0  0  0
  -26.9601  -15.2348   20.4841 C   0  0  0  0  0  0  0  0  0  0  0  0
  -17.4019  -27.2190   23.5833 C   0  0  0  0  0  0  0  0  0  0  0  0
  -19.6145  -26.7881   21.9509 C   0  0  0  0  0  0  0  0  0  0  0  0
  -25.6437  -27.1478   20.9383 C   0  0  0  0  0  0  0  0  0  0  0  0
  -23.1034  -24.0772   17.0434 C   0  0  0  0  0  0  0  0  0  0  0  0
  -23.0154  -23.7816   19.4397 C   0  0  0  0  0  0  0  0  0  0  0  0
  -26.3405  -13.2124   22.3031 C   0  0  0  0  0  0  0  0  0  0  0  0
  -26.6187  -13.9632   20.0236 C   0  0  0  0  0  0  0  0  0  0  0  0
  -26.4136  -26.9768   19.7886 C   0  0  0  0  0  0  0  0  0  0  0  0
  -25.7467   -9.6707   21.7383 C   0  0  0  0  0  0  0  0  0  0  0  0
  -26.3270   -8.5733   22.3743 C   0  0  0  0  0  0  0  0  0  0  0  0
  -26.3949  -29.3620   19.4286 C   0  0  0  0  0  0  0  0  0  0  0  0
  -28.5210   -9.3780   21.7613 C   0  0  0  0  0  0  0  0  0  0  0  0
  -26.9917  -15.4953   21.8541 C   0  0  0  0  0  0  0  0  0  0  0  0
  -28.6320  -17.2829   22.6422 C   0  0  0  0  0  0  0  0  0  0  0  0
  -18.1011  -28.3214   23.0672 C   0  0  0  0  0  0  0  0  0  0  0  0
  -25.2338  -28.4283   21.3365 C   0  0  0  0  0  0  0  0  0  0  0  0
  -19.2145  -28.1054   22.2328 C   0  0  0  0  0  0  0  0  0  0  0  0
  -25.6220  -29.5468   20.5852 C   0  0  0  0  0  0  0  0  0  0  0  0
  -24.2489  -23.2832   16.9875 C   0  0  0  0  0  0  0  0  0  0  0  0
  -24.7777  -22.7384   18.1577 C   0  0  0  0  0  0  0  0  0  0  0  0
  -24.1609  -22.9876   19.3838 C   0  0  0  0  0  0  0  0  0  0  0  0
  -26.3089  -12.9520   20.9331 C   0  0  0  0  0  0  0  0  0  0  0  0
  -26.7869  -28.0837   19.0320 C   0  0  0  0  0  0  0  0  0  0  0  0
  -26.5536  -10.6218   21.1137 C   0  0  0  0  0  0  0  0  0  0  0  0
  -27.7141   -8.4269   22.3858 C   0  0  0  0  0  0  0  0  0  0  0  0
  -27.9407  -10.4754   21.1252 C   0  0  0  0  0  0  0  0  0  0  0  0
  -27.3439  -16.8092   22.3292 C   0  0  0  0  0  0  0  0  0  0  0  0
  -28.4321  -18.5809   23.0445 C   0  0  0  0  0  0  0  0  0  0  0  0
  -29.8963  -16.6100   22.5753 C   0  0  0  0  0  0  0  0  0  0  0  0
  -22.4248  -29.8637   21.7279 C   0  0  0  0  0  0  0  0  0  0  0  0
  -24.2575  -32.2717   22.8963 C   0  0  0  0  0  0  0  0  0  0  0  0
  -26.0840  -25.0924   14.9622 C   0  0  0  0  0  0  0  0  0  0  0  0
  -27.3030  -33.8085   22.9955 C   0  0  0  0  0  0  0  0  0  0  0  0
  -24.1754  -22.6078   21.8741 C   0  0  0  0  0  0  0  0  0  0  0  0
  -17.5938  -29.7091   23.3696 C   0  0  0  0  0  0  0  0  0  0  0  0
  -24.4261  -28.5984   22.5939 C   0  0  0  0  0  0  0  0  0  0  0  0
  -25.2248  -30.9447   20.9809 C   0  0  0  0  0  0  0  0  0  0  0  0
  -18.6125  -30.8075   23.0761 C   0  0  0  0  0  0  0  0  0  0  0  0
  -25.1455  -21.4059   25.0822 C   0  0  0  0  0  0  0  0  0  0  0  0
  -19.2538  -30.5893   21.7093 C   0  0  0  0  0  0  0  0  0  0  0  0
  -25.9418  -20.1371   24.7684 C   0  0  0  0  0  0  0  0  0  0  0  0
  -23.9652  -21.5849   24.1290 C   0  0  0  0  0  0  0  0  0  0  0  0
  -25.1026  -20.2643   22.3879 C   0  0  0  0  0  0  0  0  0  0  0  0
  -20.0125  -29.2576   21.6621 C   0  0  1  0  0  0  0  0  0  0  0  0
  -23.6317  -29.9005   22.6223 C   0  0  1  0  0  0  0  0  0  0  0  0
  -26.3399  -20.0751   23.2807 C   0  0  2  0  0  0  0  0  0  0  0  0
  -26.0070  -21.8873   18.0928 C   0  0  0  0  0  0  0  0  0  0  0  0
  -28.4841  -35.7770   24.0091 C   0  0  0  0  0  0  0  0  0  0  0  0
  -22.8685  -34.1248   20.9097 C   0  0  0  0  0  0  0  0  0  0  0  0
  -24.7000  -35.7893   21.2884 C   0  0  0  0  0  0  0  0  0  0  0  0
  -23.2244  -35.1089   23.1811 C   0  0  0  0  0  0  0  0  0  0  0  0
  -29.2341  -32.0686   24.4108 C   0  0  0  0  0  0  0  0  0  0  0  0
  -24.8928  -23.0310   15.6549 C   0  0  0  0  0  0  0  0  0  0  0  0
  -27.4814  -25.6814   14.8876 C   0  0  0  0  0  0  0  0  0  0  0  0
  -27.6223  -26.9548   15.7138 C   0  0  0  0  0  0  0  0  0  0  0  0
  -27.3766  -26.6957   17.1931 C   0  0  0  0  0  0  0  0  0  1  0  0
  -24.9442  -33.4776   22.3020 C   0  0  1  0  0  0  0  0  0  0  0  0
  -28.1448  -34.3021   24.1584 C   0  0  2  0  0  0  0  0  0  0  0  0
  -23.9403  -34.5988   21.9115 C   0  0  0  0  0  0  0  0  0  0  0  0
  -26.3957  -17.7311   22.5166 N   0  0  0  0  0  0  0  0  0  0  0  0
  -27.0887  -18.7971   22.9519 N   0  0  0  0  0  0  0  0  0  0  0  0
  -24.4299  -31.0585   22.2149 N   0  0  0  0  0  0  0  0  0  0  0  0
  -24.4187  -21.5191   22.7381 N   0  0  0  0  0  0  0  0  0  0  0  0
  -29.2762  -19.5469   23.4649 N   0  0  0  0  0  0  0  0  0  0  0  0
  -29.9218  -15.2778   22.1404 N   0  0  0  0  0  0  0  0  0  0  0  0
  -24.6812  -22.4449   20.5848 N   0  0  0  0  0  0  0  0  0  0  0  0
  -21.2856  -29.3769   22.3400 N   0  0  0  0  0  0  0  0  0  0  0  0
  -26.0983  -23.8063   15.4820 N   0  0  0  0  0  0  0  0  0  0  0  0
  -25.9543  -33.8906   23.2703 N   0  0  0  0  0  0  0  0  0  0  0  0
  -29.4185  -33.5327   24.2392 N   0  3  0  0  0  0  0  0  0  0  0  0
  -30.9695  -17.1681   22.9073 O   0  0  0  0  0  0  0  0  0  0  0  0
  -22.5198  -30.2498   20.5688 O   0  0  0  0  0  0  0  0  0  0  0  0
  -23.5985  -32.4000   23.9311 O   0  0  0  0  0  0  0  0  0  0  0  0
  -25.0771  -25.6965   14.6024 O   0  0  0  0  0  0  0  0  0  0  0  0
  -27.7929  -33.3951   21.9469 O   0  0  0  0  0  0  0  0  0  0  0  0
  -23.5872  -23.6220   22.2580 O   0  0  0  0  0  0  0  0  0  0  0  0
  -25.9761  -11.7112   20.4834 O   0  0  0  0  0  0  0  0  0  0  0  0
  -27.5378  -27.9195   17.9090 O   0  0  0  0  0  0  0  0  0  1  0  0
  -28.2712   -7.3737   22.9980 F   0  0  0  0  0  0  0  0  0  0  0  0
  -28.7211  -11.3865   20.5279 F   0  0  0  0  0  0  0  0  0  0  0  0
  1  2  1  0  0  0  0
  1  6  2  0  0  0  0
  2  7  2  0  0  0  0
  3  9  2  0  0  0  0
  3 10  1  0  0  0  0
  4 11  2  0  0  0  0
  4 18  1  0  0  0  0
  5 12  1  0  0  0  0
  5 18  2  0  0  0  0
  6 20  1  0  0  0  0
  7 22  1  0  0  0  0
  8 13  2  0  0  0  0
  8 21  1  0  0  0  0
  9 24  1  0  0  0  0
 10 26  2  0  0  0  0
 11 27  1  0  0  0  0
 12 27  2  0  0  0  0
 13 28  1  0  0  0  0
 14 15  2  0  0  0  0
 14 29  1  0  0  0  0
 15 30  1  0  0  0  0
 16 23  1  0  0  0  0
 16 28  2  0  0  0  0
 17 30  2  0  0  0  0
 17 31  1  0  0  0  0
 18 32  1  0  0  0  0
 19 32  1  0  0  0  0
 19 33  2  0  0  0  0
 19 34  1  0  0  0  0
 20 22  2  0  0  0  0
 20 40  1  0  0  0  0
 21 23  2  0  0  0  0
 21 41  1  0  0  0  0
 22 49  1  0  0  0  0
 23 42  1  0  0  0  0
 24 25  2  0  0  0  0
 24 58  1  0  0  0  0
 25 26  1  0  0  0  0
 25 52  1  0  0  0  0
 26 71  1  0  0  0  0
 27 82  1  0  0  0  0
 28 83  1  0  0  0  0
 29 31  2  0  0  0  0
 29 82  1  0  0  0  0
 30 84  1  0  0  0  0
 31 85  1  0  0  0  0
 32 65  2  0  0  0  0
 33 66  1  0  0  0  0
 33 69  1  0  0  0  0
 34 70  1  0  0  0  0
 34 76  2  0  0  0  0
 35 50  1  0  0  0  0
 35 72  1  0  0  0  0
 35 77  2  0  0  0  0
 36 62  1  0  0  0  0
 36 67  1  0  0  0  0
 36 78  2  0  0  0  0
 37 59  1  0  0  0  0
 37 73  1  0  0  0  0
 37 79  2  0  0  0  0
 38 63  1  0  0  0  0
 38 74  1  0  0  0  0
 38 80  2  0  0  0  0
 39 68  1  0  0  0  0
 39 71  1  0  0  0  0
 39 81  2  0  0  0  0
 40 43  1  0  0  0  0
 41 50  1  0  0  0  0
 42 67  1  0  0  0  0
 43 45  1  0  0  0  0
 44 46  1  0  0  0  0
 44 47  1  0  0  0  0
 45 49  1  0  0  0  0
 46 51  1  0  0  0  0
 47 68  1  0  0  0  0
 48 51  1  0  0  0  0
 48 68  1  0  0  0  0
 49 72  1  0  0  0  0
 50 67  1  0  0  0  0
 51 66  1  0  0  0  0
 53 63  1  0  0  0  0
 54 64  1  0  0  0  0
 55 64  1  0  0  0  0
 56 64  1  0  0  0  0
 57 75  1  0  0  0  0
 58 73  1  0  0  0  0
 59 60  1  0  0  0  0
 60 61  1  0  0  0  0
 61 83  1  0  0  0  0
 62 64  1  0  0  0  0
 62 74  1  0  0  0  0
 63 75  1  0  0  0  0
 65 66  1  0  0  0  0
M  CHG  1  75   1
M  ISO  4  39 100  61 101  71 100  83 101
M  END
> <Batch ID>
0058

> <Smiles>
CNC(C)C(=O)NC(C(=O)N1Cc2cc([101O:1][101CH2:1]CCC(=O)NCc3cccc([100NH:0][100C:0](=O)N4CCCC(n5nc(-c6ccc(Oc7ccc(F)cc7F)cc6)c(C(N)=O)c5N)C4)c3C)ccc2CC1C(=O)NC1CCCc2ccccc21)C(C)(C)C

> <Shape>
0.196

> <Color>
0.104

> <Negative vol penalty>
0.000

$$$$

  -OEChem-04042322583D

 86 95  0     1  0  0  0  0  0999 V2000
  -16.8292  -30.6957   23.2950 C   0  0  0  0  0  0  0  0  0  0  0  0
  -17.8180  -30.8302   22.3256 C   0  0  0  0  0  0  0  0  0  0  0  0
  -26.5204  -12.5217   20.8932 C   0  0  0  0  0  0  0  0  0  0  0  0
  -24.8674  -14.2547   20.5752 C   0  0  0  0  0  0  0  0  0  0  0  0
  -17.1365  -30.1203   24.5272 C   0  0  0  0  0  0  0  0  0  0  0  0
  -19.1149  -30.3905   22.5883 C   0  0  0  0  0  0  0  0  0  0  0  0
  -24.8100  -27.5295   19.3177 C   0  0  0  0  0  0  0  0  0  0  0  0
  -25.5266  -11.6583   21.3541 C   0  0  0  0  0  0  0  0  0  0  0  0
  -23.8735  -13.3913   21.0361 C   0  0  0  0  0  0  0  0  0  0  0  0
  -26.1797  -27.7374   19.1619 C   0  0  0  0  0  0  0  0  0  0  0  0
  -23.0964   -9.7207   20.0226 C   0  0  0  0  0  0  0  0  0  0  0  0
  -23.0949   -8.4142   19.5339 C   0  0  0  0  0  0  0  0  0  0  0  0
  -26.5759  -26.6869   21.2970 C   0  0  0  0  0  0  0  0  0  0  0  0
  -29.8006  -24.5167   17.3309 C   0  0  0  0  0  0  0  0  0  0  0  0
  -30.3353  -23.2940   19.3448 C   0  0  0  0  0  0  0  0  0  0  0  0
  -23.3656   -7.5728   21.7825 C   0  0  0  0  0  0  0  0  0  0  0  0
  -26.1908  -13.8199   20.5038 C   0  0  0  0  0  0  0  0  0  0  0  0
  -27.6485  -14.8803   18.6986 C   0  0  0  0  0  0  0  0  0  0  0  0
  -18.4355  -29.6645   24.8017 C   0  0  0  0  0  0  0  0  0  0  0  0
  -24.3111  -26.9074   20.4712 C   0  0  0  0  0  0  0  0  0  0  0  0
  -19.4401  -29.8097   23.8259 C   0  0  0  0  0  0  0  0  0  0  0  0
  -25.1996  -26.4699   21.4638 C   0  0  0  0  0  0  0  0  0  0  0  0
  -29.5225  -23.3168   16.6762 C   0  0  0  0  0  0  0  0  0  0  0  0
  -30.2070  -24.5053   18.6652 C   0  0  0  0  0  0  0  0  0  0  0  0
  -30.0573  -22.0940   18.6902 C   0  0  0  0  0  0  0  0  0  0  0  0
  -24.2031  -12.0931   21.4255 C   0  0  0  0  0  0  0  0  0  0  0  0
  -27.0627  -27.3187   20.1529 C   0  0  0  0  0  0  0  0  0  0  0  0
  -23.2325   -9.9532   21.3913 C   0  0  0  0  0  0  0  0  0  0  0  0
  -23.2294   -7.3403   20.4138 C   0  0  0  0  0  0  0  0  0  0  0  0
  -23.3671   -8.8793   22.2711 C   0  0  0  0  0  0  0  0  0  0  0  0
  -29.6509  -22.1055   17.3559 C   0  0  0  0  0  0  0  0  0  0  0  0
  -27.2171  -14.7125   20.0281 C   0  0  0  0  0  0  0  0  0  0  0  0
  -28.6332  -15.8347   18.7750 C   0  0  0  0  0  0  0  0  0  0  0  0
  -30.9104  -25.8780   20.6777 C   0  0  0  0  0  0  0  0  0  0  0  0
  -27.1992  -14.2315   17.5016 C   0  0  0  0  0  0  0  0  0  0  0  0
  -22.3600  -27.7789   22.8243 C   0  0  0  0  0  0  0  0  0  0  0  0
  -22.6811  -24.6764   23.7152 C   0  0  0  0  0  0  0  0  0  0  0  0
  -24.5428  -21.8173   23.6362 C   0  0  0  0  0  0  0  0  0  0  0  0
  -30.5813  -20.6795   20.7078 C   0  0  0  0  0  0  0  0  0  0  0  0
  -18.7311  -29.0924   26.1655 C   0  0  0  0  0  0  0  0  0  0  0  0
  -22.8331  -26.6664   20.6120 C   0  0  0  0  0  0  0  0  0  0  0  0
  -24.7166  -25.7789   22.7119 C   0  0  0  0  0  0  0  0  0  0  0  0
  -31.1077  -27.3521   20.9409 C   0  0  0  0  0  0  0  0  0  0  0  0
  -20.0407  -28.3105   26.2273 C   0  0  0  0  0  0  0  0  0  0  0  0
  -31.2340  -27.9454   19.5505 C   0  0  0  0  0  0  0  0  0  0  0  0
  -30.9914  -17.8204   22.7897 C   0  0  0  0  0  0  0  0  0  0  0  0
  -21.1614  -29.0918   25.5486 C   0  0  0  0  0  0  0  0  0  0  0  0
  -30.0815  -16.7707   22.1475 C   0  0  0  0  0  0  0  0  0  0  0  0
  -30.3861  -19.2207   22.7101 C   0  0  0  0  0  0  0  0  0  0  0  0
  -29.0718  -18.5970   20.7219 C   0  0  0  0  0  0  0  0  0  0  0  0
  -20.8528  -29.3222   24.0643 C   0  0  1  0  0  0  0  0  0  0  0  0
  -22.3927  -26.4849   22.0613 C   0  0  1  0  0  0  0  0  0  0  0  0
  -29.6688  -17.1802   20.7200 C   0  0  2  0  0  0  0  0  0  0  0  0
  -30.3604  -27.0395   18.6898 C   0  0  2  0  0  0  0  0  0  0  0  0
  -29.0873  -23.3331   15.2495 C   0  0  0  0  0  0  0  0  0  0  0  0
  -24.5654  -19.4571   24.4886 C   0  0  0  0  0  0  0  0  0  0  0  0
  -23.4977  -25.6843   26.4770 C   0  0  0  0  0  0  0  0  0  0  0  0
  -24.4035  -23.4019   26.9654 C   0  0  0  0  0  0  0  0  0  0  0  0
  -21.9716  -23.7031   26.4986 C   0  0  0  0  0  0  0  0  0  0  0  0
  -24.5146  -20.7038   20.8943 C   0  0  0  0  0  0  0  0  0  0  0  0
  -28.9109  -27.5300   18.6712 C   0  0  0  0  0  0  0  0  0  1  0  0
  -23.6325  -23.9123   24.6040 C   0  0  1  0  0  0  0  0  0  0  0  0
  -24.1639  -20.3763   23.3455 C   0  0  2  0  0  0  0  0  0  0  0  0
  -23.3856  -24.1901   26.1137 C   0  0  0  0  0  0  0  0  0  0  0  0
  -27.8741  -15.4972   20.8863 N   0  0  0  0  0  0  0  0  0  0  0  0
  -28.7283  -16.1673   20.0943 N   0  0  0  0  0  0  0  0  0  0  0  0
  -30.4922  -25.7372   19.3373 N   0  0  0  0  0  0  0  0  0  0  0  0
  -23.2620  -25.5719   22.8061 N   0  0  0  0  0  0  0  0  0  0  0  0
  -30.0235  -19.5414   21.3278 N   0  0  0  0  0  0  0  0  0  0  0  0
  -29.4184  -16.4134   17.8418 N   0  0  0  0  0  0  0  0  0  0  0  0
  -26.1789  -13.2758   17.6022 N   0  0  0  0  0  0  0  0  0  0  0  0
  -30.1887  -20.8648   19.3827 N   0  0  0  0  0  0  0  0  0  0  0  0
  -21.1087  -28.1188   23.3022 N   0  0  0  0  0  0  0  0  0  0  0  0
  -23.5060  -22.5089   24.2262 N   0  0  0  0  0  0  0  0  0  0  0  0
  -24.8385  -19.9038   22.1035 N   0  3  0  0  0  0  0  0  0  0  0  0
  -31.0786  -25.0339   21.5459 O   0  0  0  0  0  0  0  0  0  0  0  0
  -27.6993  -14.4796   16.3783 O   0  0  0  0  0  0  0  0  0  0  0  0
  -23.3937  -28.4207   22.9701 O   0  0  0  0  0  0  0  0  0  0  0  0
  -21.4676  -24.4805   23.8186 O   0  0  0  0  0  0  0  0  0  0  0  0
  -25.6491  -22.2818   23.3702 O   0  0  0  0  0  0  0  0  0  0  0  0
  -31.3718  -21.4190   21.2996 O   0  0  0  0  0  0  0  0  0  0  0  0
  -23.2330  -11.2508   21.8750 O   0  0  0  0  0  0  0  0  0  0  0  0
  -28.4001  -27.5210   20.0036 O   0  0  0  0  0  0  0  0  0  1  0  0
  -23.2264   -6.0857   19.9445 F   0  0  0  0  0  0  0  0  0  0  0  0
  -23.4971   -9.0964   23.5871 F   0  0  0  0  0  0  0  0  0  0  0  0
  -29.3834  -20.9527   16.7239 F   0  0  0  0  0  0  0  0  0  0  0  0
  1  2  1  0  0  0  0
  1  5  2  0  0  0  0
  2  6  2  0  0  0  0
  3  8  2  0  0  0  0
  3 17  1  0  0  0  0
  4  9  1  0  0  0  0
  4 17  2  0  0  0  0
  5 19  1  0  0  0  0
  6 21  1  0  0  0  0
  7 10  2  0  0  0  0
  7 20  1  0  0  0  0
  8 26  1  0  0  0  0
  9 26  2  0  0  0  0
 10 27  1  0  0  0  0
 11 12  2  0  0  0  0
 11 28  1  0  0  0  0
 12 29  1  0  0  0  0
 13 22  1  0  0  0  0
 13 27  2  0  0  0  0
 14 23  2  0  0  0  0
 14 24  1  0  0  0  0
 15 24  2  0  0  0  0
 15 25  1  0  0  0  0
 16 29  2  0  0  0  0
 16 30  1  0  0  0  0
 17 32  1  0  0  0  0
 18 32  1  0  0  0  0
 18 33  2  0  0  0  0
 18 35  1  0  0  0  0
 19 21  2  0  0  0  0
 19 40  1  0  0  0  0
 20 22  2  0  0  0  0
 20 41  1  0  0  0  0
 21 51  1  0  0  0  0
 22 42  1  0  0  0  0
 23 31  1  0  0  0  0
 23 55  1  0  0  0  0
 24 67  1  0  0  0  0
 25 31  2  0  0  0  0
 25 72  1  0  0  0  0
 26 82  1  0  0  0  0
 27 83  1  0  0  0  0
 28 30  2  0  0  0  0
 28 82  1  0  0  0  0
 29 84  1  0  0  0  0
 30 85  1  0  0  0  0
 31 86  1  0  0  0  0
 32 65  2  0  0  0  0
 33 66  1  0  0  0  0
 33 70  1  0  0  0  0
 34 43  1  0  0  0  0
 34 67  1  0  0  0  0
 34 76  2  0  0  0  0
 35 71  1  0  0  0  0
 35 77  2  0  0  0  0
 36 52  1  0  0  0  0
 36 73  1  0  0  0  0
 36 78  2  0  0  0  0
 37 62  1  0  0  0  0
 37 68  1  0  0  0  0
 37 79  2  0  0  0  0
 38 63  1  0  0  0  0
 38 74  1  0  0  0  0
 38 80  2  0  0  0  0
 39 69  1  0  0  0  0
 39 72  1  0  0  0  0
 39 81  2  0  0  0  0
 40 44  1  0  0  0  0
 41 52  1  0  0  0  0
 42 68  1  0  0  0  0
 43 45  1  0  0  0  0
 44 47  1  0  0  0  0
 45 54  1  0  0  0  0
 46 48  1  0  0  0  0
 46 49  1  0  0  0  0
 47 51  1  0  0  0  0
 48 53  1  0  0  0  0
 49 69  1  0  0  0  0
 50 53  1  0  0  0  0
 50 69  1  0  0  0  0
 51 73  1  0  0  0  0
 52 68  1  0  0  0  0
 53 66  1  0  0  0  0
 54 61  1  0  0  0  0
 54 67  1  0  0  0  0
 56 63  1  0  0  0  0
 57 64  1  0  0  0  0
 58 64  1  0  0  0  0
 59 64  1  0  0  0  0
 60 75  1  0  0  0  0
 61 83  1  0  0  0  0
 62 64  1  0  0  0  0
 62 74  1  0  0  0  0
 63 75  1  0  0  0  0
 65 66  1  0  0  0  0
M  CHG  1  75   1
M  ISO  4  39 100  61 101  72 100  83 101
M  END
> <Batch ID>
0058

> <Smiles>
CNC(C)C(=O)NC(C(=O)N1Cc2cc([101O:1][101CH2:1]C3CCC(=O)N3c3cc(C)c(F)c([100NH:0][100C:0](=O)N4CCCC(n5nc(-c6ccc(Oc7ccc(F)cc7F)cc6)c(C(N)=O)c5N)C4)c3)ccc2CC1C(=O)NC1CCCc2ccccc21)C(C)(C)C

> <Shape>
0.254

> <Color>
0.068

> <Negative vol penalty>
0.000

$$$$

  -OEChem-04042322583D

 87 95  0     1  0  0  0  0  0999 V2000
  -26.8249  -34.3747   25.2547 C   0  0  0  0  0  0  0  0  0  0  0  0
  -27.2360  -33.1829   24.6666 C   0  0  0  0  0  0  0  0  0  0  0  0
  -24.0667  -12.3554   21.2045 C   0  0  0  0  0  0  0  0  0  0  0  0
  -22.7996  -14.2011   22.1128 C   0  0  0  0  0  0  0  0  0  0  0  0
  -25.5220  -34.5007   25.7348 C   0  0  0  0  0  0  0  0  0  0  0  0
  -26.3448  -32.1159   24.5592 C   0  0  0  0  0  0  0  0  0  0  0  0
  -26.4827  -29.9210   19.9975 C   0  0  0  0  0  0  0  0  0  0  0  0
  -23.5628  -11.5192   22.2007 C   0  0  0  0  0  0  0  0  0  0  0  0
  -22.2957  -13.3649   23.1090 C   0  0  0  0  0  0  0  0  0  0  0  0
  -27.5425  -29.0523   19.7407 C   0  0  0  0  0  0  0  0  0  0  0  0
  -20.6992   -9.8329   22.8245 C   0  0  0  0  0  0  0  0  0  0  0  0
  -20.2478   -8.5694   22.4433 C   0  0  0  0  0  0  0  0  0  0  0  0
  -26.1020  -27.1710   20.1933 C   0  0  0  0  0  0  0  0  0  0  0  0
  -28.1793  -21.9990   22.3113 C   0  0  0  0  0  0  0  0  0  0  0  0
  -25.7758  -21.7698   22.2236 C   0  0  0  0  0  0  0  0  0  0  0  0
  -21.8750   -7.5463   23.9071 C   0  0  0  0  0  0  0  0  0  0  0  0
  -23.6852  -13.6964   21.1605 C   0  0  0  0  0  0  0  0  0  0  0  0
  -23.6481  -14.8030   18.8624 C   0  0  0  0  0  0  0  0  0  0  0  0
  -24.6114  -33.4380   25.6245 C   0  0  0  0  0  0  0  0  0  0  0  0
  -25.2254  -29.4208   20.3654 C   0  0  0  0  0  0  0  0  0  0  0  0
  -25.0288  -32.2273   25.0394 C   0  0  0  0  0  0  0  0  0  0  0  0
  -25.0272  -28.0354   20.4518 C   0  0  0  0  0  0  0  0  0  0  0  0
  -28.0447  -23.0758   23.1876 C   0  0  0  0  0  0  0  0  0  0  0  0
  -26.7757  -23.4996   23.5820 C   0  0  0  0  0  0  0  0  0  0  0  0
  -27.0448  -21.3460   21.8292 C   0  0  0  0  0  0  0  0  0  0  0  0
  -22.6773  -12.0240   23.1530 C   0  0  0  0  0  0  0  0  0  0  0  0
  -27.3530  -27.6771   19.8414 C   0  0  0  0  0  0  0  0  0  0  0  0
  -21.7386   -9.9531   23.7470 C   0  0  0  0  0  0  0  0  0  0  0  0
  -20.8356   -7.4261   22.9846 C   0  0  0  0  0  0  0  0  0  0  0  0
  -25.6412  -22.8466   23.1001 C   0  0  0  0  0  0  0  0  0  0  0  0
  -22.3265   -8.8098   24.2883 C   0  0  0  0  0  0  0  0  0  0  0  0
  -24.2058  -14.5608   20.1320 C   0  0  0  0  0  0  0  0  0  0  0  0
  -24.5140  -15.6898   18.2705 C   0  0  0  0  0  0  0  0  0  0  0  0
  -22.4540  -14.2737   18.2709 C   0  0  0  0  0  0  0  0  0  0  0  0
  -23.3685  -29.6871   22.9315 C   0  0  0  0  0  0  0  0  0  0  0  0
  -21.2565  -28.0505   21.0920 C   0  0  0  0  0  0  0  0  0  0  0  0
  -30.8878  -24.1467   21.8130 C   0  0  0  0  0  0  0  0  0  0  0  0
  -20.7345  -25.9218   18.4761 C   0  0  0  0  0  0  0  0  0  0  0  0
  -28.3664  -19.7047   20.4488 C   0  0  0  0  0  0  0  0  0  0  0  0
  -23.2276  -33.6050   26.2007 C   0  0  0  0  0  0  0  0  0  0  0  0
  -24.0854  -30.3703   20.6130 C   0  0  0  0  0  0  0  0  0  0  0  0
  -23.6915  -27.4470   20.8233 C   0  0  0  0  0  0  0  0  0  0  0  0
  -22.2330  -32.5558   25.7104 C   0  0  0  0  0  0  0  0  0  0  0  0
  -29.1229  -16.9905   18.2720 C   0  0  0  0  0  0  0  0  0  0  0  0
  -22.8480  -31.1618   25.7839 C   0  0  0  0  0  0  0  0  0  0  0  0
  -27.8944  -16.0845   18.3818 C   0  0  0  0  0  0  0  0  0  0  0  0
  -29.4688  -17.6416   19.6100 C   0  0  0  0  0  0  0  0  0  0  0  0
  -27.1325  -17.4493   20.3676 C   0  0  0  0  0  0  0  0  0  0  0  0
  -24.0838  -31.0558   24.8823 C   0  0  1  0  0  0  0  0  0  0  0  0
  -22.9846  -29.7687   21.4811 C   0  0  1  0  0  0  0  0  0  0  0  0
  -26.7065  -16.8219   19.0303 C   0  0  2  0  0  0  0  0  0  0  0  0
  -26.6101  -24.6496   24.5205 C   0  0  0  0  0  0  0  0  0  0  0  0
  -18.9029  -24.7360   17.2367 C   0  0  0  0  0  0  0  0  0  0  0  0
  -21.0124  -26.0438   23.3775 C   0  0  0  0  0  0  0  0  0  0  0  0
  -19.9603  -24.4422   21.7663 C   0  0  0  0  0  0  0  0  0  0  0  0
  -18.8505  -26.6209   22.2606 C   0  0  0  0  0  0  0  0  0  0  0  0
  -31.1662  -22.2089   23.3788 C   0  0  0  0  0  0  0  0  0  0  0  0
  -21.3985  -27.2999   15.9425 C   0  0  0  0  0  0  0  0  0  0  0  0
  -29.2801  -23.7626   23.6937 C   0  0  0  0  0  0  0  0  0  0  0  0
  -30.0461  -25.3654   21.4578 C   0  0  0  0  0  0  0  0  0  0  0  0
  -30.5836  -26.1164   20.2414 C   0  0  0  0  0  0  0  0  0  0  0  0
  -29.7011  -27.3015   19.8771 C   0  0  0  0  0  0  0  0  0  1  0  0
  -20.9518  -26.5911   20.8551 C   0  0  1  0  0  0  0  0  0  0  0  0
  -19.7710  -25.9828   17.3047 C   0  0  2  0  0  0  0  0  0  0  0  0
  -20.2196  -25.9353   22.0597 C   0  0  0  0  0  0  0  0  0  0  0  0
  -25.3384  -15.2388   20.3356 N   0  0  0  0  0  0  0  0  0  0  0  0
  -25.4995  -15.9158   19.1858 N   0  0  0  0  0  0  0  0  0  0  0  0
  -22.6096  -28.4166   21.0619 N   0  0  0  0  0  0  0  0  0  0  0  0
  -28.2970  -18.3248   20.1624 N   0  0  0  0  0  0  0  0  0  0  0  0
  -24.5209  -16.2904   17.0615 N   0  0  0  0  0  0  0  0  0  0  0  0
  -21.6806  -13.3744   19.0174 N   0  0  0  0  0  0  0  0  0  0  0  0
  -27.1812  -20.2520   20.9392 N   0  0  0  0  0  0  0  0  0  0  0  0
  -23.6884  -30.9060   23.4982 N   0  0  0  0  0  0  0  0  0  0  0  0
  -20.2119  -26.5272   19.5993 N   0  0  0  0  0  0  0  0  0  0  0  0
  -30.4609  -23.4028   22.9183 N   0  0  0  0  0  0  0  0  0  0  0  0
  -20.5212  -26.1036   16.0227 N   0  3  0  0  0  0  0  0  0  0  0  0
  -22.0927  -14.5763   17.1084 O   0  0  0  0  0  0  0  0  0  0  0  0
  -23.3728  -28.5989   23.4951 O   0  0  0  0  0  0  0  0  0  0  0  0
  -20.3277  -28.8379   21.2893 O   0  0  0  0  0  0  0  0  0  0  0  0
  -31.8839  -23.8582   21.1445 O   0  0  0  0  0  0  0  0  0  0  0  0
  -21.8387  -25.3871   18.4032 O   0  0  0  0  0  0  0  0  0  0  0  0
  -29.3926  -20.3587   20.2463 O   0  0  0  0  0  0  0  0  0  0  0  0
  -22.1852  -11.2082   24.1251 O   0  0  0  0  0  0  0  0  0  0  0  0
  -28.3859  -26.8269   19.5920 O   0  0  0  0  0  0  0  0  0  1  0  0
  -20.4009   -6.2129   22.6195 F   0  0  0  0  0  0  0  0  0  0  0  0
  -24.4172  -23.2444   23.4749 F   0  0  0  0  0  0  0  0  0  0  0  0
  -23.3245   -8.9190   25.1758 F   0  0  0  0  0  0  0  0  0  0  0  0
  1  2  1  0  0  0  0
  1  5  2  0  0  0  0
  2  6  2  0  0  0  0
  3  8  2  0  0  0  0
  3 17  1  0  0  0  0
  4  9  1  0  0  0  0
  4 17  2  0  0  0  0
  5 19  1  0  0  0  0
  6 21  1  0  0  0  0
  7 10  2  0  0  0  0
  7 20  1  0  0  0  0
  8 26  1  0  0  0  0
  9 26  2  0  0  0  0
 10 27  1  0  0  0  0
 11 12  2  0  0  0  0
 11 28  1  0  0  0  0
 12 29  1  0  0  0  0
 13 22  1  0  0  0  0
 13 27  2  0  0  0  0
 14 23  1  0  0  0  0
 14 25  2  0  0  0  0
 15 25  1  0  0  0  0
 15 30  2  0  0  0  0
 16 29  2  0  0  0  0
 16 31  1  0  0  0  0
 17 32  1  0  0  0  0
 18 32  1  0  0  0  0
 18 33  2  0  0  0  0
 18 34  1  0  0  0  0
 19 21  2  0  0  0  0
 19 40  1  0  0  0  0
 20 22  2  0  0  0  0
 20 41  1  0  0  0  0
 21 49  1  0  0  0  0
 22 42  1  0  0  0  0
 23 24  2  0  0  0  0
 23 59  1  0  0  0  0
 24 30  1  0  0  0  0
 24 52  1  0  0  0  0
 25 72  1  0  0  0  0
 26 83  1  0  0  0  0
 27 84  1  0  0  0  0
 28 31  2  0  0  0  0
 28 83  1  0  0  0  0
 29 85  1  0  0  0  0
 30 86  1  0  0  0  0
 31 87  1  0  0  0  0
 32 66  2  0  0  0  0
 33 67  1  0  0  0  0
 33 70  1  0  0  0  0
 34 71  1  0  0  0  0
 34 77  2  0  0  0  0
 35 50  1  0  0  0  0
 35 73  1  0  0  0  0
 35 78  2  0  0  0  0
 36 63  1  0  0  0  0
 36 68  1  0  0  0  0
 36 79  2  0  0  0  0
 37 60  1  0  0  0  0
 37 75  1  0  0  0  0
 37 80  2  0  0  0  0
 38 64  1  0  0  0  0
 38 74  1  0  0  0  0
 38 81  2  0  0  0  0
 39 69  1  0  0  0  0
 39 72  1  0  0  0  0
 39 82  2  0  0  0  0
 40 43  1  0  0  0  0
 41 50  1  0  0  0  0
 42 68  1  0  0  0  0
 43 45  1  0  0  0  0
 44 46  1  0  0  0  0
 44 47  1  0  0  0  0
 45 49  1  0  0  0  0
 46 51  1  0  0  0  0
 47 69  1  0  0  0  0
 48 51  1  0  0  0  0
 48 69  1  0  0  0  0
 49 73  1  0  0  0  0
 50 68  1  0  0  0  0
 51 67  1  0  0  0  0
 53 64  1  0  0  0  0
 54 65  1  0  0  0  0
 55 65  1  0  0  0  0
 56 65  1  0  0  0  0
 57 75  1  0  0  0  0
 58 76  1  0  0  0  0
 59 75  1  0  0  0  0
 60 61  1  0  0  0  0
 61 62  1  0  0  0  0
 62 84  1  0  0  0  0
 63 65  1  0  0  0  0
 63 74  1  0  0  0  0
 64 76  1  0  0  0  0
 66 67  1  0  0  0  0
M  CHG  1  76   1
M  ISO  4  39 100  62 101  72 100  84 101
M  END
> <Batch ID>
0058

> <Smiles>
CNC(C)C(=O)NC(C(=O)N1Cc2cc([101O:1][101CH2:1]CCC(=O)N(C)Cc3cc([100NH:0][100C:0](=O)N4CCCC(n5nc(-c6ccc(Oc7ccc(F)cc7F)cc6)c(C(N)=O)c5N)C4)cc(F)c3C)ccc2CC1C(=O)NC1CCCc2ccccc21)C(C)(C)C

> <Shape>
0.244

> <Color>
0.092

> <Negative vol penalty>
0.000

$$$$

  -OEChem-04042322583D

 87 95  0     1  0  0  0  0  0999 V2000
  -19.8037  -10.5185   21.5460 C   0  0  0  0  0  0  0  0  0  0  0  0
  -20.5861  -11.5133   22.1237 C   0  0  0  0  0  0  0  0  0  0  0  0
  -20.0311  -29.1453   21.4522 C   0  0  0  0  0  0  0  0  0  0  0  0
  -20.7896  -27.6446   23.1871 C   0  0  0  0  0  0  0  0  0  0  0  0
  -20.4044   -9.3661   21.0411 C   0  0  0  0  0  0  0  0  0  0  0  0
  -21.9696  -11.3557   22.1978 C   0  0  0  0  0  0  0  0  0  0  0  0
  -24.4768  -15.5463   20.8568 C   0  0  0  0  0  0  0  0  0  0  0  0
  -18.7203  -28.7115   21.6501 C   0  0  0  0  0  0  0  0  0  0  0  0
  -19.4787  -27.2109   23.3850 C   0  0  0  0  0  0  0  0  0  0  0  0
  -24.5506  -16.5726   21.7975 C   0  0  0  0  0  0  0  0  0  0  0  0
  -16.2169  -29.2715   23.8529 C   0  0  0  0  0  0  0  0  0  0  0  0
  -15.2158  -30.2408   23.9149 C   0  0  0  0  0  0  0  0  0  0  0  0
  -26.7830  -15.8690   22.3811 C   0  0  0  0  0  0  0  0  0  0  0  0
  -27.2957  -25.0348   24.4629 C   0  0  0  0  0  0  0  0  0  0  0  0
  -28.0218  -27.2181   23.7260 C   0  0  0  0  0  0  0  0  0  0  0  0
  -14.1222  -29.2330   22.0108 C   0  0  0  0  0  0  0  0  0  0  0  0
  -21.0658  -28.6118   22.2207 C   0  0  0  0  0  0  0  0  0  0  0  0
  -23.0679  -30.1304   22.6601 C   0  0  0  0  0  0  0  0  0  0  0  0
  -21.7969   -9.1986   21.1003 C   0  0  0  0  0  0  0  0  0  0  0  0
  -25.5532  -14.6654   20.6785 C   0  0  0  0  0  0  0  0  0  0  0  0
  -22.5893  -10.1993   21.6944 C   0  0  0  0  0  0  0  0  0  0  0  0
  -26.7213  -14.8339   21.4357 C   0  0  0  0  0  0  0  0  0  0  0  0
  -28.6526  -25.2495   22.4756 C   0  0  0  0  0  0  0  0  0  0  0  0
  -27.9582  -24.4502   23.3837 C   0  0  0  0  0  0  0  0  0  0  0  0
  -28.6844  -26.6335   22.6467 C   0  0  0  0  0  0  0  0  0  0  0  0
  -18.4441  -27.7443   22.6165 C   0  0  0  0  0  0  0  0  0  0  0  0
  -25.7027  -16.7323   22.5619 C   0  0  0  0  0  0  0  0  0  0  0  0
  -16.1708  -28.2830   22.8698 C   0  0  0  0  0  0  0  0  0  0  0  0
  -14.1684  -30.2215   22.9939 C   0  0  0  0  0  0  0  0  0  0  0  0
  -15.1234  -28.2638   21.9487 C   0  0  0  0  0  0  0  0  0  0  0  0
  -27.3274  -26.4188   24.6341 C   0  0  0  0  0  0  0  0  0  0  0  0
  -22.4202  -29.0590   22.0163 C   0  0  0  0  0  0  0  0  0  0  0  0
  -24.3306  -30.1427   22.1199 C   0  0  0  0  0  0  0  0  0  0  0  0
  -31.1138  -29.0881   21.2762 C   0  0  0  0  0  0  0  0  0  0  0  0
  -27.4574  -20.7332   23.5443 C   0  0  0  0  0  0  0  0  0  0  0  0
  -26.9125  -19.6946   24.1926 C   0  0  0  0  0  0  0  0  0  0  0  0
  -30.4432  -28.2984   22.1179 C   0  0  0  0  0  0  0  0  0  0  0  0
  -22.5725  -31.0336   23.6573 C   0  0  0  0  0  0  0  0  0  0  0  0
  -27.2667  -22.1259   24.0479 C   0  0  0  0  0  0  0  0  0  0  0  0
  -25.9695  -11.5332   21.0249 C   0  0  0  0  0  0  0  0  0  0  0  0
  -28.8768  -12.1710   19.7352 C   0  0  0  0  0  0  0  0  0  0  0  0
  -31.3489  -14.4492   19.1476 C   0  0  0  0  0  0  0  0  0  0  0  0
  -28.9122  -27.6008   20.3873 C   0  0  0  0  0  0  0  0  0  0  0  0
  -22.3962   -7.9145   20.5839 C   0  0  0  0  0  0  0  0  0  0  0  0
  -25.4680  -13.5798   19.6408 C   0  0  0  0  0  0  0  0  0  0  0  0
  -27.9124  -13.9274   21.2684 C   0  0  0  0  0  0  0  0  0  0  0  0
  -23.9048   -7.9919   20.3634 C   0  0  0  0  0  0  0  0  0  0  0  0
  -26.2431  -27.6944   18.1388 C   0  0  0  0  0  0  0  0  0  0  0  0
  -24.5874   -8.6383   21.5647 C   0  0  0  0  0  0  0  0  0  0  0  0
  -25.0564  -28.1392   18.9931 C   0  0  0  0  0  0  0  0  0  0  0  0
  -27.1309  -26.7180   18.9018 C   0  0  0  0  0  0  0  0  0  0  0  0
  -26.4565  -27.7008   21.0704 C   0  0  0  0  0  0  0  0  0  0  0  0
  -24.0957  -10.0761   21.7709 C   0  0  1  0  0  0  0  0  0  0  0  0
  -26.4280  -12.4240   19.9051 C   0  0  1  0  0  0  0  0  0  0  0  0
  -25.5290  -28.6977   20.3469 C   0  0  2  0  0  0  0  0  0  0  0  0
  -29.3639  -24.6210   21.3175 C   0  0  0  0  0  0  0  0  0  0  0  0
  -33.6203  -14.6660   18.1030 C   0  0  0  0  0  0  0  0  0  0  0  0
  -30.1143  -10.7546   22.1378 C   0  0  0  0  0  0  0  0  0  0  0  0
  -32.3046  -11.8126   21.5453 C   0  0  0  0  0  0  0  0  0  0  0  0
  -31.2075  -10.2420   19.9477 C   0  0  0  0  0  0  0  0  0  0  0  0
  -30.3884  -16.4581   17.1981 C   0  0  0  0  0  0  0  0  0  0  0  0
  -27.0695  -18.2767   23.7462 C   0  0  0  0  0  0  0  0  0  1  0  0
  -30.2307  -12.5494   20.2855 C   0  0  1  0  0  0  0  0  0  0  0  0
  -32.1205  -14.7957   17.8871 C   0  0  2  0  0  0  0  0  0  0  0  0
  -30.9413  -11.3557   20.9838 C   0  0  0  0  0  0  0  0  0  0  0  0
  -23.2064  -28.4361   21.1344 N   0  0  0  0  0  0  0  0  0  0  0  0
  -24.3612  -29.1182   21.2201 N   0  0  0  0  0  0  0  0  0  0  0  0
  -27.7782  -12.8771   20.2454 N   0  0  0  0  0  0  0  0  0  0  0  0
  -27.5546  -27.2831   20.1834 N   0  0  0  0  0  0  0  0  0  0  0  0
  -25.4067  -30.9300   22.3314 N   0  0  0  0  0  0  0  0  0  0  0  0
  -21.2519  -30.8800   24.1009 N   0  0  0  0  0  0  0  0  0  0  0  0
  -27.9130  -23.0428   23.2292 N   0  0  0  0  0  0  0  0  0  0  0  0
  -24.7258  -10.9669   20.8202 N   0  0  0  0  0  0  0  0  0  0  0  0
  -30.9789  -13.1211   19.1712 N   0  0  0  0  0  0  0  0  0  0  0  0
  -29.3980  -27.4828   21.7155 N   0  0  0  0  0  0  0  0  0  0  0  0
  -31.8255  -16.1949   17.4672 N   0  3  0  0  0  0  0  0  0  0  0  0
  -23.2747  -31.9599   24.1288 O   0  0  0  0  0  0  0  0  0  0  0  0
  -26.6123  -22.3530   25.0587 O   0  0  0  0  0  0  0  0  0  0  0  0
  -26.6914  -11.3704   22.0017 O   0  0  0  0  0  0  0  0  0  0  0  0
  -28.7976  -11.2866   18.8789 O   0  0  0  0  0  0  0  0  0  0  0  0
  -31.1025  -15.2733   20.0255 O   0  0  0  0  0  0  0  0  0  0  0  0
  -29.6480  -27.9444   19.4531 O   0  0  0  0  0  0  0  0  0  0  0  0
  -17.1651  -27.3210   22.8100 O   0  0  0  0  0  0  0  0  0  0  0  0
  -25.7771  -17.7328   23.4813 O   0  0  0  0  0  0  0  0  0  1  0  0
  -13.2063  -31.1514   23.0545 F   0  0  0  0  0  0  0  0  0  0  0  0
  -15.0731  -27.3160   21.0027 F   0  0  0  0  0  0  0  0  0  0  0  0
  -26.5064  -27.1398   25.9639 Cl  0  0  0  0  0  0  0  0  0  0  0  0
  1  2  1  0  0  0  0
  1  5  2  0  0  0  0
  2  6  2  0  0  0  0
  3  8  2  0  0  0  0
  3 17  1  0  0  0  0
  4  9  1  0  0  0  0
  4 17  2  0  0  0  0
  5 19  1  0  0  0  0
  6 21  1  0  0  0  0
  7 10  2  0  0  0  0
  7 20  1  0  0  0  0
  8 26  1  0  0  0  0
  9 26  2  0  0  0  0
 10 27  1  0  0  0  0
 11 12  2  0  0  0  0
 11 28  1  0  0  0  0
 12 29  1  0  0  0  0
 13 22  1  0  0  0  0
 13 27  2  0  0  0  0
 14 24  2  0  0  0  0
 14 31  1  0  0  0  0
 15 25  1  0  0  0  0
 15 31  2  0  0  0  0
 16 29  2  0  0  0  0
 16 30  1  0  0  0  0
 17 32  1  0  0  0  0
 18 32  1  0  0  0  0
 18 33  2  0  0  0  0
 18 38  1  0  0  0  0
 19 21  2  0  0  0  0
 19 44  1  0  0  0  0
 20 22  2  0  0  0  0
 20 45  1  0  0  0  0
 21 53  1  0  0  0  0
 22 46  1  0  0  0  0
 23 24  1  0  0  0  0
 23 25  2  0  0  0  0
 23 56  1  0  0  0  0
 24 72  1  0  0  0  0
 25 75  1  0  0  0  0
 26 83  1  0  0  0  0
 27 84  1  0  0  0  0
 28 30  2  0  0  0  0
 28 83  1  0  0  0  0
 29 85  1  0  0  0  0
 30 86  1  0  0  0  0
 31 87  1  0  0  0  0
 32 66  2  0  0  0  0
 33 67  1  0  0  0  0
 33 70  1  0  0  0  0
 34 37  2  0  0  0  0
 35 36  2  0  0  0  0
 35 39  1  0  0  0  0
 36 62  1  0  0  0  0
 37 75  1  0  0  0  0
 38 71  1  0  0  0  0
 38 77  2  0  0  0  0
 39 72  1  0  0  0  0
 39 78  2  0  0  0  0
 40 54  1  0  0  0  0
 40 73  1  0  0  0  0
 40 79  2  0  0  0  0
 41 63  1  0  0  0  0
 41 68  1  0  0  0  0
 41 80  2  0  0  0  0
 42 64  1  0  0  0  0
 42 74  1  0  0  0  0
 42 81  2  0  0  0  0
 43 69  1  0  0  0  0
 43 75  1  0  0  0  0
 43 82  2  0  0  0  0
 44 47  1  0  0  0  0
 45 54  1  0  0  0  0
 46 68  1  0  0  0  0
 47 49  1  0  0  0  0
 48 50  1  0  0  0  0
 48 51  1  0  0  0  0
 49 53  1  0  0  0  0
 50 55  1  0  0  0  0
 51 69  1  0  0  0  0
 52 55  1  0  0  0  0
 52 69  1  0  0  0  0
 53 73  1  0  0  0  0
 54 68  1  0  0  0  0
 55 67  1  0  0  0  0
 57 64  1  0  0  0  0
 58 65  1  0  0  0  0
 59 65  1  0  0  0  0
 60 65  1  0  0  0  0
 61 76  1  0  0  0  0
 62 84  1  0  0  0  0
 63 65  1  0  0  0  0
 63 74  1  0  0  0  0
 64 76  1  0  0  0  0
 66 67  1  0  0  0  0
M  CHG  1  76   1
M  ISO  4  43 100  62 101  75 100  84 101
M  END
> <Batch ID>
0058

> <Smiles>
C=C[100N:0](c1cc(Cl)cc(NC(=O)C=C[101CH2:1][101O:1]c2ccc3c(c2)CN(C(=O)C(NC(=O)C(C)NC)C(C)(C)C)C(C(=O)NC2CCCc4ccccc42)C3)c1C)[100C:0](=O)N1CCCC(n2nc(-c3ccc(Oc4ccc(F)cc4F)cc3)c(C(N)=O)c2N)C1

> <Shape>
0.267

> <Color>
0.069

> <Negative vol penalty>
0.000

$$$$

  -OEChem-04042322583D

 83 91  0     1  0  0  0  0  0999 V2000
  -32.2470  -25.9867   17.7482 C   0  0  0  0  0  0  0  0  0  0  0  0
  -31.0365  -25.7243   18.3816 C   0  0  0  0  0  0  0  0  0  0  0  0
  -24.8885   -8.7085   21.4056 C   0  0  0  0  0  0  0  0  0  0  0  0
  -23.4009   -9.7424   19.8071 C   0  0  0  0  0  0  0  0  0  0  0  0
  -33.0842  -26.9897   18.2351 C   0  0  0  0  0  0  0  0  0  0  0  0
  -30.6629  -26.4640   19.5031 C   0  0  0  0  0  0  0  0  0  0  0  0
  -25.8248  -27.9493   19.3273 C   0  0  0  0  0  0  0  0  0  0  0  0
  -22.0494  -18.7122   18.5760 C   0  0  0  0  0  0  0  0  0  0  0  0
  -23.0725  -17.8186   18.8928 C   0  0  0  0  0  0  0  0  0  0  0  0
  -23.9192   -7.7449   21.6843 C   0  0  0  0  0  0  0  0  0  0  0  0
  -22.4317   -8.7788   20.0857 C   0  0  0  0  0  0  0  0  0  0  0  0
  -24.8549  -26.9980   19.6407 C   0  0  0  0  0  0  0  0  0  0  0  0
  -21.0810   -7.5216   23.5061 C   0  0  0  0  0  0  0  0  0  0  0  0
  -20.8438   -7.2104   24.8449 C   0  0  0  0  0  0  0  0  0  0  0  0
  -24.6728  -27.9238   21.8608 C   0  0  0  0  0  0  0  0  0  0  0  0
  -23.6472  -19.1596   20.8186 C   0  0  0  0  0  0  0  0  0  0  0  0
  -21.4629   -4.9139   24.4207 C   0  0  0  0  0  0  0  0  0  0  0  0
  -24.6293   -9.7073   20.4670 C   0  0  0  0  0  0  0  0  0  0  0  0
  -26.6376  -10.6373   19.1984 C   0  0  0  0  0  0  0  0  0  0  0  0
  -32.7163  -27.7486   19.3573 C   0  0  0  0  0  0  0  0  0  0  0  0
  -26.2345  -28.8897   20.2834 C   0  0  0  0  0  0  0  0  0  0  0  0
  -31.4966  -27.4772   20.0063 C   0  0  0  0  0  0  0  0  0  0  0  0
  -25.6462  -28.8876   21.5562 C   0  0  0  0  0  0  0  0  0  0  0  0
  -21.8252  -19.8295   19.3804 C   0  0  0  0  0  0  0  0  0  0  0  0
  -22.6241  -20.0532   20.5017 C   0  0  0  0  0  0  0  0  0  0  0  0
  -23.8714  -18.0423   20.0141 C   0  0  0  0  0  0  0  0  0  0  0  0
  -22.6909   -7.7800   21.0243 C   0  0  0  0  0  0  0  0  0  0  0  0
  -24.2808  -26.9834   20.9085 C   0  0  0  0  0  0  0  0  0  0  0  0
  -21.5091   -6.5290   22.6245 C   0  0  0  0  0  0  0  0  0  0  0  0
  -21.0347   -5.9066   25.3022 C   0  0  0  0  0  0  0  0  0  0  0  0
  -21.7001   -5.2251   23.0819 C   0  0  0  0  0  0  0  0  0  0  0  0
  -25.6299  -10.7033   20.1792 C   0  0  0  0  0  0  0  0  0  0  0  0
  -27.3207  -11.8218   19.3276 C   0  0  0  0  0  0  0  0  0  0  0  0
  -26.9300   -9.5981   18.2548 C   0  0  0  0  0  0  0  0  0  0  0  0
  -28.9833  -29.5677   21.7285 C   0  0  0  0  0  0  0  0  0  0  0  0
  -27.2869  -32.0560   22.9339 C   0  0  0  0  0  0  0  0  0  0  0  0
  -22.8370  -23.6959   21.4141 C   0  0  0  0  0  0  0  0  0  0  0  0
  -24.2408  -33.3614   23.7489 C   0  0  0  0  0  0  0  0  0  0  0  0
  -25.7927  -17.2086   21.4140 C   0  0  0  0  0  0  0  0  0  0  0  0
  -33.6758  -28.7906   19.8753 C   0  0  0  0  0  0  0  0  0  0  0  0
  -27.2625  -29.9262   19.9211 C   0  0  0  0  0  0  0  0  0  0  0  0
  -26.0366  -29.8884   22.6119 C   0  0  0  0  0  0  0  0  0  0  0  0
  -33.0347  -29.7808   20.8443 C   0  0  0  0  0  0  0  0  0  0  0  0
  -28.4587  -15.1534   22.5742 C   0  0  0  0  0  0  0  0  0  0  0  0
  -32.1904  -29.0443   21.8794 C   0  0  0  0  0  0  0  0  0  0  0  0
  -28.1307  -13.7743   21.9973 C   0  0  0  0  0  0  0  0  0  0  0  0
  -27.1980  -15.9060   22.9962 C   0  0  0  0  0  0  0  0  0  0  0  0
  -25.8363  -14.6371   21.3823 C   0  0  0  0  0  0  0  0  0  0  0  0
  -31.0450  -28.2748   21.2105 C   0  0  1  0  0  0  0  0  0  0  0  0
  -27.9750  -30.5114   21.1366 C   0  0  1  0  0  0  0  0  0  0  0  0
  -27.0699  -13.8673   20.8831 C   0  0  2  0  0  0  0  0  0  0  0  0
  -20.7244  -20.7725   19.0206 C   0  0  0  0  0  0  0  0  0  0  0  0
  -23.1760  -35.4004   24.7519 C   0  0  0  0  0  0  0  0  0  0  0  0
  -28.1564  -31.1407   25.7117 C   0  0  0  0  0  0  0  0  0  0  0  0
  -26.3469  -32.5777   26.6754 C   0  0  0  0  0  0  0  0  0  0  0  0
  -28.1997  -33.6175   25.3683 C   0  0  0  0  0  0  0  0  0  0  0  0
  -22.7224  -33.9288   21.2728 C   0  0  0  0  0  0  0  0  0  0  0  0
  -22.4001  -21.2477   21.3833 C   0  0  0  0  0  0  0  0  0  0  0  0
  -23.4185  -24.7958   20.5519 C   0  0  0  0  0  0  0  0  0  1  0  0
  -26.4323  -32.2735   24.1592 C   0  0  1  0  0  0  0  0  0  0  0  0
  -23.6178  -34.7168   23.4673 C   0  0  2  0  0  0  0  0  0  0  0  0
  -27.2777  -32.3821   25.4596 C   0  0  0  0  0  0  0  0  0  0  0  0
  -25.6660  -11.8398   20.8799 N   0  0  0  0  0  0  0  0  0  0  0  0
  -26.7048  -12.4988   20.3388 N   0  0  0  0  0  0  0  0  0  0  0  0
  -27.0506  -30.8778   22.2115 N   0  0  0  0  0  0  0  0  0  0  0  0
  -26.2407  -15.9578   21.8891 N   0  0  0  0  0  0  0  0  0  0  0  0
  -28.3822  -12.3399   18.6739 N   0  0  0  0  0  0  0  0  0  0  0  0
  -26.1288   -8.4482   18.2577 N   0  0  0  0  0  0  0  0  0  0  0  0
  -24.9095  -17.1338   20.3375 N   0  0  0  0  0  0  0  0  0  0  0  0
  -29.9737  -29.1775   20.8475 N   0  0  0  0  0  0  0  0  0  0  0  0
  -22.8910  -22.4648   20.7795 N   0  0  0  0  0  0  0  0  0  0  0  0
  -25.6107  -33.4465   23.8809 N   0  0  0  0  0  0  0  0  0  0  0  0
  -22.4284  -34.5662   22.5820 N   0  3  0  0  0  0  0  0  0  0  0  0
  -27.8840   -9.6796   17.4444 O   0  0  0  0  0  0  0  0  0  0  0  0
  -28.8718  -29.2204   22.8984 O   0  0  0  0  0  0  0  0  0  0  0  0
  -28.1280  -32.9037   22.6250 O   0  0  0  0  0  0  0  0  0  0  0  0
  -22.3794  -23.9020   22.5349 O   0  0  0  0  0  0  0  0  0  0  0  0
  -23.5782  -32.3309   23.8461 O   0  0  0  0  0  0  0  0  0  0  0  0
  -26.1862  -18.2688   21.9070 O   0  0  0  0  0  0  0  0  0  0  0  0
  -21.7450   -6.8397   21.2958 O   0  0  0  0  0  0  0  0  0  0  0  0
  -23.3344  -26.0555   21.2172 O   0  0  0  0  0  0  0  0  0  1  0  0
  -20.8083   -5.6082   26.5883 F   0  0  0  0  0  0  0  0  0  0  0  0
  -22.1124   -4.2675   22.2400 F   0  0  0  0  0  0  0  0  0  0  0  0
  1  2  1  0  0  0  0
  1  5  2  0  0  0  0
  2  6  2  0  0  0  0
  3 10  2  0  0  0  0
  3 18  1  0  0  0  0
  4 11  1  0  0  0  0
  4 18  2  0  0  0  0
  5 20  1  0  0  0  0
  6 22  1  0  0  0  0
  7 12  2  0  0  0  0
  7 21  1  0  0  0  0
  8  9  2  0  0  0  0
  8 24  1  0  0  0  0
  9 26  1  0  0  0  0
 10 27  1  0  0  0  0
 11 27  2  0  0  0  0
 12 28  1  0  0  0  0
 13 14  2  0  0  0  0
 13 29  1  0  0  0  0
 14 30  1  0  0  0  0
 15 23  1  0  0  0  0
 15 28  2  0  0  0  0
 16 25  1  0  0  0  0
 16 26  2  0  0  0  0
 17 30  2  0  0  0  0
 17 31  1  0  0  0  0
 18 32  1  0  0  0  0
 19 32  1  0  0  0  0
 19 33  2  0  0  0  0
 19 34  1  0  0  0  0
 20 22  2  0  0  0  0
 20 40  1  0  0  0  0
 21 23  2  0  0  0  0
 21 41  1  0  0  0  0
 22 49  1  0  0  0  0
 23 42  1  0  0  0  0
 24 25  2  0  0  0  0
 24 52  1  0  0  0  0
 25 58  1  0  0  0  0
 26 69  1  0  0  0  0
 27 80  1  0  0  0  0
 28 81  1  0  0  0  0
 29 31  2  0  0  0  0
 29 80  1  0  0  0  0
 30 82  1  0  0  0  0
 31 83  1  0  0  0  0
 32 63  2  0  0  0  0
 33 64  1  0  0  0  0
 33 67  1  0  0  0  0
 34 68  1  0  0  0  0
 34 74  2  0  0  0  0
 35 50  1  0  0  0  0
 35 70  1  0  0  0  0
 35 75  2  0  0  0  0
 36 60  1  0  0  0  0
 36 65  1  0  0  0  0
 36 76  2  0  0  0  0
 37 59  1  0  0  0  0
 37 71  1  0  0  0  0
 37 77  2  0  0  0  0
 38 61  1  0  0  0  0
 38 72  1  0  0  0  0
 38 78  2  0  0  0  0
 39 66  1  0  0  0  0
 39 69  1  0  0  0  0
 39 79  2  0  0  0  0
 40 43  1  0  0  0  0
 41 50  1  0  0  0  0
 42 65  1  0  0  0  0
 43 45  1  0  0  0  0
 44 46  1  0  0  0  0
 44 47  1  0  0  0  0
 45 49  1  0  0  0  0
 46 51  1  0  0  0  0
 47 66  1  0  0  0  0
 48 51  1  0  0  0  0
 48 66  1  0  0  0  0
 49 70  1  0  0  0  0
 50 65  1  0  0  0  0
 51 64  1  0  0  0  0
 53 61  1  0  0  0  0
 54 62  1  0  0  0  0
 55 62  1  0  0  0  0
 56 62  1  0  0  0  0
 57 73  1  0  0  0  0
 58 71  1  0  0  0  0
 59 81  1  0  0  0  0
 60 62  1  0  0  0  0
 60 72  1  0  0  0  0
 61 73  1  0  0  0  0
 63 64  1  0  0  0  0
M  CHG  1  73   1
M  ISO  4  39 100  59 101  69 100  81 101
M  END
> <Batch ID>
0058

> <Smiles>
CNC(C)C(=O)NC(C(=O)N1Cc2cc([101O:1][101CH2:1]C(=O)NCc3cc([100NH:0][100C:0](=O)N4CCCC(n5nc(-c6ccc(Oc7ccc(F)cc7F)cc6)c(C(N)=O)c5N)C4)ccc3C)ccc2CC1C(=O)NC1CCCc2ccccc21)C(C)(C)C

> <Shape>
0.244

> <Color>
0.096

> <Negative vol penalty>
0.000

$$$$

  -OEChem-04042322583D

 84 92  0     1  0  0  0  0  0999 V2000
  -21.4267  -25.8143   17.1290 C   0  0  0  0  0  0  0  0  0  0  0  0
  -22.5908  -25.5785   17.8534 C   0  0  0  0  0  0  0  0  0  0  0  0
  -23.1656   -9.7225   20.3651 C   0  0  0  0  0  0  0  0  0  0  0  0
  -23.7239  -10.2471   22.6564 C   0  0  0  0  0  0  0  0  0  0  0  0
  -20.9171  -27.1084   17.0325 C   0  0  0  0  0  0  0  0  0  0  0  0
  -23.2465  -26.6371   18.4810 C   0  0  0  0  0  0  0  0  0  0  0  0
  -24.6784  -25.5084   23.2055 C   0  0  0  0  0  0  0  0  0  0  0  0
  -31.0902  -19.2113   19.6883 C   0  0  0  0  0  0  0  0  0  0  0  0
  -29.3075  -19.7004   21.2440 C   0  0  0  0  0  0  0  0  0  0  0  0
  -30.9581  -17.8506   19.9647 C   0  0  0  0  0  0  0  0  0  0  0  0
  -29.1754  -18.3396   21.5204 C   0  0  0  0  0  0  0  0  0  0  0  0
  -22.4315   -8.6179   20.7968 C   0  0  0  0  0  0  0  0  0  0  0  0
  -22.9897   -9.1424   23.0882 C   0  0  0  0  0  0  0  0  0  0  0  0
  -25.8203  -24.7224   23.3541 C   0  0  0  0  0  0  0  0  0  0  0  0
  -23.4094   -5.7932   23.2812 C   0  0  0  0  0  0  0  0  0  0  0  0
  -23.9855   -4.9702   24.2488 C   0  0  0  0  0  0  0  0  0  0  0  0
  -27.1137  -26.7022   23.8300 C   0  0  0  0  0  0  0  0  0  0  0  0
  -22.1392   -5.4286   25.7381 C   0  0  0  0  0  0  0  0  0  0  0  0
  -23.8118  -10.5371   21.2949 C   0  0  0  0  0  0  0  0  0  0  0  0
  -24.1005  -12.9918   20.6635 C   0  0  0  0  0  0  0  0  0  0  0  0
  -21.5616  -28.1819   17.6672 C   0  0  0  0  0  0  0  0  0  0  0  0
  -24.7479  -26.9007   23.3575 C   0  0  0  0  0  0  0  0  0  0  0  0
  -22.7458  -27.9471   18.3918 C   0  0  0  0  0  0  0  0  0  0  0  0
  -25.9707  -27.5034   23.6853 C   0  0  0  0  0  0  0  0  0  0  0  0
  -30.2649  -20.1363   20.3280 C   0  0  0  0  0  0  0  0  0  0  0  0
  -30.0007  -17.4147   20.8808 C   0  0  0  0  0  0  0  0  0  0  0  0
  -22.3435   -8.3278   22.1584 C   0  0  0  0  0  0  0  0  0  0  0  0
  -27.0387  -25.3196   23.6636 C   0  0  0  0  0  0  0  0  0  0  0  0
  -22.1982   -6.4340   23.5420 C   0  0  0  0  0  0  0  0  0  0  0  0
  -23.3504   -4.7879   25.4773 C   0  0  0  0  0  0  0  0  0  0  0  0
  -21.5630   -6.2517   24.7704 C   0  0  0  0  0  0  0  0  0  0  0  0
  -24.5708  -11.6780   20.8495 C   0  0  0  0  0  0  0  0  0  0  0  0
  -25.2012  -13.6932   20.2356 C   0  0  0  0  0  0  0  0  0  0  0  0
  -22.7863  -13.5302   20.8600 C   0  0  0  0  0  0  0  0  0  0  0  0
  -24.2079  -29.3939   21.4613 C   0  0  0  0  0  0  0  0  0  0  0  0
  -24.7128  -31.0804   24.1858 C   0  0  0  0  0  0  0  0  0  0  0  0
  -29.8905  -23.3715   21.7287 C   0  0  0  0  0  0  0  0  0  0  0  0
  -26.1254  -31.2160   27.2895 C   0  0  0  0  0  0  0  0  0  0  0  0
  -30.6044  -14.9834   20.6145 C   0  0  0  0  0  0  0  0  0  0  0  0
  -20.9991  -29.5707   17.4952 C   0  0  0  0  0  0  0  0  0  0  0  0
  -23.5017  -27.7317   23.2203 C   0  0  0  0  0  0  0  0  0  0  0  0
  -26.0945  -28.9919   23.8790 C   0  0  0  0  0  0  0  0  0  0  0  0
  -21.5475  -30.5790   18.5016 C   0  0  0  0  0  0  0  0  0  0  0  0
  -29.7588  -12.0779   18.7385 C   0  0  0  0  0  0  0  0  0  0  0  0
  -23.0643  -30.4566   18.6073 C   0  0  0  0  0  0  0  0  0  0  0  0
  -28.2950  -11.8229   19.1051 C   0  0  0  0  0  0  0  0  0  0  0  0
  -30.5606  -12.5945   19.9317 C   0  0  0  0  0  0  0  0  0  0  0  0
  -28.5241  -13.5132   20.9699 C   0  0  0  0  0  0  0  0  0  0  0  0
  -23.4720  -29.0655   19.1073 C   0  0  1  0  0  0  0  0  0  0  0  0
  -23.7911  -29.1929   22.8908 C   0  0  1  0  0  0  0  0  0  0  0  0
  -27.6613  -13.0534   19.7833 C   0  0  2  0  0  0  0  0  0  0  0  0
  -26.3978  -32.7394   29.2650 C   0  0  0  0  0  0  0  0  0  0  0  0
  -26.8052  -32.6885   22.6543 C   0  0  0  0  0  0  0  0  0  0  0  0
  -27.6852  -33.5045   24.8516 C   0  0  0  0  0  0  0  0  0  0  0  0
  -25.3483  -34.0459   24.1673 C   0  0  0  0  0  0  0  0  0  0  0  0
  -31.9995  -22.0278   21.8616 C   0  0  0  0  0  0  0  0  0  0  0  0
  -24.7277  -29.3254   29.0869 C   0  0  0  0  0  0  0  0  0  0  0  0
  -30.4072  -21.6010   20.0304 C   0  0  0  0  0  0  0  0  0  0  0  0
  -30.3713  -24.0864   22.9872 C   0  0  0  0  0  0  0  0  0  0  0  0
  -29.4038  -25.1583   23.4732 C   0  0  0  0  0  0  0  0  0  1  0  0
  -25.9206  -31.6833   24.8617 C   0  0  1  0  0  0  0  0  0  0  0  0
  -25.5621  -31.6359   28.6352 C   0  0  2  0  0  0  0  0  0  0  0  0
  -26.4382  -32.9527   24.1282 C   0  0  0  0  0  0  0  0  0  0  0  0
  -25.8690  -11.5497   20.5631 N   0  0  0  0  0  0  0  0  0  0  0  0
  -26.2239  -12.7918   20.1927 N   0  0  0  0  0  0  0  0  0  0  0  0
  -24.8490  -29.7622   23.7281 N   0  0  0  0  0  0  0  0  0  0  0  0
  -29.9026  -13.7630   20.5204 N   0  0  0  0  0  0  0  0  0  0  0  0
  -25.3843  -14.9867   19.8956 N   0  0  0  0  0  0  0  0  0  0  0  0
  -21.7716  -12.6708   21.3032 N   0  0  0  0  0  0  0  0  0  0  0  0
  -29.8661  -16.0324   21.1616 N   0  0  0  0  0  0  0  0  0  0  0  0
  -23.2745  -28.9644   20.5374 N   0  0  0  0  0  0  0  0  0  0  0  0
  -25.5399  -31.9098   26.2517 N   0  0  0  0  0  0  0  0  0  0  0  0
  -30.7331  -22.3730   21.2274 N   0  0  0  0  0  0  0  0  0  0  0  0
  -25.5344  -30.4756   29.5700 N   0  3  0  0  0  0  0  0  0  0  0  0
  -22.5157  -14.7338   20.6331 O   0  0  0  0  0  0  0  0  0  0  0  0
  -25.2952  -29.9026   21.2148 O   0  0  0  0  0  0  0  0  0  0  0  0
  -23.6840  -31.7519   24.0747 O   0  0  0  0  0  0  0  0  0  0  0  0
  -28.8157  -23.6771   21.2056 O   0  0  0  0  0  0  0  0  0  0  0  0
  -27.0003  -30.3610   27.1711 O   0  0  0  0  0  0  0  0  0  0  0  0
  -31.7652  -15.0972   20.2126 O   0  0  0  0  0  0  0  0  0  0  0  0
  -21.6271   -7.2501   22.5800 O   0  0  0  0  0  0  0  0  0  0  0  0
  -28.1550  -24.5548   23.8086 O   0  0  0  0  0  0  0  0  0  1  0  0
  -23.9030   -3.9963   26.4058 F   0  0  0  0  0  0  0  0  0  0  0  0
  -20.3987   -6.8637   25.0263 F   0  0  0  0  0  0  0  0  0  0  0  0
  1  2  1  0  0  0  0
  1  5  2  0  0  0  0
  2  6  2  0  0  0  0
  3 12  2  0  0  0  0
  3 19  1  0  0  0  0
  4 13  1  0  0  0  0
  4 19  2  0  0  0  0
  5 21  1  0  0  0  0
  6 23  1  0  0  0  0
  7 14  2  0  0  0  0
  7 22  1  0  0  0  0
  8 10  2  0  0  0  0
  8 25  1  0  0  0  0
  9 11  1  0  0  0  0
  9 25  2  0  0  0  0
 10 26  1  0  0  0  0
 11 26  2  0  0  0  0
 12 27  1  0  0  0  0
 13 27  2  0  0  0  0
 14 28  1  0  0  0  0
 15 16  2  0  0  0  0
 15 29  1  0  0  0  0
 16 30  1  0  0  0  0
 17 24  1  0  0  0  0
 17 28  2  0  0  0  0
 18 30  2  0  0  0  0
 18 31  1  0  0  0  0
 19 32  1  0  0  0  0
 20 32  1  0  0  0  0
 20 33  2  0  0  0  0
 20 34  1  0  0  0  0
 21 23  2  0  0  0  0
 21 40  1  0  0  0  0
 22 24  2  0  0  0  0
 22 41  1  0  0  0  0
 23 49  1  0  0  0  0
 24 42  1  0  0  0  0
 25 58  1  0  0  0  0
 26 70  1  0  0  0  0
 27 81  1  0  0  0  0
 28 82  1  0  0  0  0
 29 31  2  0  0  0  0
 29 81  1  0  0  0  0
 30 83  1  0  0  0  0
 31 84  1  0  0  0  0
 32 64  2  0  0  0  0
 33 65  1  0  0  0  0
 33 68  1  0  0  0  0
 34 69  1  0  0  0  0
 34 75  2  0  0  0  0
 35 50  1  0  0  0  0
 35 71  1  0  0  0  0
 35 76  2  0  0  0  0
 36 61  1  0  0  0  0
 36 66  1  0  0  0  0
 36 77  2  0  0  0  0
 37 59  1  0  0  0  0
 37 73  1  0  0  0  0
 37 78  2  0  0  0  0
 38 62  1  0  0  0  0
 38 72  1  0  0  0  0
 38 79  2  0  0  0  0
 39 67  1  0  0  0  0
 39 70  1  0  0  0  0
 39 80  2  0  0  0  0
 40 43  1  0  0  0  0
 41 50  1  0  0  0  0
 42 66  1  0  0  0  0
 43 45  1  0  0  0  0
 44 46  1  0  0  0  0
 44 47  1  0  0  0  0
 45 49  1  0  0  0  0
 46 51  1  0  0  0  0
 47 67  1  0  0  0  0
 48 51  1  0  0  0  0
 48 67  1  0  0  0  0
 49 71  1  0  0  0  0
 50 66  1  0  0  0  0
 51 65  1  0  0  0  0
 52 62  1  0  0  0  0
 53 63  1  0  0  0  0
 54 63  1  0  0  0  0
 55 63  1  0  0  0  0
 56 73  1  0  0  0  0
 57 74  1  0  0  0  0
 58 73  1  0  0  0  0
 59 60  1  0  0  0  0
 60 82  1  0  0  0  0
 61 63  1  0  0  0  0
 61 72  1  0  0  0  0
 62 74  1  0  0  0  0
 64 65  1  0  0  0  0
M  CHG  1  74   1
M  ISO  4  39 100  60 101  70 100  82 101
M  END
> <Batch ID>
0058

> <Smiles>
CNC(C)C(=O)NC(C(=O)N1Cc2cc([101O:1][101CH2:1]CC(=O)N(C)Cc3ccc([100NH:0][100C:0](=O)N4CCCC(n5nc(-c6ccc(Oc7ccc(F)cc7F)cc6)c(C(N)=O)c5N)C4)cc3)ccc2CC1C(=O)NC1CCCc2ccccc21)C(C)(C)C

> <Shape>
0.301

> <Color>
0.184

> <Negative vol penalty>
0.000

$$$$

  -OEChem-04042322583D

 89 98  0     1  0  0  0  0  0999 V2000
  -19.2059  -24.2121   23.1713 C   0  0  0  0  0  0  0  0  0  0  0  0
  -20.4517  -24.4063   22.5835 C   0  0  0  0  0  0  0  0  0  0  0  0
  -24.6129   -8.4735   21.2239 C   0  0  0  0  0  0  0  0  0  0  0  0
  -23.3034  -10.5038   21.2346 C   0  0  0  0  0  0  0  0  0  0  0  0
  -18.3524  -25.2970   23.3679 C   0  0  0  0  0  0  0  0  0  0  0  0
  -20.8445  -25.6855   22.1911 C   0  0  0  0  0  0  0  0  0  0  0  0
  -25.6098  -26.7518   23.5327 C   0  0  0  0  0  0  0  0  0  0  0  0
  -23.8015   -7.9449   22.2277 C   0  0  0  0  0  0  0  0  0  0  0  0
  -22.4919   -9.9751   22.2384 C   0  0  0  0  0  0  0  0  0  0  0  0
  -26.6282  -26.2073   22.7515 C   0  0  0  0  0  0  0  0  0  0  0  0
  -20.7498   -6.5084   22.4656 C   0  0  0  0  0  0  0  0  0  0  0  0
  -20.3147   -5.1911   22.3208 C   0  0  0  0  0  0  0  0  0  0  0  0
  -26.8699  -28.3169   21.6069 C   0  0  0  0  0  0  0  0  0  0  0  0
  -27.4839  -19.8291   21.2412 C   0  0  0  0  0  0  0  0  0  0  0  0
  -26.7390  -17.7987   20.1645 C   0  0  0  0  0  0  0  0  0  0  0  0
  -29.0465  -18.0302   20.8419 C   0  0  0  0  0  0  0  0  0  0  0  0
  -21.4164   -4.6000   24.3882 C   0  0  0  0  0  0  0  0  0  0  0  0
  -24.3639   -9.7531   20.7274 C   0  0  0  0  0  0  0  0  0  0  0  0
  -25.0165  -10.1878   18.2999 C   0  0  0  0  0  0  0  0  0  0  0  0
  -18.7388  -26.5915   22.9865 C   0  0  0  0  0  0  0  0  0  0  0  0
  -25.2057  -28.0820   23.3490 C   0  0  0  0  0  0  0  0  0  0  0  0
  -19.9949  -26.7885   22.3816 C   0  0  0  0  0  0  0  0  0  0  0  0
  -25.8479  -28.8766   22.3887 C   0  0  0  0  0  0  0  0  0  0  0  0
  -26.4664  -19.0751   20.6565 C   0  0  0  0  0  0  0  0  0  0  0  0
  -28.7739  -19.3067   21.3339 C   0  0  0  0  0  0  0  0  0  0  0  0
  -28.0290  -17.2762   20.2572 C   0  0  0  0  0  0  0  0  0  0  0  0
  -22.7410   -8.6956   22.7350 C   0  0  0  0  0  0  0  0  0  0  0  0
  -27.2565  -26.9889   21.7865 C   0  0  0  0  0  0  0  0  0  0  0  0
  -21.5183   -6.8715   23.5716 C   0  0  0  0  0  0  0  0  0  0  0  0
  -20.6480   -4.2369   23.2822 C   0  0  0  0  0  0  0  0  0  0  0  0
  -21.8516   -5.9174   24.5329 C   0  0  0  0  0  0  0  0  0  0  0  0
  -25.2021  -10.3000   19.6908 C   0  0  0  0  0  0  0  0  0  0  0  0
  -26.0746  -10.8741   17.7558 C   0  0  0  0  0  0  0  0  0  0  0  0
  -31.2814  -23.1548   19.3456 C   0  0  0  0  0  0  0  0  0  0  0  0
  -31.8253  -21.9389   19.2871 C   0  0  0  0  0  0  0  0  0  0  0  0
  -30.2302  -23.4847   20.2697 C   0  0  0  0  0  0  0  0  0  0  0  0
  -31.3697  -20.8502   20.1820 C   0  0  0  0  0  0  0  0  0  0  0  0
  -29.7154  -22.4403   21.2068 C   0  0  0  0  0  0  0  0  0  0  0  0
  -29.6904  -24.7073   20.3218 C   0  0  0  0  0  0  0  0  0  0  0  0
  -23.9803   -9.5228   17.5652 C   0  0  0  0  0  0  0  0  0  0  0  0
  -22.4977  -29.5048   22.4854 C   0  0  0  0  0  0  0  0  0  0  0  0
  -24.1473  -32.2066   23.1931 C   0  0  0  0  0  0  0  0  0  0  0  0
  -27.1730  -33.7451   23.5463 C   0  0  0  0  0  0  0  0  0  0  0  0
  -29.5306  -15.3128   19.7707 C   0  0  0  0  0  0  0  0  0  0  0  0
  -17.7631  -27.7258   23.1762 C   0  0  0  0  0  0  0  0  0  0  0  0
  -24.1238  -28.6623   24.2180 C   0  0  0  0  0  0  0  0  0  0  0  0
  -25.4651  -30.3162   22.1661 C   0  0  0  0  0  0  0  0  0  0  0  0
  -18.4066  -29.1063   23.0742 C   0  0  0  0  0  0  0  0  0  0  0  0
  -30.6113  -12.1023   18.6744 C   0  0  0  0  0  0  0  0  0  0  0  0
  -19.3226  -29.1797   21.8566 C   0  0  0  0  0  0  0  0  0  0  0  0
  -29.3289  -11.2672   18.6782 C   0  0  0  0  0  0  0  0  0  0  0  0
  -30.6463  -13.0933   19.8364 C   0  0  0  0  0  0  0  0  0  0  0  0
  -28.1856  -13.1278   19.9503 C   0  0  0  0  0  0  0  0  0  0  0  0
  -20.4669  -28.1646   21.9651 C   0  0  1  0  0  0  0  0  0  0  0  0
  -23.4424  -29.8759   23.5933 C   0  0  1  0  0  0  0  0  0  0  0  0
  -28.0752  -12.1600   18.7607 C   0  0  2  0  0  0  0  0  0  0  0  0
  -25.0872  -19.6339   20.5573 C   0  0  0  0  0  0  0  0  0  0  0  0
  -28.2007  -35.9676   24.0956 C   0  0  0  0  0  0  0  0  0  0  0  0
  -23.4341  -33.2225   20.4058 C   0  0  0  0  0  0  0  0  0  0  0  0
  -25.2268  -34.9526   20.6536 C   0  0  0  0  0  0  0  0  0  0  0  0
  -23.2807  -34.9432   22.2141 C   0  0  0  0  0  0  0  0  0  0  0  0
  -28.5604  -32.6477   25.9191 C   0  0  0  0  0  0  0  0  0  0  0  0
  -29.8690  -20.1183   21.9634 C   0  0  0  0  0  0  0  0  0  0  0  0
  -28.5988  -25.0970   21.2626 C   0  0  0  0  0  0  0  0  0  1  0  0
  -25.0448  -33.1441   22.4221 C   0  0  1  0  0  0  0  0  0  0  0  0
  -27.7307  -34.6303   24.6463 C   0  0  2  0  0  0  0  0  0  0  0  0
  -24.2527  -34.0380   21.4265 C   0  0  0  0  0  0  0  0  0  0  0  0
  -26.2924  -11.0021   20.0106 N   0  0  0  0  0  0  0  0  0  0  0  0
  -26.8015  -11.3373   18.8128 N   0  0  0  0  0  0  0  0  0  0  0  0
  -30.3391  -21.1798   21.0793 N   0  0  0  0  0  0  0  0  0  0  0  0
  -24.3974  -30.8360   23.0364 N   0  0  0  0  0  0  0  0  0  0  0  0
  -29.4290  -13.9076   19.8486 N   0  0  0  0  0  0  0  0  0  0  0  0
  -26.4448  -11.1205   16.4812 N   0  0  0  0  0  0  0  0  0  0  0  0
  -22.9698   -8.8663   18.2809 N   0  0  0  0  0  0  0  0  0  0  0  0
  -28.3058  -15.9795   19.7576 N   0  0  0  0  0  0  0  0  0  0  0  0
  -21.4859  -28.6468   22.8725 N   0  0  0  0  0  0  0  0  0  0  0  0
  -25.8078  -33.8895   23.4174 N   0  0  0  0  0  0  0  0  0  0  0  0
  -28.8857  -33.9639   25.3118 N   0  3  0  0  0  0  0  0  0  0  0  0
  -31.9108  -19.7491   20.0874 O   0  0  0  0  0  0  0  0  0  0  0  0
  -28.8203  -22.6889   22.0139 O   0  0  0  0  0  0  0  0  0  0  0  0
  -23.9604   -9.4971   16.3113 O   0  0  0  0  0  0  0  0  0  0  0  0
  -22.6728  -29.9640   21.3628 O   0  0  0  0  0  0  0  0  0  0  0  0
  -23.2616  -32.6735   23.9137 O   0  0  0  0  0  0  0  0  0  0  0  0
  -27.8785  -33.0028   22.8668 O   0  0  0  0  0  0  0  0  0  0  0  0
  -30.6227  -15.8811   19.6920 O   0  0  0  0  0  0  0  0  0  0  0  0
  -21.9488   -8.1799   23.7143 O   0  0  0  0  0  0  0  0  0  0  0  0
  -28.2503  -26.4598   21.0223 O   0  0  0  0  0  0  0  0  0  1  0  0
  -20.2288   -2.9723   23.1438 F   0  0  0  0  0  0  0  0  0  0  0  0
  -22.5886   -6.2605   25.5983 F   0  0  0  0  0  0  0  0  0  0  0  0
  1  2  1  0  0  0  0
  1  5  2  0  0  0  0
  2  6  2  0  0  0  0
  3  8  2  0  0  0  0
  3 18  1  0  0  0  0
  4  9  1  0  0  0  0
  4 18  2  0  0  0  0
  5 20  1  0  0  0  0
  6 22  1  0  0  0  0
  7 10  2  0  0  0  0
  7 21  1  0  0  0  0
  8 27  1  0  0  0  0
  9 27  2  0  0  0  0
 10 28  1  0  0  0  0
 11 12  2  0  0  0  0
 11 29  1  0  0  0  0
 12 30  1  0  0  0  0
 13 23  1  0  0  0  0
 13 28  2  0  0  0  0
 14 24  2  0  0  0  0
 14 25  1  0  0  0  0
 15 24  1  0  0  0  0
 15 26  2  0  0  0  0
 16 25  2  0  0  0  0
 16 26  1  0  0  0  0
 17 30  2  0  0  0  0
 17 31  1  0  0  0  0
 18 32  1  0  0  0  0
 19 32  1  0  0  0  0
 19 33  2  0  0  0  0
 19 40  1  0  0  0  0
 20 22  2  0  0  0  0
 20 45  1  0  0  0  0
 21 23  2  0  0  0  0
 21 46  1  0  0  0  0
 22 54  1  0  0  0  0
 23 47  1  0  0  0  0
 24 57  1  0  0  0  0
 25 63  1  0  0  0  0
 26 75  1  0  0  0  0
 27 86  1  0  0  0  0
 28 87  1  0  0  0  0
 29 31  2  0  0  0  0
 29 86  1  0  0  0  0
 30 88  1  0  0  0  0
 31 89  1  0  0  0  0
 32 68  2  0  0  0  0
 33 69  1  0  0  0  0
 33 73  1  0  0  0  0
 34 35  2  0  0  0  0
 34 36  1  0  0  0  0
 35 37  1  0  0  0  0
 36 38  1  0  0  0  0
 36 39  2  0  0  0  0
 37 70  1  0  0  0  0
 37 79  2  0  0  0  0
 38 70  1  0  0  0  0
 38 80  2  0  0  0  0
 39 64  1  0  0  0  0
 40 74  1  0  0  0  0
 40 81  2  0  0  0  0
 41 55  1  0  0  0  0
 41 76  1  0  0  0  0
 41 82  2  0  0  0  0
 42 65  1  0  0  0  0
 42 71  1  0  0  0  0
 42 83  2  0  0  0  0
 43 66  1  0  0  0  0
 43 77  1  0  0  0  0
 43 84  2  0  0  0  0
 44 72  1  0  0  0  0
 44 75  1  0  0  0  0
 44 85  2  0  0  0  0
 45 48  1  0  0  0  0
 46 55  1  0  0  0  0
 47 71  1  0  0  0  0
 48 50  1  0  0  0  0
 49 51  1  0  0  0  0
 49 52  1  0  0  0  0
 50 54  1  0  0  0  0
 51 56  1  0  0  0  0
 52 72  1  0  0  0  0
 53 56  1  0  0  0  0
 53 72  1  0  0  0  0
 54 76  1  0  0  0  0
 55 71  1  0  0  0  0
 56 69  1  0  0  0  0
 58 66  1  0  0  0  0
 59 67  1  0  0  0  0
 60 67  1  0  0  0  0
 61 67  1  0  0  0  0
 62 78  1  0  0  0  0
 63 70  1  0  0  0  0
 64 87  1  0  0  0  0
 65 67  1  0  0  0  0
 65 77  1  0  0  0  0
 66 78  1  0  0  0  0
 68 69  1  0  0  0  0
M  CHG  1  78   1
M  ISO  4  44 100  64 101  75 100  87 101
M  END
> <Batch ID>
0058

> <Smiles>
CNC(C)C(=O)NC(C(=O)N1Cc2cc([101O:1][101CH2:1]C=C3C=CC(=O)N(Cc4cc(C)cc([100NH:0][100C:0](=O)N5CCCC(n6nc(-c7ccc(Oc8ccc(F)cc8F)cc7)c(C(N)=O)c6N)C5)c4)C3=O)ccc2CC1C(=O)NC1CCCc2ccccc21)C(C)(C)C

> <Shape>
0.305

> <Color>
0.105

> <Negative vol penalty>
0.000

$$$$

  -OEChem-04042322583D

 85 93  0     1  0  0  0  0  0999 V2000
  -26.3532  -22.6194   18.4647 C   0  0  0  0  0  0  0  0  0  0  0  0
  -25.5013  -23.7181   18.4769 C   0  0  0  0  0  0  0  0  0  0  0  0
  -26.6070  -15.7659   20.7112 C   0  0  0  0  0  0  0  0  0  0  0  0
  -24.5427  -15.2987   21.8762 C   0  0  0  0  0  0  0  0  0  0  0  0
  -27.3138  -22.4759   19.4635 C   0  0  0  0  0  0  0  0  0  0  0  0
  -25.6176  -24.6797   19.4812 C   0  0  0  0  0  0  0  0  0  0  0  0
  -22.8612  -28.7294   19.0278 C   0  0  0  0  0  0  0  0  0  0  0  0
  -23.1785  -26.5643   25.7047 C   0  0  0  0  0  0  0  0  0  0  0  0
  -23.6899  -25.2939   25.9694 C   0  0  0  0  0  0  0  0  0  0  0  0
  -26.7502  -14.4092   20.4209 C   0  0  0  0  0  0  0  0  0  0  0  0
  -24.6859  -13.9419   21.5859 C   0  0  0  0  0  0  0  0  0  0  0  0
  -21.4802  -28.7264   19.2189 C   0  0  0  0  0  0  0  0  0  0  0  0
  -24.3222  -10.4018   20.8417 C   0  0  0  0  0  0  0  0  0  0  0  0
  -23.1981   -9.7132   20.3858 C   0  0  0  0  0  0  0  0  0  0  0  0
  -21.8563  -24.3014   24.7486 C   0  0  0  0  0  0  0  0  0  0  0  0
  -21.7839  -29.7418   21.3859 C   0  0  0  0  0  0  0  0  0  0  0  0
  -23.0548  -11.2029   18.4891 C   0  0  0  0  0  0  0  0  0  0  0  0
  -25.5032  -16.2107   21.4389 C   0  0  0  0  0  0  0  0  0  0  0  0
  -21.3449  -25.5719   24.4839 C   0  0  0  0  0  0  0  0  0  0  0  0
  -24.6961  -18.5832   20.9621 C   0  0  0  0  0  0  0  0  0  0  0  0
  -27.4331  -23.4303   20.4872 C   0  0  0  0  0  0  0  0  0  0  0  0
  -23.7160  -29.2294   20.0206 C   0  0  0  0  0  0  0  0  0  0  0  0
  -26.5967  -24.5651   20.4847 C   0  0  0  0  0  0  0  0  0  0  0  0
  -23.1753  -29.7523   21.2039 C   0  0  0  0  0  0  0  0  0  0  0  0
  -22.0060  -26.7033   24.9620 C   0  0  0  0  0  0  0  0  0  0  0  0
  -23.0288  -24.1624   25.4914 C   0  0  0  0  0  0  0  0  0  0  0  0
  -25.7897  -13.4972   20.8582 C   0  0  0  0  0  0  0  0  0  0  0  0
  -20.9415  -29.2300   20.3993 C   0  0  0  0  0  0  0  0  0  0  0  0
  -24.8125  -11.4911   20.1214 C   0  0  0  0  0  0  0  0  0  0  0  0
  -22.5644  -10.1137   19.2095 C   0  0  0  0  0  0  0  0  0  0  0  0
  -24.1788  -11.8916   18.9451 C   0  0  0  0  0  0  0  0  0  0  0  0
  -25.3549  -17.6120   21.7396 C   0  0  0  0  0  0  0  0  0  0  0  0
  -24.8351  -19.7476   21.6772 C   0  0  0  0  0  0  0  0  0  0  0  0
  -20.1026  -25.6976   23.6957 C   0  0  0  0  0  0  0  0  0  0  0  0
  -24.0189  -18.4452   19.7059 C   0  0  0  0  0  0  0  0  0  0  0  0
  -26.0360  -27.9986   21.8113 C   0  0  0  0  0  0  0  0  0  0  0  0
  -26.4092  -31.0792   22.7561 C   0  0  0  0  0  0  0  0  0  0  0  0
  -25.0317  -34.1771   23.1464 C   0  0  0  0  0  0  0  0  0  0  0  0
  -24.7006  -22.5589   26.4815 C   0  0  0  0  0  0  0  0  0  0  0  0
  -28.4955  -23.2296   21.5389 C   0  0  0  0  0  0  0  0  0  0  0  0
  -25.2019  -29.2501   19.7879 C   0  0  0  0  0  0  0  0  0  0  0  0
  -24.0486  -30.3192   22.2922 C   0  0  0  0  0  0  0  0  0  0  0  0
  -28.2507  -24.0569   22.7967 C   0  0  0  0  0  0  0  0  0  0  0  0
  -27.7069  -20.8160   25.7062 C   0  0  0  0  0  0  0  0  0  0  0  0
  -27.9663  -25.5032   22.4203 C   0  0  0  0  0  0  0  0  0  0  0  0
  -27.3088  -19.9070   24.5412 C   0  0  0  0  0  0  0  0  0  0  0  0
  -26.5806  -20.9530   26.7292 C   0  0  0  0  0  0  0  0  0  0  0  0
  -24.8873  -20.4578   25.0097 C   0  0  0  0  0  0  0  0  0  0  0  0
  -26.6845  -25.6080   21.5842 C   0  0  1  0  0  0  0  0  0  0  0  0
  -26.0085  -29.3116   21.0814 C   0  0  1  0  0  0  0  0  0  0  0  0
  -25.9664  -20.3411   23.9209 C   0  0  2  0  0  0  0  0  0  0  0  0
  -21.4788  -28.0743   24.6910 C   0  0  0  0  0  0  0  0  0  0  0  0
  -25.5710  -36.4822   23.9789 C   0  0  0  0  0  0  0  0  0  0  0  0
  -18.3492  -30.3707   22.2892 C   0  0  0  0  0  0  0  0  0  0  0  0
  -26.1594  -30.0957   25.6336 C   0  0  0  0  0  0  0  0  0  0  0  0
  -25.7516  -32.4645   26.3342 C   0  0  0  0  0  0  0  0  0  0  0  0
  -27.9204  -31.8349   25.2747 C   0  0  0  0  0  0  0  0  0  0  0  0
  -24.5471  -35.3776   20.4850 C   0  0  0  0  0  0  0  0  0  0  0  0
  -18.2592  -27.8551   22.0815 C   0  0  0  0  0  0  0  0  0  0  0  0
  -18.9811  -26.5744   21.6782 C   0  0  0  0  0  0  0  0  0  0  0  0
  -25.8311  -31.9380   23.8548 C   0  0  1  0  0  0  0  0  0  0  0  0
  -25.5367  -35.5586   22.7712 C   0  0  2  0  0  0  0  0  0  0  0  0
  -19.1270  -29.1107   21.9320 C   0  0  1  0  0  0  0  0  0  1  0  0
  -26.3990  -31.5709   25.2549 C   0  0  0  0  0  0  0  0  0  0  0  0
  -25.8741  -18.1157   22.8625 N   0  0  0  0  0  0  0  0  0  0  0  0
  -25.5416  -19.4161   22.7957 N   0  0  0  0  0  0  0  0  0  0  0  0
  -25.4955  -30.3114   22.0203 N   0  0  0  0  0  0  0  0  0  0  0  0
  -25.3415  -21.3712   26.0700 N   0  0  0  0  0  0  0  0  0  0  0  0
  -24.4209  -21.0126   21.4519 N   0  0  0  0  0  0  0  0  0  0  0  0
  -18.9969  -25.1239   24.1702 N   0  0  0  0  0  0  0  0  0  0  0  0
  -23.9697  -17.1780   19.1091 N   0  0  0  0  0  0  0  0  0  0  0  0
  -23.5487  -22.8721   25.7605 N   0  0  0  0  0  0  0  0  0  0  0  0
  -26.5629  -26.9557   21.0735 N   0  0  0  0  0  0  0  0  0  0  0  0
  -26.0674  -33.3220   23.4583 N   0  0  0  0  0  0  0  0  0  0  0  0
  -20.1451  -26.3784   22.5431 N   0  3  0  0  0  0  0  0  0  0  0  0
  -24.6543  -36.1696   21.7372 N   0  3  0  0  0  0  0  0  0  0  0  0
  -23.4877  -19.4199   19.1218 O   0  0  0  0  0  0  0  0  0  0  0  0
  -25.6120  -27.9365   22.9594 O   0  0  0  0  0  0  0  0  0  0  0  0
  -27.6259  -31.0947   22.5533 O   0  0  0  0  0  0  0  0  0  0  0  0
  -23.8376  -33.8867   23.1648 O   0  0  0  0  0  0  0  0  0  0  0  0
  -25.1560  -23.2618   27.3873 O   0  0  0  0  0  0  0  0  0  0  0  0
  -25.9291  -12.1732   20.5749 O   0  0  0  0  0  0  0  0  0  0  0  0
  -19.5939  -29.2277   20.5887 O   0  0  0  0  0  0  0  0  0  1  0  0
  -21.4859   -9.4514   18.7710 F   0  0  0  0  0  0  0  0  0  0  0  0
  -24.6460  -12.9365   18.2481 F   0  0  0  0  0  0  0  0  0  0  0  0
  1  2  1  0  0  0  0
  1  5  2  0  0  0  0
  2  6  2  0  0  0  0
  3 10  2  0  0  0  0
  3 18  1  0  0  0  0
  4 11  1  0  0  0  0
  4 18  2  0  0  0  0
  5 21  1  0  0  0  0
  6 23  1  0  0  0  0
  7 12  2  0  0  0  0
  7 22  1  0  0  0  0
  8  9  2  0  0  0  0
  8 25  1  0  0  0  0
  9 26  1  0  0  0  0
 10 27  1  0  0  0  0
 11 27  2  0  0  0  0
 12 28  1  0  0  0  0
 13 14  2  0  0  0  0
 13 29  1  0  0  0  0
 14 30  1  0  0  0  0
 15 19  1  0  0  0  0
 15 26  2  0  0  0  0
 16 24  1  0  0  0  0
 16 28  2  0  0  0  0
 17 30  2  0  0  0  0
 17 31  1  0  0  0  0
 18 32  1  0  0  0  0
 19 25  2  0  0  0  0
 19 34  1  0  0  0  0
 20 32  1  0  0  0  0
 20 33  2  0  0  0  0
 20 35  1  0  0  0  0
 21 23  2  0  0  0  0
 21 40  1  0  0  0  0
 22 24  2  0  0  0  0
 22 41  1  0  0  0  0
 23 49  1  0  0  0  0
 24 42  1  0  0  0  0
 25 52  1  0  0  0  0
 26 72  1  0  0  0  0
 27 82  1  0  0  0  0
 28 83  1  0  0  0  0
 29 31  2  0  0  0  0
 29 82  1  0  0  0  0
 30 84  1  0  0  0  0
 31 85  1  0  0  0  0
 32 65  2  0  0  0  0
 33 66  1  0  0  0  0
 33 69  1  0  0  0  0
 34 70  1  0  0  0  0
 34 75  2  0  0  0  0
 35 71  1  0  0  0  0
 35 77  2  0  0  0  0
 36 50  1  0  0  0  0
 36 73  1  0  0  0  0
 36 78  2  0  0  0  0
 37 61  1  0  0  0  0
 37 67  1  0  0  0  0
 37 79  2  0  0  0  0
 38 62  1  0  0  0  0
 38 74  1  0  0  0  0
 38 80  2  0  0  0  0
 39 68  1  0  0  0  0
 39 72  1  0  0  0  0
 39 81  2  0  0  0  0
 40 43  1  0  0  0  0
 41 50  1  0  0  0  0
 42 67  1  0  0  0  0
 43 45  1  0  0  0  0
 44 46  1  0  0  0  0
 44 47  1  0  0  0  0
 45 49  1  0  0  0  0
 46 51  1  0  0  0  0
 47 68  1  0  0  0  0
 48 51  1  0  0  0  0
 48 68  1  0  0  0  0
 49 73  1  0  0  0  0
 50 67  1  0  0  0  0
 51 66  1  0  0  0  0
 53 62  1  0  0  0  0
 54 63  1  0  0  0  0
 55 64  1  0  0  0  0
 56 64  1  0  0  0  0
 57 64  1  0  0  0  0
 58 76  1  0  0  0  0
 59 60  1  0  0  0  0
 59 63  1  0  0  0  0
 60 75  1  0  0  0  0
 61 64  1  0  0  0  0
 61 74  1  0  0  0  0
 62 76  1  0  0  0  0
 63 83  1  0  0  0  0
 65 66  1  0  0  0  0
M  CHG  2  75   1  76   1
M  ISO  4  39 100  63 101  72 100  83 101
M  END
> <Batch ID>
0058

> <Smiles>
CNC(C)C(=O)NC(C(=O)N1Cc2cc([101O:1][101CH:1](C)CCNC(=N)c3cc([100NH:0][100C:0](=O)N4CCCC(n5nc(-c6ccc(Oc7ccc(F)cc7F)cc6)c(C(N)=O)c5N)C4)ccc3C)ccc2CC1C(=O)NC1CCCc2ccccc21)C(C)(C)C

> <Shape>
0.224

> <Color>
0.054

> <Negative vol penalty>
0.000

$$$$

  -OEChem-04042322583D

 83 91  0     1  0  0  0  0  0999 V2000
  -26.3062  -38.0832   20.8605 C   0  0  0  0  0  0  0  0  0  0  0  0
  -26.9542  -36.9188   20.4610 C   0  0  0  0  0  0  0  0  0  0  0  0
  -23.9991   -9.4569   22.1327 C   0  0  0  0  0  0  0  0  0  0  0  0
  -24.3501  -11.1361   23.8340 C   0  0  0  0  0  0  0  0  0  0  0  0
  -25.4805  -38.0699   21.9838 C   0  0  0  0  0  0  0  0  0  0  0  0
  -26.7777  -35.7405   21.1855 C   0  0  0  0  0  0  0  0  0  0  0  0
  -26.6066  -30.0390   18.9562 C   0  0  0  0  0  0  0  0  0  0  0  0
  -27.7679  -19.0367   19.2800 C   0  0  0  0  0  0  0  0  0  0  0  0
  -27.9283  -20.4195   19.3671 C   0  0  0  0  0  0  0  0  0  0  0  0
  -23.5832   -8.5533   23.1105 C   0  0  0  0  0  0  0  0  0  0  0  0
  -23.9342  -10.2324   24.8117 C   0  0  0  0  0  0  0  0  0  0  0  0
  -27.5690  -29.0334   18.8773 C   0  0  0  0  0  0  0  0  0  0  0  0
  -20.7903   -7.9500   24.9185 C   0  0  0  0  0  0  0  0  0  0  0  0
  -19.6450   -7.1969   24.6600 C   0  0  0  0  0  0  0  0  0  0  0  0
  -26.7176  -28.0669   20.9170 C   0  0  0  0  0  0  0  0  0  0  0  0
  -30.1677  -18.7612   19.2339 C   0  0  0  0  0  0  0  0  0  0  0  0
  -20.9365   -5.1647   24.8589 C   0  0  0  0  0  0  0  0  0  0  0  0
  -24.3826  -10.7483   22.4945 C   0  0  0  0  0  0  0  0  0  0  0  0
  -24.0083  -12.5830   20.7620 C   0  0  0  0  0  0  0  0  0  0  0  0
  -25.2861  -36.8885   22.7168 C   0  0  0  0  0  0  0  0  0  0  0  0
  -25.6978  -30.0723   20.0237 C   0  0  0  0  0  0  0  0  0  0  0  0
  -25.9497  -35.7116   22.3205 C   0  0  0  0  0  0  0  0  0  0  0  0
  -25.7429  -29.0725   21.0057 C   0  0  0  0  0  0  0  0  0  0  0  0
  -28.8876  -18.2075   19.2134 C   0  0  0  0  0  0  0  0  0  0  0  0
  -29.2084  -20.9732   19.3876 C   0  0  0  0  0  0  0  0  0  0  0  0
  -23.5507   -8.9410   24.4500 C   0  0  0  0  0  0  0  0  0  0  0  0
  -27.6265  -28.0488   19.8594 C   0  0  0  0  0  0  0  0  0  0  0  0
  -22.0087   -7.3105   25.1471 C   0  0  0  0  0  0  0  0  0  0  0  0
  -19.7181   -5.8043   24.6303 C   0  0  0  0  0  0  0  0  0  0  0  0
  -30.3281  -20.1441   19.3210 C   0  0  0  0  0  0  0  0  0  0  0  0
  -22.0818   -5.9179   25.1173 C   0  0  0  0  0  0  0  0  0  0  0  0
  -24.8129  -11.6821   21.4850 C   0  0  0  0  0  0  0  0  0  0  0  0
  -24.8861  -13.2393   19.9343 C   0  0  0  0  0  0  0  0  0  0  0  0
  -28.9450  -24.7092   19.6300 C   0  0  0  0  0  0  0  0  0  0  0  0
  -28.1366  -25.7712   19.7077 C   0  0  0  0  0  0  0  0  0  1  0  0
  -22.5938  -12.8068   20.8324 C   0  0  0  0  0  0  0  0  0  0  0  0
  -28.3660  -23.3364   19.5490 C   0  0  0  0  0  0  0  0  0  0  0  0
  -25.0644  -32.1245   22.3670 C   0  0  0  0  0  0  0  0  0  0  0  0
  -22.6197  -30.0796   22.9704 C   0  0  0  0  0  0  0  0  0  0  0  0
  -21.3462  -26.9253   22.6957 C   0  0  0  0  0  0  0  0  0  0  0  0
  -29.7300  -15.8389   19.0502 C   0  0  0  0  0  0  0  0  0  0  0  0
  -24.4215  -36.9342   23.9517 C   0  0  0  0  0  0  0  0  0  0  0  0
  -24.6485  -31.1485   20.0800 C   0  0  0  0  0  0  0  0  0  0  0  0
  -24.7772  -29.0518   22.1613 C   0  0  0  0  0  0  0  0  0  0  0  0
  -23.9916  -35.5553   24.4456 C   0  0  0  0  0  0  0  0  0  0  0  0
  -29.7388  -12.2837   18.8573 C   0  0  0  0  0  0  0  0  0  0  0  0
  -25.1824  -34.6023   24.4714 C   0  0  0  0  0  0  0  0  0  0  0  0
  -28.3919  -11.8844   19.4643 C   0  0  0  0  0  0  0  0  0  0  0  0
  -30.3477  -13.4891   19.5715 C   0  0  0  0  0  0  0  0  0  0  0  0
  -28.1188  -14.2591   20.2846 C   0  0  0  0  0  0  0  0  0  0  0  0
  -25.7639  -34.4077   23.0659 C   0  0  1  0  0  0  0  0  0  0  0  0
  -24.1029  -31.3781   21.4860 C   0  0  1  0  0  0  0  0  0  0  0  0
  -27.4359  -13.0898   19.5567 C   0  0  2  0  0  0  0  0  0  0  0  0
  -19.3430  -25.5484   23.3194 C   0  0  0  0  0  0  0  0  0  0  0  0
  -23.6255  -29.9238   25.8469 C   0  0  0  0  0  0  0  0  0  0  0  0
  -22.2237  -27.8719   26.1522 C   0  0  0  0  0  0  0  0  0  0  0  0
  -21.1385  -30.0533   25.6168 C   0  0  0  0  0  0  0  0  0  0  0  0
  -20.6991  -26.3721   19.8612 C   0  0  0  0  0  0  0  0  0  0  0  0
  -22.4441  -28.8445   23.8206 C   0  0  1  0  0  0  0  0  0  0  0  0
  -19.9831  -26.4243   22.2536 C   0  0  2  0  0  0  0  0  0  0  0  0
  -22.3775  -29.1746   25.3385 C   0  0  0  0  0  0  0  0  0  0  0  0
  -26.1027  -11.7565   21.1462 N   0  0  0  0  0  0  0  0  0  0  0  0
  -26.1153  -12.7119   20.2011 N   0  0  0  0  0  0  0  0  0  0  0  0
  -23.7736  -30.1290   22.1755 N   0  0  0  0  0  0  0  0  0  0  0  0
  -29.3867  -14.5933   19.6172 N   0  0  0  0  0  0  0  0  0  0  0  0
  -24.7188  -14.2103   19.0114 N   0  0  0  0  0  0  0  0  0  0  0  0
  -21.8413  -12.0460   21.7376 N   0  0  0  0  0  0  0  0  0  0  0  0
  -29.3680  -22.3780   19.4757 N   0  0  0  0  0  0  0  0  0  0  0  0
  -28.7250  -16.8027   19.1242 N   0  0  0  0  0  0  0  0  0  0  0  0
  -24.9389  -33.4990   22.2990 N   0  0  0  0  0  0  0  0  0  0  0  0
  -21.2637  -28.1591   23.3058 N   0  0  0  0  0  0  0  0  0  0  0  0
  -20.1058  -25.6264   21.0009 N   0  3  0  0  0  0  0  0  0  0  0  0
  -22.0120  -13.6446   20.1023 O   0  0  0  0  0  0  0  0  0  0  0  0
  -27.1538  -23.1572   19.5522 O   0  0  0  0  0  0  0  0  0  0  0  0
  -25.8602  -31.4996   23.0584 O   0  0  0  0  0  0  0  0  0  0  0  0
  -21.7611  -30.9645   23.0047 O   0  0  0  0  0  0  0  0  0  0  0  0
  -22.3803  -26.2844   22.5209 O   0  0  0  0  0  0  0  0  0  0  0  0
  -30.8243  -16.0278   18.5127 O   0  0  0  0  0  0  0  0  0  0  0  0
  -23.1447   -8.0595   25.4043 O   0  0  0  0  0  0  0  0  0  0  0  0
  -28.5654  -27.0665   19.7852 O   0  0  0  0  0  0  0  0  0  1  0  0
  -18.6179   -5.0812   24.3836 F   0  0  0  0  0  0  0  0  0  0  0  0
  -31.5633  -20.6654   19.3384 F   0  0  0  0  0  0  0  0  0  0  0  0
  -23.2492   -5.2978   25.3374 F   0  0  0  0  0  0  0  0  0  0  0  0
  1  2  1  0  0  0  0
  1  5  2  0  0  0  0
  2  6  2  0  0  0  0
  3 10  2  0  0  0  0
  3 18  1  0  0  0  0
  4 11  1  0  0  0  0
  4 18  2  0  0  0  0
  5 20  1  0  0  0  0
  6 22  1  0  0  0  0
  7 12  2  0  0  0  0
  7 21  1  0  0  0  0
  8  9  2  0  0  0  0
  8 24  1  0  0  0  0
  9 25  1  0  0  0  0
 10 26  1  0  0  0  0
 11 26  2  0  0  0  0
 12 27  1  0  0  0  0
 13 14  2  0  0  0  0
 13 28  1  0  0  0  0
 14 29  1  0  0  0  0
 15 23  1  0  0  0  0
 15 27  2  0  0  0  0
 16 24  2  0  0  0  0
 16 30  1  0  0  0  0
 17 29  2  0  0  0  0
 17 31  1  0  0  0  0
 18 32  1  0  0  0  0
 19 32  1  0  0  0  0
 19 33  2  0  0  0  0
 19 36  1  0  0  0  0
 20 22  2  0  0  0  0
 20 42  1  0  0  0  0
 21 23  2  0  0  0  0
 21 43  1  0  0  0  0
 22 51  1  0  0  0  0
 23 44  1  0  0  0  0
 24 69  1  0  0  0  0
 25 30  2  0  0  0  0
 25 68  1  0  0  0  0
 26 79  1  0  0  0  0
 27 80  1  0  0  0  0
 28 31  2  0  0  0  0
 28 79  1  0  0  0  0
 29 81  1  0  0  0  0
 30 82  1  0  0  0  0
 31 83  1  0  0  0  0
 32 62  2  0  0  0  0
 33 63  1  0  0  0  0
 33 66  1  0  0  0  0
 34 35  2  0  0  0  0
 34 37  1  0  0  0  0
 35 80  1  0  0  0  0
 36 67  1  0  0  0  0
 36 73  2  0  0  0  0
 37 68  1  0  0  0  0
 37 74  2  0  0  0  0
 38 52  1  0  0  0  0
 38 70  1  0  0  0  0
 38 75  2  0  0  0  0
 39 59  1  0  0  0  0
 39 64  1  0  0  0  0
 39 76  2  0  0  0  0
 40 60  1  0  0  0  0
 40 71  1  0  0  0  0
 40 77  2  0  0  0  0
 41 65  1  0  0  0  0
 41 69  1  0  0  0  0
 41 78  2  0  0  0  0
 42 45  1  0  0  0  0
 43 52  1  0  0  0  0
 44 64  1  0  0  0  0
 45 47  1  0  0  0  0
 46 48  1  0  0  0  0
 46 49  1  0  0  0  0
 47 51  1  0  0  0  0
 48 53  1  0  0  0  0
 49 65  1  0  0  0  0
 50 53  1  0  0  0  0
 50 65  1  0  0  0  0
 51 70  1  0  0  0  0
 52 64  1  0  0  0  0
 53 63  1  0  0  0  0
 54 60  1  0  0  0  0
 55 61  1  0  0  0  0
 56 61  1  0  0  0  0
 57 61  1  0  0  0  0
 58 72  1  0  0  0  0
 59 61  1  0  0  0  0
 59 71  1  0  0  0  0
 60 72  1  0  0  0  0
 62 63  1  0  0  0  0
M  CHG  1  72   1
M  ISO  4  35 101  41 100  69 100  80 101
M  END
> <Batch ID>
0058

> <Smiles>
CNC(C)C(=O)NC(C(=O)N1Cc2cc([101O:1][101CH:1]=CC(=O)Nc3ccc([100NH:0][100C:0](=O)N4CCCC(n5nc(-c6ccc(Oc7ccc(F)cc7F)cc6)c(C(N)=O)c5N)C4)cc3F)ccc2CC1C(=O)NC1CCCc2ccccc21)C(C)(C)C

> <Shape>
0.334

> <Color>
0.110

> <Negative vol penalty>
0.000

$$$$

  -OEChem-04042322583D

 85 94  0     1  0  0  0  0  0999 V2000
  -27.9022  -32.4768   19.9311 C   0  0  0  0  0  0  0  0  0  0  0  0
  -28.4871  -31.5917   20.8310 C   0  0  0  0  0  0  0  0  0  0  0  0
  -32.4237  -17.7463   23.4133 C   0  0  0  0  0  0  0  0  0  0  0  0
  -23.1409   -9.7375   19.9701 C   0  0  0  0  0  0  0  0  0  0  0  0
  -23.8321   -9.8636   22.2816 C   0  0  0  0  0  0  0  0  0  0  0  0
  -26.5258  -32.4382   19.7119 C   0  0  0  0  0  0  0  0  0  0  0  0
  -27.6958  -30.6680   21.5130 C   0  0  0  0  0  0  0  0  0  0  0  0
  -29.2575  -24.9747   23.1418 C   0  0  0  0  0  0  0  0  0  0  0  0
  -31.5837  -18.6244   24.0980 C   0  0  0  0  0  0  0  0  0  0  0  0
  -31.8841  -16.8091   22.5323 C   0  0  0  0  0  0  0  0  0  0  0  0
  -22.4176   -8.5781   20.2496 C   0  0  0  0  0  0  0  0  0  0  0  0
  -23.1087   -8.7042   22.5612 C   0  0  0  0  0  0  0  0  0  0  0  0
  -29.7132  -24.4346   24.3436 C   0  0  0  0  0  0  0  0  0  0  0  0
  -19.4474   -7.7720   21.6500 C   0  0  0  0  0  0  0  0  0  0  0  0
  -18.1569   -7.6719   21.1301 C   0  0  0  0  0  0  0  0  0  0  0  0
  -27.4585  -23.7796   24.8973 C   0  0  0  0  0  0  0  0  0  0  0  0
  -29.6642  -17.6281   23.0209 C   0  0  0  0  0  0  0  0  0  0  0  0
  -18.8016   -5.6876   19.9119 C   0  0  0  0  0  0  0  0  0  0  0  0
  -23.8482  -10.3803   20.9861 C   0  0  0  0  0  0  0  0  0  0  0  0
  -24.1333  -12.9056   20.7640 C   0  0  0  0  0  0  0  0  0  0  0  0
  -25.7186  -31.5072   20.3844 C   0  0  0  0  0  0  0  0  0  0  0  0
  -27.8950  -24.9310   22.8131 C   0  0  0  0  0  0  0  0  0  0  0  0
  -26.3072  -30.6178   21.3036 C   0  0  0  0  0  0  0  0  0  0  0  0
  -26.9884  -24.3177   23.6895 C   0  0  0  0  0  0  0  0  0  0  0  0
  -30.2040  -18.5653   23.9019 C   0  0  0  0  0  0  0  0  0  0  0  0
  -30.5043  -16.7500   22.3362 C   0  0  0  0  0  0  0  0  0  0  0  0
  -22.4014   -8.0615   21.5451 C   0  0  0  0  0  0  0  0  0  0  0  0
  -28.8133  -23.8395   25.2229 C   0  0  0  0  0  0  0  0  0  0  0  0
  -20.4150   -6.8300   21.3007 C   0  0  0  0  0  0  0  0  0  0  0  0
  -17.8340   -6.6297   20.2611 C   0  0  0  0  0  0  0  0  0  0  0  0
  -20.0921   -5.7878   20.4317 C   0  0  0  0  0  0  0  0  0  0  0  0
  -24.5961  -11.5777   20.6978 C   0  0  0  0  0  0  0  0  0  0  0  0
  -25.2176  -13.6656   20.3992 C   0  0  0  0  0  0  0  0  0  0  0  0
  -27.4775  -20.5346   25.3482 C   0  0  0  0  0  0  0  0  0  0  0  0
  -28.5413  -21.0816   25.9406 C   0  0  0  0  0  0  0  0  0  0  0  0
  -27.9731  -19.4648   24.4594 C   0  0  0  0  0  0  0  0  0  0  0  0
  -22.8391  -13.4072   21.1232 C   0  0  0  0  0  0  0  0  0  0  0  0
  -25.6481  -27.1121   22.2673 C   0  0  0  0  0  0  0  0  0  0  0  0
  -23.8658  -24.5157   21.4899 C   0  0  0  0  0  0  0  0  0  0  0  0
  -23.3369  -21.1604   21.8198 C   0  0  0  0  0  0  0  0  0  0  0  0
  -30.6499  -14.8544   20.6833 C   0  0  0  0  0  0  0  0  0  0  0  0
  -24.2289  -31.5348   20.1499 C   0  0  0  0  0  0  0  0  0  0  0  0
  -27.4232  -25.4944   21.5007 C   0  0  0  0  0  0  0  0  0  0  0  0
  -25.5185  -24.2270   23.3742 C   0  0  0  0  0  0  0  0  0  0  0  0
  -29.8227  -20.4496   25.5183 C   0  0  0  0  0  0  0  0  0  0  0  0
  -23.5129  -30.2762   20.6329 C   0  0  0  0  0  0  0  0  0  0  0  0
  -29.6638  -12.3124   18.3936 C   0  0  0  0  0  0  0  0  0  0  0  0
  -23.9845  -29.8978   22.0333 C   0  0  0  0  0  0  0  0  0  0  0  0
  -28.2194  -12.0038   18.7944 C   0  0  0  0  0  0  0  0  0  0  0  0
  -30.5372  -12.6162   19.6096 C   0  0  0  0  0  0  0  0  0  0  0  0
  -28.5735  -13.3523   20.9023 C   0  0  0  0  0  0  0  0  0  0  0  0
  -25.4857  -29.5849   22.0441 C   0  0  1  0  0  0  0  0  0  0  0  0
  -25.9402  -25.8522   21.5026 C   0  0  1  0  0  0  0  0  0  0  0  0
  -27.6404  -13.1035   19.7060 C   0  0  2  0  0  0  0  0  0  0  0  0
  -29.1707  -21.8028   28.2445 C   0  0  0  0  0  0  0  0  0  0  0  0
  -21.7795  -19.3310   21.0951 C   0  0  0  0  0  0  0  0  0  0  0  0
  -21.7754  -25.5114   23.4771 C   0  0  0  0  0  0  0  0  0  0  0  0
  -20.7382  -23.2334   23.4208 C   0  0  0  0  0  0  0  0  0  0  0  0
  -20.8380  -24.6082   21.3417 C   0  0  0  0  0  0  0  0  0  0  0  0
  -25.5144  -19.6859   20.4621 C   0  0  0  0  0  0  0  0  0  0  0  0
  -28.5287  -22.2035   26.9253 C   0  0  1  0  0  0  0  0  0  1  0  0
  -22.9602  -23.5749   22.2474 C   0  0  1  0  0  0  0  0  0  0  0  0
  -23.0694  -20.0769   20.7908 C   0  0  2  0  0  0  0  0  0  0  0  0
  -21.6053  -24.2352   22.6289 C   0  0  0  0  0  0  0  0  0  0  0  0
  -25.8747  -11.4954   20.3205 N   0  0  0  0  0  0  0  0  0  0  0  0
  -26.2246  -12.7812   20.1462 N   0  0  0  0  0  0  0  0  0  0  0  0
  -29.3678  -19.4407   24.5840 N   0  0  0  0  0  0  0  0  0  0  0  0
  -25.1052  -24.7979   22.0817 N   0  0  0  0  0  0  0  0  0  0  0  0
  -29.9281  -13.6701   20.4240 N   0  0  0  0  0  0  0  0  0  0  0  0
  -25.3984  -14.9974   20.2732 N   0  0  0  0  0  0  0  0  0  0  0  0
  -21.8395  -12.4885   21.4714 N   0  0  0  0  0  0  0  0  0  0  0  0
  -29.9567  -15.7978   21.4411 N   0  0  0  0  0  0  0  0  0  0  0  0
  -25.7304  -28.2634   21.5074 N   0  0  0  0  0  0  0  0  0  0  0  0
  -22.8307  -22.3795   21.4212 N   0  0  0  0  0  0  0  0  0  0  0  0
  -24.1882  -19.0926   20.7723 N   0  3  0  0  0  0  0  0  0  0  0  0
  -27.2502  -18.7651   23.7687 O   0  0  0  0  0  0  0  0  0  0  0  0
  -22.5721  -14.6328   21.1191 O   0  0  0  0  0  0  0  0  0  0  0  0
  -25.3673  -27.0447   23.4582 O   0  0  0  0  0  0  0  0  0  0  0  0
  -23.4904  -24.9775   20.4094 O   0  0  0  0  0  0  0  0  0  0  0  0
  -23.9319  -20.9460   22.8736 O   0  0  0  0  0  0  0  0  0  0  0  0
  -31.7880  -15.0308   20.2411 O   0  0  0  0  0  0  0  0  0  0  0  0
  -21.6955   -6.9303   21.8183 O   0  0  0  0  0  0  0  0  0  0  0  0
  -29.2554  -23.3121   26.3969 O   0  0  0  0  0  0  0  0  0  1  0  0
  -16.5943   -6.5328   19.7632 F   0  0  0  0  0  0  0  0  0  0  0  0
  -21.0171   -4.8790   20.0935 F   0  0  0  0  0  0  0  0  0  0  0  0
  1  2  1  0  0  0  0
  1  6  2  0  0  0  0
  2  7  2  0  0  0  0
  3  9  2  0  0  0  0
  3 10  1  0  0  0  0
  4 11  2  0  0  0  0
  4 19  1  0  0  0  0
  5 12  1  0  0  0  0
  5 19  2  0  0  0  0
  6 21  1  0  0  0  0
  7 23  1  0  0  0  0
  8 13  2  0  0  0  0
  8 22  1  0  0  0  0
  9 25  1  0  0  0  0
 10 26  2  0  0  0  0
 11 27  1  0  0  0  0
 12 27  2  0  0  0  0
 13 28  1  0  0  0  0
 14 15  2  0  0  0  0
 14 29  1  0  0  0  0
 15 30  1  0  0  0  0
 16 24  1  0  0  0  0
 16 28  2  0  0  0  0
 17 25  2  0  0  0  0
 17 26  1  0  0  0  0
 18 30  2  0  0  0  0
 18 31  1  0  0  0  0
 19 32  1  0  0  0  0
 20 32  1  0  0  0  0
 20 33  2  0  0  0  0
 20 37  1  0  0  0  0
 21 23  2  0  0  0  0
 21 42  1  0  0  0  0
 22 24  2  0  0  0  0
 22 43  1  0  0  0  0
 23 52  1  0  0  0  0
 24 44  1  0  0  0  0
 25 67  1  0  0  0  0
 26 72  1  0  0  0  0
 27 82  1  0  0  0  0
 28 83  1  0  0  0  0
 29 31  2  0  0  0  0
 29 82  1  0  0  0  0
 30 84  1  0  0  0  0
 31 85  1  0  0  0  0
 32 65  2  0  0  0  0
 33 66  1  0  0  0  0
 33 70  1  0  0  0  0
 34 35  2  0  0  0  0
 34 36  1  0  0  0  0
 35 45  1  0  0  0  0
 35 61  1  0  0  0  0
 36 67  1  0  0  0  0
 36 76  2  0  0  0  0
 37 71  1  0  0  0  0
 37 77  2  0  0  0  0
 38 53  1  0  0  0  0
 38 73  1  0  0  0  0
 38 78  2  0  0  0  0
 39 62  1  0  0  0  0
 39 68  1  0  0  0  0
 39 79  2  0  0  0  0
 40 63  1  0  0  0  0
 40 74  1  0  0  0  0
 40 80  2  0  0  0  0
 41 69  1  0  0  0  0
 41 72  1  0  0  0  0
 41 81  2  0  0  0  0
 42 46  1  0  0  0  0
 43 53  1  0  0  0  0
 44 68  1  0  0  0  0
 45 67  1  0  0  0  0
 46 48  1  0  0  0  0
 47 49  1  0  0  0  0
 47 50  1  0  0  0  0
 48 52  1  0  0  0  0
 49 54  1  0  0  0  0
 50 69  1  0  0  0  0
 51 54  1  0  0  0  0
 51 69  1  0  0  0  0
 52 73  1  0  0  0  0
 53 68  1  0  0  0  0
 54 66  1  0  0  0  0
 55 61  1  0  0  0  0
 56 63  1  0  0  0  0
 57 64  1  0  0  0  0
 58 64  1  0  0  0  0
 59 64  1  0  0  0  0
 60 75  1  0  0  0  0
 61 83  1  0  0  0  0
 62 64  1  0  0  0  0
 62 74  1  0  0  0  0
 63 75  1  0  0  0  0
 65 66  1  0  0  0  0
M  CHG  1  75   1
M  ISO  4  41 100  61 101  72 100  83 101
M  END
> <Batch ID>
0058

> <Smiles>
CNC(C)C(=O)NC(C(=O)N1Cc2cc([101O:1][101C:1](C)=C3CC(=O)N(c4cccc([100NH:0][100C:0](=O)N5CCCC(n6nc(-c7ccc(Oc8ccc(F)cc8F)cc7)c(C(N)=O)c6N)C5)c4)C3)ccc2CC1C(=O)NC1CCCc2ccccc21)C(C)(C)C

> <Shape>
0.200

> <Color>
0.208

> <Negative vol penalty>
0.000

$$$$

  -OEChem-04042322583D

 83 91  0     1  0  0  0  0  0999 V2000
  -17.0931  -25.1755   24.1719 C   0  0  0  0  0  0  0  0  0  0  0  0
  -18.2713  -24.6441   24.6867 C   0  0  0  0  0  0  0  0  0  0  0  0
  -32.5347  -17.6724   23.3888 C   0  0  0  0  0  0  0  0  0  0  0  0
  -22.9991   -9.9253   20.0389 C   0  0  0  0  0  0  0  0  0  0  0  0
  -23.6972  -10.0534   22.3482 C   0  0  0  0  0  0  0  0  0  0  0  0
  -17.1460  -26.1931   23.2203 C   0  0  0  0  0  0  0  0  0  0  0  0
  -19.5032  -25.1294   24.2493 C   0  0  0  0  0  0  0  0  0  0  0  0
  -24.6160  -25.7201   27.5684 C   0  0  0  0  0  0  0  0  0  0  0  0
  -31.7238  -18.5836   24.0653 C   0  0  0  0  0  0  0  0  0  0  0  0
  -31.9645  -16.7437   22.5182 C   0  0  0  0  0  0  0  0  0  0  0  0
  -22.2400   -8.7923   20.3312 C   0  0  0  0  0  0  0  0  0  0  0  0
  -22.9381   -8.9203   22.6406 C   0  0  0  0  0  0  0  0  0  0  0  0
  -25.7520  -24.9212   27.6913 C   0  0  0  0  0  0  0  0  0  0  0  0
  -23.2183   -5.5710   22.2738 C   0  0  0  0  0  0  0  0  0  0  0  0
  -23.8065   -4.5829   23.0632 C   0  0  0  0  0  0  0  0  0  0  0  0
  -26.8787  -26.2809   26.0479 C   0  0  0  0  0  0  0  0  0  0  0  0
  -29.7723  -17.6372   23.0007 C   0  0  0  0  0  0  0  0  0  0  0  0
  -22.0613   -4.8604   24.7108 C   0  0  0  0  0  0  0  0  0  0  0  0
  -23.7278  -10.5559   21.0474 C   0  0  0  0  0  0  0  0  0  0  0  0
  -24.0921  -13.0685   20.7988 C   0  0  0  0  0  0  0  0  0  0  0  0
  -18.3791  -26.6978   22.7782 C   0  0  0  0  0  0  0  0  0  0  0  0
  -24.5991  -26.8006   26.6747 C   0  0  0  0  0  0  0  0  0  0  0  0
  -19.5727  -26.1539   23.2899 C   0  0  0  0  0  0  0  0  0  0  0  0
  -25.7422  -27.0935   25.9173 C   0  0  0  0  0  0  0  0  0  0  0  0
  -30.3426  -18.5660   23.8713 C   0  0  0  0  0  0  0  0  0  0  0  0
  -30.5833  -16.7261   22.3242 C   0  0  0  0  0  0  0  0  0  0  0  0
  -22.2094   -8.2898   21.6320 C   0  0  0  0  0  0  0  0  0  0  0  0
  -26.8826  -25.1998   26.9290 C   0  0  0  0  0  0  0  0  0  0  0  0
  -22.0517   -6.2039   22.7029 C   0  0  0  0  0  0  0  0  0  0  0  0
  -23.2279   -4.2275   24.2817 C   0  0  0  0  0  0  0  0  0  0  0  0
  -21.4732   -5.8486   23.9213 C   0  0  0  0  0  0  0  0  0  0  0  0
  -24.5126  -11.7260   20.7459 C   0  0  0  0  0  0  0  0  0  0  0  0
  -25.1993  -13.7901   20.4250 C   0  0  0  0  0  0  0  0  0  0  0  0
  -28.7499  -21.2464   25.9621 C   0  0  0  0  0  0  0  0  0  0  0  0
  -28.9213  -22.2446   26.8398 C   0  0  0  0  0  0  0  0  0  0  0  0
  -22.8148  -13.6143   21.1542 C   0  0  0  0  0  0  0  0  0  0  0  0
  -29.9226  -20.4749   25.4528 C   0  0  0  0  0  0  0  0  0  0  0  0
  -22.8934  -27.5566   24.1012 C   0  0  0  0  0  0  0  0  0  0  0  0
  -24.5307  -30.3486   24.3158 C   0  0  0  0  0  0  0  0  0  0  0  0
  -27.3070  -32.0022   25.4134 C   0  0  0  0  0  0  0  0  0  0  0  0
  -30.6667  -14.8099   20.6909 C   0  0  0  0  0  0  0  0  0  0  0  0
  -18.3866  -27.7657   21.7132 C   0  0  0  0  0  0  0  0  0  0  0  0
  -23.3750  -27.6689   26.5734 C   0  0  0  0  0  0  0  0  0  0  0  0
  -25.7821  -28.2543   24.9584 C   0  0  0  0  0  0  0  0  0  0  0  0
  -19.7275  -28.4827   21.5790 C   0  0  0  0  0  0  0  0  0  0  0  0
  -29.5977  -12.2767   18.4287 C   0  0  0  0  0  0  0  0  0  0  0  0
  -20.8719  -27.4744   21.5539 C   0  0  0  0  0  0  0  0  0  0  0  0
  -28.1449  -12.0181   18.8342 C   0  0  0  0  0  0  0  0  0  0  0  0
  -30.4820  -12.5654   19.6405 C   0  0  0  0  0  0  0  0  0  0  0  0
  -28.5443  -13.3764   20.9277 C   0  0  0  0  0  0  0  0  0  0  0  0
  -20.9280  -26.6709   22.8588 C   0  0  1  0  0  0  0  0  0  0  0  0
  -23.2916  -28.4325   25.2553 C   0  0  1  0  0  0  0  0  0  0  0  0
  -27.6021  -13.1448   19.7351 C   0  0  2  0  0  0  0  0  0  0  0  0
  -28.3812  -34.2701   25.4046 C   0  0  0  0  0  0  0  0  0  0  0  0
  -25.3526  -29.9455   21.4051 C   0  0  0  0  0  0  0  0  0  0  0  0
  -27.1362  -31.6698   21.7427 C   0  0  0  0  0  0  0  0  0  0  0  0
  -24.7349  -32.2950   21.9988 C   0  0  0  0  0  0  0  0  0  0  0  0
  -27.2443  -32.1712   28.3674 C   0  0  0  0  0  0  0  0  0  0  0  0
  -27.7914  -23.0517   27.3931 C   0  0  0  0  0  0  0  0  0  1  0  0
  -25.8390  -30.8656   23.7679 C   0  0  1  0  0  0  0  0  0  0  0  0
  -27.4688  -33.3150   26.1583 C   0  0  2  0  0  0  0  0  0  0  0  0
  -25.7646  -31.1708   22.2452 C   0  0  0  0  0  0  0  0  0  0  0  0
  -25.7875  -11.5996   20.3681 N   0  0  0  0  0  0  0  0  0  0  0  0
  -26.1775  -12.8718   20.1801 N   0  0  0  0  0  0  0  0  0  0  0  0
  -24.5584  -29.0700   24.8902 N   0  0  0  0  0  0  0  0  0  0  0  0
  -29.9076  -13.6463   20.4446 N   0  0  0  0  0  0  0  0  0  0  0  0
  -25.4218  -15.1143   20.2850 N   0  0  0  0  0  0  0  0  0  0  0  0
  -21.7873  -12.7313   21.5130 N   0  0  0  0  0  0  0  0  0  0  0  0
  -29.5197  -19.4920   24.5583 N   0  0  0  0  0  0  0  0  0  0  0  0
  -30.0047  -15.7824   21.4396 N   0  0  0  0  0  0  0  0  0  0  0  0
  -21.5278  -27.4604   23.9130 N   0  0  0  0  0  0  0  0  0  0  0  0
  -26.2005  -32.0148   24.5907 N   0  0  0  0  0  0  0  0  0  0  0  0
  -28.0516  -33.0757   27.5089 N   0  3  0  0  0  0  0  0  0  0  0  0
  -22.5865  -14.8477   21.1377 O   0  0  0  0  0  0  0  0  0  0  0  0
  -31.0624  -20.7326   25.8214 O   0  0  0  0  0  0  0  0  0  0  0  0
  -23.7608  -27.0098   23.4303 O   0  0  0  0  0  0  0  0  0  0  0  0
  -23.5230  -31.0563   24.2433 O   0  0  0  0  0  0  0  0  0  0  0  0
  -28.0865  -31.0611   25.5450 O   0  0  0  0  0  0  0  0  0  0  0  0
  -31.8092  -14.9457   20.2456 O   0  0  0  0  0  0  0  0  0  0  0  0
  -21.4686   -7.1843   21.9176 O   0  0  0  0  0  0  0  0  0  0  0  0
  -27.9925  -24.4213   27.0466 O   0  0  0  0  0  0  0  0  0  1  0  0
  -23.7920   -3.2774   25.0389 F   0  0  0  0  0  0  0  0  0  0  0  0
  -20.3518   -6.4522   24.3383 F   0  0  0  0  0  0  0  0  0  0  0  0
  1  2  1  0  0  0  0
  1  6  2  0  0  0  0
  2  7  2  0  0  0  0
  3  9  2  0  0  0  0
  3 10  1  0  0  0  0
  4 11  2  0  0  0  0
  4 19  1  0  0  0  0
  5 12  1  0  0  0  0
  5 19  2  0  0  0  0
  6 21  1  0  0  0  0
  7 23  1  0  0  0  0
  8 13  2  0  0  0  0
  8 22  1  0  0  0  0
  9 25  1  0  0  0  0
 10 26  2  0  0  0  0
 11 27  1  0  0  0  0
 12 27  2  0  0  0  0
 13 28  1  0  0  0  0
 14 15  2  0  0  0  0
 14 29  1  0  0  0  0
 15 30  1  0  0  0  0
 16 24  1  0  0  0  0
 16 28  2  0  0  0  0
 17 25  2  0  0  0  0
 17 26  1  0  0  0  0
 18 30  2  0  0  0  0
 18 31  1  0  0  0  0
 19 32  1  0  0  0  0
 20 32  1  0  0  0  0
 20 33  2  0  0  0  0
 20 36  1  0  0  0  0
 21 23  2  0  0  0  0
 21 42  1  0  0  0  0
 22 24  2  0  0  0  0
 22 43  1  0  0  0  0
 23 51  1  0  0  0  0
 24 44  1  0  0  0  0
 25 69  1  0  0  0  0
 26 70  1  0  0  0  0
 27 80  1  0  0  0  0
 28 81  1  0  0  0  0
 29 31  2  0  0  0  0
 29 80  1  0  0  0  0
 30 82  1  0  0  0  0
 31 83  1  0  0  0  0
 32 63  2  0  0  0  0
 33 64  1  0  0  0  0
 33 67  1  0  0  0  0
 34 35  2  0  0  0  0
 34 37  1  0  0  0  0
 35 59  1  0  0  0  0
 36 68  1  0  0  0  0
 36 74  2  0  0  0  0
 37 69  1  0  0  0  0
 37 75  2  0  0  0  0
 38 52  1  0  0  0  0
 38 71  1  0  0  0  0
 38 76  2  0  0  0  0
 39 60  1  0  0  0  0
 39 65  1  0  0  0  0
 39 77  2  0  0  0  0
 40 61  1  0  0  0  0
 40 72  1  0  0  0  0
 40 78  2  0  0  0  0
 41 66  1  0  0  0  0
 41 70  1  0  0  0  0
 41 79  2  0  0  0  0
 42 45  1  0  0  0  0
 43 52  1  0  0  0  0
 44 65  1  0  0  0  0
 45 47  1  0  0  0  0
 46 48  1  0  0  0  0
 46 49  1  0  0  0  0
 47 51  1  0  0  0  0
 48 53  1  0  0  0  0
 49 66  1  0  0  0  0
 50 53  1  0  0  0  0
 50 66  1  0  0  0  0
 51 71  1  0  0  0  0
 52 65  1  0  0  0  0
 53 64  1  0  0  0  0
 54 61  1  0  0  0  0
 55 62  1  0  0  0  0
 56 62  1  0  0  0  0
 57 62  1  0  0  0  0
 58 73  1  0  0  0  0
 59 81  1  0  0  0  0
 60 62  1  0  0  0  0
 60 72  1  0  0  0  0
 61 73  1  0  0  0  0
 63 64  1  0  0  0  0
M  CHG  1  73   1
M  ISO  4  41 100  59 101  70 100  81 101
M  END
> <Batch ID>
0058

> <Smiles>
CNC(C)C(=O)NC(C(=O)N1Cc2cc([101O:1][101CH2:1]C=CC(=O)Nc3cccc([100NH:0][100C:0](=O)N4CCCC(n5nc(-c6ccc(Oc7ccc(F)cc7F)cc6)c(C(N)=O)c5N)C4)c3)ccc2CC1C(=O)NC1CCCc2ccccc21)C(C)(C)C

> <Shape>
0.309

> <Color>
0.222

> <Negative vol penalty>
0.000

$$$$

  -OEChem-04042322583D

 86 95  0     1  0  0  0  0  0999 V2000
  -27.6218  -32.1005   27.6239 C   0  0  0  0  0  0  0  0  0  0  0  0
  -27.8371  -31.0965   26.6852 C   0  0  0  0  0  0  0  0  0  0  0  0
  -22.7572  -12.7754   22.8274 C   0  0  0  0  0  0  0  0  0  0  0  0
  -24.3619  -11.1258   23.5628 C   0  0  0  0  0  0  0  0  0  0  0  0
  -26.3219  -32.5048   27.9248 C   0  0  0  0  0  0  0  0  0  0  0  0
  -26.7523  -30.4953   26.0478 C   0  0  0  0  0  0  0  0  0  0  0  0
  -27.4723  -29.9765   21.0621 C   0  0  0  0  0  0  0  0  0  0  0  0
  -30.6626  -19.8043   20.4587 C   0  0  0  0  0  0  0  0  0  0  0  0
  -30.4730  -18.4473   20.1974 C   0  0  0  0  0  0  0  0  0  0  0  0
  -22.0830  -12.6615   24.0432 C   0  0  0  0  0  0  0  0  0  0  0  0
  -23.6877  -11.0119   24.7786 C   0  0  0  0  0  0  0  0  0  0  0  0
  -28.2903  -28.9285   20.6425 C   0  0  0  0  0  0  0  0  0  0  0  0
  -20.9083   -9.4864   25.9527 C   0  0  0  0  0  0  0  0  0  0  0  0
  -20.6755   -8.2030   26.4470 C   0  0  0  0  0  0  0  0  0  0  0  0
  -26.3335  -27.6173   20.1221 C   0  0  0  0  0  0  0  0  0  0  0  0
  -28.2840  -20.1757   20.2555 C   0  0  0  0  0  0  0  0  0  0  0  0
  -21.9485   -8.7360   28.4301 C   0  0  0  0  0  0  0  0  0  0  0  0
  -23.8966  -12.0075   22.5872 C   0  0  0  0  0  0  0  0  0  0  0  0
  -24.0773  -11.8704   20.0463 C   0  0  0  0  0  0  0  0  0  0  0  0
  -25.2211  -31.9150   27.2837 C   0  0  0  0  0  0  0  0  0  0  0  0
  -26.0763  -29.8486   21.0250 C   0  0  0  0  0  0  0  0  0  0  0  0
  -25.4363  -30.8912   26.3414 C   0  0  0  0  0  0  0  0  0  0  0  0
  -25.4999  -28.6662   20.5394 C   0  0  0  0  0  0  0  0  0  0  0  0
  -29.5681  -20.6685   20.4878 C   0  0  0  0  0  0  0  0  0  0  0  0
  -29.1890  -17.9545   19.9651 C   0  0  0  0  0  0  0  0  0  0  0  0
  -22.5482  -11.7798   25.0188 C   0  0  0  0  0  0  0  0  0  0  0  0
  -27.7210  -27.7475   20.1752 C   0  0  0  0  0  0  0  0  0  0  0  0
  -21.6612  -10.3946   26.6971 C   0  0  0  0  0  0  0  0  0  0  0  0
  -21.1956   -7.8278   27.6857 C   0  0  0  0  0  0  0  0  0  0  0  0
  -28.0944  -18.8187   19.9942 C   0  0  0  0  0  0  0  0  0  0  0  0
  -22.1813  -10.0194   27.9357 C   0  0  0  0  0  0  0  0  0  0  0  0
  -24.5932  -12.1242   21.3313 C   0  0  0  0  0  0  0  0  0  0  0  0
  -25.1272  -12.1255   19.1983 C   0  0  0  0  0  0  0  0  0  0  0  0
  -30.8242  -22.5154   21.5708 C   0  0  0  0  0  0  0  0  0  0  0  0
  -22.7663  -11.4424   19.6543 C   0  0  0  0  0  0  0  0  0  0  0  0
  -23.7607  -29.8967   23.2020 C   0  0  0  0  0  0  0  0  0  0  0  0
  -21.8379  -29.7685   20.5927 C   0  0  0  0  0  0  0  0  0  0  0  0
  -21.7890  -28.0125   17.4413 C   0  0  0  0  0  0  0  0  0  0  0  0
  -29.9794  -15.5855   19.6346 C   0  0  0  0  0  0  0  0  0  0  0  0
  -23.8322  -32.3524   27.6766 C   0  0  0  0  0  0  0  0  0  0  0  0
  -25.2076  -30.9984   21.4560 C   0  0  0  0  0  0  0  0  0  0  0  0
  -24.0066  -28.4862   20.4603 C   0  0  0  0  0  0  0  0  0  0  0  0
  -31.1078  -23.9979   21.5698 C   0  0  0  0  0  0  0  0  0  0  0  0
  -22.7552  -31.9255   26.6826 C   0  0  0  0  0  0  0  0  0  0  0  0
  -29.9135  -12.0750   19.0436 C   0  0  0  0  0  0  0  0  0  0  0  0
  -22.9347  -30.4605   26.2974 C   0  0  0  0  0  0  0  0  0  0  0  0
  -28.4928  -11.6672   19.4405 C   0  0  0  0  0  0  0  0  0  0  0  0
  -30.4649  -13.1696   19.9555 C   0  0  0  0  0  0  0  0  0  0  0  0
  -28.1885  -13.9476   20.4865 C   0  0  0  0  0  0  0  0  0  0  0  0
  -28.7063  -23.0042   20.3185 C   0  0  0  0  0  0  0  0  0  0  0  0
  -24.2866  -30.2322   25.6106 C   0  0  1  0  0  0  0  0  0  0  0  0
  -23.8007  -30.5665   21.8576 C   0  0  1  0  0  0  0  0  0  0  0  0
  -27.5661  -12.8933   19.5565 C   0  0  2  0  0  0  0  0  0  0  0  0
  -29.1703  -24.4407   20.1289 C   0  0  1  0  0  0  0  0  0  0  0  0
  -20.7630  -28.6410   15.2391 C   0  0  0  0  0  0  0  0  0  0  0  0
  -19.4506  -28.1380   21.5684 C   0  0  0  0  0  0  0  0  0  0  0  0
  -19.1598  -27.2938   19.2294 C   0  0  0  0  0  0  0  0  0  0  0  0
  -18.9363  -29.7313   19.7106 C   0  0  0  0  0  0  0  0  0  0  0  0
  -24.3660  -27.7006   16.0199 C   0  0  0  0  0  0  0  0  0  0  0  0
  -28.0066  -25.3998   19.9254 C   0  0  0  0  0  0  0  0  0  1  0  0
  -21.2263  -28.6613   19.7687 C   0  0  1  0  0  0  0  0  0  0  0  0
  -22.0385  -28.6057   16.0664 C   0  0  2  0  0  0  0  0  0  0  0  0
  -19.7179  -28.4525   20.0830 C   0  0  0  0  0  0  0  0  0  0  0  0
  -25.8715  -12.5107   21.3067 N   0  0  0  0  0  0  0  0  0  0  0  0
  -26.1677  -12.5016   19.9959 N   0  0  0  0  0  0  0  0  0  0  0  0
  -29.7646  -22.0765   20.7582 N   0  0  0  0  0  0  0  0  0  0  0  0
  -23.1997  -29.6367   20.8992 N   0  0  0  0  0  0  0  0  0  0  0  0
  -29.5362  -14.3006   20.0133 N   0  0  0  0  0  0  0  0  0  0  0  0
  -25.2527  -12.0624   17.8557 N   0  0  0  0  0  0  0  0  0  0  0  0
  -22.5126  -10.0672   19.5604 N   0  0  0  0  0  0  0  0  0  0  0  0
  -28.9996  -16.5756   19.6995 N   0  0  0  0  0  0  0  0  0  0  0  0
  -24.2370  -30.6806   24.2355 N   0  0  0  0  0  0  0  0  0  0  0  0
  -21.5066  -28.9874   18.3746 N   0  0  0  0  0  0  0  0  0  0  0  0
  -29.9012  -24.8311   21.3617 N   0  3  0  0  0  0  0  0  0  0  0  0
  -23.0536  -27.7997   15.3309 N   0  3  0  0  0  0  0  0  0  0  0  0
  -31.5679  -21.7876   22.2344 O   0  0  0  0  0  0  0  0  0  0  0  0
  -21.8517  -12.2556   19.3790 O   0  0  0  0  0  0  0  0  0  0  0  0
  -23.3284  -28.7538   23.2949 O   0  0  0  0  0  0  0  0  0  0  0  0
  -21.1350  -30.7190   20.9451 O   0  0  0  0  0  0  0  0  0  0  0  0
  -21.8359  -26.8047   17.6641 O   0  0  0  0  0  0  0  0  0  0  0  0
  -31.1351  -15.7870   19.2530 O   0  0  0  0  0  0  0  0  0  0  0  0
  -21.8907  -11.6686   26.2053 O   0  0  0  0  0  0  0  0  0  0  0  0
  -28.5172  -26.7227   19.7657 O   0  0  0  0  0  0  0  0  0  1  0  0
  -20.9708   -6.5958   28.1609 F   0  0  0  0  0  0  0  0  0  0  0  0
  -26.8558  -18.3565   19.7709 F   0  0  0  0  0  0  0  0  0  0  0  0
  -22.9044  -10.8879   28.6559 F   0  0  0  0  0  0  0  0  0  0  0  0
  1  2  1  0  0  0  0
  1  5  2  0  0  0  0
  2  6  2  0  0  0  0
  3 10  2  0  0  0  0
  3 18  1  0  0  0  0
  4 11  1  0  0  0  0
  4 18  2  0  0  0  0
  5 20  1  0  0  0  0
  6 22  1  0  0  0  0
  7 12  2  0  0  0  0
  7 21  1  0  0  0  0
  8  9  2  0  0  0  0
  8 24  1  0  0  0  0
  9 25  1  0  0  0  0
 10 26  1  0  0  0  0
 11 26  2  0  0  0  0
 12 27  1  0  0  0  0
 13 14  2  0  0  0  0
 13 28  1  0  0  0  0
 14 29  1  0  0  0  0
 15 23  1  0  0  0  0
 15 27  2  0  0  0  0
 16 24  2  0  0  0  0
 16 30  1  0  0  0  0
 17 29  2  0  0  0  0
 17 31  1  0  0  0  0
 18 32  1  0  0  0  0
 19 32  1  0  0  0  0
 19 33  2  0  0  0  0
 19 35  1  0  0  0  0
 20 22  2  0  0  0  0
 20 40  1  0  0  0  0
 21 23  2  0  0  0  0
 21 41  1  0  0  0  0
 22 51  1  0  0  0  0
 23 42  1  0  0  0  0
 24 66  1  0  0  0  0
 25 30  2  0  0  0  0
 25 71  1  0  0  0  0
 26 82  1  0  0  0  0
 27 83  1  0  0  0  0
 28 31  2  0  0  0  0
 28 82  1  0  0  0  0
 29 84  1  0  0  0  0
 30 85  1  0  0  0  0
 31 86  1  0  0  0  0
 32 64  2  0  0  0  0
 33 65  1  0  0  0  0
 33 69  1  0  0  0  0
 34 43  1  0  0  0  0
 34 66  1  0  0  0  0
 34 76  2  0  0  0  0
 35 70  1  0  0  0  0
 35 77  2  0  0  0  0
 36 52  1  0  0  0  0
 36 72  1  0  0  0  0
 36 78  2  0  0  0  0
 37 61  1  0  0  0  0
 37 67  1  0  0  0  0
 37 79  2  0  0  0  0
 38 62  1  0  0  0  0
 38 73  1  0  0  0  0
 38 80  2  0  0  0  0
 39 68  1  0  0  0  0
 39 71  1  0  0  0  0
 39 81  2  0  0  0  0
 40 44  1  0  0  0  0
 41 52  1  0  0  0  0
 42 67  1  0  0  0  0
 43 74  1  0  0  0  0
 44 46  1  0  0  0  0
 45 47  1  0  0  0  0
 45 48  1  0  0  0  0
 46 51  1  0  0  0  0
 47 53  1  0  0  0  0
 48 68  1  0  0  0  0
 49 53  1  0  0  0  0
 49 68  1  0  0  0  0
 50 54  1  0  0  0  0
 50 66  1  0  0  0  0
 51 72  1  0  0  0  0
 52 67  1  0  0  0  0
 53 65  1  0  0  0  0
 54 60  1  0  0  0  0
 54 74  1  0  0  0  0
 55 62  1  0  0  0  0
 56 63  1  0  0  0  0
 57 63  1  0  0  0  0
 58 63  1  0  0  0  0
 59 75  1  0  0  0  0
 60 83  1  0  0  0  0
 61 63  1  0  0  0  0
 61 73  1  0  0  0  0
 62 75  1  0  0  0  0
 64 65  1  0  0  0  0
M  CHG  2  74   1  75   1
M  ISO  4  39 100  60 101  71 100  83 101
M  END
> <Batch ID>
0058

> <Smiles>
CNC(C)C(=O)NC(C(=O)N1Cc2cc([101O:1][101CH2:1]C3CN(c4ccc([100NH:0][100C:0](=O)N5CCCC(n6nc(-c7ccc(Oc8ccc(F)cc8F)cc7)c(C(N)=O)c6N)C5)c(F)c4)C(=O)CN3)ccc2CC1C(=O)NC1CCCc2ccccc21)C(C)(C)C

> <Shape>
0.273

> <Color>
0.097

> <Negative vol penalty>
0.000

$$$$

  -OEChem-04042322583D

 85 93  0     1  0  0  0  0  0999 V2000
  -29.2171  -26.2426   15.5256 C   0  0  0  0  0  0  0  0  0  0  0  0
  -27.9948  -26.1676   16.1858 C   0  0  0  0  0  0  0  0  0  0  0  0
  -26.2900  -13.1685   20.8858 C   0  0  0  0  0  0  0  0  0  0  0  0
  -24.6061  -14.5628   19.8574 C   0  0  0  0  0  0  0  0  0  0  0  0
  -30.3311  -26.7653   16.1810 C   0  0  0  0  0  0  0  0  0  0  0  0
  -27.8862  -26.6143   17.5023 C   0  0  0  0  0  0  0  0  0  0  0  0
  -23.7436  -29.4256   18.2643 C   0  0  0  0  0  0  0  0  0  0  0  0
  -21.6418  -22.7785   25.4383 C   0  0  0  0  0  0  0  0  0  0  0  0
  -22.8335  -22.0562   25.3792 C   0  0  0  0  0  0  0  0  0  0  0  0
  -25.5517  -12.0324   20.5545 C   0  0  0  0  0  0  0  0  0  0  0  0
  -23.8677  -13.4266   19.5261 C   0  0  0  0  0  0  0  0  0  0  0  0
  -22.5319  -28.7499   18.4012 C   0  0  0  0  0  0  0  0  0  0  0  0
  -22.8381  -10.3957   21.7299 C   0  0  0  0  0  0  0  0  0  0  0  0
  -22.6809   -9.4169   22.7112 C   0  0  0  0  0  0  0  0  0  0  0  0
  -22.5475  -21.7794   22.9962 C   0  0  0  0  0  0  0  0  0  0  0  0
  -22.6800  -28.9822   20.7977 C   0  0  0  0  0  0  0  0  0  0  0  0
  -23.7757   -7.8069   21.2807 C   0  0  0  0  0  0  0  0  0  0  0  0
  -25.8172  -14.4337   20.5373 C   0  0  0  0  0  0  0  0  0  0  0  0
  -21.3557  -22.5018   23.0553 C   0  0  0  0  0  0  0  0  0  0  0  0
  -27.5719  -16.2336   20.1021 C   0  0  0  0  0  0  0  0  0  0  0  0
  -30.2338  -27.2275   17.5030 C   0  0  0  0  0  0  0  0  0  0  0  0
  -24.4393  -29.8759   19.3956 C   0  0  0  0  0  0  0  0  0  0  0  0
  -29.0003  -27.1424   18.1764 C   0  0  0  0  0  0  0  0  0  0  0  0
  -23.8991  -29.6656   20.6724 C   0  0  0  0  0  0  0  0  0  0  0  0
  -20.9028  -23.0013   24.2764 C   0  0  0  0  0  0  0  0  0  0  0  0
  -23.2864  -21.5566   24.1581 C   0  0  0  0  0  0  0  0  0  0  0  0
  -24.3406  -12.1614   19.8747 C   0  0  0  0  0  0  0  0  0  0  0  0
  -22.0013  -28.5255   19.6682 C   0  0  0  0  0  0  0  0  0  0  0  0
  -23.4640  -10.0800   20.5240 C   0  0  0  0  0  0  0  0  0  0  0  0
  -23.1498   -8.1226   22.4866 C   0  0  0  0  0  0  0  0  0  0  0  0
  -23.9329   -8.7857   20.2994 C   0  0  0  0  0  0  0  0  0  0  0  0
  -26.5791  -15.6077   20.8797 C   0  0  0  0  0  0  0  0  0  0  0  0
  -27.9857  -17.2978   20.8654 C   0  0  0  0  0  0  0  0  0  0  0  0
  -20.5883  -22.7268   21.8140 C   0  0  0  0  0  0  0  0  0  0  0  0
  -28.0749  -15.8842   18.8057 C   0  0  0  0  0  0  0  0  0  0  0  0
  -27.2850  -29.2606   20.6712 C   0  0  0  0  0  0  0  0  0  0  0  0
  -26.4615  -31.6568   22.6966 C   0  0  0  0  0  0  0  0  0  0  0  0
  -23.9825  -33.4873   24.1632 C   0  0  0  0  0  0  0  0  0  0  0  0
  -20.9471  -26.4689   19.9291 C   0  0  0  0  0  0  0  0  0  1  0  0
  -25.3499  -20.5128   25.1574 C   0  0  0  0  0  0  0  0  0  0  0  0
  -31.4768  -27.7406   18.1859 C   0  0  0  0  0  0  0  0  0  0  0  0
  -25.7320  -30.6267   19.2296 C   0  0  0  0  0  0  0  0  0  0  0  0
  -24.5966  -30.1467   21.9176 C   0  0  0  0  0  0  0  0  0  0  0  0
  -31.1890  -28.5384   19.4552 C   0  0  0  0  0  0  0  0  0  0  0  0
  -28.4014  -18.6980   25.4262 C   0  0  0  0  0  0  0  0  0  0  0  0
  -30.1743  -27.8060   20.3275 C   0  0  0  0  0  0  0  0  0  0  0  0
  -28.3736  -17.7608   24.2166 C   0  0  0  0  0  0  0  0  0  0  0  0
  -27.0111  -18.8844   26.0313 C   0  0  0  0  0  0  0  0  0  0  0  0
  -25.9440  -18.3654   23.8724 C   0  0  0  0  0  0  0  0  0  0  0  0
  -28.8367  -27.6395   19.5964 C   0  0  1  0  0  0  0  0  0  0  0  0
  -26.6095  -30.5887   20.4770 C   0  0  1  0  0  0  0  0  0  0  0  0
  -27.3111  -18.1981   23.1893 C   0  0  2  0  0  0  0  0  0  0  0  0
  -19.6304  -23.7785   24.3653 C   0  0  0  0  0  0  0  0  0  0  0  0
  -23.6172  -35.3515   25.8029 C   0  0  0  0  0  0  0  0  0  0  0  0
  -27.0480  -29.7430   24.9995 C   0  0  0  0  0  0  0  0  0  0  0  0
  -25.7875  -31.2886   26.5130 C   0  0  0  0  0  0  0  0  0  0  0  0
  -27.8508  -32.0842   25.3585 C   0  0  0  0  0  0  0  0  0  0  0  0
  -22.6761  -35.1838   22.1202 C   0  0  0  0  0  0  0  0  0  0  0  0
  -19.5724  -25.8503   20.0737 C   0  0  0  0  0  0  0  0  0  0  0  0
  -19.6210  -24.3374   20.2117 C   0  0  0  0  0  0  0  0  0  0  0  0
  -25.7355  -31.7379   24.0177 C   0  0  1  0  0  0  0  0  0  0  0  0
  -23.8055  -34.9847   24.3391 C   0  0  2  0  0  0  0  0  0  0  0  0
  -26.5930  -31.2025   25.1990 C   0  0  0  0  0  0  0  0  0  0  0  0
  -26.3747  -16.2230   22.0475 N   0  0  0  0  0  0  0  0  0  0  0  0
  -27.2448  -17.2465   22.0093 N   0  0  0  0  0  0  0  0  0  0  0  0
  -25.8608  -30.8702   21.7036 N   0  0  0  0  0  0  0  0  0  0  0  0
  -26.0585  -19.3028   25.0006 N   0  0  0  0  0  0  0  0  0  0  0  0
  -28.9075  -18.2631   20.6629 N   0  0  0  0  0  0  0  0  0  0  0  0
  -20.1514  -21.6607   21.1436 N   0  0  0  0  0  0  0  0  0  0  0  0
  -27.5390  -14.7606   18.1617 N   0  0  0  0  0  0  0  0  0  0  0  0
  -24.4971  -20.8229   24.0986 N   0  0  0  0  0  0  0  0  0  0  0  0
  -28.0921  -28.8804   19.6160 N   0  0  0  0  0  0  0  0  0  0  0  0
  -25.3133  -33.1264   24.1670 N   0  0  0  0  0  0  0  0  0  0  0  0
  -20.3703  -23.9876   21.4206 N   0  3  0  0  0  0  0  0  0  0  0  0
  -22.6144  -35.4583   23.5789 N   0  3  0  0  0  0  0  0  0  0  0  0
  -28.9845  -16.5391   18.2425 O   0  0  0  0  0  0  0  0  0  0  0  0
  -27.0896  -28.6284   21.7026 O   0  0  0  0  0  0  0  0  0  0  0  0
  -27.5189  -32.2746   22.5488 O   0  0  0  0  0  0  0  0  0  0  0  0
  -23.0349  -32.7146   24.0389 O   0  0  0  0  0  0  0  0  0  0  0  0
  -22.0049  -25.8540   19.9155 O   0  0  0  0  0  0  0  0  0  0  0  0
  -25.5097  -21.2352   26.1446 O   0  0  0  0  0  0  0  0  0  0  0  0
  -23.6200  -11.0530   19.5510 O   0  0  0  0  0  0  0  0  0  0  0  0
  -20.8190  -27.8656   19.8047 O   0  0  0  0  0  0  0  0  0  1  0  0
  -23.0001   -7.1832   23.4297 F   0  0  0  0  0  0  0  0  0  0  0  0
  -24.5361   -8.4768   19.1433 F   0  0  0  0  0  0  0  0  0  0  0  0
  1  2  1  0  0  0  0
  1  5  2  0  0  0  0
  2  6  2  0  0  0  0
  3 10  2  0  0  0  0
  3 18  1  0  0  0  0
  4 11  1  0  0  0  0
  4 18  2  0  0  0  0
  5 21  1  0  0  0  0
  6 23  1  0  0  0  0
  7 12  2  0  0  0  0
  7 22  1  0  0  0  0
  8  9  2  0  0  0  0
  8 25  1  0  0  0  0
  9 26  1  0  0  0  0
 10 27  1  0  0  0  0
 11 27  2  0  0  0  0
 12 28  1  0  0  0  0
 13 14  2  0  0  0  0
 13 29  1  0  0  0  0
 14 30  1  0  0  0  0
 15 19  1  0  0  0  0
 15 26  2  0  0  0  0
 16 24  1  0  0  0  0
 16 28  2  0  0  0  0
 17 30  2  0  0  0  0
 17 31  1  0  0  0  0
 18 32  1  0  0  0  0
 19 25  2  0  0  0  0
 19 34  1  0  0  0  0
 20 32  1  0  0  0  0
 20 33  2  0  0  0  0
 20 35  1  0  0  0  0
 21 23  2  0  0  0  0
 21 41  1  0  0  0  0
 22 24  2  0  0  0  0
 22 42  1  0  0  0  0
 23 50  1  0  0  0  0
 24 43  1  0  0  0  0
 25 53  1  0  0  0  0
 26 71  1  0  0  0  0
 27 82  1  0  0  0  0
 28 83  1  0  0  0  0
 29 31  2  0  0  0  0
 29 82  1  0  0  0  0
 30 84  1  0  0  0  0
 31 85  1  0  0  0  0
 32 64  2  0  0  0  0
 33 65  1  0  0  0  0
 33 68  1  0  0  0  0
 34 69  1  0  0  0  0
 34 74  2  0  0  0  0
 35 70  1  0  0  0  0
 35 76  2  0  0  0  0
 36 51  1  0  0  0  0
 36 72  1  0  0  0  0
 36 77  2  0  0  0  0
 37 61  1  0  0  0  0
 37 66  1  0  0  0  0
 37 78  2  0  0  0  0
 38 62  1  0  0  0  0
 38 73  1  0  0  0  0
 38 79  2  0  0  0  0
 39 59  1  0  0  0  0
 39 80  2  0  0  0  0
 39 83  1  0  0  0  0
 40 67  1  0  0  0  0
 40 71  1  0  0  0  0
 40 81  2  0  0  0  0
 41 44  1  0  0  0  0
 42 51  1  0  0  0  0
 43 66  1  0  0  0  0
 44 46  1  0  0  0  0
 45 47  1  0  0  0  0
 45 48  1  0  0  0  0
 46 50  1  0  0  0  0
 47 52  1  0  0  0  0
 48 67  1  0  0  0  0
 49 52  1  0  0  0  0
 49 67  1  0  0  0  0
 50 72  1  0  0  0  0
 51 66  1  0  0  0  0
 52 65  1  0  0  0  0
 54 62  1  0  0  0  0
 55 63  1  0  0  0  0
 56 63  1  0  0  0  0
 57 63  1  0  0  0  0
 58 75  1  0  0  0  0
 59 60  1  0  0  0  0
 60 74  1  0  0  0  0
 61 63  1  0  0  0  0
 61 73  1  0  0  0  0
 62 75  1  0  0  0  0
 64 65  1  0  0  0  0
M  CHG  2  74   1  75   1
M  ISO  4  39 101  40 100  71 100  83 101
M  END
> <Batch ID>
0058

> <Smiles>
CNC(C)C(=O)NC(C(=O)N1Cc2cc([101O:1][101C:1](=O)CCNC(=N)c3cc([100NH:0][100C:0](=O)N4CCCC(n5nc(-c6ccc(Oc7ccc(F)cc7F)cc6)c(C(N)=O)c5N)C4)ccc3C)ccc2CC1C(=O)NC1CCCc2ccccc21)C(C)(C)C

> <Shape>
0.230

> <Color>
0.076

> <Negative vol penalty>
0.000

$$$$

  -OEChem-04042322583D

 85 93  0     1  0  0  0  0  0999 V2000
  -19.0590  -28.8385   27.2545 C   0  0  0  0  0  0  0  0  0  0  0  0
  -19.6180  -27.5965   26.9710 C   0  0  0  0  0  0  0  0  0  0  0  0
  -22.9994   -9.8735   20.0095 C   0  0  0  0  0  0  0  0  0  0  0  0
  -23.6080  -10.0792   22.3385 C   0  0  0  0  0  0  0  0  0  0  0  0
  -18.4107  -29.5556   26.2498 C   0  0  0  0  0  0  0  0  0  0  0  0
  -19.5281  -27.0704   25.6828 C   0  0  0  0  0  0  0  0  0  0  0  0
  -23.9074  -25.0950   24.0812 C   0  0  0  0  0  0  0  0  0  0  0  0
  -32.4650  -17.6634   23.4554 C   0  0  0  0  0  0  0  0  0  0  0  0
  -31.9214  -16.7095   22.5950 C   0  0  0  0  0  0  0  0  0  0  0  0
  -22.2194   -8.7574   20.3119 C   0  0  0  0  0  0  0  0  0  0  0  0
  -22.8280   -8.9631   22.6410 C   0  0  0  0  0  0  0  0  0  0  0  0
  -24.2514  -23.8334   24.5646 C   0  0  0  0  0  0  0  0  0  0  0  0
  -23.0926   -5.6008   22.4050 C   0  0  0  0  0  0  0  0  0  0  0  0
  -23.6407   -4.6373   23.2516 C   0  0  0  0  0  0  0  0  0  0  0  0
  -29.7196  -17.6346   22.9605 C   0  0  0  0  0  0  0  0  0  0  0  0
  -23.4770  -22.8404   22.5070 C   0  0  0  0  0  0  0  0  0  0  0  0
  -21.8351   -4.9868   24.8184 C   0  0  0  0  0  0  0  0  0  0  0  0
  -23.6937  -10.5344   21.0228 C   0  0  0  0  0  0  0  0  0  0  0  0
  -30.2632  -18.5884   23.8209 C   0  0  0  0  0  0  0  0  0  0  0  0
  -24.0897  -13.0337   20.6995 C   0  0  0  0  0  0  0  0  0  0  0  0
  -18.3213  -29.0423   24.9463 C   0  0  0  0  0  0  0  0  0  0  0  0
  -23.3346  -25.2380   22.8092 C   0  0  0  0  0  0  0  0  0  0  0  0
  -18.8769  -27.7807   24.6600 C   0  0  0  0  0  0  0  0  0  0  0  0
  -23.1290  -24.1052   22.0087 C   0  0  0  0  0  0  0  0  0  0  0  0
  -31.6359  -18.6028   24.0684 C   0  0  0  0  0  0  0  0  0  0  0  0
  -30.5487  -16.6951   22.3475 C   0  0  0  0  0  0  0  0  0  0  0  0
  -22.1337   -8.3022   21.6277 C   0  0  0  0  0  0  0  0  0  0  0  0
  -24.0336  -22.7056   23.7787 C   0  0  0  0  0  0  0  0  0  0  0  0
  -21.9158   -6.2574   22.7651 C   0  0  0  0  0  0  0  0  0  0  0  0
  -23.0120   -4.3302   24.4583 C   0  0  0  0  0  0  0  0  0  0  0  0
  -21.2871   -5.9504   23.9718 C   0  0  0  0  0  0  0  0  0  0  0  0
  -24.5001  -11.6871   20.7110 C   0  0  0  0  0  0  0  0  0  0  0  0
  -25.2170  -13.7331   20.3440 C   0  0  0  0  0  0  0  0  0  0  0  0
  -29.3575  -19.5777   24.4598 C   0  0  0  0  0  0  0  0  0  0  0  0
  -22.8044  -13.6015   20.9847 C   0  0  0  0  0  0  0  0  0  0  0  0
  -20.5574  -26.3245   21.7090 C   0  0  0  0  0  0  0  0  0  0  0  0
  -26.1862  -20.0748   25.0278 C   0  0  0  0  0  0  0  0  0  0  0  0
  -21.9696  -25.8765   18.8233 C   0  0  0  0  0  0  0  0  0  0  0  0
  -24.3387  -24.2555   16.9776 C   0  0  0  0  0  0  0  0  0  0  0  0
  -30.6787  -14.7209   20.7880 C   0  0  0  0  0  0  0  0  0  0  0  0
  -17.5695  -29.8328   23.9048 C   0  0  0  0  0  0  0  0  0  0  0  0
  -22.9937  -26.6085   22.2916 C   0  0  0  0  0  0  0  0  0  0  0  0
  -22.5357  -24.2069   20.6281 C   0  0  0  0  0  0  0  0  0  0  0  0
  -17.8446  -29.3733   22.4754 C   0  0  0  0  0  0  0  0  0  0  0  0
  -29.6764  -12.1162   18.5772 C   0  0  0  0  0  0  0  0  0  0  0  0
  -17.7650  -27.8530   22.3787 C   0  0  0  0  0  0  0  0  0  0  0  0
  -28.2066  -11.8831   18.9343 C   0  0  0  0  0  0  0  0  0  0  0  0
  -30.5152  -12.4416   19.8117 C   0  0  0  0  0  0  0  0  0  0  0  0
  -28.5361  -13.3127   20.9921 C   0  0  0  0  0  0  0  0  0  0  0  0
  -18.8216  -27.1876   23.2688 C   0  0  1  0  0  0  0  0  0  0  0  0
  -21.9419  -26.5854   21.1868 C   0  0  1  0  0  0  0  0  0  0  0  0
  -27.6391  -13.0455   19.7724 C   0  0  2  0  0  0  0  0  0  0  0  0
  -32.2441  -19.6134   24.9854 C   0  0  0  0  0  0  0  0  0  0  0  0
  -25.2276  -24.0711   14.6382 C   0  0  0  0  0  0  0  0  0  0  0  0
  -19.5437  -24.2017   18.0362 C   0  0  0  0  0  0  0  0  0  0  0  0
  -20.8812  -23.2879   16.1272 C   0  0  0  0  0  0  0  0  0  0  0  0
  -20.3829  -25.7295   16.2428 C   0  0  0  0  0  0  0  0  0  0  0  0
  -27.0266  -25.1799   17.8021 C   0  0  0  0  0  0  0  0  0  0  0  0
  -27.3845  -19.8831   25.9328 C   0  0  0  0  0  0  0  0  0  0  0  0
  -25.4634  -21.4003   25.1600 C   0  0  0  0  0  0  0  0  0  1  0  0
  -22.0637  -24.7302   17.8455 C   0  0  1  0  0  0  0  0  0  0  0  0
  -25.3652  -24.7673   15.9832 C   0  0  2  0  0  0  0  0  0  0  0  0
  -20.7273  -24.4849   17.0897 C   0  0  0  0  0  0  0  0  0  0  0  0
  -25.7875  -11.5376   20.3883 N   0  0  0  0  0  0  0  0  0  0  0  0
  -26.1959  -12.7993   20.1705 N   0  0  0  0  0  0  0  0  0  0  0  0
  -22.2132  -25.5681   20.1692 N   0  0  0  0  0  0  0  0  0  0  0  0
  -29.9195  -13.5549   20.5537 N   0  0  0  0  0  0  0  0  0  0  0  0
  -25.4566  -15.0497   20.1658 N   0  0  0  0  0  0  0  0  0  0  0  0
  -21.7559  -12.7396   21.3341 N   0  0  0  0  0  0  0  0  0  0  0  0
  -29.9967  -15.7246   21.4750 N   0  0  0  0  0  0  0  0  0  0  0  0
  -28.3496  -19.0587   25.2686 N   0  0  0  0  0  0  0  0  0  0  0  0
  -20.1236  -27.2490   22.6399 N   0  0  0  0  0  0  0  0  0  0  0  0
  -23.1964  -25.0277   16.9755 N   0  0  0  0  0  0  0  0  0  0  0  0
  -26.7448  -24.5318   16.4954 N   0  3  0  0  0  0  0  0  0  0  0  0
  -29.5216  -20.7740   24.2352 O   0  0  0  0  0  0  0  0  0  0  0  0
  -22.5879  -14.8351   20.9154 O   0  0  0  0  0  0  0  0  0  0  0  0
  -19.9285  -25.3568   21.2967 O   0  0  0  0  0  0  0  0  0  0  0  0
  -25.7877  -19.1920   24.2684 O   0  0  0  0  0  0  0  0  0  0  0  0
  -21.6973  -27.0054   18.4073 O   0  0  0  0  0  0  0  0  0  0  0  0
  -24.5296  -23.2672   17.6829 O   0  0  0  0  0  0  0  0  0  0  0  0
  -31.8389  -14.8321   20.3834 O   0  0  0  0  0  0  0  0  0  0  0  0
  -21.3725   -7.2132   21.9231 O   0  0  0  0  0  0  0  0  0  0  0  0
  -24.3679  -21.4729   24.2484 O   0  0  0  0  0  0  0  0  0  1  0  0
  -23.5376   -3.4038   25.2704 F   0  0  0  0  0  0  0  0  0  0  0  0
  -20.1556   -6.5770   24.3226 F   0  0  0  0  0  0  0  0  0  0  0  0
  1  2  1  0  0  0  0
  1  5  2  0  0  0  0
  2  6  2  0  0  0  0
  3 10  2  0  0  0  0
  3 18  1  0  0  0  0
  4 11  1  0  0  0  0
  4 18  2  0  0  0  0
  5 21  1  0  0  0  0
  6 23  1  0  0  0  0
  7 12  2  0  0  0  0
  7 22  1  0  0  0  0
  8  9  2  0  0  0  0
  8 25  1  0  0  0  0
  9 26  1  0  0  0  0
 10 27  1  0  0  0  0
 11 27  2  0  0  0  0
 12 28  1  0  0  0  0
 13 14  2  0  0  0  0
 13 29  1  0  0  0  0
 14 30  1  0  0  0  0
 15 19  1  0  0  0  0
 15 26  2  0  0  0  0
 16 24  1  0  0  0  0
 16 28  2  0  0  0  0
 17 30  2  0  0  0  0
 17 31  1  0  0  0  0
 18 32  1  0  0  0  0
 19 25  2  0  0  0  0
 19 34  1  0  0  0  0
 20 32  1  0  0  0  0
 20 33  2  0  0  0  0
 20 35  1  0  0  0  0
 21 23  2  0  0  0  0
 21 41  1  0  0  0  0
 22 24  2  0  0  0  0
 22 42  1  0  0  0  0
 23 50  1  0  0  0  0
 24 43  1  0  0  0  0
 25 53  1  0  0  0  0
 26 70  1  0  0  0  0
 27 82  1  0  0  0  0
 28 83  1  0  0  0  0
 29 31  2  0  0  0  0
 29 82  1  0  0  0  0
 30 84  1  0  0  0  0
 31 85  1  0  0  0  0
 32 64  2  0  0  0  0
 33 65  1  0  0  0  0
 33 68  1  0  0  0  0
 34 71  1  0  0  0  0
 34 75  2  0  0  0  0
 35 69  1  0  0  0  0
 35 76  2  0  0  0  0
 36 51  1  0  0  0  0
 36 72  1  0  0  0  0
 36 77  2  0  0  0  0
 37 59  1  0  0  0  0
 37 60  1  0  0  0  0
 37 78  2  0  0  0  0
 38 61  1  0  0  0  0
 38 66  1  0  0  0  0
 38 79  2  0  0  0  0
 39 62  1  0  0  0  0
 39 73  1  0  0  0  0
 39 80  2  0  0  0  0
 40 67  1  0  0  0  0
 40 70  1  0  0  0  0
 40 81  2  0  0  0  0
 41 44  1  0  0  0  0
 42 51  1  0  0  0  0
 43 66  1  0  0  0  0
 44 46  1  0  0  0  0
 45 47  1  0  0  0  0
 45 48  1  0  0  0  0
 46 50  1  0  0  0  0
 47 52  1  0  0  0  0
 48 67  1  0  0  0  0
 49 52  1  0  0  0  0
 49 67  1  0  0  0  0
 50 72  1  0  0  0  0
 51 66  1  0  0  0  0
 52 65  1  0  0  0  0
 54 62  1  0  0  0  0
 55 63  1  0  0  0  0
 56 63  1  0  0  0  0
 57 63  1  0  0  0  0
 58 74  1  0  0  0  0
 59 71  1  0  0  0  0
 60 83  1  0  0  0  0
 61 63  1  0  0  0  0
 61 73  1  0  0  0  0
 62 74  1  0  0  0  0
 64 65  1  0  0  0  0
M  CHG  1  74   1
M  ISO  4  40 100  60 101  70 100  83 101
M  END
> <Batch ID>
0058

> <Smiles>
CNC(C)C(=O)NC(C(=O)N1Cc2cc([101O:1][101CH2:1]C(=O)CNC(=O)c3cc([100NH:0][100C:0](=O)N4CCCC(n5nc(-c6ccc(Oc7ccc(F)cc7F)cc6)c(C(N)=O)c5N)C4)ccc3C)ccc2CC1C(=O)NC1CCCc2ccccc21)C(C)(C)C

> <Shape>
0.229

> <Color>
0.199

> <Negative vol penalty>
0.000

$$$$

  -OEChem-04042322583D

 86 94  0     1  0  0  0  0  0999 V2000
  -28.4935  -23.5502   17.9159 C   0  0  0  0  0  0  0  0  0  0  0  0
  -27.4324  -24.4477   17.9548 C   0  0  0  0  0  0  0  0  0  0  0  0
  -26.9786  -13.4839   21.8532 C   0  0  0  0  0  0  0  0  0  0  0  0
  -25.5140  -14.3287   20.1274 C   0  0  0  0  0  0  0  0  0  0  0  0
  -22.6987  -22.9742   19.0692 C   0  0  0  0  0  0  0  0  0  0  0  0
  -29.3937  -23.4946   18.9779 C   0  0  0  0  0  0  0  0  0  0  0  0
  -27.2780  -25.2982   19.0501 C   0  0  0  0  0  0  0  0  0  0  0  0
  -23.7746  -28.7375   18.7327 C   0  0  0  0  0  0  0  0  0  0  0  0
  -23.8249  -22.2581   19.4748 C   0  0  0  0  0  0  0  0  0  0  0  0
  -26.1762  -12.3499   21.9791 C   0  0  0  0  0  0  0  0  0  0  0  0
  -24.7116  -13.1947   20.2533 C   0  0  0  0  0  0  0  0  0  0  0  0
  -22.4149  -28.4369   18.8004 C   0  0  0  0  0  0  0  0  0  0  0  0
  -22.3185  -12.0567   22.3530 C   0  0  0  0  0  0  0  0  0  0  0  0
  -20.9367  -12.2421   22.3955 C   0  0  0  0  0  0  0  0  0  0  0  0
  -22.3541  -29.2508   21.0704 C   0  0  0  0  0  0  0  0  0  0  0  0
  -23.9287  -23.5692   21.5015 C   0  0  0  0  0  0  0  0  0  0  0  0
  -20.6930  -10.8790   20.4157 C   0  0  0  0  0  0  0  0  0  0  0  0
  -26.6475  -14.4734   20.9274 C   0  0  0  0  0  0  0  0  0  0  0  0
  -22.1875  -23.9878   19.8798 C   0  0  0  0  0  0  0  0  0  0  0  0
  -28.5808  -15.8144   19.9419 C   0  0  0  0  0  0  0  0  0  0  0  0
  -29.2423  -24.3365   20.0920 C   0  0  0  0  0  0  0  0  0  0  0  0
  -24.4378  -29.2879   19.8389 C   0  0  0  0  0  0  0  0  0  0  0  0
  -28.1898  -25.2740   20.1209 C   0  0  0  0  0  0  0  0  0  0  0  0
  -23.7216  -29.5599   21.0134 C   0  0  0  0  0  0  0  0  0  0  0  0
  -24.4399  -22.5556   20.6909 C   0  0  0  0  0  0  0  0  0  0  0  0
  -25.0427  -12.2053   21.1791 C   0  0  0  0  0  0  0  0  0  0  0  0
  -21.7050  -28.6908   19.9703 C   0  0  0  0  0  0  0  0  0  0  0  0
  -22.8876  -11.2826   21.3418 C   0  0  0  0  0  0  0  0  0  0  0  0
  -20.1239  -11.6532   21.4269 C   0  0  0  0  0  0  0  0  0  0  0  0
  -22.8025  -24.2853   21.0959 C   0  0  0  0  0  0  0  0  0  0  0  0
  -22.0749  -10.6937   20.3732 C   0  0  0  0  0  0  0  0  0  0  0  0
  -27.4756  -15.6452   20.7973 C   0  0  0  0  0  0  0  0  0  0  0  0
  -29.0183  -17.0916   20.1947 C   0  0  0  0  0  0  0  0  0  0  0  0
  -20.9954  -24.7445   19.4473 C   0  0  0  0  0  0  0  0  0  0  0  0
  -29.1602  -14.8990   19.0027 C   0  0  0  0  0  0  0  0  0  0  0  0
  -26.8378  -28.3602   21.7052 C   0  0  0  0  0  0  0  0  0  0  0  0
  -26.4962  -31.3318   22.9603 C   0  0  0  0  0  0  0  0  0  0  0  0
  -24.4800  -34.0293   23.5129 C   0  0  0  0  0  0  0  0  0  0  0  0
  -26.3139  -21.9955   22.2786 C   0  0  0  0  0  0  0  0  0  0  0  0
  -30.2502  -24.2399   21.2101 C   0  0  0  0  0  0  0  0  0  0  0  0
  -25.8989  -29.6313   19.7409 C   0  0  0  0  0  0  0  0  0  0  0  0
  -24.3825  -30.1688   22.2221 C   0  0  0  0  0  0  0  0  0  0  0  0
  -29.7544  -24.8596   22.5126 C   0  0  0  0  0  0  0  0  0  0  0  0
  -29.1643  -20.3803   23.6728 C   0  0  0  0  0  0  0  0  0  0  0  0
  -29.2006  -26.2517   22.2482 C   0  0  0  0  0  0  0  0  0  0  0  0
  -29.1588  -19.0003   23.0112 C   0  0  0  0  0  0  0  0  0  0  0  0
  -27.7489  -20.8731   23.9686 C   0  0  0  0  0  0  0  0  0  0  0  0
  -26.8281  -19.4782   22.1588 C   0  0  0  0  0  0  0  0  0  0  0  0
  -27.9842  -26.1875   21.3158 C   0  0  1  0  0  0  0  0  0  0  0  0
  -26.5862  -29.7125   21.1004 C   0  0  1  0  0  0  0  0  0  0  0  0
  -28.2288  -18.9682   21.7825 C   0  0  2  0  0  0  0  0  0  0  0  0
  -24.4698  -36.2913   24.5995 C   0  0  0  0  0  0  0  0  0  0  0  0
  -26.2643  -30.0114   25.7012 C   0  0  0  0  0  0  0  0  0  0  0  0
  -25.3255  -32.1598   26.5795 C   0  0  0  0  0  0  0  0  0  0  0  0
  -27.6440  -32.0969   25.6613 C   0  0  0  0  0  0  0  0  0  0  0  0
  -17.4010  -27.7992   20.8091 C   0  0  0  0  0  0  0  0  0  0  0  0
  -18.4724  -26.3444   22.5388 C   0  0  0  0  0  0  0  0  0  0  0  0
  -23.9356  -35.3901   20.9418 C   0  0  0  0  0  0  0  0  0  0  0  0
  -18.9651  -25.9977   20.0828 C   0  0  0  0  0  0  0  0  0  0  0  0
  -19.8566  -28.0442   21.3197 C   0  0  0  0  0  0  0  0  0  1  0  0
  -25.6793  -31.9326   24.0786 C   0  0  1  0  0  0  0  0  0  0  0  0
  -24.7099  -35.5164   23.3131 C   0  0  2  0  0  0  0  0  0  0  0  0
  -26.2160  -31.5369   25.4832 C   0  0  0  0  0  0  0  0  0  0  0  0
  -18.6900  -27.0418   21.1843 C   0  0  0  0  0  0  0  0  0  0  0  0
  -27.2265  -16.7283   21.5382 N   0  0  0  0  0  0  0  0  0  0  0  0
  -28.1814  -17.5902   21.1492 N   0  0  0  0  0  0  0  0  0  0  0  0
  -25.8142  -30.4809   22.0790 N   0  0  0  0  0  0  0  0  0  0  0  0
  -26.9266  -20.8184   22.7579 N   0  0  0  0  0  0  0  0  0  0  0  0
  -30.0335  -17.8255   19.6914 N   0  0  0  0  0  0  0  0  0  0  0  0
  -20.7927  -24.9035   18.1394 N   0  0  0  0  0  0  0  0  0  0  0  0
  -28.5863  -13.6274   18.8682 N   0  0  0  0  0  0  0  0  0  0  0  0
  -25.5838  -21.8276   21.1025 N   0  0  0  0  0  0  0  0  0  0  0  0
  -27.6189  -27.5307   20.9233 N   0  0  0  0  0  0  0  0  0  0  0  0
  -25.6479  -33.3705   23.8343 N   0  0  0  0  0  0  0  0  0  0  0  0
  -20.1790  -25.2350   20.3871 N   0  3  0  0  0  0  0  0  0  0  0  0
  -23.7909  -36.0467   22.2666 N   0  3  0  0  0  0  0  0  0  0  0  0
  -30.1672  -15.1939   18.3153 O   0  0  0  0  0  0  0  0  0  0  0  0
  -26.3599  -28.0900   22.8008 O   0  0  0  0  0  0  0  0  0  0  0  0
  -27.6937  -31.6129   22.8677 O   0  0  0  0  0  0  0  0  0  0  0  0
  -23.3742  -33.5050   23.3992 O   0  0  0  0  0  0  0  0  0  0  0  0
  -26.4508  -23.0786   22.8532 O   0  0  0  0  0  0  0  0  0  0  0  0
  -24.2596  -11.0988   21.3015 O   0  0  0  0  0  0  0  0  0  0  0  0
  -20.3779  -28.3977   20.0393 O   0  0  0  0  0  0  0  0  0  1  0  0
  -18.7969  -11.8300   21.4687 F   0  0  0  0  0  0  0  0  0  0  0  0
  -22.3197  -25.2588   21.8807 F   0  0  0  0  0  0  0  0  0  0  0  0
  -22.6157   -9.9479   19.4000 F   0  0  0  0  0  0  0  0  0  0  0  0
  1  2  1  0  0  0  0
  1  6  2  0  0  0  0
  2  7  2  0  0  0  0
  3 10  2  0  0  0  0
  3 18  1  0  0  0  0
  4 11  1  0  0  0  0
  4 18  2  0  0  0  0
  5  9  2  0  0  0  0
  5 19  1  0  0  0  0
  6 21  1  0  0  0  0
  7 23  1  0  0  0  0
  8 12  2  0  0  0  0
  8 22  1  0  0  0  0
  9 25  1  0  0  0  0
 10 26  1  0  0  0  0
 11 26  2  0  0  0  0
 12 27  1  0  0  0  0
 13 14  2  0  0  0  0
 13 28  1  0  0  0  0
 14 29  1  0  0  0  0
 15 24  1  0  0  0  0
 15 27  2  0  0  0  0
 16 25  2  0  0  0  0
 16 30  1  0  0  0  0
 17 29  2  0  0  0  0
 17 31  1  0  0  0  0
 18 32  1  0  0  0  0
 19 30  2  0  0  0  0
 19 34  1  0  0  0  0
 20 32  1  0  0  0  0
 20 33  2  0  0  0  0
 20 35  1  0  0  0  0
 21 23  2  0  0  0  0
 21 40  1  0  0  0  0
 22 24  2  0  0  0  0
 22 41  1  0  0  0  0
 23 49  1  0  0  0  0
 24 42  1  0  0  0  0
 25 72  1  0  0  0  0
 26 82  1  0  0  0  0
 27 83  1  0  0  0  0
 28 31  2  0  0  0  0
 28 82  1  0  0  0  0
 29 84  1  0  0  0  0
 30 85  1  0  0  0  0
 31 86  1  0  0  0  0
 32 65  2  0  0  0  0
 33 66  1  0  0  0  0
 33 69  1  0  0  0  0
 34 70  1  0  0  0  0
 34 75  2  0  0  0  0
 35 71  1  0  0  0  0
 35 77  2  0  0  0  0
 36 50  1  0  0  0  0
 36 73  1  0  0  0  0
 36 78  2  0  0  0  0
 37 61  1  0  0  0  0
 37 67  1  0  0  0  0
 37 79  2  0  0  0  0
 38 62  1  0  0  0  0
 38 74  1  0  0  0  0
 38 80  2  0  0  0  0
 39 68  1  0  0  0  0
 39 72  1  0  0  0  0
 39 81  2  0  0  0  0
 40 43  1  0  0  0  0
 41 50  1  0  0  0  0
 42 67  1  0  0  0  0
 43 45  1  0  0  0  0
 44 46  1  0  0  0  0
 44 47  1  0  0  0  0
 45 49  1  0  0  0  0
 46 51  1  0  0  0  0
 47 68  1  0  0  0  0
 48 51  1  0  0  0  0
 48 68  1  0  0  0  0
 49 73  1  0  0  0  0
 50 67  1  0  0  0  0
 51 66  1  0  0  0  0
 52 62  1  0  0  0  0
 53 63  1  0  0  0  0
 54 63  1  0  0  0  0
 55 63  1  0  0  0  0
 56 64  1  0  0  0  0
 57 64  1  0  0  0  0
 58 76  1  0  0  0  0
 59 64  1  0  0  0  0
 59 75  1  0  0  0  0
 60 64  1  0  0  0  0
 60 83  1  0  0  0  0
 61 63  1  0  0  0  0
 61 74  1  0  0  0  0
 62 76  1  0  0  0  0
 65 66  1  0  0  0  0
M  CHG  2  75   1  76   1
M  ISO  4  39 100  60 101  72 100  83 101
M  END
> <Batch ID>
0058

> <Smiles>
CNC(C)C(=O)NC(C(=O)N1Cc2cc([101O:1][101CH2:1]C(C)(C)CNC(=N)c3ccc([100NH:0][100C:0](=O)N4CCCC(n5nc(-c6ccc(Oc7ccc(F)cc7F)cc6)c(C(N)=O)c5N)C4)cc3F)ccc2CC1C(=O)NC1CCCc2ccccc21)C(C)(C)C

> <Shape>
0.286

> <Color>
0.065

> <Negative vol penalty>
0.000

$$$$

  -OEChem-04042322583D

 88 97  0     1  0  0  0  0  0999 V2000
  -16.7701  -30.1314   24.1293 C   0  0  0  0  0  0  0  0  0  0  0  0
  -17.9547  -30.3927   24.8104 C   0  0  0  0  0  0  0  0  0  0  0  0
  -24.6217  -13.8755   20.2762 C   0  0  0  0  0  0  0  0  0  0  0  0
  -26.9653  -13.3107   20.1164 C   0  0  0  0  0  0  0  0  0  0  0  0
  -16.7679  -29.2486   23.0502 C   0  0  0  0  0  0  0  0  0  0  0  0
  -19.1377  -29.7705   24.4133 C   0  0  0  0  0  0  0  0  0  0  0  0
  -26.1992  -30.9185   24.0480 C   0  0  0  0  0  0  0  0  0  0  0  0
  -31.5338  -23.2907   21.5514 C   0  0  0  0  0  0  0  0  0  0  0  0
  -31.1477  -22.1716   20.8136 C   0  0  0  0  0  0  0  0  0  0  0  0
  -24.2889  -12.5253   20.1680 C   0  0  0  0  0  0  0  0  0  0  0  0
  -26.6325  -11.9605   20.0082 C   0  0  0  0  0  0  0  0  0  0  0  0
  -27.4067  -30.3318   24.4243 C   0  0  0  0  0  0  0  0  0  0  0  0
  -24.2321   -9.8051   22.1756 C   0  0  0  0  0  0  0  0  0  0  0  0
  -23.2720   -9.3018   23.0532 C   0  0  0  0  0  0  0  0  0  0  0  0
  -30.1745  -23.6129   19.1366 C   0  0  0  0  0  0  0  0  0  0  0  0
  -27.2982  -28.8861   22.4962 C   0  0  0  0  0  0  0  0  0  0  0  0
  -21.8782   -8.6893   21.1772 C   0  0  0  0  0  0  0  0  0  0  0  0
  -25.9599  -14.2682   20.2504 C   0  0  0  0  0  0  0  0  0  0  0  0
  -30.5605  -24.7320   19.8743 C   0  0  0  0  0  0  0  0  0  0  0  0
  -26.5588  -16.3841   21.5434 C   0  0  0  0  0  0  0  0  0  0  0  0
  -17.9533  -28.6226   22.6336 C   0  0  0  0  0  0  0  0  0  0  0  0
  -25.5256  -30.4851   22.8969 C   0  0  0  0  0  0  0  0  0  0  0  0
  -19.1511  -28.8774   23.3284 C   0  0  0  0  0  0  0  0  0  0  0  0
  -26.0837  -29.4707   22.1061 C   0  0  0  0  0  0  0  0  0  0  0  0
  -31.2401  -24.5709   21.0818 C   0  0  0  0  0  0  0  0  0  0  0  0
  -30.4681  -22.3327   19.6062 C   0  0  0  0  0  0  0  0  0  0  0  0
  -25.2943  -11.5677   20.0340 C   0  0  0  0  0  0  0  0  0  0  0  0
  -27.9549  -29.3135   23.6500 C   0  0  0  0  0  0  0  0  0  0  0  0
  -24.0154   -9.7506   20.7987 C   0  0  0  0  0  0  0  0  0  0  0  0
  -22.0950   -8.7438   22.5541 C   0  0  0  0  0  0  0  0  0  0  0  0
  -22.8384   -9.1927   20.2995 C   0  0  0  0  0  0  0  0  0  0  0  0
  -26.3042  -15.6629   20.3615 C   0  0  0  0  0  0  0  0  0  0  0  0
  -26.8376  -17.6588   21.1145 C   0  0  0  0  0  0  0  0  0  0  0  0
  -32.8343  -27.8209   22.2639 C   0  0  0  0  0  0  0  0  0  0  0  0
  -32.1281  -28.1198   23.3701 C   0  0  0  0  0  0  0  0  0  0  0  0
  -32.5261  -26.6763   21.3585 C   0  0  0  0  0  0  0  0  0  0  0  0
  -30.6387  -26.4936   18.1697 C   0  0  0  0  0  0  0  0  0  0  0  0
  -30.2359  -26.0542   19.3517 C   0  0  0  0  0  0  0  0  0  0  0  0
  -26.5446  -15.9414   22.9070 C   0  0  0  0  0  0  0  0  0  0  0  0
  -22.6946  -29.1599   22.3199 C   0  0  0  0  0  0  0  0  0  0  0  0
  -23.5718  -29.5656   19.2234 C   0  0  0  0  0  0  0  0  0  0  0  0
  -26.0903  -29.9368   16.9504 C   0  0  0  0  0  0  0  0  0  0  0  0
  -29.3954  -21.1789   17.6404 C   0  0  0  0  0  0  0  0  0  0  0  0
  -17.8925  -27.6396   21.4914 C   0  0  0  0  0  0  0  0  0  0  0  0
  -24.2374  -31.1466   22.4900 C   0  0  0  0  0  0  0  0  0  0  0  0
  -25.4103  -28.9832   20.8501 C   0  0  0  0  0  0  0  0  0  0  0  0
  -19.2599  -27.3094   20.8985 C   0  0  0  0  0  0  0  0  0  0  0  0
  -26.3011  -19.7915   16.5554 C   0  0  0  0  0  0  0  0  0  0  0  0
  -20.2662  -27.0181   22.0073 C   0  0  0  0  0  0  0  0  0  0  0  0
  -26.0470  -18.6530   17.5461 C   0  0  0  0  0  0  0  0  0  0  0  0
  -27.7848  -19.9299   16.2189 C   0  0  0  0  0  0  0  0  0  0  0  0
  -31.2636  -25.7637   23.2799 C   0  0  0  0  0  0  0  0  0  0  0  0
  -28.4219  -18.9129   18.3704 C   0  0  0  0  0  0  0  0  0  0  0  0
  -20.4595  -28.2410   22.9121 C   0  0  1  0  0  0  0  0  0  0  0  0
  -30.9731  -27.1982   23.7482 C   0  0  2  0  0  0  0  0  0  0  0  0
  -23.3793  -30.2738   21.5794 C   0  0  1  0  0  0  0  0  0  0  0  0
  -26.9491  -18.7764   18.7898 C   0  0  2  0  0  0  0  0  0  0  0  0
  -26.4984  -30.2083   14.4893 C   0  0  0  0  0  0  0  0  0  0  0  0
  -23.0038  -26.5972   18.8042 C   0  0  0  0  0  0  0  0  0  0  0  0
  -24.3020  -26.7219   16.6670 C   0  0  0  0  0  0  0  0  0  0  0  0
  -22.2284  -28.0803   16.9458 C   0  0  0  0  0  0  0  0  0  0  0  0
  -27.3802  -32.5722   17.3372 C   0  0  0  0  0  0  0  0  0  0  0  0
  -29.6373  -27.7008   23.1758 C   0  0  0  0  0  0  0  0  0  1  0  0
  -24.3191  -28.7370   18.2066 C   0  0  1  0  0  0  0  0  0  0  0  0
  -26.2839  -30.9242   15.8138 C   0  0  2  0  0  0  0  0  0  0  0  0
  -23.4753  -27.5417   17.6806 C   0  0  0  0  0  0  0  0  0  0  0  0
  -26.4116  -16.4168   19.2642 N   0  0  0  0  0  0  0  0  0  0  0  0
  -26.7367  -17.6250   19.7548 N   0  0  0  0  0  0  0  0  0  0  0  0
  -31.6513  -25.7073   21.8670 N   0  0  0  0  0  0  0  0  0  0  0  0
  -24.1496  -29.6570   20.4976 N   0  0  0  0  0  0  0  0  0  0  0  0
  -28.5769  -20.0464   17.4452 N   0  0  0  0  0  0  0  0  0  0  0  0
  -27.1567  -18.7940   21.7717 N   0  0  0  0  0  0  0  0  0  0  0  0
  -26.2384  -14.5993   23.1706 N   0  0  0  0  0  0  0  0  0  0  0  0
  -30.0761  -21.1955   18.8574 N   0  0  0  0  0  0  0  0  0  0  0  0
  -21.3148  -29.2154   22.2691 N   0  0  0  0  0  0  0  0  0  0  0  0
  -24.7564  -29.6629   17.1674 N   0  0  0  0  0  0  0  0  0  0  0  0
  -27.4673  -31.7910   16.0766 N   0  3  0  0  0  0  0  0  0  0  0  0
  -32.2795  -29.0626   24.1960 O   0  5  0  0  0  0  0  0  0  0  0  0
  -33.0949  -26.6544   20.2674 O   0  0  0  0  0  0  0  0  0  0  0  0
  -26.7800  -16.7168   23.8645 O   0  0  0  0  0  0  0  0  0  0  0  0
  -23.3683  -28.3121   22.8935 O   0  0  0  0  0  0  0  0  0  0  0  0
  -22.5180  -30.1175   18.8970 O   0  0  0  0  0  0  0  0  0  0  0  0
  -27.0287  -29.4537   17.5802 O   0  0  0  0  0  0  0  0  0  0  0  0
  -29.4648  -22.0817   16.8025 O   0  0  0  0  0  0  0  0  0  0  0  0
  -24.9699  -10.2501   19.9286 O   0  0  0  0  0  0  0  0  0  0  0  0
  -29.1331  -28.7387   24.0154 O   0  0  0  0  0  0  0  0  0  1  0  0
  -21.1737   -8.2591   23.3969 F   0  0  0  0  0  0  0  0  0  0  0  0
  -22.6251   -9.1365   18.9777 F   0  0  0  0  0  0  0  0  0  0  0  0
  1  2  1  0  0  0  0
  1  5  2  0  0  0  0
  2  6  2  0  0  0  0
  3 10  2  0  0  0  0
  3 18  1  0  0  0  0
  4 11  1  0  0  0  0
  4 18  2  0  0  0  0
  5 21  1  0  0  0  0
  6 23  1  0  0  0  0
  7 12  2  0  0  0  0
  7 22  1  0  0  0  0
  8  9  2  0  0  0  0
  8 25  1  0  0  0  0
  9 26  1  0  0  0  0
 10 27  1  0  0  0  0
 11 27  2  0  0  0  0
 12 28  1  0  0  0  0
 13 14  2  0  0  0  0
 13 29  1  0  0  0  0
 14 30  1  0  0  0  0
 15 19  1  0  0  0  0
 15 26  2  0  0  0  0
 16 24  1  0  0  0  0
 16 28  2  0  0  0  0
 17 30  2  0  0  0  0
 17 31  1  0  0  0  0
 18 32  1  0  0  0  0
 19 25  2  0  0  0  0
 19 38  1  0  0  0  0
 20 32  1  0  0  0  0
 20 33  2  0  0  0  0
 20 39  1  0  0  0  0
 21 23  2  0  0  0  0
 21 44  1  0  0  0  0
 22 24  2  0  0  0  0
 22 45  1  0  0  0  0
 23 54  1  0  0  0  0
 24 46  1  0  0  0  0
 25 69  1  0  0  0  0
 26 74  1  0  0  0  0
 27 85  1  0  0  0  0
 28 86  1  0  0  0  0
 29 31  2  0  0  0  0
 29 85  1  0  0  0  0
 30 87  1  0  0  0  0
 31 88  1  0  0  0  0
 32 67  2  0  0  0  0
 33 68  1  0  0  0  0
 33 72  1  0  0  0  0
 34 35  2  0  0  0  0
 34 36  1  0  0  0  0
 35 55  1  0  0  0  0
 35 78  1  0  0  0  0
 36 69  1  0  0  0  0
 36 79  2  0  0  0  0
 37 38  2  0  0  0  0
 39 73  1  0  0  0  0
 39 80  2  0  0  0  0
 40 56  1  0  0  0  0
 40 75  1  0  0  0  0
 40 81  2  0  0  0  0
 41 64  1  0  0  0  0
 41 70  1  0  0  0  0
 41 82  2  0  0  0  0
 42 65  1  0  0  0  0
 42 76  1  0  0  0  0
 42 83  2  0  0  0  0
 43 71  1  0  0  0  0
 43 74  1  0  0  0  0
 43 84  2  0  0  0  0
 44 47  1  0  0  0  0
 45 56  1  0  0  0  0
 46 70  1  0  0  0  0
 47 49  1  0  0  0  0
 48 50  1  0  0  0  0
 48 51  1  0  0  0  0
 49 54  1  0  0  0  0
 50 57  1  0  0  0  0
 51 71  1  0  0  0  0
 52 55  1  0  0  0  0
 52 69  1  0  0  0  0
 53 57  1  0  0  0  0
 53 71  1  0  0  0  0
 54 75  1  0  0  0  0
 55 63  1  0  0  0  0
 56 70  1  0  0  0  0
 57 68  1  0  0  0  0
 58 65  1  0  0  0  0
 59 66  1  0  0  0  0
 60 66  1  0  0  0  0
 61 66  1  0  0  0  0
 62 77  1  0  0  0  0
 63 86  1  0  0  0  0
 64 66  1  0  0  0  0
 64 76  1  0  0  0  0
 65 77  1  0  0  0  0
 67 68  1  0  0  0  0
M  CHG  2  77   1  78  -1
M  ISO  4  43 100  63 101  74 100  86 101
M  END
> <Batch ID>
0058

> <Smiles>
C=Cc1cc([100NH:0][100C:0](=O)N2CCCC(n3nc(-c4ccc(Oc5ccc(F)cc5F)cc4)c(C(N)=O)c3N)C2)ccc1N1CC([101CH2:1][101O:1]c2ccc3c(c2)CN(C(=O)C(NC(=O)C(C)NC)C(C)(C)C)C(C(=O)NC2CCCc4ccccc42)C3)C(=O)CC1=O

> <Shape>
0.274

> <Color>
0.103

> <Negative vol penalty>
0.000

$$$$

  -OEChem-04042322583D

 88 97  0     1  0  0  0  0  0999 V2000
  -31.6105  -27.0056   14.3566 C   0  0  0  0  0  0  0  0  0  0  0  0
  -31.1003  -26.2711   15.4223 C   0  0  0  0  0  0  0  0  0  0  0  0
  -23.3859   -9.1771   20.1805 C   0  0  0  0  0  0  0  0  0  0  0  0
  -23.6562  -11.0726   21.6540 C   0  0  0  0  0  0  0  0  0  0  0  0
  -31.7538  -28.3879   14.4693 C   0  0  0  0  0  0  0  0  0  0  0  0
  -30.7340  -26.9185   16.6018 C   0  0  0  0  0  0  0  0  0  0  0  0
  -26.2740  -25.3206   18.3906 C   0  0  0  0  0  0  0  0  0  0  0  0
  -30.8703  -17.9162   23.1269 C   0  0  0  0  0  0  0  0  0  0  0  0
  -30.7550  -16.8206   22.2714 C   0  0  0  0  0  0  0  0  0  0  0  0
  -22.5066   -8.5935   21.0925 C   0  0  0  0  0  0  0  0  0  0  0  0
  -22.7768  -10.4890   22.5660 C   0  0  0  0  0  0  0  0  0  0  0  0
  -26.2586  -24.1000   19.0642 C   0  0  0  0  0  0  0  0  0  0  0  0
  -22.7081   -6.8762   23.9967 C   0  0  0  0  0  0  0  0  0  0  0  0
  -22.8740   -5.5204   24.2791 C   0  0  0  0  0  0  0  0  0  0  0  0
  -26.2667  -25.2707   21.1734 C   0  0  0  0  0  0  0  0  0  0  0  0
  -28.4454  -17.3918   21.8511 C   0  0  0  0  0  0  0  0  0  0  0  0
  -20.6371   -5.0801   23.4794 C   0  0  0  0  0  0  0  0  0  0  0  0
  -23.9608  -10.4166   20.4613 C   0  0  0  0  0  0  0  0  0  0  0  0
  -24.5971  -11.3803   18.1866 C   0  0  0  0  0  0  0  0  0  0  0  0
  -31.3801  -29.0537   15.6473 C   0  0  0  0  0  0  0  0  0  0  0  0
  -26.2970  -26.5273   19.1046 C   0  0  0  0  0  0  0  0  0  0  0  0
  -30.8737  -28.3108   16.7309 C   0  0  0  0  0  0  0  0  0  0  0  0
  -26.2799  -26.5053   20.5065 C   0  0  0  0  0  0  0  0  0  0  0  0
  -29.7731  -18.7496   23.3446 C   0  0  0  0  0  0  0  0  0  0  0  0
  -28.5607  -18.4874   22.7067 C   0  0  0  0  0  0  0  0  0  0  0  0
  -29.5426  -16.5584   21.6335 C   0  0  0  0  0  0  0  0  0  0  0  0
  -22.2020   -9.2494   22.2852 C   0  0  0  0  0  0  0  0  0  0  0  0
  -26.2578  -24.0749   20.4558 C   0  0  0  0  0  0  0  0  0  0  0  0
  -21.5067   -7.3341   23.4558 C   0  0  0  0  0  0  0  0  0  0  0  0
  -21.8386   -4.6223   24.0204 C   0  0  0  0  0  0  0  0  0  0  0  0
  -20.4712   -6.4360   23.1971 C   0  0  0  0  0  0  0  0  0  0  0  0
  -24.8697  -11.0198   19.5198 C   0  0  0  0  0  0  0  0  0  0  0  0
  -25.7781  -11.9087   17.7255 C   0  0  0  0  0  0  0  0  0  0  0  0
  -25.9860  -18.9958   24.9145 C   0  0  0  0  0  0  0  0  0  0  0  0
  -27.4319  -20.7124   22.6024 C   0  0  0  0  0  0  0  0  0  0  0  0
  -23.3848  -11.2492   17.4324 C   0  0  0  0  0  0  0  0  0  0  0  0
  -28.3252  -28.9648   19.3251 C   0  0  0  0  0  0  0  0  0  0  0  0
  -25.9569  -30.2668   21.1191 C   0  0  0  0  0  0  0  0  0  0  0  0
  -23.2168  -29.7793   23.0942 C   0  0  0  0  0  0  0  0  0  0  0  0
  -30.4172  -14.5196   20.4397 C   0  0  0  0  0  0  0  0  0  0  0  0
  -31.5977  -30.5433   15.7394 C   0  0  0  0  0  0  0  0  0  0  0  0
  -26.2866  -27.8359   18.3631 C   0  0  0  0  0  0  0  0  0  0  0  0
  -26.2836  -27.7731   21.3196 C   0  0  0  0  0  0  0  0  0  0  0  0
  -26.1933  -18.7167   23.4459 C   0  0  0  0  0  0  0  0  0  0  0  0
  -30.8359  -31.2002   16.8876 C   0  0  0  0  0  0  0  0  0  0  0  0
  -30.5144  -11.6220   18.3729 C   0  0  0  0  0  0  0  0  0  0  0  0
  -31.0092  -30.3963   18.1723 C   0  0  0  0  0  0  0  0  0  0  0  0
  -29.0522  -11.1751   18.3062 C   0  0  0  0  0  0  0  0  0  0  0  0
  -30.8756  -12.1768   19.7497 C   0  0  0  0  0  0  0  0  0  0  0  0
  -26.2226  -21.5418   24.6194 C   0  0  0  0  0  0  0  0  0  0  0  0
  -28.5287  -12.7935   20.1753 C   0  0  0  0  0  0  0  0  0  0  0  0
  -30.4421  -28.9800   18.0177 C   0  0  1  0  0  0  0  0  0  0  0  0
  -26.2103  -21.5007   23.0904 C   0  0  1  0  0  0  0  0  0  0  0  0
  -26.8289  -28.9965   19.1916 C   0  0  1  0  0  0  0  0  0  0  0  0
  -28.1004  -12.2874   18.7882 C   0  0  2  0  0  0  0  0  0  0  0  0
  -29.9255  -19.9159   24.2662 C   0  0  0  0  0  0  0  0  0  0  0  0
  -21.5157  -31.0333   24.4474 C   0  0  0  0  0  0  0  0  0  0  0  0
  -28.0330  -30.7140   23.3099 C   0  0  0  0  0  0  0  0  0  0  0  0
  -26.1518  -31.0635   24.9246 C   0  0  0  0  0  0  0  0  0  0  0  0
  -26.4330  -32.6087   22.9865 C   0  0  0  0  0  0  0  0  0  0  0  0
  -20.9824  -28.7657   21.4391 C   0  0  0  0  0  0  0  0  0  0  0  0
  -26.2435  -22.9331   22.5420 C   0  0  0  0  0  0  0  0  0  1  0  0
  -25.5975  -30.2564   22.5853 C   0  0  1  0  0  0  0  0  0  0  0  0
  -21.8447  -30.4287   23.0913 C   0  0  2  0  0  0  0  0  0  0  0  0
  -26.5557  -31.1366   23.4366 C   0  0  0  0  0  0  0  0  0  0  0  0
  -26.1253  -11.2957   19.8822 N   0  0  0  0  0  0  0  0  0  0  0  0
  -26.6522  -11.8351   18.7698 N   0  0  0  0  0  0  0  0  0  0  0  0
  -25.9476  -20.3010   25.3344 N   0  0  0  0  0  0  0  0  0  0  0  0
  -27.4112  -19.3397   22.9195 N   0  0  0  0  0  0  0  0  0  0  0  0
  -26.2797  -29.0274   20.5486 N   0  0  0  0  0  0  0  0  0  0  0  0
  -29.9337  -13.2288   20.1384 N   0  0  0  0  0  0  0  0  0  0  0  0
  -26.1436  -12.4244   16.5327 N   0  0  0  0  0  0  0  0  0  0  0  0
  -22.4657  -12.3071   17.4558 N   0  0  0  0  0  0  0  0  0  0  0  0
  -29.4260  -15.4452   20.7645 N   0  0  0  0  0  0  0  0  0  0  0  0
  -28.9986  -28.9998   18.1190 N   0  0  0  0  0  0  0  0  0  0  0  0
  -24.1952  -30.6508   22.6646 N   0  0  0  0  0  0  0  0  0  0  0  0
  -20.7964  -29.4231   22.7583 N   0  3  0  0  0  0  0  0  0  0  0  0
  -25.7315  -18.0672   25.6874 O   0  0  0  0  0  0  0  0  0  0  0  0
  -28.3672  -21.3109   22.0679 O   0  0  0  0  0  0  0  0  0  0  0  0
  -23.1169  -10.2177   16.7708 O   0  0  0  0  0  0  0  0  0  0  0  0
  -28.8314  -28.9140   20.4400 O   0  0  0  0  0  0  0  0  0  0  0  0
  -25.9445  -31.3342   20.5009 O   0  0  0  0  0  0  0  0  0  0  0  0
  -23.4027  -28.6165   23.4461 O   0  0  0  0  0  0  0  0  0  0  0  0
  -31.6193  -14.7915   20.3852 O   0  0  0  0  0  0  0  0  0  0  0  0
  -21.3438   -8.6803   23.1753 O   0  0  0  0  0  0  0  0  0  0  0  0
  -26.2434  -22.8849   21.1158 O   0  0  0  0  0  0  0  0  0  1  0  0
  -21.9986   -3.3201   24.2902 F   0  0  0  0  0  0  0  0  0  0  0  0
  -19.3151   -6.8698   22.6764 F   0  0  0  0  0  0  0  0  0  0  0  0
  1  2  1  0  0  0  0
  1  5  2  0  0  0  0
  2  6  2  0  0  0  0
  3 10  2  0  0  0  0
  3 18  1  0  0  0  0
  4 11  1  0  0  0  0
  4 18  2  0  0  0  0
  5 20  1  0  0  0  0
  6 22  1  0  0  0  0
  7 12  2  0  0  0  0
  7 21  1  0  0  0  0
  8  9  2  0  0  0  0
  8 24  1  0  0  0  0
  9 26  1  0  0  0  0
 10 27  1  0  0  0  0
 11 27  2  0  0  0  0
 12 28  1  0  0  0  0
 13 14  2  0  0  0  0
 13 29  1  0  0  0  0
 14 30  1  0  0  0  0
 15 23  1  0  0  0  0
 15 28  2  0  0  0  0
 16 25  1  0  0  0  0
 16 26  2  0  0  0  0
 17 30  2  0  0  0  0
 17 31  1  0  0  0  0
 18 32  1  0  0  0  0
 19 32  1  0  0  0  0
 19 33  2  0  0  0  0
 19 36  1  0  0  0  0
 20 22  2  0  0  0  0
 20 41  1  0  0  0  0
 21 23  2  0  0  0  0
 21 42  1  0  0  0  0
 22 52  1  0  0  0  0
 23 43  1  0  0  0  0
 24 25  2  0  0  0  0
 24 56  1  0  0  0  0
 25 69  1  0  0  0  0
 26 74  1  0  0  0  0
 27 85  1  0  0  0  0
 28 86  1  0  0  0  0
 29 31  2  0  0  0  0
 29 85  1  0  0  0  0
 30 87  1  0  0  0  0
 31 88  1  0  0  0  0
 32 66  2  0  0  0  0
 33 67  1  0  0  0  0
 33 72  1  0  0  0  0
 34 44  1  0  0  0  0
 34 68  1  0  0  0  0
 34 78  2  0  0  0  0
 35 53  1  0  0  0  0
 35 69  1  0  0  0  0
 35 79  2  0  0  0  0
 36 73  1  0  0  0  0
 36 80  2  0  0  0  0
 37 54  1  0  0  0  0
 37 75  1  0  0  0  0
 37 81  2  0  0  0  0
 38 63  1  0  0  0  0
 38 70  1  0  0  0  0
 38 82  2  0  0  0  0
 39 64  1  0  0  0  0
 39 76  1  0  0  0  0
 39 83  2  0  0  0  0
 40 71  1  0  0  0  0
 40 74  1  0  0  0  0
 40 84  2  0  0  0  0
 41 45  1  0  0  0  0
 42 54  1  0  0  0  0
 43 70  1  0  0  0  0
 44 69  1  0  0  0  0
 45 47  1  0  0  0  0
 46 48  1  0  0  0  0
 46 49  1  0  0  0  0
 47 52  1  0  0  0  0
 48 55  1  0  0  0  0
 49 71  1  0  0  0  0
 50 53  1  0  0  0  0
 50 68  1  0  0  0  0
 51 55  1  0  0  0  0
 51 71  1  0  0  0  0
 52 75  1  0  0  0  0
 53 62  1  0  0  0  0
 54 70  1  0  0  0  0
 55 67  1  0  0  0  0
 57 64  1  0  0  0  0
 58 65  1  0  0  0  0
 59 65  1  0  0  0  0
 60 65  1  0  0  0  0
 61 77  1  0  0  0  0
 62 86  1  0  0  0  0
 63 65  1  0  0  0  0
 63 76  1  0  0  0  0
 64 77  1  0  0  0  0
 66 67  1  0  0  0  0
M  CHG  1  77   1
M  ISO  4  40 100  62 101  74 100  86 101
M  END
> <Batch ID>
0058

> <Smiles>
CNC(C)C(=O)NC(C(=O)N1Cc2cc([101O:1][101CH2:1]C3CNC(=O)CN(c4cc([100NH:0][100C:0](=O)N5CCCC(n6nc(-c7ccc(Oc8ccc(F)cc8F)cc7)c(C(N)=O)c6N)C5)ccc4C)C3=O)ccc2CC1C(=O)NC1CCCc2ccccc21)C(C)(C)C

> <Shape>
0.250

> <Color>
0.102

> <Negative vol penalty>
0.000

$$$$

  -OEChem-04042322583D

 85 93  0     1  0  0  0  0  0999 V2000
  -24.8422  -18.4988   20.1986 C   0  0  0  0  0  0  0  0  0  0  0  0
  -25.5834  -19.6745   20.1377 C   0  0  0  0  0  0  0  0  0  0  0  0
  -26.5991  -12.7223   21.5157 C   0  0  0  0  0  0  0  0  0  0  0  0
  -26.2551  -13.5488   19.2717 C   0  0  0  0  0  0  0  0  0  0  0  0
  -23.4661  -18.5314   19.9768 C   0  0  0  0  0  0  0  0  0  0  0  0
  -24.9491  -20.8834   19.8537 C   0  0  0  0  0  0  0  0  0  0  0  0
  -26.4708  -24.6369   22.8936 C   0  0  0  0  0  0  0  0  0  0  0  0
  -28.8795  -21.6675   15.9530 C   0  0  0  0  0  0  0  0  0  0  0  0
  -29.3131  -20.6830   16.8408 C   0  0  0  0  0  0  0  0  0  0  0  0
  -25.3077  -12.1953   21.5196 C   0  0  0  0  0  0  0  0  0  0  0  0
  -24.9637  -13.0217   19.2755 C   0  0  0  0  0  0  0  0  0  0  0  0
  -27.7028  -25.2253   22.6110 C   0  0  0  0  0  0  0  0  0  0  0  0
  -23.7224   -9.4783   20.2795 C   0  0  0  0  0  0  0  0  0  0  0  0
  -23.5525   -8.1825   20.7669 C   0  0  0  0  0  0  0  0  0  0  0  0
  -29.6518  -22.3656   18.5412 C   0  0  0  0  0  0  0  0  0  0  0  0
  -26.5713  -27.0592   21.5267 C   0  0  0  0  0  0  0  0  0  0  0  0
  -22.0594   -9.0195   22.4719 C   0  0  0  0  0  0  0  0  0  0  0  0
  -27.0728  -13.3991   20.3917 C   0  0  0  0  0  0  0  0  0  0  0  0
  -29.2182  -23.3501   17.6532 C   0  0  0  0  0  0  0  0  0  0  0  0
  -29.5867  -13.3006   19.9692 C   0  0  0  0  0  0  0  0  0  0  0  0
  -22.8131  -19.7427   19.6996 C   0  0  0  0  0  0  0  0  0  0  0  0
  -25.2783  -25.2508   22.4846 C   0  0  0  0  0  0  0  0  0  0  0  0
  -23.5631  -20.9320   19.6267 C   0  0  0  0  0  0  0  0  0  0  0  0
  -25.3255  -26.4779   21.8076 C   0  0  0  0  0  0  0  0  0  0  0  0
  -28.8321  -23.0011   16.3591 C   0  0  0  0  0  0  0  0  0  0  0  0
  -29.6992  -21.0320   18.1349 C   0  0  0  0  0  0  0  0  0  0  0  0
  -24.4900  -12.3450   20.3995 C   0  0  0  0  0  0  0  0  0  0  0  0
  -27.7533  -26.4352   21.9250 C   0  0  0  0  0  0  0  0  0  0  0  0
  -23.0608  -10.5448   20.8884 C   0  0  0  0  0  0  0  0  0  0  0  0
  -22.7210   -7.9531   21.8631 C   0  0  0  0  0  0  0  0  0  0  0  0
  -22.2293  -10.3153   21.9845 C   0  0  0  0  0  0  0  0  0  0  0  0
  -28.4066  -13.9443   20.3874 C   0  0  0  0  0  0  0  0  0  0  0  0
  -30.5743  -14.2356   20.1613 C   0  0  0  0  0  0  0  0  0  0  0  0
  -29.1769  -24.7625   18.1121 C   0  0  0  0  0  0  0  0  0  0  0  0
  -29.7734  -11.9760   19.4532 C   0  0  0  0  0  0  0  0  0  0  0  0
  -22.8951  -24.4495   20.5399 C   0  0  0  0  0  0  0  0  0  0  0  0
  -21.5691  -27.1847   21.6723 C   0  0  0  0  0  0  0  0  0  0  0  0
  -22.0260  -30.2542   23.0922 C   0  0  0  0  0  0  0  0  0  0  0  0
  -30.5600  -20.2078   20.3544 C   0  0  0  0  0  0  0  0  0  0  0  0
  -21.3311  -19.7211   19.4201 C   0  0  0  0  0  0  0  0  0  0  0  0
  -23.9564  -24.6166   22.8205 C   0  0  0  0  0  0  0  0  0  0  0  0
  -24.0732  -27.1878   21.3645 C   0  0  0  0  0  0  0  0  0  0  0  0
  -20.6770  -21.0983   19.4951 C   0  0  0  0  0  0  0  0  0  0  0  0
  -31.6867  -17.9974   22.9082 C   0  0  0  0  0  0  0  0  0  0  0  0
  -21.5082  -22.1262   18.7340 C   0  0  0  0  0  0  0  0  0  0  0  0
  -31.0858  -16.6473   22.5102 C   0  0  0  0  0  0  0  0  0  0  0  0
  -30.7381  -19.1540   22.5978 C   0  0  0  0  0  0  0  0  0  0  0  0
  -29.6449  -17.8490   20.8171 C   0  0  0  0  0  0  0  0  0  0  0  0
  -22.9073  -22.2666   19.3458 C   0  0  1  0  0  0  0  0  0  0  0  0
  -22.8247  -25.0732   21.9050 C   0  0  1  0  0  0  0  0  0  0  0  0
  -30.5902  -16.6593   21.0508 C   0  0  2  0  0  0  0  0  0  0  0  0
  -28.3637  -24.0354   15.3881 C   0  0  0  0  0  0  0  0  0  0  0  0
  -20.7561  -32.2764   23.8641 C   0  0  0  0  0  0  0  0  0  0  0  0
  -32.4386  -26.1266   20.5752 C   0  0  0  0  0  0  0  0  0  0  0  0
  -21.2125  -28.0646   18.7726 C   0  0  0  0  0  0  0  0  0  0  0  0
  -20.8470  -30.3995   19.5990 C   0  0  0  0  0  0  0  0  0  0  0  0
  -19.2740  -28.5818   20.2655 C   0  0  0  0  0  0  0  0  0  0  0  0
  -22.9547  -29.9162   25.8819 C   0  0  0  0  0  0  0  0  0  0  0  0
  -30.5057  -26.6541   19.0133 C   0  0  0  0  0  0  0  0  0  0  0  0
  -30.0664  -26.1369   21.4597 C   0  0  0  0  0  0  0  0  0  1  0  0
  -21.5975  -28.6369   21.2606 C   0  0  1  0  0  0  0  0  0  0  0  0
  -21.3436  -30.9326   24.2664 C   0  0  2  0  0  0  0  0  0  0  0  0
  -31.0433  -26.7475   20.4478 C   0  0  1  0  0  0  0  0  0  0  0  0
  -20.7566  -28.9066   19.9809 C   0  0  0  0  0  0  0  0  0  0  0  0
  -28.6227  -15.1917   20.8131 N   0  0  0  0  0  0  0  0  0  0  0  0
  -29.9501  -15.3393   20.6636 N   0  0  0  0  0  0  0  0  0  0  0  0
  -22.8053  -26.5244   21.7110 N   0  0  0  0  0  0  0  0  0  0  0  0
  -30.3138  -19.1032   21.1970 N   0  0  0  0  0  0  0  0  0  0  0  0
  -31.9071  -14.2130   19.9479 N   0  0  0  0  0  0  0  0  0  0  0  0
  -28.6516  -11.1464   19.3204 N   0  0  0  0  0  0  0  0  0  0  0  0
  -30.1415  -20.0318   19.0359 N   0  0  0  0  0  0  0  0  0  0  0  0
  -30.3879  -25.3085   18.5205 N   0  0  0  0  0  0  0  0  0  0  0  0
  -22.8544  -23.0683   20.5496 N   0  0  0  0  0  0  0  0  0  0  0  0
  -21.1708  -29.4006   22.4281 N   0  0  0  0  0  0  0  0  0  0  0  0
  -22.3172  -31.1574   25.3721 N   0  3  0  0  0  0  0  0  0  0  0  0
  -28.1022  -25.3570   18.1280 O   0  0  0  0  0  0  0  0  0  0  0  0
  -30.9040  -11.5353   19.1352 O   0  0  0  0  0  0  0  0  0  0  0  0
  -22.9785  -25.1682   19.5508 O   0  0  0  0  0  0  0  0  0  0  0  0
  -20.4905  -26.6577   21.9563 O   0  0  0  0  0  0  0  0  0  0  0  0
  -23.1992  -30.4637   22.7919 O   0  0  0  0  0  0  0  0  0  0  0  0
  -31.1267  -21.2237   20.7652 O   0  0  0  0  0  0  0  0  0  0  0  0
  -23.2298  -11.8306   20.4028 O   0  0  0  0  0  0  0  0  0  0  0  0
  -28.9545  -27.0114   21.6473 O   0  0  0  0  0  0  0  0  0  1  0  0
  -22.5568   -6.7084   22.3300 F   0  0  0  0  0  0  0  0  0  0  0  0
  -21.5901  -11.3357   22.5728 F   0  0  0  0  0  0  0  0  0  0  0  0
  1  2  1  0  0  0  0
  1  5  2  0  0  0  0
  2  6  2  0  0  0  0
  3 10  2  0  0  0  0
  3 18  1  0  0  0  0
  4 11  1  0  0  0  0
  4 18  2  0  0  0  0
  5 21  1  0  0  0  0
  6 23  1  0  0  0  0
  7 12  2  0  0  0  0
  7 22  1  0  0  0  0
  8  9  2  0  0  0  0
  8 25  1  0  0  0  0
  9 26  1  0  0  0  0
 10 27  1  0  0  0  0
 11 27  2  0  0  0  0
 12 28  1  0  0  0  0
 13 14  2  0  0  0  0
 13 29  1  0  0  0  0
 14 30  1  0  0  0  0
 15 19  1  0  0  0  0
 15 26  2  0  0  0  0
 16 24  1  0  0  0  0
 16 28  2  0  0  0  0
 17 30  2  0  0  0  0
 17 31  1  0  0  0  0
 18 32  1  0  0  0  0
 19 25  2  0  0  0  0
 19 34  1  0  0  0  0
 20 32  1  0  0  0  0
 20 33  2  0  0  0  0
 20 35  1  0  0  0  0
 21 23  2  0  0  0  0
 21 40  1  0  0  0  0
 22 24  2  0  0  0  0
 22 41  1  0  0  0  0
 23 49  1  0  0  0  0
 24 42  1  0  0  0  0
 25 52  1  0  0  0  0
 26 71  1  0  0  0  0
 27 82  1  0  0  0  0
 28 83  1  0  0  0  0
 29 31  2  0  0  0  0
 29 82  1  0  0  0  0
 30 84  1  0  0  0  0
 31 85  1  0  0  0  0
 32 65  2  0  0  0  0
 33 66  1  0  0  0  0
 33 69  1  0  0  0  0
 34 72  1  0  0  0  0
 34 76  2  0  0  0  0
 35 70  1  0  0  0  0
 35 77  2  0  0  0  0
 36 50  1  0  0  0  0
 36 73  1  0  0  0  0
 36 78  2  0  0  0  0
 37 61  1  0  0  0  0
 37 67  1  0  0  0  0
 37 79  2  0  0  0  0
 38 62  1  0  0  0  0
 38 74  1  0  0  0  0
 38 80  2  0  0  0  0
 39 68  1  0  0  0  0
 39 71  1  0  0  0  0
 39 81  2  0  0  0  0
 40 43  1  0  0  0  0
 41 50  1  0  0  0  0
 42 67  1  0  0  0  0
 43 45  1  0  0  0  0
 44 46  1  0  0  0  0
 44 47  1  0  0  0  0
 45 49  1  0  0  0  0
 46 51  1  0  0  0  0
 47 68  1  0  0  0  0
 48 51  1  0  0  0  0
 48 68  1  0  0  0  0
 49 73  1  0  0  0  0
 50 67  1  0  0  0  0
 51 66  1  0  0  0  0
 53 62  1  0  0  0  0
 54 63  1  0  0  0  0
 55 64  1  0  0  0  0
 56 64  1  0  0  0  0
 57 64  1  0  0  0  0
 58 75  1  0  0  0  0
 59 63  1  0  0  0  0
 59 72  1  0  0  0  0
 60 63  1  0  0  0  0
 60 83  1  0  0  0  0
 61 64  1  0  0  0  0
 61 74  1  0  0  0  0
 62 75  1  0  0  0  0
 65 66  1  0  0  0  0
M  CHG  1  75   1
M  ISO  4  39 100  60 101  71 100  83 101
M  END
> <Batch ID>
0058

> <Smiles>
CNC(C)C(=O)NC(C(=O)N1Cc2cc([101O:1][101CH2:1]C(C)CNC(=O)c3cc([100NH:0][100C:0](=O)N4CCCC(n5nc(-c6ccc(Oc7ccc(F)cc7F)cc6)c(C(N)=O)c5N)C4)ccc3C)ccc2CC1C(=O)NC1CCCc2ccccc21)C(C)(C)C

> <Shape>
0.246

> <Color>
0.064

> <Negative vol penalty>
0.000

$$$$

  -OEChem-04042322583D

 87 95  0     1  0  0  0  0  0999 V2000
  -28.9857  -23.3410   18.8333 C   0  0  0  0  0  0  0  0  0  0  0  0
  -27.6189  -23.5203   19.0206 C   0  0  0  0  0  0  0  0  0  0  0  0
  -26.6730  -13.4172   19.8604 C   0  0  0  0  0  0  0  0  0  0  0  0
  -24.6012  -13.8901   21.0099 C   0  0  0  0  0  0  0  0  0  0  0  0
  -29.8932  -23.9698   19.6847 C   0  0  0  0  0  0  0  0  0  0  0  0
  -27.1588  -24.3277   20.0602 C   0  0  0  0  0  0  0  0  0  0  0  0
  -22.1955  -27.9152   20.0153 C   0  0  0  0  0  0  0  0  0  0  0  0
  -22.5152  -22.4030   22.6867 C   0  0  0  0  0  0  0  0  0  0  0  0
  -26.5793  -12.0789   20.2421 C   0  0  0  0  0  0  0  0  0  0  0  0
  -24.5075  -12.5517   21.3915 C   0  0  0  0  0  0  0  0  0  0  0  0
  -20.9029  -27.7342   20.5053 C   0  0  0  0  0  0  0  0  0  0  0  0
  -23.5790   -9.6218   19.9865 C   0  0  0  0  0  0  0  0  0  0  0  0
  -22.3406   -8.9951   19.8478 C   0  0  0  0  0  0  0  0  0  0  0  0
  -21.5147  -23.1215   23.3413 C   0  0  0  0  0  0  0  0  0  0  0  0
  -21.5098  -28.9083   22.5233 C   0  0  0  0  0  0  0  0  0  0  0  0
  -24.1725  -23.3783   24.1493 C   0  0  0  0  0  0  0  0  0  0  0  0
  -22.2952   -8.5589   22.2237 C   0  0  0  0  0  0  0  0  0  0  0  0
  -25.6840  -14.3228   20.2444 C   0  0  0  0  0  0  0  0  0  0  0  0
  -25.2653  -16.2943   18.6806 C   0  0  0  0  0  0  0  0  0  0  0  0
  -29.4442  -24.7931   20.7293 C   0  0  0  0  0  0  0  0  0  0  0  0
  -23.1597  -28.5858   20.7816 C   0  0  0  0  0  0  0  0  0  0  0  0
  -28.0611  -24.9671   20.9272 C   0  0  0  0  0  0  0  0  0  0  0  0
  -22.8133  -29.0988   22.0397 C   0  0  0  0  0  0  0  0  0  0  0  0
  -23.1721  -24.0968   24.8038 C   0  0  0  0  0  0  0  0  0  0  0  0
  -23.8441  -22.5314   23.0907 C   0  0  0  0  0  0  0  0  0  0  0  0
  -25.4966  -11.6461   21.0076 C   0  0  0  0  0  0  0  0  0  0  0  0
  -20.5606  -28.2283   21.7606 C   0  0  0  0  0  0  0  0  0  0  0  0
  -24.1756   -9.7170   21.2438 C   0  0  0  0  0  0  0  0  0  0  0  0
  -21.6987   -8.4637   20.9664 C   0  0  0  0  0  0  0  0  0  0  0  0
  -23.5337   -9.1856   22.3624 C   0  0  0  0  0  0  0  0  0  0  0  0
  -21.8432  -23.9684   24.3998 C   0  0  0  0  0  0  0  0  0  0  0  0
  -25.7805  -15.7056   19.8509 C   0  0  0  0  0  0  0  0  0  0  0  0
  -25.6200  -17.6177   18.7772 C   0  0  0  0  0  0  0  0  0  0  0  0
  -24.5316  -15.6983   17.6025 C   0  0  0  0  0  0  0  0  0  0  0  0
  -25.9634  -27.7931   22.0524 C   0  0  0  0  0  0  0  0  0  0  0  0
  -26.0734  -30.9464   22.8055 C   0  0  0  0  0  0  0  0  0  0  0  0
  -24.3715  -33.8437   23.4020 C   0  0  0  0  0  0  0  0  0  0  0  0
  -26.2270  -21.8135   22.6998 C   0  0  0  0  0  0  0  0  0  0  0  0
  -30.4620  -25.4140   21.6530 C   0  0  0  0  0  0  0  0  0  0  0  0
  -24.5422  -28.7962   20.2276 C   0  0  0  0  0  0  0  0  0  0  0  0
  -23.8059  -29.8436   22.8932 C   0  0  0  0  0  0  0  0  0  0  0  0
  -29.9010  -26.5534   22.4999 C   0  0  0  0  0  0  0  0  0  0  0  0
  -29.0435  -20.1317   21.3155 C   0  0  0  0  0  0  0  0  0  0  0  0
  -28.5638  -26.1528   23.1152 C   0  0  0  0  0  0  0  0  0  0  0  0
  -28.4404  -18.8760   20.6817 C   0  0  0  0  0  0  0  0  0  0  0  0
  -28.3376  -20.5045   22.6180 C   0  0  0  0  0  0  0  0  0  0  0  0
  -26.2748  -19.3743   21.8854 C   0  0  0  0  0  0  0  0  0  0  0  0
  -27.5237  -25.8551   22.0285 C   0  0  1  0  0  0  0  0  0  0  0  0
  -25.5883  -29.0443   21.3100 C   0  0  1  0  0  0  0  0  0  0  0  0
  -26.9106  -18.9966   20.5375 C   0  0  2  0  0  0  0  0  0  0  0  0
  -23.5569  -24.9956   25.9332 C   0  0  0  0  0  0  0  0  0  0  0  0
  -24.7318  -36.2462   24.0308 C   0  0  0  0  0  0  0  0  0  0  0  0
  -26.5907  -30.1103   25.6940 C   0  0  0  0  0  0  0  0  0  0  0  0
  -25.9986  -32.4381   26.4004 C   0  0  0  0  0  0  0  0  0  0  0  0
  -27.9597  -32.0501   24.9083 C   0  0  0  0  0  0  0  0  0  0  0  0
  -16.8484  -25.1648   22.3836 C   0  0  0  0  0  0  0  0  0  0  0  0
  -16.5374  -27.5442   23.0818 C   0  0  0  0  0  0  0  0  0  0  0  0
  -23.1592  -34.8064   20.8796 C   0  0  0  0  0  0  0  0  0  0  0  0
  -18.2757  -26.0726   24.2253 C   0  0  0  0  0  0  0  0  0  0  0  0
  -18.5985  -26.8854   21.8140 C   0  0  0  0  0  0  0  0  0  1  0  0
  -25.6235  -31.7814   23.9799 C   0  0  1  0  0  0  0  0  0  0  0  0
  -24.5765  -35.2567   22.8865 C   0  0  2  0  0  0  0  0  0  0  0  0
  -26.5247  -31.5793   25.2306 C   0  0  0  0  0  0  0  0  0  0  0  0
  -17.5804  -26.4282   22.8831 C   0  0  0  0  0  0  0  0  0  0  0  0
  -26.4144  -16.5829   20.6335 N   0  0  0  0  0  0  0  0  0  0  0  0
  -20.0728  -23.9433   26.3469 N   0  0  0  0  0  0  0  0  0  0  0  0
  -26.2999  -17.7365   19.9535 N   0  0  0  0  0  0  0  0  0  0  0  0
  -25.1465  -30.0182   22.3103 N   0  0  0  0  0  0  0  0  0  0  0  0
  -26.8923  -20.6050   22.4039 N   0  0  0  0  0  0  0  0  0  0  0  0
  -25.4135  -18.6797   17.9698 N   0  0  0  0  0  0  0  0  0  0  0  0
  -24.2526  -14.3261   17.6625 N   0  0  0  0  0  0  0  0  0  0  0  0
  -24.8599  -21.8013   22.4251 N   0  0  0  0  0  0  0  0  0  0  0  0
  -27.0024  -27.0873   21.4766 N   0  0  0  0  0  0  0  0  0  0  0  0
  -25.5640  -33.1587   23.5025 N   0  0  0  0  0  0  0  0  0  0  0  0
  -19.2236  -24.9659   24.1261 N   0  0  0  0  0  0  0  0  0  0  0  0
  -23.4138  -35.6785   22.0551 N   0  3  0  0  0  0  0  0  0  0  0  0
  -24.1495  -16.3596   16.6074 O   0  0  0  0  0  0  0  0  0  0  0  0
  -25.3561  -27.4911   23.0731 O   0  0  0  0  0  0  0  0  0  0  0  0
  -27.2030  -31.1165   22.3399 O   0  0  0  0  0  0  0  0  0  0  0  0
  -23.2647  -33.3939   23.6906 O   0  0  0  0  0  0  0  0  0  0  0  0
  -26.8308  -22.7965   23.1372 O   0  0  0  0  0  0  0  0  0  0  0  0
  -21.0258  -26.2303   25.3263 O   0  0  0  0  0  0  0  0  0  0  0  0
  -25.4047  -10.3402   21.3800 O   0  0  0  0  0  0  0  0  0  0  0  0
  -19.2998  -28.0524   22.2415 O   0  0  0  0  0  0  0  0  0  1  0  0
  -20.5088   -7.8633   20.8332 F   0  0  0  0  0  0  0  0  0  0  0  0
  -24.1013   -9.2750   23.5730 F   0  0  0  0  0  0  0  0  0  0  0  0
  -20.5496  -24.8644   25.2066 S   0  0  2  0  0  0  0  0  0  0  0  0
  1  2  1  0  0  0  0
  1  5  2  0  0  0  0
  2  6  2  0  0  0  0
  3  9  2  0  0  0  0
  3 18  1  0  0  0  0
  4 10  1  0  0  0  0
  4 18  2  0  0  0  0
  5 20  1  0  0  0  0
  6 22  1  0  0  0  0
  7 11  2  0  0  0  0
  7 21  1  0  0  0  0
  8 14  2  0  0  0  0
  8 25  1  0  0  0  0
  9 26  1  0  0  0  0
 10 26  2  0  0  0  0
 11 27  1  0  0  0  0
 12 13  2  0  0  0  0
 12 28  1  0  0  0  0
 13 29  1  0  0  0  0
 14 31  1  0  0  0  0
 15 23  1  0  0  0  0
 15 27  2  0  0  0  0
 16 24  1  0  0  0  0
 16 25  2  0  0  0  0
 17 29  2  0  0  0  0
 17 30  1  0  0  0  0
 18 32  1  0  0  0  0
 19 32  1  0  0  0  0
 19 33  2  0  0  0  0
 19 34  1  0  0  0  0
 20 22  2  0  0  0  0
 20 39  1  0  0  0  0
 21 23  2  0  0  0  0
 21 40  1  0  0  0  0
 22 48  1  0  0  0  0
 23 41  1  0  0  0  0
 24 31  2  0  0  0  0
 24 51  1  0  0  0  0
 25 72  1  0  0  0  0
 26 83  1  0  0  0  0
 27 84  1  0  0  0  0
 28 30  2  0  0  0  0
 28 83  1  0  0  0  0
 29 85  1  0  0  0  0
 30 86  1  0  0  0  0
 31 87  1  0  0  0  0
 32 65  2  0  0  0  0
 33 67  1  0  0  0  0
 33 70  1  0  0  0  0
 34 71  1  0  0  0  0
 34 77  2  0  0  0  0
 35 49  1  0  0  0  0
 35 73  1  0  0  0  0
 35 78  2  0  0  0  0
 36 61  1  0  0  0  0
 36 68  1  0  0  0  0
 36 79  2  0  0  0  0
 37 62  1  0  0  0  0
 37 74  1  0  0  0  0
 37 80  2  0  0  0  0
 38 69  1  0  0  0  0
 38 72  1  0  0  0  0
 38 81  2  0  0  0  0
 39 42  1  0  0  0  0
 40 49  1  0  0  0  0
 41 68  1  0  0  0  0
 42 44  1  0  0  0  0
 43 45  1  0  0  0  0
 43 46  1  0  0  0  0
 44 48  1  0  0  0  0
 45 50  1  0  0  0  0
 46 69  1  0  0  0  0
 47 50  1  0  0  0  0
 47 69  1  0  0  0  0
 48 73  1  0  0  0  0
 49 68  1  0  0  0  0
 50 67  1  0  0  0  0
 52 62  1  0  0  0  0
 53 63  1  0  0  0  0
 54 63  1  0  0  0  0
 55 63  1  0  0  0  0
 56 64  1  0  0  0  0
 57 64  1  0  0  0  0
 58 76  1  0  0  0  0
 59 64  1  0  0  0  0
 59 75  1  0  0  0  0
 60 64  1  0  0  0  0
 60 84  1  0  0  0  0
 61 63  1  0  0  0  0
 61 74  1  0  0  0  0
 62 76  1  0  0  0  0
 65 67  1  0  0  0  0
 66 87  2  0  0  0  0
 75 87  1  0  0  0  0
 82 87  2  0  0  0  0
M  CHG  1  76   1
M  ISO  4  38 100  60 101  72 100  84 101
M  END
> <Batch ID>
0058

> <Smiles>
CNC(C)C(=O)NC(C(=O)N1Cc2cc([101O:1][101CH2:1]C(C)(C)CNS(=N)(=O)c3ccc([100NH:0][100C:0](=O)N4CCCC(n5nc(-c6ccc(Oc7ccc(F)cc7F)cc6)c(C(N)=O)c5N)C4)cc3C)ccc2CC1C(=O)NC1CCCc2ccccc21)C(C)(C)C

> <Shape>
0.273

> <Color>
0.068

> <Negative vol penalty>
0.000

$$$$

  -OEChem-04042322583D

 88 97  0     1  0  0  0  0  0999 V2000
  -24.4211  -22.6858   19.0415 C   0  0  0  0  0  0  0  0  0  0  0  0
  -25.1265  -21.8081   18.2244 C   0  0  0  0  0  0  0  0  0  0  0  0
  -28.7226  -26.2019   18.6443 C   0  0  0  0  0  0  0  0  0  0  0  0
  -27.0442  -25.1408   20.0206 C   0  0  0  0  0  0  0  0  0  0  0  0
  -24.1560  -22.3424   20.3665 C   0  0  0  0  0  0  0  0  0  0  0  0
  -25.5682  -20.5869   18.7323 C   0  0  0  0  0  0  0  0  0  0  0  0
  -26.7546  -13.8106   16.7346 C   0  0  0  0  0  0  0  0  0  0  0  0
  -32.0581  -14.3447   23.0810 C   0  0  0  0  0  0  0  0  0  0  0  0
  -31.1937  -15.3153   23.5873 C   0  0  0  0  0  0  0  0  0  0  0  0
  -27.8645  -27.2802   18.4292 C   0  0  0  0  0  0  0  0  0  0  0  0
  -26.1861  -26.2192   19.8055 C   0  0  0  0  0  0  0  0  0  0  0  0
  -27.7530  -12.8380   16.7647 C   0  0  0  0  0  0  0  0  0  0  0  0
  -25.7998  -29.3652   20.9776 C   0  0  0  0  0  0  0  0  0  0  0  0
  -25.1213  -29.8817   22.0814 C   0  0  0  0  0  0  0  0  0  0  0  0
  -27.1683  -12.3169   19.0463 C   0  0  0  0  0  0  0  0  0  0  0  0
  -31.9360  -15.3742   20.8987 C   0  0  0  0  0  0  0  0  0  0  0  0
  -23.0104  -29.3765   21.0203 C   0  0  0  0  0  0  0  0  0  0  0  0
  -28.3124  -25.1321   19.4399 C   0  0  0  0  0  0  0  0  0  0  0  0
  -30.1394  -23.8732   20.6989 C   0  0  0  0  0  0  0  0  0  0  0  0
  -24.5863  -21.1122   20.8881 C   0  0  0  0  0  0  0  0  0  0  0  0
  -25.9614  -14.0517   17.8656 C   0  0  0  0  0  0  0  0  0  0  0  0
  -25.3097  -20.2273   20.0660 C   0  0  0  0  0  0  0  0  0  0  0  0
  -26.1588  -13.2914   19.0272 C   0  0  0  0  0  0  0  0  0  0  0  0
  -32.4293  -14.3742   21.7367 C   0  0  0  0  0  0  0  0  0  0  0  0
  -30.7004  -16.3153   22.7493 C   0  0  0  0  0  0  0  0  0  0  0  0
  -31.0716  -16.3448   21.4050 C   0  0  0  0  0  0  0  0  0  0  0  0
  -26.5962  -27.2889   19.0098 C   0  0  0  0  0  0  0  0  0  0  0  0
  -27.9619  -12.0929   17.9216 C   0  0  0  0  0  0  0  0  0  0  0  0
  -25.0836  -28.8544   19.8951 C   0  0  0  0  0  0  0  0  0  0  0  0
  -23.7266  -29.8874   22.1028 C   0  0  0  0  0  0  0  0  0  0  0  0
  -23.6889  -28.8600   19.9165 C   0  0  0  0  0  0  0  0  0  0  0  0
  -29.1982  -24.0175   19.6621 C   0  0  0  0  0  0  0  0  0  0  0  0
  -30.7210  -22.6507   20.4671 C   0  0  0  0  0  0  0  0  0  0  0  0
  -31.7477  -11.4934   18.2424 C   0  0  0  0  0  0  0  0  0  0  0  0
  -32.5397  -12.5216   19.0169 C   0  0  0  0  0  0  0  0  0  0  0  0
  -30.4594  -24.7645   21.7755 C   0  0  0  0  0  0  0  0  0  0  0  0
  -25.4730  -16.5476   19.7723 C   0  0  0  0  0  0  0  0  0  0  0  0
  -23.2104  -14.6191   21.0700 C   0  0  0  0  0  0  0  0  0  0  0  0
  -22.0755  -11.4481   21.6208 C   0  0  0  0  0  0  0  0  0  0  0  0
  -30.3516  -17.2492   19.1667 C   0  0  0  0  0  0  0  0  0  0  0  0
  -24.3171  -20.8053   22.3400 C   0  0  0  0  0  0  0  0  0  0  0  0
  -24.8709  -15.0860   17.8083 C   0  0  0  0  0  0  0  0  0  0  0  0
  -25.3208  -13.4974   20.2617 C   0  0  0  0  0  0  0  0  0  0  0  0
  -24.4945  -19.3311   22.6941 C   0  0  0  0  0  0  0  0  0  0  0  0
  -30.4214  -19.5666   16.4645 C   0  0  0  0  0  0  0  0  0  0  0  0
  -25.7942  -18.7930   22.1041 C   0  0  0  0  0  0  0  0  0  0  0  0
  -30.1868  -20.9193   17.1408 C   0  0  0  0  0  0  0  0  0  0  0  0
  -31.7201  -10.0528   20.2616 C   0  0  0  0  0  0  0  0  0  0  0  0
  -29.6086  -18.4541   17.1244 C   0  0  0  0  0  0  0  0  0  0  0  0
  -31.9850  -11.2721   21.1220 C   0  0  0  0  0  0  0  0  0  0  0  0
  -29.5465  -19.6905   19.2543 C   0  0  0  0  0  0  0  0  0  0  0  0
  -25.7839  -18.8827   20.5733 C   0  0  1  0  0  0  0  0  0  0  0  0
  -30.9866  -10.4238   18.9823 C   0  0  1  0  0  0  0  0  0  0  0  0
  -24.4638  -15.6019   19.1851 C   0  0  1  0  0  0  0  0  0  0  0  0
  -30.3936  -20.8304   18.6655 C   0  0  2  0  0  0  0  0  0  0  0  0
  -29.7754  -17.3415   23.3188 C   0  0  0  0  0  0  0  0  0  0  0  0
  -20.2200  -10.1876   22.7457 C   0  0  0  0  0  0  0  0  0  0  0  0
  -24.5167  -15.1207   23.7814 C   0  0  0  0  0  0  0  0  0  0  0  0
  -23.2593  -13.1482   24.6740 C   0  0  0  0  0  0  0  0  0  0  0  0
  -22.0160  -15.1309   23.8103 C   0  0  0  0  0  0  0  0  0  0  0  0
  -21.1655  -10.2735   19.0613 C   0  0  0  0  0  0  0  0  0  0  0  0
  -33.3599  -13.3291   21.1927 C   0  0  0  0  0  0  0  0  0  0  0  0
  -29.5526  -10.8879   19.2152 C   0  0  0  0  0  0  0  0  0  1  0  0
  -23.1866  -13.5949   22.1787 C   0  0  1  0  0  0  0  0  0  0  0  0
  -20.7007  -10.8268   21.4522 C   0  0  2  0  0  0  0  0  0  0  0  0
  -23.2619  -14.2459   23.5886 C   0  0  0  0  0  0  0  0  0  0  0  0
  -29.1797  -22.9705   18.8330 N   0  0  0  0  0  0  0  0  0  0  0  0
  -30.1165  -22.1565   19.3487 N   0  0  0  0  0  0  0  0  0  0  0  0
  -32.6573  -12.3389   20.3897 N   0  0  0  0  0  0  0  0  0  0  0  0
  -24.2713  -14.5247   20.1582 N   0  0  0  0  0  0  0  0  0  0  0  0
  -29.8585  -18.4274   18.5672 N   0  0  0  0  0  0  0  0  0  0  0  0
  -31.6853  -21.9610   21.1126 N   0  0  0  0  0  0  0  0  0  0  0  0
  -29.7663  -25.9793   21.8656 N   0  0  0  0  0  0  0  0  0  0  0  0
  -30.5816  -17.3529   20.5382 N   0  0  0  0  0  0  0  0  0  0  0  0
  -24.9825  -17.8174   20.0100 N   0  0  0  0  0  0  0  0  0  0  0  0
  -21.9950  -12.7825   21.9585 N   0  0  0  0  0  0  0  0  0  0  0  0
  -20.7323   -9.7786   20.3934 N   0  3  0  0  0  0  0  0  0  0  0  0
  -31.7119  -11.6120   17.0227 O   0  0  0  0  0  0  0  0  0  0  0  0
  -33.0257  -13.4365   18.3601 O   0  0  0  0  0  0  0  0  0  0  0  0
  -31.3455  -24.4989   22.6227 O   0  0  0  0  0  0  0  0  0  0  0  0
  -26.6120  -16.1540   19.9948 O   0  0  0  0  0  0  0  0  0  0  0  0
  -22.3166  -15.4671   21.0108 O   0  0  0  0  0  0  0  0  0  0  0  0
  -23.1167  -10.8123   21.4717 O   0  0  0  0  0  0  0  0  0  0  0  0
  -30.5807  -16.2322   18.5070 O   0  0  0  0  0  0  0  0  0  0  0  0
  -25.7587  -28.3412   18.8003 O   0  0  0  0  0  0  0  0  0  0  0  0
  -28.9361  -11.1434   17.9538 O   0  0  0  0  0  0  0  0  0  1  0  0
  -23.0752  -30.3820   23.1635 F   0  0  0  0  0  0  0  0  0  0  0  0
  -22.9954  -28.3695   18.8800 F   0  0  0  0  0  0  0  0  0  0  0  0
  1  2  1  0  0  0  0
  1  5  2  0  0  0  0
  2  6  2  0  0  0  0
  3 10  2  0  0  0  0
  3 18  1  0  0  0  0
  4 11  1  0  0  0  0
  4 18  2  0  0  0  0
  5 20  1  0  0  0  0
  6 22  1  0  0  0  0
  7 12  2  0  0  0  0
  7 21  1  0  0  0  0
  8  9  2  0  0  0  0
  8 24  1  0  0  0  0
  9 25  1  0  0  0  0
 10 27  1  0  0  0  0
 11 27  2  0  0  0  0
 12 28  1  0  0  0  0
 13 14  2  0  0  0  0
 13 29  1  0  0  0  0
 14 30  1  0  0  0  0
 15 23  1  0  0  0  0
 15 28  2  0  0  0  0
 16 24  2  0  0  0  0
 16 26  1  0  0  0  0
 17 30  2  0  0  0  0
 17 31  1  0  0  0  0
 18 32  1  0  0  0  0
 19 32  1  0  0  0  0
 19 33  2  0  0  0  0
 19 36  1  0  0  0  0
 20 22  2  0  0  0  0
 20 41  1  0  0  0  0
 21 23  2  0  0  0  0
 21 42  1  0  0  0  0
 22 52  1  0  0  0  0
 23 43  1  0  0  0  0
 24 62  1  0  0  0  0
 25 26  2  0  0  0  0
 25 56  1  0  0  0  0
 26 74  1  0  0  0  0
 27 85  1  0  0  0  0
 28 86  1  0  0  0  0
 29 31  2  0  0  0  0
 29 85  1  0  0  0  0
 30 87  1  0  0  0  0
 31 88  1  0  0  0  0
 32 67  2  0  0  0  0
 33 68  1  0  0  0  0
 33 72  1  0  0  0  0
 34 35  1  0  0  0  0
 34 53  1  0  0  0  0
 34 78  2  0  0  0  0
 35 69  1  0  0  0  0
 35 79  2  0  0  0  0
 36 73  1  0  0  0  0
 36 80  2  0  0  0  0
 37 54  1  0  0  0  0
 37 75  1  0  0  0  0
 37 81  2  0  0  0  0
 38 64  1  0  0  0  0
 38 70  1  0  0  0  0
 38 82  2  0  0  0  0
 39 65  1  0  0  0  0
 39 76  1  0  0  0  0
 39 83  2  0  0  0  0
 40 71  1  0  0  0  0
 40 74  1  0  0  0  0
 40 84  2  0  0  0  0
 41 44  1  0  0  0  0
 42 54  1  0  0  0  0
 43 70  1  0  0  0  0
 44 46  1  0  0  0  0
 45 47  1  0  0  0  0
 45 49  1  0  0  0  0
 46 52  1  0  0  0  0
 47 55  1  0  0  0  0
 48 50  1  0  0  0  0
 48 53  1  0  0  0  0
 49 71  1  0  0  0  0
 50 69  1  0  0  0  0
 51 55  1  0  0  0  0
 51 71  1  0  0  0  0
 52 75  1  0  0  0  0
 53 63  1  0  0  0  0
 54 70  1  0  0  0  0
 55 68  1  0  0  0  0
 57 65  1  0  0  0  0
 58 66  1  0  0  0  0
 59 66  1  0  0  0  0
 60 66  1  0  0  0  0
 61 77  1  0  0  0  0
 62 69  1  0  0  0  0
 63 86  1  0  0  0  0
 64 66  1  0  0  0  0
 64 76  1  0  0  0  0
 65 77  1  0  0  0  0
 67 68  1  0  0  0  0
M  CHG  1  77   1
M  ISO  4  40 100  63 101  74 100  86 101
M  END
> <Batch ID>
0058

> <Smiles>
CNC(C)C(=O)NC(C(=O)N1Cc2cc([101O:1][101CH2:1]C3CCN(Cc4ccc(C)c([100NH:0][100C:0](=O)N5CCCC(n6nc(-c7ccc(Oc8ccc(F)cc8F)cc7)c(C(N)=O)c6N)C5)c4)C(=O)C3=O)ccc2CC1C(=O)NC1CCCc2ccccc21)C(C)(C)C

> <Shape>
0.228

> <Color>
0.055

> <Negative vol penalty>
0.000

$$$$

  -OEChem-04042322583D

 91 99  0     1  0  0  0  0  0999 V2000
  -32.2928  -12.6563   16.5583 C   0  0  0  0  0  0  0  0  0  0  0  0
  -31.9036  -13.4380   17.6413 C   0  0  0  0  0  0  0  0  0  0  0  0
  -25.0953  -31.0982   21.2426 C   0  0  0  0  0  0  0  0  0  0  0  0
  -24.5365  -29.4030   22.8708 C   0  0  0  0  0  0  0  0  0  0  0  0
  -31.3402  -12.2134   15.6417 C   0  0  0  0  0  0  0  0  0  0  0  0
  -30.5616  -13.7783   17.8076 C   0  0  0  0  0  0  0  0  0  0  0  0
  -28.9948  -13.2225   22.5910 C   0  0  0  0  0  0  0  0  0  0  0  0
  -24.4794  -32.0648   22.0375 C   0  0  0  0  0  0  0  0  0  0  0  0
  -23.9206  -30.3696   23.6658 C   0  0  0  0  0  0  0  0  0  0  0  0
  -29.3524  -14.2192   23.4980 C   0  0  0  0  0  0  0  0  0  0  0  0
  -25.2197  -33.8483   24.8131 C   0  0  0  0  0  0  0  0  0  0  0  0
  -25.8935  -35.0542   25.0062 C   0  0  0  0  0  0  0  0  0  0  0  0
  -27.4280  -18.5404   19.1038 C   0  0  0  0  0  0  0  0  0  0  0  0
  -27.1568  -15.1949   23.2822 C   0  0  0  0  0  0  0  0  0  0  0  0
  -25.9732  -20.0918   17.9576 C   0  0  0  0  0  0  0  0  0  0  0  0
  -24.0466  -36.2467   24.0043 C   0  0  0  0  0  0  0  0  0  0  0  0
  -25.1238  -29.7672   21.6592 C   0  0  0  0  0  0  0  0  0  0  0  0
  -28.1587  -19.6091   19.6229 C   0  0  0  0  0  0  0  0  0  0  0  0
  -27.7966  -20.9192   19.3094 C   0  0  0  0  0  0  0  0  0  0  0  0
  -27.1074  -28.3646   20.8809 C   0  0  0  0  0  0  0  0  0  0  0  0
  -29.9845  -12.5403   15.8021 C   0  0  0  0  0  0  0  0  0  0  0  0
  -27.7169  -13.2108   22.0135 C   0  0  0  0  0  0  0  0  0  0  0  0
  -29.5901  -13.3404   16.8914 C   0  0  0  0  0  0  0  0  0  0  0  0
  -26.7846  -14.1955   22.3701 C   0  0  0  0  0  0  0  0  0  0  0  0
  -26.7038  -21.1605   18.4767 C   0  0  0  0  0  0  0  0  0  0  0  0
  -23.8921  -31.7005   23.2491 C   0  0  0  0  0  0  0  0  0  0  0  0
  -28.4343  -15.2072   23.8415 C   0  0  0  0  0  0  0  0  0  0  0  0
  -23.9593  -33.8415   24.2155 C   0  0  0  0  0  0  0  0  0  0  0  0
  -25.3070  -36.2534   24.6019 C   0  0  0  0  0  0  0  0  0  0  0  0
  -26.3353  -18.7817   18.2711 C   0  0  0  0  0  0  0  0  0  0  0  0
  -23.3727  -35.0407   23.8112 C   0  0  0  0  0  0  0  0  0  0  0  0
  -25.7594  -28.7682   20.8382 C   0  0  0  0  0  0  0  0  0  0  0  0
  -27.2073  -27.3980   19.9102 C   0  0  0  0  0  0  0  0  0  0  0  0
  -30.2626  -23.4832   19.2416 C   0  0  0  0  0  0  0  0  0  0  0  0
  -28.5644  -22.0363   19.8538 C   0  0  0  0  0  0  0  0  0  0  0  0
  -29.3108  -19.3242   20.5028 C   0  0  0  0  0  0  0  0  0  0  0  0
  -28.1738  -28.8223   21.7229 C   0  0  0  0  0  0  0  0  0  0  0  0
  -26.5927  -13.4439   19.0495 C   0  0  0  0  0  0  0  0  0  0  0  0
  -23.7580  -12.8041   20.4908 C   0  0  0  0  0  0  0  0  0  0  0  0
  -30.0825  -18.9609   22.8369 C   0  0  0  0  0  0  0  0  0  0  0  0
  -21.8770  -12.8626   23.3378 C   0  0  0  0  0  0  0  0  0  0  0  0
  -25.2535  -22.8692   17.3264 C   0  0  0  0  0  0  0  0  0  0  0  0
  -28.9979  -12.0779   14.7592 C   0  0  0  0  0  0  0  0  0  0  0  0
  -27.3378  -12.1135   21.0572 C   0  0  0  0  0  0  0  0  0  0  0  0
  -25.3932  -14.2160   21.7939 C   0  0  0  0  0  0  0  0  0  0  0  0
  -27.5435  -12.1694   15.2137 C   0  0  0  0  0  0  0  0  0  0  0  0
  -23.9507  -26.0165   16.2898 C   0  0  0  0  0  0  0  0  0  0  0  0
  -27.2731  -13.5199   15.8693 C   0  0  0  0  0  0  0  0  0  0  0  0
  -24.4160  -26.9797   17.3842 C   0  0  0  0  0  0  0  0  0  0  0  0
  -23.5820  -24.6474   16.8584 C   0  0  0  0  0  0  0  0  0  0  0  0
  -25.0841  -24.9830   18.7820 C   0  0  0  0  0  0  0  0  0  0  0  0
  -28.1404  -13.7098   17.1196 C   0  0  1  0  0  0  0  0  0  0  0  0
  -26.1807  -12.4946   20.1389 C   0  0  1  0  0  0  0  0  0  0  0  0
  -25.5283  -26.3550   18.2491 C   0  0  2  0  0  0  0  0  0  0  0  0
  -30.9324  -24.3997   18.2657 C   0  0  0  0  0  0  0  0  0  0  0  0
  -19.5846  -12.3095   24.1959 C   0  0  0  0  0  0  0  0  0  0  0  0
  -22.6547  -15.3160   19.1555 C   0  0  0  0  0  0  0  0  0  0  0  0
  -20.7327  -15.2395   20.7581 C   0  0  0  0  0  0  0  0  0  0  0  0
  -21.0930  -13.3626   19.1549 C   0  0  0  0  0  0  0  0  0  0  0  0
  -22.9477  -10.8850   25.2617 C   0  0  0  0  0  0  0  0  0  0  0  0
  -29.5085  -18.9563   24.2346 C   0  0  0  0  0  0  0  0  0  0  0  0
  -30.2484  -18.0233   25.1871 C   0  0  0  0  0  0  0  0  0  0  0  0
  -30.1560  -16.5606   24.7688 C   0  0  0  0  0  0  0  0  0  1  0  0
  -22.6647  -13.6363   21.1163 C   0  0  1  0  0  0  0  0  0  0  0  0
  -21.0046  -11.8055   23.9906 C   0  0  2  0  0  0  0  0  0  0  0  0
  -21.8131  -14.3896   20.0558 C   0  0  0  0  0  0  0  0  0  0  0  0
  -25.0537  -28.1118   19.9134 N   0  0  0  0  0  0  0  0  0  0  0  0
  -29.1640  -22.8832   18.9258 N   0  0  0  0  0  0  0  0  0  0  0  0
  -25.9617  -27.2860   19.3660 N   0  0  0  0  0  0  0  0  0  0  0  0
  -25.0723  -13.1254   20.8584 N   0  0  0  0  0  0  0  0  0  0  0  0
  -24.6844  -24.1158   17.6626 N   0  0  0  0  0  0  0  0  0  0  0  0
  -28.2383  -26.6415   19.4776 N   0  0  0  0  0  0  0  0  0  0  0  0
  -27.8981  -29.8210   22.6668 N   0  0  0  0  0  0  0  0  0  0  0  0
  -26.3161  -22.4817   18.1421 N   0  0  0  0  0  0  0  0  0  0  0  0
  -29.0908  -19.2317   21.8216 N   0  0  0  0  0  0  0  0  0  0  0  0
  -27.5957  -12.9602   18.2313 N   0  0  0  0  0  0  0  0  0  0  0  0
  -21.8978  -12.7312   21.9653 N   0  0  0  0  0  0  0  0  0  0  0  0
  -30.5059  -19.1772   19.9316 N   0  3  0  0  0  0  0  0  0  0  0  0
  -21.5631  -11.4203   25.3175 N   0  3  0  0  0  0  0  0  0  0  0  0
  -28.6526  -22.1885   21.0845 O   0  0  0  0  0  0  0  0  0  0  0  0
  -29.3405  -28.3712   21.6293 O   0  0  0  0  0  0  0  0  0  0  0  0
  -26.0404  -14.5339   18.9572 O   0  0  0  0  0  0  0  0  0  0  0  0
  -23.4564  -11.8975   19.7105 O   0  0  0  0  0  0  0  0  0  0  0  0
  -31.2585  -18.7869   22.5522 O   0  0  0  0  0  0  0  0  0  0  0  0
  -22.4767  -13.7213   23.9807 O   0  0  0  0  0  0  0  0  0  0  0  0
  -24.8473  -22.2079   16.3675 O   0  0  0  0  0  0  0  0  0  0  0  0
  -23.2913  -32.6435   24.0252 O   0  0  0  0  0  0  0  0  0  0  0  0
  -28.7809  -16.1815   24.7261 O   0  0  0  0  0  0  0  0  0  1  0  0
  -25.9535  -37.4115   24.7888 F   0  0  0  0  0  0  0  0  0  0  0  0
  -25.6333  -17.7558   17.7722 F   0  0  0  0  0  0  0  0  0  0  0  0
  -22.1616  -35.0407   23.2376 F   0  0  0  0  0  0  0  0  0  0  0  0
  1  2  1  0  0  0  0
  1  5  2  0  0  0  0
  2  6  2  0  0  0  0
  3  8  2  0  0  0  0
  3 17  1  0  0  0  0
  4  9  1  0  0  0  0
  4 17  2  0  0  0  0
  5 21  1  0  0  0  0
  6 23  1  0  0  0  0
  7 10  2  0  0  0  0
  7 22  1  0  0  0  0
  8 26  1  0  0  0  0
  9 26  2  0  0  0  0
 10 27  1  0  0  0  0
 11 12  2  0  0  0  0
 11 28  1  0  0  0  0
 12 29  1  0  0  0  0
 13 18  1  0  0  0  0
 13 30  2  0  0  0  0
 14 24  1  0  0  0  0
 14 27  2  0  0  0  0
 15 25  2  0  0  0  0
 15 30  1  0  0  0  0
 16 29  2  0  0  0  0
 16 31  1  0  0  0  0
 17 32  1  0  0  0  0
 18 19  2  0  0  0  0
 18 36  1  0  0  0  0
 19 25  1  0  0  0  0
 19 35  1  0  0  0  0
 20 32  1  0  0  0  0
 20 33  2  0  0  0  0
 20 37  1  0  0  0  0
 21 23  2  0  0  0  0
 21 43  1  0  0  0  0
 22 24  2  0  0  0  0
 22 44  1  0  0  0  0
 23 52  1  0  0  0  0
 24 45  1  0  0  0  0
 25 74  1  0  0  0  0
 26 87  1  0  0  0  0
 27 88  1  0  0  0  0
 28 31  2  0  0  0  0
 28 87  1  0  0  0  0
 29 89  1  0  0  0  0
 30 90  1  0  0  0  0
 31 91  1  0  0  0  0
 32 67  2  0  0  0  0
 33 69  1  0  0  0  0
 33 72  1  0  0  0  0
 34 55  1  0  0  0  0
 34 68  2  0  0  0  0
 35 68  1  0  0  0  0
 35 80  2  0  0  0  0
 36 75  1  0  0  0  0
 36 78  2  0  0  0  0
 37 73  1  0  0  0  0
 37 81  2  0  0  0  0
 38 53  1  0  0  0  0
 38 76  1  0  0  0  0
 38 82  2  0  0  0  0
 39 64  1  0  0  0  0
 39 70  1  0  0  0  0
 39 83  2  0  0  0  0
 40 61  1  0  0  0  0
 40 75  1  0  0  0  0
 40 84  2  0  0  0  0
 41 65  1  0  0  0  0
 41 77  1  0  0  0  0
 41 85  2  0  0  0  0
 42 71  1  0  0  0  0
 42 74  1  0  0  0  0
 42 86  2  0  0  0  0
 43 46  1  0  0  0  0
 44 53  1  0  0  0  0
 45 70  1  0  0  0  0
 46 48  1  0  0  0  0
 47 49  1  0  0  0  0
 47 50  1  0  0  0  0
 48 52  1  0  0  0  0
 49 54  1  0  0  0  0
 50 71  1  0  0  0  0
 51 54  1  0  0  0  0
 51 71  1  0  0  0  0
 52 76  1  0  0  0  0
 53 70  1  0  0  0  0
 54 69  1  0  0  0  0
 56 65  1  0  0  0  0
 57 66  1  0  0  0  0
 58 66  1  0  0  0  0
 59 66  1  0  0  0  0
 60 79  1  0  0  0  0
 61 62  1  0  0  0  0
 62 63  1  0  0  0  0
 63 88  1  0  0  0  0
 64 66  1  0  0  0  0
 64 77  1  0  0  0  0
 65 79  1  0  0  0  0
 67 69  1  0  0  0  0
M  CHG  2  78   1  79   1
M  ISO  4  42 100  63 101  74 100  88 101
M  END
> <Batch ID>
0058

> <Smiles>
C=CNC(=O)c1c([100NH:0][100C:0](=O)N2CCCC(n3nc(-c4ccc(Oc5ccc(F)cc5F)cc4)c(C(N)=O)c3N)C2)cc(F)cc1C(=N)NC(=O)CC[101CH2:1][101O:1]c1ccc2c(c1)CN(C(=O)C(NC(=O)C(C)NC)C(C)(C)C)C(C(=O)NC1CCCc3ccccc31)C2

> <Shape>
0.262

> <Color>
0.081

> <Negative vol penalty>
0.000

$$$$

  -OEChem-04042322583D

 88 96  0     1  0  0  0  0  0999 V2000
  -25.3824  -21.6448   40.4297 C   0  0  0  0  0  0  0  0  0  0  0  0
  -25.5869  -20.9950   39.2167 C   0  0  0  0  0  0  0  0  0  0  0  0
  -23.0004   -9.8944   19.9811 C   0  0  0  0  0  0  0  0  0  0  0  0
  -23.7257   -9.9449   22.2851 C   0  0  0  0  0  0  0  0  0  0  0  0
  -24.0886  -21.8041   40.9244 C   0  0  0  0  0  0  0  0  0  0  0  0
  -24.4978  -20.5032   38.4982 C   0  0  0  0  0  0  0  0  0  0  0  0
  -24.7859  -21.5754   33.5573 C   0  0  0  0  0  0  0  0  0  0  0  0
  -32.6473  -17.4443   23.4580 C   0  0  0  0  0  0  0  0  0  0  0  0
  -32.0587  -16.5495   22.5644 C   0  0  0  0  0  0  0  0  0  0  0  0
  -22.2337   -8.7600   20.2473 C   0  0  0  0  0  0  0  0  0  0  0  0
  -22.9589   -8.8105   22.5513 C   0  0  0  0  0  0  0  0  0  0  0  0
  -25.6409  -20.7910   32.7843 C   0  0  0  0  0  0  0  0  0  0  0  0
  -23.2026   -5.4716   22.0789 C   0  0  0  0  0  0  0  0  0  0  0  0
  -23.7900   -4.4542   22.8309 C   0  0  0  0  0  0  0  0  0  0  0  0
  -29.8805  -17.4465   23.1009 C   0  0  0  0  0  0  0  0  0  0  0  0
  -23.7529  -19.5005   32.0165 C   0  0  0  0  0  0  0  0  0  0  0  0
  -22.0662   -4.6972   24.5062 C   0  0  0  0  0  0  0  0  0  0  0  0
  -23.7465  -10.4868   21.0000 C   0  0  0  0  0  0  0  0  0  0  0  0
  -30.4691  -18.3413   23.9945 C   0  0  0  0  0  0  0  0  0  0  0  0
  -24.1322  -13.0024   20.8243 C   0  0  0  0  0  0  0  0  0  0  0  0
  -22.9823  -21.3225   40.2069 C   0  0  0  0  0  0  0  0  0  0  0  0
  -23.4070  -21.3209   33.5742 C   0  0  0  0  0  0  0  0  0  0  0  0
  -23.1881  -20.6550   38.9844 C   0  0  0  0  0  0  0  0  0  0  0  0
  -22.8823  -20.2848   32.7886 C   0  0  0  0  0  0  0  0  0  0  0  0
  -31.8524  -18.3402   24.1731 C   0  0  0  0  0  0  0  0  0  0  0  0
  -30.6753  -16.5506   22.3858 C   0  0  0  0  0  0  0  0  0  0  0  0
  -22.2129   -8.2181   21.5324 C   0  0  0  0  0  0  0  0  0  0  0  0
  -25.1248  -19.7515   32.0160 C   0  0  0  0  0  0  0  0  0  0  0  0
  -22.0471   -6.1019   22.5407 C   0  0  0  0  0  0  0  0  0  0  0  0
  -23.2218   -4.0669   24.0445 C   0  0  0  0  0  0  0  0  0  0  0  0
  -21.4789   -5.7147   23.7543 C   0  0  0  0  0  0  0  0  0  0  0  0
  -24.5391  -11.6583   20.7255 C   0  0  0  0  0  0  0  0  0  0  0  0
  -25.2421  -13.7248   20.4599 C   0  0  0  0  0  0  0  0  0  0  0  0
  -29.5995  -19.2848   24.7423 C   0  0  0  0  0  0  0  0  0  0  0  0
  -22.8644  -13.5489   21.2110 C   0  0  0  0  0  0  0  0  0  0  0  0
  -21.3090  -20.4767   35.8079 C   0  0  0  0  0  0  0  0  0  0  0  0
  -19.1662  -20.9363   33.4164 C   0  0  0  0  0  0  0  0  0  0  0  0
  -27.7429  -19.4048   26.3677 C   0  0  0  0  0  0  0  0  0  0  0  0
  -18.5513  -21.0631   30.0619 C   0  0  0  0  0  0  0  0  0  0  0  0
  -30.7218  -14.6848   20.6938 C   0  0  0  0  0  0  0  0  0  0  0  0
  -21.6063  -21.4765   40.8048 C   0  0  0  0  0  0  0  0  0  0  0  0
  -22.4949  -22.1932   34.3925 C   0  0  0  0  0  0  0  0  0  0  0  0
  -21.4070  -19.9834   32.7561 C   0  0  0  0  0  0  0  0  0  0  0  0
  -20.4778  -21.2573   39.8005 C   0  0  0  0  0  0  0  0  0  0  0  0
  -29.6029  -12.2325   18.3676 C   0  0  0  0  0  0  0  0  0  0  0  0
  -20.7349  -20.0011   38.9743 C   0  0  0  0  0  0  0  0  0  0  0  0
  -28.1523  -11.9750   18.7818 C   0  0  0  0  0  0  0  0  0  0  0  0
  -30.5035  -12.4755   19.5773 C   0  0  0  0  0  0  0  0  0  0  0  0
  -28.5884  -13.2646   20.9111 C   0  0  0  0  0  0  0  0  0  0  0  0
  -22.0303  -20.1295   38.1637 C   0  0  1  0  0  0  0  0  0  0  0  0
  -21.1701  -21.5181   34.7337 C   0  0  1  0  0  0  0  0  0  0  0  0
  -27.6306  -13.0786   19.7229 C   0  0  2  0  0  0  0  0  0  0  0  0
  -32.5086  -19.2878   25.1236 C   0  0  0  0  0  0  0  0  0  0  0  0
  -25.5156  -18.2461   26.3824 C   0  0  0  0  0  0  0  0  0  0  0  0
  -16.6953  -21.4218   28.4115 C   0  0  0  0  0  0  0  0  0  0  0  0
  -18.1325  -18.1195   33.9702 C   0  0  0  0  0  0  0  0  0  0  0  0
  -16.9838  -18.1789   31.7465 C   0  0  0  0  0  0  0  0  0  0  0  0
  -16.3501  -19.8149   33.5198 C   0  0  0  0  0  0  0  0  0  0  0  0
  -19.8790  -23.4445   28.9106 C   0  0  0  0  0  0  0  0  0  0  0  0
  -27.5674  -18.9249   29.4762 C   0  0  0  0  0  0  0  0  0  0  0  0
  -27.1396  -19.6067   30.7608 C   0  0  0  0  0  0  0  0  0  1  0  0
  -18.5689  -20.0690   32.3347 C   0  0  1  0  0  0  0  0  0  0  0  0
  -26.8155  -18.4792   27.1363 C   0  0  2  0  0  0  0  0  0  0  0  0
  -17.8096  -22.0785   29.2114 C   0  0  2  0  0  0  0  0  0  0  0  0
  -17.5369  -19.0498   32.8947 C   0  0  0  0  0  0  0  0  0  0  0  0
  -25.8084  -11.5316   20.3292 N   0  0  0  0  0  0  0  0  0  0  0  0
  -26.2086  -12.8054   20.1758 N   0  0  0  0  0  0  0  0  0  0  0  0
  -20.5568  -20.8604   33.5781 N   0  0  0  0  0  0  0  0  0  0  0  0
  -29.9487  -13.5365   20.4208 N   0  0  0  0  0  0  0  0  0  0  0  0
  -25.4758  -15.0505   20.3581 N   0  0  0  0  0  0  0  0  0  0  0  0
  -21.8324  -12.6649   21.5544 N   0  0  0  0  0  0  0  0  0  0  0  0
  -30.0777  -15.6400   21.4795 N   0  0  0  0  0  0  0  0  0  0  0  0
  -28.6364  -18.6970   25.5606 N   0  0  0  0  0  0  0  0  0  0  0  0
  -21.8169  -20.9607   36.9983 N   0  0  0  0  0  0  0  0  0  0  0  0
  -18.0255  -20.9808   31.3339 N   0  0  0  0  0  0  0  0  0  0  0  0
  -18.7460  -22.7388   28.2584 N   0  3  0  0  0  0  0  0  0  0  0  0
  -26.4885  -19.0625   28.4655 N   0  3  0  0  0  0  0  0  0  0  0  0
  -29.7872  -20.4926   24.6245 O   0  0  0  0  0  0  0  0  0  0  0  0
  -22.6479  -14.7843   21.2349 O   0  0  0  0  0  0  0  0  0  0  0  0
  -20.9784  -19.3201   35.5744 O   0  0  0  0  0  0  0  0  0  0  0  0
  -18.4269  -21.6601   34.0882 O   0  0  0  0  0  0  0  0  0  0  0  0
  -27.6883  -20.6288   26.4620 O   0  0  0  0  0  0  0  0  0  0  0  0
  -19.4998  -20.4058   29.6389 O   0  0  0  0  0  0  0  0  0  0  0  0
  -31.8604  -14.8236   20.2397 O   0  0  0  0  0  0  0  0  0  0  0  0
  -21.4646   -7.1113   21.7926 O   0  0  0  0  0  0  0  0  0  0  0  0
  -25.9572  -18.9839   31.2612 O   0  0  0  0  0  0  0  0  0  1  0  0
  -23.7851   -3.0889   24.7657 F   0  0  0  0  0  0  0  0  0  0  0  0
  -20.3681   -6.3157   24.2024 F   0  0  0  0  0  0  0  0  0  0  0  0
  1  2  1  0  0  0  0
  1  5  2  0  0  0  0
  2  6  2  0  0  0  0
  3 10  2  0  0  0  0
  3 18  1  0  0  0  0
  4 11  1  0  0  0  0
  4 18  2  0  0  0  0
  5 21  1  0  0  0  0
  6 23  1  0  0  0  0
  7 12  2  0  0  0  0
  7 22  1  0  0  0  0
  8  9  2  0  0  0  0
  8 25  1  0  0  0  0
  9 26  1  0  0  0  0
 10 27  1  0  0  0  0
 11 27  2  0  0  0  0
 12 28  1  0  0  0  0
 13 14  2  0  0  0  0
 13 29  1  0  0  0  0
 14 30  1  0  0  0  0
 15 19  1  0  0  0  0
 15 26  2  0  0  0  0
 16 24  1  0  0  0  0
 16 28  2  0  0  0  0
 17 30  2  0  0  0  0
 17 31  1  0  0  0  0
 18 32  1  0  0  0  0
 19 25  2  0  0  0  0
 19 34  1  0  0  0  0
 20 32  1  0  0  0  0
 20 33  2  0  0  0  0
 20 35  1  0  0  0  0
 21 23  2  0  0  0  0
 21 41  1  0  0  0  0
 22 24  2  0  0  0  0
 22 42  1  0  0  0  0
 23 50  1  0  0  0  0
 24 43  1  0  0  0  0
 25 53  1  0  0  0  0
 26 72  1  0  0  0  0
 27 85  1  0  0  0  0
 28 86  1  0  0  0  0
 29 31  2  0  0  0  0
 29 85  1  0  0  0  0
 30 87  1  0  0  0  0
 31 88  1  0  0  0  0
 32 66  2  0  0  0  0
 33 67  1  0  0  0  0
 33 70  1  0  0  0  0
 34 73  1  0  0  0  0
 34 78  2  0  0  0  0
 35 71  1  0  0  0  0
 35 79  2  0  0  0  0
 36 51  1  0  0  0  0
 36 74  1  0  0  0  0
 36 80  2  0  0  0  0
 37 62  1  0  0  0  0
 37 68  1  0  0  0  0
 37 81  2  0  0  0  0
 38 63  1  0  0  0  0
 38 73  1  0  0  0  0
 38 82  2  0  0  0  0
 39 64  1  0  0  0  0
 39 75  1  0  0  0  0
 39 83  2  0  0  0  0
 40 69  1  0  0  0  0
 40 72  1  0  0  0  0
 40 84  2  0  0  0  0
 41 44  1  0  0  0  0
 42 51  1  0  0  0  0
 43 68  1  0  0  0  0
 44 46  1  0  0  0  0
 45 47  1  0  0  0  0
 45 48  1  0  0  0  0
 46 50  1  0  0  0  0
 47 52  1  0  0  0  0
 48 69  1  0  0  0  0
 49 52  1  0  0  0  0
 49 69  1  0  0  0  0
 50 74  1  0  0  0  0
 51 68  1  0  0  0  0
 52 67  1  0  0  0  0
 54 63  1  0  0  0  0
 55 64  1  0  0  0  0
 56 65  1  0  0  0  0
 57 65  1  0  0  0  0
 58 65  1  0  0  0  0
 59 76  1  0  0  0  0
 60 61  1  0  0  0  0
 60 77  1  0  0  0  0
 61 86  1  0  0  0  0
 62 65  1  0  0  0  0
 62 75  1  0  0  0  0
 63 77  1  0  0  0  0
 64 76  1  0  0  0  0
 66 67  1  0  0  0  0
M  CHG  2  76   1  77   1
M  ISO  4  40 100  61 101  72 100  86 101
M  END
> <Batch ID>
0058

> <Smiles>
CNC(C)C(=O)NC(C(=O)N1Cc2cc([101O:1][101CH2:1]CNC(C)C(=O)NC(=O)c3cc([100NH:0][100C:0](=O)N4CCCC(n5nc(-c6ccc(Oc7ccc(F)cc7F)cc6)c(C(N)=O)c5N)C4)ccc3C)ccc2CC1C(=O)NC1CCCc2ccccc21)C(C)(C)C

> <Shape>
0.169

> <Color>
0.186

> <Negative vol penalty>
0.000

$$$$

  -OEChem-04042322583D

 92102  0     1  0  0  0  0  0999 V2000
  -26.1850  -37.7773   24.0199 C   0  0  0  0  0  0  0  0  0  0  0  0
  -26.8593  -36.9939   23.0887 C   0  0  0  0  0  0  0  0  0  0  0  0
  -24.4856   -9.5874   21.4778 C   0  0  0  0  0  0  0  0  0  0  0  0
  -25.3851  -10.2455   23.6213 C   0  0  0  0  0  0  0  0  0  0  0  0
  -25.4916  -37.1718   25.0670 C   0  0  0  0  0  0  0  0  0  0  0  0
  -26.8414  -35.6044   23.2048 C   0  0  0  0  0  0  0  0  0  0  0  0
  -26.8916  -29.6663   19.1983 C   0  0  0  0  0  0  0  0  0  0  0  0
  -32.6851  -19.7941   21.7937 C   0  0  0  0  0  0  0  0  0  0  0  0
  -32.6183  -20.8786   20.9191 C   0  0  0  0  0  0  0  0  0  0  0  0
  -24.1461   -8.3406   22.0030 C   0  0  0  0  0  0  0  0  0  0  0  0
  -25.0456   -8.9987   24.1465 C   0  0  0  0  0  0  0  0  0  0  0  0
  -27.5830  -28.4631   19.0646 C   0  0  0  0  0  0  0  0  0  0  0  0
  -21.6986   -7.0346   23.9361 C   0  0  0  0  0  0  0  0  0  0  0  0
  -20.4327   -6.5292   23.6398 C   0  0  0  0  0  0  0  0  0  0  0  0
  -26.2862  -27.5244   20.8691 C   0  0  0  0  0  0  0  0  0  0  0  0
  -21.4470   -4.6090   22.5811 C   0  0  0  0  0  0  0  0  0  0  0  0
  -25.1052  -10.5398   22.2869 C   0  0  0  0  0  0  0  0  0  0  0  0
  -24.5849  -12.7813   21.1857 C   0  0  0  0  0  0  0  0  0  0  0  0
  -25.4572  -35.7739   25.1905 C   0  0  0  0  0  0  0  0  0  0  0  0
  -25.8982  -29.8114   20.1773 C   0  0  0  0  0  0  0  0  0  0  0  0
  -26.1481  -34.9797   24.2554 C   0  0  0  0  0  0  0  0  0  0  0  0
  -25.5819  -28.7297   21.0115 C   0  0  0  0  0  0  0  0  0  0  0  0
  -31.5232  -19.1031   22.1377 C   0  0  0  0  0  0  0  0  0  0  0  0
  -30.2947  -19.4966   21.6072 C   0  0  0  0  0  0  0  0  0  0  0  0
  -30.2280  -20.5812   20.7326 C   0  0  0  0  0  0  0  0  0  0  0  0
  -31.3898  -21.2722   20.3885 C   0  0  0  0  0  0  0  0  0  0  0  0
  -24.4261   -8.0462   23.3374 C   0  0  0  0  0  0  0  0  0  0  0  0
  -27.2824  -27.3928   19.9019 C   0  0  0  0  0  0  0  0  0  0  0  0
  -22.8387   -6.3272   23.5548 C   0  0  0  0  0  0  0  0  0  0  0  0
  -20.3069   -5.3164   22.9624 C   0  0  0  0  0  0  0  0  0  0  0  0
  -22.7129   -5.1144   22.8773 C   0  0  0  0  0  0  0  0  0  0  0  0
  -25.4566  -11.8277   21.7448 C   0  0  0  0  0  0  0  0  0  0  0  0
  -25.4030  -13.8228   20.8218 C   0  0  0  0  0  0  0  0  0  0  0  0
  -32.5422  -24.4808   19.2118 C   0  0  0  0  0  0  0  0  0  0  0  0
  -23.1627  -12.7303   21.0110 C   0  0  0  0  0  0  0  0  0  0  0  0
  -25.5092  -31.6808   22.7185 C   0  0  0  0  0  0  0  0  0  0  0  0
  -22.5869  -30.2764   22.8186 C   0  0  0  0  0  0  0  0  0  0  0  0
  -20.6264  -27.6055   22.0002 C   0  0  0  0  0  0  0  0  0  0  0  0
  -30.5004  -15.7701   22.7794 C   0  0  0  0  0  0  0  0  0  0  0  0
  -24.7337  -35.1665   26.3662 C   0  0  0  0  0  0  0  0  0  0  0  0
  -25.1430  -31.1073   20.2910 C   0  0  0  0  0  0  0  0  0  0  0  0
  -24.5099  -28.8276   22.0649 C   0  0  0  0  0  0  0  0  0  0  0  0
  -31.9920  -25.1380   17.9637 C   0  0  0  0  0  0  0  0  0  0  0  0
  -24.4521  -33.6750   26.2038 C   0  0  0  0  0  0  0  0  0  0  0  0
  -29.8761  -14.7794   19.4477 C   0  0  0  0  0  0  0  0  0  0  0  0
  -25.6981  -32.9473   25.7089 C   0  0  0  0  0  0  0  0  0  0  0  0
  -28.5787  -13.9876   19.6055 C   0  0  0  0  0  0  0  0  0  0  0  0
  -30.6765  -23.0996   17.1964 C   0  0  0  0  0  0  0  0  0  0  0  0
  -30.2582  -24.5125   20.1577 C   0  0  0  0  0  0  0  0  0  0  0  0
  -30.8506  -14.5207   20.5982 C   0  0  0  0  0  0  0  0  0  0  0  0
  -31.4954  -22.1429   18.0686 C   0  0  0  0  0  0  0  0  0  0  0  0
  -28.9669  -13.9492   22.0974 C   0  0  0  0  0  0  0  0  0  0  0  0
  -26.1315  -33.4685   24.3334 C   0  0  1  0  0  0  0  0  0  0  0  0
  -31.5553  -23.7099   20.0740 C   0  0  1  0  0  0  0  0  0  0  0  0
  -24.5067  -31.3096   21.6626 C   0  0  1  0  0  0  0  0  0  0  0  0
  -30.6060  -24.5797   17.6223 C   0  0  1  0  0  0  0  0  0  0  0  0
  -29.6056  -24.7612   18.7896 C   0  0  2  0  0  0  0  0  0  0  0  0
  -27.9463  -14.2372   20.9856 C   0  0  2  0  0  0  0  0  0  0  0  0
  -29.0501  -18.7536   21.9778 C   0  0  0  0  0  0  0  0  0  0  0  0
  -28.9088  -21.0023   20.1644 C   0  0  0  0  0  0  0  0  0  0  0  0
  -18.2891  -26.7272   22.2511 C   0  0  0  0  0  0  0  0  0  0  0  0
  -23.1757  -29.5460   25.7220 C   0  0  0  0  0  0  0  0  0  0  0  0
  -21.2910  -27.9012   25.6175 C   0  0  0  0  0  0  0  0  0  0  0  0
  -20.8404  -30.3337   25.2975 C   0  0  0  0  0  0  0  0  0  0  0  0
  -32.6335  -16.3099   21.5291 C   0  0  0  0  0  0  0  0  0  0  0  0
  -20.2055  -27.5586   19.0711 C   0  0  0  0  0  0  0  0  0  0  0  0
  -31.6232  -17.9449   23.0757 C   0  0  0  0  0  0  0  0  0  0  0  0
  -28.9587  -26.1504   18.7607 C   0  0  0  0  0  0  0  0  0  1  0  0
  -22.0165  -29.0403   23.4711 C   0  0  1  0  0  0  0  0  0  0  0  0
  -19.2449  -27.5237   21.3765 C   0  0  2  0  0  0  0  0  0  0  0  0
  -21.8525  -29.2038   25.0085 C   0  0  0  0  0  0  0  0  0  0  0  0
  -26.7309  -12.2278   21.7386 N   0  0  0  0  0  0  0  0  0  0  0  0
  -26.6659  -13.4443   21.1712 N   0  0  0  0  0  0  0  0  0  0  0  0
  -31.3437  -22.3661   19.5111 N   0  0  2  0  0  0  0  0  0  0  0  0
  -23.8041  -30.1174   22.1412 N   0  0  0  0  0  0  0  0  0  0  0  0
  -30.1938  -14.7241   21.8966 N   0  0  0  0  0  0  0  0  0  0  0  0
  -25.1582  -15.0162   20.2403 N   0  0  0  0  0  0  0  0  0  0  0  0
  -22.3452  -13.2163   22.0405 N   0  0  0  0  0  0  0  0  0  0  0  0
  -25.2876  -32.9169   23.2950 N   0  0  0  0  0  0  0  0  0  0  0  0
  -20.7745  -28.7426   22.7659 N   0  0  0  0  0  0  0  0  0  0  0  0
  -31.5062  -16.6666   22.3883 N   0  0  0  0  0  0  0  0  0  0  0  0
  -19.3176  -26.8668   20.0408 N   0  3  0  0  0  0  0  0  0  0  0  0
  -33.7360  -24.5540   19.5011 O   0  0  0  0  0  0  0  0  0  0  0  0
  -22.6323  -12.2523   19.9796 O   0  0  0  0  0  0  0  0  0  0  0  0
  -26.4158  -30.9026   22.9910 O   0  0  0  0  0  0  0  0  0  0  0  0
  -21.9713  -31.3423   22.9007 O   0  0  0  0  0  0  0  0  0  0  0  0
  -21.4868  -26.7449   21.8286 O   0  0  0  0  0  0  0  0  0  0  0  0
  -29.9137  -15.8929   23.8624 O   0  0  0  0  0  0  0  0  0  0  0  0
  -24.0948   -6.8298   23.8503 O   0  0  0  0  0  0  0  0  0  0  0  0
  -27.9561  -26.2174   19.7740 O   0  0  0  0  0  0  0  0  0  1  0  0
  -19.0912   -4.8305   22.6794 F   0  0  0  0  0  0  0  0  0  0  0  0
  -23.8046   -4.4296   22.5095 F   0  0  0  0  0  0  0  0  0  0  0  0
  1  2  1  0  0  0  0
  1  5  2  0  0  0  0
  2  6  2  0  0  0  0
  3 10  2  0  0  0  0
  3 17  1  0  0  0  0
  4 11  1  0  0  0  0
  4 17  2  0  0  0  0
  5 19  1  0  0  0  0
  6 21  1  0  0  0  0
  7 12  2  0  0  0  0
  7 20  1  0  0  0  0
  8  9  2  0  0  0  0
  8 23  1  0  0  0  0
  9 26  1  0  0  0  0
 10 27  1  0  0  0  0
 11 27  2  0  0  0  0
 12 28  1  0  0  0  0
 13 14  2  0  0  0  0
 13 29  1  0  0  0  0
 14 30  1  0  0  0  0
 15 22  1  0  0  0  0
 15 28  2  0  0  0  0
 16 30  2  0  0  0  0
 16 31  1  0  0  0  0
 17 32  1  0  0  0  0
 18 32  1  0  0  0  0
 18 33  2  0  0  0  0
 18 35  1  0  0  0  0
 19 21  2  0  0  0  0
 19 40  1  0  0  0  0
 20 22  2  0  0  0  0
 20 41  1  0  0  0  0
 21 53  1  0  0  0  0
 22 42  1  0  0  0  0
 23 24  2  0  0  0  0
 23 67  1  0  0  0  0
 24 25  1  0  0  0  0
 24 59  1  0  0  0  0
 25 26  2  0  0  0  0
 25 60  1  0  0  0  0
 26 74  1  0  0  0  0
 27 89  1  0  0  0  0
 28 90  1  0  0  0  0
 29 31  2  0  0  0  0
 29 89  1  0  0  0  0
 30 91  1  0  0  0  0
 31 92  1  0  0  0  0
 32 72  2  0  0  0  0
 33 73  1  0  0  0  0
 33 77  1  0  0  0  0
 34 43  1  0  0  0  0
 34 54  1  0  0  0  0
 34 83  2  0  0  0  0
 35 78  1  0  0  0  0
 35 84  2  0  0  0  0
 36 55  1  0  0  0  0
 36 79  1  0  0  0  0
 36 85  2  0  0  0  0
 37 69  1  0  0  0  0
 37 75  1  0  0  0  0
 37 86  2  0  0  0  0
 38 70  1  0  0  0  0
 38 80  1  0  0  0  0
 38 87  2  0  0  0  0
 39 76  1  0  0  0  0
 39 81  1  0  0  0  0
 39 88  2  0  0  0  0
 40 44  1  0  0  0  0
 41 55  1  0  0  0  0
 42 75  1  0  0  0  0
 43 56  1  0  0  0  0
 44 46  1  0  0  0  0
 45 47  1  0  0  0  0
 45 50  1  0  0  0  0
 46 53  1  0  0  0  0
 47 58  1  0  0  0  0
 48 51  1  0  0  0  0
 48 56  1  0  0  0  0
 49 54  1  0  0  0  0
 49 57  1  0  0  0  0
 50 76  1  0  0  0  0
 51 74  1  0  0  0  0
 52 58  1  0  0  0  0
 52 76  1  0  0  0  0
 53 79  1  0  0  0  0
 54 74  1  0  0  0  0
 55 75  1  0  0  0  0
 56 57  1  0  0  0  0
 57 68  1  0  0  0  0
 58 73  1  0  0  0  0
 61 70  1  0  0  0  0
 62 71  1  0  0  0  0
 63 71  1  0  0  0  0
 64 71  1  0  0  0  0
 65 81  1  0  0  0  0
 66 82  1  0  0  0  0
 67 81  1  0  0  0  0
 68 90  1  0  0  0  0
 69 71  1  0  0  0  0
 69 80  1  0  0  0  0
 70 82  1  0  0  0  0
 72 73  1  0  0  0  0
M  CHG  1  82   1
M  ISO  4  39 100  68 101  81 100  90 101
M  END
> <Batch ID>
0058

> <Smiles>
CNC(C)C(=O)NC(C(=O)N1Cc2cc([101O:1][101CH2:1]C3CC4C(=O)CC3CCN4c3ccc(C[100N:0](C)[100C:0](=O)N4CCCC(n5nc(-c6ccc(Oc7ccc(F)cc7F)cc6)c(C(N)=O)c5N)C4)c(C)c3C)ccc2CC1C(=O)NC1CCCc2ccccc21)C(C)(C)C

> <Shape>
0.382

> <Color>
0.122

> <Negative vol penalty>
0.000

$$$$

  -OEChem-04042322583D

 85 93  0     1  0  0  0  0  0999 V2000
  -30.3106  -30.6050   27.6640 C   0  0  0  0  0  0  0  0  0  0  0  0
  -30.5273  -30.3786   26.3085 C   0  0  0  0  0  0  0  0  0  0  0  0
  -26.5082  -17.7816   14.8110 C   0  0  0  0  0  0  0  0  0  0  0  0
  -23.2721   -9.8210   19.9329 C   0  0  0  0  0  0  0  0  0  0  0  0
  -23.6298  -10.0280   22.3132 C   0  0  0  0  0  0  0  0  0  0  0  0
  -27.4489  -16.9347   15.3968 C   0  0  0  0  0  0  0  0  0  0  0  0
  -29.1869  -30.0658   28.2887 C   0  0  0  0  0  0  0  0  0  0  0  0
  -29.6209  -29.6117   25.5773 C   0  0  0  0  0  0  0  0  0  0  0  0
  -26.8091  -29.0429   19.0133 C   0  0  0  0  0  0  0  0  0  0  0  0
  -26.5219  -19.1460   15.1008 C   0  0  0  0  0  0  0  0  0  0  0  0
  -22.5011   -8.6787   20.1480 C   0  0  0  0  0  0  0  0  0  0  0  0
  -22.8588   -8.8856   22.5284 C   0  0  0  0  0  0  0  0  0  0  0  0
  -26.6050  -28.0998   18.0070 C   0  0  0  0  0  0  0  0  0  0  0  0
  -19.5784   -8.0810   22.6390 C   0  0  0  0  0  0  0  0  0  0  0  0
  -18.6331   -8.1226   23.6638 C   0  0  0  0  0  0  0  0  0  0  0  0
  -24.6574  -27.2848   19.1740 C   0  0  0  0  0  0  0  0  0  0  0  0
  -19.7386   -6.2741   24.7585 C   0  0  0  0  0  0  0  0  0  0  0  0
  -23.8365  -10.4956   21.0155 C   0  0  0  0  0  0  0  0  0  0  0  0
  -28.4033  -17.4521   16.2727 C   0  0  0  0  0  0  0  0  0  0  0  0
  -24.1836  -13.0085   20.7457 C   0  0  0  0  0  0  0  0  0  0  0  0
  -28.2611  -29.3000   27.5626 C   0  0  0  0  0  0  0  0  0  0  0  0
  -25.9437  -29.1070   20.1148 C   0  0  0  0  0  0  0  0  0  0  0  0
  -28.4844  -29.0605   26.1932 C   0  0  0  0  0  0  0  0  0  0  0  0
  -24.8512  -28.2314   20.1917 C   0  0  0  0  0  0  0  0  0  0  0  0
  -28.4170  -18.8164   16.5626 C   0  0  0  0  0  0  0  0  0  0  0  0
  -27.4762  -19.6634   15.9766 C   0  0  0  0  0  0  0  0  0  0  0  0
  -22.2945   -8.2110   21.4458 C   0  0  0  0  0  0  0  0  0  0  0  0
  -25.5308  -27.2187   18.0887 C   0  0  0  0  0  0  0  0  0  0  0  0
  -20.6038   -7.1359   22.6739 C   0  0  0  0  0  0  0  0  0  0  0  0
  -18.7132   -7.2192   24.7236 C   0  0  0  0  0  0  0  0  0  0  0  0
  -20.6839   -6.2326   23.7337 C   0  0  0  0  0  0  0  0  0  0  0  0
  -24.6334  -11.6754   20.7938 C   0  0  0  0  0  0  0  0  0  0  0  0
  -25.3186  -13.7457   20.5119 C   0  0  0  0  0  0  0  0  0  0  0  0
  -29.3844  -16.5319   16.8748 C   0  0  0  0  0  0  0  0  0  0  0  0
  -26.9294  -23.3641   16.2893 C   0  0  0  0  0  0  0  0  0  0  0  0
  -26.2083  -24.4334   15.9251 C   0  0  0  0  0  0  0  0  0  0  0  0
  -22.8582  -13.5335   20.8988 C   0  0  0  0  0  0  0  0  0  0  0  0
  -26.6033  -22.0103   15.7502 C   0  0  0  0  0  0  0  0  0  0  0  0
  -26.2738  -28.7183   23.2523 C   0  0  0  0  0  0  0  0  0  0  0  0
  -23.1812  -29.6956   23.3054 C   0  0  0  0  0  0  0  0  0  0  0  0
  -20.2166  -30.0206   21.6465 C   0  0  0  0  0  0  0  0  0  0  0  0
  -30.0691  -14.4877   17.6773 C   0  0  0  0  0  0  0  0  0  0  0  0
  -27.0861  -28.6983   28.2919 C   0  0  0  0  0  0  0  0  0  0  0  0
  -26.1620  -30.1477   21.1786 C   0  0  0  0  0  0  0  0  0  0  0  0
  -23.8814  -28.2725   21.3433 C   0  0  0  0  0  0  0  0  0  0  0  0
  -25.9777  -28.2100   27.3627 C   0  0  0  0  0  0  0  0  0  0  0  0
  -30.1953  -12.4358   20.6401 C   0  0  0  0  0  0  0  0  0  0  0  0
  -26.5646  -27.3993   26.2116 C   0  0  0  0  0  0  0  0  0  0  0  0
  -28.7223  -12.1366   20.9181 C   0  0  0  0  0  0  0  0  0  0  0  0
  -30.4786  -12.5109   19.1429 C   0  0  0  0  0  0  0  0  0  0  0  0
  -28.1375  -13.1911   18.6896 C   0  0  0  0  0  0  0  0  0  0  0  0
  -27.5110  -28.2547   25.3607 C   0  0  1  0  0  0  0  0  0  0  0  0
  -25.5162  -29.7839   22.5120 C   0  0  1  0  0  0  0  0  0  0  0  0
  -27.8078  -13.1388   20.1912 C   0  0  1  0  0  0  0  0  0  0  0  0
  -29.4418  -19.3704   17.5031 C   0  0  0  0  0  0  0  0  0  0  0  0
  -17.8593  -30.8209   21.9633 C   0  0  0  0  0  0  0  0  0  0  0  0
  -22.5432  -27.1761   24.9039 C   0  0  0  0  0  0  0  0  0  0  0  0
  -20.1233  -27.5355   24.3721 C   0  0  0  0  0  0  0  0  0  0  0  0
  -21.3735  -29.2392   25.6976 C   0  0  0  0  0  0  0  0  0  0  0  0
  -20.5004  -32.0605   19.5211 C   0  0  0  0  0  0  0  0  0  0  0  0
  -26.4848  -25.8157   16.4221 C   0  0  0  0  0  0  0  0  0  1  0  0
  -21.8406  -29.0063   23.2238 C   0  0  1  0  0  0  0  0  0  0  0  0
  -19.2623  -31.1932   21.5094 C   0  0  2  0  0  0  0  0  0  0  0  0
  -21.4894  -28.2370   24.5285 C   0  0  0  0  0  0  0  0  0  0  0  0
  -25.9514  -11.5689   20.6055 N   0  0  0  0  0  0  0  0  0  0  0  0
  -29.1002  -15.2927   17.1094 N   0  0  0  0  0  0  0  0  0  0  0  0
  -26.3395  -12.8444   20.4367 N   0  0  0  0  0  0  0  0  0  0  0  0
  -24.1410  -29.3037   22.3615 N   0  0  0  0  0  0  0  0  0  0  0  0
  -29.5689  -13.4474   18.4817 N   0  0  0  0  0  0  0  0  0  0  0  0
  -25.5330  -15.0704   20.3652 N   0  0  0  0  0  0  0  0  0  0  0  0
  -21.8073  -12.6365   21.1340 N   0  0  0  0  0  0  0  0  0  0  0  0
  -27.4719  -21.0521   16.2561 N   0  0  0  0  0  0  0  0  0  0  0  0
  -26.7559  -29.1226   24.4826 N   0  0  0  0  0  0  0  0  0  0  0  0
  -20.8737  -30.0359   22.8585 N   0  0  0  0  0  0  0  0  0  0  0  0
  -19.1934  -31.6419   20.0900 N   0  3  0  0  0  0  0  0  0  0  0  0
  -22.6106  -14.7602   20.8128 O   0  0  0  0  0  0  0  0  0  0  0  0
  -25.6755  -21.8437   14.9674 O   0  0  0  0  0  0  0  0  0  0  0  0
  -26.4096  -27.6109   22.7455 O   0  0  0  0  0  0  0  0  0  0  0  0
  -23.3674  -30.5554   24.1702 O   0  0  0  0  0  0  0  0  0  0  0  0
  -20.3616  -29.1736   20.7678 O   0  0  0  0  0  0  0  0  0  0  0  0
  -31.2803  -14.6435   17.5043 O   0  0  0  0  0  0  0  0  0  0  0  0
  -21.5420   -7.0965   21.6561 O   0  0  0  0  0  0  0  0  0  0  0  0
  -25.3297  -26.2967   17.1082 O   0  0  0  0  0  0  0  0  0  1  0  0
  -17.8062   -7.2602   25.7084 F   0  0  0  0  0  0  0  0  0  0  0  0
  -21.6674   -5.3232   23.7733 F   0  0  0  0  0  0  0  0  0  0  0  0
  1  2  1  0  0  0  0
  1  7  2  0  0  0  0
  2  8  2  0  0  0  0
  3  6  1  0  0  0  0
  3 10  2  0  0  0  0
  4 11  2  0  0  0  0
  4 18  1  0  0  0  0
  5 12  1  0  0  0  0
  5 18  2  0  0  0  0
  6 19  2  0  0  0  0
  7 21  1  0  0  0  0
  8 23  1  0  0  0  0
  9 13  2  0  0  0  0
  9 22  1  0  0  0  0
 10 26  1  0  0  0  0
 11 27  1  0  0  0  0
 12 27  2  0  0  0  0
 13 28  1  0  0  0  0
 14 15  2  0  0  0  0
 14 29  1  0  0  0  0
 15 30  1  0  0  0  0
 16 24  1  0  0  0  0
 16 28  2  0  0  0  0
 17 30  2  0  0  0  0
 17 31  1  0  0  0  0
 18 32  1  0  0  0  0
 19 25  1  0  0  0  0
 19 34  1  0  0  0  0
 20 32  1  0  0  0  0
 20 33  2  0  0  0  0
 20 37  1  0  0  0  0
 21 23  2  0  0  0  0
 21 43  1  0  0  0  0
 22 24  2  0  0  0  0
 22 44  1  0  0  0  0
 23 52  1  0  0  0  0
 24 45  1  0  0  0  0
 25 26  2  0  0  0  0
 25 55  1  0  0  0  0
 26 72  1  0  0  0  0
 27 82  1  0  0  0  0
 28 83  1  0  0  0  0
 29 31  2  0  0  0  0
 29 82  1  0  0  0  0
 30 84  1  0  0  0  0
 31 85  1  0  0  0  0
 32 65  2  0  0  0  0
 33 67  1  0  0  0  0
 33 70  1  0  0  0  0
 34 66  2  0  0  0  0
 35 36  2  0  0  0  0
 35 38  1  0  0  0  0
 36 61  1  0  0  0  0
 37 71  1  0  0  0  0
 37 76  2  0  0  0  0
 38 72  1  0  0  0  0
 38 77  2  0  0  0  0
 39 53  1  0  0  0  0
 39 73  1  0  0  0  0
 39 78  2  0  0  0  0
 40 62  1  0  0  0  0
 40 68  1  0  0  0  0
 40 79  2  0  0  0  0
 41 63  1  0  0  0  0
 41 74  1  0  0  0  0
 41 80  2  0  0  0  0
 42 66  1  0  0  0  0
 42 69  1  0  0  0  0
 42 81  2  0  0  0  0
 43 46  1  0  0  0  0
 44 53  1  0  0  0  0
 45 68  1  0  0  0  0
 46 48  1  0  0  0  0
 47 49  1  0  0  0  0
 47 50  1  0  0  0  0
 48 52  1  0  0  0  0
 49 54  1  0  0  0  0
 50 69  1  0  0  0  0
 51 54  1  0  0  0  0
 51 69  1  0  0  0  0
 52 73  1  0  0  0  0
 53 68  1  0  0  0  0
 54 67  1  0  0  0  0
 56 63  1  0  0  0  0
 57 64  1  0  0  0  0
 58 64  1  0  0  0  0
 59 64  1  0  0  0  0
 60 75  1  0  0  0  0
 61 83  1  0  0  0  0
 62 64  1  0  0  0  0
 62 74  1  0  0  0  0
 63 75  1  0  0  0  0
 65 67  1  0  0  0  0
M  CHG  1  75   1
M  ISO  4  42 100  61 101  66 100  83 101
M  END
> <Batch ID>
0058

> <Smiles>
CNC(C)C(=O)NC(C(=O)N1Cc2cc([101O:1][101CH2:1]C=CC(=O)Nc3cccc(C=[100N:0][100C:0](=O)N4CCCC(n5nc(-c6ccc(Oc7ccc(F)cc7F)cc6)c(C(N)=O)c5N)C4)c3C)ccc2CC1C(=O)NC1CCCc2ccccc21)C(C)(C)C

> <Shape>
0.227

> <Color>
0.193

> <Negative vol penalty>
0.000

$$$$

  -OEChem-04042322583D

 86 94  0     1  0  0  0  0  0999 V2000
  -16.8960  -29.1683   24.3309 C   0  0  0  0  0  0  0  0  0  0  0  0
  -17.3246  -28.1432   23.4937 C   0  0  0  0  0  0  0  0  0  0  0  0
  -26.4776  -10.6837   19.6526 C   0  0  0  0  0  0  0  0  0  0  0  0
  -25.9898  -12.6288   18.3051 C   0  0  0  0  0  0  0  0  0  0  0  0
  -17.5577  -30.3955   24.3234 C   0  0  0  0  0  0  0  0  0  0  0  0
  -18.4145  -28.3452   22.6476 C   0  0  0  0  0  0  0  0  0  0  0  0
  -22.6189  -24.2052   21.0078 C   0  0  0  0  0  0  0  0  0  0  0  0
  -28.1624  -21.7446   22.7318 C   0  0  0  0  0  0  0  0  0  0  0  0
  -28.7034  -20.4680   22.8841 C   0  0  0  0  0  0  0  0  0  0  0  0
  -25.2291  -10.1497   19.3338 C   0  0  0  0  0  0  0  0  0  0  0  0
  -24.7413  -12.0948   17.9862 C   0  0  0  0  0  0  0  0  0  0  0  0
  -22.7610  -23.4129   19.8695 C   0  0  0  0  0  0  0  0  0  0  0  0
  -22.0188  -10.5714   20.3037 C   0  0  0  0  0  0  0  0  0  0  0  0
  -21.2680  -10.0170   21.3403 C   0  0  0  0  0  0  0  0  0  0  0  0
  -28.4236  -20.0672   20.5180 C   0  0  0  0  0  0  0  0  0  0  0  0
  -24.2659  -25.0462   18.9279 C   0  0  0  0  0  0  0  0  0  0  0  0
  -21.2729   -7.8851   20.2036 C   0  0  0  0  0  0  0  0  0  0  0  0
  -26.8580  -11.9233   19.1383 C   0  0  0  0  0  0  0  0  0  0  0  0
  -27.8826  -21.3438   20.3657 C   0  0  0  0  0  0  0  0  0  0  0  0
  -29.3546  -12.2931   18.7670 C   0  0  0  0  0  0  0  0  0  0  0  0
  -18.6622  -30.6095   23.4839 C   0  0  0  0  0  0  0  0  0  0  0  0
  -23.2918  -25.4312   21.1102 C   0  0  0  0  0  0  0  0  0  0  0  0
  -19.0907  -29.5769   22.6279 C   0  0  0  0  0  0  0  0  0  0  0  0
  -24.1327  -25.8510   20.0696 C   0  0  0  0  0  0  0  0  0  0  0  0
  -27.7520  -22.1825   21.4726 C   0  0  0  0  0  0  0  0  0  0  0  0
  -28.8341  -19.6293   21.7772 C   0  0  0  0  0  0  0  0  0  0  0  0
  -24.3609  -10.8553   18.5006 C   0  0  0  0  0  0  0  0  0  0  0  0
  -23.5823  -23.8347   18.8281 C   0  0  0  0  0  0  0  0  0  0  0  0
  -22.3966   -9.7827   19.2170 C   0  0  0  0  0  0  0  0  0  0  0  0
  -20.8951   -8.6738   21.2902 C   0  0  0  0  0  0  0  0  0  0  0  0
  -22.0237   -8.4395   19.1669 C   0  0  0  0  0  0  0  0  0  0  0  0
  -28.1473  -12.4756   19.4677 C   0  0  0  0  0  0  0  0  0  0  0  0
  -30.2780  -13.0190   19.4790 C   0  0  0  0  0  0  0  0  0  0  0  0
  -27.4542  -21.7850   19.0134 C   0  0  0  0  0  0  0  0  0  0  0  0
  -29.6177  -11.5353   17.5786 C   0  0  0  0  0  0  0  0  0  0  0  0
  -22.3925  -28.4666   21.3959 C   0  0  0  0  0  0  0  0  0  0  0  0
  -25.5778  -28.9709   21.7448 C   0  0  0  0  0  0  0  0  0  0  0  0
  -28.7628  -27.8901   21.1660 C   0  0  0  0  0  0  0  0  0  0  0  0
  -29.8358  -17.7423   23.1121 C   0  0  0  0  0  0  0  0  0  0  0  0
  -19.3160  -31.9686   23.4765 C   0  0  0  0  0  0  0  0  0  0  0  0
  -23.1489  -26.2617   22.3562 C   0  0  0  0  0  0  0  0  0  0  0  0
  -24.8929  -27.1494   20.1391 C   0  0  0  0  0  0  0  0  0  0  0  0
  -20.6950  -31.9775   22.8219 C   0  0  0  0  0  0  0  0  0  0  0  0
  -31.2161  -14.5600   23.9151 C   0  0  0  0  0  0  0  0  0  0  0  0
  -20.6627  -31.2197   21.4985 C   0  0  0  0  0  0  0  0  0  0  0  0
  -30.7007  -13.6490   22.7986 C   0  0  0  0  0  0  0  0  0  0  0  0
  -30.1748  -15.5999   24.3248 C   0  0  0  0  0  0  0  0  0  0  0  0
  -29.1131  -15.4888   22.1045 C   0  0  0  0  0  0  0  0  0  0  0  0
  -20.2844  -29.7493   21.7139 C   0  0  1  0  0  0  0  0  0  0  0  0
  -23.4778  -27.7346   22.1335 C   0  0  1  0  0  0  0  0  0  0  0  0
  -30.1508  -14.4663   21.6132 C   0  0  2  0  0  0  0  0  0  0  0  0
  -27.1760  -23.5544   21.3376 C   0  0  0  0  0  0  0  0  0  0  0  0
  -31.2682  -27.8484   21.3014 C   0  0  0  0  0  0  0  0  0  0  0  0
  -25.3714  -31.0266   19.4995 C   0  0  0  0  0  0  0  0  0  0  0  0
  -27.8628  -30.9270   19.2736 C   0  0  0  0  0  0  0  0  0  0  0  0
  -26.8361  -31.7098   21.4080 C   0  0  0  0  0  0  0  0  0  0  0  0
  -24.3283  -19.3731   17.0914 C   0  0  0  0  0  0  0  0  0  0  0  0
  -24.0237  -21.2504   15.4539 C   0  0  0  0  0  0  0  0  0  0  0  0
  -28.7180  -26.2553   23.6327 C   0  0  0  0  0  0  0  0  0  0  0  0
  -25.9652  -21.3049   17.0877 C   0  0  0  0  0  0  0  0  0  0  0  0
  -23.5975  -21.6520   17.8838 C   0  0  0  0  0  0  0  0  0  1  0  0
  -26.7242  -29.2570   20.8052 C   0  0  1  0  0  0  0  0  0  0  0  0
  -29.9662  -27.7648   22.0828 C   0  0  2  0  0  0  0  0  0  0  0  0
  -26.6829  -30.7065   20.2441 C   0  0  0  0  0  0  0  0  0  0  0  0
  -24.4895  -20.8901   16.8765 C   0  0  0  0  0  0  0  0  0  0  0  0
  -28.2879  -13.2561   20.5425 N   0  0  0  0  0  0  0  0  0  0  0  0
  -29.5944  -13.5703   20.5225 N   0  0  0  0  0  0  0  0  0  0  0  0
  -24.7154  -27.9291   21.3753 N   0  0  0  0  0  0  0  0  0  0  0  0
  -29.7027  -16.3382   23.1513 N   0  0  0  0  0  0  0  0  0  0  0  0
  -31.5999  -13.2329   19.3080 N   0  0  0  0  0  0  0  0  0  0  0  0
  -28.5551  -10.8495   16.9746 N   0  0  0  0  0  0  0  0  0  0  0  0
  -29.3818  -18.3318   21.9327 N   0  0  0  0  0  0  0  0  0  0  0  0
  -26.4669  -21.0195   18.4053 N   0  0  0  0  0  0  0  0  0  0  0  0
  -21.4187  -29.0038   22.2159 N   0  0  0  0  0  0  0  0  0  0  0  0
  -27.9434  -28.9347   21.5386 N   0  0  0  0  0  0  0  0  0  0  0  0
  -29.9340  -26.4614   22.8046 N   0  3  0  0  0  0  0  0  0  0  0  0
  -27.9920  -22.7645   18.5035 O   0  0  0  0  0  0  0  0  0  0  0  0
  -30.7646  -11.4550   17.0768 O   0  0  0  0  0  0  0  0  0  0  0  0
  -22.4362  -28.5398   20.1735 O   0  0  0  0  0  0  0  0  0  0  0  0
  -25.4564  -29.6422   22.7726 O   0  0  0  0  0  0  0  0  0  0  0  0
  -28.5708  -27.1390   20.2123 O   0  0  0  0  0  0  0  0  0  0  0  0
  -30.3421  -18.3724   24.0441 O   0  0  0  0  0  0  0  0  0  0  0  0
  -23.1426  -10.3344   18.1890 O   0  0  0  0  0  0  0  0  0  0  0  0
  -23.7223  -23.0635   17.7156 O   0  0  0  0  0  0  0  0  0  1  0  0
  -20.1754   -8.1411   22.2865 F   0  0  0  0  0  0  0  0  0  0  0  0
  -22.3847   -7.6766   18.1261 F   0  0  0  0  0  0  0  0  0  0  0  0
  1  2  1  0  0  0  0
  1  5  2  0  0  0  0
  2  6  2  0  0  0  0
  3 10  2  0  0  0  0
  3 18  1  0  0  0  0
  4 11  1  0  0  0  0
  4 18  2  0  0  0  0
  5 21  1  0  0  0  0
  6 23  1  0  0  0  0
  7 12  2  0  0  0  0
  7 22  1  0  0  0  0
  8  9  2  0  0  0  0
  8 25  1  0  0  0  0
  9 26  1  0  0  0  0
 10 27  1  0  0  0  0
 11 27  2  0  0  0  0
 12 28  1  0  0  0  0
 13 14  2  0  0  0  0
 13 29  1  0  0  0  0
 14 30  1  0  0  0  0
 15 19  1  0  0  0  0
 15 26  2  0  0  0  0
 16 24  1  0  0  0  0
 16 28  2  0  0  0  0
 17 30  2  0  0  0  0
 17 31  1  0  0  0  0
 18 32  1  0  0  0  0
 19 25  2  0  0  0  0
 19 34  1  0  0  0  0
 20 32  1  0  0  0  0
 20 33  2  0  0  0  0
 20 35  1  0  0  0  0
 21 23  2  0  0  0  0
 21 40  1  0  0  0  0
 22 24  2  0  0  0  0
 22 41  1  0  0  0  0
 23 49  1  0  0  0  0
 24 42  1  0  0  0  0
 25 52  1  0  0  0  0
 26 72  1  0  0  0  0
 27 83  1  0  0  0  0
 28 84  1  0  0  0  0
 29 31  2  0  0  0  0
 29 83  1  0  0  0  0
 30 85  1  0  0  0  0
 31 86  1  0  0  0  0
 32 66  2  0  0  0  0
 33 67  1  0  0  0  0
 33 70  1  0  0  0  0
 34 73  1  0  0  0  0
 34 77  2  0  0  0  0
 35 71  1  0  0  0  0
 35 78  2  0  0  0  0
 36 50  1  0  0  0  0
 36 74  1  0  0  0  0
 36 79  2  0  0  0  0
 37 62  1  0  0  0  0
 37 68  1  0  0  0  0
 37 80  2  0  0  0  0
 38 63  1  0  0  0  0
 38 75  1  0  0  0  0
 38 81  2  0  0  0  0
 39 69  1  0  0  0  0
 39 72  1  0  0  0  0
 39 82  2  0  0  0  0
 40 43  1  0  0  0  0
 41 50  1  0  0  0  0
 42 68  1  0  0  0  0
 43 45  1  0  0  0  0
 44 46  1  0  0  0  0
 44 47  1  0  0  0  0
 45 49  1  0  0  0  0
 46 51  1  0  0  0  0
 47 69  1  0  0  0  0
 48 51  1  0  0  0  0
 48 69  1  0  0  0  0
 49 74  1  0  0  0  0
 50 68  1  0  0  0  0
 51 67  1  0  0  0  0
 53 63  1  0  0  0  0
 54 64  1  0  0  0  0
 55 64  1  0  0  0  0
 56 64  1  0  0  0  0
 57 65  1  0  0  0  0
 58 65  1  0  0  0  0
 59 76  1  0  0  0  0
 60 65  1  0  0  0  0
 60 73  1  0  0  0  0
 61 65  1  0  0  0  0
 61 84  1  0  0  0  0
 62 64  1  0  0  0  0
 62 75  1  0  0  0  0
 63 76  1  0  0  0  0
 66 67  1  0  0  0  0
M  CHG  1  76   1
M  ISO  4  39 100  61 101  72 100  84 101
M  END
> <Batch ID>
0058

> <Smiles>
CNC(C)C(=O)NC(C(=O)N1Cc2cc([101O:1][101CH2:1]C(C)(C)CNC(=O)c3cc([100NH:0][100C:0](=O)N4CCCC(n5nc(-c6ccc(Oc7ccc(F)cc7F)cc6)c(C(N)=O)c5N)C4)ccc3C)ccc2CC1C(=O)NC1CCCc2ccccc21)C(C)(C)C

> <Shape>
0.246

> <Color>
0.076

> <Negative vol penalty>
0.000

$$$$

  -OEChem-04042322583D

 83 91  0     1  0  0  0  0  0999 V2000
  -20.7070  -33.9165   15.3762 C   0  0  0  0  0  0  0  0  0  0  0  0
  -21.5300  -32.7999   15.4822 C   0  0  0  0  0  0  0  0  0  0  0  0
  -32.2564  -18.5006   21.1899 C   0  0  0  0  0  0  0  0  0  0  0  0
  -22.9327  -11.5986   21.5332 C   0  0  0  0  0  0  0  0  0  0  0  0
  -22.9220  -13.9949   21.2250 C   0  0  0  0  0  0  0  0  0  0  0  0
  -20.9190  -35.0184   16.2037 C   0  0  0  0  0  0  0  0  0  0  0  0
  -22.5662  -32.7849   16.4151 C   0  0  0  0  0  0  0  0  0  0  0  0
  -24.6134  -27.9492   19.5664 C   0  0  0  0  0  0  0  0  0  0  0  0
  -31.4568  -19.6085   20.9094 C   0  0  0  0  0  0  0  0  0  0  0  0
  -31.8228  -17.2214   20.8414 C   0  0  0  0  0  0  0  0  0  0  0  0
  -21.9161  -11.7160   22.4810 C   0  0  0  0  0  0  0  0  0  0  0  0
  -21.9053  -14.1122   22.1727 C   0  0  0  0  0  0  0  0  0  0  0  0
  -25.6987  -27.0954   19.3741 C   0  0  0  0  0  0  0  0  0  0  0  0
  -18.5582  -13.6644   22.3011 C   0  0  0  0  0  0  0  0  0  0  0  0
  -17.4842  -14.5009   21.9971 C   0  0  0  0  0  0  0  0  0  0  0  0
  -27.0050  -28.4198   20.9098 C   0  0  0  0  0  0  0  0  0  0  0  0
  -29.7899  -18.1581   19.9321 C   0  0  0  0  0  0  0  0  0  0  0  0
  -17.9817  -15.8461   23.9414 C   0  0  0  0  0  0  0  0  0  0  0  0
  -23.4357  -12.7381   20.9052 C   0  0  0  0  0  0  0  0  0  0  0  0
  -24.3382  -12.4385   18.5380 C   0  0  0  0  0  0  0  0  0  0  0  0
  -21.9523  -35.0131   17.1539 C   0  0  0  0  0  0  0  0  0  0  0  0
  -24.7194  -29.0528   20.4249 C   0  0  0  0  0  0  0  0  0  0  0  0
  -22.7931  -33.8883   17.2552 C   0  0  0  0  0  0  0  0  0  0  0  0
  -25.9188  -29.2846   21.1133 C   0  0  0  0  0  0  0  0  0  0  0  0
  -30.2236  -19.4373   20.2805 C   0  0  0  0  0  0  0  0  0  0  0  0
  -30.5896  -17.0501   20.2126 C   0  0  0  0  0  0  0  0  0  0  0  0
  -21.4024  -12.9727   22.8007 C   0  0  0  0  0  0  0  0  0  0  0  0
  -26.8956  -27.3323   20.0436 C   0  0  0  0  0  0  0  0  0  0  0  0
  -19.3439  -13.9186   23.4253 C   0  0  0  0  0  0  0  0  0  0  0  0
  -17.1960  -15.5918   22.8172 C   0  0  0  0  0  0  0  0  0  0  0  0
  -19.0557  -15.0095   24.2454 C   0  0  0  0  0  0  0  0  0  0  0  0
  -24.4863  -12.6176   19.9265 C   0  0  0  0  0  0  0  0  0  0  0  0
  -25.6245  -12.3836   18.0598 C   0  0  0  0  0  0  0  0  0  0  0  0
  -23.1445  -12.3315   17.7510 C   0  0  0  0  0  0  0  0  0  0  0  0
  -24.5009  -32.2035   20.0655 C   0  0  0  0  0  0  0  0  0  0  0  0
  -24.7528  -32.1982   23.2995 C   0  0  0  0  0  0  0  0  0  0  0  0
  -29.6888  -21.8983   20.2713 C   0  0  0  0  0  0  0  0  0  0  0  0
  -25.8009  -30.5901   26.1213 C   0  0  0  0  0  0  0  0  0  0  0  0
  -30.8213  -14.5459   20.0656 C   0  0  0  0  0  0  0  0  0  0  0  0
  -22.1724  -36.2463   17.9938 C   0  0  0  0  0  0  0  0  0  0  0  0
  -23.5311  -29.9490   20.6421 C   0  0  0  0  0  0  0  0  0  0  0  0
  -26.0777  -30.4439   22.0615 C   0  0  0  0  0  0  0  0  0  0  0  0
  -23.0573  -36.0025   19.2136 C   0  0  0  0  0  0  0  0  0  0  0  0
  -30.0581  -11.1378   19.3733 C   0  0  0  0  0  0  0  0  0  0  0  0
  -24.2963  -35.2029   18.8230 C   0  0  0  0  0  0  0  0  0  0  0  0
  -28.5294  -11.1154   19.3042 C   0  0  0  0  0  0  0  0  0  0  0  0
  -30.5634  -12.1035   20.4438 C   0  0  0  0  0  0  0  0  0  0  0  0
  -28.5053  -13.4474   20.2779 C   0  0  0  0  0  0  0  0  0  0  0  0
  -23.9122  -33.8244   18.2719 C   0  0  1  0  0  0  0  0  0  0  0  0
  -23.9139  -31.3378   21.1442 C   0  0  1  0  0  0  0  0  0  0  0  0
  -27.9505  -12.5375   19.1698 C   0  0  2  0  0  0  0  0  0  0  0  0
  -25.9023  -30.8514   28.6150 C   0  0  0  0  0  0  0  0  0  0  0  0
  -27.0700  -34.1602   22.9972 C   0  0  0  0  0  0  0  0  0  0  0  0
  -27.7210  -33.6473   25.3597 C   0  0  0  0  0  0  0  0  0  0  0  0
  -25.5021  -34.6789   24.8753 C   0  0  0  0  0  0  0  0  0  0  0  0
  -24.1313  -28.1857   26.5575 C   0  0  0  0  0  0  0  0  0  0  0  0
  -28.5472  -22.7873   19.7981 C   0  0  0  0  0  0  0  0  0  0  0  0
  -28.7992  -24.2651   20.0766 C   0  0  0  0  0  0  0  0  0  0  0  0
  -27.6675  -25.1371   19.5526 C   0  0  0  0  0  0  0  0  0  1  0  0
  -25.8969  -32.2530   24.2828 C   0  0  1  0  0  0  0  0  0  0  0  0
  -25.1024  -30.3110   27.4399 C   0  0  2  0  0  0  0  0  0  0  0  0
  -26.5454  -33.6640   24.3595 C   0  0  0  0  0  0  0  0  0  0  0  0
  -25.7658  -12.6726   20.3057 N   0  0  0  0  0  0  0  0  0  0  0  0
  -26.4334  -12.5272   19.1485 N   0  0  0  0  0  0  0  0  0  0  0  0
  -24.8892  -31.2953   22.2356 N   0  0  0  0  0  0  0  0  0  0  0  0
  -29.9763  -13.4312   20.2504 N   0  0  0  0  0  0  0  0  0  0  0  0
  -26.1313  -12.2269   16.8184 N   0  0  0  0  0  0  0  0  0  0  0  0
  -21.9058  -12.4089   18.4020 N   0  0  0  0  0  0  0  0  0  0  0  0
  -29.4131  -20.5619   19.9958 N   0  0  0  0  0  0  0  0  0  0  0  0
  -30.1497  -15.7505   19.8588 N   0  0  0  0  0  0  0  0  0  0  0  0
  -23.5640  -32.9271   19.3527 N   0  0  0  0  0  0  0  0  0  0  0  0
  -25.3670  -31.7691   25.5531 N   0  0  0  0  0  0  0  0  0  0  0  0
  -24.9212  -28.8440   27.6297 N   0  3  0  0  0  0  0  0  0  0  0  0
  -23.1756  -12.1555   16.5094 O   0  0  0  0  0  0  0  0  0  0  0  0
  -25.7142  -32.2153   19.8936 O   0  0  0  0  0  0  0  0  0  0  0  0
  -23.7709  -32.9245   23.4731 O   0  0  0  0  0  0  0  0  0  0  0  0
  -30.6885  -22.3562   20.8147 O   0  0  0  0  0  0  0  0  0  0  0  0
  -26.6493  -29.8392   25.6449 O   0  0  0  0  0  0  0  0  0  0  0  0
  -32.0500  -14.4353   20.0618 O   0  0  0  0  0  0  0  0  0  0  0  0
  -20.4102  -13.0876   23.7254 O   0  0  0  0  0  0  0  0  0  0  0  0
  -27.9567  -26.5009   19.8572 O   0  0  0  0  0  0  0  0  0  1  0  0
  -16.1657  -16.3960   22.5243 F   0  0  0  0  0  0  0  0  0  0  0  0
  -19.8076  -15.2595   25.3261 F   0  0  0  0  0  0  0  0  0  0  0  0
  1  2  1  0  0  0  0
  1  6  2  0  0  0  0
  2  7  2  0  0  0  0
  3  9  2  0  0  0  0
  3 10  1  0  0  0  0
  4 11  2  0  0  0  0
  4 19  1  0  0  0  0
  5 12  1  0  0  0  0
  5 19  2  0  0  0  0
  6 21  1  0  0  0  0
  7 23  1  0  0  0  0
  8 13  2  0  0  0  0
  8 22  1  0  0  0  0
  9 25  1  0  0  0  0
 10 26  2  0  0  0  0
 11 27  1  0  0  0  0
 12 27  2  0  0  0  0
 13 28  1  0  0  0  0
 14 15  2  0  0  0  0
 14 29  1  0  0  0  0
 15 30  1  0  0  0  0
 16 24  1  0  0  0  0
 16 28  2  0  0  0  0
 17 25  2  0  0  0  0
 17 26  1  0  0  0  0
 18 30  2  0  0  0  0
 18 31  1  0  0  0  0
 19 32  1  0  0  0  0
 20 32  1  0  0  0  0
 20 33  2  0  0  0  0
 20 34  1  0  0  0  0
 21 23  2  0  0  0  0
 21 40  1  0  0  0  0
 22 24  2  0  0  0  0
 22 41  1  0  0  0  0
 23 49  1  0  0  0  0
 24 42  1  0  0  0  0
 25 69  1  0  0  0  0
 26 70  1  0  0  0  0
 27 80  1  0  0  0  0
 28 81  1  0  0  0  0
 29 31  2  0  0  0  0
 29 80  1  0  0  0  0
 30 82  1  0  0  0  0
 31 83  1  0  0  0  0
 32 63  2  0  0  0  0
 33 64  1  0  0  0  0
 33 67  1  0  0  0  0
 34 68  1  0  0  0  0
 34 74  2  0  0  0  0
 35 50  1  0  0  0  0
 35 71  1  0  0  0  0
 35 75  2  0  0  0  0
 36 60  1  0  0  0  0
 36 65  1  0  0  0  0
 36 76  2  0  0  0  0
 37 57  1  0  0  0  0
 37 69  1  0  0  0  0
 37 77  2  0  0  0  0
 38 61  1  0  0  0  0
 38 72  1  0  0  0  0
 38 78  2  0  0  0  0
 39 66  1  0  0  0  0
 39 70  1  0  0  0  0
 39 79  2  0  0  0  0
 40 43  1  0  0  0  0
 41 50  1  0  0  0  0
 42 65  1  0  0  0  0
 43 45  1  0  0  0  0
 44 46  1  0  0  0  0
 44 47  1  0  0  0  0
 45 49  1  0  0  0  0
 46 51  1  0  0  0  0
 47 66  1  0  0  0  0
 48 51  1  0  0  0  0
 48 66  1  0  0  0  0
 49 71  1  0  0  0  0
 50 65  1  0  0  0  0
 51 64  1  0  0  0  0
 52 61  1  0  0  0  0
 53 62  1  0  0  0  0
 54 62  1  0  0  0  0
 55 62  1  0  0  0  0
 56 73  1  0  0  0  0
 57 58  1  0  0  0  0
 58 59  1  0  0  0  0
 59 81  1  0  0  0  0
 60 62  1  0  0  0  0
 60 72  1  0  0  0  0
 61 73  1  0  0  0  0
 63 64  1  0  0  0  0
M  CHG  1  73   1
M  ISO  4  39 100  59 101  70 100  81 101
M  END
> <Batch ID>
0058

> <Smiles>
CNC(C)C(=O)NC(C(=O)N1Cc2cc([101O:1][101CH2:1]CCC(=O)Nc3cccc([100NH:0][100C:0](=O)N4CCCC(n5nc(-c6ccc(Oc7ccc(F)cc7F)cc6)c(C(N)=O)c5N)C4)c3)ccc2CC1C(=O)NC1CCCc2ccccc21)C(C)(C)C

> <Shape>
0.275

> <Color>
0.101

> <Negative vol penalty>
0.000

$$$$

  -OEChem-04042322583D

 86 94  0     1  0  0  0  0  0999 V2000
  -18.2023  -25.1840   21.5436 C   0  0  0  0  0  0  0  0  0  0  0  0
  -19.4472  -24.6909   21.9213 C   0  0  0  0  0  0  0  0  0  0  0  0
  -23.5971   -9.8317   21.5714 C   0  0  0  0  0  0  0  0  0  0  0  0
  -24.1332  -10.9483   23.6458 C   0  0  0  0  0  0  0  0  0  0  0  0
  -18.1014  -26.4470   20.9619 C   0  0  0  0  0  0  0  0  0  0  0  0
  -20.5920  -25.4601   21.7164 C   0  0  0  0  0  0  0  0  0  0  0  0
  -25.5593  -25.6933   25.2909 C   0  0  0  0  0  0  0  0  0  0  0  0
  -28.8398  -19.1335   21.2622 C   0  0  0  0  0  0  0  0  0  0  0  0
  -29.1994  -20.4065   21.7046 C   0  0  0  0  0  0  0  0  0  0  0  0
  -23.0181   -8.7828   22.2856 C   0  0  0  0  0  0  0  0  0  0  0  0
  -23.5541   -9.8994   24.3600 C   0  0  0  0  0  0  0  0  0  0  0  0
  -26.8025  -25.0672   25.2112 C   0  0  0  0  0  0  0  0  0  0  0  0
  -24.0607   -6.0630   24.0003 C   0  0  0  0  0  0  0  0  0  0  0  0
  -24.3698   -4.7618   23.6042 C   0  0  0  0  0  0  0  0  0  0  0  0
  -27.7115  -27.0232   24.1308 C   0  0  0  0  0  0  0  0  0  0  0  0
  -31.1726  -18.5170   21.1398 C   0  0  0  0  0  0  0  0  0  0  0  0
  -22.0303   -4.3366   23.1758 C   0  0  0  0  0  0  0  0  0  0  0  0
  -24.1548  -10.9144   22.2515 C   0  0  0  0  0  0  0  0  0  0  0  0
  -24.1170  -13.1649   21.0509 C   0  0  0  0  0  0  0  0  0  0  0  0
  -19.2444  -27.2361   20.7585 C   0  0  0  0  0  0  0  0  0  0  0  0
  -25.3798  -26.9870   24.7805 C   0  0  0  0  0  0  0  0  0  0  0  0
  -20.5064  -26.7344   21.1301 C   0  0  0  0  0  0  0  0  0  0  0  0
  -26.4656  -27.6644   24.2076 C   0  0  0  0  0  0  0  0  0  0  0  0
  -31.5323  -19.7900   21.5822 C   0  0  0  0  0  0  0  0  0  0  0  0
  -29.8264  -18.1887   20.9798 C   0  0  0  0  0  0  0  0  0  0  0  0
  -30.5456  -20.7348   21.8646 C   0  0  0  0  0  0  0  0  0  0  0  0
  -22.9966   -8.8166   23.6799 C   0  0  0  0  0  0  0  0  0  0  0  0
  -27.8781  -25.7311   24.6285 C   0  0  0  0  0  0  0  0  0  0  0  0
  -22.7365   -6.5011   23.9843 C   0  0  0  0  0  0  0  0  0  0  0  0
  -23.3546   -3.8986   23.1919 C   0  0  0  0  0  0  0  0  0  0  0  0
  -21.7213   -5.6379   23.5720 C   0  0  0  0  0  0  0  0  0  0  0  0
  -24.7536  -11.9980   21.5143 C   0  0  0  0  0  0  0  0  0  0  0  0
  -25.1107  -13.8691   20.4160 C   0  0  0  0  0  0  0  0  0  0  0  0
  -22.7497  -13.5757   21.1826 C   0  0  0  0  0  0  0  0  0  0  0  0
  -23.5789  -28.2670   22.4953 C   0  0  0  0  0  0  0  0  0  0  0  0
  -24.7782  -31.0511   23.6497 C   0  0  0  0  0  0  0  0  0  0  0  0
  -30.0268  -23.0749   22.6382 C   0  0  0  0  0  0  0  0  0  0  0  0
  -27.2749  -32.6506   25.3392 C   0  0  0  0  0  0  0  0  0  0  0  0
  -30.3141  -15.8403   20.2093 C   0  0  0  0  0  0  0  0  0  0  0  0
  -19.0909  -28.5757   20.0827 C   0  0  0  0  0  0  0  0  0  0  0  0
  -24.0392  -27.6587   24.8983 C   0  0  0  0  0  0  0  0  0  0  0  0
  -26.3304  -29.0621   23.6630 C   0  0  0  0  0  0  0  0  0  0  0  0
  -20.3088  -29.4819   20.2431 C   0  0  0  0  0  0  0  0  0  0  0  0
  -29.8031  -12.4931   19.1084 C   0  0  0  0  0  0  0  0  0  0  0  0
  -21.5917  -28.7076   19.9578 C   0  0  0  0  0  0  0  0  0  0  0  0
  -28.3915  -12.1619   19.5981 C   0  0  0  0  0  0  0  0  0  0  0  0
  -30.5584  -13.3696   20.1059 C   0  0  0  0  0  0  0  0  0  0  0  0
  -28.4445  -14.2621   21.0028 C   0  0  0  0  0  0  0  0  0  0  0  0
  -21.7684  -27.5491   20.9468 C   0  0  1  0  0  0  0  0  0  0  0  0
  -23.8415  -28.7800   23.8829 C   0  0  1  0  0  0  0  0  0  0  0  0
  -27.6218  -13.4348   20.0016 C   0  0  2  0  0  0  0  0  0  0  0  0
  -27.9961  -34.9336   26.0912 C   0  0  0  0  0  0  0  0  0  0  0  0
  -25.6502  -31.7113   20.8012 C   0  0  0  0  0  0  0  0  0  0  0  0
  -27.1545  -33.4760   21.7451 C   0  0  0  0  0  0  0  0  0  0  0  0
  -24.6866  -33.6387   22.0704 C   0  0  0  0  0  0  0  0  0  0  0  0
  -27.1887  -31.8654   28.1914 C   0  0  0  0  0  0  0  0  0  0  0  0
  -30.8155  -24.3016   23.0822 C   0  0  0  0  0  0  0  0  0  0  0  0
  -29.9284  -25.4815   23.4496 C   0  0  0  0  0  0  0  0  0  1  0  0
  -25.9937  -31.8959   23.3535 C   0  0  1  0  0  0  0  0  0  0  0  0
  -27.2379  -33.6691   26.4643 C   0  0  2  0  0  0  0  0  0  0  0  0
  -32.9817  -20.1138   21.7467 C   0  0  0  0  0  0  0  0  0  0  0  0
  -25.8736  -32.6534   22.0010 C   0  0  0  0  0  0  0  0  0  0  0  0
  -26.0513  -11.9592   21.2004 N   0  0  0  0  0  0  0  0  0  0  0  0
  -26.2381  -13.1105   20.5329 N   0  0  0  0  0  0  0  0  0  0  0  0
  -24.9979  -29.6741   23.7958 N   0  0  0  0  0  0  0  0  0  0  0  0
  -29.7705  -14.5586   20.4383 N   0  0  0  0  0  0  0  0  0  0  0  0
  -25.1214  -15.0570   19.7747 N   0  0  0  0  0  0  0  0  0  0  0  0
  -21.8616  -12.7330   21.8649 N   0  0  0  0  0  0  0  0  0  0  0  0
  -30.8900  -22.0311   22.3160 N   0  0  0  0  0  0  0  0  0  0  0  0
  -29.4608  -16.8947   20.5330 N   0  0  0  0  0  0  0  0  0  0  0  0
  -22.2432  -28.0414   22.2222 N   0  0  0  0  0  0  0  0  0  0  0  0
  -26.1787  -32.7649   24.5106 N   0  0  0  0  0  0  0  0  0  0  0  0
  -27.8506  -33.1005   27.6981 N   0  3  0  0  0  0  0  0  0  0  0  0
  -22.3242  -14.6503   20.6951 O   0  0  0  0  0  0  0  0  0  0  0  0
  -24.5184  -28.0902   21.7286 O   0  0  0  0  0  0  0  0  0  0  0  0
  -23.6755  -31.5939   23.7548 O   0  0  0  0  0  0  0  0  0  0  0  0
  -28.8012  -23.0687   22.5910 O   0  0  0  0  0  0  0  0  0  0  0  0
  -28.1870  -31.8377   25.2064 O   0  0  0  0  0  0  0  0  0  0  0  0
  -31.4423  -15.9913   19.7336 O   0  0  0  0  0  0  0  0  0  0  0  0
  -22.4314   -7.7934   24.3772 O   0  0  0  0  0  0  0  0  0  0  0  0
  -29.0924  -25.1221   24.5488 O   0  0  0  0  0  0  0  0  0  1  0  0
  -23.6517   -2.6496   22.8100 F   0  0  0  0  0  0  0  0  0  0  0  0
  -20.4474   -6.0534   23.5534 F   0  0  0  0  0  0  0  0  0  0  0  0
  -33.8108  -19.0771   21.4294 F   0  0  0  0  0  0  0  0  0  0  0  0
  -33.3977  -21.1562   20.9701 F   0  0  0  0  0  0  0  0  0  0  0  0
  -33.2976  -20.4594   23.0276 F   0  0  0  0  0  0  0  0  0  0  0  0
  1  2  1  0  0  0  0
  1  5  2  0  0  0  0
  2  6  2  0  0  0  0
  3 10  2  0  0  0  0
  3 18  1  0  0  0  0
  4 11  1  0  0  0  0
  4 18  2  0  0  0  0
  5 20  1  0  0  0  0
  6 22  1  0  0  0  0
  7 12  2  0  0  0  0
  7 21  1  0  0  0  0
  8  9  2  0  0  0  0
  8 25  1  0  0  0  0
  9 26  1  0  0  0  0
 10 27  1  0  0  0  0
 11 27  2  0  0  0  0
 12 28  1  0  0  0  0
 13 14  2  0  0  0  0
 13 29  1  0  0  0  0
 14 30  1  0  0  0  0
 15 23  1  0  0  0  0
 15 28  2  0  0  0  0
 16 24  1  0  0  0  0
 16 25  2  0  0  0  0
 17 30  2  0  0  0  0
 17 31  1  0  0  0  0
 18 32  1  0  0  0  0
 19 32  1  0  0  0  0
 19 33  2  0  0  0  0
 19 34  1  0  0  0  0
 20 22  2  0  0  0  0
 20 40  1  0  0  0  0
 21 23  2  0  0  0  0
 21 41  1  0  0  0  0
 22 49  1  0  0  0  0
 23 42  1  0  0  0  0
 24 26  2  0  0  0  0
 24 61  1  0  0  0  0
 25 70  1  0  0  0  0
 26 69  1  0  0  0  0
 27 80  1  0  0  0  0
 28 81  1  0  0  0  0
 29 31  2  0  0  0  0
 29 80  1  0  0  0  0
 30 82  1  0  0  0  0
 31 83  1  0  0  0  0
 32 63  2  0  0  0  0
 33 64  1  0  0  0  0
 33 67  1  0  0  0  0
 34 68  1  0  0  0  0
 34 74  2  0  0  0  0
 35 50  1  0  0  0  0
 35 71  1  0  0  0  0
 35 75  2  0  0  0  0
 36 59  1  0  0  0  0
 36 65  1  0  0  0  0
 36 76  2  0  0  0  0
 37 57  1  0  0  0  0
 37 69  1  0  0  0  0
 37 77  2  0  0  0  0
 38 60  1  0  0  0  0
 38 72  1  0  0  0  0
 38 78  2  0  0  0  0
 39 66  1  0  0  0  0
 39 70  1  0  0  0  0
 39 79  2  0  0  0  0
 40 43  1  0  0  0  0
 41 50  1  0  0  0  0
 42 65  1  0  0  0  0
 43 45  1  0  0  0  0
 44 46  1  0  0  0  0
 44 47  1  0  0  0  0
 45 49  1  0  0  0  0
 46 51  1  0  0  0  0
 47 66  1  0  0  0  0
 48 51  1  0  0  0  0
 48 66  1  0  0  0  0
 49 71  1  0  0  0  0
 50 65  1  0  0  0  0
 51 64  1  0  0  0  0
 52 60  1  0  0  0  0
 53 62  1  0  0  0  0
 54 62  1  0  0  0  0
 55 62  1  0  0  0  0
 56 73  1  0  0  0  0
 57 58  1  0  0  0  0
 58 81  1  0  0  0  0
 59 62  1  0  0  0  0
 59 72  1  0  0  0  0
 60 73  1  0  0  0  0
 61 84  1  0  0  0  0
 61 85  1  0  0  0  0
 61 86  1  0  0  0  0
 63 64  1  0  0  0  0
M  CHG  1  73   1
M  ISO  4  39 100  58 101  70 100  81 101
M  END
> <Batch ID>
0058

> <Smiles>
CNC(C)C(=O)NC(C(=O)N1Cc2cc([101O:1][101CH2:1]CC(=O)Nc3ccc([100NH:0][100C:0](=O)N4CCCC(n5nc(-c6ccc(Oc7ccc(F)cc7F)cc6)c(C(N)=O)c5N)C4)cc3C(F)(F)F)ccc2CC1C(=O)NC1CCCc2ccccc21)C(C)(C)C

> <Shape>
0.276

> <Color>
0.133

> <Negative vol penalty>
0.000

$$$$

  -OEChem-04042322583D

 85 93  0     1  0  0  0  0  0999 V2000
  -16.8749  -31.1248   20.1328 C   0  0  0  0  0  0  0  0  0  0  0  0
  -18.1702  -31.6317   20.1567 C   0  0  0  0  0  0  0  0  0  0  0  0
  -23.0858  -10.5900   20.7883 C   0  0  0  0  0  0  0  0  0  0  0  0
  -24.3739  -10.6980   18.7472 C   0  0  0  0  0  0  0  0  0  0  0  0
  -30.9878  -19.2854   21.0023 C   0  0  0  0  0  0  0  0  0  0  0  0
  -29.5356  -21.1321   21.5662 C   0  0  0  0  0  0  0  0  0  0  0  0
  -16.4685  -30.2077   21.1012 C   0  0  0  0  0  0  0  0  0  0  0  0
  -19.0597  -31.2226   21.1496 C   0  0  0  0  0  0  0  0  0  0  0  0
  -25.3077  -28.0616   19.4580 C   0  0  0  0  0  0  0  0  0  0  0  0
  -29.9230  -18.6400   20.3737 C   0  0  0  0  0  0  0  0  0  0  0  0
  -28.4708  -20.4867   20.9375 C   0  0  0  0  0  0  0  0  0  0  0  0
  -22.4399   -9.4457   20.3202 C   0  0  0  0  0  0  0  0  0  0  0  0
  -23.7281   -9.5536   18.2791 C   0  0  0  0  0  0  0  0  0  0  0  0
  -26.6147  -27.6416   19.2098 C   0  0  0  0  0  0  0  0  0  0  0  0
  -23.1130   -6.1440   20.0400 C   0  0  0  0  0  0  0  0  0  0  0  0
  -22.9675   -5.0745   20.9235 C   0  0  0  0  0  0  0  0  0  0  0  0
  -26.9951  -27.3869   21.5843 C   0  0  0  0  0  0  0  0  0  0  0  0
  -20.5660   -5.2162   20.6994 C   0  0  0  0  0  0  0  0  0  0  0  0
  -24.0527  -11.2161   20.0018 C   0  0  0  0  0  0  0  0  0  0  0  0
  -30.7941  -20.5315   21.5986 C   0  0  0  0  0  0  0  0  0  0  0  0
  -25.9080  -12.4567   21.2373 C   0  0  0  0  0  0  0  0  0  0  0  0
  -17.3564  -29.7798   22.1008 C   0  0  0  0  0  0  0  0  0  0  0  0
  -24.8341  -28.1312   20.7710 C   0  0  0  0  0  0  0  0  0  0  0  0
  -18.6644  -30.2999   22.1330 C   0  0  0  0  0  0  0  0  0  0  0  0
  -25.6830  -27.7950   21.8383 C   0  0  0  0  0  0  0  0  0  0  0  0
  -28.6645  -19.2406   20.3413 C   0  0  0  0  0  0  0  0  0  0  0  0
  -22.7611   -8.9275   19.0656 C   0  0  0  0  0  0  0  0  0  0  0  0
  -27.4563  -27.3053   20.2704 C   0  0  0  0  0  0  0  0  0  0  0  0
  -21.9851   -6.7497   19.4862 C   0  0  0  0  0  0  0  0  0  0  0  0
  -21.6940   -4.6106   21.2532 C   0  0  0  0  0  0  0  0  0  0  0  0
  -20.7116   -6.2857   19.8159 C   0  0  0  0  0  0  0  0  0  0  0  0
  -24.7199  -12.3985   20.4845 C   0  0  0  0  0  0  0  0  0  0  0  0
  -26.1200  -13.7984   21.4410 C   0  0  0  0  0  0  0  0  0  0  0  0
  -31.9132  -21.2112   22.2588 C   0  0  0  0  0  0  0  0  0  0  0  0
  -26.7453  -11.3932   21.7100 C   0  0  0  0  0  0  0  0  0  0  0  0
  -32.4151  -22.4168   21.9259 C   0  0  0  0  0  0  0  0  0  0  0  0
  -21.9601  -28.9064   23.0547 C   0  0  0  0  0  0  0  0  0  0  0  0
  -23.3301  -26.3971   24.1668 C   0  0  0  0  0  0  0  0  0  0  0  0
  -30.3330  -25.0969   20.2694 C   0  0  0  0  0  0  0  0  0  0  0  0
  -24.8631  -23.4212   24.8234 C   0  0  0  0  0  0  0  0  0  0  0  0
  -26.2714  -19.0437   19.5791 C   0  0  0  0  0  0  0  0  0  0  0  0
  -16.8571  -28.8227   23.1540 C   0  0  0  0  0  0  0  0  0  0  0  0
  -23.4531  -28.6371   21.0888 C   0  0  0  0  0  0  0  0  0  0  0  0
  -25.1414  -27.9182   23.2364 C   0  0  0  0  0  0  0  0  0  0  0  0
  -17.9756  -28.1558   23.9505 C   0  0  0  0  0  0  0  0  0  0  0  0
  -23.1042  -17.7752   20.5973 C   0  0  0  0  0  0  0  0  0  0  0  0
  -19.0074  -29.1896   24.3903 C   0  0  0  0  0  0  0  0  0  0  0  0
  -23.3399  -16.2681   20.7206 C   0  0  0  0  0  0  0  0  0  0  0  0
  -23.8823  -18.3771   19.4285 C   0  0  0  0  0  0  0  0  0  0  0  0
  -25.5562  -16.5733   19.5450 C   0  0  0  0  0  0  0  0  0  0  0  0
  -19.6660  -29.8615   23.1794 C   0  0  1  0  0  0  0  0  0  0  0  0
  -22.8161  -27.9324   22.2999 C   0  0  1  0  0  0  0  0  0  0  0  0
  -24.8442  -15.9333   20.7480 C   0  0  2  0  0  0  0  0  0  0  0  0
  -33.5719  -22.9877   22.7072 C   0  0  0  0  0  0  0  0  0  0  0  0
  -24.8223  -21.4977   26.4345 C   0  0  0  0  0  0  0  0  0  0  0  0
  -24.7425  -28.1182   26.2517 C   0  0  0  0  0  0  0  0  0  0  0  0
  -25.5038  -26.0121   27.3711 C   0  0  0  0  0  0  0  0  0  0  0  0
  -23.0672  -26.5129   27.1850 C   0  0  0  0  0  0  0  0  0  0  0  0
  -24.2139  -21.4879   22.6788 C   0  0  0  0  0  0  0  0  0  0  0  0
  -31.9360  -23.2615   20.7667 C   0  0  0  0  0  0  0  0  0  0  0  0
  -29.3093  -25.9788   20.9518 C   0  0  0  0  0  0  0  0  0  1  0  0
  -24.3539  -25.8312   25.1181 C   0  0  1  0  0  0  0  0  0  0  0  0
  -24.3016  -22.0409   25.1130 C   0  0  2  0  0  0  0  0  0  0  0  0
  -24.4230  -26.6235   26.4541 C   0  0  0  0  0  0  0  0  0  0  0  0
  -24.2125  -13.6071   20.2276 N   0  0  0  0  0  0  0  0  0  0  0  0
  -25.0860  -14.4373   20.8224 N   0  0  0  0  0  0  0  0  0  0  0  0
  -23.7663  -27.3979   23.2901 N   0  0  0  0  0  0  0  0  0  0  0  0
  -25.3000  -18.0220   19.5232 N   0  0  0  0  0  0  0  0  0  0  0  0
  -27.0881  -14.4821   22.0873 N   0  0  0  0  0  0  0  0  0  0  0  0
  -26.3812  -10.0731   21.4113 N   0  0  0  0  0  0  0  0  0  0  0  0
  -27.5831  -18.5861   19.7010 N   0  0  0  0  0  0  0  0  0  0  0  0
  -20.6597  -28.9870   22.5945 N   0  0  0  0  0  0  0  0  0  0  0  0
  -30.9233  -24.2138   21.1598 N   0  0  0  0  0  0  0  0  0  0  0  0
  -24.0262  -24.4186   25.2774 N   0  0  0  0  0  0  0  0  0  0  0  0
  -24.6825  -21.0894   24.0310 N   0  3  0  0  0  0  0  0  0  0  0  0
  -27.7766  -11.6063   22.3915 O   0  0  0  0  0  0  0  0  0  0  0  0
  -22.4424  -29.5381   23.9875 O   0  0  0  0  0  0  0  0  0  0  0  0
  -22.1729  -25.9692   24.2017 O   0  0  0  0  0  0  0  0  0  0  0  0
  -30.5878  -25.1795   19.0710 O   0  0  0  0  0  0  0  0  0  0  0  0
  -25.9385  -23.5971   24.2550 O   0  0  0  0  0  0  0  0  0  0  0  0
  -25.9604  -20.2372   19.5504 O   0  0  0  0  0  0  0  0  0  0  0  0
  -22.1313   -7.8108   18.6086 O   0  0  0  0  0  0  0  0  0  0  0  0
  -28.7297  -26.8918   20.0207 O   0  0  0  0  0  0  0  0  0  1  0  0
  -21.5544   -3.5826   22.1005 F   0  0  0  0  0  0  0  0  0  0  0  0
  -19.6243   -6.8627   19.2861 F   0  0  0  0  0  0  0  0  0  0  0  0
  1  2  1  0  0  0  0
  1  7  2  0  0  0  0
  2  8  2  0  0  0  0
  3 12  2  0  0  0  0
  3 19  1  0  0  0  0
  4 13  1  0  0  0  0
  4 19  2  0  0  0  0
  5 10  2  0  0  0  0
  5 20  1  0  0  0  0
  6 11  1  0  0  0  0
  6 20  2  0  0  0  0
  7 22  1  0  0  0  0
  8 24  1  0  0  0  0
  9 14  2  0  0  0  0
  9 23  1  0  0  0  0
 10 26  1  0  0  0  0
 11 26  2  0  0  0  0
 12 27  1  0  0  0  0
 13 27  2  0  0  0  0
 14 28  1  0  0  0  0
 15 16  2  0  0  0  0
 15 29  1  0  0  0  0
 16 30  1  0  0  0  0
 17 25  1  0  0  0  0
 17 28  2  0  0  0  0
 18 30  2  0  0  0  0
 18 31  1  0  0  0  0
 19 32  1  0  0  0  0
 20 34  1  0  0  0  0
 21 32  1  0  0  0  0
 21 33  2  0  0  0  0
 21 35  1  0  0  0  0
 22 24  2  0  0  0  0
 22 42  1  0  0  0  0
 23 25  2  0  0  0  0
 23 43  1  0  0  0  0
 24 51  1  0  0  0  0
 25 44  1  0  0  0  0
 26 71  1  0  0  0  0
 27 82  1  0  0  0  0
 28 83  1  0  0  0  0
 29 31  2  0  0  0  0
 29 82  1  0  0  0  0
 30 84  1  0  0  0  0
 31 85  1  0  0  0  0
 32 65  2  0  0  0  0
 33 66  1  0  0  0  0
 33 69  1  0  0  0  0
 34 36  2  0  0  0  0
 35 70  1  0  0  0  0
 35 76  2  0  0  0  0
 36 54  1  0  0  0  0
 36 60  1  0  0  0  0
 37 52  1  0  0  0  0
 37 72  1  0  0  0  0
 37 77  2  0  0  0  0
 38 62  1  0  0  0  0
 38 67  1  0  0  0  0
 38 78  2  0  0  0  0
 39 61  1  0  0  0  0
 39 73  1  0  0  0  0
 39 79  2  0  0  0  0
 40 63  1  0  0  0  0
 40 74  1  0  0  0  0
 40 80  2  0  0  0  0
 41 68  1  0  0  0  0
 41 71  1  0  0  0  0
 41 81  2  0  0  0  0
 42 45  1  0  0  0  0
 43 52  1  0  0  0  0
 44 67  1  0  0  0  0
 45 47  1  0  0  0  0
 46 48  1  0  0  0  0
 46 49  1  0  0  0  0
 47 51  1  0  0  0  0
 48 53  1  0  0  0  0
 49 68  1  0  0  0  0
 50 53  1  0  0  0  0
 50 68  1  0  0  0  0
 51 72  1  0  0  0  0
 52 67  1  0  0  0  0
 53 66  1  0  0  0  0
 55 63  1  0  0  0  0
 56 64  1  0  0  0  0
 57 64  1  0  0  0  0
 58 64  1  0  0  0  0
 59 75  1  0  0  0  0
 60 73  1  0  0  0  0
 61 83  1  0  0  0  0
 62 64  1  0  0  0  0
 62 74  1  0  0  0  0
 63 75  1  0  0  0  0
 65 66  1  0  0  0  0
M  CHG  1  75   1
M  ISO  4  41 100  61 101  71 100  83 101
M  END
> <Batch ID>
0058

> <Smiles>
CNC(C)C(=O)NC(C(=O)N1Cc2cc([101O:1][101CH2:1]C(=O)NCC(C)=Cc3ccc([100NH:0][100C:0](=O)N4CCCC(n5nc(-c6ccc(Oc7ccc(F)cc7F)cc6)c(C(N)=O)c5N)C4)cc3)ccc2CC1C(=O)NC1CCCc2ccccc21)C(C)(C)C

> <Shape>
0.203

> <Color>
0.083

> <Negative vol penalty>
0.000

$$$$

  -OEChem-04042322583D

 84 92  0     1  0  0  0  0  0999 V2000
  -31.1822  -24.2539   18.7462 C   0  0  0  0  0  0  0  0  0  0  0  0
  -29.9291  -24.2263   19.3499 C   0  0  0  0  0  0  0  0  0  0  0  0
  -24.6553  -23.4591   23.7155 C   0  0  0  0  0  0  0  0  0  0  0  0
  -26.9174  -12.9122   19.4345 C   0  0  0  0  0  0  0  0  0  0  0  0
  -24.7666  -13.7136   20.1888 C   0  0  0  0  0  0  0  0  0  0  0  0
  -32.1360  -25.1808   19.1647 C   0  0  0  0  0  0  0  0  0  0  0  0
  -29.6295  -25.1249   20.3732 C   0  0  0  0  0  0  0  0  0  0  0  0
  -25.0514  -27.2225   19.8379 C   0  0  0  0  0  0  0  0  0  0  0  0
  -25.4560  -22.8013   22.7820 C   0  0  0  0  0  0  0  0  0  0  0  0
  -26.7269  -11.7290   20.1481 C   0  0  0  0  0  0  0  0  0  0  0  0
  -24.5760  -12.5304   20.9024 C   0  0  0  0  0  0  0  0  0  0  0  0
  -23.9502  -26.4497   20.2039 C   0  0  0  0  0  0  0  0  0  0  0  0
  -23.6585   -9.3456   20.2422 C   0  0  0  0  0  0  0  0  0  0  0  0
  -22.4127   -8.7258   20.1455 C   0  0  0  0  0  0  0  0  0  0  0  0
  -23.2961  -23.1582   23.8038 C   0  0  0  0  0  0  0  0  0  0  0  0
  -23.8341  -27.6227   22.3086 C   0  0  0  0  0  0  0  0  0  0  0  0
  -23.5385  -21.5417   22.0247 C   0  0  0  0  0  0  0  0  0  0  0  0
  -22.1159   -8.9501   22.5327 C   0  0  0  0  0  0  0  0  0  0  0  0
  -25.9373  -13.9046   19.4549 C   0  0  0  0  0  0  0  0  0  0  0  0
  -25.7624  -15.3858   17.3853 C   0  0  0  0  0  0  0  0  0  0  0  0
  -31.8446  -26.0976   20.1870 C   0  0  0  0  0  0  0  0  0  0  0  0
  -25.5598  -28.1954   20.7105 C   0  0  0  0  0  0  0  0  0  0  0  0
  -30.5807  -26.0640   20.8066 C   0  0  0  0  0  0  0  0  0  0  0  0
  -24.9402  -28.4083   21.9503 C   0  0  0  0  0  0  0  0  0  0  0  0
  -24.8977  -21.8426   21.9366 C   0  0  0  0  0  0  0  0  0  0  0  0
  -25.5562  -11.5381   20.8821 C   0  0  0  0  0  0  0  0  0  0  0  0
  -23.3432  -26.6477   21.4406 C   0  0  0  0  0  0  0  0  0  0  0  0
  -24.1331   -9.7676   21.4841 C   0  0  0  0  0  0  0  0  0  0  0  0
  -21.6413   -8.5281   21.2907 C   0  0  0  0  0  0  0  0  0  0  0  0
  -23.3617   -9.5698   22.6294 C   0  0  0  0  0  0  0  0  0  0  0  0
  -22.7377  -22.1995   22.9583 C   0  0  0  0  0  0  0  0  0  0  0  0
  -26.1338  -15.1273   18.7184 C   0  0  0  0  0  0  0  0  0  0  0  0
  -26.1651  -16.6797   17.1614 C   0  0  0  0  0  0  0  0  0  0  0  0
  -25.1115  -14.5326   16.4345 C   0  0  0  0  0  0  0  0  0  0  0  0
  -28.3330  -28.6461   22.1971 C   0  0  0  0  0  0  0  0  0  0  0  0
  -26.9641  -31.4547   23.0690 C   0  0  0  0  0  0  0  0  0  0  0  0
  -24.1064  -33.2387   23.6144 C   0  0  0  0  0  0  0  0  0  0  0  0
  -27.0768  -21.3537   20.7708 C   0  0  0  0  0  0  0  0  0  0  0  0
  -32.9240  -27.0497   20.6377 C   0  0  0  0  0  0  0  0  0  0  0  0
  -26.7318  -29.0390   20.2898 C   0  0  0  0  0  0  0  0  0  0  0  0
  -25.4349  -29.4539   22.9148 C   0  0  0  0  0  0  0  0  0  0  0  0
  -32.3988  -28.2149   21.4724 C   0  0  0  0  0  0  0  0  0  0  0  0
  -29.4452  -19.8761   18.5607 C   0  0  0  0  0  0  0  0  0  0  0  0
  -31.4307  -27.7136   22.5393 C   0  0  0  0  0  0  0  0  0  0  0  0
  -28.8281  -18.5167   18.2242 C   0  0  0  0  0  0  0  0  0  0  0  0
  -29.1826  -20.2746   20.0120 C   0  0  0  0  0  0  0  0  0  0  0  0
  -27.1557  -18.8761   20.0846 C   0  0  0  0  0  0  0  0  0  0  0  0
  -30.2095  -27.0389   21.9030 C   0  0  1  0  0  0  0  0  0  0  0  0
  -27.4831  -29.6488   21.4693 C   0  0  1  0  0  0  0  0  0  0  0  0
  -27.3383  -18.4617   18.6154 C   0  0  2  0  0  0  0  0  0  0  0  0
  -23.3063  -35.4980   24.3581 C   0  0  0  0  0  0  0  0  0  0  0  0
  -27.6173  -30.7315   25.9604 C   0  0  0  0  0  0  0  0  0  0  0  0
  -25.9975  -32.4941   26.6939 C   0  0  0  0  0  0  0  0  0  0  0  0
  -28.0139  -33.1291   25.3696 C   0  0  0  0  0  0  0  0  0  0  0  0
  -22.7539  -33.7389   21.0300 C   0  0  0  0  0  0  0  0  0  0  0  0
  -20.0054  -25.2741   21.2989 C   0  0  0  0  0  0  0  0  0  0  0  0
  -19.9197  -24.2662   22.4366 C   0  0  0  0  0  0  0  0  0  0  0  0
  -21.4190  -25.4318   20.7515 C   0  0  0  0  0  0  0  0  0  1  0  0
  -26.1129  -31.9149   24.2277 C   0  0  1  0  0  0  0  0  0  0  0  0
  -23.6860  -34.6280   23.1700 C   0  0  2  0  0  0  0  0  0  0  0  0
  -26.9270  -32.0463   25.5458 C   0  0  0  0  0  0  0  0  0  0  0  0
  -26.7270  -16.1730   19.3004 N   0  0  0  0  0  0  0  0  0  0  0  0
  -26.7315  -17.1010   18.3284 N   0  0  0  0  0  0  0  0  0  0  0  0
  -26.5877  -30.2490   22.4604 N   0  0  0  0  0  0  0  0  0  0  0  0
  -27.7503  -20.2031   20.3089 N   0  0  0  0  0  0  0  0  0  0  0  0
  -26.0864  -17.4868   16.0821 N   0  0  0  0  0  0  0  0  0  0  0  0
  -24.7666  -13.2329   16.8294 N   0  0  0  0  0  0  0  0  0  0  0  0
  -25.7111  -21.1740   20.9883 N   0  0  0  0  0  0  0  0  0  0  0  0
  -29.2849  -28.0342   21.4041 N   0  0  0  0  0  0  0  0  0  0  0  0
  -25.4705  -33.1517   23.7963 N   0  0  0  0  0  0  0  0  0  0  0  0
  -20.3407  -22.9272   21.9708 N   0  0  0  0  0  0  0  0  0  0  0  0
  -22.5134  -34.5460   22.2538 N   0  3  0  0  0  0  0  0  0  0  0  0
  -24.8585  -14.9061   15.2640 O   0  0  0  0  0  0  0  0  0  0  0  0
  -28.1405  -28.4436   23.3903 O   0  0  0  0  0  0  0  0  0  0  0  0
  -27.9234  -32.1434   22.7124 O   0  0  0  0  0  0  0  0  0  0  0  0
  -23.3046  -32.3234   23.7869 O   0  0  0  0  0  0  0  0  0  0  0  0
  -27.6626  -22.4272   20.9335 O   0  0  0  0  0  0  0  0  0  0  0  0
  -20.8215  -20.4704   22.5730 O   0  0  0  0  0  0  0  0  0  0  0  0
  -20.5904  -22.1706   24.4115 O   0  0  0  0  0  0  0  0  0  0  0  0
  -25.3698  -10.3835   21.5783 O   0  0  0  0  0  0  0  0  0  0  0  0
  -22.2686  -25.8944   21.8005 O   0  0  0  0  0  0  0  0  0  1  0  0
  -20.4443   -7.9342   21.1975 F   0  0  0  0  0  0  0  0  0  0  0  0
  -23.8118   -9.9741   23.8251 F   0  0  0  0  0  0  0  0  0  0  0  0
  -21.0150  -21.8193   23.0699 S   0  0  0  0  0  0  0  0  0  0  0  0
  1  2  1  0  0  0  0
  1  6  2  0  0  0  0
  2  7  2  0  0  0  0
  3  9  1  0  0  0  0
  3 15  2  0  0  0  0
  4 10  2  0  0  0  0
  4 19  1  0  0  0  0
  5 11  1  0  0  0  0
  5 19  2  0  0  0  0
  6 21  1  0  0  0  0
  7 23  1  0  0  0  0
  8 12  2  0  0  0  0
  8 22  1  0  0  0  0
  9 25  2  0  0  0  0
 10 26  1  0  0  0  0
 11 26  2  0  0  0  0
 12 27  1  0  0  0  0
 13 14  2  0  0  0  0
 13 28  1  0  0  0  0
 14 29  1  0  0  0  0
 15 31  1  0  0  0  0
 16 24  1  0  0  0  0
 16 27  2  0  0  0  0
 17 25  1  0  0  0  0
 17 31  2  0  0  0  0
 18 29  2  0  0  0  0
 18 30  1  0  0  0  0
 19 32  1  0  0  0  0
 20 32  1  0  0  0  0
 20 33  2  0  0  0  0
 20 34  1  0  0  0  0
 21 23  2  0  0  0  0
 21 39  1  0  0  0  0
 22 24  2  0  0  0  0
 22 40  1  0  0  0  0
 23 48  1  0  0  0  0
 24 41  1  0  0  0  0
 25 68  1  0  0  0  0
 26 80  1  0  0  0  0
 27 81  1  0  0  0  0
 28 30  2  0  0  0  0
 28 80  1  0  0  0  0
 29 82  1  0  0  0  0
 30 83  1  0  0  0  0
 31 84  1  0  0  0  0
 32 62  2  0  0  0  0
 33 63  1  0  0  0  0
 33 66  1  0  0  0  0
 34 67  1  0  0  0  0
 34 73  2  0  0  0  0
 35 49  1  0  0  0  0
 35 69  1  0  0  0  0
 35 74  2  0  0  0  0
 36 59  1  0  0  0  0
 36 64  1  0  0  0  0
 36 75  2  0  0  0  0
 37 60  1  0  0  0  0
 37 70  1  0  0  0  0
 37 76  2  0  0  0  0
 38 65  1  0  0  0  0
 38 68  1  0  0  0  0
 38 77  2  0  0  0  0
 39 42  1  0  0  0  0
 40 49  1  0  0  0  0
 41 64  1  0  0  0  0
 42 44  1  0  0  0  0
 43 45  1  0  0  0  0
 43 46  1  0  0  0  0
 44 48  1  0  0  0  0
 45 50  1  0  0  0  0
 46 65  1  0  0  0  0
 47 50  1  0  0  0  0
 47 65  1  0  0  0  0
 48 69  1  0  0  0  0
 49 64  1  0  0  0  0
 50 63  1  0  0  0  0
 51 60  1  0  0  0  0
 52 61  1  0  0  0  0
 53 61  1  0  0  0  0
 54 61  1  0  0  0  0
 55 72  1  0  0  0  0
 56 57  1  0  0  0  0
 56 58  1  0  0  0  0
 57 71  1  0  0  0  0
 58 81  1  0  0  0  0
 59 61  1  0  0  0  0
 59 70  1  0  0  0  0
 60 72  1  0  0  0  0
 62 63  1  0  0  0  0
 71 84  1  0  0  0  0
 78 84  2  0  0  0  0
 79 84  2  0  0  0  0
M  CHG  1  72   1
M  ISO  4  38 100  58 101  68 100  81 101
M  END
> <Batch ID>
0058

> <Smiles>
CNC(C)C(=O)NC(C(=O)N1Cc2cc([101O:1][101CH2:1]CCNS(=O)(=O)c3cccc([100NH:0][100C:0](=O)N4CCCC(n5nc(-c6ccc(Oc7ccc(F)cc7F)cc6)c(C(N)=O)c5N)C4)c3)ccc2CC1C(=O)NC1CCCc2ccccc21)C(C)(C)C

> <Shape>
0.249

> <Color>
0.064

> <Negative vol penalty>
0.000

$$$$

  -OEChem-04042322583D

 80 87  0     1  0  0  0  0  0999 V2000
  -21.7312  -28.7813   25.0783 C   0  0  0  0  0  0  0  0  0  0  0  0
  -21.9453  -27.4713   25.4950 C   0  0  0  0  0  0  0  0  0  0  0  0
  -28.1913  -23.8897   22.0671 C   0  0  0  0  0  0  0  0  0  0  0  0
  -29.4884  -23.3898   20.0911 C   0  0  0  0  0  0  0  0  0  0  0  0
  -21.0180  -29.0311   23.9067 C   0  0  0  0  0  0  0  0  0  0  0  0
  -21.4453  -26.4104   24.7407 C   0  0  0  0  0  0  0  0  0  0  0  0
  -22.9687  -19.6533   22.9140 C   0  0  0  0  0  0  0  0  0  0  0  0
  -28.0298  -25.2039   21.6286 C   0  0  0  0  0  0  0  0  0  0  0  0
  -29.3268  -24.7041   19.6525 C   0  0  0  0  0  0  0  0  0  0  0  0
  -22.3910  -18.3845   22.9018 C   0  0  0  0  0  0  0  0  0  0  0  0
  -26.1081  -26.8675   19.3987 C   0  0  0  0  0  0  0  0  0  0  0  0
  -24.8339  -27.4281   19.4864 C   0  0  0  0  0  0  0  0  0  0  0  0
  -21.2418  -18.9339   20.8533 C   0  0  0  0  0  0  0  0  0  0  0  0
  -25.6940  -29.1555   20.9402 C   0  0  0  0  0  0  0  0  0  0  0  0
  -28.9207  -22.9826   21.2983 C   0  0  0  0  0  0  0  0  0  0  0  0
  -29.6984  -21.1963   22.9451 C   0  0  0  0  0  0  0  0  0  0  0  0
  -20.5173  -27.9725   23.1325 C   0  0  0  0  0  0  0  0  0  0  0  0
  -22.6783  -20.5773   21.8999 C   0  0  0  0  0  0  0  0  0  0  0  0
  -20.7236  -26.6464   23.5583 C   0  0  0  0  0  0  0  0  0  0  0  0
  -21.8191  -20.2129   20.8535 C   0  0  0  0  0  0  0  0  0  0  0  0
  -28.5975  -25.6111   20.4214 C   0  0  0  0  0  0  0  0  0  0  0  0
  -21.5252  -18.0256   21.8730 C   0  0  0  0  0  0  0  0  0  0  0  0
  -27.1753  -27.4508   20.0818 C   0  0  0  0  0  0  0  0  0  0  0  0
  -24.6269  -28.5721   20.2571 C   0  0  0  0  0  0  0  0  0  0  0  0
  -26.9682  -28.5948   20.8525 C   0  0  0  0  0  0  0  0  0  0  0  0
  -29.0884  -21.6250   21.7510 C   0  0  0  0  0  0  0  0  0  0  0  0
  -29.6047  -19.8266   22.9060 C   0  0  0  0  0  0  0  0  0  0  0  0
  -30.2962  -21.9673   23.9958 C   0  0  0  0  0  0  0  0  0  0  0  0
  -21.3196  -23.4494   21.8042 C   0  0  0  0  0  0  0  0  0  0  0  0
  -21.3913  -14.4017   21.7750 C   0  0  0  0  0  0  0  0  0  0  0  0
  -22.2184  -23.3411   18.6893 C   0  0  0  0  0  0  0  0  0  0  0  0
  -23.0398  -21.4421   15.9752 C   0  0  0  0  0  0  0  0  0  0  0  0
  -25.7874  -16.2207   20.2077 C   0  0  0  0  0  0  0  0  0  0  0  0
  -19.7116  -28.2932   21.8986 C   0  0  0  0  0  0  0  0  0  0  0  0
  -23.3305  -21.9326   21.9131 C   0  0  0  0  0  0  0  0  0  0  0  0
  -21.4907  -21.1611   19.7303 C   0  0  0  0  0  0  0  0  0  0  0  0
  -19.5377  -27.1033   20.9584 C   0  0  0  0  0  0  0  0  0  0  0  0
  -29.3853  -16.1746   19.8202 C   0  0  0  0  0  0  0  0  0  0  0  0
  -19.1343  -25.8583   21.7420 C   0  0  0  0  0  0  0  0  0  0  0  0
  -29.7703  -17.5403   20.3919 C   0  0  0  0  0  0  0  0  0  0  0  0
  -28.0750  -16.2505   19.0421 C   0  0  0  0  0  0  0  0  0  0  0  0
  -27.3111  -18.1668   20.3906 C   0  0  0  0  0  0  0  0  0  0  0  0
  -20.2183  -25.4682   22.7541 C   0  0  1  0  0  0  0  0  0  0  0  0
  -22.5617  -22.9736   21.1052 C   0  0  1  0  0  0  0  0  0  0  0  0
  -28.6158  -18.1519   21.2076 C   0  0  2  0  0  0  0  0  0  0  0  0
  -23.6901  -21.6361   13.5593 C   0  0  0  0  0  0  0  0  0  0  0  0
  -19.3206  -23.9598   17.9614 C   0  0  0  0  0  0  0  0  0  0  0  0
  -19.8205  -23.2106   15.6254 C   0  0  0  0  0  0  0  0  0  0  0  0
  -21.0229  -25.1727   16.5883 C   0  0  0  0  0  0  0  0  0  0  0  0
  -25.6476  -20.1264   16.4515 C   0  0  0  0  0  0  0  0  0  0  0  0
  -23.6115  -11.0992   22.5444 C   0  0  0  0  0  0  0  0  0  0  0  0
  -21.7071  -15.7254   22.4491 C   0  0  0  0  0  0  0  0  0  1  0  0
  -24.3698  -14.2028   19.9327 C   0  0  0  0  0  0  0  0  0  0  0  0
  -24.4825  -13.3354   21.1716 C   0  0  0  0  0  0  0  0  0  0  0  0
  -21.5852  -22.8489   17.4104 C   0  0  1  0  0  0  0  0  0  0  0  0
  -24.1920  -21.5363   14.9914 C   0  0  2  0  0  0  0  0  0  0  0  0
  -20.4418  -23.7806   16.9184 C   0  0  0  0  0  0  0  0  0  0  0  0
  -28.6404  -20.6099   21.0075 N   0  0  0  0  0  0  0  0  0  0  0  0
  -22.0659  -13.2727   22.2923 N   0  0  0  0  0  0  0  0  0  0  0  0
  -28.9693  -19.5297   21.7363 N   0  0  0  0  0  0  0  0  0  0  0  0
  -22.1484  -22.4769   19.7912 N   0  0  0  0  0  0  0  0  0  0  0  0
  -27.0131  -16.8241   19.8809 N   0  0  0  0  0  0  0  0  0  0  0  0
  -30.0047  -18.8592   23.7584 N   0  0  0  0  0  0  0  0  0  0  0  0
  -31.6622  -22.2687   23.9091 N   0  0  0  0  0  0  0  0  0  0  0  0
  -21.3163  -24.8019   22.0871 N   0  0  0  0  0  0  0  0  0  0  0  0
  -22.6738  -22.6825   16.4535 N   0  0  0  0  0  0  0  0  0  0  0  0
  -25.5802  -14.9523   19.6795 N   0  0  0  0  0  0  0  0  0  0  0  0
  -25.0659  -20.3341   15.1004 N   0  3  0  0  0  0  0  0  0  0  0  0
  -29.6422  -22.3629   24.9904 O   0  0  0  0  0  0  0  0  0  0  0  0
  -20.4295  -22.6489   22.0662 O   0  0  0  0  0  0  0  0  0  0  0  0
  -20.5950  -14.3458   20.8392 O   0  0  0  0  0  0  0  0  0  0  0  0
  -22.7617  -24.4484   18.7080 O   0  0  0  0  0  0  0  0  0  0  0  0
  -22.5143  -20.3752   16.2854 O   0  0  0  0  0  0  0  0  0  0  0  0
  -24.9417  -16.7696   20.9224 O   0  0  0  0  0  0  0  0  0  0  0  0
  -22.6795  -11.7356   20.2015 O   0  0  0  0  0  0  0  0  0  0  0  0
  -28.4399  -26.8934   19.9931 O   0  0  0  0  0  0  0  0  0  0  0  0
  -20.9594  -16.7880   21.8591 O   0  0  0  0  0  0  0  0  0  1  0  0
  -23.4035  -29.1113   20.3400 F   0  0  0  0  0  0  0  0  0  0  0  0
  -27.9898  -29.1603   21.5100 F   0  0  0  0  0  0  0  0  0  0  0  0
  -23.0134  -12.3766   21.4612 S   0  0  2  0  0  0  0  0  0  0  0  0
  1  2  1  0  0  0  0
  1  5  2  0  0  0  0
  2  6  2  0  0  0  0
  3  8  2  0  0  0  0
  3 15  1  0  0  0  0
  4  9  1  0  0  0  0
  4 15  2  0  0  0  0
  5 17  1  0  0  0  0
  6 19  1  0  0  0  0
  7 10  2  0  0  0  0
  7 18  1  0  0  0  0
  8 21  1  0  0  0  0
  9 21  2  0  0  0  0
 10 22  1  0  0  0  0
 11 12  2  0  0  0  0
 11 23  1  0  0  0  0
 12 24  1  0  0  0  0
 13 20  1  0  0  0  0
 13 22  2  0  0  0  0
 14 24  2  0  0  0  0
 14 25  1  0  0  0  0
 15 26  1  0  0  0  0
 16 26  1  0  0  0  0
 16 27  2  0  0  0  0
 16 28  1  0  0  0  0
 17 19  2  0  0  0  0
 17 34  1  0  0  0  0
 18 20  2  0  0  0  0
 18 35  1  0  0  0  0
 19 43  1  0  0  0  0
 20 36  1  0  0  0  0
 21 76  1  0  0  0  0
 22 77  1  0  0  0  0
 23 25  2  0  0  0  0
 23 76  1  0  0  0  0
 24 78  1  0  0  0  0
 25 79  1  0  0  0  0
 26 58  2  0  0  0  0
 27 60  1  0  0  0  0
 27 63  1  0  0  0  0
 28 64  1  0  0  0  0
 28 69  2  0  0  0  0
 29 44  1  0  0  0  0
 29 65  1  0  0  0  0
 29 70  2  0  0  0  0
 30 52  1  0  0  0  0
 30 59  1  0  0  0  0
 30 71  2  0  0  0  0
 31 55  1  0  0  0  0
 31 61  1  0  0  0  0
 31 72  2  0  0  0  0
 32 56  1  0  0  0  0
 32 66  1  0  0  0  0
 32 73  2  0  0  0  0
 33 62  1  0  0  0  0
 33 67  1  0  0  0  0
 33 74  2  0  0  0  0
 34 37  1  0  0  0  0
 35 44  1  0  0  0  0
 36 61  1  0  0  0  0
 37 39  1  0  0  0  0
 38 40  1  0  0  0  0
 38 41  1  0  0  0  0
 39 43  1  0  0  0  0
 40 45  1  0  0  0  0
 41 62  1  0  0  0  0
 42 45  1  0  0  0  0
 42 62  1  0  0  0  0
 43 65  1  0  0  0  0
 44 61  1  0  0  0  0
 45 60  1  0  0  0  0
 46 56  1  0  0  0  0
 47 57  1  0  0  0  0
 48 57  1  0  0  0  0
 49 57  1  0  0  0  0
 50 68  1  0  0  0  0
 51 80  1  0  0  0  0
 52 77  1  0  0  0  0
 53 54  1  0  0  0  0
 53 67  1  0  0  0  0
 54 80  1  0  0  0  0
 55 57  1  0  0  0  0
 55 66  1  0  0  0  0
 56 68  1  0  0  0  0
 58 60  1  0  0  0  0
 59 80  2  0  0  0  0
 75 80  2  0  0  0  0
M  CHG  1  68   1
M  ISO  4  33 100  52 101  67 100  77 101
M  END
> <Batch ID>
0058

> <Smiles>
CNC(C)C(=O)NC(C(=O)N1Cc2cc([101O:1][101CH2:1]C(=O)N=S(C)(=O)CC[100NH:0][100C:0](=O)N3CCCC(n4nc(-c5ccc(Oc6ccc(F)cc6F)cc5)c(C(N)=O)c4N)C3)ccc2CC1C(=O)NC1CCCc2ccccc21)C(C)(C)C

> <Shape>
0.190

> <Color>
0.073

> <Negative vol penalty>
0.000

$$$$

  -OEChem-04042322583D

 86 94  0     1  0  0  0  0  0999 V2000
  -26.9520  -14.3409   27.9209 C   0  0  0  0  0  0  0  0  0  0  0  0
  -27.7469  -15.4208   27.5502 C   0  0  0  0  0  0  0  0  0  0  0  0
  -23.0760   -9.8676   19.9409 C   0  0  0  0  0  0  0  0  0  0  0  0
  -23.8344   -9.8756   22.2347 C   0  0  0  0  0  0  0  0  0  0  0  0
  -30.4635  -18.3434   24.0430 C   0  0  0  0  0  0  0  0  0  0  0  0
  -25.6929  -14.1737   27.3459 C   0  0  0  0  0  0  0  0  0  0  0  0
  -27.2835  -16.3336   26.6033 C   0  0  0  0  0  0  0  0  0  0  0  0
  -28.1265  -21.1387   27.9617 C   0  0  0  0  0  0  0  0  0  0  0  0
  -29.8772  -17.4579   23.1387 C   0  0  0  0  0  0  0  0  0  0  0  0
  -22.3318   -8.7147   20.1909 C   0  0  0  0  0  0  0  0  0  0  0  0
  -23.0902   -8.7227   22.4848 C   0  0  0  0  0  0  0  0  0  0  0  0
  -29.4200  -21.6307   27.7924 C   0  0  0  0  0  0  0  0  0  0  0  0
  -19.8615   -7.9256   23.0856 C   0  0  0  0  0  0  0  0  0  0  0  0
  -19.1038   -7.8864   24.2561 C   0  0  0  0  0  0  0  0  0  0  0  0
  -32.0623  -16.6105   22.5518 C   0  0  0  0  0  0  0  0  0  0  0  0
  -28.7331  -22.7166   25.7508 C   0  0  0  0  0  0  0  0  0  0  0  0
  -20.3445   -5.9491   24.9943 C   0  0  0  0  0  0  0  0  0  0  0  0
  -23.8273  -10.4481   20.9628 C   0  0  0  0  0  0  0  0  0  0  0  0
  -31.8492  -18.3625   24.2017 C   0  0  0  0  0  0  0  0  0  0  0  0
  -32.6486  -17.4961   23.4561 C   0  0  0  0  0  0  0  0  0  0  0  0
  -24.1696  -12.9731   20.8417 C   0  0  0  0  0  0  0  0  0  0  0  0
  -25.2099  -15.0902   26.3986 C   0  0  0  0  0  0  0  0  0  0  0  0
  -27.1277  -21.4234   27.0196 C   0  0  0  0  0  0  0  0  0  0  0  0
  -26.0173  -16.1777   26.0141 C   0  0  0  0  0  0  0  0  0  0  0  0
  -27.4272  -22.2292   25.9118 C   0  0  0  0  0  0  0  0  0  0  0  0
  -30.6766  -16.5915   22.3931 C   0  0  0  0  0  0  0  0  0  0  0  0
  -22.3389   -8.1422   21.4629 C   0  0  0  0  0  0  0  0  0  0  0  0
  -29.7242  -22.4174   26.6853 C   0  0  0  0  0  0  0  0  0  0  0  0
  -20.8607   -6.9766   22.8695 C   0  0  0  0  0  0  0  0  0  0  0  0
  -19.3453   -6.8982   25.2104 C   0  0  0  0  0  0  0  0  0  0  0  0
  -21.1022   -5.9884   23.8238 C   0  0  0  0  0  0  0  0  0  0  0  0
  -24.5967  -11.6387   20.7049 C   0  0  0  0  0  0  0  0  0  0  0  0
  -25.2620  -13.7223   20.4788 C   0  0  0  0  0  0  0  0  0  0  0  0
  -34.0983  -17.4937   23.6026 C   0  0  0  0  0  0  0  0  0  0  0  0
  -32.4463  -19.3081   25.1660 C   0  0  0  0  0  0  0  0  0  0  0  0
  -22.8989  -13.4893   21.2595 C   0  0  0  0  0  0  0  0  0  0  0  0
  -25.3249  -19.6811   25.0656 C   0  0  0  0  0  0  0  0  0  0  0  0
  -23.8967  -22.5325   24.4723 C   0  0  0  0  0  0  0  0  0  0  0  0
  -24.1210  -25.9379   24.4583 C   0  0  0  0  0  0  0  0  0  0  0  0
  -30.7283  -14.7672   20.6565 C   0  0  0  0  0  0  0  0  0  0  0  0
  -23.8619  -14.8415   25.7696 C   0  0  0  0  0  0  0  0  0  0  0  0
  -25.7307  -20.9074   27.2307 C   0  0  0  0  0  0  0  0  0  0  0  0
  -26.3857  -22.5807   24.8821 C   0  0  0  0  0  0  0  0  0  0  0  0
  -23.2910  -16.0611   25.0505 C   0  0  0  0  0  0  0  0  0  0  0  0
  -29.6151  -12.3524   18.2887 C   0  0  0  0  0  0  0  0  0  0  0  0
  -24.3551  -16.7081   24.1697 C   0  0  0  0  0  0  0  0  0  0  0  0
  -28.1751  -12.0612   18.7175 C   0  0  0  0  0  0  0  0  0  0  0  0
  -30.5294  -12.5817   19.4908 C   0  0  0  0  0  0  0  0  0  0  0  0
  -28.6217  -13.3071   20.8705 C   0  0  0  0  0  0  0  0  0  0  0  0
  -25.5395  -17.2029   25.0087 C   0  0  1  0  0  0  0  0  0  0  0  0
  -24.9197  -20.8334   25.9406 C   0  0  1  0  0  0  0  0  0  0  0  0
  -27.6496  -13.1334   19.6921 C   0  0  2  0  0  0  0  0  0  0  0  0
  -34.8146  -16.1978   23.3630 C   0  0  0  0  0  0  0  0  0  0  0  0
  -22.8049  -27.9964   23.8857 C   0  0  0  0  0  0  0  0  0  0  0  0
  -24.3960  -22.0236   21.5056 C   0  0  0  0  0  0  0  0  0  0  0  0
  -23.9511  -24.4513   21.0856 C   0  0  0  0  0  0  0  0  0  0  0  0
  -22.1558  -23.0019   22.0336 C   0  0  0  0  0  0  0  0  0  0  0  0
  -24.2318  -26.9251   27.2461 C   0  0  0  0  0  0  0  0  0  0  0  0
  -32.9440  -22.9271   25.1302 C   0  0  0  0  0  0  0  0  0  0  0  0
  -33.3901  -21.5497   25.5917 C   0  0  0  0  0  0  0  0  0  0  0  0
  -31.4311  -23.0999   25.1765 C   0  0  0  0  0  0  0  0  0  1  0  0
  -24.1185  -23.6549   23.4874 C   0  0  1  0  0  0  0  0  0  0  0  0
  -23.1833  -27.0113   24.9807 C   0  0  2  0  0  0  0  0  0  0  0  0
  -23.6756  -23.2749   22.0463 C   0  0  0  0  0  0  0  0  0  0  0  0
  -25.8618  -11.5425   20.2875 N   0  0  0  0  0  0  0  0  0  0  0  0
  -26.2390  -12.8260   20.1588 N   0  0  0  0  0  0  0  0  0  0  0  0
  -25.0361  -22.0470   25.1295 N   0  0  0  0  0  0  0  0  0  0  0  0
  -29.9700  -13.6130   20.3673 N   0  0  0  0  0  0  0  0  0  0  0  0
  -25.4727  -15.0537   20.4052 N   0  0  0  0  0  0  0  0  0  0  0  0
  -32.6143  -18.9002   26.4238 N   0  0  0  0  0  0  0  0  0  0  0  0
  -21.8866  -12.5804   21.5966 N   0  0  0  0  0  0  0  0  0  0  0  0
  -30.0805  -15.6928   21.4740 N   0  0  0  0  0  0  0  0  0  0  0  0
  -25.2052  -18.4451   25.6717 N   0  0  0  0  0  0  0  0  0  0  0  0
  -23.4329  -24.8203   24.0354 N   0  0  0  0  0  0  0  0  0  0  0  0
  -32.7880  -20.5290   24.7337 N   0  3  0  0  0  0  0  0  0  0  0  0
  -23.8289  -27.7676   26.0907 N   0  3  0  0  0  0  0  0  0  0  0  0
  -34.7759  -18.4739   23.9124 O   0  0  0  0  0  0  0  0  0  0  0  0
  -22.6627  -14.7200   21.3161 O   0  0  0  0  0  0  0  0  0  0  0  0
  -25.7157  -19.8973   23.9244 O   0  0  0  0  0  0  0  0  0  0  0  0
  -22.7536  -22.1072   24.6572 O   0  0  0  0  0  0  0  0  0  0  0  0
  -25.3415  -26.0783   24.4249 O   0  0  0  0  0  0  0  0  0  0  0  0
  -31.8577  -14.9356   20.1895 O   0  0  0  0  0  0  0  0  0  0  0  0
  -21.6126   -7.0173   21.7073 O   0  0  0  0  0  0  0  0  0  0  0  0
  -30.9861  -22.8983   26.5172 O   0  0  0  0  0  0  0  0  0  1  0  0
  -18.6186   -6.8615   26.3350 F   0  0  0  0  0  0  0  0  0  0  0  0
  -22.0615   -5.0746   23.6223 F   0  0  0  0  0  0  0  0  0  0  0  0
  1  2  1  0  0  0  0
  1  6  2  0  0  0  0
  2  7  2  0  0  0  0
  3 10  2  0  0  0  0
  3 18  1  0  0  0  0
  4 11  1  0  0  0  0
  4 18  2  0  0  0  0
  5  9  2  0  0  0  0
  5 19  1  0  0  0  0
  6 22  1  0  0  0  0
  7 24  1  0  0  0  0
  8 12  2  0  0  0  0
  8 23  1  0  0  0  0
  9 26  1  0  0  0  0
 10 27  1  0  0  0  0
 11 27  2  0  0  0  0
 12 28  1  0  0  0  0
 13 14  2  0  0  0  0
 13 29  1  0  0  0  0
 14 30  1  0  0  0  0
 15 20  1  0  0  0  0
 15 26  2  0  0  0  0
 16 25  1  0  0  0  0
 16 28  2  0  0  0  0
 17 30  2  0  0  0  0
 17 31  1  0  0  0  0
 18 32  1  0  0  0  0
 19 20  2  0  0  0  0
 19 35  1  0  0  0  0
 20 34  1  0  0  0  0
 21 32  1  0  0  0  0
 21 33  2  0  0  0  0
 21 36  1  0  0  0  0
 22 24  2  0  0  0  0
 22 41  1  0  0  0  0
 23 25  2  0  0  0  0
 23 42  1  0  0  0  0
 24 50  1  0  0  0  0
 25 43  1  0  0  0  0
 26 72  1  0  0  0  0
 27 83  1  0  0  0  0
 28 84  1  0  0  0  0
 29 31  2  0  0  0  0
 29 83  1  0  0  0  0
 30 85  1  0  0  0  0
 31 86  1  0  0  0  0
 32 65  2  0  0  0  0
 33 66  1  0  0  0  0
 33 69  1  0  0  0  0
 34 53  1  0  0  0  0
 34 77  2  0  0  0  0
 35 70  1  0  0  0  0
 35 75  2  0  0  0  0
 36 71  1  0  0  0  0
 36 78  2  0  0  0  0
 37 51  1  0  0  0  0
 37 73  1  0  0  0  0
 37 79  2  0  0  0  0
 38 62  1  0  0  0  0
 38 67  1  0  0  0  0
 38 80  2  0  0  0  0
 39 63  1  0  0  0  0
 39 74  1  0  0  0  0
 39 81  2  0  0  0  0
 40 68  1  0  0  0  0
 40 72  1  0  0  0  0
 40 82  2  0  0  0  0
 41 44  1  0  0  0  0
 42 51  1  0  0  0  0
 43 67  1  0  0  0  0
 44 46  1  0  0  0  0
 45 47  1  0  0  0  0
 45 48  1  0  0  0  0
 46 50  1  0  0  0  0
 47 52  1  0  0  0  0
 48 68  1  0  0  0  0
 49 52  1  0  0  0  0
 49 68  1  0  0  0  0
 50 73  1  0  0  0  0
 51 67  1  0  0  0  0
 52 66  1  0  0  0  0
 54 63  1  0  0  0  0
 55 64  1  0  0  0  0
 56 64  1  0  0  0  0
 57 64  1  0  0  0  0
 58 76  1  0  0  0  0
 59 60  1  0  0  0  0
 59 61  1  0  0  0  0
 60 75  1  0  0  0  0
 61 84  1  0  0  0  0
 62 64  1  0  0  0  0
 62 74  1  0  0  0  0
 63 76  1  0  0  0  0
 65 66  1  0  0  0  0
M  CHG  2  75   1  76   1
M  ISO  4  40 100  61 101  72 100  84 101
M  END
> <Batch ID>
0058

> <Smiles>
CNC(C)C(=O)NC(C(=O)N1Cc2cc([101O:1][101CH2:1]CCNC(=N)c3ccc([100NH:0][100C:0](=O)N4CCCC(n5nc(-c6ccc(Oc7ccc(F)cc7F)cc6)c(C(N)=O)c5N)C4)cc3C(C)=O)ccc2CC1C(=O)NC1CCCc2ccccc21)C(C)(C)C

> <Shape>
0.168

> <Color>
0.184

> <Negative vol penalty>
0.000

$$$$

  -OEChem-04042322583D

 86 95  0     1  0  0  0  0  0999 V2000
  -24.0233  -29.0170   13.9172 C   0  0  0  0  0  0  0  0  0  0  0  0
  -25.1577  -28.5481   14.5721 C   0  0  0  0  0  0  0  0  0  0  0  0
  -24.9314  -10.4058   23.6457 C   0  0  0  0  0  0  0  0  0  0  0  0
  -24.5646   -9.2197   21.5731 C   0  0  0  0  0  0  0  0  0  0  0  0
  -23.3056  -30.0877   14.4486 C   0  0  0  0  0  0  0  0  0  0  0  0
  -25.5756  -29.1505   15.7582 C   0  0  0  0  0  0  0  0  0  0  0  0
  -26.8509  -25.7719   19.3084 C   0  0  0  0  0  0  0  0  0  0  0  0
  -30.0703  -19.7580   21.0657 C   0  0  0  0  0  0  0  0  0  0  0  0
  -29.4394  -18.5924   20.6312 C   0  0  0  0  0  0  0  0  0  0  0  0
  -24.6221   -9.2496   24.3621 C   0  0  0  0  0  0  0  0  0  0  0  0
  -24.2554   -8.0635   22.2895 C   0  0  0  0  0  0  0  0  0  0  0  0
  -28.0984  -25.1613   19.1874 C   0  0  0  0  0  0  0  0  0  0  0  0
  -21.6119   -6.8190   23.9907 C   0  0  0  0  0  0  0  0  0  0  0  0
  -20.4934   -6.0882   23.5903 C   0  0  0  0  0  0  0  0  0  0  0  0
  -28.9941  -26.6785   20.8351 C   0  0  0  0  0  0  0  0  0  0  0  0
  -31.4207  -17.9827   19.3902 C   0  0  0  0  0  0  0  0  0  0  0  0
  -21.8973   -4.1660   23.1767 C   0  0  0  0  0  0  0  0  0  0  0  0
  -24.9025  -10.3908   22.2511 C   0  0  0  0  0  0  0  0  0  0  0  0
  -24.5584  -12.8254   21.5714 C   0  0  0  0  0  0  0  0  0  0  0  0
  -23.7094  -30.6973   15.6469 C   0  0  0  0  0  0  0  0  0  0  0  0
  -26.6680  -26.8493   20.1871 C   0  0  0  0  0  0  0  0  0  0  0  0
  -24.8634  -30.2312   16.3054 C   0  0  0  0  0  0  0  0  0  0  0  0
  -27.7427  -27.2994   20.9673 C   0  0  0  0  0  0  0  0  0  0  0  0
  -31.3764  -20.0361   20.6624 C   0  0  0  0  0  0  0  0  0  0  0  0
  -30.1146  -17.7047   19.7934 C   0  0  0  0  0  0  0  0  0  0  0  0
  -24.2841   -8.0784   23.6840 C   0  0  0  0  0  0  0  0  0  0  0  0
  -29.1709  -25.6164   19.9487 C   0  0  0  0  0  0  0  0  0  0  0  0
  -22.8732   -6.2233   23.9841 C   0  0  0  0  0  0  0  0  0  0  0  0
  -20.6361   -4.7617   23.1833 C   0  0  0  0  0  0  0  0  0  0  0  0
  -23.0159   -4.8968   23.5772 C   0  0  0  0  0  0  0  0  0  0  0  0
  -32.0516  -19.1484   19.8247 C   0  0  0  0  0  0  0  0  0  0  0  0
  -25.2213  -11.5850   21.5106 C   0  0  0  0  0  0  0  0  0  0  0  0
  -25.2404  -13.6230   20.6852 C   0  0  0  0  0  0  0  0  0  0  0  0
  -33.1797  -21.2094   21.8960 C   0  0  0  0  0  0  0  0  0  0  0  0
  -23.4273  -13.2213   22.3586 C   0  0  0  0  0  0  0  0  0  0  0  0
  -25.8377  -29.8995   19.8542 C   0  0  0  0  0  0  0  0  0  0  0  0
  -25.8539  -29.8533   23.0976 C   0  0  0  0  0  0  0  0  0  0  0  0
  -27.9287  -28.4625   25.7011 C   0  0  0  0  0  0  0  0  0  0  0  0
  -30.0004  -15.5345   18.5194 C   0  0  0  0  0  0  0  0  0  0  0  0
  -22.9286  -31.8822   16.1577 C   0  0  0  0  0  0  0  0  0  0  0  0
  -25.3095  -27.4798   20.3257 C   0  0  0  0  0  0  0  0  0  0  0  0
  -27.5936  -28.4395   21.9402 C   0  0  0  0  0  0  0  0  0  0  0  0
  -33.9206  -22.5216   22.0710 C   0  0  0  0  0  0  0  0  0  0  0  0
  -23.2236  -32.2232   17.6161 C   0  0  0  0  0  0  0  0  0  0  0  0
  -33.0239  -23.7355   22.1782 C   0  0  0  0  0  0  0  0  0  0  0  0
  -28.7550  -12.4563   17.2344 C   0  0  0  0  0  0  0  0  0  0  0  0
  -24.7277  -32.2261   17.8700 C   0  0  0  0  0  0  0  0  0  0  0  0
  -27.6701  -12.0573   18.2374 C   0  0  0  0  0  0  0  0  0  0  0  0
  -29.9452  -13.1231   17.9218 C   0  0  0  0  0  0  0  0  0  0  0  0
  -31.2465  -22.5097   20.9610 C   0  0  0  0  0  0  0  0  0  0  0  0
  -28.5204  -13.8594   19.7919 C   0  0  0  0  0  0  0  0  0  0  0  0
  -25.3342  -30.8424   17.6073 C   0  0  1  0  0  0  0  0  0  0  0  0
  -25.3641  -28.9025   20.8737 C   0  0  1  0  0  0  0  0  0  0  0  0
  -32.1038  -23.7745   20.9692 C   0  0  1  0  0  0  0  0  0  0  0  0
  -27.2727  -13.2425   19.1390 C   0  0  2  0  0  0  0  0  0  0  0  0
  -27.3630  -27.7819   28.0493 C   0  0  0  0  0  0  0  0  0  0  0  0
  -26.7787  -32.6679   23.8277 C   0  0  0  0  0  0  0  0  0  0  0  0
  -27.8178  -31.7146   25.8964 C   0  0  0  0  0  0  0  0  0  0  0  0
  -25.3517  -31.5576   25.5555 C   0  0  0  0  0  0  0  0  0  0  0  0
  -28.9795  -25.7273   25.2850 C   0  0  0  0  0  0  0  0  0  0  0  0
  -31.2265  -25.0246   20.9880 C   0  0  0  0  0  0  0  0  0  1  0  0
  -26.8897  -30.1106   24.1653 C   0  0  1  0  0  0  0  0  0  0  0  0
  -27.5797  -27.3065   26.6211 C   0  0  2  0  0  0  0  0  0  0  0  0
  -26.7167  -31.5028   24.8356 C   0  0  0  0  0  0  0  0  0  0  0  0
  -26.2457  -11.5893   20.6534 N   0  0  0  0  0  0  0  0  0  0  0  0
  -26.2315  -12.8421   20.1674 N   0  0  0  0  0  0  0  0  0  0  0  0
  -32.0008  -21.2546   21.1320 N   0  0  0  0  0  0  0  0  0  0  0  0
  -26.2472  -29.0273   22.0351 N   0  0  0  0  0  0  0  0  0  0  0  0
  -29.4929  -14.2392   18.7551 N   0  0  0  0  0  0  0  0  0  0  0  0
  -25.0829  -14.9090   20.3062 N   0  0  0  0  0  0  0  0  0  0  0  0
  -22.1449  -13.0464   21.8208 N   0  0  0  0  0  0  0  0  0  0  0  0
  -29.4732  -16.5208   19.3524 N   0  0  0  0  0  0  0  0  0  0  0  0
  -25.0587  -29.9514   18.7140 N   0  0  0  0  0  0  0  0  0  0  0  0
  -26.8082  -28.9869   25.0922 N   0  0  0  0  0  0  0  0  0  0  0  0
  -28.6759  -26.2969   26.6230 N   0  3  0  0  0  0  0  0  0  0  0  0
  -33.6829  -20.1908   22.3778 O   0  0  0  0  0  0  0  0  0  0  0  0
  -23.5509  -13.7306   23.4982 O   0  0  0  0  0  0  0  0  0  0  0  0
  -26.8351  -30.5728   20.0854 O   0  0  0  0  0  0  0  0  0  0  0  0
  -24.7347  -30.3606   23.2060 O   0  0  0  0  0  0  0  0  0  0  0  0
  -29.0797  -28.8628   25.5416 O   0  0  0  0  0  0  0  0  0  0  0  0
  -30.8205  -15.7573   17.6250 O   0  0  0  0  0  0  0  0  0  0  0  0
  -23.9826   -6.9500   24.3827 O   0  0  0  0  0  0  0  0  0  0  0  0
  -30.3898  -25.0226   19.8320 O   0  0  0  0  0  0  0  0  0  1  0  0
  -19.5616   -4.0595   22.8002 F   0  0  0  0  0  0  0  0  0  0  0  0
  -24.2249   -4.3188   23.5698 F   0  0  0  0  0  0  0  0  0  0  0  0
  -33.6696  -19.4541   19.3015 Cl  0  0  0  0  0  0  0  0  0  0  0  0
  1  2  1  0  0  0  0
  1  5  2  0  0  0  0
  2  6  2  0  0  0  0
  3 10  2  0  0  0  0
  3 18  1  0  0  0  0
  4 11  1  0  0  0  0
  4 18  2  0  0  0  0
  5 20  1  0  0  0  0
  6 22  1  0  0  0  0
  7 12  2  0  0  0  0
  7 21  1  0  0  0  0
  8  9  2  0  0  0  0
  8 24  1  0  0  0  0
  9 25  1  0  0  0  0
 10 26  1  0  0  0  0
 11 26  2  0  0  0  0
 12 27  1  0  0  0  0
 13 14  2  0  0  0  0
 13 28  1  0  0  0  0
 14 29  1  0  0  0  0
 15 23  1  0  0  0  0
 15 27  2  0  0  0  0
 16 25  2  0  0  0  0
 16 31  1  0  0  0  0
 17 29  2  0  0  0  0
 17 30  1  0  0  0  0
 18 32  1  0  0  0  0
 19 32  1  0  0  0  0
 19 33  2  0  0  0  0
 19 35  1  0  0  0  0
 20 22  2  0  0  0  0
 20 40  1  0  0  0  0
 21 23  2  0  0  0  0
 21 41  1  0  0  0  0
 22 52  1  0  0  0  0
 23 42  1  0  0  0  0
 24 31  2  0  0  0  0
 24 67  1  0  0  0  0
 25 72  1  0  0  0  0
 26 82  1  0  0  0  0
 27 83  1  0  0  0  0
 28 30  2  0  0  0  0
 28 82  1  0  0  0  0
 29 84  1  0  0  0  0
 30 85  1  0  0  0  0
 31 86  1  0  0  0  0
 32 65  2  0  0  0  0
 33 66  1  0  0  0  0
 33 70  1  0  0  0  0
 34 43  1  0  0  0  0
 34 67  1  0  0  0  0
 34 76  2  0  0  0  0
 35 71  1  0  0  0  0
 35 77  2  0  0  0  0
 36 53  1  0  0  0  0
 36 73  1  0  0  0  0
 36 78  2  0  0  0  0
 37 62  1  0  0  0  0
 37 68  1  0  0  0  0
 37 79  2  0  0  0  0
 38 63  1  0  0  0  0
 38 74  1  0  0  0  0
 38 80  2  0  0  0  0
 39 69  1  0  0  0  0
 39 72  1  0  0  0  0
 39 81  2  0  0  0  0
 40 44  1  0  0  0  0
 41 53  1  0  0  0  0
 42 68  1  0  0  0  0
 43 45  1  0  0  0  0
 44 47  1  0  0  0  0
 45 54  1  0  0  0  0
 46 48  1  0  0  0  0
 46 49  1  0  0  0  0
 47 52  1  0  0  0  0
 48 55  1  0  0  0  0
 49 69  1  0  0  0  0
 50 54  1  0  0  0  0
 50 67  1  0  0  0  0
 51 55  1  0  0  0  0
 51 69  1  0  0  0  0
 52 73  1  0  0  0  0
 53 68  1  0  0  0  0
 54 61  1  0  0  0  0
 55 66  1  0  0  0  0
 56 63  1  0  0  0  0
 57 64  1  0  0  0  0
 58 64  1  0  0  0  0
 59 64  1  0  0  0  0
 60 75  1  0  0  0  0
 61 83  1  0  0  0  0
 62 64  1  0  0  0  0
 62 74  1  0  0  0  0
 63 75  1  0  0  0  0
 65 66  1  0  0  0  0
M  CHG  1  75   1
M  ISO  4  39 100  61 101  72 100  83 101
M  END
> <Batch ID>
0058

> <Smiles>
CNC(C)C(=O)NC(C(=O)N1Cc2cc([101O:1][101CH2:1]C3CCC(=O)N(c4ccc([100NH:0][100C:0](=O)N5CCCC(n6nc(-c7ccc(Oc8ccc(F)cc8F)cc7)c(C(N)=O)c6N)C5)cc4Cl)C3)ccc2CC1C(=O)NC1CCCc2ccccc21)C(C)(C)C

> <Shape>
0.257

> <Color>
0.147

> <Negative vol penalty>
0.000

$$$$

  -OEChem-04042322583D

 87 95  0     1  0  0  0  0  0999 V2000
  -27.3038  -21.3433   26.5489 C   0  0  0  0  0  0  0  0  0  0  0  0
  -28.3360  -20.4173   26.6607 C   0  0  0  0  0  0  0  0  0  0  0  0
  -23.2858   -9.7990   19.9175 C   0  0  0  0  0  0  0  0  0  0  0  0
  -23.7451   -9.9416   22.2851 C   0  0  0  0  0  0  0  0  0  0  0  0
  -26.8242  -21.7022   25.2899 C   0  0  0  0  0  0  0  0  0  0  0  0
  -28.8885  -19.8488   25.5135 C   0  0  0  0  0  0  0  0  0  0  0  0
  -33.9491  -19.7229   25.6516 C   0  0  0  0  0  0  0  0  0  0  0  0
  -22.5609   -8.6261   20.1287 C   0  0  0  0  0  0  0  0  0  0  0  0
  -23.0202   -8.7688   22.4964 C   0  0  0  0  0  0  0  0  0  0  0  0
  -34.5403  -18.7232   26.4229 C   0  0  0  0  0  0  0  0  0  0  0  0
  -19.7745   -7.8559   22.7263 C   0  0  0  0  0  0  0  0  0  0  0  0
  -18.8760   -7.8344   23.7929 C   0  0  0  0  0  0  0  0  0  0  0  0
  -34.9311  -17.4238   24.4285 C   0  0  0  0  0  0  0  0  0  0  0  0
  -30.9030  -12.6037   25.0868 C   0  0  0  0  0  0  0  0  0  0  0  0
  -32.8241  -12.2801   23.6580 C   0  0  0  0  0  0  0  0  0  0  0  0
  -20.0865   -5.9887   24.7754 C   0  0  0  0  0  0  0  0  0  0  0  0
  -23.8779  -10.4567   20.9957 C   0  0  0  0  0  0  0  0  0  0  0  0
  -33.0287  -11.9721   26.0455 C   0  0  0  0  0  0  0  0  0  0  0  0
  -24.1350  -12.9867   20.7942 C   0  0  0  0  0  0  0  0  0  0  0  0
  -27.3776  -21.1451   24.1263 C   0  0  0  0  0  0  0  0  0  0  0  0
  -33.8344  -19.5753   24.2618 C   0  0  0  0  0  0  0  0  0  0  0  0
  -28.4149  -20.1996   24.2378 C   0  0  0  0  0  0  0  0  0  0  0  0
  -34.3403  -18.4241   23.6414 C   0  0  0  0  0  0  0  0  0  0  0  0
  -31.6797  -12.2905   26.2022 C   0  0  0  0  0  0  0  0  0  0  0  0
  -31.4751  -12.5984   23.8147 C   0  0  0  0  0  0  0  0  0  0  0  0
  -22.4281   -8.1111   21.4182 C   0  0  0  0  0  0  0  0  0  0  0  0
  -35.0288  -17.5722   25.8117 C   0  0  0  0  0  0  0  0  0  0  0  0
  -20.8290   -6.9437   22.6840 C   0  0  0  0  0  0  0  0  0  0  0  0
  -19.0321   -6.9009   24.8175 C   0  0  0  0  0  0  0  0  0  0  0  0
  -33.6009  -11.9669   24.7734 C   0  0  0  0  0  0  0  0  0  0  0  0
  -20.9850   -6.0101   23.7086 C   0  0  0  0  0  0  0  0  0  0  0  0
  -24.6273  -11.6679   20.7780 C   0  0  0  0  0  0  0  0  0  0  0  0
  -25.2350  -13.7671   20.5347 C   0  0  0  0  0  0  0  0  0  0  0  0
  -33.8718  -11.6360   27.2138 C   0  0  0  0  0  0  0  0  0  0  0  0
  -22.8024  -13.4636   21.0236 C   0  0  0  0  0  0  0  0  0  0  0  0
  -31.4072  -19.4198   22.2153 C   0  0  0  0  0  0  0  0  0  0  0  0
  -33.7789  -19.4593   20.0025 C   0  0  0  0  0  0  0  0  0  0  0  0
  -34.3941  -14.0701   27.4059 C   0  0  0  0  0  0  0  0  0  0  0  0
  -37.0511  -18.8465   19.2515 C   0  0  0  0  0  0  0  0  0  0  0  0
  -31.0989  -12.9571   21.3497 C   0  0  0  0  0  0  0  0  0  0  0  0
  -26.7941  -21.5286   22.7894 C   0  0  0  0  0  0  0  0  0  0  0  0
  -33.2181  -20.6747   23.4408 C   0  0  0  0  0  0  0  0  0  0  0  0
  -34.2599  -18.2263   22.1505 C   0  0  0  0  0  0  0  0  0  0  0  0
  -27.6870  -21.1611   21.6071 C   0  0  0  0  0  0  0  0  0  0  0  0
  -29.4537  -13.6582   18.2709 C   0  0  0  0  0  0  0  0  0  0  0  0
  -28.2027  -19.7327   21.7513 C   0  0  0  0  0  0  0  0  0  0  0  0
  -27.9837  -13.3532   18.5677 C   0  0  0  0  0  0  0  0  0  0  0  0
  -30.3901  -12.6841   18.9837 C   0  0  0  0  0  0  0  0  0  0  0  0
  -28.7036  -12.2563   20.7277 C   0  0  0  0  0  0  0  0  0  0  0  0
  -29.0568  -19.5795   23.0157 C   0  0  1  0  0  0  0  0  0  0  0  0
  -32.6912  -20.1906   22.0934 C   0  0  1  0  0  0  0  0  0  0  0  0
  -27.7242  -13.2511   20.0835 C   0  0  2  0  0  0  0  0  0  0  0  0
  -31.0415  -12.3041   27.5530 C   0  0  0  0  0  0  0  0  0  0  0  0
  -38.6869  -18.9402   17.3508 C   0  0  0  0  0  0  0  0  0  0  0  0
  -32.5515  -16.9263   18.8246 C   0  0  0  0  0  0  0  0  0  0  0  0
  -34.6942  -16.5476   17.5861 C   0  0  0  0  0  0  0  0  0  0  0  0
  -33.3367  -18.5902   17.1307 C   0  0  0  0  0  0  0  0  0  0  0  0
  -38.7651  -20.7980   20.6703 C   0  0  0  0  0  0  0  0  0  0  0  0
  -35.2204  -14.9789   28.3037 C   0  0  0  0  0  0  0  0  0  0  0  0
  -35.1385  -16.4435   27.9022 C   0  0  0  0  0  0  0  0  0  1  0  0
  -34.6100  -18.4081   19.3073 C   0  0  1  0  0  0  0  0  0  0  0  0
  -38.0947  -19.6857   18.5367 C   0  0  2  0  0  0  0  0  0  0  0  0
  -33.7980  -17.6206   18.2405 C   0  0  0  0  0  0  0  0  0  0  0  0
  -25.9380  -11.6099   20.5277 N   0  0  0  0  0  0  0  0  0  0  0  0
  -34.0244  -10.4331   27.6706 N   0  0  0  0  0  0  0  0  0  0  0  0
  -26.2786  -12.9020   20.3842 N   0  0  0  0  0  0  0  0  0  0  0  0
  -33.6429  -19.3267   21.3917 N   0  0  0  0  0  0  0  0  0  0  0  0
  -30.0885  -12.6431   20.4162 N   0  0  0  0  0  0  0  0  0  0  0  0
  -25.4017  -15.1020   20.4226 N   0  0  0  0  0  0  0  0  0  0  0  0
  -21.7914  -12.5263   21.2754 N   0  0  0  0  0  0  0  0  0  0  0  0
  -30.6865  -12.9163   22.6812 N   0  0  0  0  0  0  0  0  0  0  0  0
  -34.4975  -12.7321   27.8100 N   0  0  0  0  0  0  0  0  0  0  0  0
  -30.3781  -20.1304   22.8029 N   0  0  0  0  0  0  0  0  0  0  0  0
  -35.7810  -19.0982   18.7774 N   0  0  0  0  0  0  0  0  0  0  0  0
  -39.2017  -20.0404   19.4692 N   0  3  0  0  0  0  0  0  0  0  0  0
  -22.5137  -14.6839   20.9894 O   0  0  0  0  0  0  0  0  0  0  0  0
  -31.3538  -18.2662   21.8051 O   0  0  0  0  0  0  0  0  0  0  0  0
  -33.2750  -20.3686   19.3385 O   0  0  0  0  0  0  0  0  0  0  0  0
  -33.7317  -14.4823   26.4581 O   0  0  0  0  0  0  0  0  0  0  0  0
  -37.3346  -18.0450   20.1390 O   0  0  0  0  0  0  0  0  0  0  0  0
  -32.2382  -13.2678   20.9929 O   0  0  0  0  0  0  0  0  0  0  0  0
  -21.7206   -6.9668   21.6247 O   0  0  0  0  0  0  0  0  0  0  0  0
  -35.6058  -16.5946   26.5623 O   0  0  0  0  0  0  0  0  0  1  0  0
  -18.1701   -6.8814   25.8426 F   0  0  0  0  0  0  0  0  0  0  0  0
  -34.8963  -11.6623   24.6097 F   0  0  0  0  0  0  0  0  0  0  0  0
  -21.9967   -5.1321   23.6742 F   0  0  0  0  0  0  0  0  0  0  0  0
  -34.8482  -10.3275   28.7642 F   0  0  0  0  0  0  0  0  0  0  0  0
  1  2  1  0  0  0  0
  1  5  2  0  0  0  0
  2  6  2  0  0  0  0
  3  8  2  0  0  0  0
  3 17  1  0  0  0  0
  4  9  1  0  0  0  0
  4 17  2  0  0  0  0
  5 20  1  0  0  0  0
  6 22  1  0  0  0  0
  7 10  2  0  0  0  0
  7 21  1  0  0  0  0
  8 26  1  0  0  0  0
  9 26  2  0  0  0  0
 10 27  1  0  0  0  0
 11 12  2  0  0  0  0
 11 28  1  0  0  0  0
 12 29  1  0  0  0  0
 13 23  1  0  0  0  0
 13 27  2  0  0  0  0
 14 24  2  0  0  0  0
 14 25  1  0  0  0  0
 15 25  2  0  0  0  0
 15 30  1  0  0  0  0
 16 29  2  0  0  0  0
 16 31  1  0  0  0  0
 17 32  1  0  0  0  0
 18 24  1  0  0  0  0
 18 30  2  0  0  0  0
 18 34  1  0  0  0  0
 19 32  1  0  0  0  0
 19 33  2  0  0  0  0
 19 35  1  0  0  0  0
 20 22  2  0  0  0  0
 20 41  1  0  0  0  0
 21 23  2  0  0  0  0
 21 42  1  0  0  0  0
 22 50  1  0  0  0  0
 23 43  1  0  0  0  0
 24 53  1  0  0  0  0
 25 71  1  0  0  0  0
 26 82  1  0  0  0  0
 27 83  1  0  0  0  0
 28 31  2  0  0  0  0
 28 82  1  0  0  0  0
 29 84  1  0  0  0  0
 30 85  1  0  0  0  0
 31 86  1  0  0  0  0
 32 64  2  0  0  0  0
 33 66  1  0  0  0  0
 33 69  1  0  0  0  0
 34 65  2  0  0  0  0
 34 72  1  0  0  0  0
 35 70  1  0  0  0  0
 35 76  2  0  0  0  0
 36 51  1  0  0  0  0
 36 73  1  0  0  0  0
 36 77  2  0  0  0  0
 37 61  1  0  0  0  0
 37 67  1  0  0  0  0
 37 78  2  0  0  0  0
 38 59  1  0  0  0  0
 38 72  1  0  0  0  0
 38 79  2  0  0  0  0
 39 62  1  0  0  0  0
 39 74  1  0  0  0  0
 39 80  2  0  0  0  0
 40 68  1  0  0  0  0
 40 71  1  0  0  0  0
 40 81  2  0  0  0  0
 41 44  1  0  0  0  0
 42 51  1  0  0  0  0
 43 67  1  0  0  0  0
 44 46  1  0  0  0  0
 45 47  1  0  0  0  0
 45 48  1  0  0  0  0
 46 50  1  0  0  0  0
 47 52  1  0  0  0  0
 48 68  1  0  0  0  0
 49 52  1  0  0  0  0
 49 68  1  0  0  0  0
 50 73  1  0  0  0  0
 51 67  1  0  0  0  0
 52 66  1  0  0  0  0
 54 62  1  0  0  0  0
 55 63  1  0  0  0  0
 56 63  1  0  0  0  0
 57 63  1  0  0  0  0
 58 75  1  0  0  0  0
 59 60  1  0  0  0  0
 60 83  1  0  0  0  0
 61 63  1  0  0  0  0
 61 74  1  0  0  0  0
 62 75  1  0  0  0  0
 64 66  1  0  0  0  0
 65 87  1  0  0  0  0
M  CHG  1  75   1
M  ISO  4  40 100  60 101  71 100  83 101
M  END
> <Batch ID>
0058

> <Smiles>
CNC(C)C(=O)NC(C(=O)N1Cc2cc([101O:1][101CH2:1]CC(=O)NC(=NF)c3c(C)cc([100NH:0][100C:0](=O)N4CCCC(n5nc(-c6ccc(Oc7ccc(F)cc7F)cc6)c(C(N)=O)c5N)C4)cc3F)ccc2CC1C(=O)NC1CCCc2ccccc21)C(C)(C)C

> <Shape>
0.146

> <Color>
0.174

> <Negative vol penalty>
0.000

$$$$

  -OEChem-04042322583D

 84 92  0     1  0  0  0  0  0999 V2000
  -17.3165  -25.3541   25.0010 C   0  0  0  0  0  0  0  0  0  0  0  0
  -18.6172  -25.0267   24.6318 C   0  0  0  0  0  0  0  0  0  0  0  0
  -23.5803  -10.0476   22.4072 C   0  0  0  0  0  0  0  0  0  0  0  0
  -24.2913  -11.6749   24.0454 C   0  0  0  0  0  0  0  0  0  0  0  0
  -16.8041  -26.6153   24.6996 C   0  0  0  0  0  0  0  0  0  0  0  0
  -19.4059  -25.9599   23.9599 C   0  0  0  0  0  0  0  0  0  0  0  0
  -24.1130  -26.2163   25.8100 C   0  0  0  0  0  0  0  0  0  0  0  0
  -31.7972  -19.2093   19.1315 C   0  0  0  0  0  0  0  0  0  0  0  0
  -31.3697  -17.8821   19.0944 C   0  0  0  0  0  0  0  0  0  0  0  0
  -23.0199   -9.2713   23.4216 C   0  0  0  0  0  0  0  0  0  0  0  0
  -23.7308  -10.8986   25.0597 C   0  0  0  0  0  0  0  0  0  0  0  0
  -25.0001  -25.2079   25.4357 C   0  0  0  0  0  0  0  0  0  0  0  0
  -24.0942   -7.0959   25.7749 C   0  0  0  0  0  0  0  0  0  0  0  0
  -24.3355   -5.7224   25.7472 C   0  0  0  0  0  0  0  0  0  0  0  0
  -25.9653  -26.6781   23.7846 C   0  0  0  0  0  0  0  0  0  0  0  0
  -29.0706  -18.6205   19.1707 C   0  0  0  0  0  0  0  0  0  0  0  0
  -21.9603   -5.3083   25.5915 C   0  0  0  0  0  0  0  0  0  0  0  0
  -24.2161  -11.2494   22.7191 C   0  0  0  0  0  0  0  0  0  0  0  0
  -24.1647  -13.0706   20.9336 C   0  0  0  0  0  0  0  0  0  0  0  0
  -17.5902  -27.5678   24.0323 C   0  0  0  0  0  0  0  0  0  0  0  0
  -24.1382  -27.4617   25.1658 C   0  0  0  0  0  0  0  0  0  0  0  0
  -18.9031  -27.2345   23.6481 C   0  0  0  0  0  0  0  0  0  0  0  0
  -25.0792  -27.7015   24.1543 C   0  0  0  0  0  0  0  0  0  0  0  0
  -30.8614  -20.2421   19.1882 C   0  0  0  0  0  0  0  0  0  0  0  0
  -29.4981  -19.9477   19.2078 C   0  0  0  0  0  0  0  0  0  0  0  0
  -30.0065  -17.5877   19.1139 C   0  0  0  0  0  0  0  0  0  0  0  0
  -23.0951   -9.6968   24.7478 C   0  0  0  0  0  0  0  0  0  0  0  0
  -25.9244  -25.4377   24.4209 C   0  0  0  0  0  0  0  0  0  0  0  0
  -22.7860   -7.5757   25.7110 C   0  0  0  0  0  0  0  0  0  0  0  0
  -23.2685   -4.8286   25.6554 C   0  0  0  0  0  0  0  0  0  0  0  0
  -21.7190   -6.6819   25.6193 C   0  0  0  0  0  0  0  0  0  0  0  0
  -24.7957  -12.0515   21.6718 C   0  0  0  0  0  0  0  0  0  0  0  0
  -25.1336  -13.5186   20.0693 C   0  0  0  0  0  0  0  0  0  0  0  0
  -27.5598  -23.0547   22.3018 C   0  0  0  0  0  0  0  0  0  0  0  0
  -26.7522  -24.0136   22.7604 C   0  0  0  0  0  0  0  0  0  1  0  0
  -22.8228  -13.5679   21.0213 C   0  0  0  0  0  0  0  0  0  0  0  0
  -27.4652  -22.6217   20.8825 C   0  0  0  0  0  0  0  0  0  0  0  0
  -22.0694  -29.1250   23.4174 C   0  0  0  0  0  0  0  0  0  0  0  0
  -24.3595  -31.4156   23.5926 C   0  0  0  0  0  0  0  0  0  0  0  0
  -27.6518  -32.1923   24.0450 C   0  0  0  0  0  0  0  0  0  0  0  0
  -30.3682  -15.0965   19.0147 C   0  0  0  0  0  0  0  0  0  0  0  0
  -16.9768  -28.9015   23.6862 C   0  0  0  0  0  0  0  0  0  0  0  0
  -23.1925  -28.5479   25.5995 C   0  0  0  0  0  0  0  0  0  0  0  0
  -25.1607  -29.0278   23.4453 C   0  0  0  0  0  0  0  0  0  0  0  0
  -18.0043  -29.9637   23.3039 C   0  0  0  0  0  0  0  0  0  0  0  0
  -29.6810  -11.6038   18.9398 C   0  0  0  0  0  0  0  0  0  0  0  0
  -19.0196  -29.3941   22.3183 C   0  0  0  0  0  0  0  0  0  0  0  0
  -28.2969  -11.4927   19.5832 C   0  0  0  0  0  0  0  0  0  0  0  0
  -30.5293  -12.6876   19.6028 C   0  0  0  0  0  0  0  0  0  0  0  0
  -28.5102  -13.8980   20.3289 C   0  0  0  0  0  0  0  0  0  0  0  0
  -19.7981  -28.2284   22.9401 C   0  0  1  0  0  0  0  0  0  0  0  0
  -22.9644  -29.6059   24.5243 C   0  0  1  0  0  0  0  0  0  0  0  0
  -27.5959  -12.8637   19.6523 C   0  0  2  0  0  0  0  0  0  0  0  0
  -31.3431  -21.6552   19.2279 C   0  0  0  0  0  0  0  0  0  0  0  0
  -29.2259  -34.1460   24.0954 C   0  0  0  0  0  0  0  0  0  0  0  0
  -24.2619  -31.5698   20.5469 C   0  0  0  0  0  0  0  0  0  0  0  0
  -26.4490  -32.7868   20.6079 C   0  0  0  0  0  0  0  0  0  0  0  0
  -24.4387  -33.7828   21.6983 C   0  0  0  0  0  0  0  0  0  0  0  0
  -28.4083  -31.6588   26.8561 C   0  0  0  0  0  0  0  0  0  0  0  0
  -28.4727  -21.0428   19.2666 C   0  0  0  0  0  0  0  0  0  0  0  0
  -25.5660  -31.7868   22.7646 C   0  0  1  0  0  0  0  0  0  0  0  0
  -28.3307  -33.2324   24.9179 C   0  0  2  0  0  0  0  0  0  0  0  0
  -25.1763  -32.4558   21.4163 C   0  0  0  0  0  0  0  0  0  0  0  0
  -26.0670  -11.8629   21.3082 N   0  0  0  0  0  0  0  0  0  0  0  0
  -26.2427  -12.7696   20.3319 N   0  0  0  0  0  0  0  0  0  0  0  0
  -24.2106  -30.0560   23.9009 N   0  0  0  0  0  0  0  0  0  0  0  0
  -29.8028  -13.9589   19.6286 N   0  0  0  0  0  0  0  0  0  0  0  0
  -25.1365  -14.4763   19.1178 N   0  0  0  0  0  0  0  0  0  0  0  0
  -21.9584  -12.9952   21.9642 N   0  0  0  0  0  0  0  0  0  0  0  0
  -29.5717  -16.2396   19.0743 N   0  0  0  0  0  0  0  0  0  0  0  0
  -28.3757  -21.6221   20.5857 N   0  0  0  0  0  0  0  0  0  0  0  0
  -20.8166  -28.7242   23.8407 N   0  0  0  0  0  0  0  0  0  0  0  0
  -26.4096  -32.6141   23.6203 N   0  0  0  0  0  0  0  0  0  0  0  0
  -29.1655  -32.5695   25.9593 N   0  3  0  0  0  0  0  0  0  0  0  0
  -22.3979  -14.4815   20.2741 O   0  0  0  0  0  0  0  0  0  0  0  0
  -26.6656  -23.1138   20.0928 O   0  0  0  0  0  0  0  0  0  0  0  0
  -22.4843  -29.1195   22.2643 O   0  0  0  0  0  0  0  0  0  0  0  0
  -23.5819  -32.3005   23.9587 O   0  0  0  0  0  0  0  0  0  0  0  0
  -28.1730  -31.1152   23.7646 O   0  0  0  0  0  0  0  0  0  0  0  0
  -31.4652  -15.0526   18.4521 O   0  0  0  0  0  0  0  0  0  0  0  0
  -22.5481   -8.9397   25.7378 O   0  0  0  0  0  0  0  0  0  0  0  0
  -26.7910  -24.4550   24.0532 O   0  0  0  0  0  0  0  0  0  1  0  0
  -23.5005   -3.5097   25.6273 F   0  0  0  0  0  0  0  0  0  0  0  0
  -20.4601   -7.1369   25.5564 F   0  0  0  0  0  0  0  0  0  0  0  0
  1  2  1  0  0  0  0
  1  5  2  0  0  0  0
  2  6  2  0  0  0  0
  3 10  2  0  0  0  0
  3 18  1  0  0  0  0
  4 11  1  0  0  0  0
  4 18  2  0  0  0  0
  5 20  1  0  0  0  0
  6 22  1  0  0  0  0
  7 12  2  0  0  0  0
  7 21  1  0  0  0  0
  8  9  2  0  0  0  0
  8 24  1  0  0  0  0
  9 26  1  0  0  0  0
 10 27  1  0  0  0  0
 11 27  2  0  0  0  0
 12 28  1  0  0  0  0
 13 14  2  0  0  0  0
 13 29  1  0  0  0  0
 14 30  1  0  0  0  0
 15 23  1  0  0  0  0
 15 28  2  0  0  0  0
 16 25  1  0  0  0  0
 16 26  2  0  0  0  0
 17 30  2  0  0  0  0
 17 31  1  0  0  0  0
 18 32  1  0  0  0  0
 19 32  1  0  0  0  0
 19 33  2  0  0  0  0
 19 36  1  0  0  0  0
 20 22  2  0  0  0  0
 20 42  1  0  0  0  0
 21 23  2  0  0  0  0
 21 43  1  0  0  0  0
 22 51  1  0  0  0  0
 23 44  1  0  0  0  0
 24 25  2  0  0  0  0
 24 54  1  0  0  0  0
 25 60  1  0  0  0  0
 26 70  1  0  0  0  0
 27 81  1  0  0  0  0
 28 82  1  0  0  0  0
 29 31  2  0  0  0  0
 29 81  1  0  0  0  0
 30 83  1  0  0  0  0
 31 84  1  0  0  0  0
 32 64  2  0  0  0  0
 33 65  1  0  0  0  0
 33 68  1  0  0  0  0
 34 35  2  0  0  0  0
 34 37  1  0  0  0  0
 35 82  1  0  0  0  0
 36 69  1  0  0  0  0
 36 75  2  0  0  0  0
 37 71  1  0  0  0  0
 37 76  2  0  0  0  0
 38 52  1  0  0  0  0
 38 72  1  0  0  0  0
 38 77  2  0  0  0  0
 39 61  1  0  0  0  0
 39 66  1  0  0  0  0
 39 78  2  0  0  0  0
 40 62  1  0  0  0  0
 40 73  1  0  0  0  0
 40 79  2  0  0  0  0
 41 67  1  0  0  0  0
 41 70  1  0  0  0  0
 41 80  2  0  0  0  0
 42 45  1  0  0  0  0
 43 52  1  0  0  0  0
 44 66  1  0  0  0  0
 45 47  1  0  0  0  0
 46 48  1  0  0  0  0
 46 49  1  0  0  0  0
 47 51  1  0  0  0  0
 48 53  1  0  0  0  0
 49 67  1  0  0  0  0
 50 53  1  0  0  0  0
 50 67  1  0  0  0  0
 51 72  1  0  0  0  0
 52 66  1  0  0  0  0
 53 65  1  0  0  0  0
 55 62  1  0  0  0  0
 56 63  1  0  0  0  0
 57 63  1  0  0  0  0
 58 63  1  0  0  0  0
 59 74  1  0  0  0  0
 60 71  1  0  0  0  0
 61 63  1  0  0  0  0
 61 73  1  0  0  0  0
 62 74  1  0  0  0  0
 64 65  1  0  0  0  0
M  CHG  1  74   1
M  ISO  4  35 101  41 100  70 100  82 101
M  END
> <Batch ID>
0058

> <Smiles>
CNC(C)C(=O)NC(C(=O)N1Cc2cc([101O:1][101CH:1]=CC(=O)NCc3cc([100NH:0][100C:0](=O)N4CCCC(n5nc(-c6ccc(Oc7ccc(F)cc7F)cc6)c(C(N)=O)c5N)C4)ccc3C)ccc2CC1C(=O)NC1CCCc2ccccc21)C(C)(C)C

> <Shape>
0.263

> <Color>
0.125

> <Negative vol penalty>
0.000

$$$$

  -OEChem-04042322583D

 87 95  0     1  0  0  0  0  0999 V2000
  -23.6440  -10.4537   18.6890 C   0  0  0  0  0  0  0  0  0  0  0  0
  -22.8493  -11.5910   18.5871 C   0  0  0  0  0  0  0  0  0  0  0  0
  -18.0956  -28.4060   22.5580 C   0  0  0  0  0  0  0  0  0  0  0  0
  -29.7651  -29.4227   18.5616 C   0  0  0  0  0  0  0  0  0  0  0  0
  -29.8384  -27.7503   20.3037 C   0  0  0  0  0  0  0  0  0  0  0  0
  -17.8985  -27.0874   22.1483 C   0  0  0  0  0  0  0  0  0  0  0  0
  -24.7575  -10.4557   19.5280 C   0  0  0  0  0  0  0  0  0  0  0  0
  -23.1671  -12.7307   19.3250 C   0  0  0  0  0  0  0  0  0  0  0  0
  -22.3934  -18.5594   17.6125 C   0  0  0  0  0  0  0  0  0  0  0  0
  -19.3796  -28.8567   22.8644 C   0  0  0  0  0  0  0  0  0  0  0  0
  -31.1554  -29.3771   18.4593 C   0  0  0  0  0  0  0  0  0  0  0  0
  -31.2287  -27.7047   20.2013 C   0  0  0  0  0  0  0  0  0  0  0  0
  -21.3991  -19.4955   17.8933 C   0  0  0  0  0  0  0  0  0  0  0  0
  -34.7704  -26.8849   20.1481 C   0  0  0  0  0  0  0  0  0  0  0  0
  -35.3792  -25.6301   20.1296 C   0  0  0  0  0  0  0  0  0  0  0  0
  -22.7535  -20.3899   19.6779 C   0  0  0  0  0  0  0  0  0  0  0  0
  -34.1412  -25.0588   18.1351 C   0  0  0  0  0  0  0  0  0  0  0  0
  -29.1065  -28.6094   19.4839 C   0  0  0  0  0  0  0  0  0  0  0  0
  -18.9854  -26.2193   22.0450 C   0  0  0  0  0  0  0  0  0  0  0  0
  -26.7392  -27.8754   18.8801 C   0  0  0  0  0  0  0  0  0  0  0  0
  -25.0947  -11.5992   20.2692 C   0  0  0  0  0  0  0  0  0  0  0  0
  -23.5726  -18.5245   18.3706 C   0  0  0  0  0  0  0  0  0  0  0  0
  -24.2855  -12.7475   20.1757 C   0  0  0  0  0  0  0  0  0  0  0  0
  -23.7623  -19.4541   19.4031 C   0  0  0  0  0  0  0  0  0  0  0  0
  -20.2695  -26.6699   22.3515 C   0  0  0  0  0  0  0  0  0  0  0  0
  -20.4666  -27.9886   22.7612 C   0  0  0  0  0  0  0  0  0  0  0  0
  -31.8872  -28.5181   19.2791 C   0  0  0  0  0  0  0  0  0  0  0  0
  -21.5778  -20.4090   18.9280 C   0  0  0  0  0  0  0  0  0  0  0  0
  -33.8469  -27.2267   19.1601 C   0  0  0  0  0  0  0  0  0  0  0  0
  -35.0646  -24.7170   19.1231 C   0  0  0  0  0  0  0  0  0  0  0  0
  -33.5324  -26.3137   18.1536 C   0  0  0  0  0  0  0  0  0  0  0  0
  -27.6704  -28.6565   19.5904 C   0  0  0  0  0  0  0  0  0  0  0  0
  -25.5155  -28.2983   19.3387 C   0  0  0  0  0  0  0  0  0  0  0  0
  -20.2540  -22.2029   18.2206 C   0  0  0  0  0  0  0  0  0  1  0  0
  -17.0795  -23.1200   19.4583 C   0  0  0  0  0  0  0  0  0  0  0  0
  -18.7430  -24.8212   21.6050 C   0  0  0  0  0  0  0  0  0  0  0  0
  -26.9605  -26.8585   17.8939 C   0  0  0  0  0  0  0  0  0  0  0  0
  -19.3164  -23.1555   18.3526 C   0  0  0  0  0  0  0  0  0  0  0  0
  -24.9612  -16.3792   20.2609 C   0  0  0  0  0  0  0  0  0  0  0  0
  -27.3677  -18.5538   20.3082 C   0  0  0  0  0  0  0  0  0  0  0  0
  -28.3438  -21.8033   19.9408 C   0  0  0  0  0  0  0  0  0  0  0  0
  -22.1088  -29.7519   23.4961 C   0  0  0  0  0  0  0  0  0  0  0  0
  -26.2808  -11.5380   21.1988 C   0  0  0  0  0  0  0  0  0  0  0  0
  -24.6471  -17.5259   18.0378 C   0  0  0  0  0  0  0  0  0  0  0  0
  -25.0187  -19.4715   20.2335 C   0  0  0  0  0  0  0  0  0  0  0  0
  -26.7639  -12.9104   21.6608 C   0  0  0  0  0  0  0  0  0  0  0  0
  -24.2696  -32.2742   22.2131 C   0  0  0  0  0  0  0  0  0  0  0  0
  -25.5843  -13.7709   22.1022 C   0  0  0  0  0  0  0  0  0  0  0  0
  -25.2704  -31.4936   21.3579 C   0  0  0  0  0  0  0  0  0  0  0  0
  -23.8734  -31.5013   23.4698 C   0  0  0  0  0  0  0  0  0  0  0  0
  -24.3903  -29.3548   22.3769 C   0  0  0  0  0  0  0  0  0  0  0  0
  -24.6119  -14.0115   20.9412 C   0  0  1  0  0  0  0  0  0  0  0  0
  -25.5871  -17.2478   19.2067 C   0  0  1  0  0  0  0  0  0  0  0  0
  -24.7696  -30.0652   21.0672 C   0  0  2  0  0  0  0  0  0  0  0  0
  -21.4352  -25.7370   22.2406 C   0  0  0  0  0  0  0  0  0  0  0  0
  -18.9667  -24.0991   17.2311 C   0  0  0  0  0  0  0  0  0  0  0  0
  -30.3684  -23.2795   20.0786 C   0  0  0  0  0  0  0  0  0  0  0  0
  -27.2306  -18.4534   23.3547 C   0  0  0  0  0  0  0  0  0  0  0  0
  -28.5536  -20.5780   23.4147 C   0  0  0  0  0  0  0  0  0  0  0  0
  -29.5478  -18.5196   22.4163 C   0  0  0  0  0  0  0  0  0  0  0  0
  -28.1140  -22.5807   17.0944 C   0  0  0  0  0  0  0  0  0  0  0  0
  -18.5710  -23.2975   19.6544 C   0  0  1  0  0  0  0  0  0  0  0  0
  -27.7182  -19.7419   21.1711 C   0  0  1  0  0  0  0  0  0  0  0  0
  -29.4932  -22.4289   19.1713 C   0  0  2  0  0  0  0  0  0  0  0  0
  -28.2380  -19.3219   22.5750 C   0  0  0  0  0  0  0  0  0  0  0  0
  -27.0882  -29.5109   20.4360 N   0  0  0  0  0  0  0  0  0  0  0  0
  -25.7780  -29.2694   20.2598 N   0  0  0  0  0  0  0  0  0  0  0  0
  -26.0373  -18.4713   19.8734 N   0  0  0  0  0  0  0  0  0  0  0  0
  -23.4052  -30.1594   23.1166 N   0  0  0  0  0  0  0  0  0  0  0  0
  -24.2514  -27.9306   19.0399 N   0  0  0  0  0  0  0  0  0  0  0  0
  -28.2803  -26.5478   17.5390 N   0  0  0  0  0  0  0  0  0  0  0  0
  -21.7621  -28.4679   23.0768 N   0  0  0  0  0  0  0  0  0  0  0  0
  -18.8064  -24.5915   20.2359 N   0  0  0  0  0  0  0  0  0  0  0  0
  -25.1320  -15.0246   20.0481 N   0  0  0  0  0  0  0  0  0  0  0  0
  -28.6625  -20.5425   20.3993 N   0  0  0  0  0  0  0  0  0  0  0  0
  -28.9726  -23.2937   18.0749 N   0  3  0  0  0  0  0  0  0  0  0  0
  -16.5669  -22.0715   19.0748 O   0  0  0  0  0  0  0  0  0  0  0  0
  -18.4850  -23.9637   22.4457 O   0  0  0  0  0  0  0  0  0  0  0  0
  -26.0153  -26.2550   17.3316 O   0  0  0  0  0  0  0  0  0  0  0  0
  -24.3686  -16.8995   21.1989 O   0  0  0  0  0  0  0  0  0  0  0  0
  -28.2438  -17.7331   20.0243 O   0  0  0  0  0  0  0  0  0  0  0  0
  -27.2720  -22.3772   20.1205 O   0  0  0  0  0  0  0  0  0  0  0  0
  -21.3512  -30.4979   24.1218 O   0  0  0  0  0  0  0  0  0  0  0  0
  -33.2439  -28.4732   19.1794 O   0  0  0  0  0  0  0  0  0  0  0  0
  -20.6085  -21.3233   19.2046 O   0  0  0  0  0  0  0  0  0  1  0  0
  -35.6505  -23.5126   19.1046 F   0  0  0  0  0  0  0  0  0  0  0  0
  -32.6469  -26.6367   17.2010 F   0  0  0  0  0  0  0  0  0  0  0  0
  1  2  1  0  0  0  0
  1  7  2  0  0  0  0
  2  8  2  0  0  0  0
  3  6  2  0  0  0  0
  3 10  1  0  0  0  0
  4 11  2  0  0  0  0
  4 18  1  0  0  0  0
  5 12  1  0  0  0  0
  5 18  2  0  0  0  0
  6 19  1  0  0  0  0
  7 21  1  0  0  0  0
  8 23  1  0  0  0  0
  9 13  2  0  0  0  0
  9 22  1  0  0  0  0
 10 26  2  0  0  0  0
 11 27  1  0  0  0  0
 12 27  2  0  0  0  0
 13 28  1  0  0  0  0
 14 15  2  0  0  0  0
 14 29  1  0  0  0  0
 15 30  1  0  0  0  0
 16 24  1  0  0  0  0
 16 28  2  0  0  0  0
 17 30  2  0  0  0  0
 17 31  1  0  0  0  0
 18 32  1  0  0  0  0
 19 25  2  0  0  0  0
 19 36  1  0  0  0  0
 20 32  1  0  0  0  0
 20 33  2  0  0  0  0
 20 37  1  0  0  0  0
 21 23  2  0  0  0  0
 21 43  1  0  0  0  0
 22 24  2  0  0  0  0
 22 44  1  0  0  0  0
 23 52  1  0  0  0  0
 24 45  1  0  0  0  0
 25 26  1  0  0  0  0
 25 55  1  0  0  0  0
 26 72  1  0  0  0  0
 27 84  1  0  0  0  0
 28 85  1  0  0  0  0
 29 31  2  0  0  0  0
 29 84  1  0  0  0  0
 30 86  1  0  0  0  0
 31 87  1  0  0  0  0
 32 66  2  0  0  0  0
 33 67  1  0  0  0  0
 33 70  1  0  0  0  0
 34 38  2  0  0  0  0
 34 85  1  0  0  0  0
 35 62  1  0  0  0  0
 35 77  2  0  0  0  0
 36 73  1  0  0  0  0
 36 78  2  0  0  0  0
 37 71  1  0  0  0  0
 37 79  2  0  0  0  0
 38 56  1  0  0  0  0
 38 62  1  0  0  0  0
 39 53  1  0  0  0  0
 39 74  1  0  0  0  0
 39 80  2  0  0  0  0
 40 63  1  0  0  0  0
 40 68  1  0  0  0  0
 40 81  2  0  0  0  0
 41 64  1  0  0  0  0
 41 75  1  0  0  0  0
 41 82  2  0  0  0  0
 42 69  1  0  0  0  0
 42 72  1  0  0  0  0
 42 83  2  0  0  0  0
 43 46  1  0  0  0  0
 44 53  1  0  0  0  0
 45 68  1  0  0  0  0
 46 48  1  0  0  0  0
 47 49  1  0  0  0  0
 47 50  1  0  0  0  0
 48 52  1  0  0  0  0
 49 54  1  0  0  0  0
 50 69  1  0  0  0  0
 51 54  1  0  0  0  0
 51 69  1  0  0  0  0
 52 74  1  0  0  0  0
 53 68  1  0  0  0  0
 54 67  1  0  0  0  0
 57 64  1  0  0  0  0
 58 65  1  0  0  0  0
 59 65  1  0  0  0  0
 60 65  1  0  0  0  0
 61 76  1  0  0  0  0
 62 73  1  0  0  0  0
 63 65  1  0  0  0  0
 63 75  1  0  0  0  0
 64 76  1  0  0  0  0
 66 67  1  0  0  0  0
M  CHG  1  76   1
M  ISO  4  34 101  42 100  72 100  85 101
M  END
> <Batch ID>
0058

> <Smiles>
CNC(C)C(=O)NC(C(=O)N1Cc2cc([101O:1][101CH:1]=C(C)C(C=O)NC(=O)c3cccc([100NH:0][100C:0](=O)N4CCCC(n5nc(-c6ccc(Oc7ccc(F)cc7F)cc6)c(C(N)=O)c5N)C4)c3C)ccc2CC1C(=O)NC1CCCc2ccccc21)C(C)(C)C

> <Shape>
0.227

> <Color>
0.064

> <Negative vol penalty>
0.000

$$$$

  -OEChem-04042322583D

 85 93  0     1  0  0  0  0  0999 V2000
  -28.3972  -37.1058   21.6698 C   0  0  0  0  0  0  0  0  0  0  0  0
  -28.8234  -35.8140   21.3783 C   0  0  0  0  0  0  0  0  0  0  0  0
  -24.3322   -9.7903   22.1064 C   0  0  0  0  0  0  0  0  0  0  0  0
  -23.5893  -10.5400   19.9331 C   0  0  0  0  0  0  0  0  0  0  0  0
  -27.3236  -37.3055   22.5365 C   0  0  0  0  0  0  0  0  0  0  0  0
  -28.1767  -34.7211   21.9543 C   0  0  0  0  0  0  0  0  0  0  0  0
  -27.2199  -29.2406   19.3941 C   0  0  0  0  0  0  0  0  0  0  0  0
  -26.5467  -19.4622   15.8423 C   0  0  0  0  0  0  0  0  0  0  0  0
  -23.0226   -9.4380   22.4326 C   0  0  0  0  0  0  0  0  0  0  0  0
  -22.2797  -10.1876   20.2592 C   0  0  0  0  0  0  0  0  0  0  0  0
  -27.8921  -28.0240   19.5035 C   0  0  0  0  0  0  0  0  0  0  0  0
  -19.9315   -8.0072   23.7028 C   0  0  0  0  0  0  0  0  0  0  0  0
  -19.7264   -6.7728   24.3191 C   0  0  0  0  0  0  0  0  0  0  0  0
  -26.3297  -18.1247   15.5115 C   0  0  0  0  0  0  0  0  0  0  0  0
  -26.3159  -27.3113   21.1848 C   0  0  0  0  0  0  0  0  0  0  0  0
  -27.7527  -18.7774   17.8206 C   0  0  0  0  0  0  0  0  0  0  0  0
  -20.6874   -5.6568   22.4039 C   0  0  0  0  0  0  0  0  0  0  0  0
  -24.6155  -10.3413   20.8567 C   0  0  0  0  0  0  0  0  0  0  0  0
  -26.9401   -9.8928   19.9065 C   0  0  0  0  0  0  0  0  0  0  0  0
  -26.6573  -36.2142   23.1159 C   0  0  0  0  0  0  0  0  0  0  0  0
  -26.0953  -29.5064   20.1885 C   0  0  0  0  0  0  0  0  0  0  0  0
  -27.0940  -34.9064   22.8307 C   0  0  0  0  0  0  0  0  0  0  0  0
  -25.6298  -28.5310   21.0818 C   0  0  0  0  0  0  0  0  0  0  0  0
  -27.2582  -19.7886   16.9968 C   0  0  0  0  0  0  0  0  0  0  0  0
  -27.5357  -17.4398   17.4898 C   0  0  0  0  0  0  0  0  0  0  0  0
  -21.9963   -9.6366   21.5090 C   0  0  0  0  0  0  0  0  0  0  0  0
  -27.4418  -27.0602   20.4010 C   0  0  0  0  0  0  0  0  0  0  0  0
  -20.5146   -8.0664   22.4370 C   0  0  0  0  0  0  0  0  0  0  0  0
  -20.1043   -5.5977   23.6697 C   0  0  0  0  0  0  0  0  0  0  0  0
  -20.8925   -6.8912   21.7876 C   0  0  0  0  0  0  0  0  0  0  0  0
  -26.8242  -17.1134   16.3353 C   0  0  0  0  0  0  0  0  0  0  0  0
  -25.9681  -10.7060   20.5194 C   0  0  0  0  0  0  0  0  0  0  0  0
  -28.0476  -10.6988   19.8050 C   0  0  0  0  0  0  0  0  0  0  0  0
  -28.1751  -23.1406   18.4259 C   0  0  0  0  0  0  0  0  0  0  0  0
  -26.8499   -8.5308   19.4680 C   0  0  0  0  0  0  0  0  0  0  0  0
  -28.7663  -23.8833   19.3758 C   0  0  0  0  0  0  0  0  0  0  0  0
  -28.1626  -21.6436   18.4354 C   0  0  0  0  0  0  0  0  0  0  0  0
  -25.3793  -31.6601   22.4139 C   0  0  0  0  0  0  0  0  0  0  0  0
  -22.4393  -30.3020   22.2277 C   0  0  0  0  0  0  0  0  0  0  0  0
  -20.5547  -27.5714   21.4284 C   0  0  0  0  0  0  0  0  0  0  0  0
  -28.7732  -16.6234   19.5266 C   0  0  0  0  0  0  0  0  0  0  0  0
  -25.5319  -36.4814   24.0839 C   0  0  0  0  0  0  0  0  0  0  0  0
  -25.3656  -30.8131   20.0393 C   0  0  0  0  0  0  0  0  0  0  0  0
  -24.4152  -28.7592   21.9427 C   0  0  0  0  0  0  0  0  0  0  0  0
  -24.6618  -35.2577   24.3591 C   0  0  0  0  0  0  0  0  0  0  0  0
  -30.1817  -14.4167   21.9398 C   0  0  0  0  0  0  0  0  0  0  0  0
  -25.5315  -34.0347   24.6320 C   0  0  0  0  0  0  0  0  0  0  0  0
  -29.3535  -13.1386   21.7894 C   0  0  0  0  0  0  0  0  0  0  0  0
  -29.3290  -15.6704   21.7532 C   0  0  0  0  0  0  0  0  0  0  0  0
  -27.7177  -14.4314   20.3612 C   0  0  0  0  0  0  0  0  0  0  0  0
  -26.4023  -33.6946   23.4164 C   0  0  1  0  0  0  0  0  0  0  0  0
  -24.5367  -31.1781   21.2670 C   0  0  1  0  0  0  0  0  0  0  0  0
  -28.5462  -13.1415   20.4765 C   0  0  2  0  0  0  0  0  0  0  0  0
  -18.1841  -26.7481   21.4197 C   0  0  0  0  0  0  0  0  0  0  0  0
  -22.5680  -29.9068   25.2505 C   0  0  0  0  0  0  0  0  0  0  0  0
  -20.6781  -28.2772   25.0478 C   0  0  0  0  0  0  0  0  0  0  0  0
  -20.3437  -30.6603   24.3906 C   0  0  0  0  0  0  0  0  0  0  0  0
  -20.5756  -27.1900   18.4936 C   0  0  0  0  0  0  0  0  0  0  0  0
  -28.7537  -25.3830   19.3419 C   0  0  0  0  0  0  0  0  0  1  0  0
  -21.7459  -29.1544   22.9215 C   0  0  1  0  0  0  0  0  0  0  0  0
  -19.2803  -27.4299   20.6158 C   0  0  2  0  0  0  0  0  0  0  0  0
  -21.3580  -29.4958   24.3879 C   0  0  0  0  0  0  0  0  0  0  0  0
  -26.4186  -11.9343   20.7886 N   0  0  0  0  0  0  0  0  0  0  0  0
  -27.6859  -11.8989   20.3427 N   0  0  0  0  0  0  0  0  0  0  0  0
  -23.7396  -30.0552   21.7650 N   0  0  0  0  0  0  0  0  0  0  0  0
  -28.5965  -15.6047   20.4868 N   0  0  0  0  0  0  0  0  0  0  0  0
  -29.2859  -10.4909   19.3092 N   0  0  0  0  0  0  0  0  0  0  0  0
  -25.6383   -7.8497   19.6480 N   0  0  0  0  0  0  0  0  0  0  0  0
  -27.4798  -21.1474   17.3313 N   0  0  0  0  0  0  0  0  0  0  0  0
  -28.0503  -16.4372   18.3487 N   0  0  0  0  0  0  0  0  0  0  0  0
  -25.6167  -33.0213   22.4045 N   0  0  0  0  0  0  0  0  0  0  0  0
  -20.6160  -28.7880   22.0744 N   0  0  0  0  0  0  0  0  0  0  0  0
  -19.5350  -26.6226   19.3893 N   0  3  0  0  0  0  0  0  0  0  0  0
  -27.8203   -7.9301   18.9472 O   0  0  0  0  0  0  0  0  0  0  0  0
  -28.7021  -21.0016   19.3280 O   0  0  0  0  0  0  0  0  0  0  0  0
  -25.7828  -30.8567   23.2466 O   0  0  0  0  0  0  0  0  0  0  0  0
  -21.8464  -31.3754   22.0947 O   0  0  0  0  0  0  0  0  0  0  0  0
  -21.4084  -26.6892   21.4875 O   0  0  0  0  0  0  0  0  0  0  0  0
  -29.5324  -17.5758   19.7231 O   0  0  0  0  0  0  0  0  0  0  0  0
  -29.4099  -23.3193   20.4594 O   0  0  0  0  0  0  0  0  0  0  0  0
  -20.7183   -9.2927   21.8268 O   0  0  0  0  0  0  0  0  0  0  0  0
  -28.0964  -25.8722   20.5102 O   0  0  0  0  0  0  0  0  0  1  0  0
  -19.9087   -4.4125   24.2623 F   0  0  0  0  0  0  0  0  0  0  0  0
  -21.4542   -6.9418   20.5719 F   0  0  0  0  0  0  0  0  0  0  0  0
  -26.5296  -15.4706   15.8893 Cl  0  0  0  0  0  0  0  0  0  0  0  0
  1  2  1  0  0  0  0
  1  5  2  0  0  0  0
  2  6  2  0  0  0  0
  3  9  2  0  0  0  0
  3 18  1  0  0  0  0
  4 10  1  0  0  0  0
  4 18  2  0  0  0  0
  5 20  1  0  0  0  0
  6 22  1  0  0  0  0
  7 11  2  0  0  0  0
  7 21  1  0  0  0  0
  8 14  2  0  0  0  0
  8 24  1  0  0  0  0
  9 26  1  0  0  0  0
 10 26  2  0  0  0  0
 11 27  1  0  0  0  0
 12 13  2  0  0  0  0
 12 28  1  0  0  0  0
 13 29  1  0  0  0  0
 14 31  1  0  0  0  0
 15 23  1  0  0  0  0
 15 27  2  0  0  0  0
 16 24  2  0  0  0  0
 16 25  1  0  0  0  0
 17 29  2  0  0  0  0
 17 30  1  0  0  0  0
 18 32  1  0  0  0  0
 19 32  1  0  0  0  0
 19 33  2  0  0  0  0
 19 35  1  0  0  0  0
 20 22  2  0  0  0  0
 20 42  1  0  0  0  0
 21 23  2  0  0  0  0
 21 43  1  0  0  0  0
 22 51  1  0  0  0  0
 23 44  1  0  0  0  0
 24 69  1  0  0  0  0
 25 31  2  0  0  0  0
 25 70  1  0  0  0  0
 26 81  1  0  0  0  0
 27 82  1  0  0  0  0
 28 30  2  0  0  0  0
 28 81  1  0  0  0  0
 29 83  1  0  0  0  0
 30 84  1  0  0  0  0
 31 85  1  0  0  0  0
 32 63  2  0  0  0  0
 33 64  1  0  0  0  0
 33 67  1  0  0  0  0
 34 36  2  0  0  0  0
 34 37  1  0  0  0  0
 35 68  1  0  0  0  0
 35 74  2  0  0  0  0
 36 59  1  0  0  0  0
 36 80  1  0  0  0  0
 37 69  1  0  0  0  0
 37 75  2  0  0  0  0
 38 52  1  0  0  0  0
 38 71  1  0  0  0  0
 38 76  2  0  0  0  0
 39 60  1  0  0  0  0
 39 65  1  0  0  0  0
 39 77  2  0  0  0  0
 40 61  1  0  0  0  0
 40 72  1  0  0  0  0
 40 78  2  0  0  0  0
 41 66  1  0  0  0  0
 41 70  1  0  0  0  0
 41 79  2  0  0  0  0
 42 45  1  0  0  0  0
 43 52  1  0  0  0  0
 44 65  1  0  0  0  0
 45 47  1  0  0  0  0
 46 48  1  0  0  0  0
 46 49  1  0  0  0  0
 47 51  1  0  0  0  0
 48 53  1  0  0  0  0
 49 66  1  0  0  0  0
 50 53  1  0  0  0  0
 50 66  1  0  0  0  0
 51 71  1  0  0  0  0
 52 65  1  0  0  0  0
 53 64  1  0  0  0  0
 54 61  1  0  0  0  0
 55 62  1  0  0  0  0
 56 62  1  0  0  0  0
 57 62  1  0  0  0  0
 58 73  1  0  0  0  0
 59 82  1  0  0  0  0
 60 62  1  0  0  0  0
 60 72  1  0  0  0  0
 61 73  1  0  0  0  0
 63 64  1  0  0  0  0
M  CHG  1  73   1
M  ISO  4  41 100  59 101  70 100  82 101
M  END
> <Batch ID>
0058

> <Smiles>
CNC(C)C(=O)NC(C(=O)N1Cc2cc([101O:1][101CH2:1]C(=O)CC(=O)Nc3ccc(Cl)c([100NH:0][100C:0](=O)N4CCCC(n5nc(-c6ccc(Oc7ccc(F)cc7F)cc6)c(C(N)=O)c5N)C4)c3)ccc2CC1C(=O)NC1CCCc2ccccc21)C(C)(C)C

> <Shape>
0.307

> <Color>
0.080

> <Negative vol penalty>
0.000

$$$$

  -OEChem-04042322583D

 88 97  0     1  0  0  0  0  0999 V2000
  -28.4322  -32.7015   26.7546 C   0  0  0  0  0  0  0  0  0  0  0  0
  -28.4841  -31.5640   25.9554 C   0  0  0  0  0  0  0  0  0  0  0  0
  -32.4859  -18.9782   18.7136 C   0  0  0  0  0  0  0  0  0  0  0  0
  -23.3346  -15.2859   24.1734 C   0  0  0  0  0  0  0  0  0  0  0  0
  -24.4453  -13.3589   25.1168 C   0  0  0  0  0  0  0  0  0  0  0  0
  -27.1990  -33.2386   27.1216 C   0  0  0  0  0  0  0  0  0  0  0  0
  -27.3026  -30.9623   25.5235 C   0  0  0  0  0  0  0  0  0  0  0  0
  -27.4420  -29.7062   20.6196 C   0  0  0  0  0  0  0  0  0  0  0  0
  -31.7210  -20.1446   18.7164 C   0  0  0  0  0  0  0  0  0  0  0  0
  -31.9616  -17.7991   19.2432 C   0  0  0  0  0  0  0  0  0  0  0  0
  -22.7470  -15.5526   25.4100 C   0  0  0  0  0  0  0  0  0  0  0  0
  -23.8577  -13.6256   26.3534 C   0  0  0  0  0  0  0  0  0  0  0  0
  -28.1461  -28.5524   20.2776 C   0  0  0  0  0  0  0  0  0  0  0  0
  -23.6564  -16.9542   28.3496 C   0  0  0  0  0  0  0  0  0  0  0  0
  -23.6664  -18.2739   28.8009 C   0  0  0  0  0  0  0  0  0  0  0  0
  -26.0702  -27.3303   20.1512 C   0  0  0  0  0  0  0  0  0  0  0  0
  -21.2511  -18.2715   28.8617 C   0  0  0  0  0  0  0  0  0  0  0  0
  -24.1838  -14.1890   24.0267 C   0  0  0  0  0  0  0  0  0  0  0  0
  -24.1310  -13.6410   21.5359 C   0  0  0  0  0  0  0  0  0  0  0  0
  -26.0019  -32.6488   26.6860 C   0  0  0  0  0  0  0  0  0  0  0  0
  -26.0453  -29.6779   20.7408 C   0  0  0  0  0  0  0  0  0  0  0  0
  -26.0522  -31.4912   25.8861 C   0  0  0  0  0  0  0  0  0  0  0  0
  -25.3505  -28.4856   20.4923 C   0  0  0  0  0  0  0  0  0  0  0  0
  -29.9076  -18.9529   19.7787 C   0  0  0  0  0  0  0  0  0  0  0  0
  -30.4319  -20.1320   19.2490 C   0  0  0  0  0  0  0  0  0  0  0  0
  -30.6725  -17.7864   19.7758 C   0  0  0  0  0  0  0  0  0  0  0  0
  -23.0085  -14.7225   26.5000 C   0  0  0  0  0  0  0  0  0  0  0  0
  -27.4605  -27.3636   20.0462 C   0  0  0  0  0  0  0  0  0  0  0  0
  -22.4437  -16.2930   28.1542 C   0  0  0  0  0  0  0  0  0  0  0  0
  -22.4638  -18.9326   29.0570 C   0  0  0  0  0  0  0  0  0  0  0  0
  -21.2411  -16.9517   28.4103 C   0  0  0  0  0  0  0  0  0  0  0  0
  -24.7907  -13.9127   22.7495 C   0  0  0  0  0  0  0  0  0  0  0  0
  -25.1450  -13.4494   20.6294 C   0  0  0  0  0  0  0  0  0  0  0  0
  -28.4277  -21.4240   18.5652 C   0  0  0  0  0  0  0  0  0  0  0  0
  -22.7273  -13.5685   21.2532 C   0  0  0  0  0  0  0  0  0  0  0  0
  -23.9881  -30.1982   23.1075 C   0  0  0  0  0  0  0  0  0  0  0  0
  -21.7877  -29.8526   20.7493 C   0  0  0  0  0  0  0  0  0  0  0  0
  -21.0040  -28.5778   17.6821 C   0  0  0  0  0  0  0  0  0  0  0  0
  -30.8065  -15.3435   20.3762 C   0  0  0  0  0  0  0  0  0  0  0  0
  -24.6925  -33.2379   27.1475 C   0  0  0  0  0  0  0  0  0  0  0  0
  -25.2983  -30.9374   21.0843 C   0  0  0  0  0  0  0  0  0  0  0  0
  -23.8496  -28.4074   20.5895 C   0  0  0  0  0  0  0  0  0  0  0  0
  -27.5522  -22.6245   18.8775 C   0  0  0  0  0  0  0  0  0  0  0  0
  -23.4901  -32.7583   26.3385 C   0  0  0  0  0  0  0  0  0  0  0  0
  -29.6890  -11.9630   20.3523 C   0  0  0  0  0  0  0  0  0  0  0  0
  -23.5397  -31.2448   26.1547 C   0  0  0  0  0  0  0  0  0  0  0  0
  -28.2441  -12.0553   20.8481 C   0  0  0  0  0  0  0  0  0  0  0  0
  -29.3370  -23.6582   20.2181 C   0  0  0  0  0  0  0  0  0  0  0  0
  -30.5976  -12.9645   21.0631 C   0  0  0  0  0  0  0  0  0  0  0  0
  -30.2997  -22.5633   19.7860 C   0  0  0  0  0  0  0  0  0  0  0  0
  -28.6870  -14.4492   21.5266 C   0  0  0  0  0  0  0  0  0  0  0  0
  -24.7927  -30.8243   25.3772 C   0  0  1  0  0  0  0  0  0  0  0  0
  -23.9205  -30.6706   21.6827 C   0  0  1  0  0  0  0  0  0  0  0  0
  -28.3226  -23.9129   19.1151 C   0  0  2  0  0  0  0  0  0  0  0  0
  -27.7210  -13.5041   20.7935 C   0  0  2  0  0  0  0  0  0  0  0  0
  -28.5168  -18.5936   21.8500 C   0  0  0  0  0  0  0  0  0  0  0  0
  -27.5856  -17.9908   19.5862 C   0  0  0  0  0  0  0  0  0  0  0  0
  -19.1170  -28.4282   16.0346 C   0  0  0  0  0  0  0  0  0  0  0  0
  -20.4409  -27.7372   22.4875 C   0  0  0  0  0  0  0  0  0  0  0  0
  -19.1842  -26.9727   20.4616 C   0  0  0  0  0  0  0  0  0  0  0  0
  -18.8634  -29.2910   21.3249 C   0  0  0  0  0  0  0  0  0  0  0  0
  -22.5532  -30.0036   15.6022 C   0  0  0  0  0  0  0  0  0  0  0  0
  -27.3792  -25.0528   19.4897 C   0  0  0  0  0  0  0  0  0  1  0  0
  -28.5239  -18.9395   20.3514 C   0  0  0  0  0  0  0  0  0  0  0  0
  -21.0255  -28.6902   20.1603 C   0  0  1  0  0  0  0  0  0  0  0  0
  -20.3488  -29.2085   16.4666 C   0  0  2  0  0  0  0  0  0  0  0  0
  -19.9069  -28.1734   21.1086 C   0  0  0  0  0  0  0  0  0  0  0  0
  -26.1207  -13.8958   22.6284 N   0  0  0  0  0  0  0  0  0  0  0  0
  -26.3051  -13.6112   21.3280 N   0  0  0  0  0  0  0  0  0  0  0  0
  -29.6572  -21.3547   19.2426 N   0  0  0  0  0  0  0  0  0  0  0  0
  -23.1646  -29.6641   20.9345 N   0  0  0  0  0  0  0  0  0  0  0  0
  -30.0409  -14.3157   20.9663 N   0  0  0  0  0  0  0  0  0  0  0  0
  -25.1484  -13.1598   19.3108 N   0  0  0  0  0  0  0  0  0  0  0  0
  -22.0820  -12.3315   21.3859 N   0  0  0  0  0  0  0  0  0  0  0  0
  -30.1610  -16.5778   20.3101 N   0  0  0  0  0  0  0  0  0  0  0  0
  -24.6198  -31.0803   23.9633 N   0  0  0  0  0  0  0  0  0  0  0  0
  -20.5452  -29.1356   18.8567 N   0  0  0  0  0  0  0  0  0  0  0  0
  -21.3052  -29.2472   15.3243 N   0  3  0  0  0  0  0  0  0  0  0  0
  -27.9853  -20.5687   17.7935 O   0  0  0  0  0  0  0  0  0  0  0  0
  -22.0682  -14.5676   20.8776 O   0  0  0  0  0  0  0  0  0  0  0  0
  -23.5018  -29.1144   23.4084 O   0  0  0  0  0  0  0  0  0  0  0  0
  -21.1848  -30.8921   21.0279 O   0  0  0  0  0  0  0  0  0  0  0  0
  -21.8366  -27.6776   17.5982 O   0  0  0  0  0  0  0  0  0  0  0  0
  -31.9402  -15.1370   19.9356 O   0  0  0  0  0  0  0  0  0  0  0  0
  -22.4355  -14.9825   27.7068 O   0  0  0  0  0  0  0  0  0  0  0  0
  -28.1453  -26.2358   19.7129 O   0  0  0  0  0  0  0  0  0  1  0  0
  -22.4736  -20.1994   29.4919 F   0  0  0  0  0  0  0  0  0  0  0  0
  -20.0731  -16.3214   28.2256 F   0  0  0  0  0  0  0  0  0  0  0  0
  1  2  1  0  0  0  0
  1  6  2  0  0  0  0
  2  7  2  0  0  0  0
  3  9  2  0  0  0  0
  3 10  1  0  0  0  0
  4 11  2  0  0  0  0
  4 18  1  0  0  0  0
  5 12  1  0  0  0  0
  5 18  2  0  0  0  0
  6 20  1  0  0  0  0
  7 22  1  0  0  0  0
  8 13  2  0  0  0  0
  8 21  1  0  0  0  0
  9 25  1  0  0  0  0
 10 26  2  0  0  0  0
 11 27  1  0  0  0  0
 12 27  2  0  0  0  0
 13 28  1  0  0  0  0
 14 15  2  0  0  0  0
 14 29  1  0  0  0  0
 15 30  1  0  0  0  0
 16 23  1  0  0  0  0
 16 28  2  0  0  0  0
 17 30  2  0  0  0  0
 17 31  1  0  0  0  0
 18 32  1  0  0  0  0
 19 32  1  0  0  0  0
 19 33  2  0  0  0  0
 19 35  1  0  0  0  0
 20 22  2  0  0  0  0
 20 40  1  0  0  0  0
 21 23  2  0  0  0  0
 21 41  1  0  0  0  0
 22 52  1  0  0  0  0
 23 42  1  0  0  0  0
 24 25  2  0  0  0  0
 24 26  1  0  0  0  0
 24 64  1  0  0  0  0
 25 70  1  0  0  0  0
 26 75  1  0  0  0  0
 27 85  1  0  0  0  0
 28 86  1  0  0  0  0
 29 31  2  0  0  0  0
 29 85  1  0  0  0  0
 30 87  1  0  0  0  0
 31 88  1  0  0  0  0
 32 68  2  0  0  0  0
 33 69  1  0  0  0  0
 33 73  1  0  0  0  0
 34 43  1  0  0  0  0
 34 70  1  0  0  0  0
 34 79  2  0  0  0  0
 35 74  1  0  0  0  0
 35 80  2  0  0  0  0
 36 53  1  0  0  0  0
 36 76  1  0  0  0  0
 36 81  2  0  0  0  0
 37 65  1  0  0  0  0
 37 71  1  0  0  0  0
 37 82  2  0  0  0  0
 38 66  1  0  0  0  0
 38 77  1  0  0  0  0
 38 83  2  0  0  0  0
 39 72  1  0  0  0  0
 39 75  1  0  0  0  0
 39 84  2  0  0  0  0
 40 44  1  0  0  0  0
 41 53  1  0  0  0  0
 42 71  1  0  0  0  0
 43 54  1  0  0  0  0
 44 46  1  0  0  0  0
 45 47  1  0  0  0  0
 45 49  1  0  0  0  0
 46 52  1  0  0  0  0
 47 55  1  0  0  0  0
 48 50  1  0  0  0  0
 48 54  1  0  0  0  0
 49 72  1  0  0  0  0
 50 70  1  0  0  0  0
 51 55  1  0  0  0  0
 51 72  1  0  0  0  0
 52 76  1  0  0  0  0
 53 71  1  0  0  0  0
 54 63  1  0  0  0  0
 55 69  1  0  0  0  0
 56 64  1  0  0  0  0
 57 64  1  0  0  0  0
 58 66  1  0  0  0  0
 59 67  1  0  0  0  0
 60 67  1  0  0  0  0
 61 67  1  0  0  0  0
 62 78  1  0  0  0  0
 63 86  1  0  0  0  0
 65 67  1  0  0  0  0
 65 77  1  0  0  0  0
 66 78  1  0  0  0  0
 68 69  1  0  0  0  0
M  CHG  1  78   1
M  ISO  4  39 100  63 101  75 100  86 101
M  END
> <Batch ID>
0058

> <Smiles>
CNC(C)C(=O)NC(C(=O)N1Cc2cc([101O:1][101CH2:1]C3CCN(c4cccc([100NH:0][100C:0](=O)N5CCCC(n6nc(-c7ccc(Oc8ccc(F)cc8F)cc7)c(C(N)=O)c6N)C5)c4C(C)C)C(=O)C3)ccc2CC1C(=O)NC1CCCc2ccccc21)C(C)(C)C

> <Shape>
0.281

> <Color>
0.103

> <Negative vol penalty>
0.000

$$$$

  -OEChem-04042322583D

 81 89  0     1  0  0  0  0  0999 V2000
  -16.5967  -30.0347   23.3596 C   0  0  0  0  0  0  0  0  0  0  0  0
  -17.6108  -30.5579   22.5639 C   0  0  0  0  0  0  0  0  0  0  0  0
  -30.2243  -24.6976   16.9418 C   0  0  0  0  0  0  0  0  0  0  0  0
  -27.2388  -15.3489   21.9513 C   0  0  0  0  0  0  0  0  0  0  0  0
  -27.0453  -16.2724   19.7272 C   0  0  0  0  0  0  0  0  0  0  0  0
  -16.9049  -29.1286   24.3735 C   0  0  0  0  0  0  0  0  0  0  0  0
  -18.9341  -30.1761   22.7823 C   0  0  0  0  0  0  0  0  0  0  0  0
  -25.0656  -29.0236   19.2621 C   0  0  0  0  0  0  0  0  0  0  0  0
  -26.0155  -14.6990   21.7879 C   0  0  0  0  0  0  0  0  0  0  0  0
  -25.8220  -15.6225   19.5638 C   0  0  0  0  0  0  0  0  0  0  0  0
  -26.4098  -29.3925   19.2908 C   0  0  0  0  0  0  0  0  0  0  0  0
  -24.8572  -11.9204   20.2482 C   0  0  0  0  0  0  0  0  0  0  0  0
  -24.7729  -10.5870   20.6489 C   0  0  0  0  0  0  0  0  0  0  0  0
  -30.6796  -25.9686   17.2743 C   0  0  0  0  0  0  0  0  0  0  0  0
  -30.0773  -23.7360   17.9353 C   0  0  0  0  0  0  0  0  0  0  0  0
  -26.8148  -27.7596   21.0197 C   0  0  0  0  0  0  0  0  0  0  0  0
  -23.0326  -11.1692   22.2204 C   0  0  0  0  0  0  0  0  0  0  0  0
  -27.7537  -16.1357   20.9210 C   0  0  0  0  0  0  0  0  0  0  0  0
  -30.2944  -16.3090   20.7709 C   0  0  0  0  0  0  0  0  0  0  0  0
  -18.2315  -28.7281   24.5981 C   0  0  0  0  0  0  0  0  0  0  0  0
  -24.5829  -28.0258   20.1210 C   0  0  0  0  0  0  0  0  0  0  0  0
  -19.2605  -29.2648   23.8009 C   0  0  0  0  0  0  0  0  0  0  0  0
  -25.4646  -27.3781   20.9981 C   0  0  0  0  0  0  0  0  0  0  0  0
  -25.3071  -14.8357   20.5942 C   0  0  0  0  0  0  0  0  0  0  0  0
  -27.2840  -28.7626   20.1717 C   0  0  0  0  0  0  0  0  0  0  0  0
  -24.0292  -12.8782   20.8337 C   0  0  0  0  0  0  0  0  0  0  0  0
  -23.8606  -10.2114   21.6350 C   0  0  0  0  0  0  0  0  0  0  0  0
  -23.1169  -12.5026   21.8197 C   0  0  0  0  0  0  0  0  0  0  0  0
  -29.0171  -16.8077   21.0894 C   0  0  0  0  0  0  0  0  0  0  0  0
  -30.9719  -26.2256   18.6041 C   0  0  0  0  0  0  0  0  0  0  0  0
  -30.3968  -24.0928   19.2355 C   0  0  0  0  0  0  0  0  0  0  0  0
  -31.1547  -17.3225   21.1161 C   0  0  0  0  0  0  0  0  0  0  0  0
  -31.4523  -27.5519   19.0055 C   0  0  0  0  0  0  0  0  0  0  0  0
  -30.6698  -15.0427   20.2129 C   0  0  0  0  0  0  0  0  0  0  0  0
  -30.8503  -28.3831   19.8782 C   0  0  0  0  0  0  0  0  0  0  0  0
  -22.4336  -27.9275   22.4608 C   0  0  0  0  0  0  0  0  0  0  0  0
  -23.0532  -24.7447   22.3687 C   0  0  0  0  0  0  0  0  0  0  0  0
  -25.2225  -22.2376   21.5592 C   0  0  0  0  0  0  0  0  0  0  0  0
  -30.5018  -23.2420   21.6043 C   0  0  0  0  0  0  0  0  0  0  0  0
  -18.5213  -27.7823   25.7366 C   0  0  0  0  0  0  0  0  0  0  0  0
  -23.1356  -27.6207   20.0590 C   0  0  0  0  0  0  0  0  0  0  0  0
  -25.0005  -26.2867   21.9265 C   0  0  0  0  0  0  0  0  0  0  0  0
  -19.9051  -27.1424   25.6596 C   0  0  0  0  0  0  0  0  0  0  0  0
  -31.5809  -21.0014   24.1523 C   0  0  0  0  0  0  0  0  0  0  0  0
  -20.9640  -28.1959   25.3505 C   0  0  0  0  0  0  0  0  0  0  0  0
  -31.1676  -19.6257   23.6242 C   0  0  0  0  0  0  0  0  0  0  0  0
  -30.5550  -22.0765   23.7983 C   0  0  0  0  0  0  0  0  0  0  0  0
  -29.7930  -20.7814   21.8460 C   0  0  0  0  0  0  0  0  0  0  0  0
  -20.7052  -28.8560   23.9909 C   0  0  1  0  0  0  0  0  0  0  0  0
  -22.6473  -26.9505   21.3395 C   0  0  1  0  0  0  0  0  0  0  0  0
  -30.8272  -19.6778   22.1219 C   0  0  2  0  0  0  0  0  0  0  0  0
  -31.4744  -29.7160   20.2016 C   0  0  0  0  0  0  0  0  0  0  0  0
  -25.4652  -19.7411   21.6366 C   0  0  0  0  0  0  0  0  0  0  0  0
  -23.6159  -24.8946   25.3639 C   0  0  0  0  0  0  0  0  0  0  0  0
  -24.7445  -22.6663   25.1926 C   0  0  0  0  0  0  0  0  0  0  0  0
  -22.3202  -22.8798   24.6454 C   0  0  0  0  0  0  0  0  0  0  0  0
  -25.4531  -22.0526   18.6145 C   0  0  0  0  0  0  0  0  0  0  0  0
  -29.5373  -28.1116   20.5653 C   0  0  0  0  0  0  0  0  0  1  0  0
  -24.0387  -23.8272   23.0513 C   0  0  1  0  0  0  0  0  0  0  0  0
  -25.0209  -20.9351   20.8061 C   0  0  2  0  0  0  0  0  0  0  0  0
  -23.6885  -23.5889   24.5473 C   0  0  0  0  0  0  0  0  0  0  0  0
  -29.0576  -18.0421   21.5979 N   0  0  0  0  0  0  0  0  0  0  0  0
  -30.8417  -25.3172   19.5968 N   0  0  0  0  0  0  0  0  0  0  0  0
  -30.3709  -18.3275   21.6017 N   0  0  0  0  0  0  0  0  0  0  0  0
  -23.5750  -25.9305   21.8328 N   0  0  0  0  0  0  0  0  0  0  0  0
  -30.2854  -22.0696   22.3588 N   0  0  0  0  0  0  0  0  0  0  0  0
  -32.4975  -17.4432   21.0486 N   0  0  0  0  0  0  0  0  0  0  0  0
  -29.6597  -14.1171   19.9173 N   0  0  0  0  0  0  0  0  0  0  0  0
  -30.2426  -23.1063   20.2409 N   0  0  0  0  0  0  0  0  0  0  0  0
  -21.1304  -27.9844   22.9167 N   0  0  0  0  0  0  0  0  0  0  0  0
  -24.0876  -22.6104   22.2479 N   0  0  0  0  0  0  0  0  0  0  0  0
  -25.8040  -20.9433   19.5382 N   0  3  0  0  0  0  0  0  0  0  0  0
  -31.8667  -14.7346   19.9986 O   0  0  0  0  0  0  0  0  0  0  0  0
  -23.3812  -28.5802   22.8823 O   0  0  0  0  0  0  0  0  0  0  0  0
  -21.8653  -24.4178   22.3069 O   0  0  0  0  0  0  0  0  0  0  0  0
  -26.2822  -22.8601   21.5417 O   0  0  0  0  0  0  0  0  0  0  0  0
  -30.9147  -24.2817   22.1247 O   0  0  0  0  0  0  0  0  0  0  0  0
  -24.1135  -14.2015   20.4343 O   0  0  0  0  0  0  0  0  0  0  0  0
  -28.5964  -29.1212   20.2023 O   0  0  0  0  0  0  0  0  0  1  0  0
  -23.7788   -8.9306   22.0185 F   0  0  0  0  0  0  0  0  0  0  0  0
  -22.3180  -13.4181   22.3850 F   0  0  0  0  0  0  0  0  0  0  0  0
  1  2  1  0  0  0  0
  1  6  2  0  0  0  0
  2  7  2  0  0  0  0
  3 14  2  0  0  0  0
  3 15  1  0  0  0  0
  4  9  2  0  0  0  0
  4 18  1  0  0  0  0
  5 10  1  0  0  0  0
  5 18  2  0  0  0  0
  6 20  1  0  0  0  0
  7 22  1  0  0  0  0
  8 11  2  0  0  0  0
  8 21  1  0  0  0  0
  9 24  1  0  0  0  0
 10 24  2  0  0  0  0
 11 25  1  0  0  0  0
 12 13  2  0  0  0  0
 12 26  1  0  0  0  0
 13 27  1  0  0  0  0
 14 30  1  0  0  0  0
 15 31  2  0  0  0  0
 16 23  1  0  0  0  0
 16 25  2  0  0  0  0
 17 27  2  0  0  0  0
 17 28  1  0  0  0  0
 18 29  1  0  0  0  0
 19 29  1  0  0  0  0
 19 32  2  0  0  0  0
 19 34  1  0  0  0  0
 20 22  2  0  0  0  0
 20 40  1  0  0  0  0
 21 23  2  0  0  0  0
 21 41  1  0  0  0  0
 22 49  1  0  0  0  0
 23 42  1  0  0  0  0
 24 78  1  0  0  0  0
 25 79  1  0  0  0  0
 26 28  2  0  0  0  0
 26 78  1  0  0  0  0
 27 80  1  0  0  0  0
 28 81  1  0  0  0  0
 29 62  2  0  0  0  0
 30 33  1  0  0  0  0
 30 63  2  0  0  0  0
 31 63  1  0  0  0  0
 31 69  1  0  0  0  0
 32 64  1  0  0  0  0
 32 67  1  0  0  0  0
 33 35  2  0  0  0  0
 34 68  1  0  0  0  0
 34 73  2  0  0  0  0
 35 52  1  0  0  0  0
 35 58  1  0  0  0  0
 36 50  1  0  0  0  0
 36 70  1  0  0  0  0
 36 74  2  0  0  0  0
 37 59  1  0  0  0  0
 37 65  1  0  0  0  0
 37 75  2  0  0  0  0
 38 60  1  0  0  0  0
 38 71  1  0  0  0  0
 38 76  2  0  0  0  0
 39 66  1  0  0  0  0
 39 69  1  0  0  0  0
 39 77  2  0  0  0  0
 40 43  1  0  0  0  0
 41 50  1  0  0  0  0
 42 65  1  0  0  0  0
 43 45  1  0  0  0  0
 44 46  1  0  0  0  0
 44 47  1  0  0  0  0
 45 49  1  0  0  0  0
 46 51  1  0  0  0  0
 47 66  1  0  0  0  0
 48 51  1  0  0  0  0
 48 66  1  0  0  0  0
 49 70  1  0  0  0  0
 50 65  1  0  0  0  0
 51 64  1  0  0  0  0
 53 60  1  0  0  0  0
 54 61  1  0  0  0  0
 55 61  1  0  0  0  0
 56 61  1  0  0  0  0
 57 72  1  0  0  0  0
 58 79  1  0  0  0  0
 59 61  1  0  0  0  0
 59 71  1  0  0  0  0
 60 72  1  0  0  0  0
 62 64  1  0  0  0  0
M  CHG  1  72   1
M  ISO  4  39 100  58 101  69 100  79 101
M  END
> <Batch ID>
0058

> <Smiles>
CNC(C)C(=O)NC(C(=O)N1Cc2cc([101O:1][101CH2:1]C(C)=Cc3cccc([100NH:0][100C:0](=O)N4CCCC(n5nc(-c6ccc(Oc7ccc(F)cc7F)cc6)c(C(N)=O)c5N)C4)n3)ccc2CC1C(=O)NC1CCCc2ccccc21)C(C)(C)C

> <Shape>
0.254

> <Color>
0.097

> <Negative vol penalty>
0.000

$$$$

  -OEChem-04042322583D

 86 95  0     1  0  0  0  0  0999 V2000
  -30.4755  -23.5007   15.7190 C   0  0  0  0  0  0  0  0  0  0  0  0
  -29.2784  -24.1702   15.9464 C   0  0  0  0  0  0  0  0  0  0  0  0
  -25.6241  -14.7357   19.4281 C   0  0  0  0  0  0  0  0  0  0  0  0
  -24.6060  -14.5368   21.6100 C   0  0  0  0  0  0  0  0  0  0  0  0
  -31.3421  -23.2504   16.7808 C   0  0  0  0  0  0  0  0  0  0  0  0
  -28.9530  -24.6001   17.2333 C   0  0  0  0  0  0  0  0  0  0  0  0
  -23.9088  -27.2770   19.3588 C   0  0  0  0  0  0  0  0  0  0  0  0
  -23.5181  -25.1521   26.4458 C   0  0  0  0  0  0  0  0  0  0  0  0
  -24.3242  -24.3948   25.5959 C   0  0  0  0  0  0  0  0  0  0  0  0
  -25.8183  -13.3549   19.3927 C   0  0  0  0  0  0  0  0  0  0  0  0
  -24.8002  -13.1559   21.5747 C   0  0  0  0  0  0  0  0  0  0  0  0
  -22.6990  -26.8856   19.9305 C   0  0  0  0  0  0  0  0  0  0  0  0
  -23.3254  -10.4706   20.1482 C   0  0  0  0  0  0  0  0  0  0  0  0
  -22.2637   -9.6580   20.5457 C   0  0  0  0  0  0  0  0  0  0  0  0
  -23.6162  -27.2799   22.1265 C   0  0  0  0  0  0  0  0  0  0  0  0
  -22.3558  -23.5729   24.4613 C   0  0  0  0  0  0  0  0  0  0  0  0
  -23.6359   -8.7235   22.3009 C   0  0  0  0  0  0  0  0  0  0  0  0
  -25.0181  -15.3267   20.5367 C   0  0  0  0  0  0  0  0  0  0  0  0
  -23.6940  -17.4660   20.1150 C   0  0  0  0  0  0  0  0  0  0  0  0
  -31.0207  -23.6667   18.0833 C   0  0  0  0  0  0  0  0  0  0  0  0
  -24.9868  -27.6629   20.1683 C   0  0  0  0  0  0  0  0  0  0  0  0
  -29.8257  -24.3780   18.3140 C   0  0  0  0  0  0  0  0  0  0  0  0
  -24.8378  -27.6781   21.5625 C   0  0  0  0  0  0  0  0  0  0  0  0
  -22.1308  -25.1198   26.3035 C   0  0  0  0  0  0  0  0  0  0  0  0
  -21.5497  -24.3302   25.3113 C   0  0  0  0  0  0  0  0  0  0  0  0
  -23.7430  -23.6052   24.6037 C   0  0  0  0  0  0  0  0  0  0  0  0
  -25.4063  -12.5650   20.4660 C   0  0  0  0  0  0  0  0  0  0  0  0
  -22.5535  -26.8843   21.3147 C   0  0  0  0  0  0  0  0  0  0  0  0
  -24.5425  -10.4096   20.8271 C   0  0  0  0  0  0  0  0  0  0  0  0
  -22.4189   -8.7845   21.6220 C   0  0  0  0  0  0  0  0  0  0  0  0
  -24.6977   -9.5361   21.9034 C   0  0  0  0  0  0  0  0  0  0  0  0
  -24.8177  -16.7530   20.5741 C   0  0  0  0  0  0  0  0  0  0  0  0
  -23.9921  -18.7813   20.3749 C   0  0  0  0  0  0  0  0  0  0  0  0
  -19.4473  -24.5403   22.7048 C   0  0  0  0  0  0  0  0  0  0  0  0
  -22.4884  -16.9825   19.5079 C   0  0  0  0  0  0  0  0  0  0  0  0
  -27.9319  -26.5698   20.6533 C   0  0  0  0  0  0  0  0  0  0  0  0
  -28.2075  -29.2457   22.4661 C   0  0  0  0  0  0  0  0  0  0  0  0
  -26.6635  -31.6730   24.3021 C   0  0  0  0  0  0  0  0  0  0  0  0
  -25.9537  -22.7573   23.7434 C   0  0  0  0  0  0  0  0  0  0  0  0
  -31.9988  -23.3764   19.1943 C   0  0  0  0  0  0  0  0  0  0  0  0
  -26.2766  -28.1079   19.5352 C   0  0  0  0  0  0  0  0  0  0  0  0
  -25.9580  -28.1032   22.4751 C   0  0  0  0  0  0  0  0  0  0  0  0
  -31.3700  -23.4734   20.5804 C   0  0  0  0  0  0  0  0  0  0  0  0
  -28.3344  -20.9542   21.8048 C   0  0  0  0  0  0  0  0  0  0  0  0
  -30.5984  -24.7781   20.7110 C   0  0  0  0  0  0  0  0  0  0  0  0
  -27.5393  -19.7591   21.2740 C   0  0  0  0  0  0  0  0  0  0  0  0
  -18.6742  -26.7981   22.7912 C   0  0  0  0  0  0  0  0  0  0  0  0
  -27.9182  -21.3258   23.2269 C   0  0  0  0  0  0  0  0  0  0  0  0
  -19.4297  -26.4744   24.0662 C   0  0  0  0  0  0  0  0  0  0  0  0
  -25.6830  -20.3479   22.8848 C   0  0  0  0  0  0  0  0  0  0  0  0
  -29.4366  -24.8280   19.7106 C   0  0  1  0  0  0  0  0  0  0  0  0
  -19.1073  -25.7111   21.8019 C   0  0  1  0  0  0  0  0  0  0  0  0
  -27.4744  -27.9896   20.4726 C   0  0  1  0  0  0  0  0  0  0  0  0
  -26.0217  -19.9771   21.4317 C   0  0  2  0  0  0  0  0  0  0  0  0
  -21.2884  -25.9385   27.2258 C   0  0  0  0  0  0  0  0  0  0  0  0
  -27.1550  -33.7021   25.6945 C   0  0  0  0  0  0  0  0  0  0  0  0
  -29.1279  -27.4495   24.7545 C   0  0  0  0  0  0  0  0  0  0  0  0
  -28.6875  -29.3464   26.3280 C   0  0  0  0  0  0  0  0  0  0  0  0
  -30.4012  -29.5904   24.5318 C   0  0  0  0  0  0  0  0  0  0  0  0
  -25.1117  -33.4309   22.4964 C   0  0  0  0  0  0  0  0  0  0  0  0
  -20.0591  -24.2814   25.1381 C   0  0  0  0  0  0  0  0  0  0  0  0
  -20.3273  -26.1148   20.9860 C   0  0  0  0  0  0  0  0  0  1  0  0
  -27.9497  -29.5875   23.9138 C   0  0  1  0  0  0  0  0  0  0  0  0
  -26.8158  -33.1834   24.3057 C   0  0  2  0  0  0  0  0  0  0  0  0
  -29.0209  -28.9835   24.8652 C   0  0  0  0  0  0  0  0  0  0  0  0
  -25.7595  -17.5495   21.0867 N   0  0  0  0  0  0  0  0  0  0  0  0
  -25.2283  -18.7764   20.9512 N   0  0  0  0  0  0  0  0  0  0  0  0
  -19.6221  -25.0461   23.9901 N   0  0  0  0  0  0  0  0  0  0  0  0
  -27.2016  -28.5236   21.8085 N   0  0  0  0  0  0  0  0  0  0  0  0
  -26.4685  -21.5210   23.2991 N   0  0  0  0  0  0  0  0  0  0  0  0
  -23.3149  -19.9299   20.1644 N   0  0  0  0  0  0  0  0  0  0  0  0
  -22.3451  -15.6018   19.3143 N   0  0  0  0  0  0  0  0  0  0  0  0
  -24.5616  -22.8372   23.7388 N   0  0  0  0  0  0  0  0  0  0  0  0
  -28.8625  -26.1555   19.7196 N   0  0  0  0  0  0  0  0  0  0  0  0
  -27.8454  -31.0413   23.9776 N   0  0  0  0  0  0  0  0  0  0  0  0
  -25.5515  -33.8326   23.8574 N   0  3  0  0  0  0  0  0  0  0  0  0
  -19.5828  -23.3862   22.3249 O   0  0  0  0  0  0  0  0  0  0  0  0
  -21.5727  -17.7534   19.1328 O   0  0  0  0  0  0  0  0  0  0  0  0
  -27.4756  -25.9004   21.5727 O   0  0  0  0  0  0  0  0  0  0  0  0
  -29.2594  -29.6122   21.9363 O   0  0  0  0  0  0  0  0  0  0  0  0
  -25.6032  -31.1098   24.5649 O   0  0  0  0  0  0  0  0  0  0  0  0
  -26.6938  -23.6867   24.0757 O   0  0  0  0  0  0  0  0  0  0  0  0
  -25.5954  -11.2175   20.4318 O   0  0  0  0  0  0  0  0  0  0  0  0
  -21.3739  -26.5021   21.8754 O   0  0  0  0  0  0  0  0  0  1  0  0
  -21.3987   -8.0054   22.0045 F   0  0  0  0  0  0  0  0  0  0  0  0
  -25.8641   -9.4739   22.5602 F   0  0  0  0  0  0  0  0  0  0  0  0
  1  2  1  0  0  0  0
  1  5  2  0  0  0  0
  2  6  2  0  0  0  0
  3 10  2  0  0  0  0
  3 18  1  0  0  0  0
  4 11  1  0  0  0  0
  4 18  2  0  0  0  0
  5 20  1  0  0  0  0
  6 22  1  0  0  0  0
  7 12  2  0  0  0  0
  7 21  1  0  0  0  0
  8  9  2  0  0  0  0
  8 24  1  0  0  0  0
  9 26  1  0  0  0  0
 10 27  1  0  0  0  0
 11 27  2  0  0  0  0
 12 28  1  0  0  0  0
 13 14  2  0  0  0  0
 13 29  1  0  0  0  0
 14 30  1  0  0  0  0
 15 23  1  0  0  0  0
 15 28  2  0  0  0  0
 16 25  1  0  0  0  0
 16 26  2  0  0  0  0
 17 30  2  0  0  0  0
 17 31  1  0  0  0  0
 18 32  1  0  0  0  0
 19 32  1  0  0  0  0
 19 33  2  0  0  0  0
 19 35  1  0  0  0  0
 20 22  2  0  0  0  0
 20 40  1  0  0  0  0
 21 23  2  0  0  0  0
 21 41  1  0  0  0  0
 22 51  1  0  0  0  0
 23 42  1  0  0  0  0
 24 25  2  0  0  0  0
 24 55  1  0  0  0  0
 25 61  1  0  0  0  0
 26 73  1  0  0  0  0
 27 83  1  0  0  0  0
 28 84  1  0  0  0  0
 29 31  2  0  0  0  0
 29 83  1  0  0  0  0
 30 85  1  0  0  0  0
 31 86  1  0  0  0  0
 32 66  2  0  0  0  0
 33 67  1  0  0  0  0
 33 71  1  0  0  0  0
 34 52  1  0  0  0  0
 34 68  1  0  0  0  0
 34 77  2  0  0  0  0
 35 72  1  0  0  0  0
 35 78  2  0  0  0  0
 36 53  1  0  0  0  0
 36 74  1  0  0  0  0
 36 79  2  0  0  0  0
 37 63  1  0  0  0  0
 37 69  1  0  0  0  0
 37 80  2  0  0  0  0
 38 64  1  0  0  0  0
 38 75  1  0  0  0  0
 38 81  2  0  0  0  0
 39 70  1  0  0  0  0
 39 73  1  0  0  0  0
 39 82  2  0  0  0  0
 40 43  1  0  0  0  0
 41 53  1  0  0  0  0
 42 69  1  0  0  0  0
 43 45  1  0  0  0  0
 44 46  1  0  0  0  0
 44 48  1  0  0  0  0
 45 51  1  0  0  0  0
 46 54  1  0  0  0  0
 47 49  1  0  0  0  0
 47 52  1  0  0  0  0
 48 70  1  0  0  0  0
 49 68  1  0  0  0  0
 50 54  1  0  0  0  0
 50 70  1  0  0  0  0
 51 74  1  0  0  0  0
 52 62  1  0  0  0  0
 53 69  1  0  0  0  0
 54 67  1  0  0  0  0
 56 64  1  0  0  0  0
 57 65  1  0  0  0  0
 58 65  1  0  0  0  0
 59 65  1  0  0  0  0
 60 76  1  0  0  0  0
 61 68  1  0  0  0  0
 62 84  1  0  0  0  0
 63 65  1  0  0  0  0
 63 75  1  0  0  0  0
 64 76  1  0  0  0  0
 66 67  1  0  0  0  0
M  CHG  1  76   1
M  ISO  4  39 100  62 101  73 100  84 101
M  END
> <Batch ID>
0058

> <Smiles>
CNC(C)C(=O)NC(C(=O)N1Cc2cc([101O:1][101CH2:1]C3CCN(Cc4cc([100NH:0][100C:0](=O)N5CCCC(n6nc(-c7ccc(Oc8ccc(F)cc8F)cc7)c(C(N)=O)c6N)C5)ccc4C)C3=O)ccc2CC1C(=O)NC1CCCc2ccccc21)C(C)(C)C

> <Shape>
0.233

> <Color>
0.057

> <Negative vol penalty>
0.000

$$$$

  -OEChem-04042322583D

 85 93  0     1  0  0  0  0  0999 V2000
  -25.1395  -30.8327   22.3003 C   0  0  0  0  0  0  0  0  0  0  0  0
  -26.1164  -29.8449   22.2273 C   0  0  0  0  0  0  0  0  0  0  0  0
  -23.3034   -9.6601   19.9809 C   0  0  0  0  0  0  0  0  0  0  0  0
  -23.8998   -9.8908   22.3107 C   0  0  0  0  0  0  0  0  0  0  0  0
  -24.3227  -31.0863   21.1992 C   0  0  0  0  0  0  0  0  0  0  0  0
  -26.2763  -29.1093   21.0536 C   0  0  0  0  0  0  0  0  0  0  0  0
  -31.1374  -28.5926   19.7316 C   0  0  0  0  0  0  0  0  0  0  0  0
  -31.9212  -18.3437   23.5181 C   0  0  0  0  0  0  0  0  0  0  0  0
  -31.4763  -17.3494   22.6470 C   0  0  0  0  0  0  0  0  0  0  0  0
  -22.6459   -8.4638   20.2676 C   0  0  0  0  0  0  0  0  0  0  0  0
  -23.2422   -8.6945   22.5975 C   0  0  0  0  0  0  0  0  0  0  0  0
  -31.8872  -27.6410   20.4215 C   0  0  0  0  0  0  0  0  0  0  0  0
  -20.0607   -7.6501   23.0531 C   0  0  0  0  0  0  0  0  0  0  0  0
  -19.2310   -7.6210   24.1739 C   0  0  0  0  0  0  0  0  0  0  0  0
  -31.6082  -26.0998   18.5868 C   0  0  0  0  0  0  0  0  0  0  0  0
  -29.1916  -18.0346   23.0317 C   0  0  0  0  0  0  0  0  0  0  0  0
  -20.5805   -5.8582   25.1271 C   0  0  0  0  0  0  0  0  0  0  0  0
  -23.9304  -10.3736   21.0024 C   0  0  0  0  0  0  0  0  0  0  0  0
  -24.0615  -12.9054   20.7190 C   0  0  0  0  0  0  0  0  0  0  0  0
  -24.4790  -30.3601   20.0081 C   0  0  0  0  0  0  0  0  0  0  0  0
  -30.6073  -28.3006   18.4666 C   0  0  0  0  0  0  0  0  0  0  0  0
  -25.4599  -29.3525   19.9360 C   0  0  0  0  0  0  0  0  0  0  0  0
  -30.8542  -27.0504   17.8818 C   0  0  0  0  0  0  0  0  0  0  0  0
  -31.0014  -19.1835   24.1461 C   0  0  0  0  0  0  0  0  0  0  0  0
  -29.6366  -19.0290   23.9029 C   0  0  0  0  0  0  0  0  0  0  0  0
  -30.1115  -17.1948   22.4038 C   0  0  0  0  0  0  0  0  0  0  0  0
  -22.6153   -7.9810   21.5759 C   0  0  0  0  0  0  0  0  0  0  0  0
  -32.1203  -26.3934   19.8504 C   0  0  0  0  0  0  0  0  0  0  0  0
  -21.1503   -6.7832   22.9692 C   0  0  0  0  0  0  0  0  0  0  0  0
  -19.4908   -6.7250   25.2110 C   0  0  0  0  0  0  0  0  0  0  0  0
  -21.4102   -5.8873   24.0062 C   0  0  0  0  0  0  0  0  0  0  0  0
  -24.6103  -11.6091   20.7068 C   0  0  0  0  0  0  0  0  0  0  0  0
  -25.1076  -13.7245   20.3710 C   0  0  0  0  0  0  0  0  0  0  0  0
  -32.1656  -23.4539   23.2282 C   0  0  0  0  0  0  0  0  0  0  0  0
  -33.0480  -24.1232   22.4738 C   0  0  0  0  0  0  0  0  0  0  0  0
  -22.7255  -13.3311   21.0184 C   0  0  0  0  0  0  0  0  0  0  0  0
  -32.4837  -22.0859   23.7228 C   0  0  0  0  0  0  0  0  0  0  0  0
  -27.6761  -28.1135   17.2515 C   0  0  0  0  0  0  0  0  0  0  0  0
  -29.2797  -27.7147   14.4601 C   0  0  0  0  0  0  0  0  0  0  0  0
  -32.1491  -26.7606   12.8781 C   0  0  0  0  0  0  0  0  0  0  0  0
  -30.4386  -15.2704   20.8113 C   0  0  0  0  0  0  0  0  0  0  0  0
  -23.5410  -30.6377   18.8601 C   0  0  0  0  0  0  0  0  0  0  0  0
  -29.8232  -29.3475   17.7239 C   0  0  0  0  0  0  0  0  0  0  0  0
  -30.3245  -26.6945   16.5175 C   0  0  0  0  0  0  0  0  0  0  0  0
  -24.0239  -30.0698   17.5280 C   0  0  0  0  0  0  0  0  0  0  0  0
  -29.7019  -12.6110   18.5614 C   0  0  0  0  0  0  0  0  0  0  0  0
  -24.4959  -28.6296   17.7012 C   0  0  0  0  0  0  0  0  0  0  0  0
  -28.2664  -12.2199   18.9200 C   0  0  0  0  0  0  0  0  0  0  0  0
  -30.5088  -13.0025   19.7981 C   0  0  0  0  0  0  0  0  0  0  0  0
  -28.4559  -13.6429   20.9999 C   0  0  0  0  0  0  0  0  0  0  0  0
  -25.6804  -28.5503   18.6719 C   0  0  1  0  0  0  0  0  0  0  0  0
  -28.8979  -28.7600   16.6627 C   0  0  1  0  0  0  0  0  0  0  0  0
  -27.5852  -13.3030   19.7793 C   0  0  2  0  0  0  0  0  0  0  0  0
  -28.6337  -19.9178   24.5623 C   0  0  0  0  0  0  0  0  0  0  0  0
  -33.1464  -26.5096   10.5890 C   0  0  0  0  0  0  0  0  0  0  0  0
  -27.6470  -25.1731   14.0302 C   0  0  0  0  0  0  0  0  0  0  0  0
  -29.3043  -24.4874   12.2834 C   0  0  0  0  0  0  0  0  0  0  0  0
  -27.9638  -26.5690   11.9794 C   0  0  0  0  0  0  0  0  0  0  0  0
  -34.2921  -28.7138   13.4709 C   0  0  0  0  0  0  0  0  0  0  0  0
  -31.5042  -20.2459   25.0803 C   0  0  0  0  0  0  0  0  0  0  0  0
  -32.7984  -25.4999   21.9475 C   0  0  0  0  0  0  0  0  0  1  0  0
  -29.8187  -26.5291   13.6968 C   0  0  1  0  0  0  0  0  0  0  0  0
  -32.9680  -27.4280   11.7879 C   0  0  2  0  0  0  0  0  0  0  0  0
  -28.6920  -25.6954   13.0240 C   0  0  0  0  0  0  0  0  0  0  0  0
  -25.9045  -11.6002   20.3769 N   0  0  0  0  0  0  0  0  0  0  0  0
  -26.1777  -12.9010   20.1786 N   0  0  0  0  0  0  0  0  0  0  0  0
  -29.5582  -27.7495   15.8338 N   0  0  0  0  0  0  0  0  0  0  0  0
  -29.8041  -14.0353   20.5606 N   0  0  0  0  0  0  0  0  0  0  0  0
  -25.2074  -15.0615   20.2138 N   0  0  0  0  0  0  0  0  0  0  0  0
  -21.7746  -12.3589   21.3573 N   0  0  0  0  0  0  0  0  0  0  0  0
  -29.6592  -16.1861   21.5174 N   0  0  0  0  0  0  0  0  0  0  0  0
  -31.4518  -21.5611   24.4822 N   0  0  0  0  0  0  0  0  0  0  0  0
  -26.9011  -28.9658   18.0147 N   0  0  0  0  0  0  0  0  0  0  0  0
  -30.8077  -27.0592   12.7645 N   0  0  0  0  0  0  0  0  0  0  0  0
  -34.3171  -27.7943   12.3043 N   0  3  0  0  0  0  0  0  0  0  0  0
  -22.3809  -14.5363   20.9703 O   0  0  0  0  0  0  0  0  0  0  0  0
  -33.5426  -21.5223   23.4664 O   0  0  0  0  0  0  0  0  0  0  0  0
  -27.4522  -26.9295   17.0287 O   0  0  0  0  0  0  0  0  0  0  0  0
  -28.6412  -28.5818   13.8584 O   0  0  0  0  0  0  0  0  0  0  0  0
  -32.6488  -26.0429   13.7416 O   0  0  0  0  0  0  0  0  0  0  0  0
  -31.5786  -15.5087   20.4044 O   0  0  0  0  0  0  0  0  0  0  0  0
  -21.9736   -6.8139   21.8561 O   0  0  0  0  0  0  0  0  0  0  0  0
  -32.8512  -25.4625   20.5220 O   0  0  0  0  0  0  0  0  0  1  0  0
  -18.6949   -6.6982   26.2879 F   0  0  0  0  0  0  0  0  0  0  0  0
  -22.4561   -5.0529   23.9319 F   0  0  0  0  0  0  0  0  0  0  0  0
  1  2  1  0  0  0  0
  1  5  2  0  0  0  0
  2  6  2  0  0  0  0
  3 10  2  0  0  0  0
  3 18  1  0  0  0  0
  4 11  1  0  0  0  0
  4 18  2  0  0  0  0
  5 20  1  0  0  0  0
  6 22  1  0  0  0  0
  7 12  2  0  0  0  0
  7 21  1  0  0  0  0
  8  9  2  0  0  0  0
  8 24  1  0  0  0  0
  9 26  1  0  0  0  0
 10 27  1  0  0  0  0
 11 27  2  0  0  0  0
 12 28  1  0  0  0  0
 13 14  2  0  0  0  0
 13 29  1  0  0  0  0
 14 30  1  0  0  0  0
 15 23  1  0  0  0  0
 15 28  2  0  0  0  0
 16 25  1  0  0  0  0
 16 26  2  0  0  0  0
 17 30  2  0  0  0  0
 17 31  1  0  0  0  0
 18 32  1  0  0  0  0
 19 32  1  0  0  0  0
 19 33  2  0  0  0  0
 19 36  1  0  0  0  0
 20 22  2  0  0  0  0
 20 42  1  0  0  0  0
 21 23  2  0  0  0  0
 21 43  1  0  0  0  0
 22 51  1  0  0  0  0
 23 44  1  0  0  0  0
 24 25  2  0  0  0  0
 24 60  1  0  0  0  0
 25 54  1  0  0  0  0
 26 71  1  0  0  0  0
 27 82  1  0  0  0  0
 28 83  1  0  0  0  0
 29 31  2  0  0  0  0
 29 82  1  0  0  0  0
 30 84  1  0  0  0  0
 31 85  1  0  0  0  0
 32 65  2  0  0  0  0
 33 66  1  0  0  0  0
 33 69  1  0  0  0  0
 34 35  2  0  0  0  0
 34 37  1  0  0  0  0
 35 61  1  0  0  0  0
 36 70  1  0  0  0  0
 36 76  2  0  0  0  0
 37 72  1  0  0  0  0
 37 77  2  0  0  0  0
 38 52  1  0  0  0  0
 38 73  1  0  0  0  0
 38 78  2  0  0  0  0
 39 62  1  0  0  0  0
 39 67  1  0  0  0  0
 39 79  2  0  0  0  0
 40 63  1  0  0  0  0
 40 74  1  0  0  0  0
 40 80  2  0  0  0  0
 41 68  1  0  0  0  0
 41 71  1  0  0  0  0
 41 81  2  0  0  0  0
 42 45  1  0  0  0  0
 43 52  1  0  0  0  0
 44 67  1  0  0  0  0
 45 47  1  0  0  0  0
 46 48  1  0  0  0  0
 46 49  1  0  0  0  0
 47 51  1  0  0  0  0
 48 53  1  0  0  0  0
 49 68  1  0  0  0  0
 50 53  1  0  0  0  0
 50 68  1  0  0  0  0
 51 73  1  0  0  0  0
 52 67  1  0  0  0  0
 53 66  1  0  0  0  0
 55 63  1  0  0  0  0
 56 64  1  0  0  0  0
 57 64  1  0  0  0  0
 58 64  1  0  0  0  0
 59 75  1  0  0  0  0
 60 72  1  0  0  0  0
 61 83  1  0  0  0  0
 62 64  1  0  0  0  0
 62 74  1  0  0  0  0
 63 75  1  0  0  0  0
 65 66  1  0  0  0  0
M  CHG  1  75   1
M  ISO  4  41 100  61 101  71 100  83 101
M  END
> <Batch ID>
0058

> <Smiles>
CNC(C)C(=O)NC(C(=O)N1Cc2cc([101O:1][101CH2:1]C=CC(=O)NCc3ccc([100NH:0][100C:0](=O)N4CCCC(n5nc(-c6ccc(Oc7ccc(F)cc7F)cc6)c(C(N)=O)c5N)C4)cc3C)ccc2CC1C(=O)NC1CCCc2ccccc21)C(C)(C)C

> <Shape>
0.237

> <Color>
0.188

> <Negative vol penalty>
0.000

$$$$

  -OEChem-04042322583D

 84 92  0     1  0  0  0  0  0999 V2000
  -33.0622  -29.4957   12.1285 C   0  0  0  0  0  0  0  0  0  0  0  0
  -32.8411  -29.0280   13.4200 C   0  0  0  0  0  0  0  0  0  0  0  0
  -32.7272  -17.4555   23.2442 C   0  0  0  0  0  0  0  0  0  0  0  0
  -22.9616   -9.9263   20.0637 C   0  0  0  0  0  0  0  0  0  0  0  0
  -23.6716  -10.0752   22.3681 C   0  0  0  0  0  0  0  0  0  0  0  0
  -32.0822  -30.2495   11.4840 C   0  0  0  0  0  0  0  0  0  0  0  0
  -31.6403  -29.3150   14.0682 C   0  0  0  0  0  0  0  0  0  0  0  0
  -29.6882  -25.2765   16.4187 C   0  0  0  0  0  0  0  0  0  0  0  0
  -31.9450  -18.4017   23.9064 C   0  0  0  0  0  0  0  0  0  0  0  0
  -32.1276  -16.5277   22.3925 C   0  0  0  0  0  0  0  0  0  0  0  0
  -22.1714   -8.8208   20.3785 C   0  0  0  0  0  0  0  0  0  0  0  0
  -22.8814   -8.9698   22.6831 C   0  0  0  0  0  0  0  0  0  0  0  0
  -30.2536  -24.9162   17.6411 C   0  0  0  0  0  0  0  0  0  0  0  0
  -23.0643   -5.6079   22.3752 C   0  0  0  0  0  0  0  0  0  0  0  0
  -23.6269   -4.6174   23.1803 C   0  0  0  0  0  0  0  0  0  0  0  0
  -28.4363  -26.0045   18.7954 C   0  0  0  0  0  0  0  0  0  0  0  0
  -29.9636  -17.4923   22.8653 C   0  0  0  0  0  0  0  0  0  0  0  0
  -21.8964   -4.9740   24.8282 C   0  0  0  0  0  0  0  0  0  0  0  0
  -23.7118  -10.5535   21.0585 C   0  0  0  0  0  0  0  0  0  0  0  0
  -24.1469  -13.0498   20.7639 C   0  0  0  0  0  0  0  0  0  0  0  0
  -30.8649  -30.5376   12.1210 C   0  0  0  0  0  0  0  0  0  0  0  0
  -28.4963  -26.0141   16.3755 C   0  0  0  0  0  0  0  0  0  0  0  0
  -30.6437  -30.0745   13.4321 C   0  0  0  0  0  0  0  0  0  0  0  0
  -27.8565  -26.3706   17.5712 C   0  0  0  0  0  0  0  0  0  0  0  0
  -30.5632  -18.4201   23.7169 C   0  0  0  0  0  0  0  0  0  0  0  0
  -30.7458  -16.5461   22.2031 C   0  0  0  0  0  0  0  0  0  0  0  0
  -22.1313   -8.3426   21.6882 C   0  0  0  0  0  0  0  0  0  0  0  0
  -29.6292  -25.2827   18.8298 C   0  0  0  0  0  0  0  0  0  0  0  0
  -21.9179   -6.2815   22.7967 C   0  0  0  0  0  0  0  0  0  0  0  0
  -23.0429   -4.3004   24.4067 C   0  0  0  0  0  0  0  0  0  0  0  0
  -21.3339   -5.9646   24.0231 C   0  0  0  0  0  0  0  0  0  0  0  0
  -24.5287  -11.6951   20.7337 C   0  0  0  0  0  0  0  0  0  0  0  0
  -25.2730  -13.7326   20.3737 C   0  0  0  0  0  0  0  0  0  0  0  0
  -29.3456  -22.5749   22.3849 C   0  0  0  0  0  0  0  0  0  0  0  0
  -29.9047  -23.7501   22.0657 C   0  0  0  0  0  0  0  0  0  0  0  0
  -22.8871  -13.6383   21.1136 C   0  0  0  0  0  0  0  0  0  0  0  0
  -30.0192  -21.6573   23.3448 C   0  0  0  0  0  0  0  0  0  0  0  0
  -27.6675  -28.8742   15.2637 C   0  0  0  0  0  0  0  0  0  0  0  0
  -24.6836  -27.8927   16.0731 C   0  0  0  0  0  0  0  0  0  0  0  0
  -22.7219  -25.8641   17.9924 C   0  0  0  0  0  0  0  0  0  0  0  0
  -30.7683  -14.5996   20.6040 C   0  0  0  0  0  0  0  0  0  0  0  0
  -29.8547  -31.3962   11.4019 C   0  0  0  0  0  0  0  0  0  0  0  0
  -27.8852  -26.3718   15.0485 C   0  0  0  0  0  0  0  0  0  0  0  0
  -26.5648  -27.1451   17.5789 C   0  0  0  0  0  0  0  0  0  0  0  0
  -28.4588  -31.3390   12.0171 C   0  0  0  0  0  0  0  0  0  0  0  0
  -29.6188  -12.0584   18.3908 C   0  0  0  0  0  0  0  0  0  0  0  0
  -28.5371  -31.4879   13.5331 C   0  0  0  0  0  0  0  0  0  0  0  0
  -28.1607  -11.8488   18.8055 C   0  0  0  0  0  0  0  0  0  0  0  0
  -30.5155  -12.3431   19.5944 C   0  0  0  0  0  0  0  0  0  0  0  0
  -28.6066  -13.2320   20.8731 C   0  0  0  0  0  0  0  0  0  0  0  0
  -29.3440  -30.3439   14.1589 C   0  0  1  0  0  0  0  0  0  0  0  0
  -26.9399  -27.5665   15.1286 C   0  0  1  0  0  0  0  0  0  0  0  0
  -27.6537  -13.0064   19.6878 C   0  0  2  0  0  0  0  0  0  0  0  0
  -20.3179  -25.3151   18.4577 C   0  0  0  0  0  0  0  0  0  0  0  0
  -24.4118  -30.4651   17.6913 C   0  0  0  0  0  0  0  0  0  0  0  0
  -22.4500  -29.4398   18.8610 C   0  0  0  0  0  0  0  0  0  0  0  0
  -22.3692  -29.8256   16.3978 C   0  0  0  0  0  0  0  0  0  0  0  0
  -23.0757  -23.0553   17.1295 C   0  0  0  0  0  0  0  0  0  0  0  0
  -29.7217  -19.4388   24.4299 C   0  0  0  0  0  0  0  0  0  0  0  0
  -29.2835  -24.7220   21.1149 C   0  0  0  0  0  0  0  0  0  1  0  0
  -23.8304  -27.9778   17.3156 C   0  0  1  0  0  0  0  0  0  0  0  0
  -21.5501  -24.9667   17.6373 C   0  0  2  0  0  0  0  0  0  0  0  0
  -23.2907  -29.4142   17.5666 C   0  0  0  0  0  0  0  0  0  0  0  0
  -25.7980  -11.5254   20.3541 N   0  0  0  0  0  0  0  0  0  0  0  0
  -26.2236  -12.7824   20.1421 N   0  0  0  0  0  0  0  0  0  0  0  0
  -26.0100  -27.4769   16.2562 N   0  0  0  0  0  0  0  0  0  0  0  0
  -29.9753  -13.4541   20.3810 N   0  0  0  0  0  0  0  0  0  0  0  0
  -25.5328  -15.0471   20.2095 N   0  0  0  0  0  0  0  0  0  0  0  0
  -21.8361  -12.7916   21.4914 N   0  0  0  0  0  0  0  0  0  0  0  0
  -30.1372  -15.6039   21.3373 N   0  0  0  0  0  0  0  0  0  0  0  0
  -29.2896  -20.4980   23.5458 N   0  0  0  0  0  0  0  0  0  0  0  0
  -28.5436  -29.1401   14.2287 N   0  0  0  0  0  0  0  0  0  0  0  0
  -22.7899  -26.9661   17.1664 N   0  0  0  0  0  0  0  0  0  0  0  0
  -21.8954  -23.5393   17.8908 N   0  3  0  0  0  0  0  0  0  0  0  0
  -22.6942  -14.8772   21.0758 O   0  0  0  0  0  0  0  0  0  0  0  0
  -31.0925  -21.9287   23.8731 O   0  0  0  0  0  0  0  0  0  0  0  0
  -27.4490  -29.5898   16.2342 O   0  0  0  0  0  0  0  0  0  0  0  0
  -24.1893  -28.1775   14.9794 O   0  0  0  0  0  0  0  0  0  0  0  0
  -23.4971  -25.6145   18.9129 O   0  0  0  0  0  0  0  0  0  0  0  0
  -31.9125  -14.6947   20.1527 O   0  0  0  0  0  0  0  0  0  0  0  0
  -21.3602   -7.2641   21.9959 O   0  0  0  0  0  0  0  0  0  0  0  0
  -30.1793  -24.9330   20.0243 O   0  0  0  0  0  0  0  0  0  1  0  0
  -23.5823   -3.3482   25.1790 F   0  0  0  0  0  0  0  0  0  0  0  0
  -20.2318   -6.6074   24.4328 F   0  0  0  0  0  0  0  0  0  0  0  0
  1  2  1  0  0  0  0
  1  6  2  0  0  0  0
  2  7  2  0  0  0  0
  3  9  2  0  0  0  0
  3 10  1  0  0  0  0
  4 11  2  0  0  0  0
  4 19  1  0  0  0  0
  5 12  1  0  0  0  0
  5 19  2  0  0  0  0
  6 21  1  0  0  0  0
  7 23  1  0  0  0  0
  8 13  2  0  0  0  0
  8 22  1  0  0  0  0
  9 25  1  0  0  0  0
 10 26  2  0  0  0  0
 11 27  1  0  0  0  0
 12 27  2  0  0  0  0
 13 28  1  0  0  0  0
 14 15  2  0  0  0  0
 14 29  1  0  0  0  0
 15 30  1  0  0  0  0
 16 24  1  0  0  0  0
 16 28  2  0  0  0  0
 17 25  2  0  0  0  0
 17 26  1  0  0  0  0
 18 30  2  0  0  0  0
 18 31  1  0  0  0  0
 19 32  1  0  0  0  0
 20 32  1  0  0  0  0
 20 33  2  0  0  0  0
 20 36  1  0  0  0  0
 21 23  2  0  0  0  0
 21 42  1  0  0  0  0
 22 24  2  0  0  0  0
 22 43  1  0  0  0  0
 23 51  1  0  0  0  0
 24 44  1  0  0  0  0
 25 59  1  0  0  0  0
 26 70  1  0  0  0  0
 27 81  1  0  0  0  0
 28 82  1  0  0  0  0
 29 31  2  0  0  0  0
 29 81  1  0  0  0  0
 30 83  1  0  0  0  0
 31 84  1  0  0  0  0
 32 64  2  0  0  0  0
 33 65  1  0  0  0  0
 33 68  1  0  0  0  0
 34 35  2  0  0  0  0
 34 37  1  0  0  0  0
 35 60  1  0  0  0  0
 36 69  1  0  0  0  0
 36 75  2  0  0  0  0
 37 71  1  0  0  0  0
 37 76  2  0  0  0  0
 38 52  1  0  0  0  0
 38 72  1  0  0  0  0
 38 77  2  0  0  0  0
 39 61  1  0  0  0  0
 39 66  1  0  0  0  0
 39 78  2  0  0  0  0
 40 62  1  0  0  0  0
 40 73  1  0  0  0  0
 40 79  2  0  0  0  0
 41 67  1  0  0  0  0
 41 70  1  0  0  0  0
 41 80  2  0  0  0  0
 42 45  1  0  0  0  0
 43 52  1  0  0  0  0
 44 66  1  0  0  0  0
 45 47  1  0  0  0  0
 46 48  1  0  0  0  0
 46 49  1  0  0  0  0
 47 51  1  0  0  0  0
 48 53  1  0  0  0  0
 49 67  1  0  0  0  0
 50 53  1  0  0  0  0
 50 67  1  0  0  0  0
 51 72  1  0  0  0  0
 52 66  1  0  0  0  0
 53 65  1  0  0  0  0
 54 62  1  0  0  0  0
 55 63  1  0  0  0  0
 56 63  1  0  0  0  0
 57 63  1  0  0  0  0
 58 74  1  0  0  0  0
 59 71  1  0  0  0  0
 60 82  1  0  0  0  0
 61 63  1  0  0  0  0
 61 73  1  0  0  0  0
 62 74  1  0  0  0  0
 64 65  1  0  0  0  0
M  CHG  1  74   1
M  ISO  4  41 100  60 101  70 100  82 101
M  END
> <Batch ID>
0058

> <Smiles>
CNC(C)C(=O)NC(C(=O)N1Cc2cc([101O:1][101CH2:1]C=CC(=O)NCc3cccc([100NH:0][100C:0](=O)N4CCCC(n5nc(-c6ccc(Oc7ccc(F)cc7F)cc6)c(C(N)=O)c5N)C4)c3)ccc2CC1C(=O)NC1CCCc2ccccc21)C(C)(C)C

> <Shape>
0.218

> <Color>
0.204

> <Negative vol penalty>
0.000

$$$$

  -OEChem-04042322583D

 88 96  0     1  0  0  0  0  0999 V2000
  -21.9149   -8.5839   21.1509 C   0  0  0  0  0  0  0  0  0  0  0  0
  -22.3133   -9.7076   21.8678 C   0  0  0  0  0  0  0  0  0  0  0  0
  -22.6396  -30.8152   20.5110 C   0  0  0  0  0  0  0  0  0  0  0  0
  -22.6280  -29.0799   22.1920 C   0  0  0  0  0  0  0  0  0  0  0  0
  -29.7463  -21.6502   20.9418 C   0  0  0  0  0  0  0  0  0  0  0  0
  -22.8540   -7.8528   20.4245 C   0  0  0  0  0  0  0  0  0  0  0  0
  -23.6512  -10.1004   21.8594 C   0  0  0  0  0  0  0  0  0  0  0  0
  -24.2068  -15.0904   21.1990 C   0  0  0  0  0  0  0  0  0  0  0  0
  -29.7083  -22.9947   20.5724 C   0  0  0  0  0  0  0  0  0  0  0  0
  -21.2528  -30.7160   20.3989 C   0  0  0  0  0  0  0  0  0  0  0  0
  -21.2412  -28.9807   22.0800 C   0  0  0  0  0  0  0  0  0  0  0  0
  -23.9812  -15.9082   22.3054 C   0  0  0  0  0  0  0  0  0  0  0  0
  -18.5283  -30.6755   23.1701 C   0  0  0  0  0  0  0  0  0  0  0  0
  -17.7875  -30.6076   24.3501 C   0  0  0  0  0  0  0  0  0  0  0  0
  -28.5562  -23.5269   22.6282 C   0  0  0  0  0  0  0  0  0  0  0  0
  -26.3610  -16.0650   22.6673 C   0  0  0  0  0  0  0  0  0  0  0  0
  -16.9177  -28.4554   23.6802 C   0  0  0  0  0  0  0  0  0  0  0  0
  -23.3272  -29.9971   21.4075 C   0  0  0  0  0  0  0  0  0  0  0  0
  -29.1892  -21.2440   22.1544 C   0  0  0  0  0  0  0  0  0  0  0  0
  -28.5942  -22.1824   22.9976 C   0  0  0  0  0  0  0  0  0  0  0  0
  -25.4852  -30.9356   22.3923 C   0  0  0  0  0  0  0  0  0  0  0  0
  -24.2024   -8.2425   20.3994 C   0  0  0  0  0  0  0  0  0  0  0  0
  -25.5131  -14.7444   20.8243 C   0  0  0  0  0  0  0  0  0  0  0  0
  -24.6094   -9.3732   21.1330 C   0  0  0  0  0  0  0  0  0  0  0  0
  -26.6007  -15.2448   21.5543 C   0  0  0  0  0  0  0  0  0  0  0  0
  -29.1133  -23.9331   21.4156 C   0  0  0  0  0  0  0  0  0  0  0  0
  -20.5536  -29.7988   21.1834 C   0  0  0  0  0  0  0  0  0  0  0  0
  -25.0582  -16.3932   23.0415 C   0  0  0  0  0  0  0  0  0  0  0  0
  -18.4637  -29.6334   22.2452 C   0  0  0  0  0  0  0  0  0  0  0  0
  -16.9823  -29.4976   24.6052 C   0  0  0  0  0  0  0  0  0  0  0  0
  -17.6585  -28.5233   22.5003 C   0  0  0  0  0  0  0  0  0  0  0  0
  -24.7598  -30.0988   21.5232 C   0  0  0  0  0  0  0  0  0  0  0  0
  -26.8019  -30.6583   22.1165 C   0  0  0  0  0  0  0  0  0  0  0  0
  -29.2454  -19.8319   22.5105 C   0  0  0  0  0  0  0  0  0  0  0  0
  -29.8679  -19.3144   23.5917 C   0  0  0  0  0  0  0  0  0  0  0  0
  -27.9946  -21.7845   24.2871 C   0  0  0  0  0  0  0  0  0  0  0  0
  -25.0113  -31.8790   23.3624 C   0  0  0  0  0  0  0  0  0  0  0  0
  -27.1305  -12.0184   20.5858 C   0  0  0  0  0  0  0  0  0  0  0  0
  -29.4185  -13.9393   19.3217 C   0  0  0  0  0  0  0  0  0  0  0  0
  -30.7534  -17.0692   19.0593 C   0  0  0  0  0  0  0  0  0  0  0  0
  -29.5817  -25.8685   19.8725 C   0  0  0  0  0  0  0  0  0  0  0  0
  -25.1893   -7.3934   19.6380 C   0  0  0  0  0  0  0  0  0  0  0  0
  -25.7407  -13.8831   19.6124 C   0  0  0  0  0  0  0  0  0  0  0  0
  -28.0231  -14.9193   21.1814 C   0  0  0  0  0  0  0  0  0  0  0  0
  -26.5210   -8.0928   19.3777 C   0  0  0  0  0  0  0  0  0  0  0  0
  -29.6525  -29.1791   18.5640 C   0  0  0  0  0  0  0  0  0  0  0  0
  -27.0269   -8.7677   20.6486 C   0  0  0  0  0  0  0  0  0  0  0  0
  -28.4756  -29.8685   19.2581 C   0  0  0  0  0  0  0  0  0  0  0  0
  -29.3407  -27.7206   18.2334 C   0  0  0  0  0  0  0  0  0  0  0  0
  -27.6924  -27.6037   20.0606 C   0  0  0  0  0  0  0  0  0  0  0  0
  -26.0472   -9.8453   21.1286 C   0  0  1  0  0  0  0  0  0  0  0  0
  -27.0921  -13.1753   19.6277 C   0  0  1  0  0  0  0  0  0  0  0  0
  -27.9828  -29.0563   20.4718 C   0  0  2  0  0  0  0  0  0  0  0  0
  -29.9074  -17.8556   23.9129 C   0  0  0  0  0  0  0  0  0  0  0  0
  -32.6447  -18.3204   17.9848 C   0  0  0  0  0  0  0  0  0  0  0  0
  -31.3501  -12.7835   21.3815 C   0  0  0  0  0  0  0  0  0  0  0  0
  -32.8929  -14.6970   20.9056 C   0  0  0  0  0  0  0  0  0  0  0  0
  -32.3183  -13.0804   19.0948 C   0  0  0  0  0  0  0  0  0  0  0  0
  -24.5596  -18.9425   26.4494 C   0  0  0  0  0  0  0  0  0  0  0  0
  -24.1680  -20.0064   24.2197 C   0  0  0  0  0  0  0  0  0  0  0  0
  -28.8969  -18.8033   17.5410 C   0  0  0  0  0  0  0  0  0  0  0  0
  -26.3147  -20.4303   25.4873 C   0  0  0  0  0  0  0  0  0  0  0  0
  -25.8467  -18.1548   24.4311 C   0  0  0  0  0  0  0  0  0  1  0  0
  -30.5744  -14.7345   19.8789 C   0  0  1  0  0  0  0  0  0  0  0  0
  -31.1958  -17.8777   17.8531 C   0  0  2  0  0  0  0  0  0  0  0  0
  -31.7572  -13.8286   20.3236 C   0  0  0  0  0  0  0  0  0  0  0  0
  -25.2361  -19.3849   25.1369 C   0  0  0  0  0  0  0  0  0  0  0  0
  -25.5501  -29.3465   20.7528 N   0  0  0  0  0  0  0  0  0  0  0  0
  -26.7857  -29.7096   21.1368 N   0  0  0  0  0  0  0  0  0  0  0  0
  -28.1938  -14.0683   19.9921 N   0  0  0  0  0  0  0  0  0  0  0  0
  -28.8840  -27.0128   19.4315 N   0  0  0  0  0  0  0  0  0  0  0  0
  -27.9603  -31.1361   22.6187 N   0  0  0  0  0  0  0  0  0  0  0  0
  -28.4848  -22.3270   25.4017 N   0  0  0  0  0  0  0  0  0  0  0  0
  -23.6277  -32.0397   23.5176 N   0  0  0  0  0  0  0  0  0  0  0  0
  -29.0752  -25.2989   21.0402 N   0  0  0  0  0  0  0  0  0  0  0  0
  -26.1841  -11.0446   20.3302 N   0  0  0  0  0  0  0  0  0  0  0  0
  -30.9246  -15.7159   18.8578 N   0  0  0  0  0  0  0  0  0  0  0  0
  -26.9917  -20.8988   24.2749 N   0  3  0  0  0  0  0  0  0  0  0  0
  -30.3451  -19.0922   17.7033 N   0  3  0  0  0  0  0  0  0  0  0  0
  -25.7917  -32.5713   24.0589 O   0  0  0  0  0  0  0  0  0  0  0  0
  -27.9585  -12.0093   21.4891 O   0  0  0  0  0  0  0  0  0  0  0  0
  -29.5938  -13.2354   18.3240 O   0  0  0  0  0  0  0  0  0  0  0  0
  -30.3046  -17.5866   20.0798 O   0  0  0  0  0  0  0  0  0  0  0  0
  -30.5731  -25.4424   19.2747 O   0  0  0  0  0  0  0  0  0  0  0  0
  -19.2003  -29.7019   21.0746 O   0  0  0  0  0  0  0  0  0  0  0  0
  -24.8407  -17.1910   24.1223 O   0  0  0  0  0  0  0  0  0  1  0  0
  -16.2722  -29.4319   25.7390 F   0  0  0  0  0  0  0  0  0  0  0  0
  -17.5933  -27.5185   21.6160 F   0  0  0  0  0  0  0  0  0  0  0  0
  1  2  1  0  0  0  0
  1  6  2  0  0  0  0
  2  7  2  0  0  0  0
  3 10  2  0  0  0  0
  3 18  1  0  0  0  0
  4 11  1  0  0  0  0
  4 18  2  0  0  0  0
  5  9  2  0  0  0  0
  5 19  1  0  0  0  0
  6 22  1  0  0  0  0
  7 24  1  0  0  0  0
  8 12  2  0  0  0  0
  8 23  1  0  0  0  0
  9 26  1  0  0  0  0
 10 27  1  0  0  0  0
 11 27  2  0  0  0  0
 12 28  1  0  0  0  0
 13 14  2  0  0  0  0
 13 29  1  0  0  0  0
 14 30  1  0  0  0  0
 15 20  1  0  0  0  0
 15 26  2  0  0  0  0
 16 25  1  0  0  0  0
 16 28  2  0  0  0  0
 17 30  2  0  0  0  0
 17 31  1  0  0  0  0
 18 32  1  0  0  0  0
 19 20  2  0  0  0  0
 19 34  1  0  0  0  0
 20 36  1  0  0  0  0
 21 32  1  0  0  0  0
 21 33  2  0  0  0  0
 21 37  1  0  0  0  0
 22 24  2  0  0  0  0
 22 42  1  0  0  0  0
 23 25  2  0  0  0  0
 23 43  1  0  0  0  0
 24 51  1  0  0  0  0
 25 44  1  0  0  0  0
 26 75  1  0  0  0  0
 27 85  1  0  0  0  0
 28 86  1  0  0  0  0
 29 31  2  0  0  0  0
 29 85  1  0  0  0  0
 30 87  1  0  0  0  0
 31 88  1  0  0  0  0
 32 68  2  0  0  0  0
 33 69  1  0  0  0  0
 33 72  1  0  0  0  0
 34 35  2  0  0  0  0
 35 54  1  0  0  0  0
 36 73  1  0  0  0  0
 36 78  2  0  0  0  0
 37 74  1  0  0  0  0
 37 80  2  0  0  0  0
 38 52  1  0  0  0  0
 38 76  1  0  0  0  0
 38 81  2  0  0  0  0
 39 64  1  0  0  0  0
 39 70  1  0  0  0  0
 39 82  2  0  0  0  0
 40 65  1  0  0  0  0
 40 77  1  0  0  0  0
 40 83  2  0  0  0  0
 41 71  1  0  0  0  0
 41 75  1  0  0  0  0
 41 84  2  0  0  0  0
 42 45  1  0  0  0  0
 43 52  1  0  0  0  0
 44 70  1  0  0  0  0
 45 47  1  0  0  0  0
 46 48  1  0  0  0  0
 46 49  1  0  0  0  0
 47 51  1  0  0  0  0
 48 53  1  0  0  0  0
 49 71  1  0  0  0  0
 50 53  1  0  0  0  0
 50 71  1  0  0  0  0
 51 76  1  0  0  0  0
 52 70  1  0  0  0  0
 53 69  1  0  0  0  0
 55 65  1  0  0  0  0
 56 66  1  0  0  0  0
 57 66  1  0  0  0  0
 58 66  1  0  0  0  0
 59 67  1  0  0  0  0
 60 67  1  0  0  0  0
 61 79  1  0  0  0  0
 62 67  1  0  0  0  0
 62 78  1  0  0  0  0
 63 67  1  0  0  0  0
 63 86  1  0  0  0  0
 64 66  1  0  0  0  0
 64 77  1  0  0  0  0
 65 79  1  0  0  0  0
 68 69  1  0  0  0  0
M  CHG  2  78   1  79   1
M  ISO  4  41 100  63 101  75 100  86 101
M  END
> <Batch ID>
0058

> <Smiles>
CC=Cc1ccc([100NH:0][100C:0](=O)N2CCCC(n3nc(-c4ccc(Oc5ccc(F)cc5F)cc4)c(C(N)=O)c3N)C2)cc1C(=N)NCC(C)(C)[101CH2:1][101O:1]c1ccc2c(c1)CN(C(=O)C(NC(=O)C(C)NC)C(C)(C)C)C(C(=O)NC1CCCc3ccccc31)C2

> <Shape>
0.297

> <Color>
0.073

> <Negative vol penalty>
0.000

$$$$

  -OEChem-04042322583D

 83 91  0     1  0  0  0  0  0999 V2000
  -17.0931  -25.1755   24.1719 C   0  0  0  0  0  0  0  0  0  0  0  0
  -18.2713  -24.6441   24.6867 C   0  0  0  0  0  0  0  0  0  0  0  0
  -32.5347  -17.6724   23.3888 C   0  0  0  0  0  0  0  0  0  0  0  0
  -22.9991   -9.9253   20.0389 C   0  0  0  0  0  0  0  0  0  0  0  0
  -23.6972  -10.0534   22.3482 C   0  0  0  0  0  0  0  0  0  0  0  0
  -17.1460  -26.1931   23.2203 C   0  0  0  0  0  0  0  0  0  0  0  0
  -19.5032  -25.1294   24.2493 C   0  0  0  0  0  0  0  0  0  0  0  0
  -24.6160  -25.7201   27.5684 C   0  0  0  0  0  0  0  0  0  0  0  0
  -31.7238  -18.5836   24.0653 C   0  0  0  0  0  0  0  0  0  0  0  0
  -31.9645  -16.7437   22.5182 C   0  0  0  0  0  0  0  0  0  0  0  0
  -22.2400   -8.7923   20.3312 C   0  0  0  0  0  0  0  0  0  0  0  0
  -22.9381   -8.9203   22.6406 C   0  0  0  0  0  0  0  0  0  0  0  0
  -25.7520  -24.9212   27.6913 C   0  0  0  0  0  0  0  0  0  0  0  0
  -23.2183   -5.5710   22.2738 C   0  0  0  0  0  0  0  0  0  0  0  0
  -23.8065   -4.5829   23.0632 C   0  0  0  0  0  0  0  0  0  0  0  0
  -26.8787  -26.2809   26.0479 C   0  0  0  0  0  0  0  0  0  0  0  0
  -29.7723  -17.6372   23.0007 C   0  0  0  0  0  0  0  0  0  0  0  0
  -22.0613   -4.8604   24.7108 C   0  0  0  0  0  0  0  0  0  0  0  0
  -23.7278  -10.5559   21.0474 C   0  0  0  0  0  0  0  0  0  0  0  0
  -24.0921  -13.0685   20.7988 C   0  0  0  0  0  0  0  0  0  0  0  0
  -18.3791  -26.6978   22.7782 C   0  0  0  0  0  0  0  0  0  0  0  0
  -24.5991  -26.8006   26.6747 C   0  0  0  0  0  0  0  0  0  0  0  0
  -19.5727  -26.1539   23.2899 C   0  0  0  0  0  0  0  0  0  0  0  0
  -25.7422  -27.0935   25.9173 C   0  0  0  0  0  0  0  0  0  0  0  0
  -30.3426  -18.5660   23.8713 C   0  0  0  0  0  0  0  0  0  0  0  0
  -30.5833  -16.7261   22.3242 C   0  0  0  0  0  0  0  0  0  0  0  0
  -22.2094   -8.2898   21.6320 C   0  0  0  0  0  0  0  0  0  0  0  0
  -26.8826  -25.1998   26.9290 C   0  0  0  0  0  0  0  0  0  0  0  0
  -22.0517   -6.2039   22.7029 C   0  0  0  0  0  0  0  0  0  0  0  0
  -23.2279   -4.2275   24.2817 C   0  0  0  0  0  0  0  0  0  0  0  0
  -21.4732   -5.8486   23.9213 C   0  0  0  0  0  0  0  0  0  0  0  0
  -24.5126  -11.7260   20.7459 C   0  0  0  0  0  0  0  0  0  0  0  0
  -25.1993  -13.7901   20.4250 C   0  0  0  0  0  0  0  0  0  0  0  0
  -28.7499  -21.2464   25.9621 C   0  0  0  0  0  0  0  0  0  0  0  0
  -28.9213  -22.2446   26.8398 C   0  0  0  0  0  0  0  0  0  0  0  0
  -22.8148  -13.6143   21.1542 C   0  0  0  0  0  0  0  0  0  0  0  0
  -29.9226  -20.4749   25.4528 C   0  0  0  0  0  0  0  0  0  0  0  0
  -22.8934  -27.5566   24.1012 C   0  0  0  0  0  0  0  0  0  0  0  0
  -24.5307  -30.3486   24.3158 C   0  0  0  0  0  0  0  0  0  0  0  0
  -27.3070  -32.0022   25.4134 C   0  0  0  0  0  0  0  0  0  0  0  0
  -30.6667  -14.8099   20.6909 C   0  0  0  0  0  0  0  0  0  0  0  0
  -18.3866  -27.7657   21.7132 C   0  0  0  0  0  0  0  0  0  0  0  0
  -23.3750  -27.6689   26.5734 C   0  0  0  0  0  0  0  0  0  0  0  0
  -25.7821  -28.2543   24.9584 C   0  0  0  0  0  0  0  0  0  0  0  0
  -19.7275  -28.4827   21.5790 C   0  0  0  0  0  0  0  0  0  0  0  0
  -29.5977  -12.2767   18.4287 C   0  0  0  0  0  0  0  0  0  0  0  0
  -20.8719  -27.4744   21.5539 C   0  0  0  0  0  0  0  0  0  0  0  0
  -28.1449  -12.0181   18.8342 C   0  0  0  0  0  0  0  0  0  0  0  0
  -30.4820  -12.5654   19.6405 C   0  0  0  0  0  0  0  0  0  0  0  0
  -28.5443  -13.3764   20.9277 C   0  0  0  0  0  0  0  0  0  0  0  0
  -20.9280  -26.6709   22.8588 C   0  0  1  0  0  0  0  0  0  0  0  0
  -23.2916  -28.4325   25.2553 C   0  0  1  0  0  0  0  0  0  0  0  0
  -27.6021  -13.1448   19.7351 C   0  0  2  0  0  0  0  0  0  0  0  0
  -28.3812  -34.2701   25.4046 C   0  0  0  0  0  0  0  0  0  0  0  0
  -25.3526  -29.9455   21.4051 C   0  0  0  0  0  0  0  0  0  0  0  0
  -27.1362  -31.6698   21.7427 C   0  0  0  0  0  0  0  0  0  0  0  0
  -24.7349  -32.2950   21.9988 C   0  0  0  0  0  0  0  0  0  0  0  0
  -27.2443  -32.1712   28.3674 C   0  0  0  0  0  0  0  0  0  0  0  0
  -27.7914  -23.0517   27.3931 C   0  0  0  0  0  0  0  0  0  1  0  0
  -25.8390  -30.8656   23.7679 C   0  0  1  0  0  0  0  0  0  0  0  0
  -27.4688  -33.3150   26.1583 C   0  0  2  0  0  0  0  0  0  0  0  0
  -25.7646  -31.1708   22.2452 C   0  0  0  0  0  0  0  0  0  0  0  0
  -25.7875  -11.5996   20.3681 N   0  0  0  0  0  0  0  0  0  0  0  0
  -26.1775  -12.8718   20.1801 N   0  0  0  0  0  0  0  0  0  0  0  0
  -24.5584  -29.0700   24.8902 N   0  0  0  0  0  0  0  0  0  0  0  0
  -29.9076  -13.6463   20.4446 N   0  0  0  0  0  0  0  0  0  0  0  0
  -25.4218  -15.1143   20.2850 N   0  0  0  0  0  0  0  0  0  0  0  0
  -21.7873  -12.7313   21.5130 N   0  0  0  0  0  0  0  0  0  0  0  0
  -29.5197  -19.4920   24.5583 N   0  0  0  0  0  0  0  0  0  0  0  0
  -30.0047  -15.7824   21.4396 N   0  0  0  0  0  0  0  0  0  0  0  0
  -21.5278  -27.4604   23.9130 N   0  0  0  0  0  0  0  0  0  0  0  0
  -26.2005  -32.0148   24.5907 N   0  0  0  0  0  0  0  0  0  0  0  0
  -28.0516  -33.0757   27.5089 N   0  3  0  0  0  0  0  0  0  0  0  0
  -22.5865  -14.8477   21.1377 O   0  0  0  0  0  0  0  0  0  0  0  0
  -31.0624  -20.7326   25.8214 O   0  0  0  0  0  0  0  0  0  0  0  0
  -23.7608  -27.0098   23.4303 O   0  0  0  0  0  0  0  0  0  0  0  0
  -23.5230  -31.0563   24.2433 O   0  0  0  0  0  0  0  0  0  0  0  0
  -28.0865  -31.0611   25.5450 O   0  0  0  0  0  0  0  0  0  0  0  0
  -31.8092  -14.9457   20.2456 O   0  0  0  0  0  0  0  0  0  0  0  0
  -21.4686   -7.1843   21.9176 O   0  0  0  0  0  0  0  0  0  0  0  0
  -27.9925  -24.4213   27.0466 O   0  0  0  0  0  0  0  0  0  1  0  0
  -23.7920   -3.2774   25.0389 F   0  0  0  0  0  0  0  0  0  0  0  0
  -20.3518   -6.4522   24.3383 F   0  0  0  0  0  0  0  0  0  0  0  0
  1  2  1  0  0  0  0
  1  6  2  0  0  0  0
  2  7  2  0  0  0  0
  3  9  2  0  0  0  0
  3 10  1  0  0  0  0
  4 11  2  0  0  0  0
  4 19  1  0  0  0  0
  5 12  1  0  0  0  0
  5 19  2  0  0  0  0
  6 21  1  0  0  0  0
  7 23  1  0  0  0  0
  8 13  2  0  0  0  0
  8 22  1  0  0  0  0
  9 25  1  0  0  0  0
 10 26  2  0  0  0  0
 11 27  1  0  0  0  0
 12 27  2  0  0  0  0
 13 28  1  0  0  0  0
 14 15  2  0  0  0  0
 14 29  1  0  0  0  0
 15 30  1  0  0  0  0
 16 24  1  0  0  0  0
 16 28  2  0  0  0  0
 17 25  2  0  0  0  0
 17 26  1  0  0  0  0
 18 30  2  0  0  0  0
 18 31  1  0  0  0  0
 19 32  1  0  0  0  0
 20 32  1  0  0  0  0
 20 33  2  0  0  0  0
 20 36  1  0  0  0  0
 21 23  2  0  0  0  0
 21 42  1  0  0  0  0
 22 24  2  0  0  0  0
 22 43  1  0  0  0  0
 23 51  1  0  0  0  0
 24 44  1  0  0  0  0
 25 69  1  0  0  0  0
 26 70  1  0  0  0  0
 27 80  1  0  0  0  0
 28 81  1  0  0  0  0
 29 31  2  0  0  0  0
 29 80  1  0  0  0  0
 30 82  1  0  0  0  0
 31 83  1  0  0  0  0
 32 63  2  0  0  0  0
 33 64  1  0  0  0  0
 33 67  1  0  0  0  0
 34 35  2  0  0  0  0
 34 37  1  0  0  0  0
 35 59  1  0  0  0  0
 36 68  1  0  0  0  0
 36 74  2  0  0  0  0
 37 69  1  0  0  0  0
 37 75  2  0  0  0  0
 38 52  1  0  0  0  0
 38 71  1  0  0  0  0
 38 76  2  0  0  0  0
 39 60  1  0  0  0  0
 39 65  1  0  0  0  0
 39 77  2  0  0  0  0
 40 61  1  0  0  0  0
 40 72  1  0  0  0  0
 40 78  2  0  0  0  0
 41 66  1  0  0  0  0
 41 70  1  0  0  0  0
 41 79  2  0  0  0  0
 42 45  1  0  0  0  0
 43 52  1  0  0  0  0
 44 65  1  0  0  0  0
 45 47  1  0  0  0  0
 46 48  1  0  0  0  0
 46 49  1  0  0  0  0
 47 51  1  0  0  0  0
 48 53  1  0  0  0  0
 49 66  1  0  0  0  0
 50 53  1  0  0  0  0
 50 66  1  0  0  0  0
 51 71  1  0  0  0  0
 52 65  1  0  0  0  0
 53 64  1  0  0  0  0
 54 61  1  0  0  0  0
 55 62  1  0  0  0  0
 56 62  1  0  0  0  0
 57 62  1  0  0  0  0
 58 73  1  0  0  0  0
 59 81  1  0  0  0  0
 60 62  1  0  0  0  0
 60 72  1  0  0  0  0
 61 73  1  0  0  0  0
 63 64  1  0  0  0  0
M  CHG  1  73   1
M  ISO  4  41 100  59 101  70 100  81 101
M  END
> <Batch ID>
0058

> <Smiles>
CNC(C)C(=O)NC(C(=O)N1Cc2cc([101O:1][101CH2:1]C=CC(=O)Nc3cccc([100NH:0][100C:0](=O)N4CCCC(n5nc(-c6ccc(Oc7ccc(F)cc7F)cc6)c(C(N)=O)c5N)C4)c3)ccc2CC1C(=O)NC1CCCc2ccccc21)C(C)(C)C

> <Shape>
0.309

> <Color>
0.222

> <Negative vol penalty>
0.000

$$$$

  -OEChem-04042322583D

 91100  0     1  0  0  0  0  0999 V2000
  -29.3126  -32.0129   21.3975 C   0  0  0  0  0  0  0  0  0  0  0  0
  -29.0925  -30.7952   22.0333 C   0  0  0  0  0  0  0  0  0  0  0  0
  -31.6409  -19.2995   19.0662 C   0  0  0  0  0  0  0  0  0  0  0  0
  -23.0130  -10.0889   21.8905 C   0  0  0  0  0  0  0  0  0  0  0  0
  -24.5671  -10.5830   23.6731 C   0  0  0  0  0  0  0  0  0  0  0  0
  -28.2564  -32.9051   21.2176 C   0  0  0  0  0  0  0  0  0  0  0  0
  -27.8161  -30.4694   22.4905 C   0  0  0  0  0  0  0  0  0  0  0  0
  -26.4992  -25.7143   21.3505 C   0  0  0  0  0  0  0  0  0  0  0  0
  -30.7377  -20.3274   19.3368 C   0  0  0  0  0  0  0  0  0  0  0  0
  -31.2874  -17.9748   19.3233 C   0  0  0  0  0  0  0  0  0  0  0  0
  -22.3847   -9.1429   22.7005 C   0  0  0  0  0  0  0  0  0  0  0  0
  -23.9388   -9.6371   24.4831 C   0  0  0  0  0  0  0  0  0  0  0  0
  -27.0340  -24.6984   22.1416 C   0  0  0  0  0  0  0  0  0  0  0  0
  -22.9378   -5.9634   23.7049 C   0  0  0  0  0  0  0  0  0  0  0  0
  -22.6261   -4.7287   23.1359 C   0  0  0  0  0  0  0  0  0  0  0  0
  -24.9666  -24.5819   23.3791 C   0  0  0  0  0  0  0  0  0  0  0  0
  -20.2857   -5.1038   23.6039 C   0  0  0  0  0  0  0  0  0  0  0  0
  -24.1042  -10.8089   22.3768 C   0  0  0  0  0  0  0  0  0  0  0  0
  -24.1751  -12.9336   20.9668 C   0  0  0  0  0  0  0  0  0  0  0  0
  -26.9644  -32.5859   21.6642 C   0  0  0  0  0  0  0  0  0  0  0  0
  -25.1957  -26.1799   21.5752 C   0  0  0  0  0  0  0  0  0  0  0  0
  -26.7418  -31.3587   22.3176 C   0  0  0  0  0  0  0  0  0  0  0  0
  -24.4167  -25.6020   22.5878 C   0  0  0  0  0  0  0  0  0  0  0  0
  -29.4811  -20.0308   19.8646 C   0  0  0  0  0  0  0  0  0  0  0  0
  -29.1276  -18.7062   20.1217 C   0  0  0  0  0  0  0  0  0  0  0  0
  -30.0307  -17.6782   19.8511 C   0  0  0  0  0  0  0  0  0  0  0  0
  -22.8475   -8.9171   23.9968 C   0  0  0  0  0  0  0  0  0  0  0  0
  -26.2688  -24.1341   23.1580 C   0  0  0  0  0  0  0  0  0  0  0  0
  -21.9235   -6.7683   24.2236 C   0  0  0  0  0  0  0  0  0  0  0  0
  -21.3000   -4.2989   23.0854 C   0  0  0  0  0  0  0  0  0  0  0  0
  -20.5975   -6.3386   24.1730 C   0  0  0  0  0  0  0  0  0  0  0  0
  -24.7541  -11.7858   21.5404 C   0  0  0  0  0  0  0  0  0  0  0  0
  -25.2007  -13.5233   20.2690 C   0  0  0  0  0  0  0  0  0  0  0  0
  -26.6306  -18.7396   20.0056 C   0  0  0  0  0  0  0  0  0  0  0  0
  -25.2745  -19.6066   21.9189 C   0  0  0  0  0  0  0  0  0  0  0  0
  -22.8305  -13.4231   21.0568 C   0  0  0  0  0  0  0  0  0  0  0  0
  -23.9231  -28.9713   22.4072 C   0  0  0  0  0  0  0  0  0  0  0  0
  -21.1282  -27.4165   21.8653 C   0  0  0  0  0  0  0  0  0  0  0  0
  -19.7613  -24.1457   22.5367 C   0  0  0  0  0  0  0  0  0  0  0  0
  -30.4954  -15.2024   19.8826 C   0  0  0  0  0  0  0  0  0  0  0  0
  -25.8640  -33.6025   21.4894 C   0  0  0  0  0  0  0  0  0  0  0  0
  -24.6240  -27.2579   20.6958 C   0  0  0  0  0  0  0  0  0  0  0  0
  -23.0048  -26.0522   22.8566 C   0  0  0  0  0  0  0  0  0  0  0  0
  -25.3794  -18.5494   20.8469 C   0  0  0  0  0  0  0  0  0  0  0  0
  -24.4639  -33.0215   21.6689 C   0  0  0  0  0  0  0  0  0  0  0  0
  -29.8139  -11.7953   19.1055 C   0  0  0  0  0  0  0  0  0  0  0  0
  -24.4045  -32.1477   22.9178 C   0  0  0  0  0  0  0  0  0  0  0  0
  -28.3892  -11.5835   19.6225 C   0  0  0  0  0  0  0  0  0  0  0  0
  -30.6154  -12.7240   20.0159 C   0  0  0  0  0  0  0  0  0  0  0  0
  -28.5520  -13.8028   20.8204 C   0  0  0  0  0  0  0  0  0  0  0  0
  -27.7498  -17.7007   21.9519 C   0  0  0  0  0  0  0  0  0  0  0  0
  -25.3663  -30.9586   22.8054 C   0  0  1  0  0  0  0  0  0  0  0  0
  -23.4670  -28.0092   21.3470 C   0  0  1  0  0  0  0  0  0  0  0  0
  -27.6855  -12.9261   19.9016 C   0  0  2  0  0  0  0  0  0  0  0  0
  -27.2731  -18.5590   23.1386 C   0  0  2  0  0  0  0  0  0  0  0  0
  -28.5356  -21.1541   20.1438 C   0  0  0  0  0  0  0  0  0  0  0  0
  -26.7190  -17.6404   24.2338 C   0  0  0  0  0  0  0  0  0  0  0  0
  -17.9878  -22.8403   21.3334 C   0  0  0  0  0  0  0  0  0  0  0  0
  -28.6923  -21.7362   23.4712 C   0  0  0  0  0  0  0  0  0  0  0  0
  -19.2352  -28.6568   23.9118 C   0  0  0  0  0  0  0  0  0  0  0  0
  -18.0098  -26.4752   23.9970 C   0  0  0  0  0  0  0  0  0  0  0  0
  -18.1151  -27.7620   21.8626 C   0  0  0  0  0  0  0  0  0  0  0  0
  -21.5568  -21.8217   22.1706 C   0  0  0  0  0  0  0  0  0  0  0  0
  -26.3496  -20.7837   23.7762 C   0  0  0  0  0  0  0  0  0  0  0  0
  -20.1882  -26.5839   22.7031 C   0  0  1  0  0  0  0  0  0  0  0  0
  -19.4819  -23.0517   21.5220 C   0  0  2  0  0  0  0  0  0  0  0  0
  -27.1976  -21.9476   23.2685 C   0  0  1  0  0  0  0  0  0  1  0  0
  -18.9150  -27.3706   23.1242 C   0  0  0  0  0  0  0  0  0  0  0  0
  -26.0471  -11.6522   21.2335 N   0  0  0  0  0  0  0  0  0  0  0  0
  -26.2891  -12.7238   20.4594 N   0  0  0  0  0  0  0  0  0  0  0  0
  -27.8271  -18.4035   20.6676 N   0  0  0  0  0  0  0  0  0  0  0  0
  -26.3149  -19.6534   22.8507 N   0  0  0  0  0  0  0  0  0  0  0  0
  -22.4929  -27.1134   21.9738 N   0  0  0  0  0  0  0  0  0  0  0  0
  -29.8892  -13.9772   20.2321 N   0  0  0  0  0  0  0  0  0  0  0  0
  -25.2687  -14.6425   19.5173 N   0  0  0  0  0  0  0  0  0  0  0  0
  -21.9037  -12.6949   21.8151 N   0  0  0  0  0  0  0  0  0  0  0  0
  -29.6971  -16.3243   20.1030 N   0  0  0  0  0  0  0  0  0  0  0  0
  -24.8047  -29.9333   21.9524 N   0  0  0  0  0  0  0  0  0  0  0  0
  -19.9161  -25.3754   21.9323 N   0  0  0  0  0  0  0  0  0  0  0  0
  -20.0861  -21.7646   21.9684 N   0  3  0  0  0  0  0  0  0  0  0  0
  -26.5207  -19.2485   18.8900 O   0  0  0  0  0  0  0  0  0  0  0  0
  -24.3248  -20.3941   21.8984 O   0  0  0  0  0  0  0  0  0  0  0  0
  -22.4577  -14.4663   20.4683 O   0  0  0  0  0  0  0  0  0  0  0  0
  -23.5050  -28.8507   23.5528 O   0  0  0  0  0  0  0  0  0  0  0  0
  -20.6681  -28.2984   21.1358 O   0  0  0  0  0  0  0  0  0  0  0  0
  -19.8311  -23.9315   23.7449 O   0  0  0  0  0  0  0  0  0  0  0  0
  -31.6282  -15.2506   19.3963 O   0  0  0  0  0  0  0  0  0  0  0  0
  -22.2345   -7.9943   24.7875 O   0  0  0  0  0  0  0  0  0  0  0  0
  -26.7886  -23.1429   23.9320 O   0  0  0  0  0  0  0  0  0  1  0  0
  -21.0007   -3.1138   22.5375 F   0  0  0  0  0  0  0  0  0  0  0  0
  -19.6186   -7.1080   24.6686 F   0  0  0  0  0  0  0  0  0  0  0  0
  1  2  1  0  0  0  0
  1  6  2  0  0  0  0
  2  7  2  0  0  0  0
  3  9  1  0  0  0  0
  3 10  2  0  0  0  0
  4 11  2  0  0  0  0
  4 18  1  0  0  0  0
  5 12  1  0  0  0  0
  5 18  2  0  0  0  0
  6 20  1  0  0  0  0
  7 22  1  0  0  0  0
  8 13  2  0  0  0  0
  8 21  1  0  0  0  0
  9 24  2  0  0  0  0
 10 26  1  0  0  0  0
 11 27  1  0  0  0  0
 12 27  2  0  0  0  0
 13 28  1  0  0  0  0
 14 15  2  0  0  0  0
 14 29  1  0  0  0  0
 15 30  1  0  0  0  0
 16 23  1  0  0  0  0
 16 28  2  0  0  0  0
 17 30  2  0  0  0  0
 17 31  1  0  0  0  0
 18 32  1  0  0  0  0
 19 32  1  0  0  0  0
 19 33  2  0  0  0  0
 19 36  1  0  0  0  0
 20 22  2  0  0  0  0
 20 41  1  0  0  0  0
 21 23  2  0  0  0  0
 21 42  1  0  0  0  0
 22 52  1  0  0  0  0
 23 43  1  0  0  0  0
 24 25  1  0  0  0  0
 24 56  1  0  0  0  0
 25 26  2  0  0  0  0
 25 71  1  0  0  0  0
 26 77  1  0  0  0  0
 27 88  1  0  0  0  0
 28 89  1  0  0  0  0
 29 31  2  0  0  0  0
 29 88  1  0  0  0  0
 30 90  1  0  0  0  0
 31 91  1  0  0  0  0
 32 69  2  0  0  0  0
 33 70  1  0  0  0  0
 33 75  1  0  0  0  0
 34 44  1  0  0  0  0
 34 71  1  0  0  0  0
 34 81  2  0  0  0  0
 35 44  1  0  0  0  0
 35 72  1  0  0  0  0
 35 82  2  0  0  0  0
 36 76  1  0  0  0  0
 36 83  2  0  0  0  0
 37 53  1  0  0  0  0
 37 78  1  0  0  0  0
 37 84  2  0  0  0  0
 38 65  1  0  0  0  0
 38 73  1  0  0  0  0
 38 85  2  0  0  0  0
 39 66  1  0  0  0  0
 39 79  1  0  0  0  0
 39 86  2  0  0  0  0
 40 74  1  0  0  0  0
 40 77  1  0  0  0  0
 40 87  2  0  0  0  0
 41 45  1  0  0  0  0
 42 53  1  0  0  0  0
 43 73  1  0  0  0  0
 45 47  1  0  0  0  0
 46 48  1  0  0  0  0
 46 49  1  0  0  0  0
 47 52  1  0  0  0  0
 48 54  1  0  0  0  0
 49 74  1  0  0  0  0
 50 54  1  0  0  0  0
 50 74  1  0  0  0  0
 51 55  1  0  0  0  0
 51 71  1  0  0  0  0
 52 78  1  0  0  0  0
 53 73  1  0  0  0  0
 54 70  1  0  0  0  0
 55 57  1  0  0  0  0
 55 72  1  0  0  0  0
 58 66  1  0  0  0  0
 59 67  1  0  0  0  0
 60 68  1  0  0  0  0
 61 68  1  0  0  0  0
 62 68  1  0  0  0  0
 63 80  1  0  0  0  0
 64 67  1  0  0  0  0
 64 72  1  0  0  0  0
 65 68  1  0  0  0  0
 65 79  1  0  0  0  0
 66 80  1  0  0  0  0
 67 89  1  0  0  0  0
 69 70  1  0  0  0  0
M  CHG  1  80   1
M  ISO  4  40 100  67 101  77 100  89 101
M  END
> <Batch ID>
0058

> <Smiles>
CNC(C)C(=O)NC(C(=O)N1Cc2cc([101O:1][101CH:1](C)CN3C(=O)CC(=O)N(c4c(C)cccc4[100NH:0][100C:0](=O)N4CCCC(n5nc(-c6ccc(Oc7ccc(F)cc7F)cc6)c(C(N)=O)c5N)C4)CC3C)ccc2CC1C(=O)NC1CCCc2ccccc21)C(C)(C)C

> <Shape>
0.272

> <Color>
0.143

> <Negative vol penalty>
0.000

$$$$

  -OEChem-04042322583D

 90 98  0     1  0  0  0  0  0999 V2000
  -27.1512  -28.4967   16.3217 C   0  0  0  0  0  0  0  0  0  0  0  0
  -26.6792  -27.1916   16.4182 C   0  0  0  0  0  0  0  0  0  0  0  0
  -30.6031  -20.0874   19.6455 C   0  0  0  0  0  0  0  0  0  0  0  0
  -28.4629  -19.8494   20.7410 C   0  0  0  0  0  0  0  0  0  0  0  0
  -27.1690  -29.3155   17.4501 C   0  0  0  0  0  0  0  0  0  0  0  0
  -26.2257  -26.7042   17.6434 C   0  0  0  0  0  0  0  0  0  0  0  0
  -21.3853  -22.2109   20.4179 C   0  0  0  0  0  0  0  0  0  0  0  0
  -23.7216  -10.7498   19.2751 C   0  0  0  0  0  0  0  0  0  0  0  0
  -25.0650  -11.1248   19.2854 C   0  0  0  0  0  0  0  0  0  0  0  0
  -30.2254  -21.3473   19.1814 C   0  0  0  0  0  0  0  0  0  0  0  0
  -28.0852  -21.1094   20.2768 C   0  0  0  0  0  0  0  0  0  0  0  0
  -21.2961  -21.1333   21.2980 C   0  0  0  0  0  0  0  0  0  0  0  0
  -29.9988  -24.4895   20.4095 C   0  0  0  0  0  0  0  0  0  0  0  0
  -30.9252  -25.5262   20.5219 C   0  0  0  0  0  0  0  0  0  0  0  0
  -21.2997  -22.6638   23.1627 C   0  0  0  0  0  0  0  0  0  0  0  0
  -24.6142  -12.6906   21.0693 C   0  0  0  0  0  0  0  0  0  0  0  0
  -30.8898  -25.8178   18.1238 C   0  0  0  0  0  0  0  0  0  0  0  0
  -29.7218  -19.3384   20.4253 C   0  0  0  0  0  0  0  0  0  0  0  0
  -30.7639  -17.7366   22.1153 C   0  0  0  0  0  0  0  0  0  0  0  0
  -26.7064  -28.8410   18.6876 C   0  0  0  0  0  0  0  0  0  0  0  0
  -21.4435  -23.5246   20.9048 C   0  0  0  0  0  0  0  0  0  0  0  0
  -26.2385  -27.5170   18.7897 C   0  0  0  0  0  0  0  0  0  0  0  0
  -21.3871  -23.7564   22.2865 C   0  0  0  0  0  0  0  0  0  0  0  0
  -22.8244  -11.3452   20.1617 C   0  0  0  0  0  0  0  0  0  0  0  0
  -25.5113  -12.0951   20.1825 C   0  0  0  0  0  0  0  0  0  0  0  0
  -23.2707  -12.3156   21.0588 C   0  0  0  0  0  0  0  0  0  0  0  0
  -28.9665  -21.8583   19.4970 C   0  0  0  0  0  0  0  0  0  0  0  0
  -21.2562  -21.3595   22.6707 C   0  0  0  0  0  0  0  0  0  0  0  0
  -29.5180  -24.1168   19.1543 C   0  0  0  0  0  0  0  0  0  0  0  0
  -31.3706  -26.1904   19.3791 C   0  0  0  0  0  0  0  0  0  0  0  0
  -29.9634  -24.7810   18.0115 C   0  0  0  0  0  0  0  0  0  0  0  0
  -30.1112  -18.0365   20.9046 C   0  0  0  0  0  0  0  0  0  0  0  0
  -30.9067  -16.3706   22.0992 C   0  0  0  0  0  0  0  0  0  0  0  0
  -21.4473  -15.7054   24.2089 C   0  0  0  0  0  0  0  0  0  0  0  0
  -31.2021  -18.6143   23.1609 C   0  0  0  0  0  0  0  0  0  0  0  0
  -23.5733  -25.8796   20.7565 C   0  0  0  0  0  0  0  0  0  0  0  0
  -21.0212  -17.9450   24.0413 C   0  0  0  0  0  0  0  0  0  0  0  0
  -21.2183  -27.5765   22.2045 C   0  0  0  0  0  0  0  0  0  0  0  0
  -22.6668  -13.9089   22.9119 C   0  0  0  0  0  0  0  0  0  0  0  0
  -18.4060  -27.5622   24.1378 C   0  0  0  0  0  0  0  0  0  0  0  0
  -27.8965  -11.9835   19.3795 C   0  0  0  0  0  0  0  0  0  0  0  0
  -26.7892  -29.7480   19.8898 C   0  0  0  0  0  0  0  0  0  0  0  0
  -21.5127  -24.6775   19.9412 C   0  0  0  0  0  0  0  0  0  0  0  0
  -21.4260  -25.1489   22.8593 C   0  0  0  0  0  0  0  0  0  0  0  0
  -25.9418  -29.2759   21.0685 C   0  0  0  0  0  0  0  0  0  0  0  0
  -31.3726  -12.6896   19.0714 C   0  0  0  0  0  0  0  0  0  0  0  0
  -26.1507  -27.7847   21.3128 C   0  0  0  0  0  0  0  0  0  0  0  0
  -31.5040  -14.1113   19.6224 C   0  0  0  0  0  0  0  0  0  0  0  0
  -30.0712  -12.5006   18.2940 C   0  0  0  0  0  0  0  0  0  0  0  0
  -28.9848  -14.3061   19.5704 C   0  0  0  0  0  0  0  0  0  0  0  0
  -25.7151  -26.9599   20.0957 C   0  0  1  0  0  0  0  0  0  0  0  0
  -22.0842  -25.9460   20.5671 C   0  0  1  0  0  0  0  0  0  0  0  0
  -30.2497  -14.5263   20.4161 C   0  0  2  0  0  0  0  0  0  0  0  0
  -16.7272  -29.1060   25.1844 C   0  0  0  0  0  0  0  0  0  0  0  0
  -21.1510   -9.8310   19.0425 C   0  0  0  0  0  0  0  0  0  0  0  0
  -20.4576  -12.1290   19.8004 C   0  0  0  0  0  0  0  0  0  0  0  0
  -20.8409  -10.3186   21.4608 C   0  0  0  0  0  0  0  0  0  0  0  0
  -23.2519  -28.3285   24.3514 C   0  0  0  0  0  0  0  0  0  0  0  0
  -21.3451  -29.0378   25.8105 C   0  0  0  0  0  0  0  0  0  0  0  0
  -21.7489  -30.1959   23.6383 C   0  0  0  0  0  0  0  0  0  0  0  0
  -16.1741  -26.3563   22.6136 C   0  0  0  0  0  0  0  0  0  0  0  0
  -21.4199  -14.2981   23.6821 C   0  0  0  0  0  0  0  0  0  0  0  0
  -21.1240  -19.0027   22.9606 C   0  0  0  0  0  0  0  0  0  1  0  0
  -20.8189  -27.8449   23.6354 C   0  0  1  0  0  0  0  0  0  0  0  0
  -17.0653  -28.2544   23.9707 C   0  0  2  0  0  0  0  0  0  0  0  0
  -21.3911  -10.9240   20.1282 C   0  0  0  0  0  0  0  0  0  0  0  0
  -21.7924  -28.8253   24.3485 C   0  0  0  0  0  0  0  0  0  0  0  0
  -29.8569  -16.9486   20.1726 N   0  0  0  0  0  0  0  0  0  0  0  0
  -20.9590  -16.6745   23.5094 N   0  0  0  0  0  0  0  0  0  0  0  0
  -30.3526  -15.9518   20.9254 N   0  0  0  0  0  0  0  0  0  0  0  0
  -21.5001  -26.2427   21.8767 N   0  0  0  0  0  0  0  0  0  0  0  0
  -28.9260  -12.9099   19.1101 N   0  0  0  0  0  0  0  0  0  0  0  0
  -31.4509  -15.4990   22.9746 N   0  0  0  0  0  0  0  0  0  0  0  0
  -30.9762  -19.9900   23.0170 N   0  0  0  0  0  0  0  0  0  0  0  0
  -22.3758  -12.9312   21.9660 N   0  0  0  0  0  0  0  0  0  0  0  0
  -26.8762  -12.4757   20.1927 N   0  0  0  0  0  0  0  0  0  0  0  0
  -24.2732  -26.8424   20.0547 N   0  0  0  0  0  0  0  0  0  0  0  0
  -19.4343  -28.3025   23.5937 N   0  0  0  0  0  0  0  0  0  0  0  0
  -15.9820  -27.2477   23.7865 N   0  3  0  0  0  0  0  0  0  0  0  0
  -31.7914  -18.1927   24.1849 O   0  0  0  0  0  0  0  0  0  0  0  0
  -24.0518  -25.0194   21.4866 O   0  0  0  0  0  0  0  0  0  0  0  0
  -21.0008  -18.2438   25.2336 O   0  0  0  0  0  0  0  0  0  0  0  0
  -21.2713  -28.5147   21.4053 O   0  0  0  0  0  0  0  0  0  0  0  0
  -23.7536  -14.4310   23.1383 O   0  0  0  0  0  0  0  0  0  0  0  0
  -18.5293  -26.4754   24.6983 O   0  0  0  0  0  0  0  0  0  0  0  0
  -27.9319  -10.8294   18.9449 O   0  0  0  0  0  0  0  0  0  0  0  0
  -28.5977  -23.0879   19.0445 O   0  0  0  0  0  0  0  0  0  0  0  0
  -21.1698  -20.3095   23.5321 O   0  0  0  0  0  0  0  0  0  1  0  0
  -32.2591  -27.1870   19.4873 F   0  0  0  0  0  0  0  0  0  0  0  0
  -29.5042  -24.4282   16.8029 F   0  0  0  0  0  0  0  0  0  0  0  0
  1  2  1  0  0  0  0
  1  5  2  0  0  0  0
  2  6  2  0  0  0  0
  3 10  2  0  0  0  0
  3 18  1  0  0  0  0
  4 11  1  0  0  0  0
  4 18  2  0  0  0  0
  5 20  1  0  0  0  0
  6 22  1  0  0  0  0
  7 12  2  0  0  0  0
  7 21  1  0  0  0  0
  8  9  2  0  0  0  0
  8 24  1  0  0  0  0
  9 25  1  0  0  0  0
 10 27  1  0  0  0  0
 11 27  2  0  0  0  0
 12 28  1  0  0  0  0
 13 14  2  0  0  0  0
 13 29  1  0  0  0  0
 14 30  1  0  0  0  0
 15 23  1  0  0  0  0
 15 28  2  0  0  0  0
 16 25  2  0  0  0  0
 16 26  1  0  0  0  0
 17 30  2  0  0  0  0
 17 31  1  0  0  0  0
 18 32  1  0  0  0  0
 19 32  1  0  0  0  0
 19 33  2  0  0  0  0
 19 35  1  0  0  0  0
 20 22  2  0  0  0  0
 20 42  1  0  0  0  0
 21 23  2  0  0  0  0
 21 43  1  0  0  0  0
 22 51  1  0  0  0  0
 23 44  1  0  0  0  0
 24 26  2  0  0  0  0
 24 66  1  0  0  0  0
 25 76  1  0  0  0  0
 26 75  1  0  0  0  0
 27 87  1  0  0  0  0
 28 88  1  0  0  0  0
 29 31  2  0  0  0  0
 29 87  1  0  0  0  0
 30 89  1  0  0  0  0
 31 90  1  0  0  0  0
 32 68  2  0  0  0  0
 33 70  1  0  0  0  0
 33 73  1  0  0  0  0
 34 62  1  0  0  0  0
 34 69  2  0  0  0  0
 35 74  1  0  0  0  0
 35 80  2  0  0  0  0
 36 52  1  0  0  0  0
 36 77  1  0  0  0  0
 36 81  2  0  0  0  0
 37 63  1  0  0  0  0
 37 69  1  0  0  0  0
 37 82  2  0  0  0  0
 38 64  1  0  0  0  0
 38 71  1  0  0  0  0
 38 83  2  0  0  0  0
 39 62  1  0  0  0  0
 39 75  1  0  0  0  0
 39 84  2  0  0  0  0
 40 65  1  0  0  0  0
 40 78  1  0  0  0  0
 40 85  2  0  0  0  0
 41 72  1  0  0  0  0
 41 76  1  0  0  0  0
 41 86  2  0  0  0  0
 42 45  1  0  0  0  0
 43 52  1  0  0  0  0
 44 71  1  0  0  0  0
 45 47  1  0  0  0  0
 46 48  1  0  0  0  0
 46 49  1  0  0  0  0
 47 51  1  0  0  0  0
 48 53  1  0  0  0  0
 49 72  1  0  0  0  0
 50 53  1  0  0  0  0
 50 72  1  0  0  0  0
 51 77  1  0  0  0  0
 52 71  1  0  0  0  0
 53 70  1  0  0  0  0
 54 65  1  0  0  0  0
 55 66  1  0  0  0  0
 56 66  1  0  0  0  0
 57 66  1  0  0  0  0
 58 67  1  0  0  0  0
 59 67  1  0  0  0  0
 60 67  1  0  0  0  0
 61 79  1  0  0  0  0
 63 88  1  0  0  0  0
 64 67  1  0  0  0  0
 64 78  1  0  0  0  0
 65 79  1  0  0  0  0
 68 70  1  0  0  0  0
M  CHG  1  79   1
M  ISO  4  41 100  63 101  76 100  88 101
M  END
> <Batch ID>
0058

> <Smiles>
CNC(C)C(=O)NC(C(=O)N1Cc2cc([101O:1][101CH2:1]C(=O)NC=CC(=O)Nc3cc([100NH:0][100C:0](=O)N4CCCC(n5nc(-c6ccc(Oc7ccc(F)cc7F)cc6)c(C(N)=O)c5N)C4)ccc3C(C)(C)C)ccc2CC1C(=O)NC1CCCc2ccccc21)C(C)(C)C

> <Shape>
0.283

> <Color>
0.059

> <Negative vol penalty>
0.000

$$$$

  -OEChem-04042322583D

 90 99  0     1  0  0  0  0  0999 V2000
  -18.4885  -32.4468   28.2593 C   0  0  0  0  0  0  0  0  0  0  0  0
  -19.0153  -31.3598   27.5691 C   0  0  0  0  0  0  0  0  0  0  0  0
  -23.2184   -9.7768   21.5562 C   0  0  0  0  0  0  0  0  0  0  0  0
  -23.7335  -10.9511   23.6038 C   0  0  0  0  0  0  0  0  0  0  0  0
  -18.9979  -33.7255   28.0370 C   0  0  0  0  0  0  0  0  0  0  0  0
  -20.0512  -31.5510   26.6554 C   0  0  0  0  0  0  0  0  0  0  0  0
  -24.6782  -27.7151   25.4798 C   0  0  0  0  0  0  0  0  0  0  0  0
  -24.9646  -24.2333   20.1427 C   0  0  0  0  0  0  0  0  0  0  0  0
  -22.5203   -8.8134   22.2843 C   0  0  0  0  0  0  0  0  0  0  0  0
  -23.0354   -9.9877   24.3320 C   0  0  0  0  0  0  0  0  0  0  0  0
  -24.8851  -26.7768   24.4696 C   0  0  0  0  0  0  0  0  0  0  0  0
  -25.2954  -23.4297   19.0516 C   0  0  0  0  0  0  0  0  0  0  0  0
  -23.2498   -6.1104   24.1780 C   0  0  0  0  0  0  0  0  0  0  0  0
  -23.4735   -4.7708   23.8600 C   0  0  0  0  0  0  0  0  0  0  0  0
  -29.2018  -18.6155   21.1141 C   0  0  0  0  0  0  0  0  0  0  0  0
  -26.1589  -28.4051   23.2264 C   0  0  0  0  0  0  0  0  0  0  0  0
  -26.5873  -23.0626   21.4968 C   0  0  0  0  0  0  0  0  0  0  0  0
  -31.4805  -17.8134   21.1483 C   0  0  0  0  0  0  0  0  0  0  0  0
  -21.1330   -4.5080   23.3212 C   0  0  0  0  0  0  0  0  0  0  0  0
  -23.8250  -10.8456   22.2160 C   0  0  0  0  0  0  0  0  0  0  0  0
  -29.6401  -19.8777   21.5145 C   0  0  0  0  0  0  0  0  0  0  0  0
  -24.0311  -13.0290   20.9129 C   0  0  0  0  0  0  0  0  0  0  0  0
  -20.0470  -33.9311   27.1272 C   0  0  0  0  0  0  0  0  0  0  0  0
  -25.2017  -29.0110   25.3657 C   0  0  0  0  0  0  0  0  0  0  0  0
  -20.5742  -32.8338   26.4198 C   0  0  0  0  0  0  0  0  0  0  0  0
  -25.9594  -29.3572   24.2378 C   0  0  0  0  0  0  0  0  0  0  0  0
  -25.6107  -24.0498   21.3653 C   0  0  0  0  0  0  0  0  0  0  0  0
  -30.9986  -20.1078   21.7317 C   0  0  0  0  0  0  0  0  0  0  0  0
  -30.1220  -17.5833   20.9311 C   0  0  0  0  0  0  0  0  0  0  0  0
  -26.9180  -22.2590   20.4057 C   0  0  0  0  0  0  0  0  0  0  0  0
  -22.4288   -8.9188   23.6722 C   0  0  0  0  0  0  0  0  0  0  0  0
  -25.6231  -27.1226   23.3413 C   0  0  0  0  0  0  0  0  0  0  0  0
  -26.2720  -22.4426   19.1831 C   0  0  0  0  0  0  0  0  0  0  0  0
  -21.9678   -6.6488   24.0677 C   0  0  0  0  0  0  0  0  0  0  0  0
  -22.4151   -3.9696   23.4316 C   0  0  0  0  0  0  0  0  0  0  0  0
  -31.9188  -19.0757   21.5486 C   0  0  0  0  0  0  0  0  0  0  0  0
  -20.9094   -5.8476   23.6393 C   0  0  0  0  0  0  0  0  0  0  0  0
  -24.5467  -11.8409   21.4645 C   0  0  0  0  0  0  0  0  0  0  0  0
  -25.1101  -13.6209   20.3030 C   0  0  0  0  0  0  0  0  0  0  0  0
  -28.6468  -20.9494   21.7005 C   0  0  0  0  0  0  0  0  0  0  0  0
  -22.6963  -13.5511   20.9488 C   0  0  0  0  0  0  0  0  0  0  0  0
  -23.9528  -31.9307   25.2271 C   0  0  0  0  0  0  0  0  0  0  0  0
  -27.0625  -32.8444   25.3561 C   0  0  0  0  0  0  0  0  0  0  0  0
  -30.3382  -32.0585   24.8092 C   0  0  0  0  0  0  0  0  0  0  0  0
  -30.4588  -15.1683   20.2979 C   0  0  0  0  0  0  0  0  0  0  0  0
  -20.5328  -35.3383   26.8854 C   0  0  0  0  0  0  0  0  0  0  0  0
  -24.9922  -30.0033   26.4765 C   0  0  0  0  0  0  0  0  0  0  0  0
  -26.5601  -30.7289   24.0764 C   0  0  0  0  0  0  0  0  0  0  0  0
  -21.8837  -35.4031   26.1774 C   0  0  0  0  0  0  0  0  0  0  0  0
  -29.7385  -11.8199   19.3251 C   0  0  0  0  0  0  0  0  0  0  0  0
  -21.9087  -34.4498   24.9868 C   0  0  0  0  0  0  0  0  0  0  0  0
  -28.2811  -11.6246   19.7496 C   0  0  0  0  0  0  0  0  0  0  0  0
  -30.5086  -12.6840   20.3221 C   0  0  0  0  0  0  0  0  0  0  0  0
  -28.4295  -13.7823   21.0570 C   0  0  0  0  0  0  0  0  0  0  0  0
  -21.7149  -32.9974   25.4389 C   0  0  1  0  0  0  0  0  0  0  0  0
  -25.1364  -31.4515   26.0190 C   0  0  1  0  0  0  0  0  0  0  0  0
  -27.5963  -12.9722   20.0504 C   0  0  2  0  0  0  0  0  0  0  0  0
  -31.4919  -21.4511   22.1621 C   0  0  0  0  0  0  0  0  0  0  0  0
  -32.6493  -33.0223   24.9740 C   0  0  0  0  0  0  0  0  0  0  0  0
  -26.5540  -34.4882   22.8364 C   0  0  0  0  0  0  0  0  0  0  0  0
  -29.0329  -34.6406   22.5195 C   0  0  0  0  0  0  0  0  0  0  0  0
  -27.9745  -35.6233   24.5534 C   0  0  0  0  0  0  0  0  0  0  0  0
  -31.1879  -29.9906   26.7485 C   0  0  0  0  0  0  0  0  0  0  0  0
  -25.2542  -24.9146   22.5385 C   0  0  0  0  0  0  0  0  0  1  0  0
  -28.1420  -33.1101   24.3347 C   0  0  1  0  0  0  0  0  0  0  0  0
  -31.5710  -32.2160   25.6809 C   0  0  2  0  0  0  0  0  0  0  0  0
  -27.9130  -34.4402   23.5629 C   0  0  0  0  0  0  0  0  0  0  0  0
  -25.8517  -11.6855   21.2259 N   0  0  0  0  0  0  0  0  0  0  0  0
  -26.1652  -12.7837   20.5176 N   0  0  0  0  0  0  0  0  0  0  0  0
  -26.3220  -31.6659   25.1867 N   0  0  0  0  0  0  0  0  0  0  0  0
  -29.8027  -13.9459   20.5547 N   0  0  0  0  0  0  0  0  0  0  0  0
  -25.2497  -14.7706   19.6094 N   0  0  0  0  0  0  0  0  0  0  0  0
  -21.7089  -12.8154   21.6182 N   0  0  0  0  0  0  0  0  0  0  0  0
  -27.8978  -21.2743   20.5527 N   0  0  0  0  0  0  0  0  0  0  0  0
  -29.6773  -16.3008   20.5245 N   0  0  0  0  0  0  0  0  0  0  0  0
  -22.9428  -32.4739   25.9980 N   0  0  0  0  0  0  0  0  0  0  0  0
  -29.4094  -33.0476   25.0546 N   0  0  0  0  0  0  0  0  0  0  0  0
  -32.1342  -30.8805   26.0277 N   0  3  0  0  0  0  0  0  0  0  0  0
  -28.5289  -21.5219   22.7818 O   0  0  0  0  0  0  0  0  0  0  0  0
  -22.3847  -14.6297   20.3893 O   0  0  0  0  0  0  0  0  0  0  0  0
  -23.9562  -31.8173   24.0070 O   0  0  0  0  0  0  0  0  0  0  0  0
  -26.8878  -33.6491   26.2746 O   0  0  0  0  0  0  0  0  0  0  0  0
  -30.2134  -31.1511   23.9896 O   0  0  0  0  0  0  0  0  0  0  0  0
  -31.6188  -15.2069   19.8798 O   0  0  0  0  0  0  0  0  0  0  0  0
  -26.5804  -21.6677   18.1048 O   0  0  0  0  0  0  0  0  0  0  0  0
  -21.7475   -7.9791   24.3830 O   0  0  0  0  0  0  0  0  0  0  0  0
  -25.8261  -26.2088   22.3535 O   0  0  0  0  0  0  0  0  0  1  0  0
  -22.6303   -2.6836   23.1248 F   0  0  0  0  0  0  0  0  0  0  0  0
  -33.2265  -19.2859   21.7552 F   0  0  0  0  0  0  0  0  0  0  0  0
  -19.6757   -6.3595   23.5302 F   0  0  0  0  0  0  0  0  0  0  0  0
  1  2  1  0  0  0  0
  1  5  2  0  0  0  0
  2  6  2  0  0  0  0
  3  9  2  0  0  0  0
  3 20  1  0  0  0  0
  4 10  1  0  0  0  0
  4 20  2  0  0  0  0
  5 23  1  0  0  0  0
  6 25  1  0  0  0  0
  7 11  2  0  0  0  0
  7 24  1  0  0  0  0
  8 12  2  0  0  0  0
  8 27  1  0  0  0  0
  9 31  1  0  0  0  0
 10 31  2  0  0  0  0
 11 32  1  0  0  0  0
 12 33  1  0  0  0  0
 13 14  2  0  0  0  0
 13 34  1  0  0  0  0
 14 35  1  0  0  0  0
 15 21  1  0  0  0  0
 15 29  2  0  0  0  0
 16 26  1  0  0  0  0
 16 32  2  0  0  0  0
 17 27  2  0  0  0  0
 17 30  1  0  0  0  0
 18 29  1  0  0  0  0
 18 36  2  0  0  0  0
 19 35  2  0  0  0  0
 19 37  1  0  0  0  0
 20 38  1  0  0  0  0
 21 28  2  0  0  0  0
 21 40  1  0  0  0  0
 22 38  1  0  0  0  0
 22 39  2  0  0  0  0
 22 41  1  0  0  0  0
 23 25  2  0  0  0  0
 23 46  1  0  0  0  0
 24 26  2  0  0  0  0
 24 47  1  0  0  0  0
 25 55  1  0  0  0  0
 26 48  1  0  0  0  0
 27 64  1  0  0  0  0
 28 36  1  0  0  0  0
 28 58  1  0  0  0  0
 29 75  1  0  0  0  0
 30 33  2  0  0  0  0
 30 74  1  0  0  0  0
 31 86  1  0  0  0  0
 32 87  1  0  0  0  0
 33 85  1  0  0  0  0
 34 37  2  0  0  0  0
 34 86  1  0  0  0  0
 35 88  1  0  0  0  0
 36 89  1  0  0  0  0
 37 90  1  0  0  0  0
 38 68  2  0  0  0  0
 39 69  1  0  0  0  0
 39 72  1  0  0  0  0
 40 74  1  0  0  0  0
 40 79  2  0  0  0  0
 41 73  1  0  0  0  0
 41 80  2  0  0  0  0
 42 56  1  0  0  0  0
 42 76  1  0  0  0  0
 42 81  2  0  0  0  0
 43 65  1  0  0  0  0
 43 70  1  0  0  0  0
 43 82  2  0  0  0  0
 44 66  1  0  0  0  0
 44 77  1  0  0  0  0
 44 83  2  0  0  0  0
 45 71  1  0  0  0  0
 45 75  1  0  0  0  0
 45 84  2  0  0  0  0
 46 49  1  0  0  0  0
 47 56  1  0  0  0  0
 48 70  1  0  0  0  0
 49 51  1  0  0  0  0
 50 52  1  0  0  0  0
 50 53  1  0  0  0  0
 51 55  1  0  0  0  0
 52 57  1  0  0  0  0
 53 71  1  0  0  0  0
 54 57  1  0  0  0  0
 54 71  1  0  0  0  0
 55 76  1  0  0  0  0
 56 70  1  0  0  0  0
 57 69  1  0  0  0  0
 59 66  1  0  0  0  0
 60 67  1  0  0  0  0
 61 67  1  0  0  0  0
 62 67  1  0  0  0  0
 63 78  1  0  0  0  0
 64 87  1  0  0  0  0
 65 67  1  0  0  0  0
 65 77  1  0  0  0  0
 66 78  1  0  0  0  0
 68 69  1  0  0  0  0
M  CHG  1  78   1
M  ISO  4  45 100  64 101  75 100  87 101
M  END
> <Batch ID>
0058

> <Smiles>
CNC(C)C(=O)NC(C(=O)N1Cc2cc([101O:1][101CH2:1]C3=CCC(=O)C(NC(=O)c4cc([100NH:0][100C:0](=O)N5CCCC(n6nc(-c7ccc(Oc8ccc(F)cc8F)cc7)c(C(N)=O)c6N)C5)cc(F)c4C)=C3)ccc2CC1C(=O)NC1CCCc2ccccc21)C(C)(C)C

> <Shape>
0.246

> <Color>
0.135

> <Negative vol penalty>
0.000

$$$$

  -OEChem-04042322583D

 87 95  0     1  0  0  0  0  0999 V2000
  -27.0583  -19.2702   24.5483 C   0  0  0  0  0  0  0  0  0  0  0  0
  -27.3934  -20.2639   23.6341 C   0  0  0  0  0  0  0  0  0  0  0  0
  -26.6205  -12.0672   20.7851 C   0  0  0  0  0  0  0  0  0  0  0  0
  -25.2329  -13.9034   20.0505 C   0  0  0  0  0  0  0  0  0  0  0  0
  -25.7243  -19.0704   24.9012 C   0  0  0  0  0  0  0  0  0  0  0  0
  -26.3945  -21.0576   23.0714 C   0  0  0  0  0  0  0  0  0  0  0  0
  -27.6242  -25.9696   23.0028 C   0  0  0  0  0  0  0  0  0  0  0  0
  -30.6599  -21.9969   19.7900 C   0  0  0  0  0  0  0  0  0  0  0  0
  -30.5529  -23.1636   19.0332 C   0  0  0  0  0  0  0  0  0  0  0  0
  -25.4991  -11.4343   21.3214 C   0  0  0  0  0  0  0  0  0  0  0  0
  -24.1115  -13.2706   20.5867 C   0  0  0  0  0  0  0  0  0  0  0  0
  -28.5080  -26.3909   22.0103 C   0  0  0  0  0  0  0  0  0  0  0  0
  -22.9458   -9.1657   22.5660 C   0  0  0  0  0  0  0  0  0  0  0  0
  -22.7921   -7.8012   22.3211 C   0  0  0  0  0  0  0  0  0  0  0  0
  -26.6490  -27.2180   20.7144 C   0  0  0  0  0  0  0  0  0  0  0  0
  -28.3165  -21.5411   19.4187 C   0  0  0  0  0  0  0  0  0  0  0  0
  -22.7403   -8.2337   19.9446 C   0  0  0  0  0  0  0  0  0  0  0  0
  -26.4874  -13.3018   20.1497 C   0  0  0  0  0  0  0  0  0  0  0  0
  -28.1561  -13.8204   18.2912 C   0  0  0  0  0  0  0  0  0  0  0  0
  -24.7096  -19.8684   24.3498 C   0  0  0  0  0  0  0  0  0  0  0  0
  -26.2429  -26.1599   22.8534 C   0  0  0  0  0  0  0  0  0  0  0  0
  -25.0456  -20.8673   23.4162 C   0  0  0  0  0  0  0  0  0  0  0  0
  -25.7500  -26.8005   21.7076 C   0  0  0  0  0  0  0  0  0  0  0  0
  -28.2095  -22.7079   18.6619 C   0  0  0  0  0  0  0  0  0  0  0  0
  -29.5417  -21.1856   19.9827 C   0  0  0  0  0  0  0  0  0  0  0  0
  -29.3277  -23.5192   18.4691 C   0  0  0  0  0  0  0  0  0  0  0  0
  -24.2446  -12.0360   21.2222 C   0  0  0  0  0  0  0  0  0  0  0  0
  -28.0203  -27.0126   20.8646 C   0  0  0  0  0  0  0  0  0  0  0  0
  -22.9967  -10.0643   21.5003 C   0  0  0  0  0  0  0  0  0  0  0  0
  -22.6894   -7.3352   21.0104 C   0  0  0  0  0  0  0  0  0  0  0  0
  -22.8940   -9.5982   20.1896 C   0  0  0  0  0  0  0  0  0  0  0  0
  -27.6455  -13.9563   19.5960 C   0  0  0  0  0  0  0  0  0  0  0  0
  -29.2561  -14.6425   18.2657 C   0  0  0  0  0  0  0  0  0  0  0  0
  -27.6788  -13.0225   17.1998 C   0  0  0  0  0  0  0  0  0  0  0  0
  -23.7203  -24.2346   22.6694 C   0  0  0  0  0  0  0  0  0  0  0  0
  -22.0728  -27.0281   22.7347 C   0  0  0  0  0  0  0  0  0  0  0  0
  -22.0490  -30.3918   22.1587 C   0  0  0  0  0  0  0  0  0  0  0  0
  -30.7921  -19.5044   21.3814 C   0  0  0  0  0  0  0  0  0  0  0  0
  -23.2771  -19.5837   24.7261 C   0  0  0  0  0  0  0  0  0  0  0  0
  -25.3048  -25.7237   23.9453 C   0  0  0  0  0  0  0  0  0  0  0  0
  -24.2775  -27.0467   21.5082 C   0  0  0  0  0  0  0  0  0  0  0  0
  -22.3169  -20.7152   24.3681 C   0  0  0  0  0  0  0  0  0  0  0  0
  -32.6342  -16.4680   21.1276 C   0  0  0  0  0  0  0  0  0  0  0  0
  -22.5734  -21.2031   22.9458 C   0  0  0  0  0  0  0  0  0  0  0  0
  -31.6120  -15.4684   20.5816 C   0  0  0  0  0  0  0  0  0  0  0  0
  -31.9967  -17.4546   22.1043 C   0  0  0  0  0  0  0  0  0  0  0  0
  -29.7916  -17.1587   21.0464 C   0  0  0  0  0  0  0  0  0  0  0  0
  -23.9930  -21.7651   22.8029 C   0  0  1  0  0  0  0  0  0  0  0  0
  -23.8768  -25.5061   23.4546 C   0  0  1  0  0  0  0  0  0  0  0  0
  -30.3735  -16.1850   20.0086 C   0  0  2  0  0  0  0  0  0  0  0  0
  -20.5468  -32.3989   22.2700 C   0  0  0  0  0  0  0  0  0  0  0  0
  -20.6646  -26.1125   20.1874 C   0  0  0  0  0  0  0  0  0  0  0  0
  -19.9200  -28.4763   19.8324 C   0  0  0  0  0  0  0  0  0  0  0  0
  -19.1758  -27.2271   21.8594 C   0  0  0  0  0  0  0  0  0  0  0  0
  -30.6216  -28.2218   17.6882 C   0  0  0  0  0  0  0  0  0  0  0  0
  -28.9615  -27.2066   16.1190 C   0  0  0  0  0  0  0  0  0  0  0  0
  -23.7992  -31.7370   24.1301 C   0  0  0  0  0  0  0  0  0  0  0  0
  -30.1914  -25.7649   17.8086 C   0  0  0  0  0  0  0  0  0  0  0  0
  -28.3924  -27.4306   18.5531 C   0  0  0  0  0  0  0  0  0  1  0  0
  -21.5768  -28.0014   21.6927 C   0  0  1  0  0  0  0  0  0  0  0  0
  -21.5744  -31.5561   23.0094 C   0  0  2  0  0  0  0  0  0  0  0  0
  -26.8849  -23.0655   18.0701 C   0  0  0  0  0  0  0  0  0  0  0  0
  -20.3619  -27.4481   20.8955 C   0  0  0  0  0  0  0  0  0  0  0  0
  -29.5301  -27.1403   17.5487 C   0  0  0  0  0  0  0  0  0  0  0  0
  -28.3623  -14.7983   20.3452 N   0  0  0  0  0  0  0  0  0  0  0  0
  -29.3346  -15.1989   19.5084 N   0  0  0  0  0  0  0  0  0  0  0  0
  -23.4000  -26.5964   22.6013 N   0  0  0  0  0  0  0  0  0  0  0  0
  -30.8326  -18.0983   21.4915 N   0  0  0  0  0  0  0  0  0  0  0  0
  -30.1543  -14.9364   17.3016 N   0  0  0  0  0  0  0  0  0  0  0  0
  -26.5354  -12.2363   17.3970 N   0  0  0  0  0  0  0  0  0  0  0  0
  -29.6509  -20.0008   20.7522 N   0  0  0  0  0  0  0  0  0  0  0  0
  -29.2398  -24.6809   17.7203 N   0  0  0  0  0  0  0  0  0  0  0  0
  -24.0694  -23.0950   23.3685 N   0  0  0  0  0  0  0  0  0  0  0  0
  -21.3107  -29.2517   22.3958 N   0  0  0  0  0  0  0  0  0  0  0  0
  -22.7233  -32.4313   23.3770 N   0  3  0  0  0  0  0  0  0  0  0  0
  -28.2589  -12.9945   16.0880 O   0  0  0  0  0  0  0  0  0  0  0  0
  -23.3117  -24.2838   21.5151 O   0  0  0  0  0  0  0  0  0  0  0  0
  -21.3129  -26.6699   23.6379 O   0  0  0  0  0  0  0  0  0  0  0  0
  -22.9792  -30.4855   21.3608 O   0  0  0  0  0  0  0  0  0  0  0  0
  -31.7152  -20.2141   21.7891 O   0  0  0  0  0  0  0  0  0  0  0  0
  -23.1501  -11.4186   21.7451 O   0  0  0  0  0  0  0  0  0  0  0  0
  -28.8807  -27.4243   19.8940 O   0  0  0  0  0  0  0  0  0  1  0  0
  -22.5433   -6.0246   20.7752 F   0  0  0  0  0  0  0  0  0  0  0  0
  -22.9434  -10.4565   19.1617 F   0  0  0  0  0  0  0  0  0  0  0  0
  -25.8995  -22.1656   18.3565 F   0  0  0  0  0  0  0  0  0  0  0  0
  -26.4055  -24.2699   18.4974 F   0  0  0  0  0  0  0  0  0  0  0  0
  -26.9256  -23.1468   16.7093 F   0  0  0  0  0  0  0  0  0  0  0  0
  1  2  1  0  0  0  0
  1  5  2  0  0  0  0
  2  6  2  0  0  0  0
  3 10  2  0  0  0  0
  3 18  1  0  0  0  0
  4 11  1  0  0  0  0
  4 18  2  0  0  0  0
  5 20  1  0  0  0  0
  6 22  1  0  0  0  0
  7 12  2  0  0  0  0
  7 21  1  0  0  0  0
  8  9  2  0  0  0  0
  8 25  1  0  0  0  0
  9 26  1  0  0  0  0
 10 27  1  0  0  0  0
 11 27  2  0  0  0  0
 12 28  1  0  0  0  0
 13 14  2  0  0  0  0
 13 29  1  0  0  0  0
 14 30  1  0  0  0  0
 15 23  1  0  0  0  0
 15 28  2  0  0  0  0
 16 24  1  0  0  0  0
 16 25  2  0  0  0  0
 17 30  2  0  0  0  0
 17 31  1  0  0  0  0
 18 32  1  0  0  0  0
 19 32  1  0  0  0  0
 19 33  2  0  0  0  0
 19 34  1  0  0  0  0
 20 22  2  0  0  0  0
 20 39  1  0  0  0  0
 21 23  2  0  0  0  0
 21 40  1  0  0  0  0
 22 48  1  0  0  0  0
 23 41  1  0  0  0  0
 24 26  2  0  0  0  0
 24 62  1  0  0  0  0
 25 71  1  0  0  0  0
 26 72  1  0  0  0  0
 27 81  1  0  0  0  0
 28 82  1  0  0  0  0
 29 31  2  0  0  0  0
 29 81  1  0  0  0  0
 30 83  1  0  0  0  0
 31 84  1  0  0  0  0
 32 65  2  0  0  0  0
 33 66  1  0  0  0  0
 33 69  1  0  0  0  0
 34 70  1  0  0  0  0
 34 76  2  0  0  0  0
 35 49  1  0  0  0  0
 35 73  1  0  0  0  0
 35 77  2  0  0  0  0
 36 60  1  0  0  0  0
 36 67  1  0  0  0  0
 36 78  2  0  0  0  0
 37 61  1  0  0  0  0
 37 74  1  0  0  0  0
 37 79  2  0  0  0  0
 38 68  1  0  0  0  0
 38 71  1  0  0  0  0
 38 80  2  0  0  0  0
 39 42  1  0  0  0  0
 40 49  1  0  0  0  0
 41 67  1  0  0  0  0
 42 44  1  0  0  0  0
 43 45  1  0  0  0  0
 43 46  1  0  0  0  0
 44 48  1  0  0  0  0
 45 50  1  0  0  0  0
 46 68  1  0  0  0  0
 47 50  1  0  0  0  0
 47 68  1  0  0  0  0
 48 73  1  0  0  0  0
 49 67  1  0  0  0  0
 50 66  1  0  0  0  0
 51 61  1  0  0  0  0
 52 63  1  0  0  0  0
 53 63  1  0  0  0  0
 54 63  1  0  0  0  0
 55 64  1  0  0  0  0
 56 64  1  0  0  0  0
 57 75  1  0  0  0  0
 58 64  1  0  0  0  0
 58 72  1  0  0  0  0
 59 64  1  0  0  0  0
 59 82  1  0  0  0  0
 60 63  1  0  0  0  0
 60 74  1  0  0  0  0
 61 75  1  0  0  0  0
 62 85  1  0  0  0  0
 62 86  1  0  0  0  0
 62 87  1  0  0  0  0
 65 66  1  0  0  0  0
M  CHG  1  75   1
M  ISO  4  38 100  59 101  71 100  82 101
M  END
> <Batch ID>
0058

> <Smiles>
CNC(C)C(=O)NC(C(=O)N1Cc2cc([101O:1][101CH2:1]C(C)(C)CNc3ccc([100NH:0][100C:0](=O)N4CCCC(n5nc(-c6ccc(Oc7ccc(F)cc7F)cc6)c(C(N)=O)c5N)C4)cc3C(F)(F)F)ccc2CC1C(=O)NC1CCCc2ccccc21)C(C)(C)C

> <Shape>
0.251

> <Color>
0.060

> <Negative vol penalty>
0.000

$$$$

  -OEChem-04042322583D

 83 91  0     1  0  0  0  0  0999 V2000
  -19.9030  -20.1280   22.5449 C   0  0  0  0  0  0  0  0  0  0  0  0
  -20.7407  -20.3940   21.4665 C   0  0  0  0  0  0  0  0  0  0  0  0
  -26.0175  -14.1923   21.8716 C   0  0  0  0  0  0  0  0  0  0  0  0
  -24.8886  -15.4676   20.1580 C   0  0  0  0  0  0  0  0  0  0  0  0
  -19.2449  -21.1744   23.1897 C   0  0  0  0  0  0  0  0  0  0  0  0
  -20.9199  -21.7067   21.0316 C   0  0  0  0  0  0  0  0  0  0  0  0
  -26.0411  -24.1570   18.7348 C   0  0  0  0  0  0  0  0  0  0  0  0
  -30.3633  -25.7064   18.5985 C   0  0  0  0  0  0  0  0  0  0  0  0
  -30.9937  -23.9553   17.0579 C   0  0  0  0  0  0  0  0  0  0  0  0
  -30.0544  -24.7469   19.5626 C   0  0  0  0  0  0  0  0  0  0  0  0
  -30.6848  -22.9958   18.0221 C   0  0  0  0  0  0  0  0  0  0  0  0
  -24.9409  -13.3069   21.9219 C   0  0  0  0  0  0  0  0  0  0  0  0
  -23.8120  -14.5822   20.2083 C   0  0  0  0  0  0  0  0  0  0  0  0
  -26.4620  -24.3961   17.4274 C   0  0  0  0  0  0  0  0  0  0  0  0
  -23.7756  -10.6970   20.1155 C   0  0  0  0  0  0  0  0  0  0  0  0
  -24.0598   -9.3317   20.1413 C   0  0  0  0  0  0  0  0  0  0  0  0
  -25.6661  -26.6673   17.5929 C   0  0  0  0  0  0  0  0  0  0  0  0
  -22.9318   -9.1371   22.2690 C   0  0  0  0  0  0  0  0  0  0  0  0
  -25.9914  -15.2727   20.9896 C   0  0  0  0  0  0  0  0  0  0  0  0
  -28.2430  -16.0950   20.1170 C   0  0  0  0  0  0  0  0  0  0  0  0
  -19.4238  -22.5016   22.7686 C   0  0  0  0  0  0  0  0  0  0  0  0
  -25.4186  -25.1698   19.4786 C   0  0  0  0  0  0  0  0  0  0  0  0
  -20.2626  -22.7717   21.6705 C   0  0  0  0  0  0  0  0  0  0  0  0
  -25.2405  -26.4393   18.9104 C   0  0  0  0  0  0  0  0  0  0  0  0
  -30.8329  -25.3105   17.3460 C   0  0  0  0  0  0  0  0  0  0  0  0
  -30.2152  -23.3917   19.2745 C   0  0  0  0  0  0  0  0  0  0  0  0
  -23.8381  -13.5018   21.0903 C   0  0  0  0  0  0  0  0  0  0  0  0
  -26.2720  -25.6505   16.8552 C   0  0  0  0  0  0  0  0  0  0  0  0
  -23.0695  -11.2824   21.1665 C   0  0  0  0  0  0  0  0  0  0  0  0
  -23.6379   -8.5517   21.2181 C   0  0  0  0  0  0  0  0  0  0  0  0
  -22.6476  -10.5025   22.2432 C   0  0  0  0  0  0  0  0  0  0  0  0
  -27.1029  -16.1880   20.9376 C   0  0  0  0  0  0  0  0  0  0  0  0
  -28.9922  -17.1988   20.4437 C   0  0  0  0  0  0  0  0  0  0  0  0
  -28.5935  -15.0998   19.1462 C   0  0  0  0  0  0  0  0  0  0  0  0
  -22.5560  -25.5382   20.8103 C   0  0  0  0  0  0  0  0  0  0  0  0
  -23.8882  -28.2470   21.9977 C   0  0  0  0  0  0  0  0  0  0  0  0
  -29.3733  -26.3800   14.5770 C   0  0  0  0  0  0  0  0  0  0  0  0
  -26.2678  -30.6755   21.7028 C   0  0  0  0  0  0  0  0  0  0  0  0
  -29.4255  -22.6395   21.5454 C   0  0  0  0  0  0  0  0  0  0  0  0
  -18.6543  -23.5947   23.4669 C   0  0  0  0  0  0  0  0  0  0  0  0
  -24.9945  -24.9037   20.8969 C   0  0  0  0  0  0  0  0  0  0  0  0
  -24.5959  -27.5664   19.6737 C   0  0  0  0  0  0  0  0  0  0  0  0
  -19.1907  -24.9951   23.1813 C   0  0  0  0  0  0  0  0  0  0  0  0
  -28.4993  -20.5076   24.2425 C   0  0  0  0  0  0  0  0  0  0  0  0
  -19.4448  -25.1752   21.6881 C   0  0  0  0  0  0  0  0  0  0  0  0
  -28.1473  -19.1861   23.5556 C   0  0  0  0  0  0  0  0  0  0  0  0
  -28.0676  -21.7127   23.4088 C   0  0  0  0  0  0  0  0  0  0  0  0
  -28.1959  -20.3903   21.3342 C   0  0  0  0  0  0  0  0  0  0  0  0
  -20.5020  -24.1849   21.1849 C   0  0  1  0  0  0  0  0  0  0  0  0
  -23.9076  -25.8569   21.3843 C   0  0  1  0  0  0  0  0  0  0  0  0
  -28.6695  -19.1478   22.1060 C   0  0  2  0  0  0  0  0  0  0  0  0
  -27.0835  -32.7781   22.8033 C   0  0  0  0  0  0  0  0  0  0  0  0
  -21.5202  -29.7750   20.8281 C   0  0  0  0  0  0  0  0  0  0  0  0
  -22.8338  -31.8877   21.1096 C   0  0  0  0  0  0  0  0  0  0  0  0
  -22.2226  -30.5255   23.1080 C   0  0  0  0  0  0  0  0  0  0  0  0
  -28.9347  -29.5043   22.2272 C   0  0  0  0  0  0  0  0  0  0  0  0
  -31.1653  -26.3434   16.3083 C   0  0  0  0  0  0  0  0  0  0  0  0
  -28.1452  -27.1820   14.1759 C   0  0  0  0  0  0  0  0  0  0  0  0
  -27.0797  -27.2192   15.2605 C   0  0  0  0  0  0  0  0  0  1  0  0
  -24.0037  -29.6768   21.5271 C   0  0  1  0  0  0  0  0  0  0  0  0
  -27.2336  -31.2674   22.7135 C   0  0  2  0  0  0  0  0  0  0  0  0
  -22.6555  -30.4446   21.6279 C   0  0  0  0  0  0  0  0  0  0  0  0
  -27.1220  -17.2657   21.7264 N   0  0  0  0  0  0  0  0  0  0  0  0
  -28.2832  -17.8599   21.4030 N   0  0  0  0  0  0  0  0  0  0  0  0
  -24.1925  -27.2549   21.0549 N   0  0  0  0  0  0  0  0  0  0  0  0
  -28.6027  -21.6101   22.0494 N   0  0  0  0  0  0  0  0  0  0  0  0
  -30.1819  -17.6586   20.0012 N   0  0  0  0  0  0  0  0  0  0  0  0
  -27.7101  -14.0324   18.9347 N   0  0  0  0  0  0  0  0  0  0  0  0
  -29.9018  -22.4168   20.2538 N   0  0  0  0  0  0  0  0  0  0  0  0
  -21.8283  -24.6300   21.5554 N   0  0  0  0  0  0  0  0  0  0  0  0
  -29.9782  -26.9087   15.7083 N   0  0  0  0  0  0  0  0  0  0  0  0
  -25.0901  -30.2733   22.2966 N   0  0  0  0  0  0  0  0  0  0  0  0
  -28.6397  -30.9567   22.3298 N   0  3  0  0  0  0  0  0  0  0  0  0
  -29.6661  -15.1467   18.4975 O   0  0  0  0  0  0  0  0  0  0  0  0
  -22.1992  -26.0775   19.7694 O   0  0  0  0  0  0  0  0  0  0  0  0
  -23.5476  -28.0190   23.1612 O   0  0  0  0  0  0  0  0  0  0  0  0
  -29.7625  -25.3911   13.9617 O   0  0  0  0  0  0  0  0  0  0  0  0
  -26.5303  -30.5827   20.5058 O   0  0  0  0  0  0  0  0  0  0  0  0
  -29.7104  -23.6319   22.2207 O   0  0  0  0  0  0  0  0  0  0  0  0
  -22.7875  -12.6379   21.1390 O   0  0  0  0  0  0  0  0  0  0  0  0
  -26.6813  -25.8864   15.5790 O   0  0  0  0  0  0  0  0  0  1  0  0
  -23.9095   -7.2403   21.2420 F   0  0  0  0  0  0  0  0  0  0  0  0
  -21.9679  -11.0591   23.2551 F   0  0  0  0  0  0  0  0  0  0  0  0
  1  2  1  0  0  0  0
  1  5  2  0  0  0  0
  2  6  2  0  0  0  0
  3 12  2  0  0  0  0
  3 19  1  0  0  0  0
  4 13  1  0  0  0  0
  4 19  2  0  0  0  0
  5 21  1  0  0  0  0
  6 23  1  0  0  0  0
  7 14  2  0  0  0  0
  7 22  1  0  0  0  0
  8 10  2  0  0  0  0
  8 25  1  0  0  0  0
  9 11  1  0  0  0  0
  9 25  2  0  0  0  0
 10 26  1  0  0  0  0
 11 26  2  0  0  0  0
 12 27  1  0  0  0  0
 13 27  2  0  0  0  0
 14 28  1  0  0  0  0
 15 16  2  0  0  0  0
 15 29  1  0  0  0  0
 16 30  1  0  0  0  0
 17 24  1  0  0  0  0
 17 28  2  0  0  0  0
 18 30  2  0  0  0  0
 18 31  1  0  0  0  0
 19 32  1  0  0  0  0
 20 32  1  0  0  0  0
 20 33  2  0  0  0  0
 20 34  1  0  0  0  0
 21 23  2  0  0  0  0
 21 40  1  0  0  0  0
 22 24  2  0  0  0  0
 22 41  1  0  0  0  0
 23 49  1  0  0  0  0
 24 42  1  0  0  0  0
 25 57  1  0  0  0  0
 26 69  1  0  0  0  0
 27 80  1  0  0  0  0
 28 81  1  0  0  0  0
 29 31  2  0  0  0  0
 29 80  1  0  0  0  0
 30 82  1  0  0  0  0
 31 83  1  0  0  0  0
 32 63  2  0  0  0  0
 33 64  1  0  0  0  0
 33 67  1  0  0  0  0
 34 68  1  0  0  0  0
 34 74  2  0  0  0  0
 35 50  1  0  0  0  0
 35 70  1  0  0  0  0
 35 75  2  0  0  0  0
 36 60  1  0  0  0  0
 36 65  1  0  0  0  0
 36 76  2  0  0  0  0
 37 58  1  0  0  0  0
 37 71  1  0  0  0  0
 37 77  2  0  0  0  0
 38 61  1  0  0  0  0
 38 72  1  0  0  0  0
 38 78  2  0  0  0  0
 39 66  1  0  0  0  0
 39 69  1  0  0  0  0
 39 79  2  0  0  0  0
 40 43  1  0  0  0  0
 41 50  1  0  0  0  0
 42 65  1  0  0  0  0
 43 45  1  0  0  0  0
 44 46  1  0  0  0  0
 44 47  1  0  0  0  0
 45 49  1  0  0  0  0
 46 51  1  0  0  0  0
 47 66  1  0  0  0  0
 48 51  1  0  0  0  0
 48 66  1  0  0  0  0
 49 70  1  0  0  0  0
 50 65  1  0  0  0  0
 51 64  1  0  0  0  0
 52 61  1  0  0  0  0
 53 62  1  0  0  0  0
 54 62  1  0  0  0  0
 55 62  1  0  0  0  0
 56 73  1  0  0  0  0
 57 71  1  0  0  0  0
 58 59  1  0  0  0  0
 59 81  1  0  0  0  0
 60 62  1  0  0  0  0
 60 72  1  0  0  0  0
 61 73  1  0  0  0  0
 63 64  1  0  0  0  0
M  CHG  1  73   1
M  ISO  4  39 100  59 101  69 100  81 101
M  END
> <Batch ID>
0058

> <Smiles>
CNC(C)C(=O)NC(C(=O)N1Cc2cc([101O:1][101CH2:1]CC(=O)NCc3ccc([100NH:0][100C:0](=O)N4CCCC(n5nc(-c6ccc(Oc7ccc(F)cc7F)cc6)c(C(N)=O)c5N)C4)cc3)ccc2CC1C(=O)NC1CCCc2ccccc21)C(C)(C)C

> <Shape>
0.232

> <Color>
0.040

> <Negative vol penalty>
0.000

$$$$

  -OEChem-04042322583D

 84 92  0     1  0  0  0  0  0999 V2000
  -18.3210  -25.4686   22.4150 C   0  0  0  0  0  0  0  0  0  0  0  0
  -19.5874  -25.5704   21.8482 C   0  0  0  0  0  0  0  0  0  0  0  0
  -27.5903  -10.6340   21.8240 C   0  0  0  0  0  0  0  0  0  0  0  0
  -26.0448  -11.4804   20.1711 C   0  0  0  0  0  0  0  0  0  0  0  0
  -17.6178  -26.6223   22.7592 C   0  0  0  0  0  0  0  0  0  0  0  0
  -20.1508  -26.8261   21.6241 C   0  0  0  0  0  0  0  0  0  0  0  0
  -25.0023  -27.0620   23.0569 C   0  0  0  0  0  0  0  0  0  0  0  0
  -26.5440   -9.9663   22.4604 C   0  0  0  0  0  0  0  0  0  0  0  0
  -24.9985  -10.8127   20.8075 C   0  0  0  0  0  0  0  0  0  0  0  0
  -25.9467  -26.4938   22.2031 C   0  0  0  0  0  0  0  0  0  0  0  0
  -23.7922   -7.6602   20.9724 C   0  0  0  0  0  0  0  0  0  0  0  0
  -22.8953   -6.9525   20.1723 C   0  0  0  0  0  0  0  0  0  0  0  0
  -26.4786  -28.6842   21.3437 C   0  0  0  0  0  0  0  0  0  0  0  0
  -28.5336  -20.6758   17.4384 C   0  0  0  0  0  0  0  0  0  0  0  0
  -21.0837   -8.3284   20.9863 C   0  0  0  0  0  0  0  0  0  0  0  0
  -27.1118  -19.0939   16.6996 C   0  0  0  0  0  0  0  0  0  0  0  0
  -27.3407  -11.3911   20.6794 C   0  0  0  0  0  0  0  0  0  0  0  0
  -29.2470  -11.5856   18.9953 C   0  0  0  0  0  0  0  0  0  0  0  0
  -18.1769  -27.8925   22.5482 C   0  0  0  0  0  0  0  0  0  0  0  0
  -24.7808  -28.4467   23.0528 C   0  0  0  0  0  0  0  0  0  0  0  0
  -19.4539  -27.9979   21.9646 C   0  0  0  0  0  0  0  0  0  0  0  0
  -25.5326  -29.2678   22.2003 C   0  0  0  0  0  0  0  0  0  0  0  0
  -28.1405  -19.3228   17.5865 C   0  0  0  0  0  0  0  0  0  0  0  0
  -25.2481  -10.0556   21.9522 C   0  0  0  0  0  0  0  0  0  0  0  0
  -26.6830  -27.3046   21.3443 C   0  0  0  0  0  0  0  0  0  0  0  0
  -23.3350   -8.7019   21.7796 C   0  0  0  0  0  0  0  0  0  0  0  0
  -21.5410   -7.2867   20.1792 C   0  0  0  0  0  0  0  0  0  0  0  0
  -21.9808   -9.0360   21.7865 C   0  0  0  0  0  0  0  0  0  0  0  0
  -28.4210  -12.0815   20.0218 C   0  0  0  0  0  0  0  0  0  0  0  0
  -27.7330  -21.2326   16.4656 C   0  0  0  0  0  0  0  0  0  0  0  0
  -30.1081  -12.6191   18.7181 C   0  0  0  0  0  0  0  0  0  0  0  0
  -27.1756  -25.8316   19.5955 C   0  0  0  0  0  0  0  0  0  1  0  0
  -29.2366  -10.3053   18.3500 C   0  0  0  0  0  0  0  0  0  0  0  0
  -27.9300  -25.1830   18.6946 C   0  0  0  0  0  0  0  0  0  0  0  0
  -27.2507  -24.2097   17.7807 C   0  0  0  0  0  0  0  0  0  0  0  0
  -22.2951  -30.3188   22.4049 C   0  0  0  0  0  0  0  0  0  0  0  0
  -24.2829  -32.6601   23.4487 C   0  0  0  0  0  0  0  0  0  0  0  0
  -27.4830  -33.7215   23.9773 C   0  0  0  0  0  0  0  0  0  0  0  0
  -29.7229  -18.5445   19.3856 C   0  0  0  0  0  0  0  0  0  0  0  0
  -17.3592  -29.1120   22.8929 C   0  0  0  0  0  0  0  0  0  0  0  0
  -23.7774  -29.0470   23.9990 C   0  0  0  0  0  0  0  0  0  0  0  0
  -25.3472  -30.7622   22.1718 C   0  0  0  0  0  0  0  0  0  0  0  0
  -18.1819  -30.3957   22.9682 C   0  0  0  0  0  0  0  0  0  0  0  0
  -32.2034  -16.4019   20.7760 C   0  0  0  0  0  0  0  0  0  0  0  0
  -19.1113  -30.5055   21.7637 C   0  0  0  0  0  0  0  0  0  0  0  0
  -31.5927  -15.0051   20.6414 C   0  0  0  0  0  0  0  0  0  0  0  0
  -31.1460  -17.4538   21.1061 C   0  0  0  0  0  0  0  0  0  0  0  0
  -29.3832  -16.0862   20.0614 C   0  0  0  0  0  0  0  0  0  0  0  0
  -20.1091  -29.3415   21.7289 C   0  0  1  0  0  0  0  0  0  0  0  0
  -23.2699  -30.4120   23.5446 C   0  0  1  0  0  0  0  0  0  0  0  0
  -30.4000  -15.0032   19.6652 C   0  0  2  0  0  0  0  0  0  0  0  0
  -28.7921  -35.6956   24.8058 C   0  0  0  0  0  0  0  0  0  0  0  0
  -23.7388  -34.1191   20.8246 C   0  0  0  0  0  0  0  0  0  0  0  0
  -25.7435  -35.5470   21.2836 C   0  0  0  0  0  0  0  0  0  0  0  0
  -23.7982  -35.5924   22.8446 C   0  0  0  0  0  0  0  0  0  0  0  0
  -25.8612  -20.4253   15.0028 C   0  0  0  0  0  0  0  0  0  0  0  0
  -28.6884  -32.1471   26.1743 C   0  0  0  0  0  0  0  0  0  0  0  0
  -27.7179  -22.6286   15.9134 C   0  0  0  0  0  0  0  0  0  0  0  0
  -25.3048  -33.5626   22.8005 C   0  0  1  0  0  0  0  0  0  0  0  0
  -28.1427  -34.3723   25.1797 C   0  0  2  0  0  0  0  0  0  0  0  0
  -24.6487  -34.6769   21.9372 C   0  0  0  0  0  0  0  0  0  0  0  0
  -28.7298  -13.3326   20.3731 N   0  0  0  0  0  0  0  0  0  0  0  0
  -26.8724  -20.2619   16.0238 N   0  0  0  0  0  0  0  0  0  0  0  0
  -29.7595  -13.6316   19.5628 N   0  0  0  0  0  0  0  0  0  0  0  0
  -24.3498  -31.3009   23.1112 N   0  0  0  0  0  0  0  0  0  0  0  0
  -30.0495  -17.3958   20.1370 N   0  0  0  0  0  0  0  0  0  0  0  0
  -31.1221  -12.7514   17.8368 N   0  0  0  0  0  0  0  0  0  0  0  0
  -28.2852   -9.3599   18.7566 N   0  0  0  0  0  0  0  0  0  0  0  0
  -28.6849  -18.3605   18.4727 N   0  0  0  0  0  0  0  0  0  0  0  0
  -28.1286  -23.6044   16.8979 N   0  0  0  0  0  0  0  0  0  0  0  0
  -21.1743  -29.5602   22.6838 N   0  0  0  0  0  0  0  0  0  0  0  0
  -26.1505  -34.0624   23.8791 N   0  0  0  0  0  0  0  0  0  0  0  0
  -29.1921  -33.4764   25.7427 N   0  3  0  0  0  0  0  0  0  0  0  0
  -30.0577  -10.0027   17.4512 O   0  0  0  0  0  0  0  0  0  0  0  0
  -26.0427  -23.9959   17.8335 O   0  0  0  0  0  0  0  0  0  0  0  0
  -22.5408  -30.8940   21.3511 O   0  0  0  0  0  0  0  0  0  0  0  0
  -23.4602  -33.1422   24.2312 O   0  0  0  0  0  0  0  0  0  0  0  0
  -28.0899  -32.9875   23.2006 O   0  0  0  0  0  0  0  0  0  0  0  0
  -30.3382  -19.6052   19.5211 O   0  0  0  0  0  0  0  0  0  0  0  0
  -29.2896  -25.3541   18.5534 O   0  0  0  0  0  0  0  0  0  0  0  0
  -24.2269   -9.4040   22.5728 O   0  0  0  0  0  0  0  0  0  0  0  0
  -27.6050  -26.7526   20.5094 O   0  0  0  0  0  0  0  0  0  1  0  0
  -20.6800   -6.6080   19.4096 F   0  0  0  0  0  0  0  0  0  0  0  0
  -21.5358  -10.0366   22.5589 F   0  0  0  0  0  0  0  0  0  0  0  0
  1  2  1  0  0  0  0
  1  5  2  0  0  0  0
  2  6  2  0  0  0  0
  3  8  2  0  0  0  0
  3 17  1  0  0  0  0
  4  9  1  0  0  0  0
  4 17  2  0  0  0  0
  5 19  1  0  0  0  0
  6 21  1  0  0  0  0
  7 10  2  0  0  0  0
  7 20  1  0  0  0  0
  8 24  1  0  0  0  0
  9 24  2  0  0  0  0
 10 25  1  0  0  0  0
 11 12  2  0  0  0  0
 11 26  1  0  0  0  0
 12 27  1  0  0  0  0
 13 22  1  0  0  0  0
 13 25  2  0  0  0  0
 14 23  1  0  0  0  0
 14 30  2  0  0  0  0
 15 27  2  0  0  0  0
 15 28  1  0  0  0  0
 16 23  2  0  0  0  0
 16 63  1  0  0  0  0
 17 29  1  0  0  0  0
 18 29  1  0  0  0  0
 18 31  2  0  0  0  0
 18 33  1  0  0  0  0
 19 21  2  0  0  0  0
 19 40  1  0  0  0  0
 20 22  2  0  0  0  0
 20 41  1  0  0  0  0
 21 49  1  0  0  0  0
 22 42  1  0  0  0  0
 23 69  1  0  0  0  0
 24 81  1  0  0  0  0
 25 82  1  0  0  0  0
 26 28  2  0  0  0  0
 26 81  1  0  0  0  0
 27 83  1  0  0  0  0
 28 84  1  0  0  0  0
 29 62  2  0  0  0  0
 30 58  1  0  0  0  0
 30 63  1  0  0  0  0
 31 64  1  0  0  0  0
 31 67  1  0  0  0  0
 32 34  2  0  0  0  0
 32 82  1  0  0  0  0
 33 68  1  0  0  0  0
 33 74  2  0  0  0  0
 34 35  1  0  0  0  0
 34 80  1  0  0  0  0
 35 70  1  0  0  0  0
 35 75  2  0  0  0  0
 36 50  1  0  0  0  0
 36 71  1  0  0  0  0
 36 76  2  0  0  0  0
 37 59  1  0  0  0  0
 37 65  1  0  0  0  0
 37 77  2  0  0  0  0
 38 60  1  0  0  0  0
 38 72  1  0  0  0  0
 38 78  2  0  0  0  0
 39 66  1  0  0  0  0
 39 69  1  0  0  0  0
 39 79  2  0  0  0  0
 40 43  1  0  0  0  0
 41 50  1  0  0  0  0
 42 65  1  0  0  0  0
 43 45  1  0  0  0  0
 44 46  1  0  0  0  0
 44 47  1  0  0  0  0
 45 49  1  0  0  0  0
 46 51  1  0  0  0  0
 47 66  1  0  0  0  0
 48 51  1  0  0  0  0
 48 66  1  0  0  0  0
 49 71  1  0  0  0  0
 50 65  1  0  0  0  0
 51 64  1  0  0  0  0
 52 60  1  0  0  0  0
 53 61  1  0  0  0  0
 54 61  1  0  0  0  0
 55 61  1  0  0  0  0
 56 63  1  0  0  0  0
 57 73  1  0  0  0  0
 58 70  1  0  0  0  0
 59 61  1  0  0  0  0
 59 72  1  0  0  0  0
 60 73  1  0  0  0  0
 62 64  1  0  0  0  0
M  CHG  1  73   1
M  ISO  4  32 101  39 100  69 100  82 101
M  END
> <Batch ID>
0058

> <Smiles>
CNC(C)C(=O)NC(C(=O)N1Cc2cc([101O:1][101CH2:1]C(=O)C(=O)NCc3cc([100NH:0][100C:0](=O)N4CCCC(n5nc(-c6ccc(Oc7ccc(F)cc7F)cc6)c(C(N)=O)c5N)C4)cn3C)ccc2CC1C(=O)NC1CCCc2ccccc21)C(C)(C)C

> <Shape>
0.303

> <Color>
0.073

> <Negative vol penalty>
0.000

$$$$

  -OEChem-04042322583D

 86 94  0     1  0  0  0  0  0999 V2000
  -16.8960  -29.1683   24.3309 C   0  0  0  0  0  0  0  0  0  0  0  0
  -17.3246  -28.1432   23.4937 C   0  0  0  0  0  0  0  0  0  0  0  0
  -26.4776  -10.6837   19.6526 C   0  0  0  0  0  0  0  0  0  0  0  0
  -25.9898  -12.6288   18.3051 C   0  0  0  0  0  0  0  0  0  0  0  0
  -17.5577  -30.3955   24.3234 C   0  0  0  0  0  0  0  0  0  0  0  0
  -18.4145  -28.3452   22.6476 C   0  0  0  0  0  0  0  0  0  0  0  0
  -22.6189  -24.2052   21.0078 C   0  0  0  0  0  0  0  0  0  0  0  0
  -28.1624  -21.7446   22.7318 C   0  0  0  0  0  0  0  0  0  0  0  0
  -28.7034  -20.4680   22.8841 C   0  0  0  0  0  0  0  0  0  0  0  0
  -25.2291  -10.1497   19.3338 C   0  0  0  0  0  0  0  0  0  0  0  0
  -24.7413  -12.0948   17.9862 C   0  0  0  0  0  0  0  0  0  0  0  0
  -22.7610  -23.4129   19.8695 C   0  0  0  0  0  0  0  0  0  0  0  0
  -22.0188  -10.5714   20.3037 C   0  0  0  0  0  0  0  0  0  0  0  0
  -21.2680  -10.0170   21.3403 C   0  0  0  0  0  0  0  0  0  0  0  0
  -28.4236  -20.0672   20.5180 C   0  0  0  0  0  0  0  0  0  0  0  0
  -24.2659  -25.0462   18.9279 C   0  0  0  0  0  0  0  0  0  0  0  0
  -21.2729   -7.8851   20.2036 C   0  0  0  0  0  0  0  0  0  0  0  0
  -26.8580  -11.9233   19.1383 C   0  0  0  0  0  0  0  0  0  0  0  0
  -27.8826  -21.3438   20.3657 C   0  0  0  0  0  0  0  0  0  0  0  0
  -29.3546  -12.2931   18.7670 C   0  0  0  0  0  0  0  0  0  0  0  0
  -18.6622  -30.6095   23.4839 C   0  0  0  0  0  0  0  0  0  0  0  0
  -23.2918  -25.4312   21.1102 C   0  0  0  0  0  0  0  0  0  0  0  0
  -19.0907  -29.5769   22.6279 C   0  0  0  0  0  0  0  0  0  0  0  0
  -24.1327  -25.8510   20.0696 C   0  0  0  0  0  0  0  0  0  0  0  0
  -27.7520  -22.1825   21.4726 C   0  0  0  0  0  0  0  0  0  0  0  0
  -28.8341  -19.6293   21.7772 C   0  0  0  0  0  0  0  0  0  0  0  0
  -24.3609  -10.8553   18.5006 C   0  0  0  0  0  0  0  0  0  0  0  0
  -23.5823  -23.8347   18.8281 C   0  0  0  0  0  0  0  0  0  0  0  0
  -22.3966   -9.7827   19.2170 C   0  0  0  0  0  0  0  0  0  0  0  0
  -20.8951   -8.6738   21.2902 C   0  0  0  0  0  0  0  0  0  0  0  0
  -22.0237   -8.4395   19.1669 C   0  0  0  0  0  0  0  0  0  0  0  0
  -28.1473  -12.4756   19.4677 C   0  0  0  0  0  0  0  0  0  0  0  0
  -30.2780  -13.0190   19.4790 C   0  0  0  0  0  0  0  0  0  0  0  0
  -27.4542  -21.7850   19.0134 C   0  0  0  0  0  0  0  0  0  0  0  0
  -29.6177  -11.5353   17.5786 C   0  0  0  0  0  0  0  0  0  0  0  0
  -22.3925  -28.4666   21.3959 C   0  0  0  0  0  0  0  0  0  0  0  0
  -25.5778  -28.9709   21.7448 C   0  0  0  0  0  0  0  0  0  0  0  0
  -28.7628  -27.8901   21.1660 C   0  0  0  0  0  0  0  0  0  0  0  0
  -29.8358  -17.7423   23.1121 C   0  0  0  0  0  0  0  0  0  0  0  0
  -19.3160  -31.9686   23.4765 C   0  0  0  0  0  0  0  0  0  0  0  0
  -23.1489  -26.2617   22.3562 C   0  0  0  0  0  0  0  0  0  0  0  0
  -24.8929  -27.1494   20.1391 C   0  0  0  0  0  0  0  0  0  0  0  0
  -20.6950  -31.9775   22.8219 C   0  0  0  0  0  0  0  0  0  0  0  0
  -31.2161  -14.5600   23.9151 C   0  0  0  0  0  0  0  0  0  0  0  0
  -20.6627  -31.2197   21.4985 C   0  0  0  0  0  0  0  0  0  0  0  0
  -30.7007  -13.6490   22.7986 C   0  0  0  0  0  0  0  0  0  0  0  0
  -30.1748  -15.5999   24.3248 C   0  0  0  0  0  0  0  0  0  0  0  0
  -29.1131  -15.4888   22.1045 C   0  0  0  0  0  0  0  0  0  0  0  0
  -20.2844  -29.7493   21.7139 C   0  0  1  0  0  0  0  0  0  0  0  0
  -23.4778  -27.7346   22.1335 C   0  0  1  0  0  0  0  0  0  0  0  0
  -30.1508  -14.4663   21.6132 C   0  0  2  0  0  0  0  0  0  0  0  0
  -27.1760  -23.5544   21.3376 C   0  0  0  0  0  0  0  0  0  0  0  0
  -31.2682  -27.8484   21.3014 C   0  0  0  0  0  0  0  0  0  0  0  0
  -25.3714  -31.0266   19.4995 C   0  0  0  0  0  0  0  0  0  0  0  0
  -27.8628  -30.9270   19.2736 C   0  0  0  0  0  0  0  0  0  0  0  0
  -26.8361  -31.7098   21.4080 C   0  0  0  0  0  0  0  0  0  0  0  0
  -24.3283  -19.3731   17.0914 C   0  0  0  0  0  0  0  0  0  0  0  0
  -24.0237  -21.2504   15.4539 C   0  0  0  0  0  0  0  0  0  0  0  0
  -28.7180  -26.2553   23.6327 C   0  0  0  0  0  0  0  0  0  0  0  0
  -25.9652  -21.3049   17.0877 C   0  0  0  0  0  0  0  0  0  0  0  0
  -23.5975  -21.6520   17.8838 C   0  0  0  0  0  0  0  0  0  1  0  0
  -26.7242  -29.2570   20.8052 C   0  0  1  0  0  0  0  0  0  0  0  0
  -29.9662  -27.7648   22.0828 C   0  0  2  0  0  0  0  0  0  0  0  0
  -26.6829  -30.7065   20.2441 C   0  0  0  0  0  0  0  0  0  0  0  0
  -24.4895  -20.8901   16.8765 C   0  0  0  0  0  0  0  0  0  0  0  0
  -28.2879  -13.2561   20.5425 N   0  0  0  0  0  0  0  0  0  0  0  0
  -29.5944  -13.5703   20.5225 N   0  0  0  0  0  0  0  0  0  0  0  0
  -24.7154  -27.9291   21.3753 N   0  0  0  0  0  0  0  0  0  0  0  0
  -29.7027  -16.3382   23.1513 N   0  0  0  0  0  0  0  0  0  0  0  0
  -31.5999  -13.2329   19.3080 N   0  0  0  0  0  0  0  0  0  0  0  0
  -28.5551  -10.8495   16.9746 N   0  0  0  0  0  0  0  0  0  0  0  0
  -29.3818  -18.3318   21.9327 N   0  0  0  0  0  0  0  0  0  0  0  0
  -26.4669  -21.0195   18.4053 N   0  0  0  0  0  0  0  0  0  0  0  0
  -21.4187  -29.0038   22.2159 N   0  0  0  0  0  0  0  0  0  0  0  0
  -27.9434  -28.9347   21.5386 N   0  0  0  0  0  0  0  0  0  0  0  0
  -29.9340  -26.4614   22.8046 N   0  3  0  0  0  0  0  0  0  0  0  0
  -27.9920  -22.7645   18.5035 O   0  0  0  0  0  0  0  0  0  0  0  0
  -30.7646  -11.4550   17.0768 O   0  0  0  0  0  0  0  0  0  0  0  0
  -22.4362  -28.5398   20.1735 O   0  0  0  0  0  0  0  0  0  0  0  0
  -25.4564  -29.6422   22.7726 O   0  0  0  0  0  0  0  0  0  0  0  0
  -28.5708  -27.1390   20.2123 O   0  0  0  0  0  0  0  0  0  0  0  0
  -30.3421  -18.3724   24.0441 O   0  0  0  0  0  0  0  0  0  0  0  0
  -23.1426  -10.3344   18.1890 O   0  0  0  0  0  0  0  0  0  0  0  0
  -23.7223  -23.0635   17.7156 O   0  0  0  0  0  0  0  0  0  1  0  0
  -20.1754   -8.1411   22.2865 F   0  0  0  0  0  0  0  0  0  0  0  0
  -22.3847   -7.6766   18.1261 F   0  0  0  0  0  0  0  0  0  0  0  0
  1  2  1  0  0  0  0
  1  5  2  0  0  0  0
  2  6  2  0  0  0  0
  3 10  2  0  0  0  0
  3 18  1  0  0  0  0
  4 11  1  0  0  0  0
  4 18  2  0  0  0  0
  5 21  1  0  0  0  0
  6 23  1  0  0  0  0
  7 12  2  0  0  0  0
  7 22  1  0  0  0  0
  8  9  2  0  0  0  0
  8 25  1  0  0  0  0
  9 26  1  0  0  0  0
 10 27  1  0  0  0  0
 11 27  2  0  0  0  0
 12 28  1  0  0  0  0
 13 14  2  0  0  0  0
 13 29  1  0  0  0  0
 14 30  1  0  0  0  0
 15 19  1  0  0  0  0
 15 26  2  0  0  0  0
 16 24  1  0  0  0  0
 16 28  2  0  0  0  0
 17 30  2  0  0  0  0
 17 31  1  0  0  0  0
 18 32  1  0  0  0  0
 19 25  2  0  0  0  0
 19 34  1  0  0  0  0
 20 32  1  0  0  0  0
 20 33  2  0  0  0  0
 20 35  1  0  0  0  0
 21 23  2  0  0  0  0
 21 40  1  0  0  0  0
 22 24  2  0  0  0  0
 22 41  1  0  0  0  0
 23 49  1  0  0  0  0
 24 42  1  0  0  0  0
 25 52  1  0  0  0  0
 26 72  1  0  0  0  0
 27 83  1  0  0  0  0
 28 84  1  0  0  0  0
 29 31  2  0  0  0  0
 29 83  1  0  0  0  0
 30 85  1  0  0  0  0
 31 86  1  0  0  0  0
 32 66  2  0  0  0  0
 33 67  1  0  0  0  0
 33 70  1  0  0  0  0
 34 73  1  0  0  0  0
 34 77  2  0  0  0  0
 35 71  1  0  0  0  0
 35 78  2  0  0  0  0
 36 50  1  0  0  0  0
 36 74  1  0  0  0  0
 36 79  2  0  0  0  0
 37 62  1  0  0  0  0
 37 68  1  0  0  0  0
 37 80  2  0  0  0  0
 38 63  1  0  0  0  0
 38 75  1  0  0  0  0
 38 81  2  0  0  0  0
 39 69  1  0  0  0  0
 39 72  1  0  0  0  0
 39 82  2  0  0  0  0
 40 43  1  0  0  0  0
 41 50  1  0  0  0  0
 42 68  1  0  0  0  0
 43 45  1  0  0  0  0
 44 46  1  0  0  0  0
 44 47  1  0  0  0  0
 45 49  1  0  0  0  0
 46 51  1  0  0  0  0
 47 69  1  0  0  0  0
 48 51  1  0  0  0  0
 48 69  1  0  0  0  0
 49 74  1  0  0  0  0
 50 68  1  0  0  0  0
 51 67  1  0  0  0  0
 53 63  1  0  0  0  0
 54 64  1  0  0  0  0
 55 64  1  0  0  0  0
 56 64  1  0  0  0  0
 57 65  1  0  0  0  0
 58 65  1  0  0  0  0
 59 76  1  0  0  0  0
 60 65  1  0  0  0  0
 60 73  1  0  0  0  0
 61 65  1  0  0  0  0
 61 84  1  0  0  0  0
 62 64  1  0  0  0  0
 62 75  1  0  0  0  0
 63 76  1  0  0  0  0
 66 67  1  0  0  0  0
M  CHG  1  76   1
M  ISO  4  39 100  61 101  72 100  84 101
M  END
> <Batch ID>
0058

> <Smiles>
CNC(C)C(=O)NC(C(=O)N1Cc2cc([101O:1][101CH2:1]C(C)(C)CNC(=O)c3cc([100NH:0][100C:0](=O)N4CCCC(n5nc(-c6ccc(Oc7ccc(F)cc7F)cc6)c(C(N)=O)c5N)C4)ccc3C)ccc2CC1C(=O)NC1CCCc2ccccc21)C(C)(C)C

> <Shape>
0.246

> <Color>
0.076

> <Negative vol penalty>
0.000

$$$$

  -OEChem-04042322583D

 89 97  0     1  0  0  0  0  0999 V2000
  -21.8791  -20.7298   15.2803 C   0  0  0  0  0  0  0  0  0  0  0  0
  -22.6799  -20.8692   16.4093 C   0  0  0  0  0  0  0  0  0  0  0  0
  -23.1070   -9.8261   19.9318 C   0  0  0  0  0  0  0  0  0  0  0  0
  -23.8405   -9.8610   22.2335 C   0  0  0  0  0  0  0  0  0  0  0  0
  -21.7173  -21.8028   14.4049 C   0  0  0  0  0  0  0  0  0  0  0  0
  -23.3205  -22.0816   16.6629 C   0  0  0  0  0  0  0  0  0  0  0  0
  -22.9317  -23.5083   21.5063 C   0  0  0  0  0  0  0  0  0  0  0  0
  -22.3751   -8.6655   20.1826 C   0  0  0  0  0  0  0  0  0  0  0  0
  -23.1086   -8.7004   22.4843 C   0  0  0  0  0  0  0  0  0  0  0  0
  -23.7722  -22.8804   22.4245 C   0  0  0  0  0  0  0  0  0  0  0  0
  -19.8843   -7.8659   23.0567 C   0  0  0  0  0  0  0  0  0  0  0  0
  -19.1146   -7.8254   24.2193 C   0  0  0  0  0  0  0  0  0  0  0  0
  -29.6987  -17.8145   22.7521 C   0  0  0  0  0  0  0  0  0  0  0  0
  -25.2494  -24.7867   22.3667 C   0  0  0  0  0  0  0  0  0  0  0  0
  -31.7813  -17.4304   21.5891 C   0  0  0  0  0  0  0  0  0  0  0  0
  -20.3722   -5.9100   24.9853 C   0  0  0  0  0  0  0  0  0  0  0  0
  -23.8397  -10.4238   20.9572 C   0  0  0  0  0  0  0  0  0  0  0  0
  -30.1746  -19.0479   23.1969 C   0  0  0  0  0  0  0  0  0  0  0  0
  -31.4537  -19.4726   22.8378 C   0  0  0  0  0  0  0  0  0  0  0  0
  -24.1506  -12.9522   20.8207 C   0  0  0  0  0  0  0  0  0  0  0  0
  -22.3485  -23.0319   14.6530 C   0  0  0  0  0  0  0  0  0  0  0  0
  -23.2498  -24.7776   21.0023 C   0  0  0  0  0  0  0  0  0  0  0  0
  -23.1681  -23.1716   15.7893 C   0  0  0  0  0  0  0  0  0  0  0  0
  -24.4099  -25.4296   21.4442 C   0  0  0  0  0  0  0  0  0  0  0  0
  -30.5021  -17.0057   21.9482 C   0  0  0  0  0  0  0  0  0  0  0  0
  -22.3759   -8.1026   21.4589 C   0  0  0  0  0  0  0  0  0  0  0  0
  -24.9327  -23.5183   22.8526 C   0  0  0  0  0  0  0  0  0  0  0  0
  -20.8979   -6.9283   22.8584 C   0  0  0  0  0  0  0  0  0  0  0  0
  -32.2571  -18.6639   22.0338 C   0  0  0  0  0  0  0  0  0  0  0  0
  -19.3586   -6.8476   25.1836 C   0  0  0  0  0  0  0  0  0  0  0  0
  -21.1418   -5.9504   23.8227 C   0  0  0  0  0  0  0  0  0  0  0  0
  -24.5964  -11.6225   20.6986 C   0  0  0  0  0  0  0  0  0  0  0  0
  -25.2371  -13.7127   20.4638 C   0  0  0  0  0  0  0  0  0  0  0  0
  -31.9598  -20.7634   23.2958 C   0  0  0  0  0  0  0  0  0  0  0  0
  -27.9780  -20.2964   23.4827 C   0  0  0  0  0  0  0  0  0  0  0  0
  -33.0464  -20.9518   24.0728 C   0  0  0  0  0  0  0  0  0  0  0  0
  -27.1321  -21.0301   24.2191 C   0  0  0  0  0  0  0  0  0  0  0  0
  -29.2869  -19.8740   24.0506 C   0  0  0  0  0  0  0  0  0  0  0  0
  -22.8689  -13.4549   21.2211 C   0  0  0  0  0  0  0  0  0  0  0  0
  -23.8793  -25.9521   18.1165 C   0  0  0  0  0  0  0  0  0  0  0  0
  -23.8637  -28.7863   19.6943 C   0  0  0  0  0  0  0  0  0  0  0  0
  -24.2348  -30.4623   22.6439 C   0  0  0  0  0  0  0  0  0  0  0  0
  -30.6871  -14.8300   20.6919 C   0  0  0  0  0  0  0  0  0  0  0  0
  -22.1817  -24.1485   13.6530 C   0  0  0  0  0  0  0  0  0  0  0  0
  -22.3190  -25.4528   20.0328 C   0  0  0  0  0  0  0  0  0  0  0  0
  -24.7861  -26.8013   20.9490 C   0  0  0  0  0  0  0  0  0  0  0  0
  -22.5943  -25.5157   14.1922 C   0  0  0  0  0  0  0  0  0  0  0  0
  -29.6308  -12.3834   18.3307 C   0  0  0  0  0  0  0  0  0  0  0  0
  -23.9386  -25.4242   14.9072 C   0  0  0  0  0  0  0  0  0  0  0  0
  -28.1902  -12.0767   18.7463 C   0  0  0  0  0  0  0  0  0  0  0  0
  -30.5291  -12.6335   19.5407 C   0  0  0  0  0  0  0  0  0  0  0  0
  -28.5974  -13.3442   20.8944 C   0  0  0  0  0  0  0  0  0  0  0  0
  -23.8596  -24.4786   16.1118 C   0  0  1  0  0  0  0  0  0  0  0  0
  -23.0054  -26.5272   19.1950 C   0  0  1  0  0  0  0  0  0  0  0  0
  -27.6404  -13.1491   19.7071 C   0  0  2  0  0  0  0  0  0  0  0  0
  -33.5231  -22.2936   24.5257 C   0  0  0  0  0  0  0  0  0  0  0  0
  -24.2017  -32.7773   23.6119 C   0  0  0  0  0  0  0  0  0  0  0  0
  -34.1435  -20.6185   19.9571 C   0  0  0  0  0  0  0  0  0  0  0  0
  -34.8656  -18.2054   19.8708 C   0  0  0  0  0  0  0  0  0  0  0  0
  -26.6244  -29.3188   18.5089 C   0  0  0  0  0  0  0  0  0  0  0  0
  -26.9316  -31.1254   20.2148 C   0  0  0  0  0  0  0  0  0  0  0  0
  -25.0989  -31.3004   18.5316 C   0  0  0  0  0  0  0  0  0  0  0  0
  -21.9731  -29.8058   24.4364 C   0  0  0  0  0  0  0  0  0  0  0  0
  -25.7953  -21.4811   23.7255 C   0  0  0  0  0  0  0  0  0  1  0  0
  -24.9015  -29.6181   20.4085 C   0  0  1  0  0  0  0  0  0  0  0  0
  -23.3856  -31.5302   23.3094 C   0  0  2  0  0  0  0  0  0  0  0  0
  -33.7663  -19.1783   20.2694 C   0  0  0  0  0  0  0  0  0  0  0  0
  -25.8833  -30.3140   19.4240 C   0  0  0  0  0  0  0  0  0  0  0  0
  -25.8671  -11.5396   20.2954 N   0  0  0  0  0  0  0  0  0  0  0  0
  -26.2290  -12.8269   20.1610 N   0  0  0  0  0  0  0  0  0  0  0  0
  -23.8470  -27.4175   19.9971 N   0  0  0  0  0  0  0  0  0  0  0  0
  -29.9471  -13.6639   20.4034 N   0  0  0  0  0  0  0  0  0  0  0  0
  -25.4313  -15.0462   20.3824 N   0  0  0  0  0  0  0  0  0  0  0  0
  -21.8649  -12.5354   21.5542 N   0  0  0  0  0  0  0  0  0  0  0  0
  -30.0187  -15.7531   21.4954 N   0  0  0  0  0  0  0  0  0  0  0  0
  -23.2100  -25.1337   17.2268 N   0  0  0  0  0  0  0  0  0  0  0  0
  -24.1657  -30.5383   21.2689 N   0  0  0  0  0  0  0  0  0  0  0  0
  -22.8182  -31.0181   24.5888 N   0  3  0  0  0  0  0  0  0  0  0  0
  -29.6350  -20.1623   25.1902 O   0  0  0  0  0  0  0  0  0  0  0  0
  -22.6163  -14.6828   21.2658 O   0  0  0  0  0  0  0  0  0  0  0  0
  -25.0722  -26.2315   18.0924 O   0  0  0  0  0  0  0  0  0  0  0  0
  -23.0914  -29.3324   18.9024 O   0  0  0  0  0  0  0  0  0  0  0  0
  -24.8963  -29.6450   23.2802 O   0  0  0  0  0  0  0  0  0  0  0  0
  -31.8192  -15.0096   20.2357 O   0  0  0  0  0  0  0  0  0  0  0  0
  -21.6617   -6.9702   21.7040 O   0  0  0  0  0  0  0  0  0  0  0  0
  -25.7552  -22.9074   23.7482 O   0  0  0  0  0  0  0  0  0  1  0  0
  -33.5118  -19.0524   21.6663 O   0  0  0  0  0  0  0  0  0  0  0  0
  -18.6204   -6.8098   26.3007 F   0  0  0  0  0  0  0  0  0  0  0  0
  -22.1150   -5.0478   23.6383 F   0  0  0  0  0  0  0  0  0  0  0  0
  1  2  1  0  0  0  0
  1  5  2  0  0  0  0
  2  6  2  0  0  0  0
  3  8  2  0  0  0  0
  3 17  1  0  0  0  0
  4  9  1  0  0  0  0
  4 17  2  0  0  0  0
  5 21  1  0  0  0  0
  6 23  1  0  0  0  0
  7 10  2  0  0  0  0
  7 22  1  0  0  0  0
  8 26  1  0  0  0  0
  9 26  2  0  0  0  0
 10 27  1  0  0  0  0
 11 12  2  0  0  0  0
 11 28  1  0  0  0  0
 12 30  1  0  0  0  0
 13 18  1  0  0  0  0
 13 25  2  0  0  0  0
 14 24  1  0  0  0  0
 14 27  2  0  0  0  0
 15 25  1  0  0  0  0
 15 29  2  0  0  0  0
 16 30  2  0  0  0  0
 16 31  1  0  0  0  0
 17 32  1  0  0  0  0
 18 19  2  0  0  0  0
 18 38  1  0  0  0  0
 19 29  1  0  0  0  0
 19 34  1  0  0  0  0
 20 32  1  0  0  0  0
 20 33  2  0  0  0  0
 20 39  1  0  0  0  0
 21 23  2  0  0  0  0
 21 44  1  0  0  0  0
 22 24  2  0  0  0  0
 22 45  1  0  0  0  0
 23 53  1  0  0  0  0
 24 46  1  0  0  0  0
 25 75  1  0  0  0  0
 26 85  1  0  0  0  0
 27 86  1  0  0  0  0
 28 31  2  0  0  0  0
 28 85  1  0  0  0  0
 29 87  1  0  0  0  0
 30 88  1  0  0  0  0
 31 89  1  0  0  0  0
 32 69  2  0  0  0  0
 33 70  1  0  0  0  0
 33 73  1  0  0  0  0
 34 36  2  0  0  0  0
 35 37  2  0  0  0  0
 35 38  1  0  0  0  0
 36 56  1  0  0  0  0
 37 64  1  0  0  0  0
 38 79  2  0  0  0  0
 39 74  1  0  0  0  0
 39 80  2  0  0  0  0
 40 54  1  0  0  0  0
 40 76  1  0  0  0  0
 40 81  2  0  0  0  0
 41 65  1  0  0  0  0
 41 71  1  0  0  0  0
 41 82  2  0  0  0  0
 42 66  1  0  0  0  0
 42 77  1  0  0  0  0
 42 83  2  0  0  0  0
 43 72  1  0  0  0  0
 43 75  1  0  0  0  0
 43 84  2  0  0  0  0
 44 47  1  0  0  0  0
 45 54  1  0  0  0  0
 46 71  1  0  0  0  0
 47 49  1  0  0  0  0
 48 50  1  0  0  0  0
 48 51  1  0  0  0  0
 49 53  1  0  0  0  0
 50 55  1  0  0  0  0
 51 72  1  0  0  0  0
 52 55  1  0  0  0  0
 52 72  1  0  0  0  0
 53 76  1  0  0  0  0
 54 71  1  0  0  0  0
 55 70  1  0  0  0  0
 57 66  1  0  0  0  0
 58 67  1  0  0  0  0
 59 67  1  0  0  0  0
 60 68  1  0  0  0  0
 61 68  1  0  0  0  0
 62 68  1  0  0  0  0
 63 78  1  0  0  0  0
 64 86  1  0  0  0  0
 65 68  1  0  0  0  0
 65 77  1  0  0  0  0
 66 78  1  0  0  0  0
 67 87  1  0  0  0  0
 69 70  1  0  0  0  0
M  CHG  1  78   1
M  ISO  4  43 100  64 101  75 100  86 101
M  END
> <Batch ID>
0058

> <Smiles>
CC=Cc1c(OC(C)C)cc([100NH:0][100C:0](=O)N2CCCC(n3nc(-c4ccc(Oc5ccc(F)cc5F)cc4)c(C(N)=O)c3N)C2)cc1C(=O)C=C[101CH2:1][101O:1]c1ccc2c(c1)CN(C(=O)C(NC(=O)C(C)NC)C(C)(C)C)C(C(=O)NC1CCCc3ccccc31)C2

> <Shape>
0.238

> <Color>
0.185

> <Negative vol penalty>
0.000

$$$$

  -OEChem-04042322583D

 85 93  0     1  0  0  0  0  0999 V2000
  -29.1255  -23.7571   21.1019 C   0  0  0  0  0  0  0  0  0  0  0  0
  -29.2548  -35.3276   24.5742 C   0  0  0  0  0  0  0  0  0  0  0  0
  -29.2495  -33.9924   24.1834 C   0  0  0  0  0  0  0  0  0  0  0  0
  -24.7141   -8.2947   21.4112 C   0  0  0  0  0  0  0  0  0  0  0  0
  -23.2271  -10.0607   20.6990 C   0  0  0  0  0  0  0  0  0  0  0  0
  -28.0775  -35.9269   25.0199 C   0  0  0  0  0  0  0  0  0  0  0  0
  -28.0670  -33.2555   24.2391 C   0  0  0  0  0  0  0  0  0  0  0  0
  -27.3193  -30.4646   20.0802 C   0  0  0  0  0  0  0  0  0  0  0  0
  -23.7790   -7.8918   22.3646 C   0  0  0  0  0  0  0  0  0  0  0  0
  -22.2920   -9.6578   21.6524 C   0  0  0  0  0  0  0  0  0  0  0  0
  -28.0446  -29.2790   19.9701 C   0  0  0  0  0  0  0  0  0  0  0  0
  -20.9041   -6.1135   22.4378 C   0  0  0  0  0  0  0  0  0  0  0  0
  -20.6435   -4.7482   22.5536 C   0  0  0  0  0  0  0  0  0  0  0  0
  -26.1117  -28.0357   20.7033 C   0  0  0  0  0  0  0  0  0  0  0  0
  -26.3467  -19.6596   19.0886 C   0  0  0  0  0  0  0  0  0  0  0  0
  -26.0400  -17.3519   18.4429 C   0  0  0  0  0  0  0  0  0  0  0  0
  -28.1328  -18.0660   19.4162 C   0  0  0  0  0  0  0  0  0  0  0  0
  -21.3701   -4.8050   24.8571 C   0  0  0  0  0  0  0  0  0  0  0  0
  -24.4382   -9.3792   20.5784 C   0  0  0  0  0  0  0  0  0  0  0  0
  -25.5090   -9.3484   18.2633 C   0  0  0  0  0  0  0  0  0  0  0  0
  -26.8779  -35.1996   25.0720 C   0  0  0  0  0  0  0  0  0  0  0  0
  -25.9859  -30.4457   20.5138 C   0  0  0  0  0  0  0  0  0  0  0  0
  -26.8729  -33.8453   24.6873 C   0  0  0  0  0  0  0  0  0  0  0  0
  -25.3710  -29.2222   20.8156 C   0  0  0  0  0  0  0  0  0  0  0  0
  -25.5469  -18.6524   18.5489 C   0  0  0  0  0  0  0  0  0  0  0  0
  -27.6397  -19.3665   19.5222 C   0  0  0  0  0  0  0  0  0  0  0  0
  -27.3330  -17.0587   18.8765 C   0  0  0  0  0  0  0  0  0  0  0  0
  -22.5680   -8.5733   22.4852 C   0  0  0  0  0  0  0  0  0  0  0  0
  -27.4417  -28.0646   20.2845 C   0  0  0  0  0  0  0  0  0  0  0  0
  -21.3977   -6.8247   23.5316 C   0  0  0  0  0  0  0  0  0  0  0  0
  -20.8765   -4.0939   23.7633 C   0  0  0  0  0  0  0  0  0  0  0  0
  -21.6307   -6.1704   24.7412 C   0  0  0  0  0  0  0  0  0  0  0  0
  -25.4039   -9.7962   19.5938 C   0  0  0  0  0  0  0  0  0  0  0  0
  -26.5776  -10.0426   17.7508 C   0  0  0  0  0  0  0  0  0  0  0  0
  -29.2421  -22.4858   20.8555 C   0  0  0  0  0  0  0  0  0  0  0  0
  -29.0116  -25.0299   21.3498 C   0  0  0  0  0  0  0  0  0  0  0  0
  -24.7120   -8.3906   17.5540 C   0  0  0  0  0  0  0  0  0  0  0  0
  -28.1166  -21.7248   20.2468 C   0  0  0  0  0  0  0  0  0  0  0  0
  -24.4162  -31.6658   22.9939 C   0  0  0  0  0  0  0  0  0  0  0  0
  -21.8229  -30.5158   21.4207 C   0  0  0  0  0  0  0  0  0  0  0  0
  -20.5530  -28.2883   19.1685 C   0  0  0  0  0  0  0  0  0  0  0  0
  -29.0942  -15.2784   19.1502 C   0  0  0  0  0  0  0  0  0  0  0  0
  -25.6407  -35.8773   25.6057 C   0  0  0  0  0  0  0  0  0  0  0  0
  -25.2091  -31.7307   20.6016 C   0  0  0  0  0  0  0  0  0  0  0  0
  -23.9359  -29.1458   21.2662 C   0  0  0  0  0  0  0  0  0  0  0  0
  -24.3492  -35.1316   25.2799 C   0  0  0  0  0  0  0  0  0  0  0  0
  -30.6935  -12.0980   19.0809 C   0  0  0  0  0  0  0  0  0  0  0  0
  -24.5031  -33.6431   25.5756 C   0  0  0  0  0  0  0  0  0  0  0  0
  -29.5280  -11.1062   19.0774 C   0  0  0  0  0  0  0  0  0  0  0  0
  -30.3965  -13.3189   19.9499 C   0  0  0  0  0  0  0  0  0  0  0  0
  -27.9715  -13.0165   19.6387 C   0  0  0  0  0  0  0  0  0  0  0  0
  -25.6048  -33.0197   24.7100 C   0  0  1  0  0  0  0  0  0  0  0  0
  -24.0144  -31.6433   21.5462 C   0  0  1  0  0  0  0  0  0  0  0  0
  -28.1980  -11.8008   18.7252 C   0  0  2  0  0  0  0  0  0  0  0  0
  -24.1648  -18.9666   18.0841 C   0  0  0  0  0  0  0  0  0  0  0  0
  -18.3919  -27.5637   18.1188 C   0  0  0  0  0  0  0  0  0  0  0  0
  -21.0662  -29.0570   23.9915 C   0  0  0  0  0  0  0  0  0  0  0  0
  -19.5000  -27.6419   22.6452 C   0  0  0  0  0  0  0  0  0  0  0  0
  -19.1445  -30.1071   22.7836 C   0  0  0  0  0  0  0  0  0  0  0  0
  -21.5023  -28.9886   16.4542 C   0  0  0  0  0  0  0  0  0  0  0  0
  -27.7946  -25.8468   21.0675 C   0  0  0  0  0  0  0  0  0  1  0  0
  -21.0699  -29.2074   21.4141 C   0  0  1  0  0  0  0  0  0  0  0  0
  -19.6065  -28.4705   17.9957 C   0  0  2  0  0  0  0  0  0  0  0  0
  -20.2228  -29.0047   22.7020 C   0  0  0  0  0  0  0  0  0  0  0  0
  -26.3318  -10.7045   19.9070 N   0  0  0  0  0  0  0  0  0  0  0  0
  -27.0302  -10.8330   18.7660 N   0  0  0  0  0  0  0  0  0  0  0  0
  -23.2202  -30.4301   21.3423 N   0  0  0  0  0  0  0  0  0  0  0  0
  -29.1239  -13.9274   19.5561 N   0  0  0  0  0  0  0  0  0  0  0  0
  -27.1649  -10.0479   16.5353 N   0  0  0  0  0  0  0  0  0  0  0  0
  -23.6528   -7.7707   18.2309 N   0  0  0  0  0  0  0  0  0  0  0  0
  -28.4515  -20.3898   20.0700 N   0  0  0  0  0  0  0  0  0  0  0  0
  -27.8344  -15.7379   18.7676 N   0  0  0  0  0  0  0  0  0  0  0  0
  -25.1231  -32.7940   23.3641 N   0  0  0  0  0  0  0  0  0  0  0  0
  -20.2933  -29.1897   20.1792 N   0  0  0  0  0  0  0  0  0  0  0  0
  -20.3011  -28.1545   16.7156 N   0  3  0  0  0  0  0  0  0  0  0  0
  -24.9427   -8.0812   16.3605 O   0  0  0  0  0  0  0  0  0  0  0  0
  -27.0610  -22.2821   19.9687 O   0  0  0  0  0  0  0  0  0  0  0  0
  -24.1064  -30.7297   23.7215 O   0  0  0  0  0  0  0  0  0  0  0  0
  -21.1942  -31.5751   21.4856 O   0  0  0  0  0  0  0  0  0  0  0  0
  -21.4322  -27.4297   19.1879 O   0  0  0  0  0  0  0  0  0  0  0  0
  -30.1163  -15.9686   19.1167 O   0  0  0  0  0  0  0  0  0  0  0  0
  -21.6552   -8.1803   23.4152 O   0  0  0  0  0  0  0  0  0  0  0  0
  -28.1475  -26.9059   20.1785 O   0  0  0  0  0  0  0  0  0  1  0  0
  -20.6247   -2.7830   23.8749 F   0  0  0  0  0  0  0  0  0  0  0  0
  -22.1037   -6.8485   25.7959 F   0  0  0  0  0  0  0  0  0  0  0  0
  1 35  2  0  0  0  0
  1 36  2  0  0  0  0
  2  3  1  0  0  0  0
  2  6  2  0  0  0  0
  3  7  2  0  0  0  0
  4  9  2  0  0  0  0
  4 19  1  0  0  0  0
  5 10  1  0  0  0  0
  5 19  2  0  0  0  0
  6 21  1  0  0  0  0
  7 23  1  0  0  0  0
  8 11  2  0  0  0  0
  8 22  1  0  0  0  0
  9 28  1  0  0  0  0
 10 28  2  0  0  0  0
 11 29  1  0  0  0  0
 12 13  2  0  0  0  0
 12 30  1  0  0  0  0
 13 31  1  0  0  0  0
 14 24  1  0  0  0  0
 14 29  2  0  0  0  0
 15 25  2  0  0  0  0
 15 26  1  0  0  0  0
 16 25  1  0  0  0  0
 16 27  2  0  0  0  0
 17 26  2  0  0  0  0
 17 27  1  0  0  0  0
 18 31  2  0  0  0  0
 18 32  1  0  0  0  0
 19 33  1  0  0  0  0
 20 33  1  0  0  0  0
 20 34  2  0  0  0  0
 20 37  1  0  0  0  0
 21 23  2  0  0  0  0
 21 43  1  0  0  0  0
 22 24  2  0  0  0  0
 22 44  1  0  0  0  0
 23 52  1  0  0  0  0
 24 45  1  0  0  0  0
 25 55  1  0  0  0  0
 26 71  1  0  0  0  0
 27 72  1  0  0  0  0
 28 82  1  0  0  0  0
 29 83  1  0  0  0  0
 30 32  2  0  0  0  0
 30 82  1  0  0  0  0
 31 84  1  0  0  0  0
 32 85  1  0  0  0  0
 33 65  2  0  0  0  0
 34 66  1  0  0  0  0
 34 69  1  0  0  0  0
 35 38  1  0  0  0  0
 36 61  1  0  0  0  0
 37 70  1  0  0  0  0
 37 76  2  0  0  0  0
 38 71  1  0  0  0  0
 38 77  2  0  0  0  0
 39 53  1  0  0  0  0
 39 73  1  0  0  0  0
 39 78  2  0  0  0  0
 40 62  1  0  0  0  0
 40 67  1  0  0  0  0
 40 79  2  0  0  0  0
 41 63  1  0  0  0  0
 41 74  1  0  0  0  0
 41 80  2  0  0  0  0
 42 68  1  0  0  0  0
 42 72  1  0  0  0  0
 42 81  2  0  0  0  0
 43 46  1  0  0  0  0
 44 53  1  0  0  0  0
 45 67  1  0  0  0  0
 46 48  1  0  0  0  0
 47 49  1  0  0  0  0
 47 50  1  0  0  0  0
 48 52  1  0  0  0  0
 49 54  1  0  0  0  0
 50 68  1  0  0  0  0
 51 54  1  0  0  0  0
 51 68  1  0  0  0  0
 52 73  1  0  0  0  0
 53 67  1  0  0  0  0
 54 66  1  0  0  0  0
 56 63  1  0  0  0  0
 57 64  1  0  0  0  0
 58 64  1  0  0  0  0
 59 64  1  0  0  0  0
 60 75  1  0  0  0  0
 61 83  1  0  0  0  0
 62 64  1  0  0  0  0
 62 74  1  0  0  0  0
 63 75  1  0  0  0  0
 65 66  1  0  0  0  0
M  CHG  1  75   1
M  ISO  4  42 100  61 101  72 100  83 101
M  END
> <Batch ID>
0058

> <Smiles>
CNC(C)C(=O)NC(C(=O)N1Cc2cc([101O:1][101CH2:1]C=C=CC(=O)Nc3cc(C)cc([100NH:0][100C:0](=O)N4CCCC(n5nc(-c6ccc(Oc7ccc(F)cc7F)cc6)c(C(N)=O)c5N)C4)c3)ccc2CC1C(=O)NC1CCCc2ccccc21)C(C)(C)C

> <Shape>
0.314

> <Color>
0.094

> <Negative vol penalty>
0.000

$$$$

  -OEChem-04042322583D

 86 94  0     1  0  0  0  0  0999 V2000
  -19.5985  -23.8959   21.8975 C   0  0  0  0  0  0  0  0  0  0  0  0
  -20.7874  -24.2903   21.2923 C   0  0  0  0  0  0  0  0  0  0  0  0
  -25.0400  -13.5823   22.0520 C   0  0  0  0  0  0  0  0  0  0  0  0
  -26.1755  -13.4316   19.9248 C   0  0  0  0  0  0  0  0  0  0  0  0
  -18.7197  -24.8563   22.3968 C   0  0  0  0  0  0  0  0  0  0  0  0
  -21.0977  -25.6455   21.1849 C   0  0  0  0  0  0  0  0  0  0  0  0
  -25.9046  -26.6422   22.4281 C   0  0  0  0  0  0  0  0  0  0  0  0
  -28.8435  -20.0595   16.0378 C   0  0  0  0  0  0  0  0  0  0  0  0
  -24.1969  -12.5366   21.6761 C   0  0  0  0  0  0  0  0  0  0  0  0
  -25.3324  -12.3859   19.5489 C   0  0  0  0  0  0  0  0  0  0  0  0
  -26.8817  -26.3506   21.4774 C   0  0  0  0  0  0  0  0  0  0  0  0
  -21.4599  -12.1186   19.7375 C   0  0  0  0  0  0  0  0  0  0  0  0
  -28.9687  -20.4029   14.6917 C   0  0  0  0  0  0  0  0  0  0  0  0
  -20.0959  -12.2639   19.9905 C   0  0  0  0  0  0  0  0  0  0  0  0
  -26.9513  -28.6772   20.8439 C   0  0  0  0  0  0  0  0  0  0  0  0
  -27.6575  -22.1228   16.4540 C   0  0  0  0  0  0  0  0  0  0  0  0
  -20.1450  -10.2928   21.3868 C   0  0  0  0  0  0  0  0  0  0  0  0
  -26.0293  -14.0298   21.1764 C   0  0  0  0  0  0  0  0  0  0  0  0
  -28.1360  -15.0088   22.2306 C   0  0  0  0  0  0  0  0  0  0  0  0
  -19.0239  -26.2236   22.3042 C   0  0  0  0  0  0  0  0  0  0  0  0
  -25.4348  -27.9539   22.5866 C   0  0  0  0  0  0  0  0  0  0  0  0
  -20.2216  -26.6252   21.6822 C   0  0  0  0  0  0  0  0  0  0  0  0
  -25.9700  -28.9833   21.7991 C   0  0  0  0  0  0  0  0  0  0  0  0
  -27.7828  -22.4663   15.1079 C   0  0  0  0  0  0  0  0  0  0  0  0
  -28.1879  -20.9194   16.9190 C   0  0  0  0  0  0  0  0  0  0  0  0
  -24.3431  -11.9384   20.4245 C   0  0  0  0  0  0  0  0  0  0  0  0
  -27.4032  -27.3676   20.6831 C   0  0  0  0  0  0  0  0  0  0  0  0
  -22.1664  -11.0603   20.3090 C   0  0  0  0  0  0  0  0  0  0  0  0
  -19.4385  -11.3510   20.8152 C   0  0  0  0  0  0  0  0  0  0  0  0
  -28.4384  -21.6063   14.2268 C   0  0  0  0  0  0  0  0  0  0  0  0
  -21.5090  -10.1475   21.1337 C   0  0  0  0  0  0  0  0  0  0  0  0
  -26.9002  -15.1103   21.5640 C   0  0  0  0  0  0  0  0  0  0  0  0
  -28.5615  -16.3078   22.3648 C   0  0  0  0  0  0  0  0  0  0  0  0
  -28.1294  -25.5581   16.6911 C   0  0  0  0  0  0  0  0  0  0  0  0
  -28.8553  -25.8739   17.7728 C   0  0  0  0  0  0  0  0  0  0  0  0
  -28.8367  -13.8443   22.6876 C   0  0  0  0  0  0  0  0  0  0  0  0
  -28.7372  -25.6544   15.3324 C   0  0  0  0  0  0  0  0  0  0  0  0
  -22.6143  -29.3818   22.2559 C   0  0  0  0  0  0  0  0  0  0  0  0
  -24.2034  -31.9371   23.4671 C   0  0  0  0  0  0  0  0  0  0  0  0
  -27.1832  -33.5216   23.9739 C   0  0  0  0  0  0  0  0  0  0  0  0
  -27.4396  -21.3087   19.2928 C   0  0  0  0  0  0  0  0  0  0  0  0
  -18.0208  -27.2268   22.8161 C   0  0  0  0  0  0  0  0  0  0  0  0
  -24.3997  -28.2566   23.6351 C   0  0  0  0  0  0  0  0  0  0  0  0
  -25.5141  -30.4114   21.9441 C   0  0  0  0  0  0  0  0  0  0  0  0
  -18.5990  -28.6278   22.9980 C   0  0  0  0  0  0  0  0  0  0  0  0
  -26.8837  -20.7750   22.7689 C   0  0  0  0  0  0  0  0  0  0  0  0
  -19.4162  -29.0311   21.7748 C   0  0  0  0  0  0  0  0  0  0  0  0
  -26.9434  -19.2529   22.9161 C   0  0  0  0  0  0  0  0  0  0  0  0
  -26.2229  -21.1924   21.4563 C   0  0  0  0  0  0  0  0  0  0  0  0
  -26.8571  -19.0603   20.3976 C   0  0  0  0  0  0  0  0  0  0  0  0
  -20.6051  -28.0847   21.5691 C   0  0  1  0  0  0  0  0  0  0  0  0
  -23.6247  -29.5408   23.3565 C   0  0  1  0  0  0  0  0  0  0  0  0
  -27.5730  -18.5909   21.6747 C   0  0  2  0  0  0  0  0  0  0  0  0
  -28.1599  -35.6126   24.9595 C   0  0  0  0  0  0  0  0  0  0  0  0
  -23.2406  -33.5252   21.0461 C   0  0  0  0  0  0  0  0  0  0  0  0
  -24.9763  -35.2503   21.5749 C   0  0  0  0  0  0  0  0  0  0  0  0
  -23.1562  -34.7721   23.2124 C   0  0  0  0  0  0  0  0  0  0  0  0
  -28.8139  -24.7763   13.0303 C   0  0  0  0  0  0  0  0  0  0  0  0
  -28.7895  -31.9880   25.9301 C   0  0  0  0  0  0  0  0  0  0  0  0
  -27.2101  -23.7615   14.6093 C   0  0  0  0  0  0  0  0  0  0  0  0
  -28.3282  -25.7844   19.1686 C   0  0  0  0  0  0  0  0  0  1  0  0
  -25.0016  -33.0761   22.8801 C   0  0  1  0  0  0  0  0  0  0  0  0
  -27.7869  -34.1600   25.2118 C   0  0  2  0  0  0  0  0  0  0  0  0
  -24.1011  -34.1288   22.1741 C   0  0  0  0  0  0  0  0  0  0  0  0
  -26.5625  -16.3739   21.2936 N   0  0  0  0  0  0  0  0  0  0  0  0
  -27.5923  -17.0784   21.7929 N   0  0  0  0  0  0  0  0  0  0  0  0
  -24.4956  -30.6558   22.9787 N   0  0  0  0  0  0  0  0  0  0  0  0
  -26.8742  -20.5297   20.3244 N   0  0  0  0  0  0  0  0  0  0  0  0
  -29.6663  -16.8546   22.9150 N   0  0  0  0  0  0  0  0  0  0  0  0
  -28.2575  -12.5871   22.4683 N   0  0  0  0  0  0  0  0  0  0  0  0
  -28.0602  -20.5696   18.2861 N   0  0  0  0  0  0  0  0  0  0  0  0
  -21.6700  -28.4020   22.4963 N   0  0  0  0  0  0  0  0  0  0  0  0
  -25.8075  -33.6144   23.9706 N   0  0  0  0  0  0  0  0  0  0  0  0
  -28.2478  -24.7635   14.3730 N   0  0  0  0  0  0  0  0  0  0  0  0
  -29.0148  -33.4248   25.6273 N   0  3  0  0  0  0  0  0  0  0  0  0
  -29.9358  -13.9177   23.2877 O   0  0  0  0  0  0  0  0  0  0  0  0
  -29.6352  -26.4709   15.1211 O   0  0  0  0  0  0  0  0  0  0  0  0
  -22.6851  -30.0962   21.2627 O   0  0  0  0  0  0  0  0  0  0  0  0
  -23.3569  -32.1748   24.3324 O   0  0  0  0  0  0  0  0  0  0  0  0
  -27.8642  -32.9967   23.0957 O   0  0  0  0  0  0  0  0  0  0  0  0
  -27.4017  -22.5416   19.3154 O   0  0  0  0  0  0  0  0  0  0  0  0
  -23.5207  -10.9179   20.0574 O   0  0  0  0  0  0  0  0  0  0  0  0
  -28.3565  -27.0856   19.7539 O   0  0  0  0  0  0  0  0  0  1  0  0
  -18.1290  -11.4915   21.0594 F   0  0  0  0  0  0  0  0  0  0  0  0
  -28.5648  -21.9282   12.9319 F   0  0  0  0  0  0  0  0  0  0  0  0
  -22.1827   -9.1295   21.6865 F   0  0  0  0  0  0  0  0  0  0  0  0
  1  2  1  0  0  0  0
  1  5  2  0  0  0  0
  2  6  2  0  0  0  0
  3  9  2  0  0  0  0
  3 18  1  0  0  0  0
  4 10  1  0  0  0  0
  4 18  2  0  0  0  0
  5 20  1  0  0  0  0
  6 22  1  0  0  0  0
  7 11  2  0  0  0  0
  7 21  1  0  0  0  0
  8 13  2  0  0  0  0
  8 25  1  0  0  0  0
  9 26  1  0  0  0  0
 10 26  2  0  0  0  0
 11 27  1  0  0  0  0
 12 14  2  0  0  0  0
 12 28  1  0  0  0  0
 13 30  1  0  0  0  0
 14 29  1  0  0  0  0
 15 23  1  0  0  0  0
 15 27  2  0  0  0  0
 16 24  1  0  0  0  0
 16 25  2  0  0  0  0
 17 29  2  0  0  0  0
 17 31  1  0  0  0  0
 18 32  1  0  0  0  0
 19 32  1  0  0  0  0
 19 33  2  0  0  0  0
 19 36  1  0  0  0  0
 20 22  2  0  0  0  0
 20 42  1  0  0  0  0
 21 23  2  0  0  0  0
 21 43  1  0  0  0  0
 22 51  1  0  0  0  0
 23 44  1  0  0  0  0
 24 30  2  0  0  0  0
 24 60  1  0  0  0  0
 25 71  1  0  0  0  0
 26 82  1  0  0  0  0
 27 83  1  0  0  0  0
 28 31  2  0  0  0  0
 28 82  1  0  0  0  0
 29 84  1  0  0  0  0
 30 85  1  0  0  0  0
 31 86  1  0  0  0  0
 32 65  2  0  0  0  0
 33 66  1  0  0  0  0
 33 69  1  0  0  0  0
 34 35  2  0  0  0  0
 34 37  1  0  0  0  0
 35 61  1  0  0  0  0
 36 70  1  0  0  0  0
 36 76  2  0  0  0  0
 37 74  1  0  0  0  0
 37 77  2  0  0  0  0
 38 52  1  0  0  0  0
 38 72  1  0  0  0  0
 38 78  2  0  0  0  0
 39 62  1  0  0  0  0
 39 67  1  0  0  0  0
 39 79  2  0  0  0  0
 40 63  1  0  0  0  0
 40 73  1  0  0  0  0
 40 80  2  0  0  0  0
 41 68  1  0  0  0  0
 41 71  1  0  0  0  0
 41 81  2  0  0  0  0
 42 45  1  0  0  0  0
 43 52  1  0  0  0  0
 44 67  1  0  0  0  0
 45 47  1  0  0  0  0
 46 48  1  0  0  0  0
 46 49  1  0  0  0  0
 47 51  1  0  0  0  0
 48 53  1  0  0  0  0
 49 68  1  0  0  0  0
 50 53  1  0  0  0  0
 50 68  1  0  0  0  0
 51 72  1  0  0  0  0
 52 67  1  0  0  0  0
 53 66  1  0  0  0  0
 54 63  1  0  0  0  0
 55 64  1  0  0  0  0
 56 64  1  0  0  0  0
 57 64  1  0  0  0  0
 58 74  1  0  0  0  0
 59 75  1  0  0  0  0
 60 74  1  0  0  0  0
 61 83  1  0  0  0  0
 62 64  1  0  0  0  0
 62 73  1  0  0  0  0
 63 75  1  0  0  0  0
 65 66  1  0  0  0  0
M  CHG  1  75   1
M  ISO  4  41 100  61 101  71 100  83 101
M  END
> <Batch ID>
0058

> <Smiles>
CNC(C)C(=O)NC(C(=O)N1Cc2cc([101O:1][101CH2:1]C=CC(=O)N(C)Cc3cc([100NH:0][100C:0](=O)N4CCCC(n5nc(-c6ccc(Oc7ccc(F)cc7F)cc6)c(C(N)=O)c5N)C4)ccc3F)ccc2CC1C(=O)NC1CCCc2ccccc21)C(C)(C)C

> <Shape>
0.237

> <Color>
0.093

> <Negative vol penalty>
0.000

$$$$

  -OEChem-04042322583D

 90 98  0     1  0  0  0  0  0999 V2000
  -29.0226  -36.2924   19.5736 C   0  0  0  0  0  0  0  0  0  0  0  0
  -29.1826  -34.9347   19.8316 C   0  0  0  0  0  0  0  0  0  0  0  0
  -25.1770  -20.8426   20.3328 C   0  0  0  0  0  0  0  0  0  0  0  0
  -29.2019  -10.6733   16.4498 C   0  0  0  0  0  0  0  0  0  0  0  0
  -30.3525  -12.7952   16.3441 C   0  0  0  0  0  0  0  0  0  0  0  0
  -26.3778  -21.4731   20.0073 C   0  0  0  0  0  0  0  0  0  0  0  0
  -27.9966  -37.0028   20.1955 C   0  0  0  0  0  0  0  0  0  0  0  0
  -28.3173  -34.2868   20.7125 C   0  0  0  0  0  0  0  0  0  0  0  0
  -26.7273  -29.8178   18.9391 C   0  0  0  0  0  0  0  0  0  0  0  0
  -25.1593  -19.4752   20.6079 C   0  0  0  0  0  0  0  0  0  0  0  0
  -29.5317  -10.4280   15.1169 C   0  0  0  0  0  0  0  0  0  0  0  0
  -30.6823  -12.5499   15.0111 C   0  0  0  0  0  0  0  0  0  0  0  0
  -27.6127  -28.7448   19.0311 C   0  0  0  0  0  0  0  0  0  0  0  0
  -28.4350  -11.3790   12.0645 C   0  0  0  0  0  0  0  0  0  0  0  0
  -27.4318  -10.8874   11.2294 C   0  0  0  0  0  0  0  0  0  0  0  0
  -26.4503  -27.9618   20.9944 C   0  0  0  0  0  0  0  0  0  0  0  0
  -28.7571   -8.9137   10.7992 C   0  0  0  0  0  0  0  0  0  0  0  0
  -29.6123  -11.8569   17.0634 C   0  0  0  0  0  0  0  0  0  0  0  0
  -27.5611  -20.7362   19.9566 C   0  0  0  0  0  0  0  0  0  0  0  0
  -30.0205  -11.7620   19.5798 C   0  0  0  0  0  0  0  0  0  0  0  0
  -27.1123  -36.3612   21.0770 C   0  0  0  0  0  0  0  0  0  0  0  0
  -25.7017  -29.9772   19.8820 C   0  0  0  0  0  0  0  0  0  0  0  0
  -27.2793  -34.9896   21.3477 C   0  0  0  0  0  0  0  0  0  0  0  0
  -25.5516  -29.0362   20.9107 C   0  0  0  0  0  0  0  0  0  0  0  0
  -26.3426  -18.7383   20.5572 C   0  0  0  0  0  0  0  0  0  0  0  0
  -30.2719  -11.3663   14.3976 C   0  0  0  0  0  0  0  0  0  0  0  0
  -27.4761  -27.8182   20.0605 C   0  0  0  0  0  0  0  0  0  0  0  0
  -29.5994  -10.6380   12.2669 C   0  0  0  0  0  0  0  0  0  0  0  0
  -27.5928   -9.6548   10.5967 C   0  0  0  0  0  0  0  0  0  0  0  0
  -29.7604   -9.4054   11.6343 C   0  0  0  0  0  0  0  0  0  0  0  0
  -27.5435  -19.3688   20.2316 C   0  0  0  0  0  0  0  0  0  0  0  0
  -29.2714  -12.1112   18.4401 C   0  0  0  0  0  0  0  0  0  0  0  0
  -29.2725  -12.2213   20.6362 C   0  0  0  0  0  0  0  0  0  0  0  0
  -28.8308  -21.4070   19.6123 C   0  0  0  0  0  0  0  0  0  0  0  0
  -31.2799  -11.0834   19.6749 C   0  0  0  0  0  0  0  0  0  0  0  0
  -24.9487  -32.2029   22.0228 C   0  0  0  0  0  0  0  0  0  0  0  0
  -22.3003  -30.3721   22.4182 C   0  0  0  0  0  0  0  0  0  0  0  0
  -20.8323  -27.3034   22.1449 C   0  0  0  0  0  0  0  0  0  0  0  0
  -25.2141  -16.5733   21.1782 C   0  0  0  0  0  0  0  0  0  0  0  0
  -26.0477  -37.1811   21.7617 C   0  0  0  0  0  0  0  0  0  0  0  0
  -24.7384  -31.1252   19.7533 C   0  0  0  0  0  0  0  0  0  0  0  0
  -24.4548  -29.1509   21.9365 C   0  0  0  0  0  0  0  0  0  0  0  0
  -24.9424  -36.3387   22.3934 C   0  0  0  0  0  0  0  0  0  0  0  0
  -24.7437  -13.1202   21.9075 C   0  0  0  0  0  0  0  0  0  0  0  0
  -25.5406  -35.1820   23.1877 C   0  0  0  0  0  0  0  0  0  0  0  0
  -25.9230  -12.4384   21.2099 C   0  0  0  0  0  0  0  0  0  0  0  0
  -24.2114  -14.3011   21.0977 C   0  0  0  0  0  0  0  0  0  0  0  0
  -26.4009  -14.6119   20.0121 C   0  0  0  0  0  0  0  0  0  0  0  0
  -26.3456  -34.2461   22.2780 C   0  0  1  0  0  0  0  0  0  0  0  0
  -24.0464  -31.4747   21.0672 C   0  0  1  0  0  0  0  0  0  0  0  0
  -27.0129  -13.4565   20.8210 C   0  0  2  0  0  0  0  0  0  0  0  0
  -31.9175  -20.1557   18.0607 C   0  0  0  0  0  0  0  0  0  0  0  0
  -18.6694  -26.1084   22.5821 C   0  0  0  0  0  0  0  0  0  0  0  0
  -22.9370  -30.3165   25.4018 C   0  0  0  0  0  0  0  0  0  0  0  0
  -21.3562  -28.3887   25.6322 C   0  0  0  0  0  0  0  0  0  0  0  0
  -20.5131  -30.6050   24.8575 C   0  0  0  0  0  0  0  0  0  0  0  0
  -29.6599  -22.0957   15.5209 C   0  0  0  0  0  0  0  0  0  0  0  0
  -31.9838  -22.6698   16.2242 C   0  0  0  0  0  0  0  0  0  0  0  0
  -20.4915  -26.6305   19.2831 C   0  0  0  0  0  0  0  0  0  0  0  0
  -30.9368  -20.4813   16.9401 C   0  0  0  0  0  0  0  0  0  0  0  0
  -29.1969  -24.7914   19.0925 C   0  0  0  0  0  0  0  0  0  0  0  0
  -29.7802  -24.1970   17.8064 C   0  0  0  0  0  0  0  0  0  0  0  0
  -28.8958  -26.2759   18.9372 C   0  0  0  0  0  0  0  0  0  1  0  0
  -21.9298  -29.2046   23.3006 C   0  0  1  0  0  0  0  0  0  0  0  0
  -19.4983  -26.8733   21.5620 C   0  0  2  0  0  0  0  0  0  0  0  0
  -30.1339  -22.7083   17.9677 C   0  0  2  0  0  0  0  0  0  0  0  0
  -21.7060  -29.6273   24.7800 C   0  0  0  0  0  0  0  0  0  0  0  0
  -30.6717  -21.9980   16.6849 C   0  0  0  0  0  0  0  0  0  0  0  0
  -28.1347  -12.7433   18.7440 N   0  0  0  0  0  0  0  0  0  0  0  0
  -28.1639  -12.7949   20.0866 N   0  0  0  0  0  0  0  0  0  0  0  0
  -23.5420  -30.2942   21.7718 N   0  0  0  0  0  0  0  0  0  0  0  0
  -25.2988  -15.2256   20.7694 N   0  0  0  0  0  0  0  0  0  0  0  0
  -29.4615  -12.1862   21.9724 N   0  0  0  0  0  0  0  0  0  0  0  0
  -29.8197  -21.3764   20.5057 N   0  0  0  0  0  0  0  0  0  0  0  0
  -31.9128  -10.6803   18.4911 N   0  0  0  0  0  0  0  0  0  0  0  0
  -26.3214  -17.3497   20.8381 N   0  0  0  0  0  0  0  0  0  0  0  0
  -25.4578  -33.3870   21.5243 N   0  0  0  0  0  0  0  0  0  0  0  0
  -20.7712  -28.5737   22.6776 N   0  0  0  0  0  0  0  0  0  0  0  0
  -28.9199  -22.0099   18.4262 N   0  3  0  0  0  0  0  0  0  0  0  0
  -19.7099  -25.9963   20.3758 N   0  3  0  0  0  0  0  0  0  0  0  0
  -31.8199  -10.8270   20.7777 O   0  0  0  0  0  0  0  0  0  0  0  0
  -25.1658  -31.7267   23.1308 O   0  0  0  0  0  0  0  0  0  0  0  0
  -21.5138  -31.3152   22.3011 O   0  0  0  0  0  0  0  0  0  0  0  0
  -21.8280  -26.5830   22.1325 O   0  0  0  0  0  0  0  0  0  0  0  0
  -24.2437  -17.0004   21.8091 O   0  0  0  0  0  0  0  0  0  0  0  0
  -30.5941  -11.1271   13.0970 O   0  0  0  0  0  0  0  0  0  0  0  0
  -28.3457  -26.7626   20.1537 O   0  0  0  0  0  0  0  0  0  1  0  0
  -26.6287   -9.1821    9.7960 F   0  0  0  0  0  0  0  0  0  0  0  0
  -30.8762   -8.6884   11.8258 F   0  0  0  0  0  0  0  0  0  0  0  0
  -28.6826  -18.6615   20.1828 F   0  0  0  0  0  0  0  0  0  0  0  0
  1  2  1  0  0  0  0
  1  7  2  0  0  0  0
  2  8  2  0  0  0  0
  3  6  2  0  0  0  0
  3 10  1  0  0  0  0
  4 11  2  0  0  0  0
  4 18  1  0  0  0  0
  5 12  1  0  0  0  0
  5 18  2  0  0  0  0
  6 19  1  0  0  0  0
  7 21  1  0  0  0  0
  8 23  1  0  0  0  0
  9 13  2  0  0  0  0
  9 22  1  0  0  0  0
 10 25  2  0  0  0  0
 11 26  1  0  0  0  0
 12 26  2  0  0  0  0
 13 27  1  0  0  0  0
 14 15  2  0  0  0  0
 14 28  1  0  0  0  0
 15 29  1  0  0  0  0
 16 24  1  0  0  0  0
 16 27  2  0  0  0  0
 17 29  2  0  0  0  0
 17 30  1  0  0  0  0
 18 32  1  0  0  0  0
 19 31  2  0  0  0  0
 19 34  1  0  0  0  0
 20 32  1  0  0  0  0
 20 33  2  0  0  0  0
 20 35  1  0  0  0  0
 21 23  2  0  0  0  0
 21 40  1  0  0  0  0
 22 24  2  0  0  0  0
 22 41  1  0  0  0  0
 23 49  1  0  0  0  0
 24 42  1  0  0  0  0
 25 31  1  0  0  0  0
 25 76  1  0  0  0  0
 26 86  1  0  0  0  0
 27 87  1  0  0  0  0
 28 30  2  0  0  0  0
 28 86  1  0  0  0  0
 29 88  1  0  0  0  0
 30 89  1  0  0  0  0
 31 90  1  0  0  0  0
 32 69  2  0  0  0  0
 33 70  1  0  0  0  0
 33 73  1  0  0  0  0
 34 74  1  0  0  0  0
 34 79  2  0  0  0  0
 35 75  1  0  0  0  0
 35 81  2  0  0  0  0
 36 50  1  0  0  0  0
 36 77  1  0  0  0  0
 36 82  2  0  0  0  0
 37 64  1  0  0  0  0
 37 71  1  0  0  0  0
 37 83  2  0  0  0  0
 38 65  1  0  0  0  0
 38 78  1  0  0  0  0
 38 84  2  0  0  0  0
 39 72  1  0  0  0  0
 39 76  1  0  0  0  0
 39 85  2  0  0  0  0
 40 43  1  0  0  0  0
 41 50  1  0  0  0  0
 42 71  1  0  0  0  0
 43 45  1  0  0  0  0
 44 46  1  0  0  0  0
 44 47  1  0  0  0  0
 45 49  1  0  0  0  0
 46 51  1  0  0  0  0
 47 72  1  0  0  0  0
 48 51  1  0  0  0  0
 48 72  1  0  0  0  0
 49 77  1  0  0  0  0
 50 71  1  0  0  0  0
 51 70  1  0  0  0  0
 52 60  1  0  0  0  0
 53 65  1  0  0  0  0
 54 67  1  0  0  0  0
 55 67  1  0  0  0  0
 56 67  1  0  0  0  0
 57 68  1  0  0  0  0
 58 68  1  0  0  0  0
 59 80  1  0  0  0  0
 60 68  1  0  0  0  0
 61 62  1  0  0  0  0
 61 63  1  0  0  0  0
 62 66  1  0  0  0  0
 63 87  1  0  0  0  0
 64 67  1  0  0  0  0
 64 78  1  0  0  0  0
 65 80  1  0  0  0  0
 66 68  1  0  0  0  0
 66 79  1  0  0  0  0
 69 70  1  0  0  0  0
M  CHG  2  79   1  80   1
M  ISO  4  39 100  63 101  76 100  87 101
M  END
> <Batch ID>
0058

> <Smiles>
CCC(C)(C)C(CC[101CH2:1][101O:1]c1ccc2c(c1)CN(C(=O)C(NC(=O)C(C)NC)C(C)(C)C)C(C(=O)NC1CCCc3ccccc31)C2)NC(=N)c1cccc([100NH:0][100C:0](=O)N2CCCC(n3nc(-c4ccc(Oc5ccc(F)cc5F)cc4)c(C(N)=O)c3N)C2)c1F

> <Shape>
0.280

> <Color>
0.069

> <Negative vol penalty>
0.000

$$$$

  -OEChem-04042322583D

 85 93  0     1  0  0  0  0  0999 V2000
  -19.1829  -30.6693   25.1157 C   0  0  0  0  0  0  0  0  0  0  0  0
  -20.5421  -30.4565   24.9090 C   0  0  0  0  0  0  0  0  0  0  0  0
  -23.4288  -13.7908   21.7730 C   0  0  0  0  0  0  0  0  0  0  0  0
  -25.8320  -14.0377   21.8055 C   0  0  0  0  0  0  0  0  0  0  0  0
  -18.2464  -29.8558   24.4794 C   0  0  0  0  0  0  0  0  0  0  0  0
  -20.9656  -29.4292   24.0665 C   0  0  0  0  0  0  0  0  0  0  0  0
  -25.8709  -29.4609   20.4002 C   0  0  0  0  0  0  0  0  0  0  0  0
  -30.5819  -21.6984   20.2046 C   0  0  0  0  0  0  0  0  0  0  0  0
  -29.3719  -23.3377   18.9064 C   0  0  0  0  0  0  0  0  0  0  0  0
  -29.3877  -21.2834   20.7938 C   0  0  0  0  0  0  0  0  0  0  0  0
  -28.1776  -22.9227   19.4955 C   0  0  0  0  0  0  0  0  0  0  0  0
  -23.5633  -12.5678   21.1159 C   0  0  0  0  0  0  0  0  0  0  0  0
  -25.9665  -12.8146   21.1485 C   0  0  0  0  0  0  0  0  0  0  0  0
  -27.1548  -28.9375   20.5466 C   0  0  0  0  0  0  0  0  0  0  0  0
  -24.3306   -9.3760   21.9262 C   0  0  0  0  0  0  0  0  0  0  0  0
  -23.5577   -8.3076   22.3807 C   0  0  0  0  0  0  0  0  0  0  0  0
  -26.4836  -26.9663   19.3289 C   0  0  0  0  0  0  0  0  0  0  0  0
  -22.5140   -8.1384   20.2084 C   0  0  0  0  0  0  0  0  0  0  0  0
  -24.5632  -14.5258   22.1177 C   0  0  0  0  0  0  0  0  0  0  0  0
  -24.3837  -16.0083   24.1860 C   0  0  0  0  0  0  0  0  0  0  0  0
  -18.6584  -28.8242   23.6211 C   0  0  0  0  0  0  0  0  0  0  0  0
  -24.8790  -28.7349   19.7253 C   0  0  0  0  0  0  0  0  0  0  0  0
  -20.0337  -28.6002   23.4191 C   0  0  0  0  0  0  0  0  0  0  0  0
  -25.1886  -27.4838   19.1731 C   0  0  0  0  0  0  0  0  0  0  0  0
  -30.5741  -22.7256   19.2609 C   0  0  0  0  0  0  0  0  0  0  0  0
  -28.1855  -21.8955   20.4392 C   0  0  0  0  0  0  0  0  0  0  0  0
  -24.8321  -12.0797   20.8037 C   0  0  0  0  0  0  0  0  0  0  0  0
  -27.4606  -27.6888   20.0135 C   0  0  0  0  0  0  0  0  0  0  0  0
  -24.1952   -9.8258   20.6128 C   0  0  0  0  0  0  0  0  0  0  0  0
  -22.6495   -7.6887   21.5218 C   0  0  0  0  0  0  0  0  0  0  0  0
  -23.2869   -9.2070   19.7539 C   0  0  0  0  0  0  0  0  0  0  0  0
  -24.4248  -15.7896   22.7960 C   0  0  0  0  0  0  0  0  0  0  0  0
  -24.2431  -17.3684   24.3156 C   0  0  0  0  0  0  0  0  0  0  0  0
  -24.4654  -15.0663   25.2638 C   0  0  0  0  0  0  0  0  0  0  0  0
  -22.0602  -27.5058   20.5297 C   0  0  0  0  0  0  0  0  0  0  0  0
  -21.8830  -26.8415   17.3596 C   0  0  0  0  0  0  0  0  0  0  0  0
  -32.8469  -25.0149   19.9774 C   0  0  0  0  0  0  0  0  0  0  0  0
  -23.5247  -26.2861   14.4197 C   0  0  0  0  0  0  0  0  0  0  0  0
  -25.6932  -21.9757   20.7976 C   0  0  0  0  0  0  0  0  0  0  0  0
  -17.6101  -27.9406   22.9925 C   0  0  0  0  0  0  0  0  0  0  0  0
  -23.5064  -29.3251   19.5527 C   0  0  0  0  0  0  0  0  0  0  0  0
  -24.1652  -26.6732   18.4221 C   0  0  0  0  0  0  0  0  0  0  0  0
  -18.1336  -27.1127   21.8217 C   0  0  0  0  0  0  0  0  0  0  0  0
  -22.4518  -21.1816   22.0385 C   0  0  0  0  0  0  0  0  0  0  0  0
  -19.4626  -26.4572   22.1835 C   0  0  0  0  0  0  0  0  0  0  0  0
  -22.5878  -19.7306   22.5057 C   0  0  0  0  0  0  0  0  0  0  0  0
  -23.2649  -21.4487   20.7731 C   0  0  0  0  0  0  0  0  0  0  0  0
  -24.8164  -19.6146   21.3195 C   0  0  0  0  0  0  0  0  0  0  0  0
  -20.5318  -27.5119   22.4931 C   0  0  1  0  0  0  0  0  0  0  0  0
  -22.4321  -28.2735   19.2928 C   0  0  1  0  0  0  0  0  0  0  0  0
  -24.0668  -19.3142   22.6277 C   0  0  2  0  0  0  0  0  0  0  0  0
  -23.1120  -25.7311   12.0074 C   0  0  0  0  0  0  0  0  0  0  0  0
  -21.3135  -23.9436   18.1263 C   0  0  0  0  0  0  0  0  0  0  0  0
  -21.8523  -23.2876   15.7709 C   0  0  0  0  0  0  0  0  0  0  0  0
  -19.9321  -24.8120   16.2310 C   0  0  0  0  0  0  0  0  0  0  0  0
  -24.7786  -28.8061   13.5051 C   0  0  0  0  0  0  0  0  0  0  0  0
  -31.8596  -23.1722   18.6269 C   0  0  0  0  0  0  0  0  0  0  0  0
  -32.9537  -26.5310   19.9985 C   0  0  0  0  0  0  0  0  0  0  0  0
  -31.6031  -27.2430   20.0573 C   0  0  0  0  0  0  0  0  0  0  0  0
  -30.7984  -26.8640   21.3013 C   0  0  0  0  0  0  0  0  0  0  0  0
  -29.4420  -27.5551   21.3219 C   0  0  0  0  0  0  0  0  0  1  0  0
  -22.2928  -25.6804   16.4861 C   0  0  1  0  0  0  0  0  0  0  0  0
  -23.3091  -26.8443   13.0246 C   0  0  2  0  0  0  0  0  0  0  0  0
  -21.3666  -24.4451   16.6694 C   0  0  0  0  0  0  0  0  0  0  0  0
  -24.3187  -16.9201   22.0927 N   0  0  0  0  0  0  0  0  0  0  0  0
  -24.2095  -17.8624   23.0447 N   0  0  0  0  0  0  0  0  0  0  0  0
  -22.8355  -27.2904   18.2853 N   0  0  0  0  0  0  0  0  0  0  0  0
  -24.6563  -21.0334   20.9642 N   0  0  0  0  0  0  0  0  0  0  0  0
  -24.1461  -18.1781   25.3914 N   0  0  0  0  0  0  0  0  0  0  0  0
  -24.6085  -13.7070   24.9537 N   0  0  0  0  0  0  0  0  0  0  0  0
  -26.9721  -21.4740   21.0373 N   0  0  0  0  0  0  0  0  0  0  0  0
  -21.0458  -28.0853   21.2678 N   0  0  0  0  0  0  0  0  0  0  0  0
  -32.1289  -24.5695   18.8769 N   0  0  0  0  0  0  0  0  0  0  0  0
  -22.3413  -26.1936   15.1213 N   0  0  0  0  0  0  0  0  0  0  0  0
  -24.4835  -27.6608   12.6061 N   0  3  0  0  0  0  0  0  0  0  0  0
  -24.3966  -15.4178   26.4660 O   0  0  0  0  0  0  0  0  0  0  0  0
  -22.6488  -26.4640   20.7941 O   0  0  0  0  0  0  0  0  0  0  0  0
  -20.7617  -27.3366   17.2207 O   0  0  0  0  0  0  0  0  0  0  0  0
  -33.3267  -24.2936   20.8476 O   0  0  0  0  0  0  0  0  0  0  0  0
  -24.6316  -25.9608   14.8433 O   0  0  0  0  0  0  0  0  0  0  0  0
  -25.4616  -23.1486   20.4933 O   0  0  0  0  0  0  0  0  0  0  0  0
  -24.9638  -10.8862   20.1628 O   0  0  0  0  0  0  0  0  0  0  0  0
  -28.7128  -27.1753   20.1556 O   0  0  0  0  0  0  0  0  0  1  0  0
  -21.9084   -6.6617   21.9580 F   0  0  0  0  0  0  0  0  0  0  0  0
  -23.1532   -9.6338   18.4906 F   0  0  0  0  0  0  0  0  0  0  0  0
  1  2  1  0  0  0  0
  1  5  2  0  0  0  0
  2  6  2  0  0  0  0
  3 12  2  0  0  0  0
  3 19  1  0  0  0  0
  4 13  1  0  0  0  0
  4 19  2  0  0  0  0
  5 21  1  0  0  0  0
  6 23  1  0  0  0  0
  7 14  2  0  0  0  0
  7 22  1  0  0  0  0
  8 10  2  0  0  0  0
  8 25  1  0  0  0  0
  9 11  1  0  0  0  0
  9 25  2  0  0  0  0
 10 26  1  0  0  0  0
 11 26  2  0  0  0  0
 12 27  1  0  0  0  0
 13 27  2  0  0  0  0
 14 28  1  0  0  0  0
 15 16  2  0  0  0  0
 15 29  1  0  0  0  0
 16 30  1  0  0  0  0
 17 24  1  0  0  0  0
 17 28  2  0  0  0  0
 18 30  2  0  0  0  0
 18 31  1  0  0  0  0
 19 32  1  0  0  0  0
 20 32  1  0  0  0  0
 20 33  2  0  0  0  0
 20 34  1  0  0  0  0
 21 23  2  0  0  0  0
 21 40  1  0  0  0  0
 22 24  2  0  0  0  0
 22 41  1  0  0  0  0
 23 49  1  0  0  0  0
 24 42  1  0  0  0  0
 25 57  1  0  0  0  0
 26 71  1  0  0  0  0
 27 82  1  0  0  0  0
 28 83  1  0  0  0  0
 29 31  2  0  0  0  0
 29 82  1  0  0  0  0
 30 84  1  0  0  0  0
 31 85  1  0  0  0  0
 32 65  2  0  0  0  0
 33 66  1  0  0  0  0
 33 69  1  0  0  0  0
 34 70  1  0  0  0  0
 34 76  2  0  0  0  0
 35 50  1  0  0  0  0
 35 72  1  0  0  0  0
 35 77  2  0  0  0  0
 36 62  1  0  0  0  0
 36 67  1  0  0  0  0
 36 78  2  0  0  0  0
 37 58  1  0  0  0  0
 37 73  1  0  0  0  0
 37 79  2  0  0  0  0
 38 63  1  0  0  0  0
 38 74  1  0  0  0  0
 38 80  2  0  0  0  0
 39 68  1  0  0  0  0
 39 71  1  0  0  0  0
 39 81  2  0  0  0  0
 40 43  1  0  0  0  0
 41 50  1  0  0  0  0
 42 67  1  0  0  0  0
 43 45  1  0  0  0  0
 44 46  1  0  0  0  0
 44 47  1  0  0  0  0
 45 49  1  0  0  0  0
 46 51  1  0  0  0  0
 47 68  1  0  0  0  0
 48 51  1  0  0  0  0
 48 68  1  0  0  0  0
 49 72  1  0  0  0  0
 50 67  1  0  0  0  0
 51 66  1  0  0  0  0
 52 63  1  0  0  0  0
 53 64  1  0  0  0  0
 54 64  1  0  0  0  0
 55 64  1  0  0  0  0
 56 75  1  0  0  0  0
 57 73  1  0  0  0  0
 58 59  1  0  0  0  0
 59 60  1  0  0  0  0
 60 61  1  0  0  0  0
 61 83  1  0  0  0  0
 62 64  1  0  0  0  0
 62 74  1  0  0  0  0
 63 75  1  0  0  0  0
 65 66  1  0  0  0  0
M  CHG  1  75   1
M  ISO  4  39 100  61 101  71 100  83 101
M  END
> <Batch ID>
0058

> <Smiles>
CNC(C)C(=O)NC(C(=O)N1Cc2cc([101O:1][101CH2:1]CCCC(=O)NCc3ccc([100NH:0][100C:0](=O)N4CCCC(n5nc(-c6ccc(Oc7ccc(F)cc7F)cc6)c(C(N)=O)c5N)C4)cc3)ccc2CC1C(=O)NC1CCCc2ccccc21)C(C)(C)C

> <Shape>
0.232

> <Color>
0.073

> <Negative vol penalty>
0.000

$$$$

  -OEChem-04042322583D

 90 99  0     1  0  0  0  0  0999 V2000
  -21.4193  -38.6448   19.3206 C   0  0  0  0  0  0  0  0  0  0  0  0
  -22.5022  -37.9216   18.8309 C   0  0  0  0  0  0  0  0  0  0  0  0
  -22.6508  -10.2040   20.5242 C   0  0  0  0  0  0  0  0  0  0  0  0
  -24.5154   -8.9816   21.4548 C   0  0  0  0  0  0  0  0  0  0  0  0
  -21.2336  -38.7738   20.6964 C   0  0  0  0  0  0  0  0  0  0  0  0
  -23.4005  -37.3278   19.7168 C   0  0  0  0  0  0  0  0  0  0  0  0
  -24.5622  -30.2193   19.6112 C   0  0  0  0  0  0  0  0  0  0  0  0
  -27.9424  -20.0738   19.7998 C   0  0  0  0  0  0  0  0  0  0  0  0
  -28.2217  -18.7073   19.8156 C   0  0  0  0  0  0  0  0  0  0  0  0
  -21.7863   -9.5585   21.4083 C   0  0  0  0  0  0  0  0  0  0  0  0
  -23.6509   -8.3361   22.3390 C   0  0  0  0  0  0  0  0  0  0  0  0
  -24.9961  -28.8971   19.5130 C   0  0  0  0  0  0  0  0  0  0  0  0
  -21.4426   -5.7778   22.2424 C   0  0  0  0  0  0  0  0  0  0  0  0
  -21.5895   -4.4000   22.4026 C   0  0  0  0  0  0  0  0  0  0  0  0
  -26.4611  -29.2258   21.4087 C   0  0  0  0  0  0  0  0  0  0  0  0
  -25.8018  -19.6484   20.8361 C   0  0  0  0  0  0  0  0  0  0  0  0
  -22.0312   -4.7207   24.7561 C   0  0  0  0  0  0  0  0  0  0  0  0
  -24.0153   -9.9155   20.5474 C   0  0  0  0  0  0  0  0  0  0  0  0
  -24.8645  -10.5508   18.2273 C   0  0  0  0  0  0  0  0  0  0  0  0
  -22.1247  -38.1732   21.5996 C   0  0  0  0  0  0  0  0  0  0  0  0
  -25.0654  -31.0463   20.6193 C   0  0  0  0  0  0  0  0  0  0  0  0
  -23.2273  -37.4500   21.1059 C   0  0  0  0  0  0  0  0  0  0  0  0
  -26.0210  -30.5474   21.5197 C   0  0  0  0  0  0  0  0  0  0  0  0
  -26.0810  -18.2818   20.8518 C   0  0  0  0  0  0  0  0  0  0  0  0
  -26.7325  -20.5443   20.3101 C   0  0  0  0  0  0  0  0  0  0  0  0
  -27.2910  -17.8113   20.3415 C   0  0  0  0  0  0  0  0  0  0  0  0
  -22.2864   -8.6246   22.3157 C   0  0  0  0  0  0  0  0  0  0  0  0
  -25.9433  -28.4016   20.4094 C   0  0  0  0  0  0  0  0  0  0  0  0
  -21.5901   -6.6271   23.3391 C   0  0  0  0  0  0  0  0  0  0  0  0
  -21.8838   -3.8714   23.6594 C   0  0  0  0  0  0  0  0  0  0  0  0
  -21.8843   -6.0985   24.5960 C   0  0  0  0  0  0  0  0  0  0  0  0
  -24.9087  -10.5816   19.6340 C   0  0  0  0  0  0  0  0  0  0  0  0
  -25.9198  -11.3367   17.8333 C   0  0  0  0  0  0  0  0  0  0  0  0
  -27.4792  -22.9060   20.3873 C   0  0  0  0  0  0  0  0  0  0  0  0
  -23.9510   -9.8726   17.3547 C   0  0  0  0  0  0  0  0  0  0  0  0
  -25.0330  -34.4312   22.2370 C   0  0  0  0  0  0  0  0  0  0  0  0
  -25.5794  -24.9434   21.8983 C   0  0  0  0  0  0  0  0  0  0  0  0
  -25.1637  -32.3636   24.4994 C   0  0  0  0  0  0  0  0  0  0  0  0
  -24.8931  -30.6595   27.4422 C   0  0  0  0  0  0  0  0  0  0  0  0
  -28.8549  -15.8390   20.4446 C   0  0  0  0  0  0  0  0  0  0  0  0
  -21.9092  -38.3800   23.0779 C   0  0  0  0  0  0  0  0  0  0  0  0
  -24.6725  -32.4949   20.7247 C   0  0  0  0  0  0  0  0  0  0  0  0
  -26.5602  -31.4834   22.5666 C   0  0  0  0  0  0  0  0  0  0  0  0
  -27.1288  -24.3456   20.0457 C   0  0  0  0  0  0  0  0  0  0  0  0
  -22.6963  -37.4054   23.9504 C   0  0  0  0  0  0  0  0  0  0  0  0
  -30.2533  -12.7825   19.2700 C   0  0  0  0  0  0  0  0  0  0  0  0
  -24.1407  -37.3061   23.4704 C   0  0  0  0  0  0  0  0  0  0  0  0
  -29.0368  -11.8704   19.0962 C   0  0  0  0  0  0  0  0  0  0  0  0
  -24.7263  -23.7577   19.8717 C   0  0  0  0  0  0  0  0  0  0  0  0
  -30.1093  -13.6943   20.4872 C   0  0  0  0  0  0  0  0  0  0  0  0
  -25.0338  -22.3645   20.4007 C   0  0  0  0  0  0  0  0  0  0  0  0
  -27.6524  -13.5670   20.3580 C   0  0  0  0  0  0  0  0  0  0  0  0
  -24.2096  -36.7705   22.0352 C   0  0  1  0  0  0  0  0  0  0  0  0
  -24.5992  -32.9960   22.1782 C   0  0  1  0  0  0  0  0  0  0  0  0
  -27.7225  -12.6756   19.1074 C   0  0  2  0  0  0  0  0  0  0  0  0
  -25.7153  -24.7862   20.4043 C   0  0  1  0  0  0  0  0  0  0  0  0
  -25.0669  -17.3448   21.4232 C   0  0  0  0  0  0  0  0  0  0  0  0
  -25.4058  -30.8626   29.8903 C   0  0  0  0  0  0  0  0  0  0  0  0
  -28.1111  -31.8308   23.9225 C   0  0  0  0  0  0  0  0  0  0  0  0
  -28.3743  -31.1106   26.3059 C   0  0  0  0  0  0  0  0  0  0  0  0
  -27.6876  -33.4505   25.7803 C   0  0  0  0  0  0  0  0  0  0  0  0
  -22.0367  -30.4196   28.1788 C   0  0  0  0  0  0  0  0  0  0  0  0
  -24.0405  -25.5247   23.5946 C   0  0  0  0  0  0  0  0  0  0  0  0
  -25.4222  -26.1636   19.7953 C   0  0  0  0  0  0  0  0  0  1  0  0
  -26.0363  -31.5672   25.4363 C   0  0  1  0  0  0  0  0  0  0  0  0
  -24.3644  -31.0763   28.8028 C   0  0  2  0  0  0  0  0  0  0  0  0
  -27.5333  -31.9771   25.3443 C   0  0  0  0  0  0  0  0  0  0  0  0
  -25.9128  -11.3278   20.1021 N   0  0  0  0  0  0  0  0  0  0  0  0
  -26.5092  -11.7731   18.9832 N   0  0  0  0  0  0  0  0  0  0  0  0
  -26.4441  -21.9629   20.2962 N   0  0  0  0  0  0  0  0  0  0  0  0
  -25.4658  -32.2862   23.1344 N   0  0  0  0  0  0  0  0  0  0  0  0
  -28.8433  -14.4282   20.4274 N   0  0  0  0  0  0  0  0  0  0  0  0
  -26.3918  -11.6900   16.6188 N   0  0  0  0  0  0  0  0  0  0  0  0
  -22.9245   -9.1080   17.9257 N   0  0  0  0  0  0  0  0  0  0  0  0
  -27.5941  -16.4271   20.3500 N   0  0  0  0  0  0  0  0  0  0  0  0
  -24.0120  -35.3369   22.0207 N   0  0  0  0  0  0  0  0  0  0  0  0
  -25.4551  -31.7214   26.7655 N   0  0  0  0  0  0  0  0  0  0  0  0
  -23.1512  -30.2844   29.1519 N   0  3  0  0  0  0  0  0  0  0  0  0
  -28.6548  -22.6501   20.6645 O   0  0  0  0  0  0  0  0  0  0  0  0
  -24.0523   -9.9292   16.1057 O   0  0  0  0  0  0  0  0  0  0  0  0
  -26.2072  -34.6987   22.4636 O   0  0  0  0  0  0  0  0  0  0  0  0
  -26.4868  -24.7413   22.6938 O   0  0  0  0  0  0  0  0  0  0  0  0
  -24.2423  -33.0413   24.9630 O   0  0  0  0  0  0  0  0  0  0  0  0
  -24.8185  -29.5065   27.0232 O   0  0  0  0  0  0  0  0  0  0  0  0
  -29.9079  -16.4786   20.5090 O   0  0  0  0  0  0  0  0  0  0  0  0
  -21.4432   -7.9947   23.1787 O   0  0  0  0  0  0  0  0  0  0  0  0
  -26.3591  -27.1085   20.3107 O   0  0  0  0  0  0  0  0  0  1  0  0
  -24.3098  -25.3371   22.2016 O   0  0  0  0  0  0  0  0  0  0  0  0
  -22.0233   -2.5482   23.8133 F   0  0  0  0  0  0  0  0  0  0  0  0
  -22.0260   -6.9093   25.6535 F   0  0  0  0  0  0  0  0  0  0  0  0
  1  2  1  0  0  0  0
  1  5  2  0  0  0  0
  2  6  2  0  0  0  0
  3 10  2  0  0  0  0
  3 18  1  0  0  0  0
  4 11  1  0  0  0  0
  4 18  2  0  0  0  0
  5 20  1  0  0  0  0
  6 22  1  0  0  0  0
  7 12  2  0  0  0  0
  7 21  1  0  0  0  0
  8  9  2  0  0  0  0
  8 25  1  0  0  0  0
  9 26  1  0  0  0  0
 10 27  1  0  0  0  0
 11 27  2  0  0  0  0
 12 28  1  0  0  0  0
 13 14  2  0  0  0  0
 13 29  1  0  0  0  0
 14 30  1  0  0  0  0
 15 23  1  0  0  0  0
 15 28  2  0  0  0  0
 16 24  1  0  0  0  0
 16 25  2  0  0  0  0
 17 30  2  0  0  0  0
 17 31  1  0  0  0  0
 18 32  1  0  0  0  0
 19 32  1  0  0  0  0
 19 33  2  0  0  0  0
 19 35  1  0  0  0  0
 20 22  2  0  0  0  0
 20 41  1  0  0  0  0
 21 23  2  0  0  0  0
 21 42  1  0  0  0  0
 22 53  1  0  0  0  0
 23 43  1  0  0  0  0
 24 26  2  0  0  0  0
 24 57  1  0  0  0  0
 25 70  1  0  0  0  0
 26 75  1  0  0  0  0
 27 86  1  0  0  0  0
 28 87  1  0  0  0  0
 29 31  2  0  0  0  0
 29 86  1  0  0  0  0
 30 89  1  0  0  0  0
 31 90  1  0  0  0  0
 32 68  2  0  0  0  0
 33 69  1  0  0  0  0
 33 73  1  0  0  0  0
 34 44  1  0  0  0  0
 34 70  1  0  0  0  0
 34 79  2  0  0  0  0
 35 74  1  0  0  0  0
 35 80  2  0  0  0  0
 36 54  1  0  0  0  0
 36 76  1  0  0  0  0
 36 81  2  0  0  0  0
 37 56  1  0  0  0  0
 37 82  2  0  0  0  0
 37 88  1  0  0  0  0
 38 65  1  0  0  0  0
 38 71  1  0  0  0  0
 38 83  2  0  0  0  0
 39 66  1  0  0  0  0
 39 77  1  0  0  0  0
 39 84  2  0  0  0  0
 40 72  1  0  0  0  0
 40 75  1  0  0  0  0
 40 85  2  0  0  0  0
 41 45  1  0  0  0  0
 42 54  1  0  0  0  0
 43 71  1  0  0  0  0
 44 56  1  0  0  0  0
 45 47  1  0  0  0  0
 46 48  1  0  0  0  0
 46 50  1  0  0  0  0
 47 53  1  0  0  0  0
 48 55  1  0  0  0  0
 49 51  1  0  0  0  0
 49 56  1  0  0  0  0
 50 72  1  0  0  0  0
 51 70  1  0  0  0  0
 52 55  1  0  0  0  0
 52 72  1  0  0  0  0
 53 76  1  0  0  0  0
 54 71  1  0  0  0  0
 55 69  1  0  0  0  0
 56 64  1  0  0  0  0
 58 66  1  0  0  0  0
 59 67  1  0  0  0  0
 60 67  1  0  0  0  0
 61 67  1  0  0  0  0
 62 78  1  0  0  0  0
 63 88  1  0  0  0  0
 64 87  1  0  0  0  0
 65 67  1  0  0  0  0
 65 77  1  0  0  0  0
 66 78  1  0  0  0  0
 68 69  1  0  0  0  0
M  CHG  1  78   1
M  ISO  4  40 100  64 101  75 100  87 101
M  END
> <Batch ID>
0058

> <Smiles>
CNC(C)C(=O)NC(C(=O)N1Cc2cc([101O:1][101CH2:1]C3(C(=O)OC)CCN(c4ccc([100NH:0][100C:0](=O)N5CCCC(n6nc(-c7ccc(Oc8ccc(F)cc8F)cc7)c(C(N)=O)c6N)C5)c(C)c4)C(=O)C3)ccc2CC1C(=O)NC1CCCc2ccccc21)C(C)(C)C

> <Shape>
0.303

> <Color>
0.098

> <Negative vol penalty>
0.000

$$$$

  -OEChem-04042322583D

 87 96  0     1  0  0  0  0  0999 V2000
  -16.4929  -29.3183   23.8472 C   0  0  0  0  0  0  0  0  0  0  0  0
  -17.2828  -28.2160   23.5369 C   0  0  0  0  0  0  0  0  0  0  0  0
  -26.4548  -11.3463   20.9073 C   0  0  0  0  0  0  0  0  0  0  0  0
  -25.9098  -13.6837   20.6306 C   0  0  0  0  0  0  0  0  0  0  0  0
  -16.8755  -30.5902   23.4233 C   0  0  0  0  0  0  0  0  0  0  0  0
  -18.4554  -28.3848   22.8014 C   0  0  0  0  0  0  0  0  0  0  0  0
  -25.0478  -25.6700   22.1040 C   0  0  0  0  0  0  0  0  0  0  0  0
  -31.2684  -22.1030   19.4266 C   0  0  0  0  0  0  0  0  0  0  0  0
  -31.6206  -20.7644   19.5987 C   0  0  0  0  0  0  0  0  0  0  0  0
  -25.2452  -11.1429   21.5714 C   0  0  0  0  0  0  0  0  0  0  0  0
  -24.7001  -13.4803   21.2946 C   0  0  0  0  0  0  0  0  0  0  0  0
  -25.9096  -25.1713   21.1281 C   0  0  0  0  0  0  0  0  0  0  0  0
  -21.9887  -10.7495   20.7509 C   0  0  0  0  0  0  0  0  0  0  0  0
  -21.2349   -9.6307   20.3966 C   0  0  0  0  0  0  0  0  0  0  0  0
  -29.8314  -20.1030   18.1160 C   0  0  0  0  0  0  0  0  0  0  0  0
  -26.5122  -27.4258   20.5168 C   0  0  0  0  0  0  0  0  0  0  0  0
  -21.3829   -8.8125   22.6651 C   0  0  0  0  0  0  0  0  0  0  0  0
  -26.7872  -12.6168   20.4370 C   0  0  0  0  0  0  0  0  0  0  0  0
  -29.4791  -21.4417   17.9439 C   0  0  0  0  0  0  0  0  0  0  0  0
  -28.4700  -12.2084   18.5638 C   0  0  0  0  0  0  0  0  0  0  0  0
  -18.0584  -30.7760   22.6905 C   0  0  0  0  0  0  0  0  0  0  0  0
  -24.9033  -27.0529   22.2866 C   0  0  0  0  0  0  0  0  0  0  0  0
  -18.8535  -29.6602   22.3661 C   0  0  0  0  0  0  0  0  0  0  0  0
  -25.6499  -27.9394   21.4975 C   0  0  0  0  0  0  0  0  0  0  0  0
  -30.1976  -22.4416   18.5993 C   0  0  0  0  0  0  0  0  0  0  0  0
  -30.9021  -19.7644   18.9433 C   0  0  0  0  0  0  0  0  0  0  0  0
  -24.3678  -12.2098   21.7650 C   0  0  0  0  0  0  0  0  0  0  0  0
  -26.6398  -26.0493   20.3324 C   0  0  0  0  0  0  0  0  0  0  0  0
  -22.4397  -10.8998   22.0623 C   0  0  0  0  0  0  0  0  0  0  0  0
  -20.9319   -8.6622   21.3536 C   0  0  0  0  0  0  0  0  0  0  0  0
  -22.1367   -9.9314   23.0194 C   0  0  0  0  0  0  0  0  0  0  0  0
  -28.0369  -12.8277   19.7515 C   0  0  0  0  0  0  0  0  0  0  0  0
  -29.7126  -12.7449   18.3302 C   0  0  0  0  0  0  0  0  0  0  0  0
  -29.8807  -24.4404   17.1664 C   0  0  0  0  0  0  0  0  0  0  0  0
  -28.3552  -21.7621   17.0727 C   0  0  0  0  0  0  0  0  0  0  0  0
  -27.8083  -11.2352   17.7448 C   0  0  0  0  0  0  0  0  0  0  0  0
  -22.4922  -29.1088   22.0355 C   0  0  0  0  0  0  0  0  0  0  0  0
  -24.6622  -31.2001   23.2356 C   0  0  0  0  0  0  0  0  0  0  0  0
  -28.1639  -31.9255   22.7574 C   0  0  0  0  0  0  0  0  0  0  0  0
  -32.2955  -17.8983   19.9040 C   0  0  0  0  0  0  0  0  0  0  0  0
  -18.4064  -32.1638   22.2135 C   0  0  0  0  0  0  0  0  0  0  0  0
  -23.9897  -27.5744   23.3617 C   0  0  0  0  0  0  0  0  0  0  0  0
  -25.5461  -29.4323   21.6673 C   0  0  0  0  0  0  0  0  0  0  0  0
  -29.2021  -25.7912   17.0425 C   0  0  0  0  0  0  0  0  0  0  0  0
  -19.8571  -32.3060   21.7600 C   0  0  0  0  0  0  0  0  0  0  0  0
  -29.3302  -26.6674   18.2703 C   0  0  0  0  0  0  0  0  0  0  0  0
  -33.4749  -14.6175   20.6266 C   0  0  0  0  0  0  0  0  0  0  0  0
  -20.2486  -31.1451   20.8513 C   0  0  0  0  0  0  0  0  0  0  0  0
  -32.2553  -13.7292   20.3702 C   0  0  0  0  0  0  0  0  0  0  0  0
  -33.0803  -15.9581   21.2436 C   0  0  0  0  0  0  0  0  0  0  0  0
  -30.8304  -15.8129   20.2508 C   0  0  0  0  0  0  0  0  0  0  0  0
  -29.6760  -24.6370   19.6652 C   0  0  0  0  0  0  0  0  0  0  0  0
  -20.1454  -29.8061   21.5914 C   0  0  1  0  0  0  0  0  0  0  0  0
  -23.5335  -29.0090   23.1140 C   0  0  1  0  0  0  0  0  0  0  0  0
  -31.1714  -14.4774   19.5698 C   0  0  2  0  0  0  0  0  0  0  0  0
  -28.8585  -25.9091   19.4941 C   0  0  2  0  0  0  0  0  0  1  0  0
  -28.3774  -21.3655   15.5985 C   0  0  0  0  0  0  0  0  0  0  0  0
  -29.8498  -32.9319   24.3202 C   0  0  0  0  0  0  0  0  0  0  0  0
  -23.9061  -33.8331   21.8919 C   0  0  0  0  0  0  0  0  0  0  0  0
  -26.3154  -34.5039   22.0083 C   0  0  0  0  0  0  0  0  0  0  0  0
  -25.0377  -34.0802   24.1084 C   0  0  0  0  0  0  0  0  0  0  0  0
  -29.9980  -29.6236   22.4469 C   0  0  0  0  0  0  0  0  0  0  0  0
  -25.6941  -32.1282   22.6419 C   0  0  1  0  0  0  0  0  0  0  0  0
  -29.2918  -31.6444   23.7338 C   0  0  2  0  0  0  0  0  0  0  0  0
  -25.2306  -33.6123   22.6495 C   0  0  0  0  0  0  0  0  0  0  0  0
  -28.9317  -13.6915   20.2386 N   0  0  0  0  0  0  0  0  0  0  0  0
  -27.3034  -22.4084   17.5145 N   0  0  0  0  0  0  0  0  0  0  0  0
  -29.9395  -13.6187   19.3526 N   0  0  0  0  0  0  0  0  0  0  0  0
  -29.8507  -23.8380   18.4360 N   0  0  0  0  0  0  0  0  0  0  0  0
  -24.6346  -29.8935   22.7276 N   0  0  0  0  0  0  0  0  0  0  0  0
  -32.0532  -16.6114   20.4293 N   0  0  0  0  0  0  0  0  0  0  0  0
  -30.6224  -12.5498   17.3522 N   0  0  0  0  0  0  0  0  0  0  0  0
  -26.5356  -10.7922   18.1299 N   0  0  0  0  0  0  0  0  0  0  0  0
  -31.2604  -18.4047   19.1186 N   0  0  0  0  0  0  0  0  0  0  0  0
  -21.2839  -29.6228   22.4659 N   0  0  0  0  0  0  0  0  0  0  0  0
  -26.9318  -31.8850   23.3750 N   0  0  0  0  0  0  0  0  0  0  0  0
  -30.4004  -30.9202   23.0501 N   0  3  0  0  0  0  0  0  0  0  0  0
  -30.3563  -23.9358   16.1455 O   0  0  0  0  0  0  0  0  0  0  0  0
  -28.3370  -10.7601   16.7113 O   0  0  0  0  0  0  0  0  0  0  0  0
  -22.7652  -28.7477   20.8967 O   0  0  0  0  0  0  0  0  0  0  0  0
  -23.9130  -31.6168   24.1225 O   0  0  0  0  0  0  0  0  0  0  0  0
  -28.3569  -32.1612   21.5667 O   0  0  0  0  0  0  0  0  0  0  0  0
  -33.3551  -18.4951   20.1114 O   0  0  0  0  0  0  0  0  0  0  0  0
  -23.1873  -12.0116   22.4127 O   0  0  0  0  0  0  0  0  0  0  0  0
  -27.4811  -25.5652   19.3786 O   0  0  0  0  0  0  0  0  0  1  0  0
  -20.2067   -7.5886   21.0136 F   0  0  0  0  0  0  0  0  0  0  0  0
  -22.5662  -10.0709   24.2811 F   0  0  0  0  0  0  0  0  0  0  0  0
  1  2  1  0  0  0  0
  1  5  2  0  0  0  0
  2  6  2  0  0  0  0
  3 10  2  0  0  0  0
  3 18  1  0  0  0  0
  4 11  1  0  0  0  0
  4 18  2  0  0  0  0
  5 21  1  0  0  0  0
  6 23  1  0  0  0  0
  7 12  2  0  0  0  0
  7 22  1  0  0  0  0
  8  9  2  0  0  0  0
  8 25  1  0  0  0  0
  9 26  1  0  0  0  0
 10 27  1  0  0  0  0
 11 27  2  0  0  0  0
 12 28  1  0  0  0  0
 13 14  2  0  0  0  0
 13 29  1  0  0  0  0
 14 30  1  0  0  0  0
 15 19  1  0  0  0  0
 15 26  2  0  0  0  0
 16 24  1  0  0  0  0
 16 28  2  0  0  0  0
 17 30  2  0  0  0  0
 17 31  1  0  0  0  0
 18 32  1  0  0  0  0
 19 25  2  0  0  0  0
 19 35  1  0  0  0  0
 20 32  1  0  0  0  0
 20 33  2  0  0  0  0
 20 36  1  0  0  0  0
 21 23  2  0  0  0  0
 21 41  1  0  0  0  0
 22 24  2  0  0  0  0
 22 42  1  0  0  0  0
 23 53  1  0  0  0  0
 24 43  1  0  0  0  0
 25 69  1  0  0  0  0
 26 74  1  0  0  0  0
 27 84  1  0  0  0  0
 28 85  1  0  0  0  0
 29 31  2  0  0  0  0
 29 84  1  0  0  0  0
 30 86  1  0  0  0  0
 31 87  1  0  0  0  0
 32 66  2  0  0  0  0
 33 68  1  0  0  0  0
 33 72  1  0  0  0  0
 34 44  1  0  0  0  0
 34 69  1  0  0  0  0
 34 78  2  0  0  0  0
 35 57  1  0  0  0  0
 35 67  2  0  0  0  0
 36 73  1  0  0  0  0
 36 79  2  0  0  0  0
 37 54  1  0  0  0  0
 37 75  1  0  0  0  0
 37 80  2  0  0  0  0
 38 63  1  0  0  0  0
 38 70  1  0  0  0  0
 38 81  2  0  0  0  0
 39 64  1  0  0  0  0
 39 76  1  0  0  0  0
 39 82  2  0  0  0  0
 40 71  1  0  0  0  0
 40 74  1  0  0  0  0
 40 83  2  0  0  0  0
 41 45  1  0  0  0  0
 42 54  1  0  0  0  0
 43 70  1  0  0  0  0
 44 46  1  0  0  0  0
 45 48  1  0  0  0  0
 46 56  1  0  0  0  0
 47 49  1  0  0  0  0
 47 50  1  0  0  0  0
 48 53  1  0  0  0  0
 49 55  1  0  0  0  0
 50 71  1  0  0  0  0
 51 55  1  0  0  0  0
 51 71  1  0  0  0  0
 52 56  1  0  0  0  0
 52 69  1  0  0  0  0
 53 75  1  0  0  0  0
 54 70  1  0  0  0  0
 55 68  1  0  0  0  0
 56 85  1  0  0  0  0
 58 64  1  0  0  0  0
 59 65  1  0  0  0  0
 60 65  1  0  0  0  0
 61 65  1  0  0  0  0
 62 77  1  0  0  0  0
 63 65  1  0  0  0  0
 63 76  1  0  0  0  0
 64 77  1  0  0  0  0
 66 68  1  0  0  0  0
M  CHG  1  77   1
M  ISO  4  40 100  56 101  74 100  85 101
M  END
> <Batch ID>
0058

> <Smiles>
CNC(C)C(=O)NC(C(=O)N1Cc2cc([101O:1][101CH:1]3CCC(=O)N(c4ccc([100NH:0][100C:0](=O)N5CCCC(n6nc(-c7ccc(Oc8ccc(F)cc8F)cc7)c(C(N)=O)c6N)C5)cc4C(C)=N)C3)ccc2CC1C(=O)NC1CCCc2ccccc21)C(C)(C)C

> <Shape>
0.290

> <Color>
0.075

> <Negative vol penalty>
0.000

$$$$

  -OEChem-04042322583D

 85 93  0     1  0  0  0  0  0999 V2000
  -20.0743   -8.3331   19.3044 C   0  0  0  0  0  0  0  0  0  0  0  0
  -19.6712   -9.6378   19.5705 C   0  0  0  0  0  0  0  0  0  0  0  0
  -18.6609  -28.0421   23.9122 C   0  0  0  0  0  0  0  0  0  0  0  0
  -29.2115  -25.5812   19.7516 C   0  0  0  0  0  0  0  0  0  0  0  0
  -27.2297  -24.2209   19.5078 C   0  0  0  0  0  0  0  0  0  0  0  0
  -21.3168   -7.8841   19.7499 C   0  0  0  0  0  0  0  0  0  0  0  0
  -20.5099  -10.4939   20.2832 C   0  0  0  0  0  0  0  0  0  0  0  0
  -21.1357  -16.5346   19.4936 C   0  0  0  0  0  0  0  0  0  0  0  0
  -19.8016  -28.6464   23.3838 C   0  0  0  0  0  0  0  0  0  0  0  0
  -29.9431  -24.4503   20.1143 C   0  0  0  0  0  0  0  0  0  0  0  0
  -27.9613  -23.0900   19.8705 C   0  0  0  0  0  0  0  0  0  0  0  0
  -20.5913  -17.6295   20.1633 C   0  0  0  0  0  0  0  0  0  0  0  0
  -32.4156  -21.8634   20.7541 C   0  0  0  0  0  0  0  0  0  0  0  0
  -33.6720  -21.6901   20.1735 C   0  0  0  0  0  0  0  0  0  0  0  0
  -18.1296  -26.9042   23.3051 C   0  0  0  0  0  0  0  0  0  0  0  0
  -22.5820  -17.7838   21.5170 C   0  0  0  0  0  0  0  0  0  0  0  0
  -19.8797  -26.9749   21.6411 C   0  0  0  0  0  0  0  0  0  0  0  0
  -32.6535  -21.6464   17.9830 C   0  0  0  0  0  0  0  0  0  0  0  0
  -27.8547  -25.4665   19.4485 C   0  0  0  0  0  0  0  0  0  0  0  0
  -26.9080  -27.1440   17.7759 C   0  0  0  0  0  0  0  0  0  0  0  0
  -22.1753   -8.7381   20.4601 C   0  0  0  0  0  0  0  0  0  0  0  0
  -22.4051  -16.0485   19.8385 C   0  0  0  0  0  0  0  0  0  0  0  0
  -21.7645  -10.0554   20.7398 C   0  0  0  0  0  0  0  0  0  0  0  0
  -23.1414  -16.6842   20.8484 C   0  0  0  0  0  0  0  0  0  0  0  0
  -20.4110  -28.1128   22.2482 C   0  0  0  0  0  0  0  0  0  0  0  0
  -29.3181  -23.2048   20.1737 C   0  0  0  0  0  0  0  0  0  0  0  0
  -21.3132  -18.2525   21.1771 C   0  0  0  0  0  0  0  0  0  0  0  0
  -31.2782  -21.9281   19.9493 C   0  0  0  0  0  0  0  0  0  0  0  0
  -33.7909  -21.5816   18.7879 C   0  0  0  0  0  0  0  0  0  0  0  0
  -31.3971  -21.8196   18.5638 C   0  0  0  0  0  0  0  0  0  0  0  0
  -18.7390  -26.3706   22.1695 C   0  0  0  0  0  0  0  0  0  0  0  0
  -27.0983  -26.6344   19.0743 C   0  0  0  0  0  0  0  0  0  0  0  0
  -26.1218  -28.2558   17.9553 C   0  0  0  0  0  0  0  0  0  0  0  0
  -17.1598  -24.6713   18.9224 C   0  0  0  0  0  0  0  0  0  0  0  0
  -17.6989  -25.5209   19.7987 C   0  0  0  0  0  0  0  0  0  0  0  0
  -27.3981  -26.6559   16.5200 C   0  0  0  0  0  0  0  0  0  0  0  0
  -23.5209  -13.2978   20.9752 C   0  0  0  0  0  0  0  0  0  0  0  0
  -26.3989  -14.7126   20.4883 C   0  0  0  0  0  0  0  0  0  0  0  0
  -28.1904  -17.5992   20.1639 C   0  0  0  0  0  0  0  0  0  0  0  0
  -22.2252  -29.8598   22.1918 C   0  0  0  0  0  0  0  0  0  0  0  0
  -23.4890   -8.1932   20.9622 C   0  0  0  0  0  0  0  0  0  0  0  0
  -22.9895  -14.8831   19.0884 C   0  0  0  0  0  0  0  0  0  0  0  0
  -24.5167  -16.2138   21.2428 C   0  0  0  0  0  0  0  0  0  0  0  0
  -24.4760   -9.2778   21.3862 C   0  0  0  0  0  0  0  0  0  0  0  0
  -25.1253  -31.6578   21.1751 C   0  0  0  0  0  0  0  0  0  0  0  0
  -23.7823  -10.3197   22.2579 C   0  0  0  0  0  0  0  0  0  0  0  0
  -25.9402  -30.6217   20.3977 C   0  0  0  0  0  0  0  0  0  0  0  0
  -24.4079  -31.0340   22.3709 C   0  0  0  0  0  0  0  0  0  0  0  0
  -24.3961  -28.8256   21.2791 C   0  0  0  0  0  0  0  0  0  0  0  0
  -22.6567  -11.0216   21.4885 C   0  0  1  0  0  0  0  0  0  0  0  0
  -24.0761  -14.1528   19.8715 C   0  0  1  0  0  0  0  0  0  0  0  0
  -25.0847  -29.3941   20.0276 C   0  0  2  0  0  0  0  0  0  0  0  0
  -30.5295  -18.4369   19.8112 C   0  0  0  0  0  0  0  0  0  0  0  0
  -27.0612  -14.0815   23.3991 C   0  0  0  0  0  0  0  0  0  0  0  0
  -28.9384  -15.7321   23.2571 C   0  0  0  0  0  0  0  0  0  0  0  0
  -28.9448  -13.7100   21.7965 C   0  0  0  0  0  0  0  0  0  0  0  0
  -27.4550  -18.9300   17.6248 C   0  0  0  0  0  0  0  0  0  0  0  0
  -19.9763  -21.5740   21.6468 C   0  0  0  0  0  0  0  0  0  0  0  0
  -19.0671  -22.5572   20.9182 C   0  0  0  0  0  0  0  0  0  0  0  0
  -19.8856  -20.1531   21.0998 C   0  0  0  0  0  0  0  0  0  1  0  0
  -27.3160  -15.5824   21.3138 C   0  0  1  0  0  0  0  0  0  0  0  0
  -29.2252  -18.0330   19.1414 C   0  0  2  0  0  0  0  0  0  0  0  0
  -28.0384  -14.7844   22.4357 C   0  0  0  0  0  0  0  0  0  0  0  0
  -26.4827  -27.3627   20.0095 N   0  0  0  0  0  0  0  0  0  0  0  0
  -19.2284  -23.9026   21.4626 N   0  0  0  0  0  0  0  0  0  0  0  0
  -25.8980  -28.3414   19.2979 N   0  0  0  0  0  0  0  0  0  0  0  0
  -25.0423  -15.0667   20.4842 N   0  0  0  0  0  0  0  0  0  0  0  0
  -23.6140  -29.8798   21.9437 N   0  0  0  0  0  0  0  0  0  0  0  0
  -25.6070  -29.1588   17.0939 N   0  0  0  0  0  0  0  0  0  0  0  0
  -28.1922  -25.5010   16.5159 N   0  0  0  0  0  0  0  0  0  0  0  0
  -21.5699  -28.7264   21.7115 N   0  0  0  0  0  0  0  0  0  0  0  0
  -23.2031  -12.0110   20.5845 N   0  0  0  0  0  0  0  0  0  0  0  0
  -28.2168  -16.2362   20.3707 N   0  0  0  0  0  0  0  0  0  0  0  0
  -28.7214  -19.1943   18.3551 N   0  3  0  0  0  0  0  0  0  0  0  0
  -27.1530  -27.2363   15.4353 O   0  0  0  0  0  0  0  0  0  0  0  0
  -23.3918  -13.7701   22.0986 O   0  0  0  0  0  0  0  0  0  0  0  0
  -26.8701  -13.7586   19.8641 O   0  0  0  0  0  0  0  0  0  0  0  0
  -27.4367  -18.3908   20.7258 O   0  0  0  0  0  0  0  0  0  0  0  0
  -21.6544  -30.7928   22.7626 O   0  0  0  0  0  0  0  0  0  0  0  0
  -16.7673  -24.7015   22.0276 O   0  0  0  0  0  0  0  0  0  0  0  0
  -30.0317  -22.1010   20.5273 O   0  0  0  0  0  0  0  0  0  0  0  0
  -20.7838  -19.3210   21.8328 O   0  0  0  0  0  0  0  0  0  1  0  0
  -34.9976  -21.4167   18.2303 F   0  0  0  0  0  0  0  0  0  0  0  0
  -30.3082  -21.8823   17.7853 F   0  0  0  0  0  0  0  0  0  0  0  0
  -18.0590  -24.9166   21.3934 S   0  0  1  0  0  0  0  0  0  0  0  0
  1  2  1  0  0  0  0
  1  6  2  0  0  0  0
  2  7  2  0  0  0  0
  3  9  1  0  0  0  0
  3 15  2  0  0  0  0
  4 10  2  0  0  0  0
  4 19  1  0  0  0  0
  5 11  1  0  0  0  0
  5 19  2  0  0  0  0
  6 21  1  0  0  0  0
  7 23  1  0  0  0  0
  8 12  2  0  0  0  0
  8 22  1  0  0  0  0
  9 25  2  0  0  0  0
 10 26  1  0  0  0  0
 11 26  2  0  0  0  0
 12 27  1  0  0  0  0
 13 14  2  0  0  0  0
 13 28  1  0  0  0  0
 14 29  1  0  0  0  0
 15 31  1  0  0  0  0
 16 24  1  0  0  0  0
 16 27  2  0  0  0  0
 17 25  1  0  0  0  0
 17 31  2  0  0  0  0
 18 29  2  0  0  0  0
 18 30  1  0  0  0  0
 19 32  1  0  0  0  0
 20 32  1  0  0  0  0
 20 33  2  0  0  0  0
 20 36  1  0  0  0  0
 21 23  2  0  0  0  0
 21 41  1  0  0  0  0
 22 24  2  0  0  0  0
 22 42  1  0  0  0  0
 23 50  1  0  0  0  0
 24 43  1  0  0  0  0
 25 71  1  0  0  0  0
 26 81  1  0  0  0  0
 27 82  1  0  0  0  0
 28 30  2  0  0  0  0
 28 81  1  0  0  0  0
 29 83  1  0  0  0  0
 30 84  1  0  0  0  0
 31 85  1  0  0  0  0
 32 64  2  0  0  0  0
 33 66  1  0  0  0  0
 33 69  1  0  0  0  0
 34 35  2  0  0  0  0
 35 85  1  0  0  0  0
 36 70  1  0  0  0  0
 36 75  2  0  0  0  0
 37 51  1  0  0  0  0
 37 72  1  0  0  0  0
 37 76  2  0  0  0  0
 38 61  1  0  0  0  0
 38 67  1  0  0  0  0
 38 77  2  0  0  0  0
 39 62  1  0  0  0  0
 39 73  1  0  0  0  0
 39 78  2  0  0  0  0
 40 68  1  0  0  0  0
 40 71  1  0  0  0  0
 40 79  2  0  0  0  0
 41 44  1  0  0  0  0
 42 51  1  0  0  0  0
 43 67  1  0  0  0  0
 44 46  1  0  0  0  0
 45 47  1  0  0  0  0
 45 48  1  0  0  0  0
 46 50  1  0  0  0  0
 47 52  1  0  0  0  0
 48 68  1  0  0  0  0
 49 52  1  0  0  0  0
 49 68  1  0  0  0  0
 50 72  1  0  0  0  0
 51 67  1  0  0  0  0
 52 66  1  0  0  0  0
 53 62  1  0  0  0  0
 54 63  1  0  0  0  0
 55 63  1  0  0  0  0
 56 63  1  0  0  0  0
 57 74  1  0  0  0  0
 58 59  1  0  0  0  0
 58 60  1  0  0  0  0
 59 65  1  0  0  0  0
 60 82  1  0  0  0  0
 61 63  1  0  0  0  0
 61 73  1  0  0  0  0
 62 74  1  0  0  0  0
 64 66  1  0  0  0  0
 65 85  2  0  0  0  0
 80 85  2  0  0  0  0
M  CHG  1  74   1
M  ISO  4  40 100  60 101  71 100  82 101
M  END
> <Batch ID>
0058

> <Smiles>
C=CS(=O)(=NCC[101CH2:1][101O:1]c1ccc2c(c1)CN(C(=O)C(NC(=O)C(C)NC)C(C)(C)C)C(C(=O)NC1CCCc3ccccc31)C2)c1cccc([100NH:0][100C:0](=O)N2CCCC(n3nc(-c4ccc(Oc5ccc(F)cc5F)cc4)c(C(N)=O)c3N)C2)c1

> <Shape>
0.262

> <Color>
0.066

> <Negative vol penalty>
0.000

$$$$

  -OEChem-04042322583D

 89 98  0     1  0  0  0  0  0999 V2000
  -19.5888  -20.3028   25.5717 C   0  0  0  0  0  0  0  0  0  0  0  0
  -20.3068  -20.7204   24.4557 C   0  0  0  0  0  0  0  0  0  0  0  0
  -25.7479  -15.9120   20.1002 C   0  0  0  0  0  0  0  0  0  0  0  0
  -24.4707  -17.3710   21.5413 C   0  0  0  0  0  0  0  0  0  0  0  0
  -18.6057  -21.1284   26.1156 C   0  0  0  0  0  0  0  0  0  0  0  0
  -20.0414  -21.9634   23.8823 C   0  0  0  0  0  0  0  0  0  0  0  0
  -24.2623  -24.5254   22.7577 C   0  0  0  0  0  0  0  0  0  0  0  0
  -33.0889  -25.5545   22.7632 C   0  0  0  0  0  0  0  0  0  0  0  0
  -32.1946  -24.6521   23.3390 C   0  0  0  0  0  0  0  0  0  0  0  0
  -24.6662  -15.0342   20.0301 C   0  0  0  0  0  0  0  0  0  0  0  0
  -23.3889  -16.4933   21.4712 C   0  0  0  0  0  0  0  0  0  0  0  0
  -24.9481  -24.1478   21.6041 C   0  0  0  0  0  0  0  0  0  0  0  0
  -23.2719  -12.6404   21.9666 C   0  0  0  0  0  0  0  0  0  0  0  0
  -23.5330  -11.2782   22.1137 C   0  0  0  0  0  0  0  0  0  0  0  0
  -23.9520  -25.9950   20.4145 C   0  0  0  0  0  0  0  0  0  0  0  0
  -30.5938  -25.1240   21.5920 C   0  0  0  0  0  0  0  0  0  0  0  0
  -22.6278  -10.8668   19.9118 C   0  0  0  0  0  0  0  0  0  0  0  0
  -25.6502  -17.0804   20.8558 C   0  0  0  0  0  0  0  0  0  0  0  0
  -27.3887  -18.6590   19.8592 C   0  0  0  0  0  0  0  0  0  0  0  0
  -18.3347  -22.3863   25.5544 C   0  0  0  0  0  0  0  0  0  0  0  0
  -23.4064  -25.6361   22.7455 C   0  0  0  0  0  0  0  0  0  0  0  0
  -19.0528  -22.8060   24.4184 C   0  0  0  0  0  0  0  0  0  0  0  0
  -23.2585  -26.3861   21.5700 C   0  0  0  0  0  0  0  0  0  0  0  0
  -32.7357  -26.2417   21.6019 C   0  0  0  0  0  0  0  0  0  0  0  0
  -31.4881  -26.0264   21.0163 C   0  0  0  0  0  0  0  0  0  0  0  0
  -30.9471  -24.4369   22.7534 C   0  0  0  0  0  0  0  0  0  0  0  0
  -23.4866  -15.3249   20.7156 C   0  0  0  0  0  0  0  0  0  0  0  0
  -24.7908  -24.8808   20.4315 C   0  0  0  0  0  0  0  0  0  0  0  0
  -22.6887  -13.1159   20.7921 C   0  0  0  0  0  0  0  0  0  0  0  0
  -23.2110  -10.3913   21.0864 C   0  0  0  0  0  0  0  0  0  0  0  0
  -22.3666  -12.2291   19.7647 C   0  0  0  0  0  0  0  0  0  0  0  0
  -26.7676  -17.9872   20.9291 C   0  0  0  0  0  0  0  0  0  0  0  0
  -28.3893  -19.3922   20.4488 C   0  0  0  0  0  0  0  0  0  0  0  0
  -30.7976  -25.0904   18.0124 C   0  0  0  0  0  0  0  0  0  0  0  0
  -28.8017  -26.2552   19.1300 C   0  0  0  0  0  0  0  0  0  0  0  0
  -27.0880  -18.6236   18.4578 C   0  0  0  0  0  0  0  0  0  0  0  0
  -20.2958  -26.0763   23.2297 C   0  0  0  0  0  0  0  0  0  0  0  0
  -21.0969  -29.2096   22.9785 C   0  0  0  0  0  0  0  0  0  0  0  0
  -23.2533  -31.2175   20.8962 C   0  0  0  0  0  0  0  0  0  0  0  0
  -30.2329  -22.7539   24.4866 C   0  0  0  0  0  0  0  0  0  0  0  0
  -17.2301  -23.2236   26.1488 C   0  0  0  0  0  0  0  0  0  0  0  0
  -22.6945  -26.0463   24.0054 C   0  0  0  0  0  0  0  0  0  0  0  0
  -22.3672  -27.5988   21.5099 C   0  0  0  0  0  0  0  0  0  0  0  0
  -29.9801  -23.9545   17.4208 C   0  0  0  0  0  0  0  0  0  0  0  0
  -27.8384  -25.6873   18.1141 C   0  0  0  0  0  0  0  0  0  0  0  0
  -17.2687  -24.6846   25.7079 C   0  0  0  0  0  0  0  0  0  0  0  0
  -28.9176  -23.3920   18.3521 C   0  0  0  0  0  0  0  0  0  0  0  0
  -30.2325  -19.2579   25.1612 C   0  0  0  0  0  0  0  0  0  0  0  0
  -17.4734  -24.7818   24.1995 C   0  0  0  0  0  0  0  0  0  0  0  0
  -29.3821  -18.6709   24.0323 C   0  0  0  0  0  0  0  0  0  0  0  0
  -29.6998  -20.6116   25.6274 C   0  0  0  0  0  0  0  0  0  0  0  0
  -28.6562  -21.0163   23.4328 C   0  0  0  0  0  0  0  0  0  0  0  0
  -18.8110  -24.1580   23.7829 C   0  0  1  0  0  0  0  0  0  0  0  0
  -21.4509  -26.8897   23.7415 C   0  0  1  0  0  0  0  0  0  0  0  0
  -27.6096  -24.1853   18.2724 C   0  0  1  0  0  0  0  0  0  0  0  0
  -29.1916  -19.6830   22.8856 C   0  0  2  0  0  0  0  0  0  0  0  0
  -33.7096  -27.2034   21.0042 C   0  0  0  0  0  0  0  0  0  0  0  0
  -24.4025  -33.3990   21.3630 C   0  0  0  0  0  0  0  0  0  0  0  0
  -18.6350  -30.4536   21.6741 C   0  0  0  0  0  0  0  0  0  0  0  0
  -20.1414  -32.1436   20.6050 C   0  0  0  0  0  0  0  0  0  0  0  0
  -19.9705  -32.0233   23.0907 C   0  0  0  0  0  0  0  0  0  0  0  0
  -25.9066  -30.0993   20.2118 C   0  0  0  0  0  0  0  0  0  0  0  0
  -31.0870  -26.7530   19.7651 C   0  0  0  0  0  0  0  0  0  0  0  0
  -26.7201  -23.8699   19.4766 C   0  0  0  0  0  0  0  0  0  1  0  0
  -21.1987  -30.1994   21.8431 C   0  0  1  0  0  0  0  0  0  0  0  0
  -24.5514  -31.8865   21.3109 C   0  0  2  0  0  0  0  0  0  0  0  0
  -19.9907  -31.1771   21.7991 C   0  0  0  0  0  0  0  0  0  0  0  0
  -27.3269  -18.2685   22.1090 N   0  0  0  0  0  0  0  0  0  0  0  0
  -28.3101  -19.1251   21.7839 N   0  0  0  0  0  0  0  0  0  0  0  0
  -30.1773  -25.9610   18.9407 N   0  0  0  0  0  0  0  0  0  0  0  0
  -21.6877  -27.9559   22.7661 N   0  0  0  0  0  0  0  0  0  0  0  0
  -29.5490  -21.5198   24.4884 N   0  0  0  0  0  0  0  0  0  0  0  0
  -29.3206  -20.2328   19.9502 N   0  0  0  0  0  0  0  0  0  0  0  0
  -26.1710  -19.5526   17.9475 N   0  0  0  0  0  0  0  0  0  0  0  0
  -30.0390  -23.5188   23.3368 N   0  0  0  0  0  0  0  0  0  0  0  0
  -19.9033  -25.0598   24.0795 N   0  0  0  0  0  0  0  0  0  0  0  0
  -22.4936  -30.8556   21.9885 N   0  0  0  0  0  0  0  0  0  0  0  0
  -25.6368  -31.5540   20.3454 N   0  3  0  0  0  0  0  0  0  0  0  0
  -31.9658  -25.2323   17.6320 O   0  0  0  0  0  0  0  0  0  0  0  0
  -28.3680  -26.9647   20.0424 O   0  0  0  0  0  0  0  0  0  0  0  0
  -27.6044  -17.7820   17.6840 O   0  0  0  0  0  0  0  0  0  0  0  0
  -19.7966  -26.3516   22.1450 O   0  0  0  0  0  0  0  0  0  0  0  0
  -20.5209  -29.5393   24.0183 O   0  0  0  0  0  0  0  0  0  0  0  0
  -22.9425  -31.0377   19.7208 O   0  0  0  0  0  0  0  0  0  0  0  0
  -30.9602  -23.0942   25.4232 O   0  0  0  0  0  0  0  0  0  0  0  0
  -22.4308  -14.4687   20.6472 O   0  0  0  0  0  0  0  0  0  0  0  0
  -25.4585  -24.5140   19.3039 O   0  0  0  0  0  0  0  0  0  1  0  0
  -23.4632   -9.0834   21.2272 F   0  0  0  0  0  0  0  0  0  0  0  0
  -21.8072  -12.6801   18.6336 F   0  0  0  0  0  0  0  0  0  0  0  0
  1  2  1  0  0  0  0
  1  5  2  0  0  0  0
  2  6  2  0  0  0  0
  3 10  2  0  0  0  0
  3 18  1  0  0  0  0
  4 11  1  0  0  0  0
  4 18  2  0  0  0  0
  5 20  1  0  0  0  0
  6 22  1  0  0  0  0
  7 12  2  0  0  0  0
  7 21  1  0  0  0  0
  8  9  2  0  0  0  0
  8 24  1  0  0  0  0
  9 26  1  0  0  0  0
 10 27  1  0  0  0  0
 11 27  2  0  0  0  0
 12 28  1  0  0  0  0
 13 14  2  0  0  0  0
 13 29  1  0  0  0  0
 14 30  1  0  0  0  0
 15 23  1  0  0  0  0
 15 28  2  0  0  0  0
 16 25  1  0  0  0  0
 16 26  2  0  0  0  0
 17 30  2  0  0  0  0
 17 31  1  0  0  0  0
 18 32  1  0  0  0  0
 19 32  1  0  0  0  0
 19 33  2  0  0  0  0
 19 36  1  0  0  0  0
 20 22  2  0  0  0  0
 20 41  1  0  0  0  0
 21 23  2  0  0  0  0
 21 42  1  0  0  0  0
 22 53  1  0  0  0  0
 23 43  1  0  0  0  0
 24 25  2  0  0  0  0
 24 57  1  0  0  0  0
 25 63  1  0  0  0  0
 26 75  1  0  0  0  0
 27 86  1  0  0  0  0
 28 87  1  0  0  0  0
 29 31  2  0  0  0  0
 29 86  1  0  0  0  0
 30 88  1  0  0  0  0
 31 89  1  0  0  0  0
 32 68  2  0  0  0  0
 33 69  1  0  0  0  0
 33 73  1  0  0  0  0
 34 44  1  0  0  0  0
 34 70  1  0  0  0  0
 34 79  2  0  0  0  0
 35 45  1  0  0  0  0
 35 70  1  0  0  0  0
 35 80  2  0  0  0  0
 36 74  1  0  0  0  0
 36 81  2  0  0  0  0
 37 54  1  0  0  0  0
 37 76  1  0  0  0  0
 37 82  2  0  0  0  0
 38 65  1  0  0  0  0
 38 71  1  0  0  0  0
 38 83  2  0  0  0  0
 39 66  1  0  0  0  0
 39 77  1  0  0  0  0
 39 84  2  0  0  0  0
 40 72  1  0  0  0  0
 40 75  1  0  0  0  0
 40 85  2  0  0  0  0
 41 46  1  0  0  0  0
 42 54  1  0  0  0  0
 43 71  1  0  0  0  0
 44 47  1  0  0  0  0
 45 55  1  0  0  0  0
 46 49  1  0  0  0  0
 47 55  1  0  0  0  0
 48 50  1  0  0  0  0
 48 51  1  0  0  0  0
 49 53  1  0  0  0  0
 50 56  1  0  0  0  0
 51 72  1  0  0  0  0
 52 56  1  0  0  0  0
 52 72  1  0  0  0  0
 53 76  1  0  0  0  0
 54 71  1  0  0  0  0
 55 64  1  0  0  0  0
 56 69  1  0  0  0  0
 58 66  1  0  0  0  0
 59 67  1  0  0  0  0
 60 67  1  0  0  0  0
 61 67  1  0  0  0  0
 62 78  1  0  0  0  0
 63 70  1  0  0  0  0
 64 87  1  0  0  0  0
 65 67  1  0  0  0  0
 65 77  1  0  0  0  0
 66 78  1  0  0  0  0
 68 69  1  0  0  0  0
M  CHG  1  78   1
M  ISO  4  40 100  64 101  75 100  87 101
M  END
> <Batch ID>
0058

> <Smiles>
CNC(C)C(=O)NC(C(=O)N1Cc2cc([101O:1][101CH2:1]C3CCC(=O)N(Cc4cc([100NH:0][100C:0](=O)N5CCCC(n6nc(-c7ccc(Oc8ccc(F)cc8F)cc7)c(C(N)=O)c6N)C5)ccc4C)C(=O)C3)ccc2CC1C(=O)NC1CCCc2ccccc21)C(C)(C)C

> <Shape>
0.205

> <Color>
0.054

> <Negative vol penalty>
0.000

$$$$

  -OEChem-04042322583D

 87 95  0     1  0  0  0  0  0999 V2000
  -29.4216  -24.4312   34.1655 C   0  0  0  0  0  0  0  0  0  0  0  0
  -28.6830  -23.2947   33.8519 C   0  0  0  0  0  0  0  0  0  0  0  0
  -23.0253   -9.8884   19.9649 C   0  0  0  0  0  0  0  0  0  0  0  0
  -23.6291   -9.9689   22.3029 C   0  0  0  0  0  0  0  0  0  0  0  0
  -29.1886  -13.0875   25.4947 C   0  0  0  0  0  0  0  0  0  0  0  0
  -28.9321  -25.6933   33.8317 C   0  0  0  0  0  0  0  0  0  0  0  0
  -27.4540  -23.4198   33.2052 C   0  0  0  0  0  0  0  0  0  0  0  0
  -26.9083  -20.1085   29.4128 C   0  0  0  0  0  0  0  0  0  0  0  0
  -30.4496  -12.8125   24.9656 C   0  0  0  0  0  0  0  0  0  0  0  0
  -22.2256   -8.7721   20.2098 C   0  0  0  0  0  0  0  0  0  0  0  0
  -22.8293   -8.8526   22.5478 C   0  0  0  0  0  0  0  0  0  0  0  0
  -26.5865  -18.7959   29.7550 C   0  0  0  0  0  0  0  0  0  0  0  0
  -23.0381   -5.5020   22.1471 C   0  0  0  0  0  0  0  0  0  0  0  0
  -23.5669   -4.4888   22.9467 C   0  0  0  0  0  0  0  0  0  0  0  0
  -28.8525  -14.7867   23.8103 C   0  0  0  0  0  0  0  0  0  0  0  0
  -24.2751  -19.2288   29.2176 C   0  0  0  0  0  0  0  0  0  0  0  0
  -21.7620   -4.7914   24.5239 C   0  0  0  0  0  0  0  0  0  0  0  0
  -23.7271  -10.4867   21.0114 C   0  0  0  0  0  0  0  0  0  0  0  0
  -28.3900  -14.0746   24.9170 C   0  0  0  0  0  0  0  0  0  0  0  0
  -24.1663  -12.9918   20.8127 C   0  0  0  0  0  0  0  0  0  0  0  0
  -27.7010  -25.8334   33.1720 C   0  0  0  0  0  0  0  0  0  0  0  0
  -25.9124  -20.9958   28.9801 C   0  0  0  0  0  0  0  0  0  0  0  0
  -26.9470  -24.6851   32.8635 C   0  0  0  0  0  0  0  0  0  0  0  0
  -24.5872  -20.5515   28.8680 C   0  0  0  0  0  0  0  0  0  0  0  0
  -30.9120  -13.5246   23.8590 C   0  0  0  0  0  0  0  0  0  0  0  0
  -30.1135  -14.5117   23.2813 C   0  0  0  0  0  0  0  0  0  0  0  0
  -22.1275   -8.2542   21.5013 C   0  0  0  0  0  0  0  0  0  0  0  0
  -25.2693  -18.3566   29.6602 C   0  0  0  0  0  0  0  0  0  0  0  0
  -21.8713   -6.1600   22.5360 C   0  0  0  0  0  0  0  0  0  0  0  0
  -22.9288   -4.1334   24.1351 C   0  0  0  0  0  0  0  0  0  0  0  0
  -21.2332   -5.8046   23.7243 C   0  0  0  0  0  0  0  0  0  0  0  0
  -24.5538  -11.6395   20.7589 C   0  0  0  0  0  0  0  0  0  0  0  0
  -25.3064  -13.6886   20.4951 C   0  0  0  0  0  0  0  0  0  0  0  0
  -31.1423  -17.3486   21.1135 C   0  0  0  0  0  0  0  0  0  0  0  0
  -27.0578  -14.3635   25.4768 C   0  0  0  0  0  0  0  0  0  0  0  0
  -26.6678  -14.0405   26.7187 C   0  0  0  0  0  0  0  0  0  0  0  0
  -30.7179  -16.6391   22.1615 C   0  0  0  0  0  0  0  0  0  0  0  0
  -22.8897  -13.5666   21.1221 C   0  0  0  0  0  0  0  0  0  0  0  0
  -25.2953  -14.3922   27.1821 C   0  0  0  0  0  0  0  0  0  0  0  0
  -24.7332  -23.7435   30.0589 C   0  0  0  0  0  0  0  0  0  0  0  0
  -23.0829  -23.6823   27.2669 C   0  0  0  0  0  0  0  0  0  0  0  0
  -21.7861  -21.8339   24.7079 C   0  0  0  0  0  0  0  0  0  0  0  0
  -30.7370  -14.5851   20.8942 C   0  0  0  0  0  0  0  0  0  0  0  0
  -27.1909  -27.2211   32.8738 C   0  0  0  0  0  0  0  0  0  0  0  0
  -26.2803  -22.4009   28.5891 C   0  0  0  0  0  0  0  0  0  0  0  0
  -23.4844  -21.4587   28.3895 C   0  0  0  0  0  0  0  0  0  0  0  0
  -26.0550  -27.2465   31.8543 C   0  0  0  0  0  0  0  0  0  0  0  0
  -29.7324  -12.1118   18.6442 C   0  0  0  0  0  0  0  0  0  0  0  0
  -25.0123  -26.1850   32.1903 C   0  0  0  0  0  0  0  0  0  0  0  0
  -28.2649  -11.8680   18.9950 C   0  0  0  0  0  0  0  0  0  0  0  0
  -30.5687  -12.3165   19.9021 C   0  0  0  0  0  0  0  0  0  0  0  0
  -28.6122  -13.1946   21.1367 C   0  0  0  0  0  0  0  0  0  0  0  0
  -25.6210  -24.7784   32.1401 C   0  0  1  0  0  0  0  0  0  0  0  0
  -25.1010  -23.3667   28.6516 C   0  0  1  0  0  0  0  0  0  0  0  0
  -27.7189  -12.9890   19.8968 C   0  0  2  0  0  0  0  0  0  0  0  0
  -32.2675  -13.2097   23.3141 C   0  0  0  0  0  0  0  0  0  0  0  0
  -20.4565  -22.0596   22.5916 C   0  0  0  0  0  0  0  0  0  0  0  0
  -20.5373  -24.0503   28.9084 C   0  0  0  0  0  0  0  0  0  0  0  0
  -19.2235  -23.3243   26.9046 C   0  0  0  0  0  0  0  0  0  0  0  0
  -20.6199  -25.3885   26.7973 C   0  0  0  0  0  0  0  0  0  0  0  0
  -23.9951  -20.7449   23.0668 C   0  0  0  0  0  0  0  0  0  0  0  0
  -24.0459  -14.9760   29.2535 C   0  0  0  0  0  0  0  0  0  0  0  0
  -23.8501  -16.4805   29.3111 C   0  0  0  0  0  0  0  0  0  1  0  0
  -21.7505  -23.1273   26.8246 C   0  0  1  0  0  0  0  0  0  0  0  0
  -21.8487  -22.0151   23.2020 C   0  0  2  0  0  0  0  0  0  0  0  0
  -20.5530  -23.9558   27.3696 C   0  0  0  0  0  0  0  0  0  0  0  0
  -25.8397  -11.4842   20.4327 N   0  0  0  0  0  0  0  0  0  0  0  0
  -26.2700  -12.7480   20.2785 N   0  0  0  0  0  0  0  0  0  0  0  0
  -23.8933  -22.8253   28.0251 N   0  0  0  0  0  0  0  0  0  0  0  0
  -30.0152  -13.3856   20.7340 N   0  0  0  0  0  0  0  0  0  0  0  0
  -25.5687  -15.0081   20.3827 N   0  0  0  0  0  0  0  0  0  0  0  0
  -21.8256  -12.7066   21.4257 N   0  0  0  0  0  0  0  0  0  0  0  0
  -25.2501  -14.6199   28.5511 N   0  0  0  0  0  0  0  0  0  0  0  0
  -25.7597  -24.3364   30.7691 N   0  0  0  0  0  0  0  0  0  0  0  0
  -21.8061  -23.0437   25.3691 N   0  0  0  0  0  0  0  0  0  0  0  0
  -30.5758  -15.2613   22.1314 N   0  0  0  0  0  0  0  0  0  0  0  0
  -22.6006  -20.8910   22.5759 N   0  3  0  0  0  0  0  0  0  0  0  0
  -22.6943  -14.8057   21.1130 O   0  0  0  0  0  0  0  0  0  0  0  0
  -24.3389  -14.4638   26.4172 O   0  0  0  0  0  0  0  0  0  0  0  0
  -23.6016  -23.5146   30.4695 O   0  0  0  0  0  0  0  0  0  0  0  0
  -23.3963  -24.8312   26.9454 O   0  0  0  0  0  0  0  0  0  0  0  0
  -21.7219  -20.7298   25.2439 O   0  0  0  0  0  0  0  0  0  0  0  0
  -31.4889  -15.0156   20.0101 O   0  0  0  0  0  0  0  0  0  0  0  0
  -21.3471   -7.1652   21.7407 O   0  0  0  0  0  0  0  0  0  0  0  0
  -24.9523  -17.0761   29.9942 O   0  0  0  0  0  0  0  0  0  1  0  0
  -23.4359   -3.1593   24.9020 F   0  0  0  0  0  0  0  0  0  0  0  0
  -20.1112   -6.4324   24.1025 F   0  0  0  0  0  0  0  0  0  0  0  0
  1  2  1  0  0  0  0
  1  6  2  0  0  0  0
  2  7  2  0  0  0  0
  3 10  2  0  0  0  0
  3 18  1  0  0  0  0
  4 11  1  0  0  0  0
  4 18  2  0  0  0  0
  5  9  2  0  0  0  0
  5 19  1  0  0  0  0
  6 21  1  0  0  0  0
  7 23  1  0  0  0  0
  8 12  2  0  0  0  0
  8 22  1  0  0  0  0
  9 25  1  0  0  0  0
 10 27  1  0  0  0  0
 11 27  2  0  0  0  0
 12 28  1  0  0  0  0
 13 14  2  0  0  0  0
 13 29  1  0  0  0  0
 14 30  1  0  0  0  0
 15 19  2  0  0  0  0
 15 26  1  0  0  0  0
 16 24  1  0  0  0  0
 16 28  2  0  0  0  0
 17 30  2  0  0  0  0
 17 31  1  0  0  0  0
 18 32  1  0  0  0  0
 19 35  1  0  0  0  0
 20 32  1  0  0  0  0
 20 33  2  0  0  0  0
 20 38  1  0  0  0  0
 21 23  2  0  0  0  0
 21 44  1  0  0  0  0
 22 24  2  0  0  0  0
 22 45  1  0  0  0  0
 23 53  1  0  0  0  0
 24 46  1  0  0  0  0
 25 26  2  0  0  0  0
 25 56  1  0  0  0  0
 26 76  1  0  0  0  0
 27 84  1  0  0  0  0
 28 85  1  0  0  0  0
 29 31  2  0  0  0  0
 29 84  1  0  0  0  0
 30 86  1  0  0  0  0
 31 87  1  0  0  0  0
 32 67  2  0  0  0  0
 33 68  1  0  0  0  0
 33 71  1  0  0  0  0
 34 37  2  0  0  0  0
 35 36  2  0  0  0  0
 36 39  1  0  0  0  0
 37 76  1  0  0  0  0
 38 72  1  0  0  0  0
 38 78  2  0  0  0  0
 39 73  1  0  0  0  0
 39 79  2  0  0  0  0
 40 54  1  0  0  0  0
 40 74  1  0  0  0  0
 40 80  2  0  0  0  0
 41 64  1  0  0  0  0
 41 69  1  0  0  0  0
 41 81  2  0  0  0  0
 42 65  1  0  0  0  0
 42 75  1  0  0  0  0
 42 82  2  0  0  0  0
 43 70  1  0  0  0  0
 43 76  1  0  0  0  0
 43 83  2  0  0  0  0
 44 47  1  0  0  0  0
 45 54  1  0  0  0  0
 46 69  1  0  0  0  0
 47 49  1  0  0  0  0
 48 50  1  0  0  0  0
 48 51  1  0  0  0  0
 49 53  1  0  0  0  0
 50 55  1  0  0  0  0
 51 70  1  0  0  0  0
 52 55  1  0  0  0  0
 52 70  1  0  0  0  0
 53 74  1  0  0  0  0
 54 69  1  0  0  0  0
 55 68  1  0  0  0  0
 57 65  1  0  0  0  0
 58 66  1  0  0  0  0
 59 66  1  0  0  0  0
 60 66  1  0  0  0  0
 61 77  1  0  0  0  0
 62 63  1  0  0  0  0
 62 73  1  0  0  0  0
 63 85  1  0  0  0  0
 64 66  1  0  0  0  0
 64 75  1  0  0  0  0
 65 77  1  0  0  0  0
 67 68  1  0  0  0  0
M  CHG  1  77   1
M  ISO  4  43 100  63 101  76 100  85 101
M  END
> <Batch ID>
0058

> <Smiles>
C=C[100N:0](c1cc(C=CC(=O)NC[101CH2:1][101O:1]c2ccc3c(c2)CN(C(=O)C(NC(=O)C(C)NC)C(C)(C)C)C(C(=O)NC2CCCc4ccccc42)C3)ccc1C)[100C:0](=O)N1CCCC(n2nc(-c3ccc(Oc4ccc(F)cc4F)cc3)c(C(N)=O)c2N)C1

> <Shape>
0.168

> <Color>
0.198

> <Negative vol penalty>
0.000

$$$$
