
  -OEChem-04042323013D

 84 92  0     1  0  0  0  0  0999 V2000
  -21.2084  -13.1475   20.0401 C   0  0  0  0  0  0  0  0  0  0  0  0
  -21.4622  -14.4513   20.4536 C   0  0  0  0  0  0  0  0  0  0  0  0
  -17.0911  -29.2805   23.3598 C   0  0  0  0  0  0  0  0  0  0  0  0
  -17.6218  -30.2921   22.5595 C   0  0  0  0  0  0  0  0  0  0  0  0
  -28.3351  -24.3684   21.9635 C   0  0  0  0  0  0  0  0  0  0  0  0
  -26.3688  -24.2879   23.3650 C   0  0  0  0  0  0  0  0  0  0  0  0
  -22.2363  -12.2055   20.0381 C   0  0  0  0  0  0  0  0  0  0  0  0
  -22.7438  -14.8136   20.8666 C   0  0  0  0  0  0  0  0  0  0  0  0
  -24.2298  -19.2481   18.9243 C   0  0  0  0  0  0  0  0  0  0  0  0
  -17.9272  -28.2938   23.8826 C   0  0  0  0  0  0  0  0  0  0  0  0
  -18.9885  -30.3171   22.2818 C   0  0  0  0  0  0  0  0  0  0  0  0
  -29.0115  -23.5471   22.8654 C   0  0  0  0  0  0  0  0  0  0  0  0
  -27.0452  -23.4665   24.2668 C   0  0  0  0  0  0  0  0  0  0  0  0
  -23.7207  -20.4042   19.5143 C   0  0  0  0  0  0  0  0  0  0  0  0
  -27.8976  -20.2051   24.5070 C   0  0  0  0  0  0  0  0  0  0  0  0
  -27.2205  -19.0890   24.9983 C   0  0  0  0  0  0  0  0  0  0  0  0
  -25.7777  -20.6747   20.7450 C   0  0  0  0  0  0  0  0  0  0  0  0
  -27.4579  -19.9355   27.2487 C   0  0  0  0  0  0  0  0  0  0  0  0
  -27.0137  -24.7389   22.2133 C   0  0  0  0  0  0  0  0  0  0  0  0
  -26.0476  -25.3231   19.9258 C   0  0  0  0  0  0  0  0  0  0  0  0
  -23.5334  -12.5589   20.4421 C   0  0  0  0  0  0  0  0  0  0  0  0
  -25.5147  -18.7898   19.2491 C   0  0  0  0  0  0  0  0  0  0  0  0
  -23.7897  -13.8751   20.8714 C   0  0  0  0  0  0  0  0  0  0  0  0
  -26.3018  -19.5139   20.1559 C   0  0  0  0  0  0  0  0  0  0  0  0
  -19.2939  -28.3188   23.6049 C   0  0  0  0  0  0  0  0  0  0  0  0
  -19.8246  -29.3304   22.8046 C   0  0  0  0  0  0  0  0  0  0  0  0
  -28.3666  -23.0961   24.0170 C   0  0  0  0  0  0  0  0  0  0  0  0
  -24.4936  -21.1161   20.4270 C   0  0  0  0  0  0  0  0  0  0  0  0
  -28.3549  -21.1865   25.3865 C   0  0  0  0  0  0  0  0  0  0  0  0
  -27.0006  -18.9542   26.3691 C   0  0  0  0  0  0  0  0  0  0  0  0
  -28.1350  -21.0517   26.7573 C   0  0  0  0  0  0  0  0  0  0  0  0
  -26.3146  -25.5878   21.2824 C   0  0  0  0  0  0  0  0  0  0  0  0
  -25.3639  -26.4309   19.4878 C   0  0  0  0  0  0  0  0  0  0  0  0
  -21.5679  -24.3185   22.2719 C   0  0  0  0  0  0  0  0  0  0  0  0
  -22.2979  -23.1983   22.3608 C   0  0  0  0  0  0  0  0  0  0  0  0
  -26.3872  -24.1781   19.1324 C   0  0  0  0  0  0  0  0  0  0  0  0
  -21.3256  -25.1563   23.4787 C   0  0  0  0  0  0  0  0  0  0  0  0
  -26.6851  -16.1525   20.5827 C   0  0  0  0  0  0  0  0  0  0  0  0
  -29.5356  -17.4995   19.8195 C   0  0  0  0  0  0  0  0  0  0  0  0
  -31.3100  -20.3329   19.1338 C   0  0  0  0  0  0  0  0  0  0  0  0
  -21.9866  -30.5048   22.2631 C   0  0  0  0  0  0  0  0  0  0  0  0
  -24.6012  -11.4940   20.4679 C   0  0  0  0  0  0  0  0  0  0  0  0
  -26.0595  -17.5557   18.5838 C   0  0  0  0  0  0  0  0  0  0  0  0
  -27.6951  -19.0753   20.5230 C   0  0  0  0  0  0  0  0  0  0  0  0
  -26.0179  -12.0542   20.5644 C   0  0  0  0  0  0  0  0  0  0  0  0
  -24.9088  -31.1240   20.3256 C   0  0  0  0  0  0  0  0  0  0  0  0
  -26.0931  -13.1335   21.6397 C   0  0  0  0  0  0  0  0  0  0  0  0
  -25.5735  -29.7494   20.2225 C   0  0  0  0  0  0  0  0  0  0  0  0
  -24.2566  -31.3377   21.6904 C   0  0  0  0  0  0  0  0  0  0  0  0
  -23.9864  -28.9087   22.0005 C   0  0  0  0  0  0  0  0  0  0  0  0
  -25.1726  -14.3128   21.3029 C   0  0  1  0  0  0  0  0  0  0  0  0
  -27.1840  -16.8966   19.3764 C   0  0  1  0  0  0  0  0  0  0  0  0
  -24.6010  -28.6219   20.6208 C   0  0  2  0  0  0  0  0  0  0  0  0
  -33.6287  -21.1209   18.5859 C   0  0  0  0  0  0  0  0  0  0  0  0
  -30.3445  -17.1422   22.7397 C   0  0  0  0  0  0  0  0  0  0  0  0
  -32.2130  -18.7618   22.3478 C   0  0  0  0  0  0  0  0  0  0  0  0
  -32.1440  -16.6109   21.0862 C   0  0  0  0  0  0  0  0  0  0  0  0
  -30.4474  -21.4223   16.5208 C   0  0  0  0  0  0  0  0  0  0  0  0
  -20.1696  -27.2440   24.1811 C   0  0  0  0  0  0  0  0  0  0  0  0
  -22.5858  -22.3126   21.1916 C   0  0  0  0  0  0  0  0  0  1  0  0
  -30.4939  -18.4383   20.5118 C   0  0  1  0  0  0  0  0  0  0  0  0
  -32.2918  -20.6627   18.0240 C   0  0  2  0  0  0  0  0  0  0  0  0
  -31.2719  -17.7458   21.6661 C   0  0  0  0  0  0  0  0  0  0  0  0
  -25.8394  -26.7711   21.6801 N   0  0  0  0  0  0  0  0  0  0  0  0
  -25.2670  -27.2597   20.5667 N   0  0  0  0  0  0  0  0  0  0  0  0
  -28.1807  -17.8590   19.8505 N   0  0  0  0  0  0  0  0  0  0  0  0
  -23.3456  -30.2332   21.9985 N   0  0  0  0  0  0  0  0  0  0  0  0
  -24.8423  -26.7672   18.2890 N   0  0  0  0  0  0  0  0  0  0  0  0
  -27.6109  -24.1780   18.4490 N   0  0  0  0  0  0  0  0  0  0  0  0
  -21.2101  -29.3732   22.5108 N   0  0  0  0  0  0  0  0  0  0  0  0
  -20.5529  -26.2673   23.1863 N   0  0  0  0  0  0  0  0  0  0  0  0
  -25.7769  -15.1527   20.2910 N   0  0  0  0  0  0  0  0  0  0  0  0
  -31.3461  -18.9954   19.4668 N   0  0  0  0  0  0  0  0  0  0  0  0
  -31.7494  -21.7475   17.1579 N   0  3  0  0  0  0  0  0  0  0  0  0
  -25.6208  -23.1916   19.0193 O   0  0  0  0  0  0  0  0  0  0  0  0
  -21.7714  -24.8647   24.5836 O   0  0  0  0  0  0  0  0  0  0  0  0
  -27.0949  -16.4615   21.6954 O   0  0  0  0  0  0  0  0  0  0  0  0
  -29.9738  -16.4884   19.2652 O   0  0  0  0  0  0  0  0  0  0  0  0
  -30.5863  -21.1781   19.6558 O   0  0  0  0  0  0  0  0  0  0  0  0
  -21.5385  -31.6540   22.2427 O   0  0  0  0  0  0  0  0  0  0  0  0
  -29.0263  -22.2943   24.8972 O   0  0  0  0  0  0  0  0  0  0  0  0
  -23.9988  -22.2445   21.0047 O   0  0  0  0  0  0  0  0  0  1  0  0
  -26.3490  -17.8831   26.8406 F   0  0  0  0  0  0  0  0  0  0  0  0
  -28.5710  -21.9917   27.6071 F   0  0  0  0  0  0  0  0  0  0  0  0
  1  2  1  0  0  0  0
  1  7  2  0  0  0  0
  2  8  2  0  0  0  0
  3  4  1  0  0  0  0
  3 10  2  0  0  0  0
  4 11  2  0  0  0  0
  5 12  2  0  0  0  0
  5 19  1  0  0  0  0
  6 13  1  0  0  0  0
  6 19  2  0  0  0  0
  7 21  1  0  0  0  0
  8 23  1  0  0  0  0
  9 14  2  0  0  0  0
  9 22  1  0  0  0  0
 10 25  1  0  0  0  0
 11 26  1  0  0  0  0
 12 27  1  0  0  0  0
 13 27  2  0  0  0  0
 14 28  1  0  0  0  0
 15 16  2  0  0  0  0
 15 29  1  0  0  0  0
 16 30  1  0  0  0  0
 17 24  1  0  0  0  0
 17 28  2  0  0  0  0
 18 30  2  0  0  0  0
 18 31  1  0  0  0  0
 19 32  1  0  0  0  0
 20 32  1  0  0  0  0
 20 33  2  0  0  0  0
 20 36  1  0  0  0  0
 21 23  2  0  0  0  0
 21 42  1  0  0  0  0
 22 24  2  0  0  0  0
 22 43  1  0  0  0  0
 23 51  1  0  0  0  0
 24 44  1  0  0  0  0
 25 26  2  0  0  0  0
 25 59  1  0  0  0  0
 26 70  1  0  0  0  0
 27 81  1  0  0  0  0
 28 82  1  0  0  0  0
 29 31  2  0  0  0  0
 29 81  1  0  0  0  0
 30 83  1  0  0  0  0
 31 84  1  0  0  0  0
 32 64  2  0  0  0  0
 33 65  1  0  0  0  0
 33 68  1  0  0  0  0
 34 35  2  0  0  0  0
 34 37  1  0  0  0  0
 35 60  1  0  0  0  0
 36 69  1  0  0  0  0
 36 75  2  0  0  0  0
 37 71  1  0  0  0  0
 37 76  2  0  0  0  0
 38 52  1  0  0  0  0
 38 72  1  0  0  0  0
 38 77  2  0  0  0  0
 39 61  1  0  0  0  0
 39 66  1  0  0  0  0
 39 78  2  0  0  0  0
 40 62  1  0  0  0  0
 40 73  1  0  0  0  0
 40 79  2  0  0  0  0
 41 67  1  0  0  0  0
 41 70  1  0  0  0  0
 41 80  2  0  0  0  0
 42 45  1  0  0  0  0
 43 52  1  0  0  0  0
 44 66  1  0  0  0  0
 45 47  1  0  0  0  0
 46 48  1  0  0  0  0
 46 49  1  0  0  0  0
 47 51  1  0  0  0  0
 48 53  1  0  0  0  0
 49 67  1  0  0  0  0
 50 53  1  0  0  0  0
 50 67  1  0  0  0  0
 51 72  1  0  0  0  0
 52 66  1  0  0  0  0
 53 65  1  0  0  0  0
 54 62  1  0  0  0  0
 55 63  1  0  0  0  0
 56 63  1  0  0  0  0
 57 63  1  0  0  0  0
 58 74  1  0  0  0  0
 59 71  1  0  0  0  0
 60 82  1  0  0  0  0
 61 63  1  0  0  0  0
 61 73  1  0  0  0  0
 62 74  1  0  0  0  0
 64 65  1  0  0  0  0
M  CHG  1  74   1
M  ISO  4  41 100  60 101  70 100  82 101
M  END
> <Batch ID>
0059

> <Smiles>
CNC(C)C(=O)NC(C(=O)N1Cc2cc([101O:1][101CH2:1]C=CC(=O)NCc3ccccc3[100NH:0][100C:0](=O)N3CCCC(n4nc(-c5ccc(Oc6ccc(F)cc6F)cc5)c(C(N)=O)c4N)C3)ccc2CC1C(=O)NC1CCCc2ccccc21)C(C)(C)C

> <Shape>
0.196

> <Color>
0.084

> <Negative vol penalty>
0.000

$$$$

  -OEChem-04042323013D

 86 95  0     1  0  0  0  0  0999 V2000
  -24.8391  -38.4639   22.6921 C   0  0  0  0  0  0  0  0  0  0  0  0
  -24.9154  -37.3937   21.8065 C   0  0  0  0  0  0  0  0  0  0  0  0
  -26.1647  -13.6819   19.5677 C   0  0  0  0  0  0  0  0  0  0  0  0
  -26.3245  -13.6525   21.9782 C   0  0  0  0  0  0  0  0  0  0  0  0
  -25.3210  -38.3261   23.9932 C   0  0  0  0  0  0  0  0  0  0  0  0
  -25.4746  -36.1855   22.2211 C   0  0  0  0  0  0  0  0  0  0  0  0
  -23.7775  -30.5595   20.4966 C   0  0  0  0  0  0  0  0  0  0  0  0
  -31.8761  -25.2431   21.4170 C   0  0  0  0  0  0  0  0  0  0  0  0
  -31.8704  -23.9192   21.8563 C   0  0  0  0  0  0  0  0  0  0  0  0
  -24.8573  -13.2025   19.6485 C   0  0  0  0  0  0  0  0  0  0  0  0
  -25.0171  -13.1732   22.0590 C   0  0  0  0  0  0  0  0  0  0  0  0
  -24.2870  -29.6762   19.5458 C   0  0  0  0  0  0  0  0  0  0  0  0
  -23.3196  -10.2367   20.1619 C   0  0  0  0  0  0  0  0  0  0  0  0
  -22.9543   -9.2038   19.2986 C   0  0  0  0  0  0  0  0  0  0  0  0
  -25.5609  -28.5669   21.2680 C   0  0  0  0  0  0  0  0  0  0  0  0
  -30.2019  -23.3755   20.1957 C   0  0  0  0  0  0  0  0  0  0  0  0
  -21.2367  -10.6092   18.3438 C   0  0  0  0  0  0  0  0  0  0  0  0
  -26.8983  -13.9069   20.7325 C   0  0  0  0  0  0  0  0  0  0  0  0
  -29.3414  -13.7875   20.0080 C   0  0  0  0  0  0  0  0  0  0  0  0
  -25.8776  -37.1126   24.4269 C   0  0  0  0  0  0  0  0  0  0  0  0
  -24.1650  -30.4598   21.8406 C   0  0  0  0  0  0  0  0  0  0  0  0
  -25.9655  -36.0318   23.5288 C   0  0  0  0  0  0  0  0  0  0  0  0
  -25.0529  -29.4485   22.2342 C   0  0  0  0  0  0  0  0  0  0  0  0
  -31.0447  -25.6332   20.3671 C   0  0  0  0  0  0  0  0  0  0  0  0
  -30.2076  -24.6994   19.7564 C   0  0  0  0  0  0  0  0  0  0  0  0
  -31.0333  -22.9854   21.2456 C   0  0  0  0  0  0  0  0  0  0  0  0
  -24.2835  -12.9482   20.8941 C   0  0  0  0  0  0  0  0  0  0  0  0
  -25.1811  -28.6815   19.9309 C   0  0  0  0  0  0  0  0  0  0  0  0
  -22.6433  -11.4559   20.1162 C   0  0  0  0  0  0  0  0  0  0  0  0
  -21.9129   -9.3901   18.3895 C   0  0  0  0  0  0  0  0  0  0  0  0
  -21.6019  -11.6421   19.2071 C   0  0  0  0  0  0  0  0  0  0  0  0
  -28.2491  -14.4015   20.6497 C   0  0  0  0  0  0  0  0  0  0  0  0
  -30.3901  -14.6500   20.2147 C   0  0  0  0  0  0  0  0  0  0  0  0
  -29.8539  -25.6128   17.4709 C   0  0  0  0  0  0  0  0  0  0  0  0
  -29.4025  -12.5483   19.2894 C   0  0  0  0  0  0  0  0  0  0  0  0
  -25.6770  -32.3655   23.8864 C   0  0  0  0  0  0  0  0  0  0  0  0
  -24.9245  -30.0334   26.0118 C   0  0  0  0  0  0  0  0  0  0  0  0
  -24.1351  -26.7589   26.5611 C   0  0  0  0  0  0  0  0  0  0  0  0
  -30.2610  -20.5800   21.2021 C   0  0  0  0  0  0  0  0  0  0  0  0
  -26.4283  -37.0262   25.8283 C   0  0  0  0  0  0  0  0  0  0  0  0
  -23.5856  -31.4035   22.8585 C   0  0  0  0  0  0  0  0  0  0  0  0
  -25.4848  -29.2863   23.6680 C   0  0  0  0  0  0  0  0  0  0  0  0
  -28.7783  -26.0274   16.4849 C   0  0  0  0  0  0  0  0  0  0  0  0
  -26.6648  -35.5947   26.3027 C   0  0  0  0  0  0  0  0  0  0  0  0
  -27.6988  -26.8090   17.2117 C   0  0  0  0  0  0  0  0  0  0  0  0
  -31.2454  -17.8649   23.7286 C   0  0  0  0  0  0  0  0  0  0  0  0
  -27.3850  -34.7879   25.2269 C   0  0  0  0  0  0  0  0  0  0  0  0
  -31.3080  -16.6593   22.7937 C   0  0  0  0  0  0  0  0  0  0  0  0
  -31.4295  -19.1821   22.9856 C   0  0  0  0  0  0  0  0  0  0  0  0
  -27.9081  -24.7785   18.7471 C   0  0  0  0  0  0  0  0  0  0  0  0
  -29.7325  -18.1629   21.4568 C   0  0  0  0  0  0  0  0  0  0  0  0
  -26.5427  -34.6974   23.9487 C   0  0  1  0  0  0  0  0  0  0  0  0
  -24.4465  -31.5331   24.1113 C   0  0  1  0  0  0  0  0  0  0  0  0
  -27.0220  -25.9516   18.2880 C   0  0  1  0  0  0  0  0  0  0  0  0
  -30.6274  -16.9139   21.4342 C   0  0  2  0  0  0  0  0  0  0  0  0
  -31.0718  -27.0579   19.9174 C   0  0  0  0  0  0  0  0  0  0  0  0
  -23.6128  -25.1415   28.4073 C   0  0  0  0  0  0  0  0  0  0  0  0
  -27.8827  -29.9267   26.7519 C   0  0  0  0  0  0  0  0  0  0  0  0
  -27.4566  -27.7175   27.8502 C   0  0  0  0  0  0  0  0  0  0  0  0
  -26.3151  -29.7687   28.6941 C   0  0  0  0  0  0  0  0  0  0  0  0
  -21.4412  -26.2028   25.4689 C   0  0  0  0  0  0  0  0  0  0  0  0
  -26.5920  -26.8235   19.4691 C   0  0  0  0  0  0  0  0  0  1  0  0
  -25.5915  -28.7659   26.4889 C   0  0  1  0  0  0  0  0  0  0  0  0
  -23.0381  -26.1122   27.3874 C   0  0  2  0  0  0  0  0  0  0  0  0
  -26.8050  -29.0487   27.4188 C   0  0  0  0  0  0  0  0  0  0  0  0
  -28.5739  -15.5641   21.2213 N   0  0  0  0  0  0  0  0  0  0  0  0
  -29.8821  -15.6876   20.9396 N   0  0  0  0  0  0  0  0  0  0  0  0
  -29.3430  -25.0820   18.6725 N   0  0  0  0  0  0  0  0  0  0  0  0
  -24.8955  -30.2374   24.6249 N   0  0  0  0  0  0  0  0  0  0  0  0
  -30.4894  -19.3509   21.8681 N   0  0  0  0  0  0  0  0  0  0  0  0
  -31.6881  -14.6144   19.8453 N   0  0  0  0  0  0  0  0  0  0  0  0
  -29.7117  -11.3794   19.9982 N   0  0  0  0  0  0  0  0  0  0  0  0
  -31.0278  -21.6403   21.6924 N   0  0  0  0  0  0  0  0  0  0  0  0
  -25.4898  -33.7170   24.1056 N   0  0  0  0  0  0  0  0  0  0  0  0
  -24.5428  -27.9592   27.1036 N   0  0  0  0  0  0  0  0  0  0  0  0
  -22.0974  -25.3650   26.5055 N   0  3  0  0  0  0  0  0  0  0  0  0
  -31.0394  -25.7074   17.1548 O   0  0  0  0  0  0  0  0  0  0  0  0
  -29.2055  -12.4822   18.0523 O   0  0  0  0  0  0  0  0  0  0  0  0
  -26.7195  -31.8218   23.5412 O   0  0  0  0  0  0  0  0  0  0  0  0
  -24.4405  -30.8102   26.8388 O   0  0  0  0  0  0  0  0  0  0  0  0
  -24.5877  -26.2485   25.5388 O   0  0  0  0  0  0  0  0  0  0  0  0
  -29.4612  -20.6720   20.2685 O   0  0  0  0  0  0  0  0  0  0  0  0
  -23.0077  -12.4806   20.9734 O   0  0  0  0  0  0  0  0  0  0  0  0
  -25.6804  -27.8184   19.0048 O   0  0  0  0  0  0  0  0  0  1  0  0
  -21.5632   -8.3986   17.5595 F   0  0  0  0  0  0  0  0  0  0  0  0
  -20.9494  -12.8116   19.1577 F   0  0  0  0  0  0  0  0  0  0  0  0
  1  2  1  0  0  0  0
  1  5  2  0  0  0  0
  2  6  2  0  0  0  0
  3 10  2  0  0  0  0
  3 18  1  0  0  0  0
  4 11  1  0  0  0  0
  4 18  2  0  0  0  0
  5 20  1  0  0  0  0
  6 22  1  0  0  0  0
  7 12  2  0  0  0  0
  7 21  1  0  0  0  0
  8  9  2  0  0  0  0
  8 24  1  0  0  0  0
  9 26  1  0  0  0  0
 10 27  1  0  0  0  0
 11 27  2  0  0  0  0
 12 28  1  0  0  0  0
 13 14  2  0  0  0  0
 13 29  1  0  0  0  0
 14 30  1  0  0  0  0
 15 23  1  0  0  0  0
 15 28  2  0  0  0  0
 16 25  1  0  0  0  0
 16 26  2  0  0  0  0
 17 30  2  0  0  0  0
 17 31  1  0  0  0  0
 18 32  1  0  0  0  0
 19 32  1  0  0  0  0
 19 33  2  0  0  0  0
 19 35  1  0  0  0  0
 20 22  2  0  0  0  0
 20 40  1  0  0  0  0
 21 23  2  0  0  0  0
 21 41  1  0  0  0  0
 22 52  1  0  0  0  0
 23 42  1  0  0  0  0
 24 25  2  0  0  0  0
 24 56  1  0  0  0  0
 25 68  1  0  0  0  0
 26 73  1  0  0  0  0
 27 83  1  0  0  0  0
 28 84  1  0  0  0  0
 29 31  2  0  0  0  0
 29 83  1  0  0  0  0
 30 85  1  0  0  0  0
 31 86  1  0  0  0  0
 32 66  2  0  0  0  0
 33 67  1  0  0  0  0
 33 71  1  0  0  0  0
 34 43  1  0  0  0  0
 34 68  1  0  0  0  0
 34 77  2  0  0  0  0
 35 72  1  0  0  0  0
 35 78  2  0  0  0  0
 36 53  1  0  0  0  0
 36 74  1  0  0  0  0
 36 79  2  0  0  0  0
 37 63  1  0  0  0  0
 37 69  1  0  0  0  0
 37 80  2  0  0  0  0
 38 64  1  0  0  0  0
 38 75  1  0  0  0  0
 38 81  2  0  0  0  0
 39 70  1  0  0  0  0
 39 73  1  0  0  0  0
 39 82  2  0  0  0  0
 40 44  1  0  0  0  0
 41 53  1  0  0  0  0
 42 69  1  0  0  0  0
 43 45  1  0  0  0  0
 44 47  1  0  0  0  0
 45 54  1  0  0  0  0
 46 48  1  0  0  0  0
 46 49  1  0  0  0  0
 47 52  1  0  0  0  0
 48 55  1  0  0  0  0
 49 70  1  0  0  0  0
 50 54  1  0  0  0  0
 50 68  1  0  0  0  0
 51 55  1  0  0  0  0
 51 70  1  0  0  0  0
 52 74  1  0  0  0  0
 53 69  1  0  0  0  0
 54 62  1  0  0  0  0
 55 67  1  0  0  0  0
 57 64  1  0  0  0  0
 58 65  1  0  0  0  0
 59 65  1  0  0  0  0
 60 65  1  0  0  0  0
 61 76  1  0  0  0  0
 62 84  1  0  0  0  0
 63 65  1  0  0  0  0
 63 75  1  0  0  0  0
 64 76  1  0  0  0  0
 66 67  1  0  0  0  0
M  CHG  1  76   1
M  ISO  4  39 100  62 101  73 100  84 101
M  END
> <Batch ID>
0059

> <Smiles>
CNC(C)C(=O)NC(C(=O)N1Cc2cc([101O:1][101CH2:1]C3CCC(=O)N(c4cc([100NH:0][100C:0](=O)N5CCCC(n6nc(-c7ccc(Oc8ccc(F)cc8F)cc7)c(C(N)=O)c6N)C5)ccc4C)C3)ccc2CC1C(=O)NC1CCCc2ccccc21)C(C)(C)C

> <Shape>
0.317

> <Color>
0.076

> <Negative vol penalty>
0.000

$$$$

  -OEChem-04042323013D

 84 92  0     1  0  0  0  0  0999 V2000
  -26.6490  -21.8848   16.2821 C   0  0  0  0  0  0  0  0  0  0  0  0
  -27.1221  -20.7015   16.8377 C   0  0  0  0  0  0  0  0  0  0  0  0
  -22.9393  -29.8215   22.2238 C   0  0  0  0  0  0  0  0  0  0  0  0
  -23.8407  -28.5951   24.1001 C   0  0  0  0  0  0  0  0  0  0  0  0
  -29.4096  -21.3390   23.7453 C   0  0  0  0  0  0  0  0  0  0  0  0
  -25.4205  -22.3998   16.6905 C   0  0  0  0  0  0  0  0  0  0  0  0
  -26.3615  -20.0265   17.7931 C   0  0  0  0  0  0  0  0  0  0  0  0
  -27.9831  -15.6084   19.2266 C   0  0  0  0  0  0  0  0  0  0  0  0
  -29.1661  -22.5344   23.0692 C   0  0  0  0  0  0  0  0  0  0  0  0
  -21.7050  -29.9008   22.8687 C   0  0  0  0  0  0  0  0  0  0  0  0
  -22.6064  -28.6745   24.7450 C   0  0  0  0  0  0  0  0  0  0  0  0
  -29.1071  -15.4440   20.0349 C   0  0  0  0  0  0  0  0  0  0  0  0
  -19.0430  -27.8889   23.4076 C   0  0  0  0  0  0  0  0  0  0  0  0
  -17.9007  -27.6172   22.6547 C   0  0  0  0  0  0  0  0  0  0  0  0
  -27.6753  -15.0139   21.9281 C   0  0  0  0  0  0  0  0  0  0  0  0
  -29.0611  -21.3299   20.9775 C   0  0  0  0  0  0  0  0  0  0  0  0
  -17.0710  -29.8399   23.1112 C   0  0  0  0  0  0  0  0  0  0  0  0
  -24.0072  -29.1686   22.8395 C   0  0  0  0  0  0  0  0  0  0  0  0
  -29.4790  -20.1390   23.0376 C   0  0  0  0  0  0  0  0  0  0  0  0
  -26.3478  -30.0018   22.2607 C   0  0  0  0  0  0  0  0  0  0  0  0
  -24.6509  -21.7367   17.6606 C   0  0  0  0  0  0  0  0  0  0  0  0
  -26.6945  -15.4875   19.7663 C   0  0  0  0  0  0  0  0  0  0  0  0
  -25.1081  -20.5176   18.2009 C   0  0  0  0  0  0  0  0  0  0  0  0
  -26.5366  -15.1748   21.1240 C   0  0  0  0  0  0  0  0  0  0  0  0
  -28.9918  -22.5299   21.6852 C   0  0  0  0  0  0  0  0  0  0  0  0
  -21.5385  -29.3273   24.1292 C   0  0  0  0  0  0  0  0  0  0  0  0
  -28.9533  -15.1495   21.3865 C   0  0  0  0  0  0  0  0  0  0  0  0
  -19.1993  -29.1362   24.0124 C   0  0  0  0  0  0  0  0  0  0  0  0
  -16.9147  -28.5926   22.5065 C   0  0  0  0  0  0  0  0  0  0  0  0
  -29.3047  -20.1345   21.6537 C   0  0  0  0  0  0  0  0  0  0  0  0
  -18.2133  -30.1116   23.8641 C   0  0  0  0  0  0  0  0  0  0  0  0
  -25.2823  -29.0859   22.1737 C   0  0  0  0  0  0  0  0  0  0  0  0
  -27.3216  -29.4738   21.4488 C   0  0  0  0  0  0  0  0  0  0  0  0
  -29.7375  -18.8752   23.7563 C   0  0  0  0  0  0  0  0  0  0  0  0
  -26.4482  -31.2209   23.0087 C   0  0  0  0  0  0  0  0  0  0  0  0
  -24.2054  -17.4379   20.0886 C   0  0  0  0  0  0  0  0  0  0  0  0
  -22.7355  -14.7522   21.1604 C   0  0  0  0  0  0  0  0  0  0  0  0
  -23.0246  -11.6542   22.5625 C   0  0  0  0  0  0  0  0  0  0  0  0
  -28.5484  -23.9161   19.6290 C   0  0  0  0  0  0  0  0  0  0  0  0
  -23.3250  -22.3345   18.0602 C   0  0  0  0  0  0  0  0  0  0  0  0
  -25.4925  -15.6414   18.8753 C   0  0  0  0  0  0  0  0  0  0  0  0
  -25.1751  -15.0144   21.7478 C   0  0  0  0  0  0  0  0  0  0  0  0
  -22.8039  -21.7918   19.3870 C   0  0  0  0  0  0  0  0  0  0  0  0
  -27.8755  -26.7345   17.5599 C   0  0  0  0  0  0  0  0  0  0  0  0
  -22.8637  -20.2716   19.3861 C   0  0  0  0  0  0  0  0  0  0  0  0
  -27.2367  -27.7430   18.5175 C   0  0  0  0  0  0  0  0  0  0  0  0
  -27.4535  -25.3018   17.8808 C   0  0  0  0  0  0  0  0  0  0  0  0
  -27.0248  -25.8986   20.2322 C   0  0  0  0  0  0  0  0  0  0  0  0
  -24.3123  -19.7821   19.2640 C   0  0  1  0  0  0  0  0  0  0  0  0
  -24.2236  -16.0037   19.6410 C   0  0  1  0  0  0  0  0  0  0  0  0
  -27.4714  -27.3495   19.9891 C   0  0  2  0  0  0  0  0  0  0  0  0
  -21.6445   -9.7134   23.3536 C   0  0  0  0  0  0  0  0  0  0  0  0
  -21.9658  -16.3220   23.6611 C   0  0  0  0  0  0  0  0  0  0  0  0
  -21.4526  -14.1446   24.7853 C   0  0  0  0  0  0  0  0  0  0  0  0
  -20.1634  -14.8375   22.7653 C   0  0  0  0  0  0  0  0  0  0  0  0
  -24.2906   -9.8133   20.6216 C   0  0  0  0  0  0  0  0  0  0  0  0
  -31.9923  -16.0558   23.0959 C   0  0  0  0  0  0  0  0  0  0  0  0
  -31.1883  -16.9019   24.0690 C   0  0  0  0  0  0  0  0  0  0  0  0
  -31.2181  -15.7273   21.8257 C   0  0  0  0  0  0  0  0  0  1  0  0
  -22.5653  -14.0915   22.5071 C   0  0  1  0  0  0  0  0  0  0  0  0
  -22.4109  -10.3175   22.1872 C   0  0  2  0  0  0  0  0  0  0  0  0
  -21.5626  -14.8538   23.4187 C   0  0  0  0  0  0  0  0  0  0  0  0
  -25.5535  -28.0543   21.3698 N   0  0  0  0  0  0  0  0  0  0  0  0
  -26.8004  -28.3189   20.9442 N   0  0  0  0  0  0  0  0  0  0  0  0
  -24.0306  -15.1807   20.8367 N   0  0  0  0  0  0  0  0  0  0  0  0
  -27.7092  -24.9987   19.2906 N   0  0  0  0  0  0  0  0  0  0  0  0
  -28.5644  -29.8895   21.1243 N   0  0  0  0  0  0  0  0  0  0  0  0
  -28.8713  -18.4991   24.6972 N   0  0  0  0  0  0  0  0  0  0  0  0
  -25.3551  -31.6165   23.7915 N   0  0  0  0  0  0  0  0  0  0  0  0
  -28.7442  -23.7446   20.9989 N   0  0  0  0  0  0  0  0  0  0  0  0
  -24.3110  -18.3508   19.0566 N   0  0  0  0  0  0  0  0  0  0  0  0
  -22.1945  -12.7064   22.2383 N   0  0  0  0  0  0  0  0  0  0  0  0
  -30.8283  -18.1688   23.4318 N   0  3  0  0  0  0  0  0  0  0  0  0
  -23.4734   -9.3571   21.7753 N   0  3  0  0  0  0  0  0  0  0  0  0
  -27.4707  -31.9465   22.9708 O   0  0  0  0  0  0  0  0  0  0  0  0
  -24.1016  -17.6971   21.2818 O   0  0  0  0  0  0  0  0  0  0  0  0
  -21.7568  -14.8768   20.4200 O   0  0  0  0  0  0  0  0  0  0  0  0
  -24.1283  -11.7548   23.0939 O   0  0  0  0  0  0  0  0  0  0  0  0
  -29.0777  -23.2110   18.7661 O   0  0  0  0  0  0  0  0  0  0  0  0
  -20.3343  -29.4047   24.7588 O   0  0  0  0  0  0  0  0  0  0  0  0
  -30.0487  -14.9891   22.1778 O   0  0  0  0  0  0  0  0  0  1  0  0
  -15.8185  -28.3320   21.7822 F   0  0  0  0  0  0  0  0  0  0  0  0
  -29.3715  -18.9866   20.9647 F   0  0  0  0  0  0  0  0  0  0  0  0
  -18.3585  -31.3121   24.4417 F   0  0  0  0  0  0  0  0  0  0  0  0
  1  2  1  0  0  0  0
  1  6  2  0  0  0  0
  2  7  2  0  0  0  0
  3 10  2  0  0  0  0
  3 18  1  0  0  0  0
  4 11  1  0  0  0  0
  4 18  2  0  0  0  0
  5  9  2  0  0  0  0
  5 19  1  0  0  0  0
  6 21  1  0  0  0  0
  7 23  1  0  0  0  0
  8 12  2  0  0  0  0
  8 22  1  0  0  0  0
  9 25  1  0  0  0  0
 10 26  1  0  0  0  0
 11 26  2  0  0  0  0
 12 27  1  0  0  0  0
 13 14  2  0  0  0  0
 13 28  1  0  0  0  0
 14 29  1  0  0  0  0
 15 24  1  0  0  0  0
 15 27  2  0  0  0  0
 16 25  2  0  0  0  0
 16 30  1  0  0  0  0
 17 29  2  0  0  0  0
 17 31  1  0  0  0  0
 18 32  1  0  0  0  0
 19 30  2  0  0  0  0
 19 34  1  0  0  0  0
 20 32  1  0  0  0  0
 20 33  2  0  0  0  0
 20 35  1  0  0  0  0
 21 23  2  0  0  0  0
 21 40  1  0  0  0  0
 22 24  2  0  0  0  0
 22 41  1  0  0  0  0
 23 49  1  0  0  0  0
 24 42  1  0  0  0  0
 25 70  1  0  0  0  0
 26 80  1  0  0  0  0
 27 81  1  0  0  0  0
 28 31  2  0  0  0  0
 28 80  1  0  0  0  0
 29 82  1  0  0  0  0
 30 83  1  0  0  0  0
 31 84  1  0  0  0  0
 32 63  2  0  0  0  0
 33 64  1  0  0  0  0
 33 67  1  0  0  0  0
 34 68  1  0  0  0  0
 34 73  2  0  0  0  0
 35 69  1  0  0  0  0
 35 75  2  0  0  0  0
 36 50  1  0  0  0  0
 36 71  1  0  0  0  0
 36 76  2  0  0  0  0
 37 60  1  0  0  0  0
 37 65  1  0  0  0  0
 37 77  2  0  0  0  0
 38 61  1  0  0  0  0
 38 72  1  0  0  0  0
 38 78  2  0  0  0  0
 39 66  1  0  0  0  0
 39 70  1  0  0  0  0
 39 79  2  0  0  0  0
 40 43  1  0  0  0  0
 41 50  1  0  0  0  0
 42 65  1  0  0  0  0
 43 45  1  0  0  0  0
 44 46  1  0  0  0  0
 44 47  1  0  0  0  0
 45 49  1  0  0  0  0
 46 51  1  0  0  0  0
 47 66  1  0  0  0  0
 48 51  1  0  0  0  0
 48 66  1  0  0  0  0
 49 71  1  0  0  0  0
 50 65  1  0  0  0  0
 51 64  1  0  0  0  0
 52 61  1  0  0  0  0
 53 62  1  0  0  0  0
 54 62  1  0  0  0  0
 55 62  1  0  0  0  0
 56 74  1  0  0  0  0
 57 58  1  0  0  0  0
 57 59  1  0  0  0  0
 58 73  1  0  0  0  0
 59 81  1  0  0  0  0
 60 62  1  0  0  0  0
 60 72  1  0  0  0  0
 61 74  1  0  0  0  0
 63 64  1  0  0  0  0
M  CHG  2  73   1  74   1
M  ISO  4  39 100  59 101  70 100  81 101
M  END
> <Batch ID>
0059

> <Smiles>
CNC(C)C(=O)NC(C(=O)N1Cc2cc([101O:1][101CH2:1]CCNC(=N)c3ccc([100NH:0][100C:0](=O)N4CCCC(n5nc(-c6ccc(Oc7ccc(F)cc7F)cc6)c(C(N)=O)c5N)C4)cc3F)ccc2CC1C(=O)NC1CCCc2ccccc21)C(C)(C)C

> <Shape>
0.241

> <Color>
0.060

> <Negative vol penalty>
0.000

$$$$

  -OEChem-04042323013D

 83 91  0     1  0  0  0  0  0999 V2000
  -17.9933  -25.2503   21.8439 C   0  0  0  0  0  0  0  0  0  0  0  0
  -19.2625  -24.7817   22.1678 C   0  0  0  0  0  0  0  0  0  0  0  0
  -23.8215   -9.8878   21.6507 C   0  0  0  0  0  0  0  0  0  0  0  0
  -24.3997  -11.0310   23.6991 C   0  0  0  0  0  0  0  0  0  0  0  0
  -17.8437  -26.5069   21.2585 C   0  0  0  0  0  0  0  0  0  0  0  0
  -20.3831  -25.5690   21.9055 C   0  0  0  0  0  0  0  0  0  0  0  0
  -25.5029  -25.9157   25.2481 C   0  0  0  0  0  0  0  0  0  0  0  0
  -31.4184  -20.1023   21.3150 C   0  0  0  0  0  0  0  0  0  0  0  0
  -31.0814  -18.8158   20.8944 C   0  0  0  0  0  0  0  0  0  0  0  0
  -23.3059   -8.8235   22.3902 C   0  0  0  0  0  0  0  0  0  0  0  0
  -23.8840   -9.9666   24.4386 C   0  0  0  0  0  0  0  0  0  0  0  0
  -26.7520  -25.3106   25.1161 C   0  0  0  0  0  0  0  0  0  0  0  0
  -20.4791   -8.1221   24.1079 C   0  0  0  0  0  0  0  0  0  0  0  0
  -19.2454   -7.6002   23.7192 C   0  0  0  0  0  0  0  0  0  0  0  0
  -27.5764  -27.2735   23.9818 C   0  0  0  0  0  0  0  0  0  0  0  0
  -29.0742  -20.6462   21.5296 C   0  0  0  0  0  0  0  0  0  0  0  0
  -20.2728   -5.4444   23.3529 C   0  0  0  0  0  0  0  0  0  0  0  0
  -24.3686  -10.9916   22.3052 C   0  0  0  0  0  0  0  0  0  0  0  0
  -24.2093  -13.2341   21.0997 C   0  0  0  0  0  0  0  0  0  0  0  0
  -18.9623  -27.3140   20.9977 C   0  0  0  0  0  0  0  0  0  0  0  0
  -25.2777  -27.2021   24.7373 C   0  0  0  0  0  0  0  0  0  0  0  0
  -20.2485  -26.8370   21.3148 C   0  0  0  0  0  0  0  0  0  0  0  0
  -26.3242  -27.8937   24.1108 C   0  0  0  0  0  0  0  0  0  0  0  0
  -30.4148  -21.0175   21.6327 C   0  0  0  0  0  0  0  0  0  0  0  0
  -29.7408  -18.4445   20.7913 C   0  0  0  0  0  0  0  0  0  0  0  0
  -23.3371   -8.8629   23.7842 C   0  0  0  0  0  0  0  0  0  0  0  0
  -27.7882  -25.9884   24.4803 C   0  0  0  0  0  0  0  0  0  0  0  0
  -21.6097   -7.3052   24.1191 C   0  0  0  0  0  0  0  0  0  0  0  0
  -19.1422   -6.2614   23.3417 C   0  0  0  0  0  0  0  0  0  0  0  0
  -28.7372  -19.3597   21.1089 C   0  0  0  0  0  0  0  0  0  0  0  0
  -21.5065   -5.9664   23.7416 C   0  0  0  0  0  0  0  0  0  0  0  0
  -24.9019  -12.0911   21.5418 C   0  0  0  0  0  0  0  0  0  0  0  0
  -25.1537  -13.9681   20.4245 C   0  0  0  0  0  0  0  0  0  0  0  0
  -22.8351  -13.5998   21.2829 C   0  0  0  0  0  0  0  0  0  0  0  0
  -23.3525  -28.4330   22.5278 C   0  0  0  0  0  0  0  0  0  0  0  0
  -24.5538  -31.2463   23.6068 C   0  0  0  0  0  0  0  0  0  0  0  0
  -29.8906  -23.3543   22.4128 C   0  0  0  0  0  0  0  0  0  0  0  0
  -27.0962  -32.9018   25.1695 C   0  0  0  0  0  0  0  0  0  0  0  0
  -30.2765  -16.1102   20.0100 C   0  0  0  0  0  0  0  0  0  0  0  0
  -18.7547  -28.6454   20.3203 C   0  0  0  0  0  0  0  0  0  0  0  0
  -23.9322  -27.8515   24.9114 C   0  0  0  0  0  0  0  0  0  0  0  0
  -26.1397  -29.2846   23.5632 C   0  0  0  0  0  0  0  0  0  0  0  0
  -19.9625  -29.5737   20.4186 C   0  0  0  0  0  0  0  0  0  0  0  0
  -29.8355  -12.7429   18.9405 C   0  0  0  0  0  0  0  0  0  0  0  0
  -21.2445  -28.8194   20.0805 C   0  0  0  0  0  0  0  0  0  0  0  0
  -28.4556  -12.3671   19.4856 C   0  0  0  0  0  0  0  0  0  0  0  0
  -30.5990  -13.6485   19.9052 C   0  0  0  0  0  0  0  0  0  0  0  0
  -28.4927  -14.4743   20.8804 C   0  0  0  0  0  0  0  0  0  0  0  0
  -21.4864  -27.6719   21.0685 C   0  0  1  0  0  0  0  0  0  0  0  0
  -23.6688  -28.9613   23.8983 C   0  0  1  0  0  0  0  0  0  0  0  0
  -27.6601  -13.6156   19.9145 C   0  0  2  0  0  0  0  0  0  0  0  0
  -27.8105  -35.2026   25.8719 C   0  0  0  0  0  0  0  0  0  0  0  0
  -25.2836  -31.8992   20.7170 C   0  0  0  0  0  0  0  0  0  0  0  0
  -26.7980  -33.6970   21.5789 C   0  0  0  0  0  0  0  0  0  0  0  0
  -24.3450  -33.8196   22.0153 C   0  0  0  0  0  0  0  0  0  0  0  0
  -27.1536  -32.1375   28.0281 C   0  0  0  0  0  0  0  0  0  0  0  0
  -30.6769  -24.5979   22.8118 C   0  0  0  0  0  0  0  0  0  0  0  0
  -29.7869  -25.7651   23.2110 C   0  0  0  0  0  0  0  0  0  1  0  0
  -25.7395  -32.1097   23.2495 C   0  0  1  0  0  0  0  0  0  0  0  0
  -27.0925  -33.9282   26.2879 C   0  0  2  0  0  0  0  0  0  0  0  0
  -25.5448  -32.8544   21.8987 C   0  0  0  0  0  0  0  0  0  0  0  0
  -26.1871  -12.0940   21.1780 N   0  0  0  0  0  0  0  0  0  0  0  0
  -26.3095  -13.2479   20.5000 N   0  0  0  0  0  0  0  0  0  0  0  0
  -24.8042  -29.8745   23.7524 N   0  0  0  0  0  0  0  0  0  0  0  0
  -29.7853  -14.8121   20.2640 N   0  0  0  0  0  0  0  0  0  0  0  0
  -25.1000  -15.1527   19.7794 N   0  0  0  0  0  0  0  0  0  0  0  0
  -22.0027  -12.7311   22.0018 N   0  0  0  0  0  0  0  0  0  0  0  0
  -30.7565  -22.3230   22.0589 N   0  0  0  0  0  0  0  0  0  0  0  0
  -29.4016  -17.1371   20.3631 N   0  0  0  0  0  0  0  0  0  0  0  0
  -22.0099  -28.1823   22.3175 N   0  0  0  0  0  0  0  0  0  0  0  0
  -25.9617  -32.9907   24.3910 N   0  0  0  0  0  0  0  0  0  0  0  0
  -27.7706  -33.3799   27.4964 N   0  3  0  0  0  0  0  0  0  0  0  0
  -22.3555  -14.6575   20.8088 O   0  0  0  0  0  0  0  0  0  0  0  0
  -24.2591  -28.2665   21.7203 O   0  0  0  0  0  0  0  0  0  0  0  0
  -23.4476  -31.7708   23.7583 O   0  0  0  0  0  0  0  0  0  0  0  0
  -28.6644  -23.3265   22.4216 O   0  0  0  0  0  0  0  0  0  0  0  0
  -28.0155  -32.1037   25.0009 O   0  0  0  0  0  0  0  0  0  0  0  0
  -31.3799  -16.2964   19.4905 O   0  0  0  0  0  0  0  0  0  0  0  0
  -22.8337   -7.8246   24.5061 O   0  0  0  0  0  0  0  0  0  0  0  0
  -29.0082  -25.3998   24.3496 O   0  0  0  0  0  0  0  0  0  1  0  0
  -17.9571   -5.7600   22.9698 F   0  0  0  0  0  0  0  0  0  0  0  0
  -27.4453  -19.0144   21.0120 F   0  0  0  0  0  0  0  0  0  0  0  0
  -22.5890   -5.1764   23.7515 F   0  0  0  0  0  0  0  0  0  0  0  0
  1  2  1  0  0  0  0
  1  5  2  0  0  0  0
  2  6  2  0  0  0  0
  3 10  2  0  0  0  0
  3 18  1  0  0  0  0
  4 11  1  0  0  0  0
  4 18  2  0  0  0  0
  5 20  1  0  0  0  0
  6 22  1  0  0  0  0
  7 12  2  0  0  0  0
  7 21  1  0  0  0  0
  8  9  2  0  0  0  0
  8 24  1  0  0  0  0
  9 25  1  0  0  0  0
 10 26  1  0  0  0  0
 11 26  2  0  0  0  0
 12 27  1  0  0  0  0
 13 14  2  0  0  0  0
 13 28  1  0  0  0  0
 14 29  1  0  0  0  0
 15 23  1  0  0  0  0
 15 27  2  0  0  0  0
 16 24  2  0  0  0  0
 16 30  1  0  0  0  0
 17 29  2  0  0  0  0
 17 31  1  0  0  0  0
 18 32  1  0  0  0  0
 19 32  1  0  0  0  0
 19 33  2  0  0  0  0
 19 34  1  0  0  0  0
 20 22  2  0  0  0  0
 20 40  1  0  0  0  0
 21 23  2  0  0  0  0
 21 41  1  0  0  0  0
 22 49  1  0  0  0  0
 23 42  1  0  0  0  0
 24 68  1  0  0  0  0
 25 30  2  0  0  0  0
 25 69  1  0  0  0  0
 26 79  1  0  0  0  0
 27 80  1  0  0  0  0
 28 31  2  0  0  0  0
 28 79  1  0  0  0  0
 29 81  1  0  0  0  0
 30 82  1  0  0  0  0
 31 83  1  0  0  0  0
 32 62  2  0  0  0  0
 33 63  1  0  0  0  0
 33 66  1  0  0  0  0
 34 67  1  0  0  0  0
 34 73  2  0  0  0  0
 35 50  1  0  0  0  0
 35 70  1  0  0  0  0
 35 74  2  0  0  0  0
 36 59  1  0  0  0  0
 36 64  1  0  0  0  0
 36 75  2  0  0  0  0
 37 57  1  0  0  0  0
 37 68  1  0  0  0  0
 37 76  2  0  0  0  0
 38 60  1  0  0  0  0
 38 71  1  0  0  0  0
 38 77  2  0  0  0  0
 39 65  1  0  0  0  0
 39 69  1  0  0  0  0
 39 78  2  0  0  0  0
 40 43  1  0  0  0  0
 41 50  1  0  0  0  0
 42 64  1  0  0  0  0
 43 45  1  0  0  0  0
 44 46  1  0  0  0  0
 44 47  1  0  0  0  0
 45 49  1  0  0  0  0
 46 51  1  0  0  0  0
 47 65  1  0  0  0  0
 48 51  1  0  0  0  0
 48 65  1  0  0  0  0
 49 70  1  0  0  0  0
 50 64  1  0  0  0  0
 51 63  1  0  0  0  0
 52 60  1  0  0  0  0
 53 61  1  0  0  0  0
 54 61  1  0  0  0  0
 55 61  1  0  0  0  0
 56 72  1  0  0  0  0
 57 58  1  0  0  0  0
 58 80  1  0  0  0  0
 59 61  1  0  0  0  0
 59 71  1  0  0  0  0
 60 72  1  0  0  0  0
 62 63  1  0  0  0  0
M  CHG  1  72   1
M  ISO  4  39 100  58 101  69 100  80 101
M  END
> <Batch ID>
0059

> <Smiles>
CNC(C)C(=O)NC(C(=O)N1Cc2cc([101O:1][101CH2:1]CC(=O)Nc3ccc([100NH:0][100C:0](=O)N4CCCC(n5nc(-c6ccc(Oc7ccc(F)cc7F)cc6)c(C(N)=O)c5N)C4)c(F)c3)ccc2CC1C(=O)NC1CCCc2ccccc21)C(C)(C)C

> <Shape>
0.285

> <Color>
0.134

> <Negative vol penalty>
0.000

$$$$

  -OEChem-04042323013D

 83 91  0     1  0  0  0  0  0999 V2000
  -17.0931  -25.1755   24.1719 C   0  0  0  0  0  0  0  0  0  0  0  0
  -18.2713  -24.6441   24.6867 C   0  0  0  0  0  0  0  0  0  0  0  0
  -32.5347  -17.6724   23.3888 C   0  0  0  0  0  0  0  0  0  0  0  0
  -22.9991   -9.9253   20.0389 C   0  0  0  0  0  0  0  0  0  0  0  0
  -23.6972  -10.0534   22.3482 C   0  0  0  0  0  0  0  0  0  0  0  0
  -17.1460  -26.1931   23.2203 C   0  0  0  0  0  0  0  0  0  0  0  0
  -19.5032  -25.1294   24.2493 C   0  0  0  0  0  0  0  0  0  0  0  0
  -24.6160  -25.7201   27.5684 C   0  0  0  0  0  0  0  0  0  0  0  0
  -31.7238  -18.5836   24.0653 C   0  0  0  0  0  0  0  0  0  0  0  0
  -31.9645  -16.7437   22.5182 C   0  0  0  0  0  0  0  0  0  0  0  0
  -22.2400   -8.7923   20.3312 C   0  0  0  0  0  0  0  0  0  0  0  0
  -22.9381   -8.9203   22.6406 C   0  0  0  0  0  0  0  0  0  0  0  0
  -25.7520  -24.9212   27.6913 C   0  0  0  0  0  0  0  0  0  0  0  0
  -23.2183   -5.5710   22.2738 C   0  0  0  0  0  0  0  0  0  0  0  0
  -23.8065   -4.5829   23.0632 C   0  0  0  0  0  0  0  0  0  0  0  0
  -26.8787  -26.2809   26.0479 C   0  0  0  0  0  0  0  0  0  0  0  0
  -29.7723  -17.6372   23.0007 C   0  0  0  0  0  0  0  0  0  0  0  0
  -22.0613   -4.8604   24.7108 C   0  0  0  0  0  0  0  0  0  0  0  0
  -23.7278  -10.5559   21.0474 C   0  0  0  0  0  0  0  0  0  0  0  0
  -24.0921  -13.0685   20.7988 C   0  0  0  0  0  0  0  0  0  0  0  0
  -18.3791  -26.6978   22.7782 C   0  0  0  0  0  0  0  0  0  0  0  0
  -24.5991  -26.8006   26.6747 C   0  0  0  0  0  0  0  0  0  0  0  0
  -19.5727  -26.1539   23.2899 C   0  0  0  0  0  0  0  0  0  0  0  0
  -25.7422  -27.0935   25.9173 C   0  0  0  0  0  0  0  0  0  0  0  0
  -30.3426  -18.5660   23.8713 C   0  0  0  0  0  0  0  0  0  0  0  0
  -30.5833  -16.7261   22.3242 C   0  0  0  0  0  0  0  0  0  0  0  0
  -22.2094   -8.2898   21.6320 C   0  0  0  0  0  0  0  0  0  0  0  0
  -26.8826  -25.1998   26.9290 C   0  0  0  0  0  0  0  0  0  0  0  0
  -22.0517   -6.2039   22.7029 C   0  0  0  0  0  0  0  0  0  0  0  0
  -23.2279   -4.2275   24.2817 C   0  0  0  0  0  0  0  0  0  0  0  0
  -21.4732   -5.8486   23.9213 C   0  0  0  0  0  0  0  0  0  0  0  0
  -24.5126  -11.7260   20.7459 C   0  0  0  0  0  0  0  0  0  0  0  0
  -25.1993  -13.7901   20.4250 C   0  0  0  0  0  0  0  0  0  0  0  0
  -28.7499  -21.2464   25.9621 C   0  0  0  0  0  0  0  0  0  0  0  0
  -28.9213  -22.2446   26.8398 C   0  0  0  0  0  0  0  0  0  0  0  0
  -22.8148  -13.6143   21.1542 C   0  0  0  0  0  0  0  0  0  0  0  0
  -29.9226  -20.4749   25.4528 C   0  0  0  0  0  0  0  0  0  0  0  0
  -22.8934  -27.5566   24.1012 C   0  0  0  0  0  0  0  0  0  0  0  0
  -24.5307  -30.3486   24.3158 C   0  0  0  0  0  0  0  0  0  0  0  0
  -27.3070  -32.0022   25.4134 C   0  0  0  0  0  0  0  0  0  0  0  0
  -30.6667  -14.8099   20.6909 C   0  0  0  0  0  0  0  0  0  0  0  0
  -18.3866  -27.7657   21.7132 C   0  0  0  0  0  0  0  0  0  0  0  0
  -23.3750  -27.6689   26.5734 C   0  0  0  0  0  0  0  0  0  0  0  0
  -25.7821  -28.2543   24.9584 C   0  0  0  0  0  0  0  0  0  0  0  0
  -19.7275  -28.4827   21.5790 C   0  0  0  0  0  0  0  0  0  0  0  0
  -29.5977  -12.2767   18.4287 C   0  0  0  0  0  0  0  0  0  0  0  0
  -20.8719  -27.4744   21.5539 C   0  0  0  0  0  0  0  0  0  0  0  0
  -28.1449  -12.0181   18.8342 C   0  0  0  0  0  0  0  0  0  0  0  0
  -30.4820  -12.5654   19.6405 C   0  0  0  0  0  0  0  0  0  0  0  0
  -28.5443  -13.3764   20.9277 C   0  0  0  0  0  0  0  0  0  0  0  0
  -20.9280  -26.6709   22.8588 C   0  0  1  0  0  0  0  0  0  0  0  0
  -23.2916  -28.4325   25.2553 C   0  0  1  0  0  0  0  0  0  0  0  0
  -27.6021  -13.1448   19.7351 C   0  0  2  0  0  0  0  0  0  0  0  0
  -28.3812  -34.2701   25.4046 C   0  0  0  0  0  0  0  0  0  0  0  0
  -25.3526  -29.9455   21.4051 C   0  0  0  0  0  0  0  0  0  0  0  0
  -27.1362  -31.6698   21.7427 C   0  0  0  0  0  0  0  0  0  0  0  0
  -24.7349  -32.2950   21.9988 C   0  0  0  0  0  0  0  0  0  0  0  0
  -27.2443  -32.1712   28.3674 C   0  0  0  0  0  0  0  0  0  0  0  0
  -27.7914  -23.0517   27.3931 C   0  0  0  0  0  0  0  0  0  1  0  0
  -25.8390  -30.8656   23.7679 C   0  0  1  0  0  0  0  0  0  0  0  0
  -27.4688  -33.3150   26.1583 C   0  0  2  0  0  0  0  0  0  0  0  0
  -25.7646  -31.1708   22.2452 C   0  0  0  0  0  0  0  0  0  0  0  0
  -25.7875  -11.5996   20.3681 N   0  0  0  0  0  0  0  0  0  0  0  0
  -26.1775  -12.8718   20.1801 N   0  0  0  0  0  0  0  0  0  0  0  0
  -24.5584  -29.0700   24.8902 N   0  0  0  0  0  0  0  0  0  0  0  0
  -29.9076  -13.6463   20.4446 N   0  0  0  0  0  0  0  0  0  0  0  0
  -25.4218  -15.1143   20.2850 N   0  0  0  0  0  0  0  0  0  0  0  0
  -21.7873  -12.7313   21.5130 N   0  0  0  0  0  0  0  0  0  0  0  0
  -29.5197  -19.4920   24.5583 N   0  0  0  0  0  0  0  0  0  0  0  0
  -30.0047  -15.7824   21.4396 N   0  0  0  0  0  0  0  0  0  0  0  0
  -21.5278  -27.4604   23.9130 N   0  0  0  0  0  0  0  0  0  0  0  0
  -26.2005  -32.0148   24.5907 N   0  0  0  0  0  0  0  0  0  0  0  0
  -28.0516  -33.0757   27.5089 N   0  3  0  0  0  0  0  0  0  0  0  0
  -22.5865  -14.8477   21.1377 O   0  0  0  0  0  0  0  0  0  0  0  0
  -31.0624  -20.7326   25.8214 O   0  0  0  0  0  0  0  0  0  0  0  0
  -23.7608  -27.0098   23.4303 O   0  0  0  0  0  0  0  0  0  0  0  0
  -23.5230  -31.0563   24.2433 O   0  0  0  0  0  0  0  0  0  0  0  0
  -28.0865  -31.0611   25.5450 O   0  0  0  0  0  0  0  0  0  0  0  0
  -31.8092  -14.9457   20.2456 O   0  0  0  0  0  0  0  0  0  0  0  0
  -21.4686   -7.1843   21.9176 O   0  0  0  0  0  0  0  0  0  0  0  0
  -27.9925  -24.4213   27.0466 O   0  0  0  0  0  0  0  0  0  1  0  0
  -23.7920   -3.2774   25.0389 F   0  0  0  0  0  0  0  0  0  0  0  0
  -20.3518   -6.4522   24.3383 F   0  0  0  0  0  0  0  0  0  0  0  0
  1  2  1  0  0  0  0
  1  6  2  0  0  0  0
  2  7  2  0  0  0  0
  3  9  2  0  0  0  0
  3 10  1  0  0  0  0
  4 11  2  0  0  0  0
  4 19  1  0  0  0  0
  5 12  1  0  0  0  0
  5 19  2  0  0  0  0
  6 21  1  0  0  0  0
  7 23  1  0  0  0  0
  8 13  2  0  0  0  0
  8 22  1  0  0  0  0
  9 25  1  0  0  0  0
 10 26  2  0  0  0  0
 11 27  1  0  0  0  0
 12 27  2  0  0  0  0
 13 28  1  0  0  0  0
 14 15  2  0  0  0  0
 14 29  1  0  0  0  0
 15 30  1  0  0  0  0
 16 24  1  0  0  0  0
 16 28  2  0  0  0  0
 17 25  2  0  0  0  0
 17 26  1  0  0  0  0
 18 30  2  0  0  0  0
 18 31  1  0  0  0  0
 19 32  1  0  0  0  0
 20 32  1  0  0  0  0
 20 33  2  0  0  0  0
 20 36  1  0  0  0  0
 21 23  2  0  0  0  0
 21 42  1  0  0  0  0
 22 24  2  0  0  0  0
 22 43  1  0  0  0  0
 23 51  1  0  0  0  0
 24 44  1  0  0  0  0
 25 69  1  0  0  0  0
 26 70  1  0  0  0  0
 27 80  1  0  0  0  0
 28 81  1  0  0  0  0
 29 31  2  0  0  0  0
 29 80  1  0  0  0  0
 30 82  1  0  0  0  0
 31 83  1  0  0  0  0
 32 63  2  0  0  0  0
 33 64  1  0  0  0  0
 33 67  1  0  0  0  0
 34 35  2  0  0  0  0
 34 37  1  0  0  0  0
 35 59  1  0  0  0  0
 36 68  1  0  0  0  0
 36 74  2  0  0  0  0
 37 69  1  0  0  0  0
 37 75  2  0  0  0  0
 38 52  1  0  0  0  0
 38 71  1  0  0  0  0
 38 76  2  0  0  0  0
 39 60  1  0  0  0  0
 39 65  1  0  0  0  0
 39 77  2  0  0  0  0
 40 61  1  0  0  0  0
 40 72  1  0  0  0  0
 40 78  2  0  0  0  0
 41 66  1  0  0  0  0
 41 70  1  0  0  0  0
 41 79  2  0  0  0  0
 42 45  1  0  0  0  0
 43 52  1  0  0  0  0
 44 65  1  0  0  0  0
 45 47  1  0  0  0  0
 46 48  1  0  0  0  0
 46 49  1  0  0  0  0
 47 51  1  0  0  0  0
 48 53  1  0  0  0  0
 49 66  1  0  0  0  0
 50 53  1  0  0  0  0
 50 66  1  0  0  0  0
 51 71  1  0  0  0  0
 52 65  1  0  0  0  0
 53 64  1  0  0  0  0
 54 61  1  0  0  0  0
 55 62  1  0  0  0  0
 56 62  1  0  0  0  0
 57 62  1  0  0  0  0
 58 73  1  0  0  0  0
 59 81  1  0  0  0  0
 60 62  1  0  0  0  0
 60 72  1  0  0  0  0
 61 73  1  0  0  0  0
 63 64  1  0  0  0  0
M  CHG  1  73   1
M  ISO  4  41 100  59 101  70 100  81 101
M  END
> <Batch ID>
0059

> <Smiles>
CNC(C)C(=O)NC(C(=O)N1Cc2cc([101O:1][101CH2:1]C=CC(=O)Nc3cccc([100NH:0][100C:0](=O)N4CCCC(n5nc(-c6ccc(Oc7ccc(F)cc7F)cc6)c(C(N)=O)c5N)C4)c3)ccc2CC1C(=O)NC1CCCc2ccccc21)C(C)(C)C

> <Shape>
0.309

> <Color>
0.222

> <Negative vol penalty>
0.000

$$$$

  -OEChem-04042323013D

 86 94  0     1  0  0  0  0  0999 V2000
  -28.6883  -24.9099   17.1919 C   0  0  0  0  0  0  0  0  0  0  0  0
  -27.4969  -25.0358   17.8991 C   0  0  0  0  0  0  0  0  0  0  0  0
  -30.7215  -17.9264   20.8268 C   0  0  0  0  0  0  0  0  0  0  0  0
  -28.4559  -17.4291   20.1509 C   0  0  0  0  0  0  0  0  0  0  0  0
  -29.8383  -25.5548   17.6452 C   0  0  0  0  0  0  0  0  0  0  0  0
  -27.4551  -25.8059   19.0608 C   0  0  0  0  0  0  0  0  0  0  0  0
  -23.3897  -28.8196   19.2484 C   0  0  0  0  0  0  0  0  0  0  0  0
  -31.1645  -16.7630   20.1977 C   0  0  0  0  0  0  0  0  0  0  0  0
  -28.8989  -16.2657   19.5217 C   0  0  0  0  0  0  0  0  0  0  0  0
  -22.1767  -28.2311   19.6035 C   0  0  0  0  0  0  0  0  0  0  0  0
  -29.3806  -12.9794   18.0458 C   0  0  0  0  0  0  0  0  0  0  0  0
  -28.6438  -11.8124   18.2476 C   0  0  0  0  0  0  0  0  0  0  0  0
  -19.6702  -21.5641   25.2945 C   0  0  0  0  0  0  0  0  0  0  0  0
  -22.4384  -29.0632   21.8526 C   0  0  0  0  0  0  0  0  0  0  0  0
  -21.7547  -21.3002   26.4870 C   0  0  0  0  0  0  0  0  0  0  0  0
  -29.0552  -11.9635   20.6235 C   0  0  0  0  0  0  0  0  0  0  0  0
  -29.3671  -18.2594   20.8035 C   0  0  0  0  0  0  0  0  0  0  0  0
  -20.3753  -21.8166   24.1178 C   0  0  0  0  0  0  0  0  0  0  0  0
  -28.7960  -20.7443   20.8865 C   0  0  0  0  0  0  0  0  0  0  0  0
  -29.8082  -26.3411   18.8077 C   0  0  0  0  0  0  0  0  0  0  0  0
  -24.1427  -29.5262   20.1972 C   0  0  0  0  0  0  0  0  0  0  0  0
  -28.6061  -26.4609   19.5309 C   0  0  0  0  0  0  0  0  0  0  0  0
  -23.6594  -29.6619   21.5064 C   0  0  0  0  0  0  0  0  0  0  0  0
  -22.4599  -21.5527   25.3103 C   0  0  0  0  0  0  0  0  0  0  0  0
  -30.2533  -15.9326   19.5451 C   0  0  0  0  0  0  0  0  0  0  0  0
  -21.7023  -28.3504   20.9065 C   0  0  0  0  0  0  0  0  0  0  0  0
  -29.9548  -13.6385   19.1328 C   0  0  0  0  0  0  0  0  0  0  0  0
  -28.4811  -11.3044   19.5364 C   0  0  0  0  0  0  0  0  0  0  0  0
  -20.3599  -21.3059   26.4791 C   0  0  0  0  0  0  0  0  0  0  0  0
  -29.7921  -13.1305   20.4217 C   0  0  0  0  0  0  0  0  0  0  0  0
  -21.7701  -21.8109   24.1256 C   0  0  0  0  0  0  0  0  0  0  0  0
  -28.9087  -19.4607   21.4537 C   0  0  0  0  0  0  0  0  0  0  0  0
  -28.3182  -21.5298   21.9069 C   0  0  0  0  0  0  0  0  0  0  0  0
  -19.6419  -22.0890   22.8654 C   0  0  0  0  0  0  0  0  0  0  0  0
  -29.0962  -21.1869   19.5562 C   0  0  0  0  0  0  0  0  0  0  0  0
  -27.0359  -29.1869   21.4691 C   0  0  0  0  0  0  0  0  0  0  0  0
  -26.3386  -32.0399   22.8462 C   0  0  0  0  0  0  0  0  0  0  0  0
  -23.9544  -34.2442   23.8967 C   0  0  0  0  0  0  0  0  0  0  0  0
  -24.7117  -21.3084   26.4129 C   0  0  0  0  0  0  0  0  0  0  0  0
  -31.0880  -26.9808   19.2848 C   0  0  0  0  0  0  0  0  0  0  0  0
  -25.4362  -30.1779   19.7914 C   0  0  0  0  0  0  0  0  0  0  0  0
  -24.4199  -30.4273   22.5572 C   0  0  0  0  0  0  0  0  0  0  0  0
  -30.8698  -28.0827   20.3185 C   0  0  0  0  0  0  0  0  0  0  0  0
  -28.2436  -21.1681   26.8412 C   0  0  0  0  0  0  0  0  0  0  0  0
  -29.8868  -27.6222   21.3902 C   0  0  0  0  0  0  0  0  0  0  0  0
  -28.7658  -20.8391   25.4408 C   0  0  0  0  0  0  0  0  0  0  0  0
  -26.9281  -20.4507   27.1389 C   0  0  0  0  0  0  0  0  0  0  0  0
  -26.3945  -20.3203   24.7374 C   0  0  0  0  0  0  0  0  0  0  0  0
  -28.5148  -27.3077   20.7818 C   0  0  1  0  0  0  0  0  0  0  0  0
  -26.3698  -30.4377   20.9697 C   0  0  1  0  0  0  0  0  0  0  0  0
  -27.6843  -21.0706   24.3672 C   0  0  2  0  0  0  0  0  0  0  0  0
  -23.6898  -36.4733   25.0184 C   0  0  0  0  0  0  0  0  0  0  0  0
  -27.0054  -30.7628   25.5359 C   0  0  0  0  0  0  0  0  0  0  0  0
  -25.8368  -32.6738   26.6542 C   0  0  0  0  0  0  0  0  0  0  0  0
  -27.8548  -33.0977   25.2505 C   0  0  0  0  0  0  0  0  0  0  0  0
  -22.5776  -35.3951   21.5432 C   0  0  0  0  0  0  0  0  0  0  0  0
  -18.8652  -24.4225   20.7496 C   0  0  0  0  0  0  0  0  0  0  0  0
  -19.2774  -25.7145   21.4547 C   0  0  0  0  0  0  0  0  0  0  0  0
  -18.0360  -23.5134   21.6453 C   0  0  0  0  0  0  0  0  0  0  0  0
  -20.1400  -26.5918   20.5563 C   0  0  0  0  0  0  0  0  0  1  0  0
  -25.6755  -32.4730   24.1314 C   0  0  1  0  0  0  0  0  0  0  0  0
  -23.8055  -35.7408   23.6907 C   0  0  2  0  0  0  0  0  0  0  0  0
  -26.5795  -32.2357   25.3739 C   0  0  0  0  0  0  0  0  0  0  0  0
  -28.5330  -19.4284   22.7350 N   0  0  0  0  0  0  0  0  0  0  0  0
  -28.1796  -20.7014   22.9815 N   0  0  0  0  0  0  0  0  0  0  0  0
  -25.6823  -31.0410   22.1132 N   0  0  0  0  0  0  0  0  0  0  0  0
  -25.9505  -20.7194   26.0821 N   0  0  0  0  0  0  0  0  0  0  0  0
  -28.0075  -22.8414   21.9809 N   0  0  0  0  0  0  0  0  0  0  0  0
  -19.8378  -21.2700   21.8320 N   0  0  0  0  0  0  0  0  0  0  0  0
  -29.5783  -20.2491   18.6329 N   0  0  0  0  0  0  0  0  0  0  0  0
  -23.8768  -21.5465   25.3217 N   0  0  0  0  0  0  0  0  0  0  0  0
  -27.7884  -28.5304   20.5140 N   0  0  0  0  0  0  0  0  0  0  0  0
  -25.2790  -33.8636   23.9377 N   0  0  0  0  0  0  0  0  0  0  0  0
  -18.8183  -23.1443   22.8255 N   0  3  0  0  0  0  0  0  0  0  0  0
  -22.5869  -36.0340   22.8844 N   0  3  0  0  0  0  0  0  0  0  0  0
  -28.9571  -22.3820   19.2016 O   0  0  0  0  0  0  0  0  0  0  0  0
  -26.8801  -28.8436   22.6351 O   0  0  0  0  0  0  0  0  0  0  0  0
  -27.3961  -32.5734   22.5018 O   0  0  0  0  0  0  0  0  0  0  0  0
  -22.9919  -33.4888   24.0135 O   0  0  0  0  0  0  0  0  0  0  0  0
  -24.4246  -21.6064   27.5751 O   0  0  0  0  0  0  0  0  0  0  0  0
  -30.6853  -14.7975   18.9309 O   0  0  0  0  0  0  0  0  0  0  0  0
  -20.5189  -27.7764   21.2560 O   0  0  0  0  0  0  0  0  0  1  0  0
  -27.7722  -10.1845   19.7302 F   0  0  0  0  0  0  0  0  0  0  0  0
  -19.6828  -21.0633   27.6089 F   0  0  0  0  0  0  0  0  0  0  0  0
  -30.3403  -13.7599   21.4700 F   0  0  0  0  0  0  0  0  0  0  0  0
  -22.4470  -22.0543   22.9932 F   0  0  0  0  0  0  0  0  0  0  0  0
  1  2  1  0  0  0  0
  1  5  2  0  0  0  0
  2  6  2  0  0  0  0
  3  8  2  0  0  0  0
  3 17  1  0  0  0  0
  4  9  1  0  0  0  0
  4 17  2  0  0  0  0
  5 20  1  0  0  0  0
  6 22  1  0  0  0  0
  7 10  2  0  0  0  0
  7 21  1  0  0  0  0
  8 25  1  0  0  0  0
  9 25  2  0  0  0  0
 10 26  1  0  0  0  0
 11 12  2  0  0  0  0
 11 27  1  0  0  0  0
 12 28  1  0  0  0  0
 13 18  1  0  0  0  0
 13 29  2  0  0  0  0
 14 23  1  0  0  0  0
 14 26  2  0  0  0  0
 15 24  2  0  0  0  0
 15 29  1  0  0  0  0
 16 28  2  0  0  0  0
 16 30  1  0  0  0  0
 17 32  1  0  0  0  0
 18 31  2  0  0  0  0
 18 34  1  0  0  0  0
 19 32  1  0  0  0  0
 19 33  2  0  0  0  0
 19 35  1  0  0  0  0
 20 22  2  0  0  0  0
 20 40  1  0  0  0  0
 21 23  2  0  0  0  0
 21 41  1  0  0  0  0
 22 49  1  0  0  0  0
 23 42  1  0  0  0  0
 24 31  1  0  0  0  0
 24 71  1  0  0  0  0
 25 81  1  0  0  0  0
 26 82  1  0  0  0  0
 27 30  2  0  0  0  0
 27 81  1  0  0  0  0
 28 83  1  0  0  0  0
 29 84  1  0  0  0  0
 30 85  1  0  0  0  0
 31 86  1  0  0  0  0
 32 64  2  0  0  0  0
 33 65  1  0  0  0  0
 33 68  1  0  0  0  0
 34 69  1  0  0  0  0
 34 74  2  0  0  0  0
 35 70  1  0  0  0  0
 35 76  2  0  0  0  0
 36 50  1  0  0  0  0
 36 72  1  0  0  0  0
 36 77  2  0  0  0  0
 37 61  1  0  0  0  0
 37 66  1  0  0  0  0
 37 78  2  0  0  0  0
 38 62  1  0  0  0  0
 38 73  1  0  0  0  0
 38 79  2  0  0  0  0
 39 67  1  0  0  0  0
 39 71  1  0  0  0  0
 39 80  2  0  0  0  0
 40 43  1  0  0  0  0
 41 50  1  0  0  0  0
 42 66  1  0  0  0  0
 43 45  1  0  0  0  0
 44 46  1  0  0  0  0
 44 47  1  0  0  0  0
 45 49  1  0  0  0  0
 46 51  1  0  0  0  0
 47 67  1  0  0  0  0
 48 51  1  0  0  0  0
 48 67  1  0  0  0  0
 49 72  1  0  0  0  0
 50 66  1  0  0  0  0
 51 65  1  0  0  0  0
 52 62  1  0  0  0  0
 53 63  1  0  0  0  0
 54 63  1  0  0  0  0
 55 63  1  0  0  0  0
 56 75  1  0  0  0  0
 57 58  1  0  0  0  0
 57 59  1  0  0  0  0
 58 60  1  0  0  0  0
 59 74  1  0  0  0  0
 60 82  1  0  0  0  0
 61 63  1  0  0  0  0
 61 73  1  0  0  0  0
 62 75  1  0  0  0  0
 64 65  1  0  0  0  0
M  CHG  2  74   1  75   1
M  ISO  4  39 100  60 101  71 100  82 101
M  END
> <Batch ID>
0059

> <Smiles>
CNC(C)C(=O)NC(C(=O)N1Cc2cc([101O:1][101CH2:1]CCCNC(=N)c3cc(F)cc([100NH:0][100C:0](=O)N4CCCC(n5nc(-c6ccc(Oc7ccc(F)cc7F)cc6)c(C(N)=O)c5N)C4)c3F)ccc2CC1C(=O)NC1CCCc2ccccc21)C(C)(C)C

> <Shape>
0.300

> <Color>
0.074

> <Negative vol penalty>
0.000

$$$$

  -OEChem-04042323013D

 87 96  0     1  0  0  0  0  0999 V2000
  -16.1743  -29.3977   23.6819 C   0  0  0  0  0  0  0  0  0  0  0  0
  -16.9530  -28.6373   22.8154 C   0  0  0  0  0  0  0  0  0  0  0  0
  -26.4725  -13.5141   20.8549 C   0  0  0  0  0  0  0  0  0  0  0  0
  -27.2001  -13.5516   23.1585 C   0  0  0  0  0  0  0  0  0  0  0  0
  -16.7550  -30.4344   24.4113 C   0  0  0  0  0  0  0  0  0  0  0  0
  -18.3127  -28.9139   22.6770 C   0  0  0  0  0  0  0  0  0  0  0  0
  -22.8111  -24.8738   21.7035 C   0  0  0  0  0  0  0  0  0  0  0  0
  -25.2331  -13.0143   21.2545 C   0  0  0  0  0  0  0  0  0  0  0  0
  -25.9607  -13.0518   23.5581 C   0  0  0  0  0  0  0  0  0  0  0  0
  -23.4791  -24.4744   20.5468 C   0  0  0  0  0  0  0  0  0  0  0  0
  -22.3787  -14.2215   22.6064 C   0  0  0  0  0  0  0  0  0  0  0  0
  -21.2374  -14.7923   22.0432 C   0  0  0  0  0  0  0  0  0  0  0  0
  -32.3172  -23.9081   21.4989 C   0  0  0  0  0  0  0  0  0  0  0  0
  -25.2430  -26.0475   21.0295 C   0  0  0  0  0  0  0  0  0  0  0  0
  -30.3156  -23.2888   20.2959 C   0  0  0  0  0  0  0  0  0  0  0  0
  -20.6079  -12.6419   21.1394 C   0  0  0  0  0  0  0  0  0  0  0  0
  -27.4560  -13.7828   21.8069 C   0  0  0  0  0  0  0  0  0  0  0  0
  -32.1862  -25.2194   21.0418 C   0  0  0  0  0  0  0  0  0  0  0  0
  -29.6597  -13.6870   20.5253 C   0  0  0  0  0  0  0  0  0  0  0  0
  -18.1244  -30.7177   24.2889 C   0  0  0  0  0  0  0  0  0  0  0  0
  -23.3496  -25.8724   22.5276 C   0  0  0  0  0  0  0  0  0  0  0  0
  -18.9119  -29.9563   23.4043 C   0  0  0  0  0  0  0  0  0  0  0  0
  -24.5811  -26.4560   22.1975 C   0  0  0  0  0  0  0  0  0  0  0  0
  -31.1199  -25.5654   20.2118 C   0  0  0  0  0  0  0  0  0  0  0  0
  -30.1846  -24.6001   19.8388 C   0  0  0  0  0  0  0  0  0  0  0  0
  -31.3819  -22.9427   21.1259 C   0  0  0  0  0  0  0  0  0  0  0  0
  -24.9772  -12.7831   22.6061 C   0  0  0  0  0  0  0  0  0  0  0  0
  -24.6938  -25.0633   20.2081 C   0  0  0  0  0  0  0  0  0  0  0  0
  -22.6347  -12.8609   22.4360 C   0  0  0  0  0  0  0  0  0  0  0  0
  -20.3520  -14.0025   21.3097 C   0  0  0  0  0  0  0  0  0  0  0  0
  -21.7493  -12.0711   21.7025 C   0  0  0  0  0  0  0  0  0  0  0  0
  -28.7367  -14.2986   21.3947 C   0  0  0  0  0  0  0  0  0  0  0  0
  -30.7071  -14.5729   20.4581 C   0  0  0  0  0  0  0  0  0  0  0  0
  -29.2871  -25.4397   17.6830 C   0  0  0  0  0  0  0  0  0  0  0  0
  -33.4423  -26.5000   22.7143 C   0  0  0  0  0  0  0  0  0  0  0  0
  -33.1816  -26.2024   21.4505 C   0  0  0  0  0  0  0  0  0  0  0  0
  -29.5775  -12.4304   19.8397 C   0  0  0  0  0  0  0  0  0  0  0  0
  -22.4085  -28.7628   23.4570 C   0  0  0  0  0  0  0  0  0  0  0  0
  -25.0461  -28.5901   25.3372 C   0  0  0  0  0  0  0  0  0  0  0  0
  -28.1301  -27.2351   25.8848 C   0  0  0  0  0  0  0  0  0  0  0  0
  -30.6777  -20.5238   21.3192 C   0  0  0  0  0  0  0  0  0  0  0  0
  -18.6975  -31.8787   25.0624 C   0  0  0  0  0  0  0  0  0  0  0  0
  -22.6298  -26.2731   23.7861 C   0  0  0  0  0  0  0  0  0  0  0  0
  -25.2118  -27.5180   23.0594 C   0  0  0  0  0  0  0  0  0  0  0  0
  -28.0847  -26.0509   16.9863 C   0  0  0  0  0  0  0  0  0  0  0  0
  -20.2220  -31.8659   25.1398 C   0  0  0  0  0  0  0  0  0  0  0  0
  -26.7754  -25.3625   17.2933 C   0  0  0  0  0  0  0  0  0  0  0  0
  -32.2961  -17.8945   23.5976 C   0  0  0  0  0  0  0  0  0  0  0  0
  -20.8239  -31.5869   23.7662 C   0  0  0  0  0  0  0  0  0  0  0  0
  -32.1633  -16.6658   22.7009 C   0  0  0  0  0  0  0  0  0  0  0  0
  -32.2680  -19.1945   22.8038 C   0  0  0  0  0  0  0  0  0  0  0  0
  -30.2811  -18.1055   21.7445 C   0  0  0  0  0  0  0  0  0  0  0  0
  -27.7259  -24.5391   19.4284 C   0  0  0  0  0  0  0  0  0  0  0  0
  -20.3954  -30.2097   23.2455 C   0  0  1  0  0  0  0  0  0  0  0  0
  -23.0182  -27.6633   24.2798 C   0  0  1  0  0  0  0  0  0  0  0  0
  -31.1739  -16.8722   21.5369 C   0  0  2  0  0  0  0  0  0  0  0  0
  -26.5842  -25.3195   18.7937 C   0  0  2  0  0  0  0  0  0  1  0  0
  -30.9703  -26.9729   19.7197 C   0  0  0  0  0  0  0  0  0  0  0  0
  -30.0619  -27.3168   27.4845 C   0  0  0  0  0  0  0  0  0  0  0  0
  -25.9186  -31.2591   24.1434 C   0  0  0  0  0  0  0  0  0  0  0  0
  -28.2202  -30.8225   25.0267 C   0  0  0  0  0  0  0  0  0  0  0  0
  -26.3013  -31.0426   26.6054 C   0  0  0  0  0  0  0  0  0  0  0  0
  -27.8357  -24.3706   26.5680 C   0  0  0  0  0  0  0  0  0  0  0  0
  -26.4995  -28.9657   25.1773 C   0  0  1  0  0  0  0  0  0  0  0  0
  -28.7562  -26.6246   27.1256 C   0  0  2  0  0  0  0  0  0  0  0  0
  -26.7223  -30.5039   25.2207 C   0  0  0  0  0  0  0  0  0  0  0  0
  -29.1606  -15.4815   21.8475 N   0  0  0  0  0  0  0  0  0  0  0  0
  -30.3615  -15.6203   21.2603 N   0  0  0  0  0  0  0  0  0  0  0  0
  -29.0704  -24.9359   18.9780 N   0  0  0  0  0  0  0  0  0  0  0  0
  -24.4664  -27.8802   24.2762 N   0  0  0  0  0  0  0  0  0  0  0  0
  -31.0860  -19.3171   21.9384 N   0  0  0  0  0  0  0  0  0  0  0  0
  -31.8809  -14.5503   19.7916 N   0  0  0  0  0  0  0  0  0  0  0  0
  -30.0731  -11.2864   20.4799 N   0  0  0  0  0  0  0  0  0  0  0  0
  -31.5139  -21.6101   21.5902 N   0  0  0  0  0  0  0  0  0  0  0  0
  -21.1599  -29.1647   23.8918 N   0  0  0  0  0  0  0  0  0  0  0  0
  -27.2272  -28.2273   26.2037 N   0  0  0  0  0  0  0  0  0  0  0  0
  -29.0364  -25.1775   26.9059 N   0  3  0  0  0  0  0  0  0  0  0  0
  -30.3746  -25.4761   17.1007 O   0  0  0  0  0  0  0  0  0  0  0  0
  -29.0943  -12.3280   18.6867 O   0  0  0  0  0  0  0  0  0  0  0  0
  -23.0257  -29.2142   22.4994 O   0  0  0  0  0  0  0  0  0  0  0  0
  -24.4492  -28.9084   26.3688 O   0  0  0  0  0  0  0  0  0  0  0  0
  -28.4162  -26.8710   24.7463 O   0  0  0  0  0  0  0  0  0  0  0  0
  -29.6773  -20.5770   20.6007 O   0  0  0  0  0  0  0  0  0  0  0  0
  -23.7679  -12.2956   22.9964 O   0  0  0  0  0  0  0  0  0  0  0  0
  -25.3476  -24.6759   19.0792 O   0  0  0  0  0  0  0  0  0  1  0  0
  -19.2552  -14.5504   20.7703 F   0  0  0  0  0  0  0  0  0  0  0  0
  -21.9894  -10.7632   21.5364 F   0  0  0  0  0  0  0  0  0  0  0  0
  1  2  1  0  0  0  0
  1  5  2  0  0  0  0
  2  6  2  0  0  0  0
  3  8  2  0  0  0  0
  3 17  1  0  0  0  0
  4  9  1  0  0  0  0
  4 17  2  0  0  0  0
  5 20  1  0  0  0  0
  6 22  1  0  0  0  0
  7 10  2  0  0  0  0
  7 21  1  0  0  0  0
  8 27  1  0  0  0  0
  9 27  2  0  0  0  0
 10 28  1  0  0  0  0
 11 12  2  0  0  0  0
 11 29  1  0  0  0  0
 12 30  1  0  0  0  0
 13 18  1  0  0  0  0
 13 26  2  0  0  0  0
 14 23  1  0  0  0  0
 14 28  2  0  0  0  0
 15 25  2  0  0  0  0
 15 26  1  0  0  0  0
 16 30  2  0  0  0  0
 16 31  1  0  0  0  0
 17 32  1  0  0  0  0
 18 24  2  0  0  0  0
 18 36  1  0  0  0  0
 19 32  1  0  0  0  0
 19 33  2  0  0  0  0
 19 37  1  0  0  0  0
 20 22  2  0  0  0  0
 20 42  1  0  0  0  0
 21 23  2  0  0  0  0
 21 43  1  0  0  0  0
 22 54  1  0  0  0  0
 23 44  1  0  0  0  0
 24 25  1  0  0  0  0
 24 58  1  0  0  0  0
 25 69  1  0  0  0  0
 26 74  1  0  0  0  0
 27 84  1  0  0  0  0
 28 85  1  0  0  0  0
 29 31  2  0  0  0  0
 29 84  1  0  0  0  0
 30 86  1  0  0  0  0
 31 87  1  0  0  0  0
 32 67  2  0  0  0  0
 33 68  1  0  0  0  0
 33 72  1  0  0  0  0
 34 45  1  0  0  0  0
 34 69  1  0  0  0  0
 34 78  2  0  0  0  0
 35 36  2  0  0  0  0
 37 73  1  0  0  0  0
 37 79  2  0  0  0  0
 38 55  1  0  0  0  0
 38 75  1  0  0  0  0
 38 80  2  0  0  0  0
 39 64  1  0  0  0  0
 39 70  1  0  0  0  0
 39 81  2  0  0  0  0
 40 65  1  0  0  0  0
 40 76  1  0  0  0  0
 40 82  2  0  0  0  0
 41 71  1  0  0  0  0
 41 74  1  0  0  0  0
 41 83  2  0  0  0  0
 42 46  1  0  0  0  0
 43 55  1  0  0  0  0
 44 70  1  0  0  0  0
 45 47  1  0  0  0  0
 46 49  1  0  0  0  0
 47 57  1  0  0  0  0
 48 50  1  0  0  0  0
 48 51  1  0  0  0  0
 49 54  1  0  0  0  0
 50 56  1  0  0  0  0
 51 71  1  0  0  0  0
 52 56  1  0  0  0  0
 52 71  1  0  0  0  0
 53 57  1  0  0  0  0
 53 69  1  0  0  0  0
 54 75  1  0  0  0  0
 55 70  1  0  0  0  0
 56 68  1  0  0  0  0
 57 85  1  0  0  0  0
 59 65  1  0  0  0  0
 60 66  1  0  0  0  0
 61 66  1  0  0  0  0
 62 66  1  0  0  0  0
 63 77  1  0  0  0  0
 64 66  1  0  0  0  0
 64 76  1  0  0  0  0
 65 77  1  0  0  0  0
 67 68  1  0  0  0  0
M  CHG  1  77   1
M  ISO  4  41 100  57 101  74 100  85 101
M  END
> <Batch ID>
0059

> <Smiles>
C=Cc1cc([100NH:0][100C:0](=O)N2CCCC(n3nc(-c4ccc(Oc5ccc(F)cc5F)cc4)c(C(N)=O)c3N)C2)cc(N2C[101CH:1]([101O:1]c3ccc4c(c3)CN(C(=O)C(NC(=O)C(C)NC)C(C)(C)C)C(C(=O)NC3CCCc5ccccc53)C4)CCC2=O)c1C

> <Shape>
0.249

> <Color>
0.067

> <Negative vol penalty>
0.000

$$$$

  -OEChem-04042323013D

 86 94  0     1  0  0  0  0  0999 V2000
  -16.7446  -28.4142   23.9608 C   0  0  0  0  0  0  0  0  0  0  0  0
  -17.7654  -27.4694   23.9849 C   0  0  0  0  0  0  0  0  0  0  0  0
  -22.0711  -15.9059   25.2592 C   0  0  0  0  0  0  0  0  0  0  0  0
  -21.0079  -17.5836   23.8837 C   0  0  0  0  0  0  0  0  0  0  0  0
  -16.8945  -29.5819   23.2139 C   0  0  0  0  0  0  0  0  0  0  0  0
  -18.9364  -27.6912   23.2612 C   0  0  0  0  0  0  0  0  0  0  0  0
  -25.9781  -26.3975   23.5020 C   0  0  0  0  0  0  0  0  0  0  0  0
  -27.1001  -19.7582   15.1058 C   0  0  0  0  0  0  0  0  0  0  0  0
  -27.0168  -19.2661   16.4082 C   0  0  0  0  0  0  0  0  0  0  0  0
  -21.0071  -15.9693   26.1590 C   0  0  0  0  0  0  0  0  0  0  0  0
  -19.9439  -17.6470   24.7834 C   0  0  0  0  0  0  0  0  0  0  0  0
  -27.0019  -25.8609   22.7225 C   0  0  0  0  0  0  0  0  0  0  0  0
  -17.8475  -14.7836   26.3679 C   0  0  0  0  0  0  0  0  0  0  0  0
  -17.3221  -13.5794   26.8365 C   0  0  0  0  0  0  0  0  0  0  0  0
  -27.1822  -27.9509   21.5314 C   0  0  0  0  0  0  0  0  0  0  0  0
  -28.5062  -21.0122   17.1633 C   0  0  0  0  0  0  0  0  0  0  0  0
  -17.8708  -14.2210   29.1002 C   0  0  0  0  0  0  0  0  0  0  0  0
  -22.0715  -16.7131   24.1216 C   0  0  0  0  0  0  0  0  0  0  0  0
  -23.2877  -15.8043   22.0716 C   0  0  0  0  0  0  0  0  0  0  0  0
  -18.0719  -29.8226   22.4883 C   0  0  0  0  0  0  0  0  0  0  0  0
  -25.5405  -27.7135   23.2944 C   0  0  0  0  0  0  0  0  0  0  0  0
  -19.1018  -28.8626   22.5027 C   0  0  0  0  0  0  0  0  0  0  0  0
  -26.1544  -28.5027   22.3113 C   0  0  0  0  0  0  0  0  0  0  0  0
  -27.8865  -20.8773   14.8320 C   0  0  0  0  0  0  0  0  0  0  0  0
  -27.7198  -19.8931   17.4370 C   0  0  0  0  0  0  0  0  0  0  0  0
  -19.9435  -16.8399   25.9211 C   0  0  0  0  0  0  0  0  0  0  0  0
  -27.6021  -26.6366   21.7350 C   0  0  0  0  0  0  0  0  0  0  0  0
  -18.3845  -15.7065   27.2654 C   0  0  0  0  0  0  0  0  0  0  0  0
  -17.3337  -13.2981   28.2026 C   0  0  0  0  0  0  0  0  0  0  0  0
  -18.3961  -15.4252   28.6316 C   0  0  0  0  0  0  0  0  0  0  0  0
  -28.5895  -21.5043   15.8608 C   0  0  0  0  0  0  0  0  0  0  0  0
  -23.1706  -16.6484   23.1921 C   0  0  0  0  0  0  0  0  0  0  0  0
  -24.5050  -16.1278   21.5238 C   0  0  0  0  0  0  0  0  0  0  0  0
  -29.1646  -24.9353   18.9949 C   0  0  0  0  0  0  0  0  0  0  0  0
  -28.2597  -25.4797   19.8115 C   0  0  0  0  0  0  0  0  0  1  0  0
  -22.3776  -14.8162   21.5707 C   0  0  0  0  0  0  0  0  0  0  0  0
  -28.7245  -24.2572   17.7468 C   0  0  0  0  0  0  0  0  0  0  0  0
  -22.7911  -29.0528   22.4279 C   0  0  0  0  0  0  0  0  0  0  0  0
  -24.3820  -31.8076   23.0623 C   0  0  0  0  0  0  0  0  0  0  0  0
  -27.3731  -33.4248   23.3531 C   0  0  0  0  0  0  0  0  0  0  0  0
  -28.2671  -19.8961   19.8960 C   0  0  0  0  0  0  0  0  0  0  0  0
  -18.1689  -31.0777   21.6577 C   0  0  0  0  0  0  0  0  0  0  0  0
  -24.4532  -28.2863   24.1617 C   0  0  0  0  0  0  0  0  0  0  0  0
  -25.7351  -29.9277   22.0623 C   0  0  0  0  0  0  0  0  0  0  0  0
  -19.5930  -31.4094   21.2193 C   0  0  0  0  0  0  0  0  0  0  0  0
  -28.2807  -18.9717   23.3344 C   0  0  0  0  0  0  0  0  0  0  0  0
  -20.2873  -30.1653   20.6742 C   0  0  0  0  0  0  0  0  0  0  0  0
  -26.9621  -18.2154   23.5117 C   0  0  0  0  0  0  0  0  0  0  0  0
  -28.1364  -20.1436   22.3652 C   0  0  0  0  0  0  0  0  0  0  0  0
  -26.2429  -19.0449   21.2354 C   0  0  0  0  0  0  0  0  0  0  0  0
  -20.3971  -29.0786   21.7506 C   0  0  1  0  0  0  0  0  0  0  0  0
  -23.7370  -29.4698   23.5184 C   0  0  1  0  0  0  0  0  0  0  0  0
  -26.3543  -17.8162   22.1528 C   0  0  2  0  0  0  0  0  0  0  0  0
  -27.9536  -21.3792   13.4267 C   0  0  0  0  0  0  0  0  0  0  0  0
  -28.3523  -35.6823   23.8453 C   0  0  0  0  0  0  0  0  0  0  0  0
  -23.6185  -32.7468   20.2614 C   0  0  0  0  0  0  0  0  0  0  0  0
  -25.3714  -34.5238   20.4550 C   0  0  0  0  0  0  0  0  0  0  0  0
  -23.4408  -34.5014   22.0346 C   0  0  0  0  0  0  0  0  0  0  0  0
  -28.8086  -32.4114   25.7346 C   0  0  0  0  0  0  0  0  0  0  0  0
  -25.2495  -32.7496   22.2629 C   0  0  1  0  0  0  0  0  0  0  0  0
  -27.9197  -34.3462   24.4287 C   0  0  2  0  0  0  0  0  0  0  0  0
  -24.4268  -33.6029   21.2566 C   0  0  0  0  0  0  0  0  0  0  0  0
  -24.2290  -17.4479   23.3483 N   0  0  0  0  0  0  0  0  0  0  0  0
  -30.9952  -22.3733   15.2183 N   0  0  0  0  0  0  0  0  0  0  0  0
  -25.0230  -17.1076   22.3187 N   0  0  0  0  0  0  0  0  0  0  0  0
  -24.6635  -30.4403   22.9319 N   0  0  0  0  0  0  0  0  0  0  0  0
  -27.5585  -19.6893   21.0985 N   0  0  0  0  0  0  0  0  0  0  0  0
  -25.1722  -15.6668   20.4446 N   0  0  0  0  0  0  0  0  0  0  0  0
  -21.1713  -14.6112   22.2543 N   0  0  0  0  0  0  0  0  0  0  0  0
  -27.6340  -19.3929   18.7600 N   0  0  0  0  0  0  0  0  0  0  0  0
  -29.8007  -23.7581   17.0344 N   0  0  0  0  0  0  0  0  0  0  0  0
  -21.4718  -29.3848   22.6702 N   0  0  0  0  0  0  0  0  0  0  0  0
  -26.0037  -33.5339   23.2347 N   0  0  0  0  0  0  0  0  0  0  0  0
  -29.0966  -33.7218   25.0966 N   0  3  0  0  0  0  0  0  0  0  0  0
  -22.6339  -14.1237   20.5566 O   0  0  0  0  0  0  0  0  0  0  0  0
  -27.5434  -24.1701   17.4280 O   0  0  0  0  0  0  0  0  0  0  0  0
  -23.2262  -28.4741   21.4393 O   0  0  0  0  0  0  0  0  0  0  0  0
  -23.4921  -32.2685   23.7817 O   0  0  0  0  0  0  0  0  0  0  0  0
  -28.0898  -32.6852   22.6824 O   0  0  0  0  0  0  0  0  0  0  0  0
  -29.3680  -20.4526   19.8790 O   0  0  0  0  0  0  0  0  0  0  0  0
  -28.8115  -23.8327   14.7309 O   0  0  0  0  0  0  0  0  0  0  0  0
  -18.9050  -16.9018   26.7987 O   0  0  0  0  0  0  0  0  0  0  0  0
  -28.6012  -26.1151   20.9723 O   0  0  0  0  0  0  0  0  0  1  0  0
  -16.8278  -12.1424   28.6526 F   0  0  0  0  0  0  0  0  0  0  0  0
  -18.9097  -16.3084   29.4988 F   0  0  0  0  0  0  0  0  0  0  0  0
  -29.5938  -22.9246   15.5495 S   0  0  2  0  0  0  0  0  0  0  0  0
  1  2  1  0  0  0  0
  1  5  2  0  0  0  0
  2  6  2  0  0  0  0
  3 10  2  0  0  0  0
  3 18  1  0  0  0  0
  4 11  1  0  0  0  0
  4 18  2  0  0  0  0
  5 20  1  0  0  0  0
  6 22  1  0  0  0  0
  7 12  2  0  0  0  0
  7 21  1  0  0  0  0
  8  9  2  0  0  0  0
  8 24  1  0  0  0  0
  9 25  1  0  0  0  0
 10 26  1  0  0  0  0
 11 26  2  0  0  0  0
 12 27  1  0  0  0  0
 13 14  2  0  0  0  0
 13 28  1  0  0  0  0
 14 29  1  0  0  0  0
 15 23  1  0  0  0  0
 15 27  2  0  0  0  0
 16 25  2  0  0  0  0
 16 31  1  0  0  0  0
 17 29  2  0  0  0  0
 17 30  1  0  0  0  0
 18 32  1  0  0  0  0
 19 32  1  0  0  0  0
 19 33  2  0  0  0  0
 19 36  1  0  0  0  0
 20 22  2  0  0  0  0
 20 42  1  0  0  0  0
 21 23  2  0  0  0  0
 21 43  1  0  0  0  0
 22 51  1  0  0  0  0
 23 44  1  0  0  0  0
 24 31  2  0  0  0  0
 24 54  1  0  0  0  0
 25 70  1  0  0  0  0
 26 82  1  0  0  0  0
 27 83  1  0  0  0  0
 28 30  2  0  0  0  0
 28 82  1  0  0  0  0
 29 84  1  0  0  0  0
 30 85  1  0  0  0  0
 31 86  1  0  0  0  0
 32 63  2  0  0  0  0
 33 65  1  0  0  0  0
 33 68  1  0  0  0  0
 34 35  2  0  0  0  0
 34 37  1  0  0  0  0
 35 83  1  0  0  0  0
 36 69  1  0  0  0  0
 36 75  2  0  0  0  0
 37 71  1  0  0  0  0
 37 76  2  0  0  0  0
 38 52  1  0  0  0  0
 38 72  1  0  0  0  0
 38 77  2  0  0  0  0
 39 60  1  0  0  0  0
 39 66  1  0  0  0  0
 39 78  2  0  0  0  0
 40 61  1  0  0  0  0
 40 73  1  0  0  0  0
 40 79  2  0  0  0  0
 41 67  1  0  0  0  0
 41 70  1  0  0  0  0
 41 80  2  0  0  0  0
 42 45  1  0  0  0  0
 43 52  1  0  0  0  0
 44 66  1  0  0  0  0
 45 47  1  0  0  0  0
 46 48  1  0  0  0  0
 46 49  1  0  0  0  0
 47 51  1  0  0  0  0
 48 53  1  0  0  0  0
 49 67  1  0  0  0  0
 50 53  1  0  0  0  0
 50 67  1  0  0  0  0
 51 72  1  0  0  0  0
 52 66  1  0  0  0  0
 53 65  1  0  0  0  0
 55 61  1  0  0  0  0
 56 62  1  0  0  0  0
 57 62  1  0  0  0  0
 58 62  1  0  0  0  0
 59 74  1  0  0  0  0
 60 62  1  0  0  0  0
 60 73  1  0  0  0  0
 61 74  1  0  0  0  0
 63 65  1  0  0  0  0
 64 86  2  0  0  0  0
 71 86  1  0  0  0  0
 81 86  2  0  0  0  0
M  CHG  1  74   1
M  ISO  4  35 101  41 100  70 100  83 101
M  END
> <Batch ID>
0059

> <Smiles>
CNC(C)C(=O)NC(C(=O)N1Cc2cc([101O:1][101CH:1]=CC(=O)NS(=N)(=O)c3cc([100NH:0][100C:0](=O)N4CCCC(n5nc(-c6ccc(Oc7ccc(F)cc7F)cc6)c(C(N)=O)c5N)C4)ccc3C)ccc2CC1C(=O)NC1CCCc2ccccc21)C(C)(C)C

> <Shape>
0.169

> <Color>
0.127

> <Negative vol penalty>
0.000

$$$$

  -OEChem-04042323013D

 84 92  0     1  0  0  0  0  0999 V2000
  -32.7276  -19.1908   14.6421 C   0  0  0  0  0  0  0  0  0  0  0  0
  -31.7665  -19.3102   15.6407 C   0  0  0  0  0  0  0  0  0  0  0  0
  -23.0745   -9.8673   19.9438 C   0  0  0  0  0  0  0  0  0  0  0  0
  -23.8314   -9.8794   22.2381 C   0  0  0  0  0  0  0  0  0  0  0  0
  -34.0451  -19.5703   14.8952 C   0  0  0  0  0  0  0  0  0  0  0  0
  -32.1226  -19.8083   16.8935 C   0  0  0  0  0  0  0  0  0  0  0  0
  -28.6801  -23.2656   20.5952 C   0  0  0  0  0  0  0  0  0  0  0  0
  -32.6477  -17.4974   23.4512 C   0  0  0  0  0  0  0  0  0  0  0  0
  -32.0607  -16.6114   22.5478 C   0  0  0  0  0  0  0  0  0  0  0  0
  -22.3299   -8.7150   20.1955 C   0  0  0  0  0  0  0  0  0  0  0  0
  -23.0867   -8.7272   22.4899 C   0  0  0  0  0  0  0  0  0  0  0  0
  -27.8955  -22.9571   21.7056 C   0  0  0  0  0  0  0  0  0  0  0  0
  -19.3794   -7.9230   21.6448 C   0  0  0  0  0  0  0  0  0  0  0  0
  -18.0731   -7.8760   21.1579 C   0  0  0  0  0  0  0  0  0  0  0  0
  -29.7287  -23.5484   23.1577 C   0  0  0  0  0  0  0  0  0  0  0  0
  -29.8764  -17.4623   23.1324 C   0  0  0  0  0  0  0  0  0  0  0  0
  -18.6339   -5.9296   19.8411 C   0  0  0  0  0  0  0  0  0  0  0  0
  -23.8253  -10.4495   20.9651 C   0  0  0  0  0  0  0  0  0  0  0  0
  -24.1682  -12.9742   20.8394 C   0  0  0  0  0  0  0  0  0  0  0  0
  -34.4156  -20.0823   16.1486 C   0  0  0  0  0  0  0  0  0  0  0  0
  -30.0008  -23.7083   20.7577 C   0  0  0  0  0  0  0  0  0  0  0  0
  -33.4466  -20.1938   17.1641 C   0  0  0  0  0  0  0  0  0  0  0  0
  -30.5272  -23.8644   22.0479 C   0  0  0  0  0  0  0  0  0  0  0  0
  -31.8490  -18.3658   24.1952 C   0  0  0  0  0  0  0  0  0  0  0  0
  -30.6751  -16.5939   22.3884 C   0  0  0  0  0  0  0  0  0  0  0  0
  -30.4634  -18.3483   24.0358 C   0  0  0  0  0  0  0  0  0  0  0  0
  -22.3359   -8.1450   21.4685 C   0  0  0  0  0  0  0  0  0  0  0  0
  -28.4207  -23.0957   22.9870 C   0  0  0  0  0  0  0  0  0  0  0  0
  -20.3130   -6.9732   21.2297 C   0  0  0  0  0  0  0  0  0  0  0  0
  -17.7003   -6.8794   20.2561 C   0  0  0  0  0  0  0  0  0  0  0  0
  -19.9402   -5.9766   20.3279 C   0  0  0  0  0  0  0  0  0  0  0  0
  -24.5952  -11.6394   20.7055 C   0  0  0  0  0  0  0  0  0  0  0  0
  -25.2611  -13.7224   20.4758 C   0  0  0  0  0  0  0  0  0  0  0  0
  -22.8974  -13.4915   21.2554 C   0  0  0  0  0  0  0  0  0  0  0  0
  -32.8566  -22.6100   19.8966 C   0  0  0  0  0  0  0  0  0  0  0  0
  -33.8767  -25.4462   21.0957 C   0  0  0  0  0  0  0  0  0  0  0  0
  -28.2487  -19.3224   24.7350 C   0  0  0  0  0  0  0  0  0  0  0  0
  -33.3119  -28.0737   23.1990 C   0  0  0  0  0  0  0  0  0  0  0  0
  -30.7275  -14.7664   20.6552 C   0  0  0  0  0  0  0  0  0  0  0  0
  -35.8619  -20.4350   16.3901 C   0  0  0  0  0  0  0  0  0  0  0  0
  -30.8253  -24.0625   19.5506 C   0  0  0  0  0  0  0  0  0  0  0  0
  -31.9325  -24.3553   22.2770 C   0  0  0  0  0  0  0  0  0  0  0  0
  -36.0787  -21.3044   17.6260 C   0  0  0  0  0  0  0  0  0  0  0  0
  -29.6153  -12.3473   18.2913 C   0  0  0  0  0  0  0  0  0  0  0  0
  -35.2957  -20.7506   18.8122 C   0  0  0  0  0  0  0  0  0  0  0  0
  -28.1750  -12.0573   18.7196 C   0  0  0  0  0  0  0  0  0  0  0  0
  -30.5289  -12.5786   19.4936 C   0  0  0  0  0  0  0  0  0  0  0  0
  -28.6204  -13.3071   20.8706 C   0  0  0  0  0  0  0  0  0  0  0  0
  -33.7888  -20.7529   18.5280 C   0  0  1  0  0  0  0  0  0  0  0  0
  -32.3266  -24.0137   19.8172 C   0  0  1  0  0  0  0  0  0  0  0  0
  -27.6491  -13.1314   19.6919 C   0  0  2  0  0  0  0  0  0  0  0  0
  -32.5050  -19.3041   25.1555 C   0  0  0  0  0  0  0  0  0  0  0  0
  -34.3427  -30.2205   23.9903 C   0  0  0  0  0  0  0  0  0  0  0  0
  -35.8205  -23.8674   22.8390 C   0  0  0  0  0  0  0  0  0  0  0  0
  -36.1197  -25.9193   24.2421 C   0  0  0  0  0  0  0  0  0  0  0  0
  -36.7746  -25.9499   21.8353 C   0  0  0  0  0  0  0  0  0  0  0  0
  -31.0407  -29.6748   22.1805 C   0  0  0  0  0  0  0  0  0  0  0  0
  -27.7586  -20.3914   25.7019 C   0  0  0  0  0  0  0  0  0  0  0  0
  -26.4716  -21.0616   25.2334 C   0  0  0  0  0  0  0  0  0  0  0  0
  -26.6639  -21.7834   23.9076 C   0  0  0  0  0  0  0  0  0  1  0  0
  -34.3229  -25.9348   22.4526 C   0  0  1  0  0  0  0  0  0  0  0  0
  -33.4035  -29.5737   22.9841 C   0  0  2  0  0  0  0  0  0  0  0  0
  -35.7335  -25.4067   22.8382 C   0  0  0  0  0  0  0  0  0  0  0  0
  -25.8605  -11.5421   20.2891 N   0  0  0  0  0  0  0  0  0  0  0  0
  -26.2381  -12.8253   20.1582 N   0  0  0  0  0  0  0  0  0  0  0  0
  -32.7011  -24.6828   21.0647 N   0  0  0  0  0  0  0  0  0  0  0  0
  -29.9692  -13.6118   20.3677 N   0  0  0  0  0  0  0  0  0  0  0  0
  -25.4721  -15.0536   20.3999 N   0  0  0  0  0  0  0  0  0  0  0  0
  -21.8847  -12.5835   21.5936 N   0  0  0  0  0  0  0  0  0  0  0  0
  -29.6363  -19.2215   24.7817 N   0  0  0  0  0  0  0  0  0  0  0  0
  -30.0794  -15.6936   21.4705 N   0  0  0  0  0  0  0  0  0  0  0  0
  -33.2480  -22.0867   18.6790 N   0  0  0  0  0  0  0  0  0  0  0  0
  -34.2185  -27.3895   22.4173 N   0  0  0  0  0  0  0  0  0  0  0  0
  -32.0589  -30.2004   23.1261 N   0  3  0  0  0  0  0  0  0  0  0  0
  -22.6615  -14.7223   21.3095 O   0  0  0  0  0  0  0  0  0  0  0  0
  -32.9082  -22.0442   20.9823 O   0  0  0  0  0  0  0  0  0  0  0  0
  -34.5427  -25.7374   20.0991 O   0  0  0  0  0  0  0  0  0  0  0  0
  -27.4774  -18.6728   24.0370 O   0  0  0  0  0  0  0  0  0  0  0  0
  -32.5182  -27.5606   23.9846 O   0  0  0  0  0  0  0  0  0  0  0  0
  -31.8573  -14.9335   20.1887 O   0  0  0  0  0  0  0  0  0  0  0  0
  -21.6092   -7.0207   21.7146 O   0  0  0  0  0  0  0  0  0  0  0  0
  -27.6572  -22.7946   24.0725 O   0  0  0  0  0  0  0  0  0  1  0  0
  -16.4455   -6.8335   19.7898 F   0  0  0  0  0  0  0  0  0  0  0  0
  -20.8323   -5.0607   19.9265 F   0  0  0  0  0  0  0  0  0  0  0  0
  1  2  1  0  0  0  0
  1  5  2  0  0  0  0
  2  6  2  0  0  0  0
  3 10  2  0  0  0  0
  3 18  1  0  0  0  0
  4 11  1  0  0  0  0
  4 18  2  0  0  0  0
  5 20  1  0  0  0  0
  6 22  1  0  0  0  0
  7 12  2  0  0  0  0
  7 21  1  0  0  0  0
  8  9  2  0  0  0  0
  8 24  1  0  0  0  0
  9 25  1  0  0  0  0
 10 27  1  0  0  0  0
 11 27  2  0  0  0  0
 12 28  1  0  0  0  0
 13 14  2  0  0  0  0
 13 29  1  0  0  0  0
 14 30  1  0  0  0  0
 15 23  1  0  0  0  0
 15 28  2  0  0  0  0
 16 25  2  0  0  0  0
 16 26  1  0  0  0  0
 17 30  2  0  0  0  0
 17 31  1  0  0  0  0
 18 32  1  0  0  0  0
 19 32  1  0  0  0  0
 19 33  2  0  0  0  0
 19 34  1  0  0  0  0
 20 22  2  0  0  0  0
 20 40  1  0  0  0  0
 21 23  2  0  0  0  0
 21 41  1  0  0  0  0
 22 49  1  0  0  0  0
 23 42  1  0  0  0  0
 24 26  2  0  0  0  0
 24 52  1  0  0  0  0
 25 71  1  0  0  0  0
 26 70  1  0  0  0  0
 27 81  1  0  0  0  0
 28 82  1  0  0  0  0
 29 31  2  0  0  0  0
 29 81  1  0  0  0  0
 30 83  1  0  0  0  0
 31 84  1  0  0  0  0
 32 64  2  0  0  0  0
 33 65  1  0  0  0  0
 33 68  1  0  0  0  0
 34 69  1  0  0  0  0
 34 75  2  0  0  0  0
 35 50  1  0  0  0  0
 35 72  1  0  0  0  0
 35 76  2  0  0  0  0
 36 61  1  0  0  0  0
 36 66  1  0  0  0  0
 36 77  2  0  0  0  0
 37 58  1  0  0  0  0
 37 70  1  0  0  0  0
 37 78  2  0  0  0  0
 38 62  1  0  0  0  0
 38 73  1  0  0  0  0
 38 79  2  0  0  0  0
 39 67  1  0  0  0  0
 39 71  1  0  0  0  0
 39 80  2  0  0  0  0
 40 43  1  0  0  0  0
 41 50  1  0  0  0  0
 42 66  1  0  0  0  0
 43 45  1  0  0  0  0
 44 46  1  0  0  0  0
 44 47  1  0  0  0  0
 45 49  1  0  0  0  0
 46 51  1  0  0  0  0
 47 67  1  0  0  0  0
 48 51  1  0  0  0  0
 48 67  1  0  0  0  0
 49 72  1  0  0  0  0
 50 66  1  0  0  0  0
 51 65  1  0  0  0  0
 53 62  1  0  0  0  0
 54 63  1  0  0  0  0
 55 63  1  0  0  0  0
 56 63  1  0  0  0  0
 57 74  1  0  0  0  0
 58 59  1  0  0  0  0
 59 60  1  0  0  0  0
 60 82  1  0  0  0  0
 61 63  1  0  0  0  0
 61 73  1  0  0  0  0
 62 74  1  0  0  0  0
 64 65  1  0  0  0  0
M  CHG  1  74   1
M  ISO  4  39 100  60 101  71 100  82 101
M  END
> <Batch ID>
0059

> <Smiles>
CNC(C)C(=O)NC(C(=O)N1Cc2cc([101O:1][101CH2:1]CCC(=O)Nc3cc([100NH:0][100C:0](=O)N4CCCC(n5nc(-c6ccc(Oc7ccc(F)cc7F)cc6)c(C(N)=O)c5N)C4)ccc3C)ccc2CC1C(=O)NC1CCCc2ccccc21)C(C)(C)C

> <Shape>
0.170

> <Color>
0.191

> <Negative vol penalty>
0.000

$$$$

  -OEChem-04042323013D

 84 92  0     1  0  0  0  0  0999 V2000
  -27.9355  -21.4752   18.3383 C   0  0  0  0  0  0  0  0  0  0  0  0
  -27.0580  -22.5415   18.1772 C   0  0  0  0  0  0  0  0  0  0  0  0
  -26.7730  -12.8515   20.9019 C   0  0  0  0  0  0  0  0  0  0  0  0
  -25.7269  -14.0658   19.0941 C   0  0  0  0  0  0  0  0  0  0  0  0
  -28.6889  -21.3677   19.5053 C   0  0  0  0  0  0  0  0  0  0  0  0
  -26.9425  -23.5070   19.1779 C   0  0  0  0  0  0  0  0  0  0  0  0
  -24.1808  -27.4515   18.1694 C   0  0  0  0  0  0  0  0  0  0  0  0
  -23.2779  -22.7316   22.0420 C   0  0  0  0  0  0  0  0  0  0  0  0
  -22.2448  -23.5196   21.5346 C   0  0  0  0  0  0  0  0  0  0  0  0
  -26.0369  -11.7157   20.5651 C   0  0  0  0  0  0  0  0  0  0  0  0
  -24.9908  -12.9299   18.7572 C   0  0  0  0  0  0  0  0  0  0  0  0
  -22.7899  -27.3974   18.0895 C   0  0  0  0  0  0  0  0  0  0  0  0
  -24.1666   -8.6012   20.4043 C   0  0  0  0  0  0  0  0  0  0  0  0
  -23.5647   -7.8860   21.4395 C   0  0  0  0  0  0  0  0  0  0  0  0
  -22.6309  -28.4237   20.2667 C   0  0  0  0  0  0  0  0  0  0  0  0
  -23.7575  -21.9265   19.8152 C   0  0  0  0  0  0  0  0  0  0  0  0
  -22.2885   -9.8444   22.0505 C   0  0  0  0  0  0  0  0  0  0  0  0
  -26.6180  -14.0266   20.1665 C   0  0  0  0  0  0  0  0  0  0  0  0
  -28.6462  -15.5675   20.0266 C   0  0  0  0  0  0  0  0  0  0  0  0
  -28.5728  -22.3260   20.5256 C   0  0  0  0  0  0  0  0  0  0  0  0
  -24.8083  -27.9831   19.3052 C   0  0  0  0  0  0  0  0  0  0  0  0
  -27.7120  -23.4290   20.3527 C   0  0  0  0  0  0  0  0  0  0  0  0
  -24.0298  -28.4859   20.3575 C   0  0  0  0  0  0  0  0  0  0  0  0
  -22.7244  -22.7145   19.3078 C   0  0  0  0  0  0  0  0  0  0  0  0
  -24.0343  -21.9351   21.1823 C   0  0  0  0  0  0  0  0  0  0  0  0
  -21.9680  -23.5110   20.1675 C   0  0  0  0  0  0  0  0  0  0  0  0
  -25.1458  -11.7548   19.4927 C   0  0  0  0  0  0  0  0  0  0  0  0
  -22.0148  -27.8809   19.1395 C   0  0  0  0  0  0  0  0  0  0  0  0
  -23.8296   -9.9381   20.1922 C   0  0  0  0  0  0  0  0  0  0  0  0
  -22.6256   -8.5076   22.2626 C   0  0  0  0  0  0  0  0  0  0  0  0
  -22.8905  -10.5597   21.0152 C   0  0  0  0  0  0  0  0  0  0  0  0
  -27.3777  -15.2005   20.5144 C   0  0  0  0  0  0  0  0  0  0  0  0
  -28.9274  -16.7537   20.6595 C   0  0  0  0  0  0  0  0  0  0  0  0
  -29.4945  -14.8964   19.0855 C   0  0  0  0  0  0  0  0  0  0  0  0
  -26.7804  -26.8396   21.5203 C   0  0  0  0  0  0  0  0  0  0  0  0
  -26.8513  -29.9322   22.4967 C   0  0  0  0  0  0  0  0  0  0  0  0
  -19.7531  -24.6979   20.3352 C   0  0  0  0  0  0  0  0  0  0  0  0
  -24.4777  -32.6175   22.9120 C   0  0  0  0  0  0  0  0  0  0  0  0
  -25.4925  -21.0316   23.0272 C   0  0  0  0  0  0  0  0  0  0  0  0
  -29.4179  -22.1651   21.7646 C   0  0  0  0  0  0  0  0  0  0  0  0
  -26.3093  -28.0589   19.3645 C   0  0  0  0  0  0  0  0  0  0  0  0
  -24.6545  -29.0850   21.5901 C   0  0  0  0  0  0  0  0  0  0  0  0
  -28.9041  -22.9830   22.9450 C   0  0  0  0  0  0  0  0  0  0  0  0
  -28.0089  -19.1506   24.7024 C   0  0  0  0  0  0  0  0  0  0  0  0
  -28.6456  -24.4177   22.5100 C   0  0  0  0  0  0  0  0  0  0  0  0
  -28.2524  -17.9608   23.7712 C   0  0  0  0  0  0  0  0  0  0  0  0
  -26.5362  -19.5555   24.7321 C   0  0  0  0  0  0  0  0  0  0  0  0
  -26.1770  -18.6124   22.4847 C   0  0  0  0  0  0  0  0  0  0  0  0
  -27.5472  -24.4747   21.4408 C   0  0  1  0  0  0  0  0  0  0  0  0
  -26.8472  -28.1506   20.7892 C   0  0  1  0  0  0  0  0  0  0  0  0
  -27.6564  -18.2092   22.3717 C   0  0  2  0  0  0  0  0  0  0  0  0
  -22.4512  -22.6875   17.8390 C   0  0  0  0  0  0  0  0  0  0  0  0
  -24.7982  -35.1051   22.8328 C   0  0  0  0  0  0  0  0  0  0  0  0
  -27.1562  -29.6981   25.5236 C   0  0  0  0  0  0  0  0  0  0  0  0
  -25.8891  -31.8458   25.7473 C   0  0  0  0  0  0  0  0  0  0  0  0
  -28.0732  -31.8080   24.5427 C   0  0  0  0  0  0  0  0  0  0  0  0
  -22.4058  -32.9345   20.8226 C   0  0  0  0  0  0  0  0  0  0  0  0
  -18.8877  -25.5711   19.4373 C   0  0  0  0  0  0  0  0  0  0  0  0
  -18.6400  -26.9555   20.0265 C   0  0  0  0  0  0  0  0  0  0  0  0
  -19.9432  -27.6947   20.2927 C   0  0  0  0  0  0  0  0  0  1  0  0
  -26.0403  -30.7691   23.4562 C   0  0  1  0  0  0  0  0  0  0  0  0
  -24.3634  -33.8691   22.0607 C   0  0  2  0  0  0  0  0  0  0  0  0
  -26.7783  -31.0081   24.8038 C   0  0  0  0  0  0  0  0  0  0  0  0
  -26.8870  -16.0820   21.3897 N   0  0  0  0  0  0  0  0  0  0  0  0
  -27.8522  -17.0146   21.4570 N   0  0  0  0  0  0  0  0  0  0  0  0
  -26.1260  -29.1308   21.6036 N   0  0  0  0  0  0  0  0  0  0  0  0
  -26.0414  -19.7783   23.3718 N   0  0  0  0  0  0  0  0  0  0  0  0
  -29.9870  -17.5884   20.6060 N   0  0  0  0  0  0  0  0  0  0  0  0
  -29.0520  -13.6877   18.5308 N   0  0  0  0  0  0  0  0  0  0  0  0
  -20.9169  -24.3187   19.6721 N   0  0  0  0  0  0  0  0  0  0  0  0
  -25.0855  -21.1368   21.6976 N   0  0  0  0  0  0  0  0  0  0  0  0
  -27.4779  -25.8168   20.9062 N   0  0  0  0  0  0  0  0  0  0  0  0
  -25.6943  -31.9918   22.7395 N   0  0  0  0  0  0  0  0  0  0  0  0
  -22.9551  -34.0652   21.6143 N   0  3  0  0  0  0  0  0  0  0  0  0
  -30.6189  -15.3465   18.7590 O   0  0  0  0  0  0  0  0  0  0  0  0
  -26.1446  -26.7621   22.5649 O   0  0  0  0  0  0  0  0  0  0  0  0
  -28.0828  -29.9927   22.5332 O   0  0  0  0  0  0  0  0  0  0  0  0
  -19.4165  -24.4032   21.4772 O   0  0  0  0  0  0  0  0  0  0  0  0
  -23.5792  -32.2352   23.6584 O   0  0  0  0  0  0  0  0  0  0  0  0
  -25.4161  -21.9533   23.8437 O   0  0  0  0  0  0  0  0  0  0  0  0
  -24.4275  -10.6466   19.1635 O   0  0  0  0  0  0  0  0  0  0  0  0
  -20.6570  -27.8286   19.0643 O   0  0  0  0  0  0  0  0  0  1  0  0
  -22.0465   -7.8202   23.2557 F   0  0  0  0  0  0  0  0  0  0  0  0
  -22.5618  -11.8434   20.8156 F   0  0  0  0  0  0  0  0  0  0  0  0
  1  2  1  0  0  0  0
  1  5  2  0  0  0  0
  2  6  2  0  0  0  0
  3 10  2  0  0  0  0
  3 18  1  0  0  0  0
  4 11  1  0  0  0  0
  4 18  2  0  0  0  0
  5 20  1  0  0  0  0
  6 22  1  0  0  0  0
  7 12  2  0  0  0  0
  7 21  1  0  0  0  0
  8  9  2  0  0  0  0
  8 25  1  0  0  0  0
  9 26  1  0  0  0  0
 10 27  1  0  0  0  0
 11 27  2  0  0  0  0
 12 28  1  0  0  0  0
 13 14  2  0  0  0  0
 13 29  1  0  0  0  0
 14 30  1  0  0  0  0
 15 23  1  0  0  0  0
 15 28  2  0  0  0  0
 16 24  1  0  0  0  0
 16 25  2  0  0  0  0
 17 30  2  0  0  0  0
 17 31  1  0  0  0  0
 18 32  1  0  0  0  0
 19 32  1  0  0  0  0
 19 33  2  0  0  0  0
 19 34  1  0  0  0  0
 20 22  2  0  0  0  0
 20 40  1  0  0  0  0
 21 23  2  0  0  0  0
 21 41  1  0  0  0  0
 22 49  1  0  0  0  0
 23 42  1  0  0  0  0
 24 26  2  0  0  0  0
 24 52  1  0  0  0  0
 25 71  1  0  0  0  0
 26 70  1  0  0  0  0
 27 81  1  0  0  0  0
 28 82  1  0  0  0  0
 29 31  2  0  0  0  0
 29 81  1  0  0  0  0
 30 83  1  0  0  0  0
 31 84  1  0  0  0  0
 32 64  2  0  0  0  0
 33 65  1  0  0  0  0
 33 68  1  0  0  0  0
 34 69  1  0  0  0  0
 34 75  2  0  0  0  0
 35 50  1  0  0  0  0
 35 72  1  0  0  0  0
 35 76  2  0  0  0  0
 36 61  1  0  0  0  0
 36 66  1  0  0  0  0
 36 77  2  0  0  0  0
 37 58  1  0  0  0  0
 37 70  1  0  0  0  0
 37 78  2  0  0  0  0
 38 62  1  0  0  0  0
 38 73  1  0  0  0  0
 38 79  2  0  0  0  0
 39 67  1  0  0  0  0
 39 71  1  0  0  0  0
 39 80  2  0  0  0  0
 40 43  1  0  0  0  0
 41 50  1  0  0  0  0
 42 66  1  0  0  0  0
 43 45  1  0  0  0  0
 44 46  1  0  0  0  0
 44 47  1  0  0  0  0
 45 49  1  0  0  0  0
 46 51  1  0  0  0  0
 47 67  1  0  0  0  0
 48 51  1  0  0  0  0
 48 67  1  0  0  0  0
 49 72  1  0  0  0  0
 50 66  1  0  0  0  0
 51 65  1  0  0  0  0
 53 62  1  0  0  0  0
 54 63  1  0  0  0  0
 55 63  1  0  0  0  0
 56 63  1  0  0  0  0
 57 74  1  0  0  0  0
 58 59  1  0  0  0  0
 59 60  1  0  0  0  0
 60 82  1  0  0  0  0
 61 63  1  0  0  0  0
 61 73  1  0  0  0  0
 62 74  1  0  0  0  0
 64 65  1  0  0  0  0
M  CHG  1  74   1
M  ISO  4  39 100  60 101  71 100  82 101
M  END
> <Batch ID>
0059

> <Smiles>
CNC(C)C(=O)NC(C(=O)N1Cc2cc([101O:1][101CH2:1]CCC(=O)Nc3ccc([100NH:0][100C:0](=O)N4CCCC(n5nc(-c6ccc(Oc7ccc(F)cc7F)cc6)c(C(N)=O)c5N)C4)cc3C)ccc2CC1C(=O)NC1CCCc2ccccc21)C(C)(C)C

> <Shape>
0.229

> <Color>
0.083

> <Negative vol penalty>
0.000

$$$$

  -OEChem-04042323013D

 88 97  0     1  0  0  0  0  0999 V2000
  -27.3157  -28.8468   27.2510 C   0  0  0  0  0  0  0  0  0  0  0  0
  -27.7556  -27.8356   26.4029 C   0  0  0  0  0  0  0  0  0  0  0  0
  -22.8572  -10.0613   20.0427 C   0  0  0  0  0  0  0  0  0  0  0  0
  -24.2699   -9.4604   21.9083 C   0  0  0  0  0  0  0  0  0  0  0  0
  -26.0498  -28.7680   27.8300 C   0  0  0  0  0  0  0  0  0  0  0  0
  -26.9302  -26.7443   26.1342 C   0  0  0  0  0  0  0  0  0  0  0  0
  -24.4020  -23.9508   19.2908 C   0  0  0  0  0  0  0  0  0  0  0  0
  -22.1494   -8.8690   20.1947 C   0  0  0  0  0  0  0  0  0  0  0  0
  -23.5621   -8.2681   22.0602 C   0  0  0  0  0  0  0  0  0  0  0  0
  -23.7632  -23.4595   18.1521 C   0  0  0  0  0  0  0  0  0  0  0  0
  -20.6196   -7.2724   23.3907 C   0  0  0  0  0  0  0  0  0  0  0  0
  -20.2486   -6.9009   24.6830 C   0  0  0  0  0  0  0  0  0  0  0  0
  -21.9305  -22.6600   19.5123 C   0  0  0  0  0  0  0  0  0  0  0  0
  -26.4923  -19.0345   14.8292 C   0  0  0  0  0  0  0  0  0  0  0  0
  -25.7528  -18.9548   17.1278 C   0  0  0  0  0  0  0  0  0  0  0  0
  -21.5251   -4.8615   24.4632 C   0  0  0  0  0  0  0  0  0  0  0  0
  -23.9175  -10.3570   20.8995 C   0  0  0  0  0  0  0  0  0  0  0  0
  -27.8460  -17.9272   16.4959 C   0  0  0  0  0  0  0  0  0  0  0  0
  -24.1382  -12.8973   20.8251 C   0  0  0  0  0  0  0  0  0  0  0  0
  -25.2047  -27.6799   27.5606 C   0  0  0  0  0  0  0  0  0  0  0  0
  -23.7995  -23.8121   20.5443 C   0  0  0  0  0  0  0  0  0  0  0  0
  -25.6523  -26.6501   26.7112 C   0  0  0  0  0  0  0  0  0  0  0  0
  -22.5597  -23.1612   20.6549 C   0  0  0  0  0  0  0  0  0  0  0  0
  -27.6413  -18.3229   15.1741 C   0  0  0  0  0  0  0  0  0  0  0  0
  -25.5480  -19.3505   15.8060 C   0  0  0  0  0  0  0  0  0  0  0  0
  -22.5019   -7.9724   21.2034 C   0  0  0  0  0  0  0  0  0  0  0  0
  -22.5306  -22.8154   18.2627 C   0  0  0  0  0  0  0  0  0  0  0  0
  -21.4433   -6.4384   22.6346 C   0  0  0  0  0  0  0  0  0  0  0  0
  -20.7014   -5.6955   25.2193 C   0  0  0  0  0  0  0  0  0  0  0  0
  -26.9018  -18.2432   17.4728 C   0  0  0  0  0  0  0  0  0  0  0  0
  -21.8960   -5.2329   23.1709 C   0  0  0  0  0  0  0  0  0  0  0  0
  -24.6493  -11.5882   20.7427 C   0  0  0  0  0  0  0  0  0  0  0  0
  -25.2268  -13.7054   20.6048 C   0  0  0  0  0  0  0  0  0  0  0  0
  -23.7937  -19.9725   14.1648 C   0  0  0  0  0  0  0  0  0  0  0  0
  -29.0624  -17.1693   16.8868 C   0  0  0  0  0  0  0  0  0  0  0  0
  -22.7992  -13.3431   21.0782 C   0  0  0  0  0  0  0  0  0  0  0  0
  -23.9987  -24.4638   24.2336 C   0  0  0  0  0  0  0  0  0  0  0  0
  -21.0888  -24.9576   23.3974 C   0  0  0  0  0  0  0  0  0  0  0  0
  -18.0964  -25.8057   21.9961 C   0  0  0  0  0  0  0  0  0  0  0  0
  -29.8408  -15.0194   17.8331 C   0  0  0  0  0  0  0  0  0  0  0  0
  -23.8633  -27.6152   28.2471 C   0  0  0  0  0  0  0  0  0  0  0  0
  -24.4801  -24.2714   21.8051 C   0  0  0  0  0  0  0  0  0  0  0  0
  -21.9654  -23.0041   22.0278 C   0  0  0  0  0  0  0  0  0  0  0  0
  -22.7496  -21.0080   13.7881 C   0  0  0  0  0  0  0  0  0  0  0  0
  -22.9035  -26.6104   27.6151 C   0  0  0  0  0  0  0  0  0  0  0  0
  -21.8679  -21.4437   14.9349 C   0  0  0  0  0  0  0  0  0  0  0  0
  -30.1647  -12.5987   20.3890 C   0  0  0  0  0  0  0  0  0  0  0  0
  -23.6121  -25.2844   27.3576 C   0  0  0  0  0  0  0  0  0  0  0  0
  -28.7166  -12.2311   20.7238 C   0  0  0  0  0  0  0  0  0  0  0  0
  -30.3578  -12.8384   18.8923 C   0  0  0  0  0  0  0  0  0  0  0  0
  -27.9839  -13.4308   18.6243 C   0  0  0  0  0  0  0  0  0  0  0  0
  -23.6483  -20.7937   16.5311 C   0  0  0  0  0  0  0  0  0  0  0  0
  -24.7764  -25.4626   26.3757 C   0  0  1  0  0  0  0  0  0  0  0  0
  -23.4964  -24.8055   22.8616 C   0  0  1  0  0  0  0  0  0  0  0  0
  -27.7226  -13.2482   20.1281 C   0  0  1  0  0  0  0  0  0  0  0  0
  -22.7437  -21.9271   16.0702 C   0  0  2  0  0  0  0  0  0  1  0  0
  -28.6360  -17.9976   14.1079 C   0  0  0  0  0  0  0  0  0  0  0  0
  -15.8163  -26.6678   22.5918 C   0  0  0  0  0  0  0  0  0  0  0  0
  -20.3344  -22.2061   24.4761 C   0  0  0  0  0  0  0  0  0  0  0  0
  -17.9281  -22.8184   24.1552 C   0  0  0  0  0  0  0  0  0  0  0  0
  -19.3463  -24.1276   25.7355 C   0  0  0  0  0  0  0  0  0  0  0  0
  -18.4454  -28.2215   20.3225 C   0  0  0  0  0  0  0  0  0  0  0  0
  -19.7019  -24.3860   23.2457 C   0  0  1  0  0  0  0  0  0  0  0  0
  -17.2241  -27.0382   22.1520 C   0  0  2  0  0  0  0  0  0  0  0  0
  -19.3458  -23.3854   24.3813 C   0  0  0  0  0  0  0  0  0  0  0  0
  -25.9605  -11.5615   20.4897 N   0  0  0  0  0  0  0  0  0  0  0  0
  -26.2826  -12.8639   20.4111 N   0  0  0  0  0  0  0  0  0  0  0  0
  -24.3556  -20.0891   15.4487 N   0  0  0  0  0  0  0  0  0  0  0  0
  -22.1346  -24.2487   22.7940 N   0  0  0  0  0  0  0  0  0  0  0  0
  -29.3855  -13.8200   18.4082 N   0  0  0  0  0  0  0  0  0  0  0  0
  -25.3743  -15.0465   20.5598 N   0  0  0  0  0  0  0  0  0  0  0  0
  -22.4089  -13.5659   22.4057 N   0  0  0  0  0  0  0  0  0  0  0  0
  -28.8347  -15.9095   17.4412 N   0  0  0  0  0  0  0  0  0  0  0  0
  -24.2824  -25.5646   25.0192 N   0  0  0  0  0  0  0  0  0  0  0  0
  -18.7982  -25.5273   23.1499 N   0  0  0  0  0  0  0  0  0  0  0  0
  -17.1342  -27.7759   20.8603 N   0  3  0  0  0  0  0  0  0  0  0  0
  -24.1205  -19.1423   13.3122 O   0  0  0  0  0  0  0  0  0  0  0  0
  -30.1675  -17.6595   16.6713 O   0  0  0  0  0  0  0  0  0  0  0  0
  -21.9684  -13.5222   20.1556 O   0  0  0  0  0  0  0  0  0  0  0  0
  -24.1190  -23.2881   24.5576 O   0  0  0  0  0  0  0  0  0  0  0  0
  -21.2444  -26.0012   24.0378 O   0  0  0  0  0  0  0  0  0  0  0  0
  -18.1471  -25.1527   20.9561 O   0  0  0  0  0  0  0  0  0  0  0  0
  -31.0396  -15.2912   17.7137 O   0  0  0  0  0  0  0  0  0  0  0  0
  -21.8113   -6.8089   21.3521 O   0  0  0  0  0  0  0  0  0  0  0  0
  -21.9103  -22.3421   17.1464 O   0  0  0  0  0  0  0  0  0  1  0  0
  -20.3463   -5.3396   26.4608 F   0  0  0  0  0  0  0  0  0  0  0  0
  -27.0872  -17.8688   18.7467 F   0  0  0  0  0  0  0  0  0  0  0  0
  -22.6885   -4.4281   22.4498 F   0  0  0  0  0  0  0  0  0  0  0  0
  1  2  1  0  0  0  0
  1  5  2  0  0  0  0
  2  6  2  0  0  0  0
  3  8  2  0  0  0  0
  3 17  1  0  0  0  0
  4  9  1  0  0  0  0
  4 17  2  0  0  0  0
  5 20  1  0  0  0  0
  6 22  1  0  0  0  0
  7 10  2  0  0  0  0
  7 21  1  0  0  0  0
  8 26  1  0  0  0  0
  9 26  2  0  0  0  0
 10 27  1  0  0  0  0
 11 12  2  0  0  0  0
 11 28  1  0  0  0  0
 12 29  1  0  0  0  0
 13 23  1  0  0  0  0
 13 27  2  0  0  0  0
 14 24  2  0  0  0  0
 14 25  1  0  0  0  0
 15 25  2  0  0  0  0
 15 30  1  0  0  0  0
 16 29  2  0  0  0  0
 16 31  1  0  0  0  0
 17 32  1  0  0  0  0
 18 24  1  0  0  0  0
 18 30  2  0  0  0  0
 18 35  1  0  0  0  0
 19 32  1  0  0  0  0
 19 33  2  0  0  0  0
 19 36  1  0  0  0  0
 20 22  2  0  0  0  0
 20 41  1  0  0  0  0
 21 23  2  0  0  0  0
 21 42  1  0  0  0  0
 22 53  1  0  0  0  0
 23 43  1  0  0  0  0
 24 57  1  0  0  0  0
 25 68  1  0  0  0  0
 26 84  1  0  0  0  0
 27 85  1  0  0  0  0
 28 31  2  0  0  0  0
 28 84  1  0  0  0  0
 29 86  1  0  0  0  0
 30 87  1  0  0  0  0
 31 88  1  0  0  0  0
 32 66  2  0  0  0  0
 33 67  1  0  0  0  0
 33 71  1  0  0  0  0
 34 44  1  0  0  0  0
 34 68  1  0  0  0  0
 34 77  2  0  0  0  0
 35 73  1  0  0  0  0
 35 78  2  0  0  0  0
 36 72  1  0  0  0  0
 36 79  2  0  0  0  0
 37 54  1  0  0  0  0
 37 74  1  0  0  0  0
 37 80  2  0  0  0  0
 38 63  1  0  0  0  0
 38 69  1  0  0  0  0
 38 81  2  0  0  0  0
 39 64  1  0  0  0  0
 39 75  1  0  0  0  0
 39 82  2  0  0  0  0
 40 70  1  0  0  0  0
 40 73  1  0  0  0  0
 40 83  2  0  0  0  0
 41 45  1  0  0  0  0
 42 54  1  0  0  0  0
 43 69  1  0  0  0  0
 44 46  1  0  0  0  0
 45 48  1  0  0  0  0
 46 56  1  0  0  0  0
 47 49  1  0  0  0  0
 47 50  1  0  0  0  0
 48 53  1  0  0  0  0
 49 55  1  0  0  0  0
 50 70  1  0  0  0  0
 51 55  1  0  0  0  0
 51 70  1  0  0  0  0
 52 56  1  0  0  0  0
 52 68  1  0  0  0  0
 53 74  1  0  0  0  0
 54 69  1  0  0  0  0
 55 67  1  0  0  0  0
 56 85  1  0  0  0  0
 58 64  1  0  0  0  0
 59 65  1  0  0  0  0
 60 65  1  0  0  0  0
 61 65  1  0  0  0  0
 62 76  1  0  0  0  0
 63 65  1  0  0  0  0
 63 75  1  0  0  0  0
 64 76  1  0  0  0  0
 66 67  1  0  0  0  0
M  CHG  1  76   1
M  ISO  4  40 100  56 101  73 100  85 101
M  END
> <Batch ID>
0059

> <Smiles>
CNC(C)C(=O)NC(C(=O)N1Cc2cc([101O:1][101CH:1]3CCC(=O)N(c4cc(C)c(C(=O)[100NH:0][100C:0](=O)N5CCCC(n6nc(-c7ccc(Oc8ccc(F)cc8F)cc7)c(C(N)=O)c6N)C5)c(F)c4)C3)ccc2CC1C(=O)NC1CCCc2ccccc21)C(C)(C)C

> <Shape>
0.180

> <Color>
0.156

> <Negative vol penalty>
0.000

$$$$

  -OEChem-04042323013D

 84 92  0     1  0  0  0  0  0999 V2000
  -22.1829  -11.2974   19.0025 C   0  0  0  0  0  0  0  0  0  0  0  0
  -21.8075  -12.6328   19.1080 C   0  0  0  0  0  0  0  0  0  0  0  0
  -22.4704  -21.8075   24.6208 C   0  0  0  0  0  0  0  0  0  0  0  0
  -20.3057  -21.6577   25.6831 C   0  0  0  0  0  0  0  0  0  0  0  0
  -23.3788  -10.8635   19.5731 C   0  0  0  0  0  0  0  0  0  0  0  0
  -22.6273  -13.5350   19.7851 C   0  0  0  0  0  0  0  0  0  0  0  0
  -23.5040  -19.4434   18.4330 C   0  0  0  0  0  0  0  0  0  0  0  0
  -27.2854  -27.8287   19.8474 C   0  0  0  0  0  0  0  0  0  0  0  0
  -26.1712  -26.9897   19.8386 C   0  0  0  0  0  0  0  0  0  0  0  0
  -23.0318  -21.0657   25.6600 C   0  0  0  0  0  0  0  0  0  0  0  0
  -20.8671  -20.9158   26.7224 C   0  0  0  0  0  0  0  0  0  0  0  0
  -22.9549  -20.6156   18.9508 C   0  0  0  0  0  0  0  0  0  0  0  0
  -23.2121  -17.8194   26.5887 C   0  0  0  0  0  0  0  0  0  0  0  0
  -24.0899  -16.7899   26.2496 C   0  0  0  0  0  0  0  0  0  0  0  0
  -25.9066  -29.6517   20.6301 C   0  0  0  0  0  0  0  0  0  0  0  0
  -24.8594  -20.8551   20.4119 C   0  0  0  0  0  0  0  0  0  0  0  0
  -25.8446  -17.8707   27.5106 C   0  0  0  0  0  0  0  0  0  0  0  0
  -21.1074  -22.1036   24.6323 C   0  0  0  0  0  0  0  0  0  0  0  0
  -24.7923  -28.8127   20.6212 C   0  0  0  0  0  0  0  0  0  0  0  0
  -19.9739  -22.3752   22.3631 C   0  0  0  0  0  0  0  0  0  0  0  0
  -24.2184  -11.7628   20.2492 C   0  0  0  0  0  0  0  0  0  0  0  0
  -24.7318  -18.9616   18.9093 C   0  0  0  0  0  0  0  0  0  0  0  0
  -23.8349  -13.1125   20.3663 C   0  0  0  0  0  0  0  0  0  0  0  0
  -25.4231  -19.6779   19.8967 C   0  0  0  0  0  0  0  0  0  0  0  0
  -27.1532  -29.1597   20.2432 C   0  0  0  0  0  0  0  0  0  0  0  0
  -24.9246  -27.4817   20.2254 C   0  0  0  0  0  0  0  0  0  0  0  0
  -22.2302  -20.6198   26.7109 C   0  0  0  0  0  0  0  0  0  0  0  0
  -23.6312  -21.3201   19.9425 C   0  0  0  0  0  0  0  0  0  0  0  0
  -23.6505  -18.8747   27.3886 C   0  0  0  0  0  0  0  0  0  0  0  0
  -25.4062  -16.8155   26.7106 C   0  0  0  0  0  0  0  0  0  0  0  0
  -24.9668  -18.9003   27.8496 C   0  0  0  0  0  0  0  0  0  0  0  0
  -20.5269  -22.8703   23.5593 C   0  0  0  0  0  0  0  0  0  0  0  0
  -19.5626  -23.4966   21.6851 C   0  0  0  0  0  0  0  0  0  0  0  0
  -23.4899  -29.3637   21.0359 C   0  0  0  0  0  0  0  0  0  0  0  0
  -19.8436  -21.0226   21.9059 C   0  0  0  0  0  0  0  0  0  0  0  0
  -25.6802  -16.3136   20.3900 C   0  0  0  0  0  0  0  0  0  0  0  0
  -28.6292  -17.5932   19.9560 C   0  0  0  0  0  0  0  0  0  0  0  0
  -23.7833  -25.2698   19.8399 C   0  0  0  0  0  0  0  0  0  0  0  0
  -30.5332  -20.3820   19.4622 C   0  0  0  0  0  0  0  0  0  0  0  0
  -21.3862  -29.2103   21.9535 C   0  0  0  0  0  0  0  0  0  0  0  0
  -25.4784  -11.2375   20.8904 C   0  0  0  0  0  0  0  0  0  0  0  0
  -25.3235  -17.7099   18.3214 C   0  0  0  0  0  0  0  0  0  0  0  0
  -26.7540  -19.2139   20.4276 C   0  0  0  0  0  0  0  0  0  0  0  0
  -26.4722  -12.3331   21.2677 C   0  0  0  0  0  0  0  0  0  0  0  0
  -18.0307  -27.9658   22.3976 C   0  0  0  0  0  0  0  0  0  0  0  0
  -25.7596  -13.4775   21.9814 C   0  0  0  0  0  0  0  0  0  0  0  0
  -18.2460  -26.4772   22.6704 C   0  0  0  0  0  0  0  0  0  0  0  0
  -19.1529  -28.8119   22.9914 C   0  0  0  0  0  0  0  0  0  0  0  0
  -20.7378  -26.9132   22.8137 C   0  0  0  0  0  0  0  0  0  0  0  0
  -24.7094  -14.1264   21.0715 C   0  0  1  0  0  0  0  0  0  0  0  0
  -26.3329  -17.0352   19.2451 C   0  0  1  0  0  0  0  0  0  0  0  0
  -19.6407  -26.0253   22.2020 C   0  0  1  0  0  0  0  0  0  0  0  0
  -28.3449  -30.0561   20.2522 C   0  0  0  0  0  0  0  0  0  0  0  0
  -32.9168  -21.1160   19.1838 C   0  0  0  0  0  0  0  0  0  0  0  0
  -29.0831  -17.2477   22.9534 C   0  0  0  0  0  0  0  0  0  0  0  0
  -31.0197  -18.8240   22.7712 C   0  0  0  0  0  0  0  0  0  0  0  0
  -31.0515  -16.6628   21.5259 C   0  0  0  0  0  0  0  0  0  0  0  0
  -30.0061  -21.4635   16.7582 C   0  0  0  0  0  0  0  0  0  0  0  0
  -22.3719  -24.7077   19.9670 C   0  0  0  0  0  0  0  0  0  0  0  0
  -22.2758  -23.2402   19.5785 C   0  0  0  0  0  0  0  0  0  1  0  0
  -29.5204  -18.5185   20.7489 C   0  0  1  0  0  0  0  0  0  0  0  0
  -31.6451  -20.6803   18.4726 C   0  0  2  0  0  0  0  0  0  0  0  0
  -30.1427  -17.8212   21.9914 C   0  0  0  0  0  0  0  0  0  0  0  0
  -20.4736  -24.2025   23.6395 N   0  0  0  0  0  0  0  0  0  0  0  0
  -22.5850  -28.6263   21.5915 N   0  0  0  0  0  0  0  0  0  0  0  0
  -19.8822  -24.5541   22.4850 N   0  0  0  0  0  0  0  0  0  0  0  0
  -27.2882  -17.9812   19.8255 N   0  0  0  0  0  0  0  0  0  0  0  0
  -20.4633  -28.3319   22.5505 N   0  0  0  0  0  0  0  0  0  0  0  0
  -18.9625  -23.6715   20.4885 N   0  0  0  0  0  0  0  0  0  0  0  0
  -20.3188  -19.9910   22.7270 N   0  0  0  0  0  0  0  0  0  0  0  0
  -23.8081  -26.6123   20.2079 N   0  0  0  0  0  0  0  0  0  0  0  0
  -25.3451  -15.0024   20.1108 N   0  0  0  0  0  0  0  0  0  0  0  0
  -30.5008  -19.0474   19.8069 N   0  0  0  0  0  0  0  0  0  0  0  0
  -31.2315  -21.7676   17.5411 N   0  3  0  0  0  0  0  0  0  0  0  0
  -19.3361  -20.7383   20.7945 O   0  0  0  0  0  0  0  0  0  0  0  0
  -25.4957  -16.9023   21.4488 O   0  0  0  0  0  0  0  0  0  0  0  0
  -29.1070  -16.5678   19.4642 O   0  0  0  0  0  0  0  0  0  0  0  0
  -24.7269  -24.5848   19.4595 O   0  0  0  0  0  0  0  0  0  0  0  0
  -29.7722  -21.2472   19.8897 O   0  0  0  0  0  0  0  0  0  0  0  0
  -21.1236  -30.4033   21.7835 O   0  0  0  0  0  0  0  0  0  0  0  0
  -22.7776  -19.8957   27.7250 O   0  0  0  0  0  0  0  0  0  0  0  0
  -23.0971  -22.4642   20.4501 O   0  0  0  0  0  0  0  0  0  1  0  0
  -26.2486  -15.8259   26.3861 F   0  0  0  0  0  0  0  0  0  0  0  0
  -25.3934  -19.9108   28.6194 F   0  0  0  0  0  0  0  0  0  0  0  0
  1  2  1  0  0  0  0
  1  5  2  0  0  0  0
  2  6  2  0  0  0  0
  3 10  2  0  0  0  0
  3 18  1  0  0  0  0
  4 11  1  0  0  0  0
  4 18  2  0  0  0  0
  5 21  1  0  0  0  0
  6 23  1  0  0  0  0
  7 12  2  0  0  0  0
  7 22  1  0  0  0  0
  8  9  2  0  0  0  0
  8 25  1  0  0  0  0
  9 26  1  0  0  0  0
 10 27  1  0  0  0  0
 11 27  2  0  0  0  0
 12 28  1  0  0  0  0
 13 14  2  0  0  0  0
 13 29  1  0  0  0  0
 14 30  1  0  0  0  0
 15 19  1  0  0  0  0
 15 25  2  0  0  0  0
 16 24  1  0  0  0  0
 16 28  2  0  0  0  0
 17 30  2  0  0  0  0
 17 31  1  0  0  0  0
 18 32  1  0  0  0  0
 19 26  2  0  0  0  0
 19 34  1  0  0  0  0
 20 32  1  0  0  0  0
 20 33  2  0  0  0  0
 20 35  1  0  0  0  0
 21 23  2  0  0  0  0
 21 41  1  0  0  0  0
 22 24  2  0  0  0  0
 22 42  1  0  0  0  0
 23 50  1  0  0  0  0
 24 43  1  0  0  0  0
 25 53  1  0  0  0  0
 26 71  1  0  0  0  0
 27 81  1  0  0  0  0
 28 82  1  0  0  0  0
 29 31  2  0  0  0  0
 29 81  1  0  0  0  0
 30 83  1  0  0  0  0
 31 84  1  0  0  0  0
 32 64  2  0  0  0  0
 33 66  1  0  0  0  0
 33 69  1  0  0  0  0
 34 65  2  0  0  0  0
 35 70  1  0  0  0  0
 35 75  2  0  0  0  0
 36 51  1  0  0  0  0
 36 72  1  0  0  0  0
 36 76  2  0  0  0  0
 37 61  1  0  0  0  0
 37 67  1  0  0  0  0
 37 77  2  0  0  0  0
 38 59  1  0  0  0  0
 38 71  1  0  0  0  0
 38 78  2  0  0  0  0
 39 62  1  0  0  0  0
 39 73  1  0  0  0  0
 39 79  2  0  0  0  0
 40 65  1  0  0  0  0
 40 68  1  0  0  0  0
 40 80  2  0  0  0  0
 41 44  1  0  0  0  0
 42 51  1  0  0  0  0
 43 67  1  0  0  0  0
 44 46  1  0  0  0  0
 45 47  1  0  0  0  0
 45 48  1  0  0  0  0
 46 50  1  0  0  0  0
 47 52  1  0  0  0  0
 48 68  1  0  0  0  0
 49 52  1  0  0  0  0
 49 68  1  0  0  0  0
 50 72  1  0  0  0  0
 51 67  1  0  0  0  0
 52 66  1  0  0  0  0
 54 62  1  0  0  0  0
 55 63  1  0  0  0  0
 56 63  1  0  0  0  0
 57 63  1  0  0  0  0
 58 74  1  0  0  0  0
 59 60  1  0  0  0  0
 60 82  1  0  0  0  0
 61 63  1  0  0  0  0
 61 73  1  0  0  0  0
 62 74  1  0  0  0  0
 64 66  1  0  0  0  0
M  CHG  1  74   1
M  ISO  4  40 100  60 101  65 100  82 101
M  END
> <Batch ID>
0059

> <Smiles>
CNC(C)C(=O)NC(C(=O)N1Cc2cc([101O:1][101CH2:1]CC(=O)Nc3ccc(C)cc3C=[100N:0][100C:0](=O)N3CCCC(n4nc(-c5ccc(Oc6ccc(F)cc6F)cc5)c(C(N)=O)c4N)C3)ccc2CC1C(=O)NC1CCCc2ccccc21)C(C)(C)C

> <Shape>
0.192

> <Color>
0.082

> <Negative vol penalty>
0.000

$$$$

  -OEChem-04042323013D

 84 92  0     1  0  0  0  0  0999 V2000
  -23.2184  -23.8566   18.5718 C   0  0  0  0  0  0  0  0  0  0  0  0
  -24.3493  -23.1384   18.9470 C   0  0  0  0  0  0  0  0  0  0  0  0
  -32.2552  -23.5696   24.3699 C   0  0  0  0  0  0  0  0  0  0  0  0
  -22.8512  -27.3924   20.7541 C   0  0  0  0  0  0  0  0  0  0  0  0
  -24.0352  -27.3014   22.8581 C   0  0  0  0  0  0  0  0  0  0  0  0
  -21.9570  -23.4388   18.9939 C   0  0  0  0  0  0  0  0  0  0  0  0
  -24.2194  -22.0027   19.7455 C   0  0  0  0  0  0  0  0  0  0  0  0
  -27.0466  -18.1370   18.0996 C   0  0  0  0  0  0  0  0  0  0  0  0
  -31.5668  -24.2762   23.3839 C   0  0  0  0  0  0  0  0  0  0  0  0
  -32.9120  -22.3821   24.0470 C   0  0  0  0  0  0  0  0  0  0  0  0
  -21.6590  -27.0899   21.4118 C   0  0  0  0  0  0  0  0  0  0  0  0
  -22.8430  -26.9989   23.5159 C   0  0  0  0  0  0  0  0  0  0  0  0
  -28.4097  -18.1763   18.3897 C   0  0  0  0  0  0  0  0  0  0  0  0
  -19.3659  -28.7200   23.2872 C   0  0  0  0  0  0  0  0  0  0  0  0
  -18.2349  -29.4657   22.9548 C   0  0  0  0  0  0  0  0  0  0  0  0
  -28.0565  -16.6532   20.2266 C   0  0  0  0  0  0  0  0  0  0  0  0
  -32.1917  -22.6079   21.7519 C   0  0  0  0  0  0  0  0  0  0  0  0
  -17.1087  -27.4458   22.2557 C   0  0  0  0  0  0  0  0  0  0  0  0
  -24.0394  -27.4981   21.4772 C   0  0  0  0  0  0  0  0  0  0  0  0
  -25.8065  -29.0886   20.5525 C   0  0  0  0  0  0  0  0  0  0  0  0
  -21.8107  -22.2919   19.7899 C   0  0  0  0  0  0  0  0  0  0  0  0
  -26.1750  -17.3628   18.8789 C   0  0  0  0  0  0  0  0  0  0  0  0
  -22.9550  -21.5700   20.1798 C   0  0  0  0  0  0  0  0  0  0  0  0
  -26.6831  -16.6038   19.9428 C   0  0  0  0  0  0  0  0  0  0  0  0
  -31.5350  -23.7954   22.0749 C   0  0  0  0  0  0  0  0  0  0  0  0
  -32.8802  -21.9012   22.7380 C   0  0  0  0  0  0  0  0  0  0  0  0
  -21.6549  -26.8932   22.7928 C   0  0  0  0  0  0  0  0  0  0  0  0
  -28.9144  -17.4366   19.4551 C   0  0  0  0  0  0  0  0  0  0  0  0
  -19.3683  -27.3373   23.1038 C   0  0  0  0  0  0  0  0  0  0  0  0
  -17.1063  -28.8286   22.4391 C   0  0  0  0  0  0  0  0  0  0  0  0
  -18.2397  -26.7001   22.5881 C   0  0  0  0  0  0  0  0  0  0  0  0
  -25.2713  -27.8099   20.7981 C   0  0  0  0  0  0  0  0  0  0  0  0
  -26.9806  -28.8465   19.8823 C   0  0  0  0  0  0  0  0  0  0  0  0
  -25.2886  -30.3798   20.8993 C   0  0  0  0  0  0  0  0  0  0  0  0
  -23.6666  -17.9860   20.7291 C   0  0  0  0  0  0  0  0  0  0  0  0
  -23.4733  -14.7520   20.8893 C   0  0  0  0  0  0  0  0  0  0  0  0
  -25.0567  -11.7390   20.6405 C   0  0  0  0  0  0  0  0  0  0  0  0
  -30.7041  -24.1756   19.7273 C   0  0  0  0  0  0  0  0  0  0  0  0
  -20.4308  -21.9062   20.2610 C   0  0  0  0  0  0  0  0  0  0  0  0
  -24.7114  -17.3101   18.5364 C   0  0  0  0  0  0  0  0  0  0  0  0
  -25.7927  -15.7406   20.7975 C   0  0  0  0  0  0  0  0  0  0  0  0
  -20.3462  -20.4785   20.7945 C   0  0  0  0  0  0  0  0  0  0  0  0
  -29.0333  -25.6598   16.9555 C   0  0  0  0  0  0  0  0  0  0  0  0
  -21.5048  -20.1943   21.7451 C   0  0  0  0  0  0  0  0  0  0  0  0
  -27.9315  -26.5008   17.6043 C   0  0  0  0  0  0  0  0  0  0  0  0
  -29.2656  -24.3511   17.7086 C   0  0  0  0  0  0  0  0  0  0  0  0
  -28.4118  -25.3400   19.7972 C   0  0  0  0  0  0  0  0  0  0  0  0
  -22.8528  -20.3186   21.0247 C   0  0  1  0  0  0  0  0  0  0  0  0
  -23.8368  -16.8912   19.7142 C   0  0  1  0  0  0  0  0  0  0  0  0
  -28.1864  -26.6975   19.1115 C   0  0  2  0  0  0  0  0  0  0  0  0
  -24.6458   -9.2734   20.8625 C   0  0  0  0  0  0  0  0  0  0  0  0
  -23.4773  -15.0273   23.9281 C   0  0  0  0  0  0  0  0  0  0  0  0
  -24.0218  -12.5883   24.0787 C   0  0  0  0  0  0  0  0  0  0  0  0
  -21.8778  -13.3238   23.0371 C   0  0  0  0  0  0  0  0  0  0  0  0
  -25.7873  -11.2452   17.8154 C   0  0  0  0  0  0  0  0  0  0  0  0
  -32.0795  -18.8608   20.4204 C   0  0  0  0  0  0  0  0  0  0  0  0
  -30.9430  -18.6775   19.4262 C   0  0  0  0  0  0  0  0  0  1  0  0
  -31.5651  -18.9699   21.8452 C   0  0  0  0  0  0  0  0  0  0  0  0
  -24.0491  -13.6901   21.7948 C   0  0  1  0  0  0  0  0  0  0  0  0
  -24.6811  -10.4608   19.9129 C   0  0  2  0  0  0  0  0  0  0  0  0
  -23.3733  -13.6750   23.1950 C   0  0  0  0  0  0  0  0  0  0  0  0
  -26.0422  -26.8283   20.3225 N   0  0  0  0  0  0  0  0  0  0  0  0
  -27.0736  -27.4903   19.7712 N   0  0  0  0  0  0  0  0  0  0  0  0
  -24.3679  -15.7273   20.4267 N   0  0  0  0  0  0  0  0  0  0  0  0
  -29.5046  -24.6160   19.1290 N   0  0  0  0  0  0  0  0  0  0  0  0
  -27.9323  -29.6634   19.3829 N   0  0  0  0  0  0  0  0  0  0  0  0
  -24.0695  -30.4480   21.5874 N   0  0  0  0  0  0  0  0  0  0  0  0
  -30.8347  -24.5133   21.0740 N   0  0  0  0  0  0  0  0  0  0  0  0
  -33.5585  -20.6768   22.4053 N   0  0  0  0  0  0  0  0  0  0  0  0
  -23.1065  -19.1424   20.2206 N   0  0  0  0  0  0  0  0  0  0  0  0
  -23.9424  -12.4306   21.0663 N   0  0  0  0  0  0  0  0  0  0  0  0
  -25.6669  -10.1703   18.8337 N   0  3  0  0  0  0  0  0  0  0  0  0
  -25.8810  -31.4423   20.5931 O   0  0  0  0  0  0  0  0  0  0  0  0
  -24.0161  -17.7952   21.8880 O   0  0  0  0  0  0  0  0  0  0  0  0
  -22.2754  -14.7132   20.5974 O   0  0  0  0  0  0  0  0  0  0  0  0
  -26.2221  -12.0872   20.8170 O   0  0  0  0  0  0  0  0  0  0  0  0
  -31.5652  -23.5691   19.0848 O   0  0  0  0  0  0  0  0  0  0  0  0
  -33.8602  -18.1491   22.7544 O   0  0  0  0  0  0  0  0  0  0  0  0
  -32.3194  -19.3871   24.3159 O   0  0  0  0  0  0  0  0  0  0  0  0
  -20.4916  -26.5983   23.4350 O   0  0  0  0  0  0  0  0  0  0  0  0
  -30.2444  -17.4737   19.7408 O   0  0  0  0  0  0  0  0  0  1  0  0
  -16.0197  -29.5446   22.1214 F   0  0  0  0  0  0  0  0  0  0  0  0
  -18.2357  -25.3719   22.4107 F   0  0  0  0  0  0  0  0  0  0  0  0
  -32.8872  -19.2054   22.9898 S   0  0  0  0  0  0  0  0  0  0  0  0
  1  2  1  0  0  0  0
  1  6  2  0  0  0  0
  2  7  2  0  0  0  0
  3  9  1  0  0  0  0
  3 10  2  0  0  0  0
  4 11  2  0  0  0  0
  4 19  1  0  0  0  0
  5 12  1  0  0  0  0
  5 19  2  0  0  0  0
  6 21  1  0  0  0  0
  7 23  1  0  0  0  0
  8 13  2  0  0  0  0
  8 22  1  0  0  0  0
  9 25  2  0  0  0  0
 10 26  1  0  0  0  0
 11 27  1  0  0  0  0
 12 27  2  0  0  0  0
 13 28  1  0  0  0  0
 14 15  2  0  0  0  0
 14 29  1  0  0  0  0
 15 30  1  0  0  0  0
 16 24  1  0  0  0  0
 16 28  2  0  0  0  0
 17 25  1  0  0  0  0
 17 26  2  0  0  0  0
 18 30  2  0  0  0  0
 18 31  1  0  0  0  0
 19 32  1  0  0  0  0
 20 32  1  0  0  0  0
 20 33  2  0  0  0  0
 20 34  1  0  0  0  0
 21 23  2  0  0  0  0
 21 39  1  0  0  0  0
 22 24  2  0  0  0  0
 22 40  1  0  0  0  0
 23 48  1  0  0  0  0
 24 41  1  0  0  0  0
 25 68  1  0  0  0  0
 26 69  1  0  0  0  0
 27 80  1  0  0  0  0
 28 81  1  0  0  0  0
 29 31  2  0  0  0  0
 29 80  1  0  0  0  0
 30 82  1  0  0  0  0
 31 83  1  0  0  0  0
 32 62  2  0  0  0  0
 33 63  1  0  0  0  0
 33 66  1  0  0  0  0
 34 67  1  0  0  0  0
 34 73  2  0  0  0  0
 35 49  1  0  0  0  0
 35 70  1  0  0  0  0
 35 74  2  0  0  0  0
 36 59  1  0  0  0  0
 36 64  1  0  0  0  0
 36 75  2  0  0  0  0
 37 60  1  0  0  0  0
 37 71  1  0  0  0  0
 37 76  2  0  0  0  0
 38 65  1  0  0  0  0
 38 68  1  0  0  0  0
 38 77  2  0  0  0  0
 39 42  1  0  0  0  0
 40 49  1  0  0  0  0
 41 64  1  0  0  0  0
 42 44  1  0  0  0  0
 43 45  1  0  0  0  0
 43 46  1  0  0  0  0
 44 48  1  0  0  0  0
 45 50  1  0  0  0  0
 46 65  1  0  0  0  0
 47 50  1  0  0  0  0
 47 65  1  0  0  0  0
 48 70  1  0  0  0  0
 49 64  1  0  0  0  0
 50 63  1  0  0  0  0
 51 60  1  0  0  0  0
 52 61  1  0  0  0  0
 53 61  1  0  0  0  0
 54 61  1  0  0  0  0
 55 72  1  0  0  0  0
 56 57  1  0  0  0  0
 56 58  1  0  0  0  0
 57 81  1  0  0  0  0
 58 84  1  0  0  0  0
 59 61  1  0  0  0  0
 59 71  1  0  0  0  0
 60 72  1  0  0  0  0
 62 63  1  0  0  0  0
 69 84  1  0  0  0  0
 78 84  2  0  0  0  0
 79 84  2  0  0  0  0
M  CHG  1  72   1
M  ISO  4  38 100  57 101  68 100  81 101
M  END
> <Batch ID>
0059

> <Smiles>
CNC(C)C(=O)NC(C(=O)N1Cc2cc([101O:1][101CH2:1]CCS(=O)(=O)Nc3cccc([100NH:0][100C:0](=O)N4CCCC(n5nc(-c6ccc(Oc7ccc(F)cc7F)cc6)c(C(N)=O)c5N)C4)c3)ccc2CC1C(=O)NC1CCCc2ccccc21)C(C)(C)C

> <Shape>
0.213

> <Color>
0.072

> <Negative vol penalty>
0.000

$$$$

  -OEChem-04042323013D

 86 95  0     1  0  0  0  0  0999 V2000
  -20.7016  -31.0258   27.2108 C   0  0  0  0  0  0  0  0  0  0  0  0
  -21.7336  -30.2223   26.7366 C   0  0  0  0  0  0  0  0  0  0  0  0
  -23.6113   -9.0060   20.2206 C   0  0  0  0  0  0  0  0  0  0  0  0
  -23.0540  -10.7888   21.7530 C   0  0  0  0  0  0  0  0  0  0  0  0
  -19.5723  -31.2453   26.4231 C   0  0  0  0  0  0  0  0  0  0  0  0
  -21.6363  -29.6369   25.4748 C   0  0  0  0  0  0  0  0  0  0  0  0
  -26.2088  -28.6022   21.5343 C   0  0  0  0  0  0  0  0  0  0  0  0
  -28.4343  -19.9056   19.1333 C   0  0  0  0  0  0  0  0  0  0  0  0
  -28.3363  -18.5158   19.0676 C   0  0  0  0  0  0  0  0  0  0  0  0
  -22.7533   -8.1473   20.9076 C   0  0  0  0  0  0  0  0  0  0  0  0
  -22.1960   -9.9301   22.4400 C   0  0  0  0  0  0  0  0  0  0  0  0
  -26.9588  -27.4628   21.2459 C   0  0  0  0  0  0  0  0  0  0  0  0
  -22.8081   -6.3238   23.7530 C   0  0  0  0  0  0  0  0  0  0  0  0
  -23.2704   -5.0394   24.0393 C   0  0  0  0  0  0  0  0  0  0  0  0
  -25.4938  -26.9749   19.3926 C   0  0  0  0  0  0  0  0  0  0  0  0
  -30.4265  -18.3120   20.2622 C   0  0  0  0  0  0  0  0  0  0  0  0
  -21.4476   -4.0988   22.7627 C   0  0  0  0  0  0  0  0  0  0  0  0
  -30.6255  -22.6336   19.2793 C   0  0  0  0  0  0  0  0  0  0  0  0
  -23.7617  -10.3268   20.6433 C   0  0  0  0  0  0  0  0  0  0  0  0
  -24.3258  -12.0481   18.8471 C   0  0  0  0  0  0  0  0  0  0  0  0
  -19.4655  -30.6701   25.1470 C   0  0  0  0  0  0  0  0  0  0  0  0
  -25.0874  -28.9311   20.7593 C   0  0  0  0  0  0  0  0  0  0  0  0
  -20.5040  -29.8478   24.6698 C   0  0  0  0  0  0  0  0  0  0  0  0
  -24.7328  -28.1204   19.6716 C   0  0  0  0  0  0  0  0  0  0  0  0
  -30.5244  -19.7019   20.3278 C   0  0  0  0  0  0  0  0  0  0  0  0
  -29.1374  -24.0202   20.2452 C   0  0  0  0  0  0  0  0  0  0  0  0
  -29.5284  -20.4987   19.7634 C   0  0  0  0  0  0  0  0  0  0  0  0
  -29.3324  -17.7190   19.6321 C   0  0  0  0  0  0  0  0  0  0  0  0
  -22.0456   -8.6093   22.0173 C   0  0  0  0  0  0  0  0  0  0  0  0
  -26.5997  -26.6474   20.1767 C   0  0  0  0  0  0  0  0  0  0  0  0
  -21.6654   -6.4958   22.9717 C   0  0  0  0  0  0  0  0  0  0  0  0
  -30.3592  -23.9615   19.5305 C   0  0  0  0  0  0  0  0  0  0  0  0
  -22.5903   -3.9268   23.5441 C   0  0  0  0  0  0  0  0  0  0  0  0
  -20.9853   -5.3833   22.4765 C   0  0  0  0  0  0  0  0  0  0  0  0
  -24.6483  -11.2142   19.9344 C   0  0  0  0  0  0  0  0  0  0  0  0
  -25.5046  -12.6823   18.5393 C   0  0  0  0  0  0  0  0  0  0  0  0
  -28.6943  -22.7263   20.4092 C   0  0  0  0  0  0  0  0  0  0  0  0
  -23.0726  -12.2331   18.1755 C   0  0  0  0  0  0  0  0  0  0  0  0
  -21.9773  -29.2466   21.3350 C   0  0  0  0  0  0  0  0  0  0  0  0
  -21.9103  -30.2823   18.2617 C   0  0  0  0  0  0  0  0  0  0  0  0
  -23.3696  -30.2965   15.1767 C   0  0  0  0  0  0  0  0  0  0  0  0
  -30.1334  -15.3712   20.0712 C   0  0  0  0  0  0  0  0  0  0  0  0
  -18.2046  -30.8977   24.3514 C   0  0  0  0  0  0  0  0  0  0  0  0
  -24.3046  -30.1781   21.0670 C   0  0  0  0  0  0  0  0  0  0  0  0
  -23.5496  -28.4405   18.7964 C   0  0  0  0  0  0  0  0  0  0  0  0
  -18.3452  -30.5447   22.8729 C   0  0  0  0  0  0  0  0  0  0  0  0
  -30.2279  -11.8126   20.1377 C   0  0  0  0  0  0  0  0  0  0  0  0
  -19.0296  -29.1912   22.7099 C   0  0  0  0  0  0  0  0  0  0  0  0
  -28.7582  -11.4083   20.0013 C   0  0  0  0  0  0  0  0  0  0  0  0
  -30.3929  -13.0743   20.9831 C   0  0  0  0  0  0  0  0  0  0  0  0
  -28.1135  -13.8166   20.4154 C   0  0  0  0  0  0  0  0  0  0  0  0
  -20.4464  -29.2153   23.2962 C   0  0  1  0  0  0  0  0  0  0  0  0
  -22.8784  -30.1368   20.5268 C   0  0  1  0  0  0  0  0  0  0  0  0
  -27.8917  -12.5879   19.5183 C   0  0  2  0  0  0  0  0  0  0  0  0
  -31.7097  -20.3061   21.0100 C   0  0  0  0  0  0  0  0  0  0  0  0
  -23.0626  -31.2017   12.8564 C   0  0  0  0  0  0  0  0  0  0  0  0
  -19.7425  -28.1997   17.7386 C   0  0  0  0  0  0  0  0  0  0  0  0
  -20.1560  -28.4869   15.2861 C   0  0  0  0  0  0  0  0  0  0  0  0
  -19.3465  -30.4146   16.6468 C   0  0  0  0  0  0  0  0  0  0  0  0
  -25.9145  -31.8021   15.3023 C   0  0  0  0  0  0  0  0  0  0  0  0
  -28.4509  -25.2620   20.7330 C   0  0  0  0  0  0  0  0  0  1  0  0
  -21.7327  -29.6234   16.9151 C   0  0  1  0  0  0  0  0  0  0  0  0
  -23.6938  -31.4305   14.2210 C   0  0  2  0  0  0  0  0  0  0  0  0
  -20.2656  -29.1738   16.6642 C   0  0  0  0  0  0  0  0  0  0  0  0
  -25.9316  -11.3077   20.2930 N   0  0  0  0  0  0  0  0  0  0  0  0
  -29.6069  -21.8919   19.8184 N   0  0  0  0  0  0  0  0  0  0  0  0
  -26.4257  -12.2079   19.4261 N   0  0  0  0  0  0  0  0  0  0  0  0
  -22.8121  -29.6671   19.1415 N   0  0  0  0  0  0  0  0  0  0  0  0
  -29.5457  -14.1501   20.4639 N   0  0  0  0  0  0  0  0  0  0  0  0
  -25.8326  -13.5939   17.5991 N   0  0  0  0  0  0  0  0  0  0  0  0
  -21.9621  -11.5028   18.6201 N   0  0  0  0  0  0  0  0  0  0  0  0
  -29.2333  -16.3072   19.5629 N   0  0  0  0  0  0  0  0  0  0  0  0
  -21.3563  -29.8849   22.3916 N   0  0  0  0  0  0  0  0  0  0  0  0
  -22.2455  -30.5673   15.9279 N   0  0  0  0  0  0  0  0  0  0  0  0
  -25.1684  -31.5517   14.0423 N   0  3  0  0  0  0  0  0  0  0  0  0
  -22.9454  -13.0104   17.1992 O   0  0  0  0  0  0  0  0  0  0  0  0
  -21.8532  -28.0683   21.0220 O   0  0  0  0  0  0  0  0  0  0  0  0
  -21.2777  -31.3092   18.5206 O   0  0  0  0  0  0  0  0  0  0  0  0
  -24.0438  -29.2713   15.2470 O   0  0  0  0  0  0  0  0  0  0  0  0
  -31.3495  -15.5619   20.1524 O   0  0  0  0  0  0  0  0  0  0  0  0
  -31.1437  -24.9785   19.1463 O   0  0  0  0  0  0  0  0  0  0  0  0
  -27.6067  -22.2530   21.0066 O   0  0  0  0  0  0  0  0  0  0  0  0
  -21.2081   -7.7717   22.6877 O   0  0  0  0  0  0  0  0  0  0  0  0
  -27.3296  -25.5344   19.8935 O   0  0  0  0  0  0  0  0  0  1  0  0
  -23.0353   -2.6935   23.8177 F   0  0  0  0  0  0  0  0  0  0  0  0
  -19.8876   -5.5422   21.7243 F   0  0  0  0  0  0  0  0  0  0  0  0
  1  2  1  0  0  0  0
  1  5  2  0  0  0  0
  2  6  2  0  0  0  0
  3 10  2  0  0  0  0
  3 19  1  0  0  0  0
  4 11  1  0  0  0  0
  4 19  2  0  0  0  0
  5 21  1  0  0  0  0
  6 23  1  0  0  0  0
  7 12  2  0  0  0  0
  7 22  1  0  0  0  0
  8  9  2  0  0  0  0
  8 27  1  0  0  0  0
  9 28  1  0  0  0  0
 10 29  1  0  0  0  0
 11 29  2  0  0  0  0
 12 30  1  0  0  0  0
 13 14  2  0  0  0  0
 13 31  1  0  0  0  0
 14 33  1  0  0  0  0
 15 24  1  0  0  0  0
 15 30  2  0  0  0  0
 16 25  1  0  0  0  0
 16 28  2  0  0  0  0
 17 33  2  0  0  0  0
 17 34  1  0  0  0  0
 18 32  2  0  0  0  0
 18 66  1  0  0  0  0
 19 35  1  0  0  0  0
 20 35  1  0  0  0  0
 20 36  2  0  0  0  0
 20 38  1  0  0  0  0
 21 23  2  0  0  0  0
 21 43  1  0  0  0  0
 22 24  2  0  0  0  0
 22 44  1  0  0  0  0
 23 52  1  0  0  0  0
 24 45  1  0  0  0  0
 25 27  2  0  0  0  0
 25 55  1  0  0  0  0
 26 32  1  0  0  0  0
 26 37  2  0  0  0  0
 26 61  1  0  0  0  0
 27 66  1  0  0  0  0
 28 72  1  0  0  0  0
 29 83  1  0  0  0  0
 30 84  1  0  0  0  0
 31 34  2  0  0  0  0
 31 83  1  0  0  0  0
 32 81  1  0  0  0  0
 33 85  1  0  0  0  0
 34 86  1  0  0  0  0
 35 65  2  0  0  0  0
 36 67  1  0  0  0  0
 36 70  1  0  0  0  0
 37 66  1  0  0  0  0
 37 82  1  0  0  0  0
 38 71  1  0  0  0  0
 38 76  2  0  0  0  0
 39 53  1  0  0  0  0
 39 73  1  0  0  0  0
 39 77  2  0  0  0  0
 40 62  1  0  0  0  0
 40 68  1  0  0  0  0
 40 78  2  0  0  0  0
 41 63  1  0  0  0  0
 41 74  1  0  0  0  0
 41 79  2  0  0  0  0
 42 69  1  0  0  0  0
 42 72  1  0  0  0  0
 42 80  2  0  0  0  0
 43 46  1  0  0  0  0
 44 53  1  0  0  0  0
 45 68  1  0  0  0  0
 46 48  1  0  0  0  0
 47 49  1  0  0  0  0
 47 50  1  0  0  0  0
 48 52  1  0  0  0  0
 49 54  1  0  0  0  0
 50 69  1  0  0  0  0
 51 54  1  0  0  0  0
 51 69  1  0  0  0  0
 52 73  1  0  0  0  0
 53 68  1  0  0  0  0
 54 67  1  0  0  0  0
 56 63  1  0  0  0  0
 57 64  1  0  0  0  0
 58 64  1  0  0  0  0
 59 64  1  0  0  0  0
 60 75  1  0  0  0  0
 61 84  1  0  0  0  0
 62 64  1  0  0  0  0
 62 74  1  0  0  0  0
 63 75  1  0  0  0  0
 65 67  1  0  0  0  0
M  CHG  1  75   1
M  ISO  4  42 100  61 101  72 100  84 101
M  END
> <Batch ID>
0059

> <Smiles>
CNC(C)C(=O)NC(C(=O)N1Cc2cc([101O:1][101CH2:1]C3C(=O)CN(c4ccc([100NH:0][100C:0](=O)N5CCCC(n6nc(-c7ccc(Oc8ccc(F)cc8F)cc7)c(C(N)=O)c6N)C5)cc4C)C3=O)ccc2CC1C(=O)NC1CCCc2ccccc21)C(C)(C)C

> <Shape>
0.296

> <Color>
0.112

> <Negative vol penalty>
0.000

$$$$

  -OEChem-04042323013D

 84 92  0     1  0  0  0  0  0999 V2000
  -21.2289  -28.8134   15.5930 C   0  0  0  0  0  0  0  0  0  0  0  0
  -21.8621  -27.9401   16.4714 C   0  0  0  0  0  0  0  0  0  0  0  0
  -23.1057   -9.8157   21.4474 C   0  0  0  0  0  0  0  0  0  0  0  0
  -23.7873  -10.7553   23.5663 C   0  0  0  0  0  0  0  0  0  0  0  0
  -21.4151  -30.1889   15.7240 C   0  0  0  0  0  0  0  0  0  0  0  0
  -22.6829  -28.4418   17.4809 C   0  0  0  0  0  0  0  0  0  0  0  0
  -21.8571  -26.2041   21.9481 C   0  0  0  0  0  0  0  0  0  0  0  0
  -22.3767   -8.8333   22.1174 C   0  0  0  0  0  0  0  0  0  0  0  0
  -23.0582   -9.7729   24.2364 C   0  0  0  0  0  0  0  0  0  0  0  0
  -22.4096  -24.9383   22.1379 C   0  0  0  0  0  0  0  0  0  0  0  0
  -23.0041   -5.9220   23.7158 C   0  0  0  0  0  0  0  0  0  0  0  0
  -23.1230   -4.6073   23.2652 C   0  0  0  0  0  0  0  0  0  0  0  0
  -24.2243  -25.9240   23.3848 C   0  0  0  0  0  0  0  0  0  0  0  0
  -29.6689  -18.2720   21.5301 C   0  0  0  0  0  0  0  0  0  0  0  0
  -20.7489   -4.5448   22.8213 C   0  0  0  0  0  0  0  0  0  0  0  0
  -31.8523  -17.3414   21.3778 C   0  0  0  0  0  0  0  0  0  0  0  0
  -23.8110  -10.7767   22.1718 C   0  0  0  0  0  0  0  0  0  0  0  0
  -24.1069  -13.0567   21.0666 C   0  0  0  0  0  0  0  0  0  0  0  0
  -22.2309  -30.7082   16.7416 C   0  0  0  0  0  0  0  0  0  0  0  0
  -22.4908  -27.3425   22.4668 C   0  0  0  0  0  0  0  0  0  0  0  0
  -22.8813  -29.8255   17.6249 C   0  0  0  0  0  0  0  0  0  0  0  0
  -23.6764  -27.2029   23.2024 C   0  0  0  0  0  0  0  0  0  0  0  0
  -30.4857  -17.1959   21.2016 C   0  0  0  0  0  0  0  0  0  0  0  0
  -30.2356  -19.4443   22.0180 C   0  0  0  0  0  0  0  0  0  0  0  0
  -22.3529   -8.8119   23.5119 C   0  0  0  0  0  0  0  0  0  0  0  0
  -23.5949  -24.7983   22.8539 C   0  0  0  0  0  0  0  0  0  0  0  0
  -21.7576   -6.5481   23.7192 C   0  0  0  0  0  0  0  0  0  0  0  0
  -21.9954   -3.9187   22.8179 C   0  0  0  0  0  0  0  0  0  0  0  0
  -20.6300   -5.8595   23.2719 C   0  0  0  0  0  0  0  0  0  0  0  0
  -24.5648  -11.7914   21.4801 C   0  0  0  0  0  0  0  0  0  0  0  0
  -31.6133  -19.4891   22.1580 C   0  0  0  0  0  0  0  0  0  0  0  0
  -25.1957  -13.6348   20.4610 C   0  0  0  0  0  0  0  0  0  0  0  0
  -22.8130  -13.6560   21.2165 C   0  0  0  0  0  0  0  0  0  0  0  0
  -23.7664  -29.9684   21.2094 C   0  0  0  0  0  0  0  0  0  0  0  0
  -24.0709  -30.8395   24.3192 C   0  0  0  0  0  0  0  0  0  0  0  0
  -28.0252  -20.6266   22.2607 C   0  0  0  0  0  0  0  0  0  0  0  0
  -24.3156  -29.8817   27.5856 C   0  0  0  0  0  0  0  0  0  0  0  0
  -30.6312  -14.8357   20.3329 C   0  0  0  0  0  0  0  0  0  0  0  0
  -22.4395  -32.2001   16.8144 C   0  0  0  0  0  0  0  0  0  0  0  0
  -21.8678  -28.6982   22.2761 C   0  0  0  0  0  0  0  0  0  0  0  0
  -24.3852  -28.3913   23.7971 C   0  0  0  0  0  0  0  0  0  0  0  0
  -23.0268  -32.6689   18.1431 C   0  0  0  0  0  0  0  0  0  0  0  0
  -29.6453  -11.6470   19.0930 C   0  0  0  0  0  0  0  0  0  0  0  0
  -24.2036  -31.7866   18.5476 C   0  0  0  0  0  0  0  0  0  0  0  0
  -28.1980  -11.5044   19.5695 C   0  0  0  0  0  0  0  0  0  0  0  0
  -30.5146  -12.3621   20.1259 C   0  0  0  0  0  0  0  0  0  0  0  0
  -28.5481  -13.5143   21.0610 C   0  0  0  0  0  0  0  0  0  0  0  0
  -23.7596  -30.3326   18.7481 C   0  0  1  0  0  0  0  0  0  0  0  0
  -22.8703  -29.8404   22.4087 C   0  0  1  0  0  0  0  0  0  0  0  0
  -27.6193  -12.8577   20.0267 C   0  0  2  0  0  0  0  0  0  0  0  0
  -32.2808  -20.7200   22.6801 C   0  0  0  0  0  0  0  0  0  0  0  0
  -24.5929  -30.8176   29.8975 C   0  0  0  0  0  0  0  0  0  0  0  0
  -27.0288  -31.3376   23.7601 C   0  0  0  0  0  0  0  0  0  0  0  0
  -27.4248  -31.3360   26.2322 C   0  0  0  0  0  0  0  0  0  0  0  0
  -25.9371  -33.0580   25.2102 C   0  0  0  0  0  0  0  0  0  0  0  0
  -21.7253  -28.7605   28.4758 C   0  0  0  0  0  0  0  0  0  0  0  0
  -27.5386  -21.9920   22.7262 C   0  0  0  0  0  0  0  0  0  0  0  0
  -26.0228  -22.1349   22.6436 C   0  0  0  0  0  0  0  0  0  0  0  0
  -25.5569  -23.4891   23.1583 C   0  0  0  0  0  0  0  0  0  1  0  0
  -25.1323  -30.6672   25.3787 C   0  0  1  0  0  0  0  0  0  0  0  0
  -23.6026  -30.3686   28.8343 C   0  0  2  0  0  0  0  0  0  0  0  0
  -26.3687  -31.5773   25.1326 C   0  0  0  0  0  0  0  0  0  0  0  0
  -32.4393  -18.4643   21.8493 N   0  0  0  0  0  0  0  0  0  0  0  0
  -25.8447  -11.5775   21.1638 N   0  0  0  0  0  0  0  0  0  0  0  0
  -26.2004  -12.7162   20.5450 N   0  0  0  0  0  0  0  0  0  0  0  0
  -23.7399  -29.6963   23.5780 N   0  0  0  0  0  0  0  0  0  0  0  0
  -29.9060  -13.6381   20.5083 N   0  0  0  0  0  0  0  0  0  0  0  0
  -25.3822  -14.8341   19.8700 N   0  0  0  0  0  0  0  0  0  0  0  0
  -21.8084  -12.9236   21.8636 N   0  0  0  0  0  0  0  0  0  0  0  0
  -29.4117  -20.5446   22.3545 N   0  0  0  0  0  0  0  0  0  0  0  0
  -29.9384  -15.9885   20.7012 N   0  0  0  0  0  0  0  0  0  0  0  0
  -23.0910  -30.1794   20.0225 N   0  0  0  0  0  0  0  0  0  0  0  0
  -24.4708  -30.8914   26.6596 N   0  0  0  0  0  0  0  0  0  0  0  0
  -22.7594  -29.2812   29.4066 N   0  3  0  0  0  0  0  0  0  0  0  0
  -22.5508  -14.8004   20.7748 O   0  0  0  0  0  0  0  0  0  0  0  0
  -24.9807  -29.8836   21.3507 O   0  0  0  0  0  0  0  0  0  0  0  0
  -23.5493  -31.9460   24.1601 O   0  0  0  0  0  0  0  0  0  0  0  0
  -27.2523  -19.7592   21.8676 O   0  0  0  0  0  0  0  0  0  0  0  0
  -24.6999  -28.7225   27.4473 O   0  0  0  0  0  0  0  0  0  0  0  0
  -31.7719  -14.8407   19.8631 O   0  0  0  0  0  0  0  0  0  0  0  0
  -21.6414   -7.8536   24.1662 O   0  0  0  0  0  0  0  0  0  0  0  0
  -24.1367  -23.5639   23.0401 O   0  0  0  0  0  0  0  0  0  1  0  0
  -22.1099   -2.6567   22.3837 F   0  0  0  0  0  0  0  0  0  0  0  0
  -19.4301   -6.4561   23.2717 F   0  0  0  0  0  0  0  0  0  0  0  0
  1  2  1  0  0  0  0
  1  5  2  0  0  0  0
  2  6  2  0  0  0  0
  3  8  2  0  0  0  0
  3 17  1  0  0  0  0
  4  9  1  0  0  0  0
  4 17  2  0  0  0  0
  5 19  1  0  0  0  0
  6 21  1  0  0  0  0
  7 10  2  0  0  0  0
  7 20  1  0  0  0  0
  8 25  1  0  0  0  0
  9 25  2  0  0  0  0
 10 26  1  0  0  0  0
 11 12  2  0  0  0  0
 11 27  1  0  0  0  0
 12 28  1  0  0  0  0
 13 22  1  0  0  0  0
 13 26  2  0  0  0  0
 14 23  2  0  0  0  0
 14 24  1  0  0  0  0
 15 28  2  0  0  0  0
 15 29  1  0  0  0  0
 16 23  1  0  0  0  0
 16 63  2  0  0  0  0
 17 30  1  0  0  0  0
 18 30  1  0  0  0  0
 18 32  2  0  0  0  0
 18 33  1  0  0  0  0
 19 21  2  0  0  0  0
 19 39  1  0  0  0  0
 20 22  2  0  0  0  0
 20 40  1  0  0  0  0
 21 48  1  0  0  0  0
 22 41  1  0  0  0  0
 23 71  1  0  0  0  0
 24 31  2  0  0  0  0
 24 70  1  0  0  0  0
 25 81  1  0  0  0  0
 26 82  1  0  0  0  0
 27 29  2  0  0  0  0
 27 81  1  0  0  0  0
 28 83  1  0  0  0  0
 29 84  1  0  0  0  0
 30 64  2  0  0  0  0
 31 51  1  0  0  0  0
 31 63  1  0  0  0  0
 32 65  1  0  0  0  0
 32 68  1  0  0  0  0
 33 69  1  0  0  0  0
 33 75  2  0  0  0  0
 34 49  1  0  0  0  0
 34 72  1  0  0  0  0
 34 76  2  0  0  0  0
 35 60  1  0  0  0  0
 35 66  1  0  0  0  0
 35 77  2  0  0  0  0
 36 57  1  0  0  0  0
 36 70  1  0  0  0  0
 36 78  2  0  0  0  0
 37 61  1  0  0  0  0
 37 73  1  0  0  0  0
 37 79  2  0  0  0  0
 38 67  1  0  0  0  0
 38 71  1  0  0  0  0
 38 80  2  0  0  0  0
 39 42  1  0  0  0  0
 40 49  1  0  0  0  0
 41 66  1  0  0  0  0
 42 44  1  0  0  0  0
 43 45  1  0  0  0  0
 43 46  1  0  0  0  0
 44 48  1  0  0  0  0
 45 50  1  0  0  0  0
 46 67  1  0  0  0  0
 47 50  1  0  0  0  0
 47 67  1  0  0  0  0
 48 72  1  0  0  0  0
 49 66  1  0  0  0  0
 50 65  1  0  0  0  0
 52 61  1  0  0  0  0
 53 62  1  0  0  0  0
 54 62  1  0  0  0  0
 55 62  1  0  0  0  0
 56 74  1  0  0  0  0
 57 58  1  0  0  0  0
 58 59  1  0  0  0  0
 59 82  1  0  0  0  0
 60 62  1  0  0  0  0
 60 73  1  0  0  0  0
 61 74  1  0  0  0  0
 64 65  1  0  0  0  0
M  CHG  1  74   1
M  ISO  4  38 100  59 101  71 100  82 101
M  END
> <Batch ID>
0059

> <Smiles>
CNC(C)C(=O)NC(C(=O)N1Cc2cc([101O:1][101CH2:1]CCC(=O)Nc3cc([100NH:0][100C:0](=O)N4CCCC(n5nc(-c6ccc(Oc7ccc(F)cc7F)cc6)c(C(N)=O)c5N)C4)cnc3C)ccc2CC1C(=O)NC1CCCc2ccccc21)C(C)(C)C

> <Shape>
0.276

> <Color>
0.186

> <Negative vol penalty>
0.000

$$$$

  -OEChem-04042323013D

 84 92  0     1  0  0  0  0  0999 V2000
  -23.4995   -8.0161   22.9155 C   0  0  0  0  0  0  0  0  0  0  0  0
  -24.3195   -8.9671   22.3165 C   0  0  0  0  0  0  0  0  0  0  0  0
  -26.9632  -19.9028   17.3299 C   0  0  0  0  0  0  0  0  0  0  0  0
  -25.8714  -31.5583   21.3595 C   0  0  0  0  0  0  0  0  0  0  0  0
  -25.6997  -30.1847   23.3396 C   0  0  0  0  0  0  0  0  0  0  0  0
  -28.1585  -19.6270   17.9938 C   0  0  0  0  0  0  0  0  0  0  0  0
  -22.1173   -8.1980   22.9284 C   0  0  0  0  0  0  0  0  0  0  0  0
  -23.7575  -10.0999   21.7289 C   0  0  0  0  0  0  0  0  0  0  0  0
  -26.2416  -14.3464   22.9297 C   0  0  0  0  0  0  0  0  0  0  0  0
  -26.0857  -20.8589   17.8414 C   0  0  0  0  0  0  0  0  0  0  0  0
  -25.5877  -32.6918   22.1212 C   0  0  0  0  0  0  0  0  0  0  0  0
  -25.4159  -31.3182   24.1013 C   0  0  0  0  0  0  0  0  0  0  0  0
  -27.4357  -14.5978   22.2554 C   0  0  0  0  0  0  0  0  0  0  0  0
  -27.2386  -34.7481   24.2375 C   0  0  0  0  0  0  0  0  0  0  0  0
  -28.0230  -35.8824   24.0287 C   0  0  0  0  0  0  0  0  0  0  0  0
  -26.2797  -16.1274   20.7913 C   0  0  0  0  0  0  0  0  0  0  0  0
  -26.0518  -37.1297   23.3995 C   0  0  0  0  0  0  0  0  0  0  0  0
  -25.9274  -30.3047   21.9687 C   0  0  0  0  0  0  0  0  0  0  0  0
  -28.4762  -20.3072   19.1694 C   0  0  0  0  0  0  0  0  0  0  0  0
  -27.4883  -28.5855   20.9125 C   0  0  0  0  0  0  0  0  0  0  0  0
  -21.5387   -9.3383   22.3492 C   0  0  0  0  0  0  0  0  0  0  0  0
  -25.0534  -14.9763   22.5323 C   0  0  0  0  0  0  0  0  0  0  0  0
  -22.3661  -10.2965   21.7328 C   0  0  0  0  0  0  0  0  0  0  0  0
  -25.0724  -15.8842   21.4639 C   0  0  0  0  0  0  0  0  0  0  0  0
  -26.4035  -21.5391   19.0170 C   0  0  0  0  0  0  0  0  0  0  0  0
  -25.3600  -32.5718   23.4921 C   0  0  0  0  0  0  0  0  0  0  0  0
  -27.4543  -15.4863   21.1842 C   0  0  0  0  0  0  0  0  0  0  0  0
  -25.8608  -34.8045   24.0272 C   0  0  0  0  0  0  0  0  0  0  0  0
  -27.4296  -37.0732   23.6097 C   0  0  0  0  0  0  0  0  0  0  0  0
  -25.2674  -35.9953   23.6082 C   0  0  0  0  0  0  0  0  0  0  0  0
  -27.5988  -21.2633   19.6810 C   0  0  0  0  0  0  0  0  0  0  0  0
  -26.2199  -29.1333   21.1823 C   0  0  0  0  0  0  0  0  0  0  0  0
  -27.2286  -27.4875   20.1293 C   0  0  0  0  0  0  0  0  0  0  0  0
  -30.3651  -18.0047   20.7956 C   0  0  0  0  0  0  0  0  0  0  0  0
  -29.7558  -20.0089   19.8755 C   0  0  0  0  0  0  0  0  0  0  0  0
  -28.7853  -29.0294   21.3324 C   0  0  0  0  0  0  0  0  0  0  0  0
  -22.2460  -13.9768   21.4265 C   0  0  0  0  0  0  0  0  0  0  0  0
  -21.4581  -17.1106   21.7104 C   0  0  0  0  0  0  0  0  0  0  0  0
  -22.4970  -20.3587   21.8431 C   0  0  0  0  0  0  0  0  0  0  0  0
  -24.2837  -22.9000   18.9952 C   0  0  0  0  0  0  0  0  0  0  0  0
  -20.0361   -9.4680   22.3460 C   0  0  0  0  0  0  0  0  0  0  0  0
  -23.7790  -14.7146   23.2870 C   0  0  0  0  0  0  0  0  0  0  0  0
  -23.8281  -16.6017   21.0108 C   0  0  0  0  0  0  0  0  0  0  0  0
  -19.5473  -10.8795   22.0314 C   0  0  0  0  0  0  0  0  0  0  0  0
  -22.9591  -26.0011   17.8524 C   0  0  0  0  0  0  0  0  0  0  0  0
  -20.2918  -11.4463   20.8267 C   0  0  0  0  0  0  0  0  0  0  0  0
  -23.7937  -27.0474   18.5947 C   0  0  0  0  0  0  0  0  0  0  0  0
  -22.6787  -24.7776   18.7231 C   0  0  0  0  0  0  0  0  0  0  0  0
  -24.7015  -25.2021   20.0636 C   0  0  0  0  0  0  0  0  0  0  0  0
  -21.7958  -11.5507   21.1068 C   0  0  1  0  0  0  0  0  0  0  0  0
  -22.5273  -15.0205   22.4702 C   0  0  1  0  0  0  0  0  0  0  0  0
  -25.0646  -26.4248   19.2052 C   0  0  2  0  0  0  0  0  0  0  0  0
  -21.6190  -22.7012   22.0409 C   0  0  0  0  0  0  0  0  0  0  0  0
  -20.5787  -17.0250   18.7898 C   0  0  0  0  0  0  0  0  0  0  0  0
  -20.6216  -19.5283   18.7761 C   0  0  0  0  0  0  0  0  0  0  0  0
  -19.0603  -18.3178   20.2991 C   0  0  0  0  0  0  0  0  0  0  0  0
  -23.9611  -20.8176   24.3739 C   0  0  0  0  0  0  0  0  0  0  0  0
  -30.8591  -16.5853   20.6985 C   0  0  0  0  0  0  0  0  0  0  0  0
  -29.8262  -15.6332   21.2771 C   0  0  0  0  0  0  0  0  0  1  0  0
  -21.5367  -18.3187   20.8085 C   0  0  1  0  0  0  0  0  0  0  0  0
  -22.1477  -21.4899   22.7933 C   0  0  2  0  0  0  0  0  0  0  0  0
  -20.4726  -18.2826   19.6754 C   0  0  0  0  0  0  0  0  0  0  0  0
  -25.2280  -28.4406   20.6163 N   0  0  0  0  0  0  0  0  0  0  0  0
  -30.2182  -18.7185   19.7297 N   0  0  0  0  0  0  0  0  0  0  0  0
  -25.8732  -27.4462   19.9830 N   0  0  0  0  0  0  0  0  0  0  0  0
  -22.6056  -16.3077   21.7766 N   0  0  0  0  0  0  0  0  0  0  0  0
  -23.9289  -24.2391   19.2633 N   0  0  0  0  0  0  0  0  0  0  0  0
  -28.0296  -26.5630   19.5583 N   0  0  0  0  0  0  0  0  0  0  0  0
  -28.8720  -30.1757   22.1342 N   0  0  0  0  0  0  0  0  0  0  0  0
  -25.5094  -22.5095   19.5334 N   0  0  0  0  0  0  0  0  0  0  0  0
  -22.0767  -12.7033   21.9356 N   0  0  0  0  0  0  0  0  0  0  0  0
  -21.4427  -19.4852   21.6795 N   0  0  0  0  0  0  0  0  0  0  0  0
  -23.3510  -21.9061   23.5677 N   0  3  0  0  0  0  0  0  0  0  0  0
  -30.2986  -20.9039   20.5175 O   0  0  0  0  0  0  0  0  0  0  0  0
  -29.8374  -28.4368   20.9927 O   0  0  0  0  0  0  0  0  0  0  0  0
  -22.1853  -14.3030   20.2469 O   0  0  0  0  0  0  0  0  0  0  0  0
  -20.4193  -16.8916   22.3386 O   0  0  0  0  0  0  0  0  0  0  0  0
  -23.5940  -20.2618   21.2976 O   0  0  0  0  0  0  0  0  0  0  0  0
  -23.5667  -22.1627   18.3139 O   0  0  0  0  0  0  0  0  0  0  0  0
  -25.0833  -33.6777   24.2357 O   0  0  0  0  0  0  0  0  0  0  0  0
  -28.6183  -15.7330   20.5238 O   0  0  0  0  0  0  0  0  0  1  0  0
  -28.1828  -38.1629   23.4108 F   0  0  0  0  0  0  0  0  0  0  0  0
  -23.9441  -36.0560   23.4057 F   0  0  0  0  0  0  0  0  0  0  0  0
  -27.9038  -21.9167   20.8126 F   0  0  0  0  0  0  0  0  0  0  0  0
  1  2  1  0  0  0  0
  1  7  2  0  0  0  0
  2  8  2  0  0  0  0
  3  6  2  0  0  0  0
  3 10  1  0  0  0  0
  4 11  2  0  0  0  0
  4 18  1  0  0  0  0
  5 12  1  0  0  0  0
  5 18  2  0  0  0  0
  6 19  1  0  0  0  0
  7 21  1  0  0  0  0
  8 23  1  0  0  0  0
  9 13  2  0  0  0  0
  9 22  1  0  0  0  0
 10 25  2  0  0  0  0
 11 26  1  0  0  0  0
 12 26  2  0  0  0  0
 13 27  1  0  0  0  0
 14 15  2  0  0  0  0
 14 28  1  0  0  0  0
 15 29  1  0  0  0  0
 16 24  1  0  0  0  0
 16 27  2  0  0  0  0
 17 29  2  0  0  0  0
 17 30  1  0  0  0  0
 18 32  1  0  0  0  0
 19 31  2  0  0  0  0
 19 35  1  0  0  0  0
 20 32  1  0  0  0  0
 20 33  2  0  0  0  0
 20 36  1  0  0  0  0
 21 23  2  0  0  0  0
 21 41  1  0  0  0  0
 22 24  2  0  0  0  0
 22 42  1  0  0  0  0
 23 50  1  0  0  0  0
 24 43  1  0  0  0  0
 25 31  1  0  0  0  0
 25 70  1  0  0  0  0
 26 80  1  0  0  0  0
 27 81  1  0  0  0  0
 28 30  2  0  0  0  0
 28 80  1  0  0  0  0
 29 82  1  0  0  0  0
 30 83  1  0  0  0  0
 31 84  1  0  0  0  0
 32 63  2  0  0  0  0
 33 65  1  0  0  0  0
 33 68  1  0  0  0  0
 34 58  1  0  0  0  0
 34 64  2  0  0  0  0
 35 64  1  0  0  0  0
 35 74  2  0  0  0  0
 36 69  1  0  0  0  0
 36 75  2  0  0  0  0
 37 51  1  0  0  0  0
 37 71  1  0  0  0  0
 37 76  2  0  0  0  0
 38 60  1  0  0  0  0
 38 66  1  0  0  0  0
 38 77  2  0  0  0  0
 39 61  1  0  0  0  0
 39 72  1  0  0  0  0
 39 78  2  0  0  0  0
 40 67  1  0  0  0  0
 40 70  1  0  0  0  0
 40 79  2  0  0  0  0
 41 44  1  0  0  0  0
 42 51  1  0  0  0  0
 43 66  1  0  0  0  0
 44 46  1  0  0  0  0
 45 47  1  0  0  0  0
 45 48  1  0  0  0  0
 46 50  1  0  0  0  0
 47 52  1  0  0  0  0
 48 67  1  0  0  0  0
 49 52  1  0  0  0  0
 49 67  1  0  0  0  0
 50 71  1  0  0  0  0
 51 66  1  0  0  0  0
 52 65  1  0  0  0  0
 53 61  1  0  0  0  0
 54 62  1  0  0  0  0
 55 62  1  0  0  0  0
 56 62  1  0  0  0  0
 57 73  1  0  0  0  0
 58 59  1  0  0  0  0
 59 81  1  0  0  0  0
 60 62  1  0  0  0  0
 60 72  1  0  0  0  0
 61 73  1  0  0  0  0
 63 65  1  0  0  0  0
M  CHG  1  73   1
M  ISO  4  40 100  59 101  70 100  81 101
M  END
> <Batch ID>
0059

> <Smiles>
CNC(C)C(=O)NC(C(=O)N1Cc2cc([101O:1][101CH2:1]CC=NC(=O)c3cccc([100NH:0][100C:0](=O)N4CCCC(n5nc(-c6ccc(Oc7ccc(F)cc7F)cc6)c(C(N)=O)c5N)C4)c3F)ccc2CC1C(=O)NC1CCCc2ccccc21)C(C)(C)C

> <Shape>
0.242

> <Color>
0.076

> <Negative vol penalty>
0.000

$$$$

  -OEChem-04042323013D

 88 97  0     1  0  0  0  0  0999 V2000
  -28.0462  -33.8725   26.3799 C   0  0  0  0  0  0  0  0  0  0  0  0
  -28.1697  -32.6453   25.7363 C   0  0  0  0  0  0  0  0  0  0  0  0
  -27.4558  -19.9051   19.1254 C   0  0  0  0  0  0  0  0  0  0  0  0
  -23.0354   -9.0777   19.5525 C   0  0  0  0  0  0  0  0  0  0  0  0
  -24.6299   -8.5630   21.2931 C   0  0  0  0  0  0  0  0  0  0  0  0
  -26.7819  -34.4119   26.6131 C   0  0  0  0  0  0  0  0  0  0  0  0
  -27.0288  -31.9563   25.3265 C   0  0  0  0  0  0  0  0  0  0  0  0
  -27.4627  -30.0953   20.6368 C   0  0  0  0  0  0  0  0  0  0  0  0
  -28.5706  -20.7360   19.2358 C   0  0  0  0  0  0  0  0  0  0  0  0
  -27.6029  -18.5223   19.2354 C   0  0  0  0  0  0  0  0  0  0  0  0
  -22.0081   -8.5577   20.3398 C   0  0  0  0  0  0  0  0  0  0  0  0
  -23.6026   -8.0430   22.0804 C   0  0  0  0  0  0  0  0  0  0  0  0
  -28.2132  -28.9308   20.4808 C   0  0  0  0  0  0  0  0  0  0  0  0
  -21.8052   -5.1851   22.2613 C   0  0  0  0  0  0  0  0  0  0  0  0
  -22.0332   -3.9679   22.9030 C   0  0  0  0  0  0  0  0  0  0  0  0
  -26.1787  -27.6366   20.4083 C   0  0  0  0  0  0  0  0  0  0  0  0
  -21.6835   -5.0311   25.0441 C   0  0  0  0  0  0  0  0  0  0  0  0
  -24.3463   -9.0803   20.0291 C   0  0  0  0  0  0  0  0  0  0  0  0
  -25.8084   -9.1751   17.9408 C   0  0  0  0  0  0  0  0  0  0  0  0
  -25.6253  -33.7337   26.1974 C   0  0  0  0  0  0  0  0  0  0  0  0
  -26.0626  -30.0379   20.6907 C   0  0  0  0  0  0  0  0  0  0  0  0
  -25.7477  -32.4865   25.5556 C   0  0  0  0  0  0  0  0  0  0  0  0
  -25.4127  -28.8021   20.5625 C   0  0  0  0  0  0  0  0  0  0  0  0
  -29.8326  -20.1842   19.4560 C   0  0  0  0  0  0  0  0  0  0  0  0
  -29.9798  -18.8015   19.5660 C   0  0  0  0  0  0  0  0  0  0  0  0
  -28.8649  -17.9705   19.4556 C   0  0  0  0  0  0  0  0  0  0  0  0
  -22.2917   -8.0404   21.6037 C   0  0  0  0  0  0  0  0  0  0  0  0
  -27.5714  -27.7008   20.3694 C   0  0  0  0  0  0  0  0  0  0  0  0
  -21.5164   -6.3255   23.0109 C   0  0  0  0  0  0  0  0  0  0  0  0
  -21.9724   -3.8908   24.2944 C   0  0  0  0  0  0  0  0  0  0  0  0
  -21.4555   -6.2484   24.4023 C   0  0  0  0  0  0  0  0  0  0  0  0
  -25.4080   -9.6169   19.2161 C   0  0  0  0  0  0  0  0  0  0  0  0
  -26.8488  -10.0049   17.6010 C   0  0  0  0  0  0  0  0  0  0  0  0
  -30.4769  -22.9887   21.0601 C   0  0  0  0  0  0  0  0  0  0  0  0
  -25.2864   -8.1100   17.1353 C   0  0  0  0  0  0  0  0  0  0  0  0
  -23.8690  -30.7871   22.8657 C   0  0  0  0  0  0  0  0  0  0  0  0
  -21.8076  -30.0757   20.4643 C   0  0  0  0  0  0  0  0  0  0  0  0
  -21.2221  -28.3990   17.5502 C   0  0  0  0  0  0  0  0  0  0  0  0
  -27.9778  -15.6047   19.4780 C   0  0  0  0  0  0  0  0  0  0  0  0
  -24.2784  -34.3342   26.5138 C   0  0  0  0  0  0  0  0  0  0  0  0
  -25.2665  -31.3062   20.8326 C   0  0  0  0  0  0  0  0  0  0  0  0
  -23.9111  -28.6888   20.5938 C   0  0  0  0  0  0  0  0  0  0  0  0
  -29.9820  -24.4169   21.1907 C   0  0  0  0  0  0  0  0  0  0  0  0
  -23.1336  -33.7179   25.7138 C   0  0  0  0  0  0  0  0  0  0  0  0
  -30.0061  -12.4595   20.3251 C   0  0  0  0  0  0  0  0  0  0  0  0
  -23.2315  -32.1957   25.7278 C   0  0  0  0  0  0  0  0  0  0  0  0
  -29.3567  -11.4712   19.3591 C   0  0  0  0  0  0  0  0  0  0  0  0
  -29.8926  -24.6546   18.7320 C   0  0  0  0  0  0  0  0  0  0  0  0
  -29.8362  -13.9046   19.8738 C   0  0  0  0  0  0  0  0  0  0  0  0
  -30.6023  -23.3225   18.5667 C   0  0  0  0  0  0  0  0  0  0  0  0
  -27.4629  -13.1733   19.5758 C   0  0  0  0  0  0  0  0  0  0  0  0
  -24.5347  -31.7206   25.0740 C   0  0  1  0  0  0  0  0  0  0  0  0
  -23.8659  -31.0732   21.3907 C   0  0  1  0  0  0  0  0  0  0  0  0
  -30.3522  -25.3208   20.0221 C   0  0  1  0  0  0  0  0  0  0  0  0
  -28.0192  -11.9790   18.7849 C   0  0  2  0  0  0  0  0  0  0  0  0
  -31.5316  -17.7832   21.2516 C   0  0  0  0  0  0  0  0  0  0  0  0
  -19.4305  -27.9819   15.8432 C   0  0  0  0  0  0  0  0  0  0  0  0
  -20.4238  -28.1551   22.3895 C   0  0  0  0  0  0  0  0  0  0  0  0
  -19.2973  -27.1007   20.4178 C   0  0  0  0  0  0  0  0  0  0  0  0
  -18.8719  -29.4980   20.9603 C   0  0  0  0  0  0  0  0  0  0  0  0
  -22.8437  -29.5993   15.3849 C   0  0  0  0  0  0  0  0  0  0  0  0
  -31.3359  -18.2141   19.8024 C   0  0  0  0  0  0  0  0  0  0  0  0
  -31.0157  -21.1014   19.5709 C   0  0  0  0  0  0  0  0  0  0  0  0
  -29.7213  -26.7017   20.1809 C   0  0  0  0  0  0  0  0  0  1  0  0
  -21.1079  -28.8244   19.9915 C   0  0  1  0  0  0  0  0  0  0  0  0
  -20.6171  -28.8496   16.2328 C   0  0  2  0  0  0  0  0  0  0  0  0
  -19.9536  -28.3961   20.9411 C   0  0  0  0  0  0  0  0  0  0  0  0
  -26.1350  -10.6471   19.6566 N   0  0  0  0  0  0  0  0  0  0  0  0
  -27.0027  -10.8596   18.6526 N   0  0  0  0  0  0  0  0  0  0  0  0
  -30.6137  -22.4879   19.7672 N   0  0  0  0  0  0  0  0  0  0  0  0
  -23.1770  -29.9564   20.7406 N   0  0  0  0  0  0  0  0  0  0  0  0
  -28.4338  -14.2724   19.6305 N   0  0  0  0  0  0  0  0  0  0  0  0
  -27.6380  -10.0793   16.5082 N   0  0  0  0  0  0  0  0  0  0  0  0
  -25.8382   -6.8300   17.2810 N   0  0  0  0  0  0  0  0  0  0  0  0
  -28.9911  -16.5630   19.5647 N   0  0  0  0  0  0  0  0  0  0  0  0
  -24.4313  -31.7901   23.6321 N   0  0  0  0  0  0  0  0  0  0  0  0
  -20.6869  -29.0858   18.6193 N   0  0  0  0  0  0  0  0  0  0  0  0
  -21.6320  -28.7742   15.1441 N   0  3  0  0  0  0  0  0  0  0  0  0
  -30.6554  -22.3219   22.0831 O   0  0  0  0  0  0  0  0  0  0  0  0
  -24.3692   -8.2916   16.2990 O   0  0  0  0  0  0  0  0  0  0  0  0
  -23.3950  -29.7350   23.2782 O   0  0  0  0  0  0  0  0  0  0  0  0
  -21.1645  -31.1223   20.5772 O   0  0  0  0  0  0  0  0  0  0  0  0
  -22.0806  -27.5225   17.6237 O   0  0  0  0  0  0  0  0  0  0  0  0
  -26.7897  -15.8636   19.2751 O   0  0  0  0  0  0  0  0  0  0  0  0
  -21.2894   -7.5331   22.3723 O   0  0  0  0  0  0  0  0  0  0  0  0
  -28.3016  -26.5625   20.2177 O   0  0  0  0  0  0  0  0  0  1  0  0
  -22.1899   -2.7215   24.9104 F   0  0  0  0  0  0  0  0  0  0  0  0
  -21.1773   -7.3402   25.1279 F   0  0  0  0  0  0  0  0  0  0  0  0
  1  2  1  0  0  0  0
  1  6  2  0  0  0  0
  2  7  2  0  0  0  0
  3  9  1  0  0  0  0
  3 10  2  0  0  0  0
  4 11  2  0  0  0  0
  4 18  1  0  0  0  0
  5 12  1  0  0  0  0
  5 18  2  0  0  0  0
  6 20  1  0  0  0  0
  7 22  1  0  0  0  0
  8 13  2  0  0  0  0
  8 21  1  0  0  0  0
  9 24  2  0  0  0  0
 10 26  1  0  0  0  0
 11 27  1  0  0  0  0
 12 27  2  0  0  0  0
 13 28  1  0  0  0  0
 14 15  2  0  0  0  0
 14 29  1  0  0  0  0
 15 30  1  0  0  0  0
 16 23  1  0  0  0  0
 16 28  2  0  0  0  0
 17 30  2  0  0  0  0
 17 31  1  0  0  0  0
 18 32  1  0  0  0  0
 19 32  1  0  0  0  0
 19 33  2  0  0  0  0
 19 35  1  0  0  0  0
 20 22  2  0  0  0  0
 20 40  1  0  0  0  0
 21 23  2  0  0  0  0
 21 41  1  0  0  0  0
 22 52  1  0  0  0  0
 23 42  1  0  0  0  0
 24 25  1  0  0  0  0
 24 63  1  0  0  0  0
 25 26  2  0  0  0  0
 25 62  1  0  0  0  0
 26 75  1  0  0  0  0
 27 85  1  0  0  0  0
 28 86  1  0  0  0  0
 29 31  2  0  0  0  0
 29 85  1  0  0  0  0
 30 87  1  0  0  0  0
 31 88  1  0  0  0  0
 32 68  2  0  0  0  0
 33 69  1  0  0  0  0
 33 73  1  0  0  0  0
 34 43  1  0  0  0  0
 34 70  1  0  0  0  0
 34 79  2  0  0  0  0
 35 74  1  0  0  0  0
 35 80  2  0  0  0  0
 36 53  1  0  0  0  0
 36 76  1  0  0  0  0
 36 81  2  0  0  0  0
 37 65  1  0  0  0  0
 37 71  1  0  0  0  0
 37 82  2  0  0  0  0
 38 66  1  0  0  0  0
 38 77  1  0  0  0  0
 38 83  2  0  0  0  0
 39 72  1  0  0  0  0
 39 75  1  0  0  0  0
 39 84  2  0  0  0  0
 40 44  1  0  0  0  0
 41 53  1  0  0  0  0
 42 71  1  0  0  0  0
 43 54  1  0  0  0  0
 44 46  1  0  0  0  0
 45 47  1  0  0  0  0
 45 49  1  0  0  0  0
 46 52  1  0  0  0  0
 47 55  1  0  0  0  0
 48 50  1  0  0  0  0
 48 54  1  0  0  0  0
 49 72  1  0  0  0  0
 50 70  1  0  0  0  0
 51 55  1  0  0  0  0
 51 72  1  0  0  0  0
 52 76  1  0  0  0  0
 53 71  1  0  0  0  0
 54 64  1  0  0  0  0
 55 69  1  0  0  0  0
 56 62  1  0  0  0  0
 57 66  1  0  0  0  0
 58 67  1  0  0  0  0
 59 67  1  0  0  0  0
 60 67  1  0  0  0  0
 61 78  1  0  0  0  0
 63 70  1  0  0  0  0
 64 86  1  0  0  0  0
 65 67  1  0  0  0  0
 65 77  1  0  0  0  0
 66 78  1  0  0  0  0
 68 69  1  0  0  0  0
M  CHG  1  78   1
M  ISO  4  39 100  64 101  75 100  86 101
M  END
> <Batch ID>
0059

> <Smiles>
CCc1c(CN2CCC([101CH2:1][101O:1]c3ccc4c(c3)CN(C(=O)C(NC(=O)C(C)NC)C(C)(C)C)C(C(=O)NC3CCCc5ccccc53)C4)CC2=O)cccc1[100NH:0][100C:0](=O)N1CCCC(n2nc(-c3ccc(Oc4ccc(F)cc4F)cc3)c(C(N)=O)c2N)C1

> <Shape>
0.354

> <Color>
0.107

> <Negative vol penalty>
0.000

$$$$

  -OEChem-04042323013D

 88 97  0     1  0  0  0  0  0999 V2000
  -21.7859  -26.2913   32.7432 C   0  0  0  0  0  0  0  0  0  0  0  0
  -21.8967  -25.4715   31.6247 C   0  0  0  0  0  0  0  0  0  0  0  0
  -31.2943  -19.0925   20.5062 C   0  0  0  0  0  0  0  0  0  0  0  0
  -23.0971   -9.8358   19.9567 C   0  0  0  0  0  0  0  0  0  0  0  0
  -23.8239   -9.8989   22.2600 C   0  0  0  0  0  0  0  0  0  0  0  0
  -21.4870  -27.6442   32.5875 C   0  0  0  0  0  0  0  0  0  0  0  0
  -21.7074  -26.0038   30.3499 C   0  0  0  0  0  0  0  0  0  0  0  0
  -25.2203  -24.4447   27.0523 C   0  0  0  0  0  0  0  0  0  0  0  0
  -30.5551  -19.9127   21.3585 C   0  0  0  0  0  0  0  0  0  0  0  0
  -31.1195  -17.7091   20.5445 C   0  0  0  0  0  0  0  0  0  0  0  0
  -22.3567   -8.6838   20.2219 C   0  0  0  0  0  0  0  0  0  0  0  0
  -23.0834   -8.7469   22.5252 C   0  0  0  0  0  0  0  0  0  0  0  0
  -25.0772  -23.1603   26.5293 C   0  0  0  0  0  0  0  0  0  0  0  0
  -19.8518   -7.9422   23.0994 C   0  0  0  0  0  0  0  0  0  0  0  0
  -19.0784   -7.9236   24.2600 C   0  0  0  0  0  0  0  0  0  0  0  0
  -24.1314  -24.0923   24.5153 C   0  0  0  0  0  0  0  0  0  0  0  0
  -20.3208   -6.0111   25.0574 C   0  0  0  0  0  0  0  0  0  0  0  0
  -23.8307  -10.4433   20.9758 C   0  0  0  0  0  0  0  0  0  0  0  0
  -24.1589  -12.9673   20.8039 C   0  0  0  0  0  0  0  0  0  0  0  0
  -21.3035  -28.1955   31.3096 C   0  0  0  0  0  0  0  0  0  0  0  0
  -24.8093  -25.5638   26.3139 C   0  0  0  0  0  0  0  0  0  0  0  0
  -21.4044  -27.3651   30.1771 C   0  0  0  0  0  0  0  0  0  0  0  0
  -24.2727  -25.3900   25.0302 C   0  0  0  0  0  0  0  0  0  0  0  0
  -29.6411  -19.3496   22.2491 C   0  0  0  0  0  0  0  0  0  0  0  0
  -29.4663  -17.9663   22.2874 C   0  0  0  0  0  0  0  0  0  0  0  0
  -30.2055  -17.1460   21.4351 C   0  0  0  0  0  0  0  0  0  0  0  0
  -22.3498   -8.1393   21.5061 C   0  0  0  0  0  0  0  0  0  0  0  0
  -24.5300  -22.9837   25.2618 C   0  0  0  0  0  0  0  0  0  0  0  0
  -20.8598   -6.9951   22.9177 C   0  0  0  0  0  0  0  0  0  0  0  0
  -19.3129   -6.9581   25.2390 C   0  0  0  0  0  0  0  0  0  0  0  0
  -21.0942   -6.0296   23.8967 C   0  0  0  0  0  0  0  0  0  0  0  0
  -24.5962  -11.6330   20.7023 C   0  0  0  0  0  0  0  0  0  0  0  0
  -25.2516  -13.7154   20.4395 C   0  0  0  0  0  0  0  0  0  0  0  0
  -26.0338  -20.7911   20.7717 C   0  0  0  0  0  0  0  0  0  0  0  0
  -26.4377  -20.0623   23.5756 C   0  0  0  0  0  0  0  0  0  0  0  0
  -22.8794  -13.4842   21.1931 C   0  0  0  0  0  0  0  0  0  0  0  0
  -22.6503  -27.8586   26.7337 C   0  0  0  0  0  0  0  0  0  0  0  0
  -23.9900  -29.0737   24.0409 C   0  0  0  0  0  0  0  0  0  0  0  0
  -25.7577  -28.5110   21.1764 C   0  0  0  0  0  0  0  0  0  0  0  0
  -30.7083  -14.7995   20.6685 C   0  0  0  0  0  0  0  0  0  0  0  0
  -20.9352  -29.6534   31.1940 C   0  0  0  0  0  0  0  0  0  0  0  0
  -24.9951  -26.9443   26.8814 C   0  0  0  0  0  0  0  0  0  0  0  0
  -23.8347  -26.5599   24.1887 C   0  0  0  0  0  0  0  0  0  0  0  0
  -25.0415  -19.9178   21.4966 C   0  0  0  0  0  0  0  0  0  0  0  0
  -27.2643  -21.2271   21.5283 C   0  0  0  0  0  0  0  0  0  0  0  0
  -21.1191  -30.2185   29.7879 C   0  0  0  0  0  0  0  0  0  0  0  0
  -29.6427  -12.3263   18.3394 C   0  0  0  0  0  0  0  0  0  0  0  0
  -20.5245  -29.2717   28.7501 C   0  0  0  0  0  0  0  0  0  0  0  0
  -28.1988  -12.0352   18.7549 C   0  0  0  0  0  0  0  0  0  0  0  0
  -30.5390  -12.5878   19.5485 C   0  0  0  0  0  0  0  0  0  0  0  0
  -28.6081  -13.3307   20.8859 C   0  0  0  0  0  0  0  0  0  0  0  0
  -21.2305  -27.9107   28.7763 C   0  0  1  0  0  0  0  0  0  0  0  0
  -25.0411  -20.2240   22.9924 C   0  0  2  0  0  0  0  0  0  0  0  0
  -24.0682  -27.9792   26.2511 C   0  0  1  0  0  0  0  0  0  0  0  0
  -27.6533  -13.1250   19.6985 C   0  0  2  0  0  0  0  0  0  0  0  0
  -28.4844  -17.3667   23.2446 C   0  0  0  0  0  0  0  0  0  0  0  0
  -26.6659  -29.6932   19.1577 C   0  0  0  0  0  0  0  0  0  0  0  0
  -21.1860  -29.1754   22.8419 C   0  0  0  0  0  0  0  0  0  0  0  0
  -22.2363  -29.4402   20.5847 C   0  0  0  0  0  0  0  0  0  0  0  0
  -22.6074  -31.1714   22.3419 C   0  0  0  0  0  0  0  0  0  0  0  0
  -28.5451  -27.7965   21.8682 C   0  0  0  0  0  0  0  0  0  0  0  0
  -28.8585  -20.2554   23.1553 C   0  0  0  0  0  0  0  0  0  0  0  0
  -24.4676  -21.5971   23.3307 C   0  0  0  0  0  0  0  0  0  1  0  0
  -23.7399  -28.9215   22.5599 C   0  0  1  0  0  0  0  0  0  0  0  0
  -26.9553  -29.2244   20.5752 C   0  0  2  0  0  0  0  0  0  0  0  0
  -22.4488  -29.6548   22.0985 C   0  0  0  0  0  0  0  0  0  0  0  0
  -25.8675  -11.5359   20.3044 N   0  0  0  0  0  0  0  0  0  0  0  0
  -26.2384  -12.8187   20.1526 N   0  0  0  0  0  0  0  0  0  0  0  0
  -27.4800  -20.4081   22.7144 N   0  0  0  0  0  0  0  0  0  0  0  0
  -24.0311  -27.8893   24.7901 N   0  0  0  0  0  0  0  0  0  0  0  0
  -29.9613  -13.6344   20.3945 N   0  0  0  0  0  0  0  0  0  0  0  0
  -25.4550  -15.0462   20.3396 N   0  0  0  0  0  0  0  0  0  0  0  0
  -21.8683  -12.5764   21.5362 N   0  0  0  0  0  0  0  0  0  0  0  0
  -30.0436  -15.7385   21.4567 N   0  0  0  0  0  0  0  0  0  0  0  0
  -22.5084  -27.9913   28.1018 N   0  0  0  0  0  0  0  0  0  0  0  0
  -24.9553  -29.3743   21.8920 N   0  0  0  0  0  0  0  0  0  0  0  0
  -28.1350  -28.3147   20.5377 N   0  3  0  0  0  0  0  0  0  0  0  0
  -25.8234  -21.1780   19.6221 O   0  0  0  0  0  0  0  0  0  0  0  0
  -26.5846  -19.6417   24.7243 O   0  0  0  0  0  0  0  0  0  0  0  0
  -22.6349  -14.7143   21.2194 O   0  0  0  0  0  0  0  0  0  0  0  0
  -21.7514  -27.6615   25.9245 O   0  0  0  0  0  0  0  0  0  0  0  0
  -24.1504  -30.2014   24.5143 O   0  0  0  0  0  0  0  0  0  0  0  0
  -25.5525  -27.3090   21.0231 O   0  0  0  0  0  0  0  0  0  0  0  0
  -31.8429  -14.9650   20.2134 O   0  0  0  0  0  0  0  0  0  0  0  0
  -21.6273   -7.0154   21.7653 O   0  0  0  0  0  0  0  0  0  0  0  0
  -24.3885  -21.7311   24.7492 O   0  0  0  0  0  0  0  0  0  1  0  0
  -18.5711   -6.9413   26.3542 F   0  0  0  0  0  0  0  0  0  0  0  0
  -22.0619   -5.1180   23.7283 F   0  0  0  0  0  0  0  0  0  0  0  0
  1  2  1  0  0  0  0
  1  6  2  0  0  0  0
  2  7  2  0  0  0  0
  3  9  2  0  0  0  0
  3 10  1  0  0  0  0
  4 11  2  0  0  0  0
  4 18  1  0  0  0  0
  5 12  1  0  0  0  0
  5 18  2  0  0  0  0
  6 20  1  0  0  0  0
  7 22  1  0  0  0  0
  8 13  2  0  0  0  0
  8 21  1  0  0  0  0
  9 24  1  0  0  0  0
 10 26  2  0  0  0  0
 11 27  1  0  0  0  0
 12 27  2  0  0  0  0
 13 28  1  0  0  0  0
 14 15  2  0  0  0  0
 14 29  1  0  0  0  0
 15 30  1  0  0  0  0
 16 23  1  0  0  0  0
 16 28  2  0  0  0  0
 17 30  2  0  0  0  0
 17 31  1  0  0  0  0
 18 32  1  0  0  0  0
 19 32  1  0  0  0  0
 19 33  2  0  0  0  0
 19 36  1  0  0  0  0
 20 22  2  0  0  0  0
 20 41  1  0  0  0  0
 21 23  2  0  0  0  0
 21 42  1  0  0  0  0
 22 52  1  0  0  0  0
 23 43  1  0  0  0  0
 24 25  2  0  0  0  0
 24 62  1  0  0  0  0
 25 26  1  0  0  0  0
 25 56  1  0  0  0  0
 26 74  1  0  0  0  0
 27 85  1  0  0  0  0
 28 86  1  0  0  0  0
 29 31  2  0  0  0  0
 29 85  1  0  0  0  0
 30 87  1  0  0  0  0
 31 88  1  0  0  0  0
 32 67  2  0  0  0  0
 33 68  1  0  0  0  0
 33 72  1  0  0  0  0
 34 44  1  0  0  0  0
 34 45  1  0  0  0  0
 34 78  2  0  0  0  0
 35 53  1  0  0  0  0
 35 69  1  0  0  0  0
 35 79  2  0  0  0  0
 36 73  1  0  0  0  0
 36 80  2  0  0  0  0
 37 54  1  0  0  0  0
 37 75  1  0  0  0  0
 37 81  2  0  0  0  0
 38 64  1  0  0  0  0
 38 70  1  0  0  0  0
 38 82  2  0  0  0  0
 39 65  1  0  0  0  0
 39 76  1  0  0  0  0
 39 83  2  0  0  0  0
 40 71  1  0  0  0  0
 40 74  1  0  0  0  0
 40 84  2  0  0  0  0
 41 46  1  0  0  0  0
 42 54  1  0  0  0  0
 43 70  1  0  0  0  0
 44 53  1  0  0  0  0
 45 69  1  0  0  0  0
 46 48  1  0  0  0  0
 47 49  1  0  0  0  0
 47 50  1  0  0  0  0
 48 52  1  0  0  0  0
 49 55  1  0  0  0  0
 50 71  1  0  0  0  0
 51 55  1  0  0  0  0
 51 71  1  0  0  0  0
 52 75  1  0  0  0  0
 53 63  1  0  0  0  0
 54 70  1  0  0  0  0
 55 68  1  0  0  0  0
 57 65  1  0  0  0  0
 58 66  1  0  0  0  0
 59 66  1  0  0  0  0
 60 66  1  0  0  0  0
 61 77  1  0  0  0  0
 62 69  1  0  0  0  0
 63 86  1  0  0  0  0
 64 66  1  0  0  0  0
 64 76  1  0  0  0  0
 65 77  1  0  0  0  0
 67 68  1  0  0  0  0
M  CHG  1  77   1
M  ISO  4  40 100  63 101  74 100  86 101
M  END
> <Batch ID>
0059

> <Smiles>
CNC(C)C(=O)NC(C(=O)N1Cc2cc([101O:1][101CH2:1]C3CC(=O)CN(Cc4cccc([100NH:0][100C:0](=O)N5CCCC(n6nc(-c7ccc(Oc8ccc(F)cc8F)cc7)c(C(N)=O)c6N)C5)c4C)C3=O)ccc2CC1C(=O)NC1CCCc2ccccc21)C(C)(C)C

> <Shape>
0.250

> <Color>
0.188

> <Negative vol penalty>
0.000

$$$$

  -OEChem-04042323013D

 87 96  0     1  0  0  0  0  0999 V2000
  -24.3991  -23.7999   22.1827 C   0  0  0  0  0  0  0  0  0  0  0  0
  -25.0035  -22.8444   21.3736 C   0  0  0  0  0  0  0  0  0  0  0  0
  -22.5215  -28.1016   22.1239 C   0  0  0  0  0  0  0  0  0  0  0  0
  -22.1778  -28.1375   19.7328 C   0  0  0  0  0  0  0  0  0  0  0  0
  -23.6533  -23.3996   23.2894 C   0  0  0  0  0  0  0  0  0  0  0  0
  -24.8525  -21.4880   21.6641 C   0  0  0  0  0  0  0  0  0  0  0  0
  -26.6323  -18.2874   18.3790 C   0  0  0  0  0  0  0  0  0  0  0  0
  -21.1420  -28.0404   22.3213 C   0  0  0  0  0  0  0  0  0  0  0  0
  -20.7984  -28.0763   19.9301 C   0  0  0  0  0  0  0  0  0  0  0  0
  -27.9982  -18.0754   18.1968 C   0  0  0  0  0  0  0  0  0  0  0  0
  -18.5230  -30.1766   22.2785 C   0  0  0  0  0  0  0  0  0  0  0  0
  -17.9709  -31.0087   23.2524 C   0  0  0  0  0  0  0  0  0  0  0  0
  -27.8350  -16.0065   19.4265 C   0  0  0  0  0  0  0  0  0  0  0  0
  -30.2482  -21.4707   20.8988 C   0  0  0  0  0  0  0  0  0  0  0  0
  -30.4936  -20.4406   23.0703 C   0  0  0  0  0  0  0  0  0  0  0  0
  -28.8897  -22.2189   22.7513 C   0  0  0  0  0  0  0  0  0  0  0  0
  -17.1427  -29.0727   24.4369 C   0  0  0  0  0  0  0  0  0  0  0  0
  -23.0394  -28.1502   20.8296 C   0  0  0  0  0  0  0  0  0  0  0  0
  -25.3444  -29.2141   21.0800 C   0  0  0  0  0  0  0  0  0  0  0  0
  -23.5040  -22.0379   23.6000 C   0  0  0  0  0  0  0  0  0  0  0  0
  -25.8583  -17.3643   19.0969 C   0  0  0  0  0  0  0  0  0  0  0  0
  -24.0839  -21.0631   22.7628 C   0  0  0  0  0  0  0  0  0  0  0  0
  -26.4590  -16.2078   19.6142 C   0  0  0  0  0  0  0  0  0  0  0  0
  -30.8647  -20.5346   21.7290 C   0  0  0  0  0  0  0  0  0  0  0  0
  -29.2607  -22.3129   21.4100 C   0  0  0  0  0  0  0  0  0  0  0  0
  -20.2805  -28.0277   21.2244 C   0  0  0  0  0  0  0  0  0  0  0  0
  -28.6003  -16.9363   18.7230 C   0  0  0  0  0  0  0  0  0  0  0  0
  -18.3849  -28.7926   22.3838 C   0  0  0  0  0  0  0  0  0  0  0  0
  -17.2807  -30.4567   24.3316 C   0  0  0  0  0  0  0  0  0  0  0  0
  -29.5061  -21.2828   23.5815 C   0  0  0  0  0  0  0  0  0  0  0  0
  -17.6948  -28.2406   23.4630 C   0  0  0  0  0  0  0  0  0  0  0  0
  -24.4643  -28.2140   20.6251 C   0  0  0  0  0  0  0  0  0  0  0  0
  -26.5791  -28.8161   20.6287 C   0  0  0  0  0  0  0  0  0  0  0  0
  -32.4750  -17.4486   20.4015 C   0  0  0  0  0  0  0  0  0  0  0  0
  -32.9754  -20.2292   20.6912 C   0  0  0  0  0  0  0  0  0  0  0  0
  -32.0362  -16.4562   19.6152 C   0  0  0  0  0  0  0  0  0  0  0  0
  -25.0704  -30.3971   21.8423 C   0  0  0  0  0  0  0  0  0  0  0  0
  -24.1395  -17.4755   21.7684 C   0  0  0  0  0  0  0  0  0  0  0  0
  -23.3039  -14.4656   20.8941 C   0  0  0  0  0  0  0  0  0  0  0  0
  -22.3647  -11.2050   20.5291 C   0  0  0  0  0  0  0  0  0  0  0  0
  -28.8855  -23.4885   19.2137 C   0  0  0  0  0  0  0  0  0  0  0  0
  -22.6795  -21.6603   24.8054 C   0  0  0  0  0  0  0  0  0  0  0  0
  -24.3810  -17.5942   19.2617 C   0  0  0  0  0  0  0  0  0  0  0  0
  -25.6685  -15.1761   20.3752 C   0  0  0  0  0  0  0  0  0  0  0  0
  -33.8994  -17.8946   20.4383 C   0  0  0  0  0  0  0  0  0  0  0  0
  -31.5791  -18.2283   21.3104 C   0  0  0  0  0  0  0  0  0  0  0  0
  -33.9471  -19.3403   19.9822 C   0  0  0  0  0  0  0  0  0  0  0  0
  -22.9442  -20.2365   25.2842 C   0  0  0  0  0  0  0  0  0  0  0  0
  -28.6547  -26.3399   17.0939 C   0  0  0  0  0  0  0  0  0  0  0  0
  -22.8696  -19.2712   24.1108 C   0  0  0  0  0  0  0  0  0  0  0  0
  -27.6385  -27.2378   17.8034 C   0  0  0  0  0  0  0  0  0  0  0  0
  -28.2957  -24.8611   17.2280 C   0  0  0  0  0  0  0  0  0  0  0  0
  -27.0583  -25.2960   19.3134 C   0  0  0  0  0  0  0  0  0  0  0  0
  -23.9588  -19.5832   23.0768 C   0  0  1  0  0  0  0  0  0  0  0  0
  -23.7886  -16.8443   20.4508 C   0  0  1  0  0  0  0  0  0  0  0  0
  -27.4129  -26.7911   19.2612 C   0  0  2  0  0  0  0  0  0  0  0  0
  -21.5260   -9.2378   21.8421 C   0  0  0  0  0  0  0  0  0  0  0  0
  -26.1084  -14.0174   22.0092 C   0  0  0  0  0  0  0  0  0  0  0  0
  -25.4673  -11.6429   22.4774 C   0  0  0  0  0  0  0  0  0  0  0  0
  -24.2556  -13.5066   23.6094 C   0  0  0  0  0  0  0  0  0  0  0  0
  -19.8606  -11.0756   18.9568 C   0  0  0  0  0  0  0  0  0  0  0  0
  -30.6164  -15.9977   19.5659 C   0  0  0  0  0  0  0  0  0  1  0  0
  -23.8599  -13.0853   21.1481 C   0  0  1  0  0  0  0  0  0  0  0  0
  -21.1385  -10.4501   21.0098 C   0  0  2  0  0  0  0  0  0  0  0  0
  -24.9208  -13.0737   22.2847 C   0  0  0  0  0  0  0  0  0  0  0  0
  -25.0869  -27.2530   19.9375 N   0  0  0  0  0  0  0  0  0  0  0  0
  -26.3714  -27.6474   19.9569 N   0  0  0  0  0  0  0  0  0  0  0  0
  -31.8479  -19.6960   21.2205 N   0  0  0  0  0  0  0  0  0  0  0  0
  -24.2285  -15.4491   20.5152 N   0  0  0  0  0  0  0  0  0  0  0  0
  -28.1012  -24.5094   18.6363 N   0  0  0  0  0  0  0  0  0  0  0  0
  -27.8112  -29.3553   20.7450 N   0  0  0  0  0  0  0  0  0  0  0  0
  -23.7466  -30.6545   22.2238 N   0  0  0  0  0  0  0  0  0  0  0  0
  -28.6348  -23.2645   20.5670 N   0  0  0  0  0  0  0  0  0  0  0  0
  -23.7259  -18.7883   21.8912 N   0  0  0  0  0  0  0  0  0  0  0  0
  -22.7106  -12.2212   21.3945 N   0  0  0  0  0  0  0  0  0  0  0  0
  -33.3596  -21.5085   20.7114 N   0  3  0  0  0  0  0  0  0  0  0  0
  -20.3291   -9.9837   19.8486 N   0  3  0  0  0  0  0  0  0  0  0  0
  -25.9704  -31.2106   22.1613 O   0  0  0  0  0  0  0  0  0  0  0  0
  -24.7397  -16.8197   22.6118 O   0  0  0  0  0  0  0  0  0  0  0  0
  -22.0926  -14.6622   21.0201 O   0  0  0  0  0  0  0  0  0  0  0  0
  -22.9586  -10.9193   19.4917 O   0  0  0  0  0  0  0  0  0  0  0  0
  -29.7373  -22.8779   18.5629 O   0  0  0  0  0  0  0  0  0  0  0  0
  -18.9343  -27.9678   21.4166 O   0  0  0  0  0  0  0  0  0  0  0  0
  -29.9335  -16.7273   18.5472 O   0  0  0  0  0  0  0  0  0  1  0  0
  -16.7519  -31.2558   25.2675 F   0  0  0  0  0  0  0  0  0  0  0  0
  -29.1506  -21.1929   24.8698 F   0  0  0  0  0  0  0  0  0  0  0  0
  -17.5599  -26.9116   23.5702 F   0  0  0  0  0  0  0  0  0  0  0  0
  1  2  1  0  0  0  0
  1  5  2  0  0  0  0
  2  6  2  0  0  0  0
  3  8  2  0  0  0  0
  3 18  1  0  0  0  0
  4  9  1  0  0  0  0
  4 18  2  0  0  0  0
  5 20  1  0  0  0  0
  6 22  1  0  0  0  0
  7 10  2  0  0  0  0
  7 21  1  0  0  0  0
  8 26  1  0  0  0  0
  9 26  2  0  0  0  0
 10 27  1  0  0  0  0
 11 12  2  0  0  0  0
 11 28  1  0  0  0  0
 12 29  1  0  0  0  0
 13 23  1  0  0  0  0
 13 27  2  0  0  0  0
 14 24  2  0  0  0  0
 14 25  1  0  0  0  0
 15 24  1  0  0  0  0
 15 30  2  0  0  0  0
 16 25  2  0  0  0  0
 16 30  1  0  0  0  0
 17 29  2  0  0  0  0
 17 31  1  0  0  0  0
 18 32  1  0  0  0  0
 19 32  1  0  0  0  0
 19 33  2  0  0  0  0
 19 37  1  0  0  0  0
 20 22  2  0  0  0  0
 20 42  1  0  0  0  0
 21 23  2  0  0  0  0
 21 43  1  0  0  0  0
 22 54  1  0  0  0  0
 23 44  1  0  0  0  0
 24 68  1  0  0  0  0
 25 73  1  0  0  0  0
 26 83  1  0  0  0  0
 27 84  1  0  0  0  0
 28 31  2  0  0  0  0
 28 83  1  0  0  0  0
 29 85  1  0  0  0  0
 30 86  1  0  0  0  0
 31 87  1  0  0  0  0
 32 66  2  0  0  0  0
 33 67  1  0  0  0  0
 33 71  1  0  0  0  0
 34 36  2  0  0  0  0
 34 45  1  0  0  0  0
 34 46  1  0  0  0  0
 35 47  1  0  0  0  0
 35 68  1  0  0  0  0
 35 76  2  0  0  0  0
 36 62  1  0  0  0  0
 37 72  1  0  0  0  0
 37 78  2  0  0  0  0
 38 55  1  0  0  0  0
 38 74  1  0  0  0  0
 38 79  2  0  0  0  0
 39 63  1  0  0  0  0
 39 69  1  0  0  0  0
 39 80  2  0  0  0  0
 40 64  1  0  0  0  0
 40 75  1  0  0  0  0
 40 81  2  0  0  0  0
 41 70  1  0  0  0  0
 41 73  1  0  0  0  0
 41 82  2  0  0  0  0
 42 48  1  0  0  0  0
 43 55  1  0  0  0  0
 44 69  1  0  0  0  0
 45 47  1  0  0  0  0
 46 68  1  0  0  0  0
 48 50  1  0  0  0  0
 49 51  1  0  0  0  0
 49 52  1  0  0  0  0
 50 54  1  0  0  0  0
 51 56  1  0  0  0  0
 52 70  1  0  0  0  0
 53 56  1  0  0  0  0
 53 70  1  0  0  0  0
 54 74  1  0  0  0  0
 55 69  1  0  0  0  0
 56 67  1  0  0  0  0
 57 64  1  0  0  0  0
 58 65  1  0  0  0  0
 59 65  1  0  0  0  0
 60 65  1  0  0  0  0
 61 77  1  0  0  0  0
 62 84  1  0  0  0  0
 63 65  1  0  0  0  0
 63 75  1  0  0  0  0
 64 77  1  0  0  0  0
 66 67  1  0  0  0  0
M  CHG  2  76   1  77   1
M  ISO  4  41 100  62 101  73 100  84 101
M  END
> <Batch ID>
0059

> <Smiles>
CNC(C)C(=O)NC(C(=O)N1Cc2cc([101O:1][101CH2:1]C=C3CCC(=N)N(c4cc(F)cc([100NH:0][100C:0](=O)N5CCCC(n6nc(-c7ccc(Oc8ccc(F)cc8F)cc7)c(C(N)=O)c6N)C5)c4)C3)ccc2CC1C(=O)NC1CCCc2ccccc21)C(C)(C)C

> <Shape>
0.226

> <Color>
0.062

> <Negative vol penalty>
0.000

$$$$

  -OEChem-04042323013D

 88 96  0     1  0  0  0  0  0999 V2000
  -27.1581  -37.5263   23.4090 C   0  0  0  0  0  0  0  0  0  0  0  0
  -27.7179  -36.4282   22.7638 C   0  0  0  0  0  0  0  0  0  0  0  0
  -23.6932   -9.5463   21.8053 C   0  0  0  0  0  0  0  0  0  0  0  0
  -22.6492  -11.2115   20.4003 C   0  0  0  0  0  0  0  0  0  0  0  0
  -26.2172  -37.3343   24.4199 C   0  0  0  0  0  0  0  0  0  0  0  0
  -27.3380  -35.1375   23.1298 C   0  0  0  0  0  0  0  0  0  0  0  0
  -26.8046  -30.2731   19.4475 C   0  0  0  0  0  0  0  0  0  0  0  0
  -22.5306   -9.4638   22.5715 C   0  0  0  0  0  0  0  0  0  0  0  0
  -21.4865  -11.1290   21.1665 C   0  0  0  0  0  0  0  0  0  0  0  0
  -27.6569  -29.2034   19.1772 C   0  0  0  0  0  0  0  0  0  0  0  0
  -19.4890   -8.0061   22.3339 C   0  0  0  0  0  0  0  0  0  0  0  0
  -19.0243   -6.7352   22.6720 C   0  0  0  0  0  0  0  0  0  0  0  0
  -26.4880  -27.8672   20.8104 C   0  0  0  0  0  0  0  0  0  0  0  0
  -28.7688  -18.2315   18.6522 C   0  0  0  0  0  0  0  0  0  0  0  0
  -26.8533  -17.4862   17.3823 C   0  0  0  0  0  0  0  0  0  0  0  0
  -19.2456   -7.2778   25.0158 C   0  0  0  0  0  0  0  0  0  0  0  0
  -23.7525  -10.4202   20.7197 C   0  0  0  0  0  0  0  0  0  0  0  0
  -25.2762   -9.7467   18.7878 C   0  0  0  0  0  0  0  0  0  0  0  0
  -25.8184  -36.0408   24.7919 C   0  0  0  0  0  0  0  0  0  0  0  0
  -25.7928  -30.1512   20.4108 C   0  0  0  0  0  0  0  0  0  0  0  0
  -26.3919  -34.9280   24.1475 C   0  0  0  0  0  0  0  0  0  0  0  0
  -25.6226  -28.9360   21.0893 C   0  0  0  0  0  0  0  0  0  0  0  0
  -28.4471  -19.5568   18.3596 C   0  0  0  0  0  0  0  0  0  0  0  0
  -27.3285  -19.8469   17.5783 C   0  0  0  0  0  0  0  0  0  0  0  0
  -27.9719  -17.1962   18.1635 C   0  0  0  0  0  0  0  0  0  0  0  0
  -21.4272  -10.2551   22.2521 C   0  0  0  0  0  0  0  0  0  0  0  0
  -27.5005  -28.0011   19.8607 C   0  0  0  0  0  0  0  0  0  0  0  0
  -19.8321   -8.9130   23.3367 C   0  0  0  0  0  0  0  0  0  0  0  0
  -18.9026   -6.3710   24.0130 C   0  0  0  0  0  0  0  0  0  0  0  0
  -26.5316  -18.8115   17.0897 C   0  0  0  0  0  0  0  0  0  0  0  0
  -19.7103   -8.5488   24.6777 C   0  0  0  0  0  0  0  0  0  0  0  0
  -24.9534  -10.5063   19.9282 C   0  0  0  0  0  0  0  0  0  0  0  0
  -26.5144  -10.2048   18.4092 C   0  0  0  0  0  0  0  0  0  0  0  0
  -28.8512  -22.1966   14.2998 C   0  0  0  0  0  0  0  0  0  0  0  0
  -27.9082  -23.9952   17.8990 C   0  0  0  0  0  0  0  0  0  0  0  0
  -28.5206  -24.7077   18.8556 C   0  0  0  0  0  0  0  0  0  0  0  0
  -28.3836  -21.4416   15.2961 C   0  0  0  0  0  0  0  0  0  0  0  0
  -24.5239   -8.7189   18.1294 C   0  0  0  0  0  0  0  0  0  0  0  0
  -28.7032  -23.0911   17.0132 C   0  0  0  0  0  0  0  0  0  0  0  0
  -25.1286  -31.5985   23.1618 C   0  0  0  0  0  0  0  0  0  0  0  0
  -22.4280  -29.8087   23.0027 C   0  0  0  0  0  0  0  0  0  0  0  0
  -20.8626  -27.0273   21.7944 C   0  0  0  0  0  0  0  0  0  0  0  0
  -29.3726  -15.3891   19.2214 C   0  0  0  0  0  0  0  0  0  0  0  0
  -24.8331  -35.8820   25.9226 C   0  0  0  0  0  0  0  0  0  0  0  0
  -24.8647  -31.3058   20.6716 C   0  0  0  0  0  0  0  0  0  0  0  0
  -24.5390  -28.7472   22.1182 C   0  0  0  0  0  0  0  0  0  0  0  0
  -24.2066  -34.4917   25.9939 C   0  0  0  0  0  0  0  0  0  0  0  0
  -30.4966  -12.1597   20.2135 C   0  0  0  0  0  0  0  0  0  0  0  0
  -25.2787  -33.4154   25.8559 C   0  0  0  0  0  0  0  0  0  0  0  0
  -29.2333  -11.2987   20.1433 C   0  0  0  0  0  0  0  0  0  0  0  0
  -30.1928  -13.5733   20.7064 C   0  0  0  0  0  0  0  0  0  0  0  0
  -27.8712  -13.4133   19.8978 C   0  0  0  0  0  0  0  0  0  0  0  0
  -25.9870  -33.5129   24.4993 C   0  0  1  0  0  0  0  0  0  0  0  0
  -24.1956  -31.2369   22.0409 C   0  0  1  0  0  0  0  0  0  0  0  0
  -28.1170  -12.0000   19.3447 C   0  0  2  0  0  0  0  0  0  0  0  0
  -29.3146  -20.6487   18.8942 C   0  0  0  0  0  0  0  0  0  0  0  0
  -18.6674  -25.8136   21.8683 C   0  0  0  0  0  0  0  0  0  0  0  0
  -23.0889  -28.7887   25.8014 C   0  0  0  0  0  0  0  0  0  0  0  0
  -21.4509  -26.9309   25.4355 C   0  0  0  0  0  0  0  0  0  0  0  0
  -20.6705  -29.3002   25.4217 C   0  0  0  0  0  0  0  0  0  0  0  0
  -20.4756  -27.3103   18.8739 C   0  0  0  0  0  0  0  0  0  0  0  0
  -26.9643  -21.2666   17.2530 C   0  0  0  0  0  0  0  0  0  0  0  0
  -27.7978  -25.6433   19.7706 C   0  0  0  0  0  0  0  0  0  1  0  0
  -22.0290  -28.4313   23.4745 C   0  0  1  0  0  0  0  0  0  0  0  0
  -19.5106  -26.8411   21.1294 C   0  0  2  0  0  0  0  0  0  0  0  0
  -21.8316  -28.3666   25.0153 C   0  0  0  0  0  0  0  0  0  0  0  0
  -25.9096  -11.3806   20.2530 N   0  0  0  0  0  0  0  0  0  0  0  0
  -26.8454  -11.1731   19.3110 N   0  0  0  0  0  0  0  0  0  0  0  0
  -23.6609  -29.9075   22.3425 N   0  0  0  0  0  0  0  0  0  0  0  0
  -29.1291  -14.1765   19.9004 N   0  0  0  0  0  0  0  0  0  0  0  0
  -27.3416   -9.8699   17.3963 N   0  0  0  0  0  0  0  0  0  0  0  0
  -23.2701   -8.3710   18.6502 N   0  0  0  0  0  0  0  0  0  0  0  0
  -28.2984  -15.8498   18.4608 N   0  0  0  0  0  0  0  0  0  0  0  0
  -25.1590  -32.9485   23.4552 N   0  0  0  0  0  0  0  0  0  0  0  0
  -20.8458  -28.0629   22.7045 N   0  0  0  0  0  0  0  0  0  0  0  0
  -28.0365  -21.9558   16.5280 N   0  0  0  0  0  0  0  0  0  0  0  0
  -19.6843  -26.3823   19.7222 N   0  3  0  0  0  0  0  0  0  0  0  0
  -24.9582   -8.1151   17.1193 O   0  0  0  0  0  0  0  0  0  0  0  0
  -29.8714  -23.3761   16.7417 O   0  0  0  0  0  0  0  0  0  0  0  0
  -25.7722  -30.7177   23.7201 O   0  0  0  0  0  0  0  0  0  0  0  0
  -21.6702  -30.7606   23.2061 O   0  0  0  0  0  0  0  0  0  0  0  0
  -21.8351  -26.3220   21.5352 O   0  0  0  0  0  0  0  0  0  0  0  0
  -30.4634  -15.9616   19.2864 O   0  0  0  0  0  0  0  0  0  0  0  0
  -20.2925  -10.1747   22.9994 O   0  0  0  0  0  0  0  0  0  0  0  0
  -28.3314  -26.9556   19.5992 O   0  0  0  0  0  0  0  0  0  1  0  0
  -18.4549   -5.1510   24.3375 F   0  0  0  0  0  0  0  0  0  0  0  0
  -25.4530  -19.0796   16.3402 F   0  0  0  0  0  0  0  0  0  0  0  0
  -20.0373   -9.4161   25.6456 F   0  0  0  0  0  0  0  0  0  0  0  0
  1  2  1  0  0  0  0
  1  5  2  0  0  0  0
  2  6  2  0  0  0  0
  3  8  2  0  0  0  0
  3 17  1  0  0  0  0
  4  9  1  0  0  0  0
  4 17  2  0  0  0  0
  5 19  1  0  0  0  0
  6 21  1  0  0  0  0
  7 10  2  0  0  0  0
  7 20  1  0  0  0  0
  8 26  1  0  0  0  0
  9 26  2  0  0  0  0
 10 27  1  0  0  0  0
 11 12  2  0  0  0  0
 11 28  1  0  0  0  0
 12 29  1  0  0  0  0
 13 22  1  0  0  0  0
 13 27  2  0  0  0  0
 14 23  2  0  0  0  0
 14 25  1  0  0  0  0
 15 25  2  0  0  0  0
 15 30  1  0  0  0  0
 16 29  2  0  0  0  0
 16 31  1  0  0  0  0
 17 32  1  0  0  0  0
 18 32  1  0  0  0  0
 18 33  2  0  0  0  0
 18 38  1  0  0  0  0
 19 21  2  0  0  0  0
 19 44  1  0  0  0  0
 20 22  2  0  0  0  0
 20 45  1  0  0  0  0
 21 53  1  0  0  0  0
 22 46  1  0  0  0  0
 23 24  1  0  0  0  0
 23 56  1  0  0  0  0
 24 30  2  0  0  0  0
 24 62  1  0  0  0  0
 25 73  1  0  0  0  0
 26 84  1  0  0  0  0
 27 85  1  0  0  0  0
 28 31  2  0  0  0  0
 28 84  1  0  0  0  0
 29 86  1  0  0  0  0
 30 87  1  0  0  0  0
 31 88  1  0  0  0  0
 32 67  2  0  0  0  0
 33 68  1  0  0  0  0
 33 71  1  0  0  0  0
 34 37  2  0  0  0  0
 35 36  2  0  0  0  0
 35 39  1  0  0  0  0
 36 63  1  0  0  0  0
 37 76  1  0  0  0  0
 38 72  1  0  0  0  0
 38 78  2  0  0  0  0
 39 76  1  0  0  0  0
 39 79  2  0  0  0  0
 40 54  1  0  0  0  0
 40 74  1  0  0  0  0
 40 80  2  0  0  0  0
 41 64  1  0  0  0  0
 41 69  1  0  0  0  0
 41 81  2  0  0  0  0
 42 65  1  0  0  0  0
 42 75  1  0  0  0  0
 42 82  2  0  0  0  0
 43 70  1  0  0  0  0
 43 73  1  0  0  0  0
 43 83  2  0  0  0  0
 44 47  1  0  0  0  0
 45 54  1  0  0  0  0
 46 69  1  0  0  0  0
 47 49  1  0  0  0  0
 48 50  1  0  0  0  0
 48 51  1  0  0  0  0
 49 53  1  0  0  0  0
 50 55  1  0  0  0  0
 51 70  1  0  0  0  0
 52 55  1  0  0  0  0
 52 70  1  0  0  0  0
 53 74  1  0  0  0  0
 54 69  1  0  0  0  0
 55 68  1  0  0  0  0
 57 65  1  0  0  0  0
 58 66  1  0  0  0  0
 59 66  1  0  0  0  0
 60 66  1  0  0  0  0
 61 77  1  0  0  0  0
 62 76  1  0  0  0  0
 63 85  1  0  0  0  0
 64 66  1  0  0  0  0
 64 75  1  0  0  0  0
 65 77  1  0  0  0  0
 67 68  1  0  0  0  0
M  CHG  1  77   1
M  ISO  4  43 100  63 101  73 100  85 101
M  END
> <Batch ID>
0059

> <Smiles>
C=CN(Cc1c(C)cc([100NH:0][100C:0](=O)N2CCCC(n3nc(-c4ccc(Oc5ccc(F)cc5F)cc4)c(C(N)=O)c3N)C2)cc1F)C(=O)C=C[101CH2:1][101O:1]c1ccc2c(c1)CN(C(=O)C(NC(=O)C(C)NC)C(C)(C)C)C(C(=O)NC1CCCc3ccccc31)C2

> <Shape>
0.279

> <Color>
0.082

> <Negative vol penalty>
0.000

$$$$

  -OEChem-04042323013D

 89 98  0     1  0  0  0  0  0999 V2000
  -17.1697  -13.5956   22.1406 C   0  0  0  0  0  0  0  0  0  0  0  0
  -18.1664  -14.5515   21.9727 C   0  0  0  0  0  0  0  0  0  0  0  0
  -23.6688  -28.3699   23.9142 C   0  0  0  0  0  0  0  0  0  0  0  0
  -22.8086  -29.7956   22.1637 C   0  0  0  0  0  0  0  0  0  0  0  0
  -17.4847  -12.3491   22.6800 C   0  0  0  0  0  0  0  0  0  0  0  0
  -19.4786  -14.2619   22.3453 C   0  0  0  0  0  0  0  0  0  0  0  0
  -24.5982  -16.2027   19.6015 C   0  0  0  0  0  0  0  0  0  0  0  0
  -22.4151  -27.7724   24.0437 C   0  0  0  0  0  0  0  0  0  0  0  0
  -21.5548  -29.1980   22.2931 C   0  0  0  0  0  0  0  0  0  0  0  0
  -25.4776  -17.2463   19.8869 C   0  0  0  0  0  0  0  0  0  0  0  0
  -18.9018  -29.4007   24.3790 C   0  0  0  0  0  0  0  0  0  0  0  0
  -17.7851  -30.2362   24.4044 C   0  0  0  0  0  0  0  0  0  0  0  0
  -26.9109  -15.7073   21.0685 C   0  0  0  0  0  0  0  0  0  0  0  0
  -30.7844  -25.5540   20.1163 C   0  0  0  0  0  0  0  0  0  0  0  0
  -31.2574  -26.2745   17.8592 C   0  0  0  0  0  0  0  0  0  0  0  0
  -16.9166  -29.1354   22.4369 C   0  0  0  0  0  0  0  0  0  0  0  0
  -23.8655  -29.3816   22.9742 C   0  0  0  0  0  0  0  0  0  0  0  0
  -25.8752  -30.6983   23.8317 C   0  0  0  0  0  0  0  0  0  0  0  0
  -18.8032  -12.0406   23.0504 C   0  0  0  0  0  0  0  0  0  0  0  0
  -24.8636  -14.9035   20.0576 C   0  0  0  0  0  0  0  0  0  0  0  0
  -19.8112  -13.0106   22.8914 C   0  0  0  0  0  0  0  0  0  0  0  0
  -26.0346  -14.6485   20.7854 C   0  0  0  0  0  0  0  0  0  0  0  0
  -31.3230  -24.2999   19.8288 C   0  0  0  0  0  0  0  0  0  0  0  0
  -31.8289  -24.0330   18.5566 C   0  0  0  0  0  0  0  0  0  0  0  0
  -30.7515  -26.5413   19.1314 C   0  0  0  0  0  0  0  0  0  0  0  0
  -21.3581  -28.1864   23.2331 C   0  0  0  0  0  0  0  0  0  0  0  0
  -26.6327  -16.9992   20.6230 C   0  0  0  0  0  0  0  0  0  0  0  0
  -19.0259  -28.4325   23.3824 C   0  0  0  0  0  0  0  0  0  0  0  0
  -31.7961  -25.0204   17.5718 C   0  0  0  0  0  0  0  0  0  0  0  0
  -16.7925  -30.1035   23.4335 C   0  0  0  0  0  0  0  0  0  0  0  0
  -18.0333  -28.2999   22.4115 C   0  0  0  0  0  0  0  0  0  0  0  0
  -25.1602  -29.9997   22.8405 C   0  0  0  0  0  0  0  0  0  0  0  0
  -27.0371  -31.0843   23.2092 C   0  0  0  0  0  0  0  0  0  0  0  0
  -30.6950  -20.9001   20.5835 C   0  0  0  0  0  0  0  0  0  0  0  0
  -25.5207  -30.9738   25.1933 C   0  0  0  0  0  0  0  0  0  0  0  0
  -23.3963  -12.8676   22.0085 C   0  0  0  0  0  0  0  0  0  0  0  0
  -25.7292  -10.8431   21.0177 C   0  0  0  0  0  0  0  0  0  0  0  0
  -28.8611  -10.4439   19.7222 C   0  0  0  0  0  0  0  0  0  0  0  0
  -30.0960  -28.9060   18.5612 C   0  0  0  0  0  0  0  0  0  0  0  0
  -19.0867  -10.6966   23.6732 C   0  0  0  0  0  0  0  0  0  0  0  0
  -23.9184  -13.7836   19.7185 C   0  0  0  0  0  0  0  0  0  0  0  0
  -26.3757  -13.2676   21.2806 C   0  0  0  0  0  0  0  0  0  0  0  0
  -29.5863  -19.9053   20.2959 C   0  0  0  0  0  0  0  0  0  0  0  0
  -20.5698  -10.3359   23.6947 C   0  0  0  0  0  0  0  0  0  0  0  0
  -28.7797  -32.1979   18.8897 C   0  0  0  0  0  0  0  0  0  0  0  0
  -21.3990  -11.5159   24.1916 C   0  0  0  0  0  0  0  0  0  0  0  0
  -27.7716  -32.0727   20.0344 C   0  0  0  0  0  0  0  0  0  0  0  0
  -27.8978  -21.7099   20.3467 C   0  0  0  0  0  0  0  0  0  0  0  0
  -28.7953  -30.9499   18.0087 C   0  0  0  0  0  0  0  0  0  0  0  0
  -28.9407  -22.6858   20.8621 C   0  0  0  0  0  0  0  0  0  0  0  0
  -27.9820  -29.5594   19.8726 C   0  0  0  0  0  0  0  0  0  0  0  0
  -21.2509  -12.7253   23.2605 C   0  0  1  0  0  0  0  0  0  0  0  0
  -24.0294  -12.5985   20.6727 C   0  0  1  0  0  0  0  0  0  0  0  0
  -28.2227  -20.3071   20.8427 C   0  0  1  0  0  0  0  0  0  0  0  0
  -27.9767  -30.7659   20.8255 C   0  0  2  0  0  0  0  0  0  0  0  0
  -32.4095  -22.6910   18.2435 C   0  0  0  0  0  0  0  0  0  0  0  0
  -30.5076   -8.6696   19.0602 C   0  0  0  0  0  0  0  0  0  0  0  0
  -26.3786  -10.3520   23.9583 C   0  0  0  0  0  0  0  0  0  0  0  0
  -28.5652   -9.3675   23.2390 C   0  0  0  0  0  0  0  0  0  0  0  0
  -26.4251   -8.3041   22.5236 C   0  0  0  0  0  0  0  0  0  0  0  0
  -28.8799  -11.3491   16.9046 C   0  0  0  0  0  0  0  0  0  0  0  0
  -31.3731  -24.2557   15.3600 C   0  0  0  0  0  0  0  0  0  0  0  0
  -31.3465  -23.2541   20.9059 C   0  0  0  0  0  0  0  0  0  0  0  0
  -27.1487  -19.3112   20.4125 C   0  0  0  0  0  0  0  0  0  1  0  0
  -27.1221  -10.5039   21.4905 C   0  0  1  0  0  0  0  0  0  0  0  0
  -29.3799   -9.5753   18.5905 C   0  0  2  0  0  0  0  0  0  0  0  0
  -27.1156   -9.6584   22.7953 C   0  0  0  0  0  0  0  0  0  0  0  0
  -25.8132  -29.9436   21.6766 N   0  0  0  0  0  0  0  0  0  0  0  0
  -26.9506  -30.6120   21.9326 N   0  0  0  0  0  0  0  0  0  0  0  0
  -30.3232  -22.2375   20.7012 N   0  0  0  0  0  0  0  0  0  0  0  0
  -25.4170  -12.2071   20.9289 N   0  0  0  0  0  0  0  0  0  0  0  0
  -28.9980  -29.7516   18.8259 N   0  0  0  0  0  0  0  0  0  0  0  0
  -28.1140  -31.7782   23.6347 N   0  0  0  0  0  0  0  0  0  0  0  0
  -24.2899  -30.5040   25.6715 N   0  0  0  0  0  0  0  0  0  0  0  0
  -30.2049  -27.8155   19.4236 N   0  0  0  0  0  0  0  0  0  0  0  0
  -22.0535  -12.5475   22.0694 N   0  0  0  0  0  0  0  0  0  0  0  0
  -27.7898   -9.8599   20.3645 N   0  0  0  0  0  0  0  0  0  0  0  0
  -29.8917  -10.4249   17.4782 N   0  3  0  0  0  0  0  0  0  0  0  0
  -31.8621  -20.5005   20.6197 O   0  0  0  0  0  0  0  0  0  0  0  0
  -26.2660  -31.6315   25.9585 O   0  0  0  0  0  0  0  0  0  0  0  0
  -24.0762  -13.3300   22.9172 O   0  0  0  0  0  0  0  0  0  0  0  0
  -24.9492   -9.9316   20.7308 O   0  0  0  0  0  0  0  0  0  0  0  0
  -29.3590  -11.5300   20.0103 O   0  0  0  0  0  0  0  0  0  0  0  0
  -30.8973  -29.1473   17.6548 O   0  0  0  0  0  0  0  0  0  0  0  0
  -20.1347  -27.6033   23.3589 O   0  0  0  0  0  0  0  0  0  0  0  0
  -32.2856  -24.7780   16.3235 O   0  0  0  0  0  0  0  0  0  0  0  0
  -27.4924  -18.0162   20.9035 O   0  0  0  0  0  0  0  0  0  1  0  0
  -15.7195  -30.9049   23.4590 F   0  0  0  0  0  0  0  0  0  0  0  0
  -18.1464  -27.3709   21.4523 F   0  0  0  0  0  0  0  0  0  0  0  0
  1  2  1  0  0  0  0
  1  5  2  0  0  0  0
  2  6  2  0  0  0  0
  3  8  2  0  0  0  0
  3 17  1  0  0  0  0
  4  9  1  0  0  0  0
  4 17  2  0  0  0  0
  5 19  1  0  0  0  0
  6 21  1  0  0  0  0
  7 10  2  0  0  0  0
  7 20  1  0  0  0  0
  8 26  1  0  0  0  0
  9 26  2  0  0  0  0
 10 27  1  0  0  0  0
 11 12  2  0  0  0  0
 11 28  1  0  0  0  0
 12 30  1  0  0  0  0
 13 22  1  0  0  0  0
 13 27  2  0  0  0  0
 14 23  1  0  0  0  0
 14 25  2  0  0  0  0
 15 25  1  0  0  0  0
 15 29  2  0  0  0  0
 16 30  2  0  0  0  0
 16 31  1  0  0  0  0
 17 32  1  0  0  0  0
 18 32  1  0  0  0  0
 18 33  2  0  0  0  0
 18 35  1  0  0  0  0
 19 21  2  0  0  0  0
 19 40  1  0  0  0  0
 20 22  2  0  0  0  0
 20 41  1  0  0  0  0
 21 52  1  0  0  0  0
 22 42  1  0  0  0  0
 23 24  2  0  0  0  0
 23 63  1  0  0  0  0
 24 29  1  0  0  0  0
 24 56  1  0  0  0  0
 25 75  1  0  0  0  0
 26 85  1  0  0  0  0
 27 87  1  0  0  0  0
 28 31  2  0  0  0  0
 28 85  1  0  0  0  0
 29 86  1  0  0  0  0
 30 88  1  0  0  0  0
 31 89  1  0  0  0  0
 32 68  2  0  0  0  0
 33 69  1  0  0  0  0
 33 73  1  0  0  0  0
 34 43  1  0  0  0  0
 34 70  1  0  0  0  0
 34 79  2  0  0  0  0
 35 74  1  0  0  0  0
 35 80  2  0  0  0  0
 36 53  1  0  0  0  0
 36 76  1  0  0  0  0
 36 81  2  0  0  0  0
 37 65  1  0  0  0  0
 37 71  1  0  0  0  0
 37 82  2  0  0  0  0
 38 66  1  0  0  0  0
 38 77  1  0  0  0  0
 38 83  2  0  0  0  0
 39 72  1  0  0  0  0
 39 75  1  0  0  0  0
 39 84  2  0  0  0  0
 40 44  1  0  0  0  0
 41 53  1  0  0  0  0
 42 71  1  0  0  0  0
 43 54  1  0  0  0  0
 44 46  1  0  0  0  0
 45 47  1  0  0  0  0
 45 49  1  0  0  0  0
 46 52  1  0  0  0  0
 47 55  1  0  0  0  0
 48 50  1  0  0  0  0
 48 54  1  0  0  0  0
 49 72  1  0  0  0  0
 50 70  1  0  0  0  0
 51 55  1  0  0  0  0
 51 72  1  0  0  0  0
 52 76  1  0  0  0  0
 53 71  1  0  0  0  0
 54 64  1  0  0  0  0
 55 69  1  0  0  0  0
 57 66  1  0  0  0  0
 58 67  1  0  0  0  0
 59 67  1  0  0  0  0
 60 67  1  0  0  0  0
 61 78  1  0  0  0  0
 62 86  1  0  0  0  0
 63 70  1  0  0  0  0
 64 87  1  0  0  0  0
 65 67  1  0  0  0  0
 65 77  1  0  0  0  0
 66 78  1  0  0  0  0
 68 69  1  0  0  0  0
M  CHG  1  78   1
M  ISO  4  39 100  64 101  75 100  87 101
M  END
> <Batch ID>
0059

> <Smiles>
CNC(C)C(=O)NC(C(=O)N1Cc2cc([101O:1][101CH2:1]C3CCN(Cc4cc([100NH:0][100C:0](=O)N5CCCC(n6nc(-c7ccc(Oc8ccc(F)cc8F)cc7)c(C(N)=O)c6N)C5)cc(OC)c4C)C(=O)C3)ccc2CC1C(=O)NC1CCCc2ccccc21)C(C)(C)C

> <Shape>
0.283

> <Color>
0.043

> <Negative vol penalty>
0.000

$$$$

  -OEChem-04042323013D

 90 99  0     1  0  0  0  0  0999 V2000
  -32.3446  -14.4392   20.9691 C   0  0  0  0  0  0  0  0  0  0  0  0
  -31.5145  -15.5298   21.2075 C   0  0  0  0  0  0  0  0  0  0  0  0
  -29.0002  -23.1054   18.4692 C   0  0  0  0  0  0  0  0  0  0  0  0
  -26.9626  -22.5817   19.6571 C   0  0  0  0  0  0  0  0  0  0  0  0
  -31.8356  -13.3001   20.3468 C   0  0  0  0  0  0  0  0  0  0  0  0
  -30.1750  -15.4823   20.8229 C   0  0  0  0  0  0  0  0  0  0  0  0
  -25.4199  -18.0315   23.7205 C   0  0  0  0  0  0  0  0  0  0  0  0
  -29.5654  -21.9093   18.9113 C   0  0  0  0  0  0  0  0  0  0  0  0
  -27.5278  -21.3855   20.0991 C   0  0  0  0  0  0  0  0  0  0  0  0
  -24.7224  -19.2206   23.5122 C   0  0  0  0  0  0  0  0  0  0  0  0
  -29.4055  -18.6301   18.1026 C   0  0  0  0  0  0  0  0  0  0  0  0
  -30.0946  -17.8551   17.1699 C   0  0  0  0  0  0  0  0  0  0  0  0
  -20.6407  -28.3494   22.9105 C   0  0  0  0  0  0  0  0  0  0  0  0
  -23.0663  -18.0183   22.2351 C   0  0  0  0  0  0  0  0  0  0  0  0
  -20.2956  -26.5184   21.3726 C   0  0  0  0  0  0  0  0  0  0  0  0
  -32.1049  -18.0463   18.4963 C   0  0  0  0  0  0  0  0  0  0  0  0
  -27.6988  -23.4417   18.8421 C   0  0  0  0  0  0  0  0  0  0  0  0
  -19.4661  -28.0079   23.5807 C   0  0  0  0  0  0  0  0  0  0  0  0
  -26.9001  -25.0754   17.0531 C   0  0  0  0  0  0  0  0  0  0  0  0
  -30.4869  -13.2349   19.9630 C   0  0  0  0  0  0  0  0  0  0  0  0
  -24.9509  -16.8267   23.1776 C   0  0  0  0  0  0  0  0  0  0  0  0
  -29.6478  -14.3417   20.1937 C   0  0  0  0  0  0  0  0  0  0  0  0
  -23.7583  -16.8149   22.4401 C   0  0  0  0  0  0  0  0  0  0  0  0
  -19.1210  -26.1768   22.0428 C   0  0  0  0  0  0  0  0  0  0  0  0
  -18.7062  -26.9216   23.1469 C   0  0  0  0  0  0  0  0  0  0  0  0
  -21.0555  -27.6047   21.8064 C   0  0  0  0  0  0  0  0  0  0  0  0
  -28.8292  -21.0493   19.7262 C   0  0  0  0  0  0  0  0  0  0  0  0
  -23.5469  -19.2146   22.7670 C   0  0  0  0  0  0  0  0  0  0  0  0
  -30.0661  -19.1133   19.2321 C   0  0  0  0  0  0  0  0  0  0  0  0
  -31.4443  -17.5631   17.3667 C   0  0  0  0  0  0  0  0  0  0  0  0
  -31.4157  -18.8214   19.4290 C   0  0  0  0  0  0  0  0  0  0  0  0
  -27.1146  -24.6774   18.3863 C   0  0  0  0  0  0  0  0  0  0  0  0
  -26.3247  -26.3184   17.1542 C   0  0  0  0  0  0  0  0  0  0  0  0
  -19.3477  -23.0875   20.3927 C   0  0  0  0  0  0  0  0  0  0  0  0
  -18.2714  -29.8628   24.4917 C   0  0  0  0  0  0  0  0  0  0  0  0
  -19.0611  -28.8074   24.7299 C   0  0  0  0  0  0  0  0  0  0  0  0
  -27.1945  -24.3832   15.8324 C   0  0  0  0  0  0  0  0  0  0  0  0
  -26.0815  -14.7195   21.0835 C   0  0  0  0  0  0  0  0  0  0  0  0
  -23.4465  -13.0352   21.9450 C   0  0  0  0  0  0  0  0  0  0  0  0
  -20.2836  -13.0592   23.2265 C   0  0  0  0  0  0  0  0  0  0  0  0
  -23.1196  -28.9979   21.4264 C   0  0  0  0  0  0  0  0  0  0  0  0
  -29.9937  -12.0003   19.2508 C   0  0  0  0  0  0  0  0  0  0  0  0
  -25.7007  -15.5482   23.4339 C   0  0  0  0  0  0  0  0  0  0  0  0
  -23.2016  -15.5446   21.8529 C   0  0  0  0  0  0  0  0  0  0  0  0
  -20.0930  -21.7708   20.5041 C   0  0  0  0  0  0  0  0  0  0  0  0
  -28.4719  -11.8863   19.2124 C   0  0  0  0  0  0  0  0  0  0  0  0
  -26.1774  -30.1551   20.0164 C   0  0  0  0  0  0  0  0  0  0  0  0
  -27.8471  -13.2161   18.8022 C   0  0  0  0  0  0  0  0  0  0  0  0
  -26.7422  -28.9195   19.3119 C   0  0  0  0  0  0  0  0  0  0  0  0
  -20.2791  -22.0359   22.9546 C   0  0  0  0  0  0  0  0  0  0  0  0
  -25.4723  -29.7909   21.3218 C   0  0  0  0  0  0  0  0  0  0  0  0
  -19.7484  -23.4548   22.8522 C   0  0  0  0  0  0  0  0  0  0  0  0
  -25.0059  -27.5168   20.4971 C   0  0  0  0  0  0  0  0  0  0  0  0
  -28.1832  -14.3188   19.8134 C   0  0  1  0  0  0  0  0  0  0  0  0
  -25.4054  -14.4650   22.4010 C   0  0  1  0  0  0  0  0  0  0  0  0
  -21.0482  -21.6862   21.6874 C   0  0  1  0  0  0  0  0  0  0  0  0
  -25.6689  -27.8261   19.1449 C   0  0  2  0  0  0  0  0  0  0  0  0
  -17.4434  -26.5452   23.8583 C   0  0  0  0  0  0  0  0  0  0  0  0
  -19.5028  -28.4949   26.1312 C   0  0  0  0  0  0  0  0  0  0  0  0
  -18.3682  -11.5330   23.7735 C   0  0  0  0  0  0  0  0  0  0  0  0
  -22.7437  -12.8588   18.9811 C   0  0  0  0  0  0  0  0  0  0  0  0
  -20.4225  -12.1933   19.6425 C   0  0  0  0  0  0  0  0  0  0  0  0
  -22.3585  -10.7516   20.2718 C   0  0  0  0  0  0  0  0  0  0  0  0
  -20.3946  -13.7597   26.0998 C   0  0  0  0  0  0  0  0  0  0  0  0
  -18.3224  -25.0028   21.5548 C   0  0  0  0  0  0  0  0  0  0  0  0
  -21.6676  -20.2947   21.7885 C   0  0  0  0  0  0  0  0  0  1  0  0
  -22.0198  -12.9588   21.4574 C   0  0  1  0  0  0  0  0  0  0  0  0
  -19.6246  -12.2101   24.2985 C   0  0  2  0  0  0  0  0  0  0  0  0
  -21.8974  -12.2150   20.0975 C   0  0  0  0  0  0  0  0  0  0  0  0
  -26.7087  -25.5935   19.2695 N   0  0  0  0  0  0  0  0  0  0  0  0
  -26.2335  -26.5794   18.4897 N   0  0  0  0  0  0  0  0  0  0  0  0
  -19.0957  -23.7683   21.5818 N   0  0  0  0  0  0  0  0  0  0  0  0
  -23.9743  -14.3215   22.1258 N   0  0  0  0  0  0  0  0  0  0  0  0
  -24.4666  -28.7529   21.0855 N   0  0  0  0  0  0  0  0  0  0  0  0
  -25.8931  -27.2028   16.2300 N   0  0  0  0  0  0  0  0  0  0  0  0
  -27.7856  -23.1147   15.9095 N   0  0  0  0  0  0  0  0  0  0  0  0
  -22.2491  -27.9509   21.1258 N   0  0  0  0  0  0  0  0  0  0  0  0
  -27.3554  -14.1916   20.9937 N   0  0  0  0  0  0  0  0  0  0  0  0
  -21.2502  -12.3553   22.5399 N   0  0  0  0  0  0  0  0  0  0  0  0
  -19.2502  -13.0527   25.4693 N   0  3  0  0  0  0  0  0  0  0  0  0
  -18.9360  -23.4498   19.2872 O   0  0  0  0  0  0  0  0  0  0  0  0
  -26.9561  -24.8821   14.7065 O   0  0  0  0  0  0  0  0  0  0  0  0
  -25.4906  -15.3470   20.2124 O   0  0  0  0  0  0  0  0  0  0  0  0
  -24.0673  -11.9921   22.1644 O   0  0  0  0  0  0  0  0  0  0  0  0
  -19.9694  -14.2287   23.0164 O   0  0  0  0  0  0  0  0  0  0  0  0
  -22.7602  -30.0691   21.9218 O   0  0  0  0  0  0  0  0  0  0  0  0
  -29.3803  -19.8820   20.1576 O   0  0  0  0  0  0  0  0  0  0  0  0
  -22.8645  -20.3738   22.5616 O   0  0  0  0  0  0  0  0  0  1  0  0
  -32.1056  -16.8176   16.4717 F   0  0  0  0  0  0  0  0  0  0  0  0
  -32.0554  -19.2818   20.5128 F   0  0  0  0  0  0  0  0  0  0  0  0
  1  2  1  0  0  0  0
  1  5  2  0  0  0  0
  2  6  2  0  0  0  0
  3  8  2  0  0  0  0
  3 17  1  0  0  0  0
  4  9  1  0  0  0  0
  4 17  2  0  0  0  0
  5 20  1  0  0  0  0
  6 22  1  0  0  0  0
  7 10  2  0  0  0  0
  7 21  1  0  0  0  0
  8 27  1  0  0  0  0
  9 27  2  0  0  0  0
 10 28  1  0  0  0  0
 11 12  2  0  0  0  0
 11 29  1  0  0  0  0
 12 30  1  0  0  0  0
 13 18  1  0  0  0  0
 13 26  2  0  0  0  0
 14 23  1  0  0  0  0
 14 28  2  0  0  0  0
 15 24  2  0  0  0  0
 15 26  1  0  0  0  0
 16 30  2  0  0  0  0
 16 31  1  0  0  0  0
 17 32  1  0  0  0  0
 18 25  2  0  0  0  0
 18 36  1  0  0  0  0
 19 32  1  0  0  0  0
 19 33  2  0  0  0  0
 19 37  1  0  0  0  0
 20 22  2  0  0  0  0
 20 42  1  0  0  0  0
 21 23  2  0  0  0  0
 21 43  1  0  0  0  0
 22 54  1  0  0  0  0
 23 44  1  0  0  0  0
 24 25  1  0  0  0  0
 24 65  1  0  0  0  0
 25 58  1  0  0  0  0
 26 77  1  0  0  0  0
 27 87  1  0  0  0  0
 28 88  1  0  0  0  0
 29 31  2  0  0  0  0
 29 87  1  0  0  0  0
 30 89  1  0  0  0  0
 31 90  1  0  0  0  0
 32 70  2  0  0  0  0
 33 71  1  0  0  0  0
 33 75  1  0  0  0  0
 34 45  1  0  0  0  0
 34 72  1  0  0  0  0
 34 81  2  0  0  0  0
 35 36  2  0  0  0  0
 36 59  1  0  0  0  0
 37 76  1  0  0  0  0
 37 82  2  0  0  0  0
 38 55  1  0  0  0  0
 38 78  1  0  0  0  0
 38 83  2  0  0  0  0
 39 67  1  0  0  0  0
 39 73  1  0  0  0  0
 39 84  2  0  0  0  0
 40 68  1  0  0  0  0
 40 79  1  0  0  0  0
 40 85  2  0  0  0  0
 41 74  1  0  0  0  0
 41 77  1  0  0  0  0
 41 86  2  0  0  0  0
 42 46  1  0  0  0  0
 43 55  1  0  0  0  0
 44 73  1  0  0  0  0
 45 56  1  0  0  0  0
 46 48  1  0  0  0  0
 47 49  1  0  0  0  0
 47 51  1  0  0  0  0
 48 54  1  0  0  0  0
 49 57  1  0  0  0  0
 50 52  1  0  0  0  0
 50 56  1  0  0  0  0
 51 74  1  0  0  0  0
 52 72  1  0  0  0  0
 53 57  1  0  0  0  0
 53 74  1  0  0  0  0
 54 78  1  0  0  0  0
 55 73  1  0  0  0  0
 56 66  1  0  0  0  0
 57 71  1  0  0  0  0
 60 68  1  0  0  0  0
 61 69  1  0  0  0  0
 62 69  1  0  0  0  0
 63 69  1  0  0  0  0
 64 80  1  0  0  0  0
 65 72  1  0  0  0  0
 66 88  1  0  0  0  0
 67 69  1  0  0  0  0
 67 79  1  0  0  0  0
 68 80  1  0  0  0  0
 70 71  1  0  0  0  0
M  CHG  1  80   1
M  ISO  4  41 100  66 101  77 100  88 101
M  END
> <Batch ID>
0059

> <Smiles>
C=C(C)c1cc([100NH:0][100C:0](=O)N2CCCC(n3nc(-c4ccc(Oc5ccc(F)cc5F)cc4)c(C(N)=O)c3N)C2)cc(CN2CCC([101CH2:1][101O:1]c3ccc4c(c3)CN(C(=O)C(NC(=O)C(C)NC)C(C)(C)C)C(C(=O)NC3CCCc5ccccc53)C4)CC2=O)c1C

> <Shape>
0.244

> <Color>
0.080

> <Negative vol penalty>
0.000

$$$$

  -OEChem-04042323013D

 91101  0     1  0  0  0  0  0999 V2000
  -17.0498  -29.8665   24.6496 C   0  0  0  0  0  0  0  0  0  0  0  0
  -18.3156  -29.9927   25.2130 C   0  0  0  0  0  0  0  0  0  0  0  0
  -22.3215  -11.9776   22.4859 C   0  0  0  0  0  0  0  0  0  0  0  0
  -21.9475  -12.0747   20.1010 C   0  0  0  0  0  0  0  0  0  0  0  0
  -16.8851  -29.1591   23.4595 C   0  0  0  0  0  0  0  0  0  0  0  0
  -19.4173  -29.4105   24.5871 C   0  0  0  0  0  0  0  0  0  0  0  0
  -26.4300  -30.4332   23.5419 C   0  0  0  0  0  0  0  0  0  0  0  0
  -22.5883  -10.6120   22.3885 C   0  0  0  0  0  0  0  0  0  0  0  0
  -22.2144  -10.7091   20.0035 C   0  0  0  0  0  0  0  0  0  0  0  0
  -27.6475  -29.7676   23.6773 C   0  0  0  0  0  0  0  0  0  0  0  0
  -25.1687   -8.6390   21.4496 C   0  0  0  0  0  0  0  0  0  0  0  0
  -26.2756   -8.1440   22.1390 C   0  0  0  0  0  0  0  0  0  0  0  0
  -27.2550  -28.6362   21.5833 C   0  0  0  0  0  0  0  0  0  0  0  0
  -28.9476  -22.8636   19.8076 C   0  0  0  0  0  0  0  0  0  0  0  0
  -28.3389  -20.4694   21.1037 C   0  0  0  0  0  0  0  0  0  0  0  0
  -24.8316   -6.6776   23.4046 C   0  0  0  0  0  0  0  0  0  0  0  0
  -22.0010  -12.7090   21.3422 C   0  0  0  0  0  0  0  0  0  0  0  0
  -20.7065  -14.7351   22.1948 C   0  0  0  0  0  0  0  0  0  0  0  0
  -17.9868  -28.5762   22.8136 C   0  0  0  0  0  0  0  0  0  0  0  0
  -25.6094  -30.1968   22.4296 C   0  0  0  0  0  0  0  0  0  0  0  0
  -19.2670  -28.6935   23.3879 C   0  0  0  0  0  0  0  0  0  0  0  0
  -26.0287  -29.3020   21.4348 C   0  0  0  0  0  0  0  0  0  0  0  0
  -27.7765  -22.1763   19.4890 C   0  0  0  0  0  0  0  0  0  0  0  0
  -29.5101  -21.1568   21.4223 C   0  0  0  0  0  0  0  0  0  0  0  0
  -29.8145  -22.3538   20.7743 C   0  0  0  0  0  0  0  0  0  0  0  0
  -27.4721  -20.9792   20.1370 C   0  0  0  0  0  0  0  0  0  0  0  0
  -22.5348   -9.9778   21.1473 C   0  0  0  0  0  0  0  0  0  0  0  0
  -28.0588  -28.8667   22.6994 C   0  0  0  0  0  0  0  0  0  0  0  0
  -23.8932   -8.1534   21.7377 C   0  0  0  0  0  0  0  0  0  0  0  0
  -26.1071   -7.1633   23.1165 C   0  0  0  0  0  0  0  0  0  0  0  0
  -23.7247   -7.1727   22.7152 C   0  0  0  0  0  0  0  0  0  0  0  0
  -21.7247  -14.1196   21.4422 C   0  0  0  0  0  0  0  0  0  0  0  0
  -20.8670  -16.0781   21.9558 C   0  0  0  0  0  0  0  0  0  0  0  0
  -30.6918  -25.5022   20.6716 C   0  0  0  0  0  0  0  0  0  0  0  0
  -19.7053  -14.1456   23.0348 C   0  0  0  0  0  0  0  0  0  0  0  0
  -22.6776  -29.0427   22.0099 C   0  0  0  0  0  0  0  0  0  0  0  0
  -23.2044  -29.8955   18.9249 C   0  0  0  0  0  0  0  0  0  0  0  0
  -24.4651  -30.7257   15.8641 C   0  0  0  0  0  0  0  0  0  0  0  0
  -25.8437  -19.0625   20.3805 C   0  0  0  0  0  0  0  0  0  0  0  0
  -17.7524  -27.7809   21.5538 C   0  0  0  0  0  0  0  0  0  0  0  0
  -24.3114  -30.9429   22.2850 C   0  0  0  0  0  0  0  0  0  0  0  0
  -25.1939  -29.0282   20.2115 C   0  0  0  0  0  0  0  0  0  0  0  0
  -30.4258  -26.9045   21.1858 C   0  0  0  0  0  0  0  0  0  0  0  0
  -19.0265  -27.5127   20.7568 C   0  0  0  0  0  0  0  0  0  0  0  0
  -33.4994  -24.3630   21.5452 C   0  0  0  0  0  0  0  0  0  0  0  0
  -33.4430  -22.9398   21.0180 C   0  0  0  0  0  0  0  0  0  0  0  0
  -22.7543  -18.4551   18.1872 C   0  0  0  0  0  0  0  0  0  0  0  0
  -20.1420  -27.0318   21.6794 C   0  0  0  0  0  0  0  0  0  0  0  0
  -21.8046  -17.8866   19.2389 C   0  0  0  0  0  0  0  0  0  0  0  0
  -29.6137  -25.9048   23.3536 C   0  0  0  0  0  0  0  0  0  0  0  0
  -32.2919  -24.6507   22.4331 C   0  0  0  0  0  0  0  0  0  0  0  0
  -29.7906  -24.5005   22.7737 C   0  0  0  0  0  0  0  0  0  0  0  0
  -32.1454  -22.6800   20.2665 C   0  0  0  0  0  0  0  0  0  0  0  0
  -23.8550  -19.3088   18.8042 C   0  0  0  0  0  0  0  0  0  0  0  0
  -24.0456  -17.3445   20.3407 C   0  0  0  0  0  0  0  0  0  0  0  0
  -20.4902  -28.0973   22.7258 C   0  0  1  0  0  0  0  0  0  0  0  0
  -23.3173  -30.2400   21.3658 C   0  0  1  0  0  0  0  0  0  0  0  0
  -22.5247  -17.4533   20.5312 C   0  0  2  0  0  0  0  0  0  0  0  0
  -29.3358  -26.9159   22.2465 C   0  0  1  0  0  0  0  0  0  1  0  0
  -30.9325  -24.4005   21.7256 C   0  0  1  0  0  0  0  0  0  0  0  0
  -26.8667  -22.7453   18.4490 C   0  0  0  0  0  0  0  0  0  0  0  0
  -30.4209  -20.5885   22.4616 C   0  0  0  0  0  0  0  0  0  0  0  0
  -23.8653  -30.7512   13.4275 C   0  0  0  0  0  0  0  0  0  0  0  0
  -23.6210  -26.8757   18.7933 C   0  0  0  0  0  0  0  0  0  0  0  0
  -23.9582  -27.0999   16.3227 C   0  0  0  0  0  0  0  0  0  0  0  0
  -21.7739  -27.7381   17.3446 C   0  0  0  0  0  0  0  0  0  0  0  0
  -24.7818  -33.6636   15.6978 C   0  0  0  0  0  0  0  0  0  0  0  0
  -23.7930  -29.2143   17.7130 C   0  0  1  0  0  0  0  0  0  0  0  0
  -23.8861  -31.5447   14.7247 C   0  0  2  0  0  0  0  0  0  0  0  0
  -23.3027  -27.7466   17.5616 C   0  0  0  0  0  0  0  0  0  0  0  0
  -22.4763  -14.9993   20.7750 N   0  0  0  0  0  0  0  0  0  0  0  0
  -21.9299  -16.1813   21.1074 N   0  0  0  0  0  0  0  0  0  0  0  0
  -30.9832  -23.0558   21.0810 N   0  0  1  0  0  0  0  0  0  0  0  0
  -23.9300  -29.7776   20.1188 N   0  0  0  0  0  0  0  0  0  0  0  0
  -24.6112  -18.6072   19.8516 N   0  0  0  0  0  0  0  0  0  0  0  0
  -20.2011  -17.1689   22.3906 N   0  0  0  0  0  0  0  0  0  0  0  0
  -18.4768  -13.7901   22.4614 N   0  0  0  0  0  0  0  0  0  0  0  0
  -26.2873  -20.2660   19.8260 N   0  0  0  0  0  0  0  0  0  0  0  0
  -21.3048  -29.1379   22.1358 N   0  0  0  0  0  0  0  0  0  0  0  0
  -23.4812  -30.0691   16.5726 N   0  0  0  0  0  0  0  0  0  0  0  0
  -24.6959  -32.7770   14.5088 N   0  3  0  0  0  0  0  0  0  0  0  0
  -30.7760  -25.3085   19.4588 O   0  0  0  0  0  0  0  0  0  0  0  0
  -19.8884  -13.9552   24.2611 O   0  0  0  0  0  0  0  0  0  0  0  0
  -23.3774  -28.1015   22.3650 O   0  0  0  0  0  0  0  0  0  0  0  0
  -22.1438  -30.5155   18.8146 O   0  0  0  0  0  0  0  0  0  0  0  0
  -25.6701  -30.6708   16.0997 O   0  0  0  0  0  0  0  0  0  0  0  0
  -26.4415  -18.4384   21.2597 O   0  0  0  0  0  0  0  0  0  0  0  0
  -22.7954   -8.6453   21.0518 O   0  0  0  0  0  0  0  0  0  0  0  0
  -29.2527  -28.2117   22.8301 O   0  0  0  0  0  0  0  0  0  1  0  0
  -27.1703   -6.6869   23.7774 F   0  0  0  0  0  0  0  0  0  0  0  0
  -22.5019   -6.7015   22.9956 F   0  0  0  0  0  0  0  0  0  0  0  0
  1  2  1  0  0  0  0
  1  5  2  0  0  0  0
  2  6  2  0  0  0  0
  3  8  2  0  0  0  0
  3 17  1  0  0  0  0
  4  9  1  0  0  0  0
  4 17  2  0  0  0  0
  5 19  1  0  0  0  0
  6 21  1  0  0  0  0
  7 10  2  0  0  0  0
  7 20  1  0  0  0  0
  8 27  1  0  0  0  0
  9 27  2  0  0  0  0
 10 28  1  0  0  0  0
 11 12  2  0  0  0  0
 11 29  1  0  0  0  0
 12 30  1  0  0  0  0
 13 22  1  0  0  0  0
 13 28  2  0  0  0  0
 14 23  2  0  0  0  0
 14 25  1  0  0  0  0
 15 24  1  0  0  0  0
 15 26  2  0  0  0  0
 16 30  2  0  0  0  0
 16 31  1  0  0  0  0
 17 32  1  0  0  0  0
 18 32  1  0  0  0  0
 18 33  2  0  0  0  0
 18 35  1  0  0  0  0
 19 21  2  0  0  0  0
 19 40  1  0  0  0  0
 20 22  2  0  0  0  0
 20 41  1  0  0  0  0
 21 56  1  0  0  0  0
 22 42  1  0  0  0  0
 23 26  1  0  0  0  0
 23 61  1  0  0  0  0
 24 25  2  0  0  0  0
 24 62  1  0  0  0  0
 25 73  1  0  0  0  0
 26 78  1  0  0  0  0
 27 88  1  0  0  0  0
 28 89  1  0  0  0  0
 29 31  2  0  0  0  0
 29 88  1  0  0  0  0
 30 90  1  0  0  0  0
 31 91  1  0  0  0  0
 32 71  2  0  0  0  0
 33 72  1  0  0  0  0
 33 76  1  0  0  0  0
 34 43  1  0  0  0  0
 34 60  1  0  0  0  0
 34 82  2  0  0  0  0
 35 77  1  0  0  0  0
 35 83  2  0  0  0  0
 36 57  1  0  0  0  0
 36 79  1  0  0  0  0
 36 84  2  0  0  0  0
 37 68  1  0  0  0  0
 37 74  1  0  0  0  0
 37 85  2  0  0  0  0
 38 69  1  0  0  0  0
 38 80  1  0  0  0  0
 38 86  2  0  0  0  0
 39 75  1  0  0  0  0
 39 78  1  0  0  0  0
 39 87  2  0  0  0  0
 40 44  1  0  0  0  0
 41 57  1  0  0  0  0
 42 74  1  0  0  0  0
 43 59  1  0  0  0  0
 44 48  1  0  0  0  0
 45 46  1  0  0  0  0
 45 51  1  0  0  0  0
 46 53  1  0  0  0  0
 47 49  1  0  0  0  0
 47 54  1  0  0  0  0
 48 56  1  0  0  0  0
 49 58  1  0  0  0  0
 50 52  1  0  0  0  0
 50 59  1  0  0  0  0
 51 60  1  0  0  0  0
 52 60  1  0  0  0  0
 53 73  1  0  0  0  0
 54 75  1  0  0  0  0
 55 58  1  0  0  0  0
 55 75  1  0  0  0  0
 56 79  1  0  0  0  0
 57 74  1  0  0  0  0
 58 72  1  0  0  0  0
 59 89  1  0  0  0  0
 60 73  1  0  0  0  0
 63 69  1  0  0  0  0
 64 70  1  0  0  0  0
 65 70  1  0  0  0  0
 66 70  1  0  0  0  0
 67 81  1  0  0  0  0
 68 70  1  0  0  0  0
 68 80  1  0  0  0  0
 69 81  1  0  0  0  0
 71 72  1  0  0  0  0
M  CHG  1  81   1
M  ISO  4  39 100  59 101  78 100  89 101
M  END
> <Batch ID>
0059

> <Smiles>
CNC(C)C(=O)NC(C(=O)N1Cc2cc([101O:1][101CH:1]3CCC4(CCCCN4c4cc(C)c([100NH:0][100C:0](=O)N5CCCC(n6nc(-c7ccc(Oc8ccc(F)cc8F)cc7)c(C(N)=O)c6N)C5)cc4C)C(=O)C3)ccc2CC1C(=O)NC1CCCc2ccccc21)C(C)(C)C

> <Shape>
0.246

> <Color>
0.101

> <Negative vol penalty>
0.000

$$$$

  -OEChem-04042323013D

 84 92  0     1  0  0  0  0  0999 V2000
  -25.4882  -18.0162   16.2811 C   0  0  0  0  0  0  0  0  0  0  0  0
  -25.6406  -18.2625   17.6418 C   0  0  0  0  0  0  0  0  0  0  0  0
  -23.0861   -9.8304   19.9413 C   0  0  0  0  0  0  0  0  0  0  0  0
  -23.8372   -9.8574   22.2374 C   0  0  0  0  0  0  0  0  0  0  0  0
  -26.5673  -18.1944   15.4164 C   0  0  0  0  0  0  0  0  0  0  0  0
  -26.8726  -18.6861   18.1388 C   0  0  0  0  0  0  0  0  0  0  0  0
  -29.7046  -22.8191   23.2589 C   0  0  0  0  0  0  0  0  0  0  0  0
  -32.5747  -17.5649   23.4361 C   0  0  0  0  0  0  0  0  0  0  0  0
  -31.9828  -16.6777   22.5372 C   0  0  0  0  0  0  0  0  0  0  0  0
  -22.3553   -8.6695   20.1940 C   0  0  0  0  0  0  0  0  0  0  0  0
  -23.1064   -8.6964   22.4901 C   0  0  0  0  0  0  0  0  0  0  0  0
  -30.6411  -22.7664   24.2904 C   0  0  0  0  0  0  0  0  0  0  0  0
  -19.8859   -7.8623   23.0845 C   0  0  0  0  0  0  0  0  0  0  0  0
  -19.1251   -7.8186   24.2527 C   0  0  0  0  0  0  0  0  0  0  0  0
  -32.4131  -23.1166   22.6915 C   0  0  0  0  0  0  0  0  0  0  0  0
  -30.3931  -18.4112   24.0374 C   0  0  0  0  0  0  0  0  0  0  0  0
  -20.3872   -5.8999   25.0029 C   0  0  0  0  0  0  0  0  0  0  0  0
  -23.8271  -10.4243   20.9630 C   0  0  0  0  0  0  0  0  0  0  0  0
  -24.1387  -12.9529   20.8324 C   0  0  0  0  0  0  0  0  0  0  0  0
  -27.8105  -18.6298   15.9017 C   0  0  0  0  0  0  0  0  0  0  0  0
  -30.1170  -23.0104   21.9323 C   0  0  0  0  0  0  0  0  0  0  0  0
  -27.9698  -18.8691   17.2800 C   0  0  0  0  0  0  0  0  0  0  0  0
  -31.4797  -23.1739   21.6452 C   0  0  0  0  0  0  0  0  0  0  0  0
  -29.8012  -17.5240   23.1384 C   0  0  0  0  0  0  0  0  0  0  0  0
  -31.7799  -18.4317   24.1863 C   0  0  0  0  0  0  0  0  0  0  0  0
  -30.5961  -16.6572   22.3883 C   0  0  0  0  0  0  0  0  0  0  0  0
  -22.3654   -8.1025   21.4684 C   0  0  0  0  0  0  0  0  0  0  0  0
  -31.9958  -22.9122   24.0064 C   0  0  0  0  0  0  0  0  0  0  0  0
  -20.8973   -6.9247   22.8753 C   0  0  0  0  0  0  0  0  0  0  0  0
  -19.3758   -6.8375   25.2120 C   0  0  0  0  0  0  0  0  0  0  0  0
  -21.1480   -5.9435   23.8346 C   0  0  0  0  0  0  0  0  0  0  0  0
  -24.5826  -11.6233   20.7025 C   0  0  0  0  0  0  0  0  0  0  0  0
  -25.2230  -13.7139   20.4696 C   0  0  0  0  0  0  0  0  0  0  0  0
  -22.8605  -13.4552   21.2442 C   0  0  0  0  0  0  0  0  0  0  0  0
  -29.9190  -21.3094   19.2543 C   0  0  0  0  0  0  0  0  0  0  0  0
  -31.1711  -23.9884   17.9210 C   0  0  0  0  0  0  0  0  0  0  0  0
  -33.7368  -19.4810   25.3744 C   0  0  0  0  0  0  0  0  0  0  0  0
  -32.9874  -26.8492   18.3260 C   0  0  0  0  0  0  0  0  0  0  0  0
  -30.6754  -14.8266   20.6595 C   0  0  0  0  0  0  0  0  0  0  0  0
  -28.9608  -18.7627   14.9353 C   0  0  0  0  0  0  0  0  0  0  0  0
  -29.0922  -23.0916   20.8343 C   0  0  0  0  0  0  0  0  0  0  0  0
  -31.9724  -23.4018   20.2403 C   0  0  0  0  0  0  0  0  0  0  0  0
  -30.1297  -19.5743   15.4878 C   0  0  0  0  0  0  0  0  0  0  0  0
  -29.5993  -12.3884   18.2986 C   0  0  0  0  0  0  0  0  0  0  0  0
  -30.4678  -19.1261   16.9061 C   0  0  0  0  0  0  0  0  0  0  0  0
  -28.1617  -12.0813   18.7242 C   0  0  0  0  0  0  0  0  0  0  0  0
  -30.5070  -12.6339   19.5025 C   0  0  0  0  0  0  0  0  0  0  0  0
  -28.5863  -13.3416   20.8733 C   0  0  0  0  0  0  0  0  0  0  0  0
  -29.2837  -19.3537   17.8536 C   0  0  1  0  0  0  0  0  0  0  0  0
  -29.6665  -22.7768   19.4564 C   0  0  1  0  0  0  0  0  0  0  0  0
  -27.6200  -13.1510   19.6927 C   0  0  2  0  0  0  0  0  0  0  0  0
  -28.3133  -17.5220   23.0007 C   0  0  0  0  0  0  0  0  0  0  0  0
  -33.8751  -28.8167   17.0462 C   0  0  0  0  0  0  0  0  0  0  0  0
  -33.3510  -22.2220   16.7221 C   0  0  0  0  0  0  0  0  0  0  0  0
  -34.6891  -24.2918   16.2821 C   0  0  0  0  0  0  0  0  0  0  0  0
  -32.4718  -23.9847   15.1813 C   0  0  0  0  0  0  0  0  0  0  0  0
  -31.4468  -28.7641   19.9748 C   0  0  0  0  0  0  0  0  0  0  0  0
  -33.9517  -20.5615   26.4252 C   0  0  0  0  0  0  0  0  0  0  0  0
  -34.8138  -21.7119   25.9170 C   0  0  0  0  0  0  0  0  0  0  0  0
  -34.2091  -22.3649   24.6827 C   0  0  0  0  0  0  0  0  0  1  0  0
  -32.5669  -24.4981   17.6550 C   0  0  1  0  0  0  0  0  0  0  0  0
  -32.7270  -28.2784   17.8858 C   0  0  2  0  0  0  0  0  0  0  0  0
  -33.2609  -23.7429   16.4865 C   0  0  0  0  0  0  0  0  0  0  0  0
  -25.8501  -11.5408   20.2894 N   0  0  0  0  0  0  0  0  0  0  0  0
  -26.2119  -12.8283   20.1564 N   0  0  0  0  0  0  0  0  0  0  0  0
  -30.9322  -23.4671   19.2005 N   0  0  0  0  0  0  0  0  0  0  0  0
  -29.9323  -13.6619   20.3729 N   0  0  0  0  0  0  0  0  0  0  0  0
  -25.4175  -15.0474   20.3911 N   0  0  0  0  0  0  0  0  0  0  0  0
  -21.8584  -12.5354   21.5820 N   0  0  0  0  0  0  0  0  0  0  0  0
  -32.3804  -19.3298   25.1002 N   0  0  0  0  0  0  0  0  0  0  0  0
  -30.0138  -15.7475   21.4712 N   0  0  0  0  0  0  0  0  0  0  0  0
  -29.1916  -20.7504   18.2210 N   0  0  0  0  0  0  0  0  0  0  0  0
  -32.4434  -25.9368   17.4469 N   0  0  0  0  0  0  0  0  0  0  0  0
  -32.5577  -29.1634   19.0729 N   0  3  0  0  0  0  0  0  0  0  0  0
  -22.6091  -14.6831   21.2948 O   0  0  0  0  0  0  0  0  0  0  0  0
  -30.7160  -20.7278   19.9811 O   0  0  0  0  0  0  0  0  0  0  0  0
  -30.3220  -24.0570   17.0289 O   0  0  0  0  0  0  0  0  0  0  0  0
  -34.6713  -18.8630   24.8753 O   0  0  0  0  0  0  0  0  0  0  0  0
  -33.6141  -26.5699   19.3457 O   0  0  0  0  0  0  0  0  0  0  0  0
  -31.8042  -15.0068   20.1953 O   0  0  0  0  0  0  0  0  0  0  0  0
  -21.6523   -6.9698   21.7153 O   0  0  0  0  0  0  0  0  0  0  0  0
  -32.9119  -22.8605   25.0113 O   0  0  0  0  0  0  0  0  0  1  0  0
  -18.6461   -6.7966   26.3345 F   0  0  0  0  0  0  0  0  0  0  0  0
  -22.1191   -5.0408   23.6398 F   0  0  0  0  0  0  0  0  0  0  0  0
  1  2  1  0  0  0  0
  1  5  2  0  0  0  0
  2  6  2  0  0  0  0
  3 10  2  0  0  0  0
  3 18  1  0  0  0  0
  4 11  1  0  0  0  0
  4 18  2  0  0  0  0
  5 20  1  0  0  0  0
  6 22  1  0  0  0  0
  7 12  2  0  0  0  0
  7 21  1  0  0  0  0
  8  9  2  0  0  0  0
  8 25  1  0  0  0  0
  9 26  1  0  0  0  0
 10 27  1  0  0  0  0
 11 27  2  0  0  0  0
 12 28  1  0  0  0  0
 13 14  2  0  0  0  0
 13 29  1  0  0  0  0
 14 30  1  0  0  0  0
 15 23  1  0  0  0  0
 15 28  2  0  0  0  0
 16 24  1  0  0  0  0
 16 25  2  0  0  0  0
 17 30  2  0  0  0  0
 17 31  1  0  0  0  0
 18 32  1  0  0  0  0
 19 32  1  0  0  0  0
 19 33  2  0  0  0  0
 19 34  1  0  0  0  0
 20 22  2  0  0  0  0
 20 40  1  0  0  0  0
 21 23  2  0  0  0  0
 21 41  1  0  0  0  0
 22 49  1  0  0  0  0
 23 42  1  0  0  0  0
 24 26  2  0  0  0  0
 24 52  1  0  0  0  0
 25 70  1  0  0  0  0
 26 71  1  0  0  0  0
 27 81  1  0  0  0  0
 28 82  1  0  0  0  0
 29 31  2  0  0  0  0
 29 81  1  0  0  0  0
 30 83  1  0  0  0  0
 31 84  1  0  0  0  0
 32 64  2  0  0  0  0
 33 65  1  0  0  0  0
 33 68  1  0  0  0  0
 34 69  1  0  0  0  0
 34 75  2  0  0  0  0
 35 50  1  0  0  0  0
 35 72  1  0  0  0  0
 35 76  2  0  0  0  0
 36 61  1  0  0  0  0
 36 66  1  0  0  0  0
 36 77  2  0  0  0  0
 37 58  1  0  0  0  0
 37 70  1  0  0  0  0
 37 78  2  0  0  0  0
 38 62  1  0  0  0  0
 38 73  1  0  0  0  0
 38 79  2  0  0  0  0
 39 67  1  0  0  0  0
 39 71  1  0  0  0  0
 39 80  2  0  0  0  0
 40 43  1  0  0  0  0
 41 50  1  0  0  0  0
 42 66  1  0  0  0  0
 43 45  1  0  0  0  0
 44 46  1  0  0  0  0
 44 47  1  0  0  0  0
 45 49  1  0  0  0  0
 46 51  1  0  0  0  0
 47 67  1  0  0  0  0
 48 51  1  0  0  0  0
 48 67  1  0  0  0  0
 49 72  1  0  0  0  0
 50 66  1  0  0  0  0
 51 65  1  0  0  0  0
 53 62  1  0  0  0  0
 54 63  1  0  0  0  0
 55 63  1  0  0  0  0
 56 63  1  0  0  0  0
 57 74  1  0  0  0  0
 58 59  1  0  0  0  0
 59 60  1  0  0  0  0
 60 82  1  0  0  0  0
 61 63  1  0  0  0  0
 61 73  1  0  0  0  0
 62 74  1  0  0  0  0
 64 65  1  0  0  0  0
M  CHG  1  74   1
M  ISO  4  39 100  60 101  71 100  82 101
M  END
> <Batch ID>
0059

> <Smiles>
CNC(C)C(=O)NC(C(=O)N1Cc2cc([101O:1][101CH2:1]CCC(=O)Nc3ccc([100NH:0][100C:0](=O)N4CCCC(n5nc(-c6ccc(Oc7ccc(F)cc7F)cc6)c(C(N)=O)c5N)C4)c(C)c3)ccc2CC1C(=O)NC1CCCc2ccccc21)C(C)(C)C

> <Shape>
0.229

> <Color>
0.195

> <Negative vol penalty>
0.000

$$$$

  -OEChem-04042323013D

 86 94  0     1  0  0  0  0  0999 V2000
  -17.4664  -24.5911   23.4418 C   0  0  0  0  0  0  0  0  0  0  0  0
  -18.8200  -24.2721   23.4038 C   0  0  0  0  0  0  0  0  0  0  0  0
  -23.0558   -9.9784   21.5173 C   0  0  0  0  0  0  0  0  0  0  0  0
  -23.7818  -10.9814   23.5919 C   0  0  0  0  0  0  0  0  0  0  0  0
  -17.0613  -25.9206   23.3314 C   0  0  0  0  0  0  0  0  0  0  0  0
  -19.7693  -25.2825   23.2544 C   0  0  0  0  0  0  0  0  0  0  0  0
  -23.6887  -24.7487   26.4165 C   0  0  0  0  0  0  0  0  0  0  0  0
  -22.2805   -9.0642   22.2305 C   0  0  0  0  0  0  0  0  0  0  0  0
  -23.0064  -10.0672   24.3051 C   0  0  0  0  0  0  0  0  0  0  0  0
  -24.6544  -23.8014   26.0793 C   0  0  0  0  0  0  0  0  0  0  0  0
  -22.7676   -6.2033   23.9633 C   0  0  0  0  0  0  0  0  0  0  0  0
  -22.8232   -4.8650   23.5743 C   0  0  0  0  0  0  0  0  0  0  0  0
  -26.0661  -25.5567   25.2159 C   0  0  0  0  0  0  0  0  0  0  0  0
  -29.9935  -18.0954   21.2171 C   0  0  0  0  0  0  0  0  0  0  0  0
  -32.1648  -17.0414   21.1132 C   0  0  0  0  0  0  0  0  0  0  0  0
  -20.4488   -4.8959   23.1286 C   0  0  0  0  0  0  0  0  0  0  0  0
  -23.8065  -10.9369   22.1979 C   0  0  0  0  0  0  0  0  0  0  0  0
  -24.2114  -13.1465   20.9890 C   0  0  0  0  0  0  0  0  0  0  0  0
  -18.0066  -26.9488   23.1903 C   0  0  0  0  0  0  0  0  0  0  0  0
  -23.9001  -26.1083   26.1456 C   0  0  0  0  0  0  0  0  0  0  0  0
  -19.3764  -26.6269   23.1407 C   0  0  0  0  0  0  0  0  0  0  0  0
  -25.1025  -26.5196   25.5530 C   0  0  0  0  0  0  0  0  0  0  0  0
  -31.9720  -19.3429   21.8223 C   0  0  0  0  0  0  0  0  0  0  0  0
  -30.7815  -16.9769   20.9461 C   0  0  0  0  0  0  0  0  0  0  0  0
  -30.5887  -19.2785   21.6551 C   0  0  0  0  0  0  0  0  0  0  0  0
  -22.2558   -9.1086   23.6244 C   0  0  0  0  0  0  0  0  0  0  0  0
  -25.8421  -24.2050   25.4763 C   0  0  0  0  0  0  0  0  0  0  0  0
  -21.5526   -6.8879   23.9350 C   0  0  0  0  0  0  0  0  0  0  0  0
  -21.6638   -4.2112   23.1569 C   0  0  0  0  0  0  0  0  0  0  0  0
  -32.7601  -18.2244   21.5513 C   0  0  0  0  0  0  0  0  0  0  0  0
  -20.3932   -6.2342   23.5176 C   0  0  0  0  0  0  0  0  0  0  0  0
  -24.6080  -11.8812   21.4617 C   0  0  0  0  0  0  0  0  0  0  0  0
  -25.3267  -13.6430   20.3596 C   0  0  0  0  0  0  0  0  0  0  0  0
  -28.0821  -22.2827   23.4269 C   0  0  0  0  0  0  0  0  0  0  0  0
  -22.9478  -13.8135   21.1082 C   0  0  0  0  0  0  0  0  0  0  0  0
  -27.8574  -21.8401   22.1767 C   0  0  0  0  0  0  0  0  0  0  0  0
  -28.3923  -20.4888   21.8054 C   0  0  0  0  0  0  0  0  0  0  0  0
  -22.4499  -28.2884   24.3435 C   0  0  0  0  0  0  0  0  0  0  0  0
  -24.5623  -30.3002   25.7620 C   0  0  0  0  0  0  0  0  0  0  0  0
  -27.5555  -30.7092   27.3496 C   0  0  0  0  0  0  0  0  0  0  0  0
  -30.8135  -14.5747   20.1879 C   0  0  0  0  0  0  0  0  0  0  0  0
  -17.5184  -28.3664   23.0272 C   0  0  0  0  0  0  0  0  0  0  0  0
  -22.8598  -27.1206   26.5399 C   0  0  0  0  0  0  0  0  0  0  0  0
  -25.3868  -27.9693   25.2596 C   0  0  0  0  0  0  0  0  0  0  0  0
  -18.6062  -29.4144   23.2479 C   0  0  0  0  0  0  0  0  0  0  0  0
  -29.6757  -11.3829   19.0949 C   0  0  0  0  0  0  0  0  0  0  0  0
  -19.8771  -29.0311   22.4964 C   0  0  0  0  0  0  0  0  0  0  0  0
  -28.2232  -11.3321   19.5744 C   0  0  0  0  0  0  0  0  0  0  0  0
  -30.5783  -12.1027   20.0954 C   0  0  0  0  0  0  0  0  0  0  0  0
  -28.6694  -13.3899   20.9719 C   0  0  0  0  0  0  0  0  0  0  0  0
  -20.4376  -27.6973   23.0048 C   0  0  1  0  0  0  0  0  0  0  0  0
  -22.9624  -28.4215   25.7496 C   0  0  1  0  0  0  0  0  0  0  0  0
  -27.7101  -12.7314   19.9671 C   0  0  2  0  0  0  0  0  0  0  0  0
  -32.6333  -20.5982   22.2917 C   0  0  0  0  0  0  0  0  0  0  0  0
  -27.0836  -22.5363   21.1007 C   0  0  0  0  0  0  0  0  0  0  0  0
  -29.0263  -32.4759   28.3560 C   0  0  0  0  0  0  0  0  0  0  0  0
  -25.3948  -31.1962   22.9667 C   0  0  0  0  0  0  0  0  0  0  0  0
  -27.4513  -32.2043   23.9780 C   0  0  0  0  0  0  0  0  0  0  0  0
  -25.1978  -33.0450   24.6393 C   0  0  0  0  0  0  0  0  0  0  0  0
  -27.4247  -29.4567   30.0278 C   0  0  0  0  0  0  0  0  0  0  0  0
  -27.6126  -23.5738   24.0193 C   0  0  0  0  0  0  0  0  0  1  0  0
  -25.9610  -30.7752   25.4503 C   0  0  1  0  0  0  0  0  0  0  0  0
  -27.9295  -31.4554   28.6176 C   0  0  2  0  0  0  0  0  0  0  0  0
  -25.9954  -31.7776   24.2622 C   0  0  0  0  0  0  0  0  0  0  0  0
  -25.8762  -11.5918   21.1584 N   0  0  0  0  0  0  0  0  0  0  0  0
  -26.2861  -12.6822   20.4883 N   0  0  0  0  0  0  0  0  0  0  0  0
  -24.3360  -28.9204   25.6580 N   0  0  0  0  0  0  0  0  0  0  0  0
  -30.0317  -13.4228   20.4171 N   0  0  0  0  0  0  0  0  0  0  0  0
  -25.5704  -14.8033   19.7142 N   0  0  0  0  0  0  0  0  0  0  0  0
  -21.9092  -13.1609   21.7863 N   0  0  0  0  0  0  0  0  0  0  0  0
  -29.7719  -20.4033   21.9248 N   0  0  0  0  0  0  0  0  0  0  0  0
  -30.1768  -15.7753   20.5010 N   0  0  0  0  0  0  0  0  0  0  0  0
  -21.1304  -27.8862   24.2613 N   0  0  0  0  0  0  0  0  0  0  0  0
  -26.4986  -31.3081   26.6974 N   0  0  0  0  0  0  0  0  0  0  0  0
  -28.4126  -30.5021   29.6562 N   0  3  0  0  0  0  0  0  0  0  0  0
  -22.7407  -14.9474   20.6134 O   0  0  0  0  0  0  0  0  0  0  0  0
  -27.6144  -19.6320   21.3980 O   0  0  0  0  0  0  0  0  0  0  0  0
  -23.1958  -28.5338   23.4027 O   0  0  0  0  0  0  0  0  0  0  0  0
  -23.7042  -31.1222   26.0929 O   0  0  0  0  0  0  0  0  0  0  0  0
  -28.1447  -29.6984   26.9732 O   0  0  0  0  0  0  0  0  0  0  0  0
  -31.9531  -14.5033   19.7209 O   0  0  0  0  0  0  0  0  0  0  0  0
  -21.4991   -8.2168   24.3208 O   0  0  0  0  0  0  0  0  0  0  0  0
  -26.7861  -23.2824   25.1455 O   0  0  0  0  0  0  0  0  0  1  0  0
  -21.7177   -2.9265   22.7819 F   0  0  0  0  0  0  0  0  0  0  0  0
  -34.0901  -18.2753   21.7102 F   0  0  0  0  0  0  0  0  0  0  0  0
  -19.2233   -6.8870   23.4872 F   0  0  0  0  0  0  0  0  0  0  0  0
  1  2  1  0  0  0  0
  1  5  2  0  0  0  0
  2  6  2  0  0  0  0
  3  8  2  0  0  0  0
  3 17  1  0  0  0  0
  4  9  1  0  0  0  0
  4 17  2  0  0  0  0
  5 19  1  0  0  0  0
  6 21  1  0  0  0  0
  7 10  2  0  0  0  0
  7 20  1  0  0  0  0
  8 26  1  0  0  0  0
  9 26  2  0  0  0  0
 10 27  1  0  0  0  0
 11 12  2  0  0  0  0
 11 28  1  0  0  0  0
 12 29  1  0  0  0  0
 13 22  1  0  0  0  0
 13 27  2  0  0  0  0
 14 24  2  0  0  0  0
 14 25  1  0  0  0  0
 15 24  1  0  0  0  0
 15 30  2  0  0  0  0
 16 29  2  0  0  0  0
 16 31  1  0  0  0  0
 17 32  1  0  0  0  0
 18 32  1  0  0  0  0
 18 33  2  0  0  0  0
 18 35  1  0  0  0  0
 19 21  2  0  0  0  0
 19 42  1  0  0  0  0
 20 22  2  0  0  0  0
 20 43  1  0  0  0  0
 21 51  1  0  0  0  0
 22 44  1  0  0  0  0
 23 25  2  0  0  0  0
 23 30  1  0  0  0  0
 23 54  1  0  0  0  0
 24 72  1  0  0  0  0
 25 71  1  0  0  0  0
 26 82  1  0  0  0  0
 27 83  1  0  0  0  0
 28 31  2  0  0  0  0
 28 82  1  0  0  0  0
 29 84  1  0  0  0  0
 30 85  1  0  0  0  0
 31 86  1  0  0  0  0
 32 65  2  0  0  0  0
 33 66  1  0  0  0  0
 33 69  1  0  0  0  0
 34 36  2  0  0  0  0
 34 61  1  0  0  0  0
 35 70  1  0  0  0  0
 35 76  2  0  0  0  0
 36 37  1  0  0  0  0
 36 55  1  0  0  0  0
 37 71  1  0  0  0  0
 37 77  2  0  0  0  0
 38 52  1  0  0  0  0
 38 73  1  0  0  0  0
 38 78  2  0  0  0  0
 39 62  1  0  0  0  0
 39 67  1  0  0  0  0
 39 79  2  0  0  0  0
 40 63  1  0  0  0  0
 40 74  1  0  0  0  0
 40 80  2  0  0  0  0
 41 68  1  0  0  0  0
 41 72  1  0  0  0  0
 41 81  2  0  0  0  0
 42 45  1  0  0  0  0
 43 52  1  0  0  0  0
 44 67  1  0  0  0  0
 45 47  1  0  0  0  0
 46 48  1  0  0  0  0
 46 49  1  0  0  0  0
 47 51  1  0  0  0  0
 48 53  1  0  0  0  0
 49 68  1  0  0  0  0
 50 53  1  0  0  0  0
 50 68  1  0  0  0  0
 51 73  1  0  0  0  0
 52 67  1  0  0  0  0
 53 66  1  0  0  0  0
 56 63  1  0  0  0  0
 57 64  1  0  0  0  0
 58 64  1  0  0  0  0
 59 64  1  0  0  0  0
 60 75  1  0  0  0  0
 61 83  1  0  0  0  0
 62 64  1  0  0  0  0
 62 74  1  0  0  0  0
 63 75  1  0  0  0  0
 65 66  1  0  0  0  0
M  CHG  1  75   1
M  ISO  4  41 100  61 101  72 100  83 101
M  END
> <Batch ID>
0059

> <Smiles>
CNC(C)C(=O)NC(C(=O)N1Cc2cc([101O:1][101CH2:1]C=C(C)C(=O)Nc3cc([100NH:0][100C:0](=O)N4CCCC(n5nc(-c6ccc(Oc7ccc(F)cc7F)cc6)c(C(N)=O)c5N)C4)cc(F)c3C)ccc2CC1C(=O)NC1CCCc2ccccc21)C(C)(C)C

> <Shape>
0.285

> <Color>
0.171

> <Negative vol penalty>
0.000

$$$$

  -OEChem-04042323013D

 84 92  0     1  0  0  0  0  0999 V2000
  -32.6412  -26.2633   17.5210 C   0  0  0  0  0  0  0  0  0  0  0  0
  -31.3408  -25.9814   17.9269 C   0  0  0  0  0  0  0  0  0  0  0  0
  -24.6256   -9.2111   21.9708 C   0  0  0  0  0  0  0  0  0  0  0  0
  -23.0233  -10.3837   20.5944 C   0  0  0  0  0  0  0  0  0  0  0  0
  -33.4486  -27.0926   18.2984 C   0  0  0  0  0  0  0  0  0  0  0  0
  -30.8473  -26.5277   19.1112 C   0  0  0  0  0  0  0  0  0  0  0  0
  -26.1643  -28.3836   18.5910 C   0  0  0  0  0  0  0  0  0  0  0  0
  -22.9274  -19.3423   18.7082 C   0  0  0  0  0  0  0  0  0  0  0  0
  -23.8323  -18.3011   18.9143 C   0  0  0  0  0  0  0  0  0  0  0  0
  -23.5931   -8.4613   22.5340 C   0  0  0  0  0  0  0  0  0  0  0  0
  -21.9907   -9.6338   21.1576 C   0  0  0  0  0  0  0  0  0  0  0  0
  -25.1135  -27.4674   18.5843 C   0  0  0  0  0  0  0  0  0  0  0  0
  -21.6994   -5.7936   21.6796 C   0  0  0  0  0  0  0  0  0  0  0  0
  -21.8943   -4.4187   21.8118 C   0  0  0  0  0  0  0  0  0  0  0  0
  -24.6607  -27.9788   20.8979 C   0  0  0  0  0  0  0  0  0  0  0  0
  -25.0137  -19.6486   20.5347 C   0  0  0  0  0  0  0  0  0  0  0  0
  -21.6142   -4.6091   24.2039 C   0  0  0  0  0  0  0  0  0  0  0  0
  -24.3407  -10.1724   21.0010 C   0  0  0  0  0  0  0  0  0  0  0  0
  -26.1600  -10.6316   19.2727 C   0  0  0  0  0  0  0  0  0  0  0  0
  -32.9615  -27.6572   19.4878 C   0  0  0  0  0  0  0  0  0  0  0  0
  -26.4787  -29.0975   19.7563 C   0  0  0  0  0  0  0  0  0  0  0  0
  -31.6493  -27.3643   19.9059 C   0  0  0  0  0  0  0  0  0  0  0  0
  -25.7144  -28.9053   20.9161 C   0  0  0  0  0  0  0  0  0  0  0  0
  -23.0656  -20.5368   19.4153 C   0  0  0  0  0  0  0  0  0  0  0  0
  -24.8754  -18.4542   19.8276 C   0  0  0  0  0  0  0  0  0  0  0  0
  -22.2757   -8.6726   22.1274 C   0  0  0  0  0  0  0  0  0  0  0  0
  -24.3633  -27.2628   19.7386 C   0  0  0  0  0  0  0  0  0  0  0  0
  -21.4620   -6.5762   22.8096 C   0  0  0  0  0  0  0  0  0  0  0  0
  -21.8516   -3.8265   23.0739 C   0  0  0  0  0  0  0  0  0  0  0  0
  -24.1087  -20.6899   20.3285 C   0  0  0  0  0  0  0  0  0  0  0  0
  -21.4193   -5.9839   24.0717 C   0  0  0  0  0  0  0  0  0  0  0  0
  -25.4068  -10.9477   20.4193 C   0  0  0  0  0  0  0  0  0  0  0  0
  -27.0390  -11.6786   19.1399 C   0  0  0  0  0  0  0  0  0  0  0  0
  -26.0729   -9.4933   18.4053 C   0  0  0  0  0  0  0  0  0  0  0  0
  -29.0218  -29.2861   21.6539 C   0  0  0  0  0  0  0  0  0  0  0  0
  -27.2957  -31.6310   23.0837 C   0  0  0  0  0  0  0  0  0  0  0  0
  -22.7254  -24.0615   19.4462 C   0  0  0  0  0  0  0  0  0  0  0  0
  -24.2329  -32.9915   23.7279 C   0  0  0  0  0  0  0  0  0  0  0  0
  -26.8866  -17.3855   20.9043 C   0  0  0  0  0  0  0  0  0  0  0  0
  -33.8873  -28.5096   20.3191 C   0  0  0  0  0  0  0  0  0  0  0  0
  -27.5984  -30.1017   19.7396 C   0  0  0  0  0  0  0  0  0  0  0  0
  -25.9984  -29.6615   22.1873 C   0  0  0  0  0  0  0  0  0  0  0  0
  -33.1638  -29.3499   21.3682 C   0  0  0  0  0  0  0  0  0  0  0  0
  -29.3653  -14.9667   21.7305 C   0  0  0  0  0  0  0  0  0  0  0  0
  -32.1440  -28.5015   22.1213 C   0  0  0  0  0  0  0  0  0  0  0  0
  -28.7023  -13.6332   21.3779 C   0  0  0  0  0  0  0  0  0  0  0  0
  -28.3624  -15.9632   22.3093 C   0  0  0  0  0  0  0  0  0  0  0  0
  -26.5021  -14.8529   21.1364 C   0  0  0  0  0  0  0  0  0  0  0  0
  -31.0698  -27.9579   21.1715 C   0  0  1  0  0  0  0  0  0  0  0  0
  -28.1571  -30.3968   21.1282 C   0  0  1  0  0  0  0  0  0  0  0  0
  -27.4598  -13.8391   20.4894 C   0  0  2  0  0  0  0  0  0  0  0  0
  -23.1377  -34.8854   24.9571 C   0  0  0  0  0  0  0  0  0  0  0  0
  -27.7108  -30.1555   25.7220 C   0  0  0  0  0  0  0  0  0  0  0  0
  -25.8553  -31.5234   26.6987 C   0  0  0  0  0  0  0  0  0  0  0  0
  -27.9260  -32.6425   25.8726 C   0  0  0  0  0  0  0  0  0  0  0  0
  -23.4268  -22.7486   17.4371 C   0  0  0  0  0  0  0  0  0  0  0  0
  -23.1158  -34.1198   21.2303 C   0  0  0  0  0  0  0  0  0  0  0  0
  -22.0882  -21.6543   19.1918 C   0  0  0  0  0  0  0  0  0  0  0  0
  -23.4535  -25.2506   18.8557 C   0  0  0  0  0  0  0  0  0  1  0  0
  -26.2860  -31.6831   24.2047 C   0  0  1  0  0  0  0  0  0  0  0  0
  -23.7248  -34.4189   23.6341 C   0  0  2  0  0  0  0  0  0  0  0  0
  -26.9401  -31.4853   25.6013 C   0  0  0  0  0  0  0  0  0  0  0  0
  -25.7752  -12.1049   20.9753 N   0  0  0  0  0  0  0  0  0  0  0  0
  -26.7696  -12.5251   20.1749 N   0  0  0  0  0  0  0  0  0  0  0  0
  -27.1073  -30.6278   22.1225 N   0  0  0  0  0  0  0  0  0  0  0  0
  -27.2145  -16.1105   21.4119 N   0  0  0  0  0  0  0  0  0  0  0  0
  -28.0084  -11.9485   18.2401 N   0  0  0  0  0  0  0  0  0  0  0  0
  -25.1136   -8.5109   18.6864 N   0  0  0  0  0  0  0  0  0  0  0  0
  -25.7959  -17.3972   20.0355 N   0  0  0  0  0  0  0  0  0  0  0  0
  -30.1079  -28.9910   20.8522 N   0  0  0  0  0  0  0  0  0  0  0  0
  -25.5722  -32.9463   24.0528 N   0  0  0  0  0  0  0  0  0  0  0  0
  -22.7464  -22.8701   18.7205 N   0  0  0  0  0  0  0  0  0  0  0  0
  -22.6689  -34.5252   22.5878 N   0  3  0  0  0  0  0  0  0  0  0  0
  -26.8344   -9.3435   17.4198 O   0  0  0  0  0  0  0  0  0  0  0  0
  -28.7264  -28.7384   22.7096 O   0  0  0  0  0  0  0  0  0  0  0  0
  -28.2136  -32.4547   23.0578 O   0  0  0  0  0  0  0  0  0  0  0  0
  -22.1579  -24.1943   20.5349 O   0  0  0  0  0  0  0  0  0  0  0  0
  -23.5127  -32.0142   23.5360 O   0  0  0  0  0  0  0  0  0  0  0  0
  -27.5430  -18.3885   21.1959 O   0  0  0  0  0  0  0  0  0  0  0  0
  -21.2680   -7.9408   22.6766 O   0  0  0  0  0  0  0  0  0  0  0  0
  -23.3375  -26.3686   19.7349 O   0  0  0  0  0  0  0  0  0  1  0  0
  -22.0372   -2.5060   23.2006 F   0  0  0  0  0  0  0  0  0  0  0  0
  -24.2497  -21.8337   21.0127 F   0  0  0  0  0  0  0  0  0  0  0  0
  -21.1905   -6.7304   25.1608 F   0  0  0  0  0  0  0  0  0  0  0  0
  1  2  1  0  0  0  0
  1  5  2  0  0  0  0
  2  6  2  0  0  0  0
  3 10  2  0  0  0  0
  3 18  1  0  0  0  0
  4 11  1  0  0  0  0
  4 18  2  0  0  0  0
  5 20  1  0  0  0  0
  6 22  1  0  0  0  0
  7 12  2  0  0  0  0
  7 21  1  0  0  0  0
  8  9  2  0  0  0  0
  8 24  1  0  0  0  0
  9 25  1  0  0  0  0
 10 26  1  0  0  0  0
 11 26  2  0  0  0  0
 12 27  1  0  0  0  0
 13 14  2  0  0  0  0
 13 28  1  0  0  0  0
 14 29  1  0  0  0  0
 15 23  1  0  0  0  0
 15 27  2  0  0  0  0
 16 25  2  0  0  0  0
 16 30  1  0  0  0  0
 17 29  2  0  0  0  0
 17 31  1  0  0  0  0
 18 32  1  0  0  0  0
 19 32  1  0  0  0  0
 19 33  2  0  0  0  0
 19 34  1  0  0  0  0
 20 22  2  0  0  0  0
 20 40  1  0  0  0  0
 21 23  2  0  0  0  0
 21 41  1  0  0  0  0
 22 49  1  0  0  0  0
 23 42  1  0  0  0  0
 24 30  2  0  0  0  0
 24 58  1  0  0  0  0
 25 69  1  0  0  0  0
 26 80  1  0  0  0  0
 27 81  1  0  0  0  0
 28 31  2  0  0  0  0
 28 80  1  0  0  0  0
 29 82  1  0  0  0  0
 30 83  1  0  0  0  0
 31 84  1  0  0  0  0
 32 63  2  0  0  0  0
 33 64  1  0  0  0  0
 33 67  1  0  0  0  0
 34 68  1  0  0  0  0
 34 74  2  0  0  0  0
 35 50  1  0  0  0  0
 35 70  1  0  0  0  0
 35 75  2  0  0  0  0
 36 60  1  0  0  0  0
 36 65  1  0  0  0  0
 36 76  2  0  0  0  0
 37 59  1  0  0  0  0
 37 72  1  0  0  0  0
 37 77  2  0  0  0  0
 38 61  1  0  0  0  0
 38 71  1  0  0  0  0
 38 78  2  0  0  0  0
 39 66  1  0  0  0  0
 39 69  1  0  0  0  0
 39 79  2  0  0  0  0
 40 43  1  0  0  0  0
 41 50  1  0  0  0  0
 42 65  1  0  0  0  0
 43 45  1  0  0  0  0
 44 46  1  0  0  0  0
 44 47  1  0  0  0  0
 45 49  1  0  0  0  0
 46 51  1  0  0  0  0
 47 66  1  0  0  0  0
 48 51  1  0  0  0  0
 48 66  1  0  0  0  0
 49 70  1  0  0  0  0
 50 65  1  0  0  0  0
 51 64  1  0  0  0  0
 52 61  1  0  0  0  0
 53 62  1  0  0  0  0
 54 62  1  0  0  0  0
 55 62  1  0  0  0  0
 56 72  1  0  0  0  0
 57 73  1  0  0  0  0
 58 72  1  0  0  0  0
 59 81  1  0  0  0  0
 60 62  1  0  0  0  0
 60 71  1  0  0  0  0
 61 73  1  0  0  0  0
 63 64  1  0  0  0  0
M  CHG  1  73   1
M  ISO  4  39 100  59 101  69 100  81 101
M  END
> <Batch ID>
0059

> <Smiles>
CNC(C)C(=O)NC(C(=O)N1Cc2cc([101O:1][101CH2:1]C(=O)N(C)Cc3ccc([100NH:0][100C:0](=O)N4CCCC(n5nc(-c6ccc(Oc7ccc(F)cc7F)cc6)c(C(N)=O)c5N)C4)cc3F)ccc2CC1C(=O)NC1CCCc2ccccc21)C(C)(C)C

> <Shape>
0.264

> <Color>
0.096

> <Negative vol penalty>
0.000

$$$$

  -OEChem-04042323013D

 83 91  0     1  0  0  0  0  0999 V2000
  -32.8500  -10.5844   23.3744 C   0  0  0  0  0  0  0  0  0  0  0  0
  -32.5185  -11.8728   23.7814 C   0  0  0  0  0  0  0  0  0  0  0  0
  -32.0574  -18.7691   21.5279 C   0  0  0  0  0  0  0  0  0  0  0  0
  -23.0002   -9.8942   19.9810 C   0  0  0  0  0  0  0  0  0  0  0  0
  -23.7253   -9.9446   22.2850 C   0  0  0  0  0  0  0  0  0  0  0  0
  -31.9600   -9.5341   23.5954 C   0  0  0  0  0  0  0  0  0  0  0  0
  -31.2963  -12.1118   24.4086 C   0  0  0  0  0  0  0  0  0  0  0  0
  -31.7491  -15.1021   28.4704 C   0  0  0  0  0  0  0  0  0  0  0  0
  -31.6455  -19.3363   22.7338 C   0  0  0  0  0  0  0  0  0  0  0  0
  -31.5326  -17.5433   21.1185 C   0  0  0  0  0  0  0  0  0  0  0  0
  -22.2335   -8.7599   20.2471 C   0  0  0  0  0  0  0  0  0  0  0  0
  -22.9585   -8.8103   22.5512 C   0  0  0  0  0  0  0  0  0  0  0  0
  -31.8908  -16.4700   28.2414 C   0  0  0  0  0  0  0  0  0  0  0  0
  -23.2021   -5.4714   22.0787 C   0  0  0  0  0  0  0  0  0  0  0  0
  -23.7894   -4.4539   22.8306 C   0  0  0  0  0  0  0  0  0  0  0  0
  -29.5496  -16.7880   28.7277 C   0  0  0  0  0  0  0  0  0  0  0  0
  -22.0655   -4.6969   24.5058 C   0  0  0  0  0  0  0  0  0  0  0  0
  -23.7462  -10.4866   20.9999 C   0  0  0  0  0  0  0  0  0  0  0  0
  -24.1321  -13.0021   20.8244 C   0  0  0  0  0  0  0  0  0  0  0  0
  -30.7304   -9.7587   24.2343 C   0  0  0  0  0  0  0  0  0  0  0  0
  -30.5019  -14.5644   28.8198 C   0  0  0  0  0  0  0  0  0  0  0  0
  -30.3884  -11.0638   24.6371 C   0  0  0  0  0  0  0  0  0  0  0  0
  -29.3951  -15.4133   28.9631 C   0  0  0  0  0  0  0  0  0  0  0  0
  -30.1840  -17.4518   23.1210 C   0  0  0  0  0  0  0  0  0  0  0  0
  -30.7088  -18.6777   23.5303 C   0  0  0  0  0  0  0  0  0  0  0  0
  -30.5959  -16.8846   21.9150 C   0  0  0  0  0  0  0  0  0  0  0  0
  -22.2126   -8.2179   21.5322 C   0  0  0  0  0  0  0  0  0  0  0  0
  -30.7904  -17.3128   28.3672 C   0  0  0  0  0  0  0  0  0  0  0  0
  -22.0466   -6.1017   22.5403 C   0  0  0  0  0  0  0  0  0  0  0  0
  -23.2211   -4.0666   24.0442 C   0  0  0  0  0  0  0  0  0  0  0  0
  -21.4783   -5.7144   23.7539 C   0  0  0  0  0  0  0  0  0  0  0  0
  -24.5390  -11.6581   20.7255 C   0  0  0  0  0  0  0  0  0  0  0  0
  -25.2420  -13.7246   20.4602 C   0  0  0  0  0  0  0  0  0  0  0  0
  -22.8642  -13.5488   21.2110 C   0  0  0  0  0  0  0  0  0  0  0  0
  -28.5177  -12.4600   27.5014 C   0  0  0  0  0  0  0  0  0  0  0  0
  -26.8879  -12.8426   30.2798 C   0  0  0  0  0  0  0  0  0  0  0  0
  -31.0564  -20.1026   25.5780 C   0  0  0  0  0  0  0  0  0  0  0  0
  -26.1899  -14.8060   32.9825 C   0  0  0  0  0  0  0  0  0  0  0  0
  -30.7217  -14.6844   20.6945 C   0  0  0  0  0  0  0  0  0  0  0  0
  -29.7807   -8.6002   24.4088 C   0  0  0  0  0  0  0  0  0  0  0  0
  -30.3714  -13.0904   29.0896 C   0  0  0  0  0  0  0  0  0  0  0  0
  -28.0390  -14.8887   29.3558 C   0  0  0  0  0  0  0  0  0  0  0  0
  -28.6667   -8.8722   25.4164 C   0  0  0  0  0  0  0  0  0  0  0  0
  -29.6030  -12.2322   18.3681 C   0  0  0  0  0  0  0  0  0  0  0  0
  -28.0453  -10.2430   25.1682 C   0  0  0  0  0  0  0  0  0  0  0  0
  -28.1523  -11.9748   18.7821 C   0  0  0  0  0  0  0  0  0  0  0  0
  -30.5035  -12.4752   19.5779 C   0  0  0  0  0  0  0  0  0  0  0  0
  -28.5883  -13.2642   20.9115 C   0  0  0  0  0  0  0  0  0  0  0  0
  -29.0827  -11.3587   25.3429 C   0  0  1  0  0  0  0  0  0  0  0  0
  -28.9420  -12.5795   28.9378 C   0  0  1  0  0  0  0  0  0  0  0  0
  -27.6306  -13.0783   19.7233 C   0  0  2  0  0  0  0  0  0  0  0  0
  -29.1790  -16.7442   23.9766 C   0  0  0  0  0  0  0  0  0  0  0  0
  -24.7903  -14.8665   35.0645 C   0  0  0  0  0  0  0  0  0  0  0  0
  -24.4202  -13.4735   28.5998 C   0  0  0  0  0  0  0  0  0  0  0  0
  -23.3538  -14.4321   30.6521 C   0  0  0  0  0  0  0  0  0  0  0  0
  -23.9851  -12.0196   30.5876 C   0  0  0  0  0  0  0  0  0  0  0  0
  -28.5784  -14.9646   34.7228 C   0  0  0  0  0  0  0  0  0  0  0  0
  -30.2399  -20.5205   26.7956 C   0  0  0  0  0  0  0  0  0  0  0  0
  -29.7840  -19.3420   27.6425 C   0  0  0  0  0  0  0  0  0  1  0  0
  -25.7997  -13.7714   30.7617 C   0  0  1  0  0  0  0  0  0  0  0  0
  -26.1386  -14.4947   34.4674 C   0  0  2  0  0  0  0  0  0  0  0  0
  -24.4147  -13.4341   30.1410 C   0  0  0  0  0  0  0  0  0  0  0  0
  -25.8082  -11.5314   20.3294 N   0  0  0  0  0  0  0  0  0  0  0  0
  -26.2085  -12.8051   20.1760 N   0  0  0  0  0  0  0  0  0  0  0  0
  -27.9608  -13.4394   29.6027 N   0  0  0  0  0  0  0  0  0  0  0  0
  -29.9486  -13.5361   20.4214 N   0  0  0  0  0  0  0  0  0  0  0  0
  -25.4758  -15.0502   20.3583 N   0  0  0  0  0  0  0  0  0  0  0  0
  -21.8322  -12.6648   21.5543 N   0  0  0  0  0  0  0  0  0  0  0  0
  -30.3065  -19.2710   24.7505 N   0  0  0  0  0  0  0  0  0  0  0  0
  -30.0776  -15.6396   21.4802 N   0  0  0  0  0  0  0  0  0  0  0  0
  -29.3137  -11.6186   26.7478 N   0  0  0  0  0  0  0  0  0  0  0  0
  -25.8310  -13.7152   32.2192 N   0  0  0  0  0  0  0  0  0  0  0  0
  -27.1984  -15.2513   35.1922 N   0  3  0  0  0  0  0  0  0  0  0  0
  -22.6478  -14.7841   21.2349 O   0  0  0  0  0  0  0  0  0  0  0  0
  -27.5397  -13.0838   27.1064 O   0  0  0  0  0  0  0  0  0  0  0  0
  -26.7929  -11.6330   30.5023 O   0  0  0  0  0  0  0  0  0  0  0  0
  -32.2110  -20.4787   25.4058 O   0  0  0  0  0  0  0  0  0  0  0  0
  -26.5122  -15.9079   32.5437 O   0  0  0  0  0  0  0  0  0  0  0  0
  -31.8604  -14.8232   20.2405 O   0  0  0  0  0  0  0  0  0  0  0  0
  -21.4643   -7.1111   21.7923 O   0  0  0  0  0  0  0  0  0  0  0  0
  -30.9259  -18.6483   28.1435 O   0  0  0  0  0  0  0  0  0  1  0  0
  -23.7844   -3.0885   24.7654 F   0  0  0  0  0  0  0  0  0  0  0  0
  -20.3675   -6.3154   24.2020 F   0  0  0  0  0  0  0  0  0  0  0  0
  1  2  1  0  0  0  0
  1  6  2  0  0  0  0
  2  7  2  0  0  0  0
  3  9  2  0  0  0  0
  3 10  1  0  0  0  0
  4 11  2  0  0  0  0
  4 18  1  0  0  0  0
  5 12  1  0  0  0  0
  5 18  2  0  0  0  0
  6 20  1  0  0  0  0
  7 22  1  0  0  0  0
  8 13  2  0  0  0  0
  8 21  1  0  0  0  0
  9 25  1  0  0  0  0
 10 26  2  0  0  0  0
 11 27  1  0  0  0  0
 12 27  2  0  0  0  0
 13 28  1  0  0  0  0
 14 15  2  0  0  0  0
 14 29  1  0  0  0  0
 15 30  1  0  0  0  0
 16 23  1  0  0  0  0
 16 28  2  0  0  0  0
 17 30  2  0  0  0  0
 17 31  1  0  0  0  0
 18 32  1  0  0  0  0
 19 32  1  0  0  0  0
 19 33  2  0  0  0  0
 19 34  1  0  0  0  0
 20 22  2  0  0  0  0
 20 40  1  0  0  0  0
 21 23  2  0  0  0  0
 21 41  1  0  0  0  0
 22 49  1  0  0  0  0
 23 42  1  0  0  0  0
 24 25  2  0  0  0  0
 24 26  1  0  0  0  0
 24 52  1  0  0  0  0
 25 69  1  0  0  0  0
 26 70  1  0  0  0  0
 27 80  1  0  0  0  0
 28 81  1  0  0  0  0
 29 31  2  0  0  0  0
 29 80  1  0  0  0  0
 30 82  1  0  0  0  0
 31 83  1  0  0  0  0
 32 63  2  0  0  0  0
 33 64  1  0  0  0  0
 33 67  1  0  0  0  0
 34 68  1  0  0  0  0
 34 74  2  0  0  0  0
 35 50  1  0  0  0  0
 35 71  1  0  0  0  0
 35 75  2  0  0  0  0
 36 60  1  0  0  0  0
 36 65  1  0  0  0  0
 36 76  2  0  0  0  0
 37 58  1  0  0  0  0
 37 69  1  0  0  0  0
 37 77  2  0  0  0  0
 38 61  1  0  0  0  0
 38 72  1  0  0  0  0
 38 78  2  0  0  0  0
 39 66  1  0  0  0  0
 39 70  1  0  0  0  0
 39 79  2  0  0  0  0
 40 43  1  0  0  0  0
 41 50  1  0  0  0  0
 42 65  1  0  0  0  0
 43 45  1  0  0  0  0
 44 46  1  0  0  0  0
 44 47  1  0  0  0  0
 45 49  1  0  0  0  0
 46 51  1  0  0  0  0
 47 66  1  0  0  0  0
 48 51  1  0  0  0  0
 48 66  1  0  0  0  0
 49 71  1  0  0  0  0
 50 65  1  0  0  0  0
 51 64  1  0  0  0  0
 53 61  1  0  0  0  0
 54 62  1  0  0  0  0
 55 62  1  0  0  0  0
 56 62  1  0  0  0  0
 57 73  1  0  0  0  0
 58 59  1  0  0  0  0
 59 81  1  0  0  0  0
 60 62  1  0  0  0  0
 60 72  1  0  0  0  0
 61 73  1  0  0  0  0
 63 64  1  0  0  0  0
M  CHG  1  73   1
M  ISO  4  39 100  59 101  70 100  81 101
M  END
> <Batch ID>
0059

> <Smiles>
CNC(C)C(=O)NC(C(=O)N1Cc2cc([101O:1][101CH2:1]CC(=O)Nc3cccc([100NH:0][100C:0](=O)N4CCCC(n5nc(-c6ccc(Oc7ccc(F)cc7F)cc6)c(C(N)=O)c5N)C4)c3C)ccc2CC1C(=O)NC1CCCc2ccccc21)C(C)(C)C

> <Shape>
0.176

> <Color>
0.198

> <Negative vol penalty>
0.000

$$$$

  -OEChem-04042323013D

 87 96  0     1  0  0  0  0  0999 V2000
  -19.7049  -29.2193   26.6232 C   0  0  0  0  0  0  0  0  0  0  0  0
  -20.9798  -28.8201   26.2351 C   0  0  0  0  0  0  0  0  0  0  0  0
  -23.8252   -9.3220   19.6569 C   0  0  0  0  0  0  0  0  0  0  0  0
  -24.2067   -9.6465   22.0205 C   0  0  0  0  0  0  0  0  0  0  0  0
  -18.6355  -29.0897   25.7381 C   0  0  0  0  0  0  0  0  0  0  0  0
  -21.1858  -28.2899   24.9619 C   0  0  0  0  0  0  0  0  0  0  0  0
  -26.1909  -29.0358   21.3858 C   0  0  0  0  0  0  0  0  0  0  0  0
  -26.7294  -20.5673   17.9724 C   0  0  0  0  0  0  0  0  0  0  0  0
  -26.8988  -19.3236   18.5807 C   0  0  0  0  0  0  0  0  0  0  0  0
  -22.5861   -8.7457   19.9360 C   0  0  0  0  0  0  0  0  0  0  0  0
  -22.9675   -9.0702   22.2996 C   0  0  0  0  0  0  0  0  0  0  0  0
  -27.3100  -28.2450   21.1289 C   0  0  0  0  0  0  0  0  0  0  0  0
  -20.0625   -7.3576   23.6554 C   0  0  0  0  0  0  0  0  0  0  0  0
  -20.0005   -6.4219   24.6879 C   0  0  0  0  0  0  0  0  0  0  0  0
  -26.2129  -27.3355   19.1828 C   0  0  0  0  0  0  0  0  0  0  0  0
  -28.6480  -20.2420   19.9714 C   0  0  0  0  0  0  0  0  0  0  0  0
  -21.5874   -5.0256   23.5178 C   0  0  0  0  0  0  0  0  0  0  0  0
  -24.6356   -9.7724   20.6992 C   0  0  0  0  0  0  0  0  0  0  0  0
  -27.0017   -9.7676   19.7457 C   0  0  0  0  0  0  0  0  0  0  0  0
  -18.8302  -28.5667   24.4500 C   0  0  0  0  0  0  0  0  0  0  0  0
  -25.0681  -28.9750   20.5478 C   0  0  0  0  0  0  0  0  0  0  0  0
  -20.1177  -28.1519   24.0592 C   0  0  0  0  0  0  0  0  0  0  0  0
  -25.0829  -28.1301   19.4286 C   0  0  0  0  0  0  0  0  0  0  0  0
  -27.5193  -21.6484   18.3635 C   0  0  0  0  0  0  0  0  0  0  0  0
  -28.4786  -21.4858   19.3630 C   0  0  0  0  0  0  0  0  0  0  0  0
  -27.8581  -19.1609   19.5802 C   0  0  0  0  0  0  0  0  0  0  0  0
  -22.1572   -8.6197   21.2573 C   0  0  0  0  0  0  0  0  0  0  0  0
  -27.3202  -27.3930   20.0285 C   0  0  0  0  0  0  0  0  0  0  0  0
  -20.8869   -7.1273   22.5540 C   0  0  0  0  0  0  0  0  0  0  0  0
  -20.7629   -5.2559   24.6192 C   0  0  0  0  0  0  0  0  0  0  0  0
  -21.6493   -5.9613   22.4852 C   0  0  0  0  0  0  0  0  0  0  0  0
  -25.9160  -10.3673   20.4115 C   0  0  0  0  0  0  0  0  0  0  0  0
  -27.9720  -10.7394   19.7266 C   0  0  0  0  0  0  0  0  0  0  0  0
  -31.4279  -23.6184   19.1770 C   0  0  0  0  0  0  0  0  0  0  0  0
  -28.7561  -23.7764   20.3203 C   0  0  0  0  0  0  0  0  0  0  0  0
  -27.1223   -8.4498   19.1937 C   0  0  0  0  0  0  0  0  0  0  0  0
  -21.9759  -28.2113   20.8661 C   0  0  0  0  0  0  0  0  0  0  0  0
  -21.9288  -29.2598   17.7114 C   0  0  0  0  0  0  0  0  0  0  0  0
  -18.5197  -29.3163   17.8340 C   0  0  0  0  0  0  0  0  0  0  0  0
  -27.3330  -16.7148   19.9341 C   0  0  0  0  0  0  0  0  0  0  0  0
  -17.6349  -28.4019   23.5451 C   0  0  0  0  0  0  0  0  0  0  0  0
  -23.8825  -29.8590   20.8255 C   0  0  0  0  0  0  0  0  0  0  0  0
  -23.9050  -28.0314   18.4972 C   0  0  0  0  0  0  0  0  0  0  0  0
  -30.7307  -24.9445   19.3671 C   0  0  0  0  0  0  0  0  0  0  0  0
  -30.7618  -22.4078   19.7890 C   0  0  0  0  0  0  0  0  0  0  0  0
  -18.0055  -28.1784   22.0812 C   0  0  0  0  0  0  0  0  0  0  0  0
  -28.8142  -14.4797   22.6789 C   0  0  0  0  0  0  0  0  0  0  0  0
  -19.1099  -27.1328   21.9637 C   0  0  0  0  0  0  0  0  0  0  0  0
  -28.9131  -13.1647   21.9092 C   0  0  0  0  0  0  0  0  0  0  0  0
  -28.7952  -15.6902   21.7541 C   0  0  0  0  0  0  0  0  0  0  0  0
  -27.0778  -14.3206   20.5580 C   0  0  0  0  0  0  0  0  0  0  0  0
  -20.3857  -27.5952   22.6778 C   0  0  1  0  0  0  0  0  0  0  0  0
  -29.8174  -24.8481   20.5918 C   0  0  1  0  0  0  0  0  0  0  0  0
  -22.5953  -29.3817   20.1561 C   0  0  1  0  0  0  0  0  0  0  0  0
  -28.0889  -13.1645   20.6065 C   0  0  2  0  0  0  0  0  0  0  0  0
  -27.3160  -22.9690   17.6946 C   0  0  0  0  0  0  0  0  0  0  0  0
  -16.5137  -30.0635   16.5246 C   0  0  0  0  0  0  0  0  0  0  0  0
  -22.4712  -32.1467   18.5342 C   0  0  0  0  0  0  0  0  0  0  0  0
  -20.0660  -32.6585   18.0637 C   0  0  0  0  0  0  0  0  0  0  0  0
  -21.5559  -31.8749   16.2227 C   0  0  0  0  0  0  0  0  0  0  0  0
  -17.4839  -26.5521   17.6221 C   0  0  0  0  0  0  0  0  0  0  0  0
  -29.1876  -26.2043   20.8980 C   0  0  0  0  0  0  0  0  0  1  0  0
  -20.8172  -30.2371   18.0016 C   0  0  1  0  0  0  0  0  0  0  0  0
  -17.4682  -28.9158   16.8151 C   0  0  2  0  0  0  0  0  0  0  0  0
  -21.2347  -31.7089   17.7241 C   0  0  0  0  0  0  0  0  0  0  0  0
  -26.1720  -11.6229   20.7883 N   0  0  0  0  0  0  0  0  0  0  0  0
  -27.4298  -11.8200   20.3579 N   0  0  0  0  0  0  0  0  0  0  0  0
  -29.3041  -22.5898   19.7807 N   0  0  0  0  0  0  0  0  0  0  0  0
  -22.8099  -28.9735   18.7620 N   0  0  0  0  0  0  0  0  0  0  0  0
  -27.7447  -15.6167   20.7284 N   0  0  0  0  0  0  0  0  0  0  0  0
  -29.2277  -10.7665   19.2317 N   0  0  0  0  0  0  0  0  0  0  0  0
  -27.6118   -7.4241   20.0139 N   0  0  0  0  0  0  0  0  0  0  0  0
  -28.0298  -17.8969   20.1980 N   0  0  0  0  0  0  0  0  0  0  0  0
  -21.0942  -28.5645   21.8697 N   0  0  0  0  0  0  0  0  0  0  0  0
  -19.6653  -29.7867   17.2278 N   0  0  0  0  0  0  0  0  0  0  0  0
  -16.6736  -27.7595   17.3178 N   0  3  0  0  0  0  0  0  0  0  0  0
  -32.5352  -23.5464   18.6459 O   0  0  0  0  0  0  0  0  0  0  0  0
  -27.5642  -24.0100   20.5128 O   0  0  0  0  0  0  0  0  0  0  0  0
  -26.8208   -8.1931   18.0035 O   0  0  0  0  0  0  0  0  0  0  0  0
  -22.2747  -27.0722   20.5273 O   0  0  0  0  0  0  0  0  0  0  0  0
  -22.0201  -28.7682   16.5830 O   0  0  0  0  0  0  0  0  0  0  0  0
  -18.3412  -29.2248   19.0466 O   0  0  0  0  0  0  0  0  0  0  0  0
  -26.4460  -16.6038   19.0851 O   0  0  0  0  0  0  0  0  0  0  0  0
  -20.9480   -8.0576   21.5300 O   0  0  0  0  0  0  0  0  0  0  0  0
  -28.4115  -26.6204   19.7751 O   0  0  0  0  0  0  0  0  0  1  0  0
  -20.7044   -4.3582   25.6116 F   0  0  0  0  0  0  0  0  0  0  0  0
  -22.4441   -5.7351   21.4303 F   0  0  0  0  0  0  0  0  0  0  0  0
  1  2  1  0  0  0  0
  1  5  2  0  0  0  0
  2  6  2  0  0  0  0
  3 10  2  0  0  0  0
  3 18  1  0  0  0  0
  4 11  1  0  0  0  0
  4 18  2  0  0  0  0
  5 20  1  0  0  0  0
  6 22  1  0  0  0  0
  7 12  2  0  0  0  0
  7 21  1  0  0  0  0
  8  9  2  0  0  0  0
  8 24  1  0  0  0  0
  9 26  1  0  0  0  0
 10 27  1  0  0  0  0
 11 27  2  0  0  0  0
 12 28  1  0  0  0  0
 13 14  2  0  0  0  0
 13 29  1  0  0  0  0
 14 30  1  0  0  0  0
 15 23  1  0  0  0  0
 15 28  2  0  0  0  0
 16 25  1  0  0  0  0
 16 26  2  0  0  0  0
 17 30  2  0  0  0  0
 17 31  1  0  0  0  0
 18 32  1  0  0  0  0
 19 32  1  0  0  0  0
 19 33  2  0  0  0  0
 19 36  1  0  0  0  0
 20 22  2  0  0  0  0
 20 41  1  0  0  0  0
 21 23  2  0  0  0  0
 21 42  1  0  0  0  0
 22 52  1  0  0  0  0
 23 43  1  0  0  0  0
 24 25  2  0  0  0  0
 24 56  1  0  0  0  0
 25 68  1  0  0  0  0
 26 73  1  0  0  0  0
 27 84  1  0  0  0  0
 28 85  1  0  0  0  0
 29 31  2  0  0  0  0
 29 84  1  0  0  0  0
 30 86  1  0  0  0  0
 31 87  1  0  0  0  0
 32 66  2  0  0  0  0
 33 67  1  0  0  0  0
 33 71  1  0  0  0  0
 34 44  1  0  0  0  0
 34 45  1  0  0  0  0
 34 77  2  0  0  0  0
 35 53  1  0  0  0  0
 35 68  1  0  0  0  0
 35 78  2  0  0  0  0
 36 72  1  0  0  0  0
 36 79  2  0  0  0  0
 37 54  1  0  0  0  0
 37 74  1  0  0  0  0
 37 80  2  0  0  0  0
 38 63  1  0  0  0  0
 38 69  1  0  0  0  0
 38 81  2  0  0  0  0
 39 64  1  0  0  0  0
 39 75  1  0  0  0  0
 39 82  2  0  0  0  0
 40 70  1  0  0  0  0
 40 73  1  0  0  0  0
 40 83  2  0  0  0  0
 41 46  1  0  0  0  0
 42 54  1  0  0  0  0
 43 69  1  0  0  0  0
 44 53  1  0  0  0  0
 45 68  1  0  0  0  0
 46 48  1  0  0  0  0
 47 49  1  0  0  0  0
 47 50  1  0  0  0  0
 48 52  1  0  0  0  0
 49 55  1  0  0  0  0
 50 70  1  0  0  0  0
 51 55  1  0  0  0  0
 51 70  1  0  0  0  0
 52 74  1  0  0  0  0
 53 62  1  0  0  0  0
 54 69  1  0  0  0  0
 55 67  1  0  0  0  0
 57 64  1  0  0  0  0
 58 65  1  0  0  0  0
 59 65  1  0  0  0  0
 60 65  1  0  0  0  0
 61 76  1  0  0  0  0
 62 85  1  0  0  0  0
 63 65  1  0  0  0  0
 63 75  1  0  0  0  0
 64 76  1  0  0  0  0
 66 67  1  0  0  0  0
M  CHG  1  76   1
M  ISO  4  40 100  62 101  73 100  85 101
M  END
> <Batch ID>
0059

> <Smiles>
CNC(C)C(=O)NC(C(=O)N1Cc2cc([101O:1][101CH2:1]C3CC(=O)CN(c4cc([100NH:0][100C:0](=O)N5CCCC(n6nc(-c7ccc(Oc8ccc(F)cc8F)cc7)c(C(N)=O)c6N)C5)ccc4C)C3=O)ccc2CC1C(=O)NC1CCCc2ccccc21)C(C)(C)C

> <Shape>
0.280

> <Color>
0.098

> <Negative vol penalty>
0.000

$$$$

  -OEChem-04042323013D

 83 91  0     1  0  0  0  0  0999 V2000
  -28.6825  -11.2137   19.8654 C   0  0  0  0  0  0  0  0  0  0  0  0
  -28.8322  -12.5287   19.4366 C   0  0  0  0  0  0  0  0  0  0  0  0
  -32.4877  -27.4370   16.6049 C   0  0  0  0  0  0  0  0  0  0  0  0
  -20.0625  -26.9924   18.8169 C   0  0  0  0  0  0  0  0  0  0  0  0
  -21.1113  -24.9311   19.5159 C   0  0  0  0  0  0  0  0  0  0  0  0
  -27.4508  -10.7757   20.3500 C   0  0  0  0  0  0  0  0  0  0  0  0
  -27.7498  -13.4062   19.4913 C   0  0  0  0  0  0  0  0  0  0  0  0
  -29.0178  -17.9416   21.3533 C   0  0  0  0  0  0  0  0  0  0  0  0
  -31.9676  -28.0680   17.7349 C   0  0  0  0  0  0  0  0  0  0  0  0
  -32.4593  -26.0458   16.5077 C   0  0  0  0  0  0  0  0  0  0  0  0
  -19.1810  -26.2709   18.0119 C   0  0  0  0  0  0  0  0  0  0  0  0
  -20.2297  -24.2096   18.7110 C   0  0  0  0  0  0  0  0  0  0  0  0
  -29.6776  -18.8203   20.4952 C   0  0  0  0  0  0  0  0  0  0  0  0
  -18.0215  -21.8000   17.1185 C   0  0  0  0  0  0  0  0  0  0  0  0
  -17.4306  -20.6597   17.6626 C   0  0  0  0  0  0  0  0  0  0  0  0
  -27.5998  -19.9779   20.0927 C   0  0  0  0  0  0  0  0  0  0  0  0
  -31.3908  -25.9166   18.6707 C   0  0  0  0  0  0  0  0  0  0  0  0
  -16.4315  -22.0073   19.4014 C   0  0  0  0  0  0  0  0  0  0  0  0
  -21.0277  -26.3225   19.5688 C   0  0  0  0  0  0  0  0  0  0  0  0
  -21.7565  -27.4312   21.7477 C   0  0  0  0  0  0  0  0  0  0  0  0
  -26.3554  -11.6508   20.4196 C   0  0  0  0  0  0  0  0  0  0  0  0
  -27.6396  -18.0679   21.5794 C   0  0  0  0  0  0  0  0  0  0  0  0
  -26.5019  -12.9791   19.9760 C   0  0  0  0  0  0  0  0  0  0  0  0
  -26.9254  -19.1011   20.9560 C   0  0  0  0  0  0  0  0  0  0  0  0
  -31.4192  -27.3078   18.7678 C   0  0  0  0  0  0  0  0  0  0  0  0
  -31.9109  -25.2856   17.5406 C   0  0  0  0  0  0  0  0  0  0  0  0
  -19.2645  -24.8795   17.9590 C   0  0  0  0  0  0  0  0  0  0  0  0
  -28.9681  -19.8369   19.8625 C   0  0  0  0  0  0  0  0  0  0  0  0
  -17.8176  -23.0440   17.7158 C   0  0  0  0  0  0  0  0  0  0  0  0
  -16.6356  -20.7634   18.8041 C   0  0  0  0  0  0  0  0  0  0  0  0
  -17.0225  -23.1476   18.8572 C   0  0  0  0  0  0  0  0  0  0  0  0
  -21.9390  -27.0672   20.4001 C   0  0  0  0  0  0  0  0  0  0  0  0
  -22.8979  -28.1217   22.0745 C   0  0  0  0  0  0  0  0  0  0  0  0
  -20.6538  -27.1684   22.6256 C   0  0  0  0  0  0  0  0  0  0  0  0
  -25.1041  -16.2203   21.0684 C   0  0  0  0  0  0  0  0  0  0  0  0
  -23.5543  -18.5687   22.6826 C   0  0  0  0  0  0  0  0  0  0  0  0
  -31.3763  -22.9682   18.3701 C   0  0  0  0  0  0  0  0  0  0  0  0
  -23.4644  -21.8355   23.6657 C   0  0  0  0  0  0  0  0  0  0  0  0
  -28.3843  -27.9035   19.9048 C   0  0  0  0  0  0  0  0  0  0  0  0
  -25.0309  -11.1187   20.9067 C   0  0  0  0  0  0  0  0  0  0  0  0
  -26.9477  -17.1284   22.5286 C   0  0  0  0  0  0  0  0  0  0  0  0
  -25.4484  -19.2920   21.1811 C   0  0  0  0  0  0  0  0  0  0  0  0
  -24.0355  -12.2136   21.2819 C   0  0  0  0  0  0  0  0  0  0  0  0
  -26.3065  -30.8584   20.1252 C   0  0  0  0  0  0  0  0  0  0  0  0
  -23.9921  -13.2889   20.2009 C   0  0  0  0  0  0  0  0  0  0  0  0
  -24.9245  -30.2424   20.3508 C   0  0  0  0  0  0  0  0  0  0  0  0
  -27.1349  -30.0185   19.1575 C   0  0  0  0  0  0  0  0  0  0  0  0
  -25.9098  -27.9737   19.7833 C   0  0  0  0  0  0  0  0  0  0  0  0
  -25.3581  -13.9676   20.0428 C   0  0  1  0  0  0  0  0  0  0  0  0
  -25.4447  -17.0330   22.2854 C   0  0  1  0  0  0  0  0  0  0  0  0
  -25.0317  -28.7643   20.7702 C   0  0  2  0  0  0  0  0  0  0  0  0
  -22.0534  -23.4696   24.9448 C   0  0  0  0  0  0  0  0  0  0  0  0
  -21.6225  -18.7408   20.3271 C   0  0  0  0  0  0  0  0  0  0  0  0
  -20.8586  -20.9574   21.2055 C   0  0  0  0  0  0  0  0  0  0  0  0
  -20.5412  -18.8978   22.5767 C   0  0  0  0  0  0  0  0  0  0  0  0
  -25.6152  -22.3258   25.6386 C   0  0  0  0  0  0  0  0  0  0  0  0
  -30.8633  -27.9828   19.9757 C   0  0  0  0  0  0  0  0  0  0  0  0
  -31.5441  -21.5390   17.8670 C   0  0  0  0  0  0  0  0  0  0  0  0
  -31.0104  -20.4970   18.8382 C   0  0  0  0  0  0  0  0  0  1  0  0
  -22.8645  -19.8550   22.2973 C   0  0  1  0  0  0  0  0  0  0  0  0
  -23.2004  -22.4737   25.0175 C   0  0  2  0  0  0  0  0  0  0  0  0
  -21.4992  -19.6082   21.5957 C   0  0  0  0  0  0  0  0  0  0  0  0
  -23.1046  -27.4917   19.9047 N   0  0  0  0  0  0  0  0  0  0  0  0
  -23.6647  -28.1295   20.9466 N   0  0  0  0  0  0  0  0  0  0  0  0
  -24.8157  -18.3441   22.1131 N   0  0  0  0  0  0  0  0  0  0  0  0
  -27.2133  -28.6270   19.6240 N   0  0  0  0  0  0  0  0  0  0  0  0
  -23.3104  -28.7171   23.2137 N   0  0  0  0  0  0  0  0  0  0  0  0
  -19.5615  -26.4448   22.1282 N   0  0  0  0  0  0  0  0  0  0  0  0
  -31.8816  -23.8742   17.4414 N   0  0  0  0  0  0  0  0  0  0  0  0
  -25.5748  -14.9218   21.1092 N   0  0  0  0  0  0  0  0  0  0  0  0
  -22.7745  -20.6510   23.5167 N   0  0  0  0  0  0  0  0  0  0  0  0
  -29.5769  -28.5926   19.7219 N   0  0  0  0  0  0  0  0  0  0  0  0
  -24.4154  -23.1905   25.4980 N   0  3  0  0  0  0  0  0  0  0  0  0
  -20.6305  -27.5777   23.8111 O   0  0  0  0  0  0  0  0  0  0  0  0
  -24.4606  -16.7330   20.1602 O   0  0  0  0  0  0  0  0  0  0  0  0
  -22.9977  -17.7951   23.4658 O   0  0  0  0  0  0  0  0  0  0  0  0
  -30.8600  -23.2226   19.4531 O   0  0  0  0  0  0  0  0  0  0  0  0
  -24.2053  -22.3394   22.8245 O   0  0  0  0  0  0  0  0  0  0  0  0
  -28.3681  -26.7311   20.2950 O   0  0  0  0  0  0  0  0  0  0  0  0
  -18.4043  -24.1752   17.1738 O   0  0  0  0  0  0  0  0  0  0  0  0
  -29.6095  -20.6956   19.0240 O   0  0  0  0  0  0  0  0  0  1  0  0
  -16.0669  -19.6685   19.3256 F   0  0  0  0  0  0  0  0  0  0  0  0
  -16.8219  -24.3401   19.4347 F   0  0  0  0  0  0  0  0  0  0  0  0
  1  2  1  0  0  0  0
  1  6  2  0  0  0  0
  2  7  2  0  0  0  0
  3  9  1  0  0  0  0
  3 10  2  0  0  0  0
  4 11  2  0  0  0  0
  4 19  1  0  0  0  0
  5 12  1  0  0  0  0
  5 19  2  0  0  0  0
  6 21  1  0  0  0  0
  7 23  1  0  0  0  0
  8 13  2  0  0  0  0
  8 22  1  0  0  0  0
  9 25  2  0  0  0  0
 10 26  1  0  0  0  0
 11 27  1  0  0  0  0
 12 27  2  0  0  0  0
 13 28  1  0  0  0  0
 14 15  2  0  0  0  0
 14 29  1  0  0  0  0
 15 30  1  0  0  0  0
 16 24  1  0  0  0  0
 16 28  2  0  0  0  0
 17 25  1  0  0  0  0
 17 26  2  0  0  0  0
 18 30  2  0  0  0  0
 18 31  1  0  0  0  0
 19 32  1  0  0  0  0
 20 32  1  0  0  0  0
 20 33  2  0  0  0  0
 20 34  1  0  0  0  0
 21 23  2  0  0  0  0
 21 40  1  0  0  0  0
 22 24  2  0  0  0  0
 22 41  1  0  0  0  0
 23 49  1  0  0  0  0
 24 42  1  0  0  0  0
 25 57  1  0  0  0  0
 26 69  1  0  0  0  0
 27 80  1  0  0  0  0
 28 81  1  0  0  0  0
 29 31  2  0  0  0  0
 29 80  1  0  0  0  0
 30 82  1  0  0  0  0
 31 83  1  0  0  0  0
 32 63  2  0  0  0  0
 33 64  1  0  0  0  0
 33 67  1  0  0  0  0
 34 68  1  0  0  0  0
 34 74  2  0  0  0  0
 35 50  1  0  0  0  0
 35 70  1  0  0  0  0
 35 75  2  0  0  0  0
 36 60  1  0  0  0  0
 36 65  1  0  0  0  0
 36 76  2  0  0  0  0
 37 58  1  0  0  0  0
 37 69  1  0  0  0  0
 37 77  2  0  0  0  0
 38 61  1  0  0  0  0
 38 71  1  0  0  0  0
 38 78  2  0  0  0  0
 39 66  1  0  0  0  0
 39 72  1  0  0  0  0
 39 79  2  0  0  0  0
 40 43  1  0  0  0  0
 41 50  1  0  0  0  0
 42 65  1  0  0  0  0
 43 45  1  0  0  0  0
 44 46  1  0  0  0  0
 44 47  1  0  0  0  0
 45 49  1  0  0  0  0
 46 51  1  0  0  0  0
 47 66  1  0  0  0  0
 48 51  1  0  0  0  0
 48 66  1  0  0  0  0
 49 70  1  0  0  0  0
 50 65  1  0  0  0  0
 51 64  1  0  0  0  0
 52 61  1  0  0  0  0
 53 62  1  0  0  0  0
 54 62  1  0  0  0  0
 55 62  1  0  0  0  0
 56 73  1  0  0  0  0
 57 72  1  0  0  0  0
 58 59  1  0  0  0  0
 59 81  1  0  0  0  0
 60 62  1  0  0  0  0
 60 71  1  0  0  0  0
 61 73  1  0  0  0  0
 63 64  1  0  0  0  0
M  CHG  1  73   1
M  ISO  4  39 100  59 101  72 100  81 101
M  END
> <Batch ID>
0059

> <Smiles>
CNC(C)C(=O)NC(C(=O)N1Cc2cc([101O:1][101CH2:1]CC(=O)Nc3cccc(C[100NH:0][100C:0](=O)N4CCCC(n5nc(-c6ccc(Oc7ccc(F)cc7F)cc6)c(C(N)=O)c5N)C4)c3)ccc2CC1C(=O)NC1CCCc2ccccc21)C(C)(C)C

> <Shape>
0.200

> <Color>
0.081

> <Negative vol penalty>
0.000

$$$$

  -OEChem-04042323013D

 88 97  0     1  0  0  0  0  0999 V2000
  -22.9658  -22.7355   18.6412 C   0  0  0  0  0  0  0  0  0  0  0  0
  -24.0855  -21.9992   18.2677 C   0  0  0  0  0  0  0  0  0  0  0  0
  -26.9289  -29.2913   20.4238 C   0  0  0  0  0  0  0  0  0  0  0  0
  -25.9322  -27.0920   20.3417 C   0  0  0  0  0  0  0  0  0  0  0  0
  -22.2058  -22.3374   19.7402 C   0  0  0  0  0  0  0  0  0  0  0  0
  -24.4465  -20.8648   18.9938 C   0  0  0  0  0  0  0  0  0  0  0  0
  -26.9639  -15.7331   16.7949 C   0  0  0  0  0  0  0  0  0  0  0  0
  -30.7503  -17.8412   21.3351 C   0  0  0  0  0  0  0  0  0  0  0  0
  -29.5832  -18.5905   21.4835 C   0  0  0  0  0  0  0  0  0  0  0  0
  -25.6733  -29.8676   20.2323 C   0  0  0  0  0  0  0  0  0  0  0  0
  -24.6764  -27.6683   20.1502 C   0  0  0  0  0  0  0  0  0  0  0  0
  -28.2813  -15.2792   16.7501 C   0  0  0  0  0  0  0  0  0  0  0  0
  -21.1574  -28.5696   20.0003 C   0  0  0  0  0  0  0  0  0  0  0  0
  -20.0912  -28.0651   20.7448 C   0  0  0  0  0  0  0  0  0  0  0  0
  -27.9080  -14.0144   18.7700 C   0  0  0  0  0  0  0  0  0  0  0  0
  -31.5414  -19.4030   19.6702 C   0  0  0  0  0  0  0  0  0  0  0  0
  -21.2381  -28.6558   22.7876 C   0  0  0  0  0  0  0  0  0  0  0  0
  -27.0584  -27.9034   20.4785 C   0  0  0  0  0  0  0  0  0  0  0  0
  -29.2176  -27.4918   21.7731 C   0  0  0  0  0  0  0  0  0  0  0  0
  -22.5521  -21.1920   20.4743 C   0  0  0  0  0  0  0  0  0  0  0  0
  -26.1103  -15.3391   17.8354 C   0  0  0  0  0  0  0  0  0  0  0  0
  -23.6912  -20.4517   20.1045 C   0  0  0  0  0  0  0  0  0  0  0  0
  -26.5794  -14.4626   18.8243 C   0  0  0  0  0  0  0  0  0  0  0  0
  -31.7294  -18.2474   20.4285 C   0  0  0  0  0  0  0  0  0  0  0  0
  -29.3952  -19.7461   20.7253 C   0  0  0  0  0  0  0  0  0  0  0  0
  -30.3743  -20.1523   19.8186 C   0  0  0  0  0  0  0  0  0  0  0  0
  -24.5470  -29.0561   20.0955 C   0  0  0  0  0  0  0  0  0  0  0  0
  -28.7545  -14.4220   17.7393 C   0  0  0  0  0  0  0  0  0  0  0  0
  -22.2641  -29.1170   20.6495 C   0  0  0  0  0  0  0  0  0  0  0  0
  -20.1315  -28.1083   22.1384 C   0  0  0  0  0  0  0  0  0  0  0  0
  -22.3044  -29.1602   22.0431 C   0  0  0  0  0  0  0  0  0  0  0  0
  -28.3554  -27.3075   20.6757 C   0  0  0  0  0  0  0  0  0  0  0  0
  -30.3125  -26.7147   21.4838 C   0  0  0  0  0  0  0  0  0  0  0  0
  -33.5598  -17.2800   17.9146 C   0  0  0  0  0  0  0  0  0  0  0  0
  -32.4082  -15.3684   19.0870 C   0  0  0  0  0  0  0  0  0  0  0  0
  -29.0443  -28.2937   22.9490 C   0  0  0  0  0  0  0  0  0  0  0  0
  -24.5424  -16.8563   20.1470 C   0  0  0  0  0  0  0  0  0  0  0  0
  -23.2866  -13.9155   20.6916 C   0  0  0  0  0  0  0  0  0  0  0  0
  -23.6040  -10.5301   20.3991 C   0  0  0  0  0  0  0  0  0  0  0  0
  -31.0872  -21.8510   18.1002 C   0  0  0  0  0  0  0  0  0  0  0  0
  -21.7274  -20.8278   21.6833 C   0  0  0  0  0  0  0  0  0  0  0  0
  -24.6840  -15.8162   17.8548 C   0  0  0  0  0  0  0  0  0  0  0  0
  -25.6973  -13.9937   19.9515 C   0  0  0  0  0  0  0  0  0  0  0  0
  -33.5709  -16.4785   16.6350 C   0  0  0  0  0  0  0  0  0  0  0  0
  -21.9614  -19.4010   22.1729 C   0  0  0  0  0  0  0  0  0  0  0  0
  -33.5430  -14.9882   16.8940 C   0  0  0  0  0  0  0  0  0  0  0  0
  -32.7871  -24.9627   17.7769 C   0  0  0  0  0  0  0  0  0  0  0  0
  -23.4548  -19.0974   22.2390 C   0  0  0  0  0  0  0  0  0  0  0  0
  -31.9253  -25.9326   18.5885 C   0  0  0  0  0  0  0  0  0  0  0  0
  -31.9369  -23.9306   17.0381 C   0  0  0  0  0  0  0  0  0  0  0  0
  -30.1250  -24.1619   18.6912 C   0  0  0  0  0  0  0  0  0  0  0  0
  -24.1007  -19.2012   20.8521 C   0  0  1  0  0  0  0  0  0  0  0  0
  -32.3593  -14.6126   17.7719 C   0  0  2  0  0  0  0  0  0  0  0  0
  -24.0539  -15.7600   19.2430 C   0  0  1  0  0  0  0  0  0  0  0  0
  -30.9405  -25.1801   19.5048 C   0  0  2  0  0  0  0  0  0  0  0  0
  -28.1348  -20.5286   20.9044 C   0  0  0  0  0  0  0  0  0  0  0  0
  -22.4347   -8.3851   20.9728 C   0  0  0  0  0  0  0  0  0  0  0  0
  -24.1698  -14.2138   23.5969 C   0  0  0  0  0  0  0  0  0  0  0  0
  -23.8527  -11.7458   23.8738 C   0  0  0  0  0  0  0  0  0  0  0  0
  -21.9063  -13.1943   23.2941 C   0  0  0  0  0  0  0  0  0  0  0  0
  -23.3624   -9.7647   17.5505 C   0  0  0  0  0  0  0  0  0  0  0  0
  -32.9854  -17.4403   20.2695 C   0  0  0  0  0  0  0  0  0  0  0  0
  -31.0068  -14.8417   17.1016 C   0  0  0  0  0  0  0  0  0  1  0  0
  -23.6707  -12.7300   21.5438 C   0  0  1  0  0  0  0  0  0  0  0  0
  -22.6338   -9.4650   19.9207 C   0  0  2  0  0  0  0  0  0  0  0  0
  -23.4173  -12.9812   23.0571 C   0  0  0  0  0  0  0  0  0  0  0  0
  -28.8592  -26.4785   19.7576 N   0  0  0  0  0  0  0  0  0  0  0  0
  -30.0499  -26.1350   20.2775 N   0  0  0  0  0  0  0  0  0  0  0  0
  -32.9789  -16.6567   19.0384 N   0  0  0  0  0  0  0  0  0  0  0  0
  -24.3125  -14.4930   19.9301 N   0  0  0  0  0  0  0  0  0  0  0  0
  -31.0316  -23.2548   17.9701 N   0  0  0  0  0  0  0  0  0  0  0  0
  -31.4647  -26.4776   22.1461 N   0  0  0  0  0  0  0  0  0  0  0  0
  -28.4374  -27.7125   24.0706 N   0  0  0  0  0  0  0  0  0  0  0  0
  -30.2021  -21.3235   19.0399 N   0  0  0  0  0  0  0  0  0  0  0  0
  -23.8046  -18.0220   20.0671 N   0  0  0  0  0  0  0  0  0  0  0  0
  -22.9493  -11.5849   20.9991 N   0  0  0  0  0  0  0  0  0  0  0  0
  -23.1433   -8.8213   18.6770 N   0  3  0  0  0  0  0  0  0  0  0  0
  -34.0054  -18.4305   17.9156 O   0  0  0  0  0  0  0  0  0  0  0  0
  -31.9160  -14.8599   20.0973 O   0  0  0  0  0  0  0  0  0  0  0  0
  -29.4016  -29.4952   22.9978 O   0  0  0  0  0  0  0  0  0  0  0  0
  -25.5157  -16.6588   20.8649 O   0  0  0  0  0  0  0  0  0  0  0  0
  -22.1178  -14.3098   20.6957 O   0  0  0  0  0  0  0  0  0  0  0  0
  -24.8211  -10.4341   20.2582 O   0  0  0  0  0  0  0  0  0  0  0  0
  -31.8819  -21.1697   17.4473 O   0  0  0  0  0  0  0  0  0  0  0  0
  -23.3215  -29.6181   19.9089 O   0  0  0  0  0  0  0  0  0  0  0  0
  -30.0402  -13.9780   17.6982 O   0  0  0  0  0  0  0  0  0  1  0  0
  -19.1068  -27.6252   22.8532 F   0  0  0  0  0  0  0  0  0  0  0  0
  -23.3643  -29.6860   22.6723 F   0  0  0  0  0  0  0  0  0  0  0  0
  1  2  1  0  0  0  0
  1  5  2  0  0  0  0
  2  6  2  0  0  0  0
  3 10  2  0  0  0  0
  3 18  1  0  0  0  0
  4 11  1  0  0  0  0
  4 18  2  0  0  0  0
  5 20  1  0  0  0  0
  6 22  1  0  0  0  0
  7 12  2  0  0  0  0
  7 21  1  0  0  0  0
  8  9  2  0  0  0  0
  8 24  1  0  0  0  0
  9 25  1  0  0  0  0
 10 27  1  0  0  0  0
 11 27  2  0  0  0  0
 12 28  1  0  0  0  0
 13 14  2  0  0  0  0
 13 29  1  0  0  0  0
 14 30  1  0  0  0  0
 15 23  1  0  0  0  0
 15 28  2  0  0  0  0
 16 24  2  0  0  0  0
 16 26  1  0  0  0  0
 17 30  2  0  0  0  0
 17 31  1  0  0  0  0
 18 32  1  0  0  0  0
 19 32  1  0  0  0  0
 19 33  2  0  0  0  0
 19 36  1  0  0  0  0
 20 22  2  0  0  0  0
 20 41  1  0  0  0  0
 21 23  2  0  0  0  0
 21 42  1  0  0  0  0
 22 52  1  0  0  0  0
 23 43  1  0  0  0  0
 24 62  1  0  0  0  0
 25 26  2  0  0  0  0
 25 56  1  0  0  0  0
 26 74  1  0  0  0  0
 27 85  1  0  0  0  0
 28 86  1  0  0  0  0
 29 31  2  0  0  0  0
 29 85  1  0  0  0  0
 30 87  1  0  0  0  0
 31 88  1  0  0  0  0
 32 67  2  0  0  0  0
 33 68  1  0  0  0  0
 33 72  1  0  0  0  0
 34 44  1  0  0  0  0
 34 69  1  0  0  0  0
 34 78  2  0  0  0  0
 35 53  1  0  0  0  0
 35 69  1  0  0  0  0
 35 79  2  0  0  0  0
 36 73  1  0  0  0  0
 36 80  2  0  0  0  0
 37 54  1  0  0  0  0
 37 75  1  0  0  0  0
 37 81  2  0  0  0  0
 38 64  1  0  0  0  0
 38 70  1  0  0  0  0
 38 82  2  0  0  0  0
 39 65  1  0  0  0  0
 39 76  1  0  0  0  0
 39 83  2  0  0  0  0
 40 71  1  0  0  0  0
 40 74  1  0  0  0  0
 40 84  2  0  0  0  0
 41 45  1  0  0  0  0
 42 54  1  0  0  0  0
 43 70  1  0  0  0  0
 44 46  1  0  0  0  0
 45 48  1  0  0  0  0
 46 53  1  0  0  0  0
 47 49  1  0  0  0  0
 47 50  1  0  0  0  0
 48 52  1  0  0  0  0
 49 55  1  0  0  0  0
 50 71  1  0  0  0  0
 51 55  1  0  0  0  0
 51 71  1  0  0  0  0
 52 75  1  0  0  0  0
 53 63  1  0  0  0  0
 54 70  1  0  0  0  0
 55 68  1  0  0  0  0
 57 65  1  0  0  0  0
 58 66  1  0  0  0  0
 59 66  1  0  0  0  0
 60 66  1  0  0  0  0
 61 77  1  0  0  0  0
 62 69  1  0  0  0  0
 63 86  1  0  0  0  0
 64 66  1  0  0  0  0
 64 76  1  0  0  0  0
 65 77  1  0  0  0  0
 67 68  1  0  0  0  0
M  CHG  1  77   1
M  ISO  4  40 100  63 101  74 100  86 101
M  END
> <Batch ID>
0059

> <Smiles>
CNC(C)C(=O)NC(C(=O)N1Cc2cc([101O:1][101CH2:1]C3CCC(=O)N(Cc4ccc(C)c([100NH:0][100C:0](=O)N5CCCC(n6nc(-c7ccc(Oc8ccc(F)cc8F)cc7)c(C(N)=O)c6N)C5)c4)C3=O)ccc2CC1C(=O)NC1CCCc2ccccc21)C(C)(C)C

> <Shape>
0.245

> <Color>
0.067

> <Negative vol penalty>
0.000

$$$$

  -OEChem-04042323013D

 86 94  0     1  0  0  0  0  0999 V2000
  -29.6407  -23.8555   18.5328 C   0  0  0  0  0  0  0  0  0  0  0  0
  -28.2633  -24.0478   18.5662 C   0  0  0  0  0  0  0  0  0  0  0  0
  -28.1367  -14.9371   21.1645 C   0  0  0  0  0  0  0  0  0  0  0  0
  -26.0386  -15.7156   20.2540 C   0  0  0  0  0  0  0  0  0  0  0  0
  -21.6001  -23.5375   25.4073 C   0  0  0  0  0  0  0  0  0  0  0  0
  -30.4433  -24.3950   19.5372 C   0  0  0  0  0  0  0  0  0  0  0  0
  -27.6875  -24.7790   19.6046 C   0  0  0  0  0  0  0  0  0  0  0  0
  -22.8075  -28.4620   19.2491 C   0  0  0  0  0  0  0  0  0  0  0  0
  -22.9281  -23.1404   25.2519 C   0  0  0  0  0  0  0  0  0  0  0  0
  -27.6995  -13.6181   21.0445 C   0  0  0  0  0  0  0  0  0  0  0  0
  -25.6013  -14.3965   20.1339 C   0  0  0  0  0  0  0  0  0  0  0  0
  -21.4624  -28.2695   19.5613 C   0  0  0  0  0  0  0  0  0  0  0  0
  -24.3476  -11.9937   22.1553 C   0  0  0  0  0  0  0  0  0  0  0  0
  -23.0510  -11.6999   22.5774 C   0  0  0  0  0  0  0  0  0  0  0  0
  -21.8289  -29.2655   21.7276 C   0  0  0  0  0  0  0  0  0  0  0  0
  -22.4705  -22.5042   22.9665 C   0  0  0  0  0  0  0  0  0  0  0  0
  -22.4934  -10.9565   20.3472 C   0  0  0  0  0  0  0  0  0  0  0  0
  -27.3063  -15.9859   20.7693 C   0  0  0  0  0  0  0  0  0  0  0  0
  -20.7072  -23.4179   24.3424 C   0  0  0  0  0  0  0  0  0  0  0  0
  -28.4546  -18.1044   19.9321 C   0  0  0  0  0  0  0  0  0  0  0  0
  -29.8781  -25.1413   20.5832 C   0  0  0  0  0  0  0  0  0  0  0  0
  -23.6772  -29.0487   20.1796 C   0  0  0  0  0  0  0  0  0  0  0  0
  -28.4831  -25.3278   20.6246 C   0  0  0  0  0  0  0  0  0  0  0  0
  -23.1840  -29.4666   21.4238 C   0  0  0  0  0  0  0  0  0  0  0  0
  -21.1424  -22.9013   23.1220 C   0  0  0  0  0  0  0  0  0  0  0  0
  -23.3634  -22.6238   24.0315 C   0  0  0  0  0  0  0  0  0  0  0  0
  -26.4318  -13.3477   20.5292 C   0  0  0  0  0  0  0  0  0  0  0  0
  -20.9735  -28.6687   20.8018 C   0  0  0  0  0  0  0  0  0  0  0  0
  -24.7170  -11.7691   20.8291 C   0  0  0  0  0  0  0  0  0  0  0  0
  -22.1240  -11.1812   21.6734 C   0  0  0  0  0  0  0  0  0  0  0  0
  -23.7900  -11.2505   19.9251 C   0  0  0  0  0  0  0  0  0  0  0  0
  -27.7572  -17.3487   20.8935 C   0  0  0  0  0  0  0  0  0  0  0  0
  -28.6476  -19.3260   20.5295 C   0  0  0  0  0  0  0  0  0  0  0  0
  -19.3058  -23.8448   24.5280 C   0  0  0  0  0  0  0  0  0  0  0  0
  -28.8891  -17.7352   18.6166 C   0  0  0  0  0  0  0  0  0  0  0  0
  -26.2940  -28.0982   21.7134 C   0  0  0  0  0  0  0  0  0  0  0  0
  -18.0957  -27.4155   22.6210 C   0  0  0  0  0  0  0  0  0  0  0  0
  -26.3451  -31.1782   22.7301 C   0  0  0  0  0  0  0  0  0  0  0  0
  -24.6147  -34.0536   23.3502 C   0  0  0  0  0  0  0  0  0  0  0  0
  -25.7274  -22.2746   24.8288 C   0  0  0  0  0  0  0  0  0  0  0  0
  -30.7811  -25.6648   21.6718 C   0  0  0  0  0  0  0  0  0  0  0  0
  -25.1196  -29.2736   19.8173 C   0  0  0  0  0  0  0  0  0  0  0  0
  -24.0720  -30.1198   22.4501 C   0  0  0  0  0  0  0  0  0  0  0  0
  -30.1326  -26.7443   22.5345 C   0  0  0  0  0  0  0  0  0  0  0  0
  -29.1648  -21.3464   24.8406 C   0  0  0  0  0  0  0  0  0  0  0  0
  -28.7255  -26.3240   22.9472 C   0  0  0  0  0  0  0  0  0  0  0  0
  -29.2586  -20.2891   23.7381 C   0  0  0  0  0  0  0  0  0  0  0  0
  -27.8499  -21.2465   25.6118 C   0  0  0  0  0  0  0  0  0  0  0  0
  -26.7334  -20.2060   23.6779 C   0  0  0  0  0  0  0  0  0  0  0  0
  -27.8239  -26.1361   21.7211 C   0  0  1  0  0  0  0  0  0  0  0  0
  -26.0270  -29.4125   21.0358 C   0  0  1  0  0  0  0  0  0  0  0  0
  -28.0126  -20.3085   22.8311 C   0  0  2  0  0  0  0  0  0  0  0  0
  -20.2060  -22.7660   21.9662 C   0  0  0  0  0  0  0  0  0  0  0  0
  -24.9212  -36.3900   24.2130 C   0  0  0  0  0  0  0  0  0  0  0  0
  -26.4933  -30.1031   25.5818 C   0  0  0  0  0  0  0  0  0  0  0  0
  -25.8444  -32.3788   26.3992 C   0  0  0  0  0  0  0  0  0  0  0  0
  -27.9699  -32.0704   25.1306 C   0  0  0  0  0  0  0  0  0  0  0  0
  -23.7331  -35.2402   20.7863 C   0  0  0  0  0  0  0  0  0  0  0  0
  -17.6450  -27.1341   24.0464 C   0  0  0  0  0  0  0  0  0  0  0  0
  -19.3397  -28.2716   22.4837 C   0  0  0  0  0  0  0  0  0  1  0  0
  -17.6320  -25.6551   24.3941 C   0  0  0  0  0  0  0  0  0  0  0  0
  -25.7631  -31.9258   23.9054 C   0  0  1  0  0  0  0  0  0  0  0  0
  -24.8971  -35.4987   22.9810 C   0  0  2  0  0  0  0  0  0  0  0  0
  -26.5011  -31.6055   25.2359 C   0  0  0  0  0  0  0  0  0  0  0  0
  -27.5232  -18.0329   22.0165 N   0  0  0  0  0  0  0  0  0  0  0  0
  -28.0767  -19.2314   21.7645 N   0  0  0  0  0  0  0  0  0  0  0  0
  -25.4761  -30.3123   22.0512 N   0  0  0  0  0  0  0  0  0  0  0  0
  -26.7138  -21.2755   24.6881 N   0  0  0  0  0  0  0  0  0  0  0  0
  -29.2484  -20.4612   20.1137 N   0  0  0  0  0  0  0  0  0  0  0  0
  -18.4271  -22.9430   24.9656 N   0  0  0  0  0  0  0  0  0  0  0  0
  -28.6082  -16.4405   18.1590 N   0  0  0  0  0  0  0  0  0  0  0  0
  -24.7128  -22.2217   23.8736 N   0  0  0  0  0  0  0  0  0  0  0  0
  -27.3883  -27.4191   21.2127 N   0  0  0  0  0  0  0  0  0  0  0  0
  -25.7780  -33.3379   23.5388 N   0  0  0  0  0  0  0  0  0  0  0  0
  -18.9846  -25.1135   24.2465 N   0  3  0  0  0  0  0  0  0  0  0  0
  -23.8505  -36.0099   22.0514 N   0  3  0  0  0  0  0  0  0  0  0  0
  -29.5224  -18.5244   17.8753 O   0  0  0  0  0  0  0  0  0  0  0  0
  -25.5623  -27.7284   22.6242 O   0  0  0  0  0  0  0  0  0  0  0  0
  -17.4926  -26.9879   21.6380 O   0  0  0  0  0  0  0  0  0  0  0  0
  -27.5253  -31.3612   22.4213 O   0  0  0  0  0  0  0  0  0  0  0  0
  -23.4759  -33.6054   23.4638 O   0  0  0  0  0  0  0  0  0  0  0  0
  -25.7935  -23.1317   25.7136 O   0  0  0  0  0  0  0  0  0  0  0  0
  -26.0048  -12.0607   20.4117 O   0  0  0  0  0  0  0  0  0  0  0  0
  -19.6612  -28.4814   21.1093 O   0  0  0  0  0  0  0  0  0  1  0  0
  -20.8794  -10.8976   22.0793 F   0  0  0  0  0  0  0  0  0  0  0  0
  -24.1394  -11.0314   18.6500 F   0  0  0  0  0  0  0  0  0  0  0  0
  1  2  1  0  0  0  0
  1  6  2  0  0  0  0
  2  7  2  0  0  0  0
  3 10  2  0  0  0  0
  3 18  1  0  0  0  0
  4 11  1  0  0  0  0
  4 18  2  0  0  0  0
  5  9  2  0  0  0  0
  5 19  1  0  0  0  0
  6 21  1  0  0  0  0
  7 23  1  0  0  0  0
  8 12  2  0  0  0  0
  8 22  1  0  0  0  0
  9 26  1  0  0  0  0
 10 27  1  0  0  0  0
 11 27  2  0  0  0  0
 12 28  1  0  0  0  0
 13 14  2  0  0  0  0
 13 29  1  0  0  0  0
 14 30  1  0  0  0  0
 15 24  1  0  0  0  0
 15 28  2  0  0  0  0
 16 25  1  0  0  0  0
 16 26  2  0  0  0  0
 17 30  2  0  0  0  0
 17 31  1  0  0  0  0
 18 32  1  0  0  0  0
 19 25  2  0  0  0  0
 19 34  1  0  0  0  0
 20 32  1  0  0  0  0
 20 33  2  0  0  0  0
 20 35  1  0  0  0  0
 21 23  2  0  0  0  0
 21 41  1  0  0  0  0
 22 24  2  0  0  0  0
 22 42  1  0  0  0  0
 23 50  1  0  0  0  0
 24 43  1  0  0  0  0
 25 53  1  0  0  0  0
 26 72  1  0  0  0  0
 27 83  1  0  0  0  0
 28 84  1  0  0  0  0
 29 31  2  0  0  0  0
 29 83  1  0  0  0  0
 30 85  1  0  0  0  0
 31 86  1  0  0  0  0
 32 65  2  0  0  0  0
 33 66  1  0  0  0  0
 33 69  1  0  0  0  0
 34 70  1  0  0  0  0
 34 75  2  0  0  0  0
 35 71  1  0  0  0  0
 35 77  2  0  0  0  0
 36 51  1  0  0  0  0
 36 73  1  0  0  0  0
 36 78  2  0  0  0  0
 37 59  1  0  0  0  0
 37 60  1  0  0  0  0
 37 79  2  0  0  0  0
 38 62  1  0  0  0  0
 38 67  1  0  0  0  0
 38 80  2  0  0  0  0
 39 63  1  0  0  0  0
 39 74  1  0  0  0  0
 39 81  2  0  0  0  0
 40 68  1  0  0  0  0
 40 72  1  0  0  0  0
 40 82  2  0  0  0  0
 41 44  1  0  0  0  0
 42 51  1  0  0  0  0
 43 67  1  0  0  0  0
 44 46  1  0  0  0  0
 45 47  1  0  0  0  0
 45 48  1  0  0  0  0
 46 50  1  0  0  0  0
 47 52  1  0  0  0  0
 48 68  1  0  0  0  0
 49 52  1  0  0  0  0
 49 68  1  0  0  0  0
 50 73  1  0  0  0  0
 51 67  1  0  0  0  0
 52 66  1  0  0  0  0
 54 63  1  0  0  0  0
 55 64  1  0  0  0  0
 56 64  1  0  0  0  0
 57 64  1  0  0  0  0
 58 76  1  0  0  0  0
 59 61  1  0  0  0  0
 60 84  1  0  0  0  0
 61 75  1  0  0  0  0
 62 64  1  0  0  0  0
 62 74  1  0  0  0  0
 63 76  1  0  0  0  0
 65 66  1  0  0  0  0
M  CHG  2  75   1  76   1
M  ISO  4  40 100  60 101  72 100  84 101
M  END
> <Batch ID>
0059

> <Smiles>
CNC(C)C(=O)NC(C(=O)N1Cc2cc([101O:1][101CH2:1]C(=O)CCNC(=N)c3ccc([100NH:0][100C:0](=O)N4CCCC(n5nc(-c6ccc(Oc7ccc(F)cc7F)cc6)c(C(N)=O)c5N)C4)cc3C)ccc2CC1C(=O)NC1CCCc2ccccc21)C(C)(C)C

> <Shape>
0.290

> <Color>
0.075

> <Negative vol penalty>
0.000

$$$$

  -OEChem-04042323013D

 89 98  0     1  0  0  0  0  0999 V2000
  -20.1460  -24.7358   24.5358 C   0  0  0  0  0  0  0  0  0  0  0  0
  -21.4357  -25.0842   24.1477 C   0  0  0  0  0  0  0  0  0  0  0  0
  -27.1257  -10.0305   19.5440 C   0  0  0  0  0  0  0  0  0  0  0  0
  -27.5408  -10.3552   21.9018 C   0  0  0  0  0  0  0  0  0  0  0  0
  -19.0595  -25.4927   24.0994 C   0  0  0  0  0  0  0  0  0  0  0  0
  -21.6395  -26.1892   23.3218 C   0  0  0  0  0  0  0  0  0  0  0  0
  -25.4758  -29.1018   24.8853 C   0  0  0  0  0  0  0  0  0  0  0  0
  -25.9997  -21.2986   23.7142 C   0  0  0  0  0  0  0  0  0  0  0  0
  -26.4977  -20.1062   23.1892 C   0  0  0  0  0  0  0  0  0  0  0  0
  -27.3541   -8.6625   19.6921 C   0  0  0  0  0  0  0  0  0  0  0  0
  -27.7691   -8.9871   22.0499 C   0  0  0  0  0  0  0  0  0  0  0  0
  -26.7673  -28.6603   24.6011 C   0  0  0  0  0  0  0  0  0  0  0  0
  -25.6609   -5.9622   20.8210 C   0  0  0  0  0  0  0  0  0  0  0  0
  -24.7674   -5.0855   20.2057 C   0  0  0  0  0  0  0  0  0  0  0  0
  -26.8667  -30.1760   22.7271 C   0  0  0  0  0  0  0  0  0  0  0  0
  -28.3467  -21.3111   22.2062 C   0  0  0  0  0  0  0  0  0  0  0  0
  -26.5774   -4.1548   18.9038 C   0  0  0  0  0  0  0  0  0  0  0  0
  -27.2191  -10.8769   20.6488 C   0  0  0  0  0  0  0  0  0  0  0  0
  -25.7548  -12.9656   20.6199 C   0  0  0  0  0  0  0  0  0  0  0  0
  -19.2509  -26.6131   23.2756 C   0  0  0  0  0  0  0  0  0  0  0  0
  -24.8649  -30.0776   24.0846 C   0  0  0  0  0  0  0  0  0  0  0  0
  -20.5544  -26.9609   22.8728 C   0  0  0  0  0  0  0  0  0  0  0  0
  -25.5683  -30.6300   23.0047 C   0  0  0  0  0  0  0  0  0  0  0  0
  -26.6751  -22.4974   23.4851 C   0  0  0  0  0  0  0  0  0  0  0  0
  -27.8486  -22.5036   22.7311 C   0  0  0  0  0  0  0  0  0  0  0  0
  -27.6712  -20.1124   22.4352 C   0  0  0  0  0  0  0  0  0  0  0  0
  -27.6758   -8.1408   20.9451 C   0  0  0  0  0  0  0  0  0  0  0  0
  -27.4619  -29.1953   23.5202 C   0  0  0  0  0  0  0  0  0  0  0  0
  -27.0126   -5.9354   20.4777 C   0  0  0  0  0  0  0  0  0  0  0  0
  -25.2257   -4.1818   19.2471 C   0  0  0  0  0  0  0  0  0  0  0  0
  -27.4708   -5.0316   19.5191 C   0  0  0  0  0  0  0  0  0  0  0  0
  -26.9838  -12.2902   20.4963 C   0  0  0  0  0  0  0  0  0  0  0  0
  -26.0622  -14.2835   20.3852 C   0  0  0  0  0  0  0  0  0  0  0  0
  -29.6742  -25.8107   23.1613 C   0  0  0  0  0  0  0  0  0  0  0  0
  -29.5712  -26.3225   21.9258 C   0  0  0  0  0  0  0  0  0  0  0  0
  -28.9416  -25.5459   20.8696 C   0  0  0  0  0  0  0  0  0  0  0  0
  -29.0659  -24.5047   23.5416 C   0  0  0  0  0  0  0  0  0  0  0  0
  -28.4254  -26.0756   19.7486 C   0  0  0  0  0  0  0  0  0  0  0  0
  -24.4519  -12.4480   20.9201 C   0  0  0  0  0  0  0  0  0  0  0  0
  -22.2772  -30.1680   22.2408 C   0  0  0  0  0  0  0  0  0  0  0  0
  -23.0337  -33.3134   22.0027 C   0  0  0  0  0  0  0  0  0  0  0  0
  -25.4269  -35.7395   22.1853 C   0  0  0  0  0  0  0  0  0  0  0  0
  -29.3273  -18.7314   21.1327 C   0  0  0  0  0  0  0  0  0  0  0  0
  -18.0415  -27.3726   22.7906 C   0  0  0  0  0  0  0  0  0  0  0  0
  -23.4812  -30.5624   24.4204 C   0  0  0  0  0  0  0  0  0  0  0  0
  -24.9648  -31.6945   22.1265 C   0  0  0  0  0  0  0  0  0  0  0  0
  -28.9354  -24.0571   21.0975 C   0  0  0  0  0  0  0  0  0  0  0  0
  -18.3746  -28.7500   22.2229 C   0  0  0  0  0  0  0  0  0  0  0  0
  -30.2980  -16.4125   18.6112 C   0  0  0  0  0  0  0  0  0  0  0  0
  -19.5624  -28.6616   21.2699 C   0  0  0  0  0  0  0  0  0  0  0  0
  -29.4212  -15.1889   18.8871 C   0  0  0  0  0  0  0  0  0  0  0  0
  -30.7392  -17.0970   19.9037 C   0  0  0  0  0  0  0  0  0  0  0  0
  -28.7733  -16.2199   21.1016 C   0  0  0  0  0  0  0  0  0  0  0  0
  -20.8182  -28.1672   21.9980 C   0  0  1  0  0  0  0  0  0  0  0  0
  -22.7625  -31.1897   23.2298 C   0  0  1  0  0  0  0  0  0  0  0  0
  -28.2508  -15.5349   19.8283 C   0  0  2  0  0  0  0  0  0  0  0  0
  -26.1185  -23.7595   24.0597 C   0  0  0  0  0  0  0  0  0  0  0  0
  -27.7824  -25.2733   18.6717 C   0  0  0  0  0  0  0  0  0  0  0  0
  -25.7512  -38.2118   21.9031 C   0  0  0  0  0  0  0  0  0  0  0  0
  -22.9467  -32.9763   18.9714 C   0  0  0  0  0  0  0  0  0  0  0  0
  -24.1775  -35.1467   18.7646 C   0  0  0  0  0  0  0  0  0  0  0  0
  -21.9159  -35.0927   19.8157 C   0  0  0  0  0  0  0  0  0  0  0  0
  -26.2796  -36.0663   25.0004 C   0  0  0  0  0  0  0  0  0  0  0  0
  -30.1331  -27.6814   21.6114 C   0  0  0  0  0  0  0  0  0  0  0  0
  -29.1308  -28.7975   21.8733 C   0  0  0  0  0  0  0  0  0  1  0  0
  -23.8907  -34.1395   21.0742 C   0  0  1  0  0  0  0  0  0  0  0  0
  -25.4425  -37.0887   22.8808 C   0  0  2  0  0  0  0  0  0  0  0  0
  -23.2436  -34.3174   19.6717 C   0  0  0  0  0  0  0  0  0  0  0  0
  -27.9964  -13.1112   20.2056 N   0  0  0  0  0  0  0  0  0  0  0  0
  -27.4042  -14.3161   20.1444 N   0  0  0  0  0  0  0  0  0  0  0  0
  -28.5619  -23.7335   22.4829 N   0  0  0  0  0  0  0  0  0  0  0  0
  -23.6071  -32.1310   22.4917 N   0  0  0  0  0  0  0  0  0  0  0  0
  -29.5775  -17.3986   20.7430 N   0  0  0  0  0  0  0  0  0  0  0  0
  -25.3127  -15.4061   20.3633 N   0  0  0  0  0  0  0  0  0  0  0  0
  -24.3134  -11.0697   21.1335 N   0  0  0  0  0  0  0  0  0  0  0  0
  -28.1767  -18.9008   21.9021 N   0  0  0  0  0  0  0  0  0  0  0  0
  -21.4063  -29.2374   22.7746 N   0  0  0  0  0  0  0  0  0  0  0  0
  -24.1580  -35.3925   21.7721 N   0  0  0  0  0  0  0  0  0  0  0  0
  -26.4739  -37.1052   23.9564 N   0  3  0  0  0  0  0  0  0  0  0  0
  -29.0692  -24.2051   24.7350 O   0  0  0  0  0  0  0  0  0  0  0  0
  -23.4376  -13.1836   20.9806 O   0  0  0  0  0  0  0  0  0  0  0  0
  -22.6631  -30.2210   21.0789 O   0  0  0  0  0  0  0  0  0  0  0  0
  -21.9001  -33.7063   22.2893 O   0  0  0  0  0  0  0  0  0  0  0  0
  -26.4398  -35.0629   22.0213 O   0  0  0  0  0  0  0  0  0  0  0  0
  -30.0635  -19.6583   20.7850 O   0  0  0  0  0  0  0  0  0  0  0  0
  -27.8985   -6.8059   21.0900 O   0  0  0  0  0  0  0  0  0  0  0  0
  -28.7224  -28.7656   23.2402 O   0  0  0  0  0  0  0  0  0  1  0  0
  -24.3678   -3.3388   18.6574 F   0  0  0  0  0  0  0  0  0  0  0  0
  -28.7685   -5.0003   19.1859 F   0  0  0  0  0  0  0  0  0  0  0  0
  1  2  1  0  0  0  0
  1  5  2  0  0  0  0
  2  6  2  0  0  0  0
  3 10  2  0  0  0  0
  3 18  1  0  0  0  0
  4 11  1  0  0  0  0
  4 18  2  0  0  0  0
  5 20  1  0  0  0  0
  6 22  1  0  0  0  0
  7 12  2  0  0  0  0
  7 21  1  0  0  0  0
  8  9  2  0  0  0  0
  8 24  1  0  0  0  0
  9 26  1  0  0  0  0
 10 27  1  0  0  0  0
 11 27  2  0  0  0  0
 12 28  1  0  0  0  0
 13 14  2  0  0  0  0
 13 29  1  0  0  0  0
 14 30  1  0  0  0  0
 15 23  1  0  0  0  0
 15 28  2  0  0  0  0
 16 25  1  0  0  0  0
 16 26  2  0  0  0  0
 17 30  2  0  0  0  0
 17 31  1  0  0  0  0
 18 32  1  0  0  0  0
 19 32  1  0  0  0  0
 19 33  2  0  0  0  0
 19 39  1  0  0  0  0
 20 22  2  0  0  0  0
 20 44  1  0  0  0  0
 21 23  2  0  0  0  0
 21 45  1  0  0  0  0
 22 54  1  0  0  0  0
 23 46  1  0  0  0  0
 24 25  2  0  0  0  0
 24 57  1  0  0  0  0
 25 71  1  0  0  0  0
 26 76  1  0  0  0  0
 27 86  1  0  0  0  0
 28 87  1  0  0  0  0
 29 31  2  0  0  0  0
 29 86  1  0  0  0  0
 30 88  1  0  0  0  0
 31 89  1  0  0  0  0
 32 69  2  0  0  0  0
 33 70  1  0  0  0  0
 33 74  1  0  0  0  0
 34 35  2  0  0  0  0
 34 37  1  0  0  0  0
 35 36  1  0  0  0  0
 35 64  1  0  0  0  0
 36 38  2  0  0  0  0
 36 47  1  0  0  0  0
 37 71  1  0  0  0  0
 37 80  2  0  0  0  0
 38 58  1  0  0  0  0
 39 75  1  0  0  0  0
 39 81  2  0  0  0  0
 40 55  1  0  0  0  0
 40 77  1  0  0  0  0
 40 82  2  0  0  0  0
 41 66  1  0  0  0  0
 41 72  1  0  0  0  0
 41 83  2  0  0  0  0
 42 67  1  0  0  0  0
 42 78  1  0  0  0  0
 42 84  2  0  0  0  0
 43 73  1  0  0  0  0
 43 76  1  0  0  0  0
 43 85  2  0  0  0  0
 44 48  1  0  0  0  0
 45 55  1  0  0  0  0
 46 72  1  0  0  0  0
 47 71  1  0  0  0  0
 48 50  1  0  0  0  0
 49 51  1  0  0  0  0
 49 52  1  0  0  0  0
 50 54  1  0  0  0  0
 51 56  1  0  0  0  0
 52 73  1  0  0  0  0
 53 56  1  0  0  0  0
 53 73  1  0  0  0  0
 54 77  1  0  0  0  0
 55 72  1  0  0  0  0
 56 70  1  0  0  0  0
 59 67  1  0  0  0  0
 60 68  1  0  0  0  0
 61 68  1  0  0  0  0
 62 68  1  0  0  0  0
 63 79  1  0  0  0  0
 64 65  1  0  0  0  0
 65 87  1  0  0  0  0
 66 68  1  0  0  0  0
 66 78  1  0  0  0  0
 67 79  1  0  0  0  0
 69 70  1  0  0  0  0
M  CHG  1  79   1
M  ISO  4  43 100  65 101  76 100  87 101
M  END
> <Batch ID>
0059

> <Smiles>
CC=C1CN(c2cc([100NH:0][100C:0](=O)N3CCCC(n4nc(-c5ccc(Oc6ccc(F)cc6F)cc5)c(C(N)=O)c4N)C3)ccc2C)C(=O)CC1=C[101CH2:1][101O:1]c1ccc2c(c1)CN(C(=O)C(NC(=O)C(C)NC)C(C)(C)C)C(C(=O)NC1CCCc3ccccc31)C2

> <Shape>
0.243

> <Color>
0.131

> <Negative vol penalty>
0.000

$$$$

  -OEChem-04042323013D

 87 95  0     1  0  0  0  0  0999 V2000
  -40.1721  -20.7215   37.5481 C   0  0  0  0  0  0  0  0  0  0  0  0
  -38.8913  -20.7914   37.0095 C   0  0  0  0  0  0  0  0  0  0  0  0
  -32.6741  -17.4658   23.4351 C   0  0  0  0  0  0  0  0  0  0  0  0
  -23.0735   -9.8698   19.9416 C   0  0  0  0  0  0  0  0  0  0  0  0
  -23.8314   -9.8780   22.2356 C   0  0  0  0  0  0  0  0  0  0  0  0
  -31.8950  -18.3424   24.1902 C   0  0  0  0  0  0  0  0  0  0  0  0
  -41.2650  -20.4830   36.7159 C   0  0  0  0  0  0  0  0  0  0  0  0
  -38.7028  -20.6238   35.6381 C   0  0  0  0  0  0  0  0  0  0  0  0
  -33.9271  -17.9646   32.8763 C   0  0  0  0  0  0  0  0  0  0  0  0
  -32.0657  -16.5892   22.5367 C   0  0  0  0  0  0  0  0  0  0  0  0
  -22.3285   -8.7175   20.1918 C   0  0  0  0  0  0  0  0  0  0  0  0
  -23.0864   -8.7256   22.4859 C   0  0  0  0  0  0  0  0  0  0  0  0
  -32.7841  -18.4855   32.2712 C   0  0  0  0  0  0  0  0  0  0  0  0
  -19.3783   -7.9244   21.6412 C   0  0  0  0  0  0  0  0  0  0  0  0
  -18.0718   -7.8789   21.1549 C   0  0  0  0  0  0  0  0  0  0  0  0
  -33.8693  -18.3527   30.1209 C   0  0  0  0  0  0  0  0  0  0  0  0
  -18.6311   -5.9343   19.8347 C   0  0  0  0  0  0  0  0  0  0  0  0
  -23.8250  -10.4500   20.9635 C   0  0  0  0  0  0  0  0  0  0  0  0
  -30.5075  -18.3423   24.0470 C   0  0  0  0  0  0  0  0  0  0  0  0
  -24.1690  -12.9748   20.8417 C   0  0  0  0  0  0  0  0  0  0  0  0
  -41.0887  -20.3027   35.3349 C   0  0  0  0  0  0  0  0  0  0  0  0
  -35.0555  -17.6435   32.1083 C   0  0  0  0  0  0  0  0  0  0  0  0
  -39.7945  -20.3839   34.7864 C   0  0  0  0  0  0  0  0  0  0  0  0
  -35.0244  -17.8255   30.7183 C   0  0  0  0  0  0  0  0  0  0  0  0
  -29.8991  -17.4656   23.1486 C   0  0  0  0  0  0  0  0  0  0  0  0
  -30.6783  -16.5891   22.3934 C   0  0  0  0  0  0  0  0  0  0  0  0
  -22.3349   -8.1454   21.4640 C   0  0  0  0  0  0  0  0  0  0  0  0
  -32.7561  -18.6823   30.8937 C   0  0  0  0  0  0  0  0  0  0  0  0
  -20.3113   -6.9750   21.2242 C   0  0  0  0  0  0  0  0  0  0  0  0
  -17.6982   -6.8838   20.2517 C   0  0  0  0  0  0  0  0  0  0  0  0
  -19.9376   -5.9799   20.3210 C   0  0  0  0  0  0  0  0  0  0  0  0
  -24.5953  -11.6401   20.7055 C   0  0  0  0  0  0  0  0  0  0  0  0
  -25.2621  -13.7231   20.4788 C   0  0  0  0  0  0  0  0  0  0  0  0
  -29.7029  -19.2915   24.8674 C   0  0  0  0  0  0  0  0  0  0  0  0
  -22.8986  -13.4920   21.2592 C   0  0  0  0  0  0  0  0  0  0  0  0
  -30.2538  -20.1572   26.9243 C   0  0  0  0  0  0  0  0  0  0  0  0
  -30.3681  -19.9189   28.4031 C   0  0  0  0  0  0  0  0  0  0  0  0
  -38.0672  -18.6559   32.0145 C   0  0  0  0  0  0  0  0  0  0  0  0
  -38.4020  -16.2425   29.8731 C   0  0  0  0  0  0  0  0  0  0  0  0
  -36.9354  -14.1619   27.6000 C   0  0  0  0  0  0  0  0  0  0  0  0
  -30.7290  -14.7644   20.6573 C   0  0  0  0  0  0  0  0  0  0  0  0
  -42.3057  -20.0942   34.4688 C   0  0  0  0  0  0  0  0  0  0  0  0
  -36.2710  -17.0575   32.7727 C   0  0  0  0  0  0  0  0  0  0  0  0
  -36.2023  -17.4778   29.8464 C   0  0  0  0  0  0  0  0  0  0  0  0
  -41.9788  -19.5550   33.0786 C   0  0  0  0  0  0  0  0  0  0  0  0
  -29.6146  -12.3496   18.2900 C   0  0  0  0  0  0  0  0  0  0  0  0
  -40.8188  -20.3318   32.4639 C   0  0  0  0  0  0  0  0  0  0  0  0
  -28.1744  -12.0595   18.7186 C   0  0  0  0  0  0  0  0  0  0  0  0
  -30.5289  -12.5786   19.4923 C   0  0  0  0  0  0  0  0  0  0  0  0
  -28.6214  -13.3057   20.8713 C   0  0  0  0  0  0  0  0  0  0  0  0
  -39.5467  -20.1827   33.3071 C   0  0  1  0  0  0  0  0  0  0  0  0
  -37.5471  -17.2474   31.9585 C   0  0  1  0  0  0  0  0  0  0  0  0
  -27.6494  -13.1323   19.6928 C   0  0  2  0  0  0  0  0  0  0  0  0
  -28.4097  -17.4663   22.9961 C   0  0  0  0  0  0  0  0  0  0  0  0
  -29.4928  -22.4793   26.4418 C   0  0  0  0  0  0  0  0  0  0  0  0
  -37.4722  -12.3212   25.9810 C   0  0  0  0  0  0  0  0  0  0  0  0
  -39.5740  -18.2897   27.9379 C   0  0  0  0  0  0  0  0  0  0  0  0
  -39.2027  -16.6474   26.0850 C   0  0  0  0  0  0  0  0  0  0  0  0
  -40.7491  -16.0822   27.9590 C   0  0  0  0  0  0  0  0  0  0  0  0
  -35.1767  -12.2473   29.0144 C   0  0  0  0  0  0  0  0  0  0  0  0
  -30.6688  -21.5197   26.4262 C   0  0  0  0  0  0  0  0  0  0  0  0
  -31.6825  -19.3668   28.8850 C   0  0  0  0  0  0  0  0  0  1  0  0
  -38.2557  -16.1135   28.3761 C   0  0  1  0  0  0  0  0  0  0  0  0
  -37.0351  -12.6607   27.3975 C   0  0  2  0  0  0  0  0  0  0  0  0
  -39.4237  -16.7917   27.6059 C   0  0  0  0  0  0  0  0  0  0  0  0
  -25.8604  -11.5429   20.2883 N   0  0  0  0  0  0  0  0  0  0  0  0
  -29.8158  -19.1552   26.2299 N   0  0  0  0  0  0  0  0  0  0  0  0
  -26.2385  -12.8260   20.1593 N   0  0  0  0  0  0  0  0  0  0  0  0
  -37.3697  -16.9136   30.5438 N   0  0  0  0  0  0  0  0  0  0  0  0
  -29.9700  -13.6106   20.3684 N   0  0  0  0  0  0  0  0  0  0  0  0
  -25.4737  -15.0543   20.4049 N   0  0  0  0  0  0  0  0  0  0  0  0
  -21.8857  -12.5839   21.5963 N   0  0  0  0  0  0  0  0  0  0  0  0
  -30.0817  -15.6906   21.4745 N   0  0  0  0  0  0  0  0  0  0  0  0
  -38.9294  -18.8959   33.0673 N   0  0  0  0  0  0  0  0  0  0  0  0
  -38.1069  -14.6884   28.1018 N   0  0  0  0  0  0  0  0  0  0  0  0
  -35.7157  -12.0153   27.6496 N   0  3  0  0  0  0  0  0  0  0  0  0
  -29.0255  -20.1488   24.3097 O   0  0  0  0  0  0  0  0  0  0  0  0
  -22.6633  -14.7228   21.3153 O   0  0  0  0  0  0  0  0  0  0  0  0
  -29.4076  -20.2036   29.1014 O   0  0  0  0  0  0  0  0  0  0  0  0
  -37.7136  -19.4648   31.1645 O   0  0  0  0  0  0  0  0  0  0  0  0
  -39.3921  -15.7591   30.4278 O   0  0  0  0  0  0  0  0  0  0  0  0
  -35.9212  -14.8038   27.3357 O   0  0  0  0  0  0  0  0  0  0  0  0
  -31.8586  -14.9318   20.1905 O   0  0  0  0  0  0  0  0  0  0  0  0
  -21.6078   -7.0211   21.7086 O   0  0  0  0  0  0  0  0  0  0  0  0
  -31.6421  -19.1912   30.3006 O   0  0  0  0  0  0  0  0  0  1  0  0
  -16.4431   -6.8393   19.7859 F   0  0  0  0  0  0  0  0  0  0  0  0
  -20.8291   -5.0643   19.9177 F   0  0  0  0  0  0  0  0  0  0  0  0
  1  2  1  0  0  0  0
  1  7  2  0  0  0  0
  2  8  2  0  0  0  0
  3  6  2  0  0  0  0
  3 10  1  0  0  0  0
  4 11  2  0  0  0  0
  4 18  1  0  0  0  0
  5 12  1  0  0  0  0
  5 18  2  0  0  0  0
  6 19  1  0  0  0  0
  7 21  1  0  0  0  0
  8 23  1  0  0  0  0
  9 13  2  0  0  0  0
  9 22  1  0  0  0  0
 10 26  2  0  0  0  0
 11 27  1  0  0  0  0
 12 27  2  0  0  0  0
 13 28  1  0  0  0  0
 14 15  2  0  0  0  0
 14 29  1  0  0  0  0
 15 30  1  0  0  0  0
 16 24  1  0  0  0  0
 16 28  2  0  0  0  0
 17 30  2  0  0  0  0
 17 31  1  0  0  0  0
 18 32  1  0  0  0  0
 19 25  2  0  0  0  0
 19 34  1  0  0  0  0
 20 32  1  0  0  0  0
 20 33  2  0  0  0  0
 20 35  1  0  0  0  0
 21 23  2  0  0  0  0
 21 42  1  0  0  0  0
 22 24  2  0  0  0  0
 22 43  1  0  0  0  0
 23 51  1  0  0  0  0
 24 44  1  0  0  0  0
 25 26  1  0  0  0  0
 25 54  1  0  0  0  0
 26 73  1  0  0  0  0
 27 84  1  0  0  0  0
 28 85  1  0  0  0  0
 29 31  2  0  0  0  0
 29 84  1  0  0  0  0
 30 86  1  0  0  0  0
 31 87  1  0  0  0  0
 32 66  2  0  0  0  0
 33 68  1  0  0  0  0
 33 71  1  0  0  0  0
 34 67  1  0  0  0  0
 34 77  2  0  0  0  0
 35 72  1  0  0  0  0
 35 78  2  0  0  0  0
 36 37  1  0  0  0  0
 36 61  1  0  0  0  0
 36 67  2  0  0  0  0
 37 62  1  0  0  0  0
 37 79  2  0  0  0  0
 38 52  1  0  0  0  0
 38 74  1  0  0  0  0
 38 80  2  0  0  0  0
 39 63  1  0  0  0  0
 39 69  1  0  0  0  0
 39 81  2  0  0  0  0
 40 64  1  0  0  0  0
 40 75  1  0  0  0  0
 40 82  2  0  0  0  0
 41 70  1  0  0  0  0
 41 73  1  0  0  0  0
 41 83  2  0  0  0  0
 42 45  1  0  0  0  0
 43 52  1  0  0  0  0
 44 69  1  0  0  0  0
 45 47  1  0  0  0  0
 46 48  1  0  0  0  0
 46 49  1  0  0  0  0
 47 51  1  0  0  0  0
 48 53  1  0  0  0  0
 49 70  1  0  0  0  0
 50 53  1  0  0  0  0
 50 70  1  0  0  0  0
 51 74  1  0  0  0  0
 52 69  1  0  0  0  0
 53 68  1  0  0  0  0
 55 61  1  0  0  0  0
 56 64  1  0  0  0  0
 57 65  1  0  0  0  0
 58 65  1  0  0  0  0
 59 65  1  0  0  0  0
 60 76  1  0  0  0  0
 62 85  1  0  0  0  0
 63 65  1  0  0  0  0
 63 75  1  0  0  0  0
 64 76  1  0  0  0  0
 66 68  1  0  0  0  0
M  CHG  1  76   1
M  ISO  4  41 100  62 101  73 100  85 101
M  END
> <Batch ID>
0059

> <Smiles>
C=CC(NC(=O)c1cccc([100NH:0][100C:0](=O)N2CCCC(n3nc(-c4ccc(Oc5ccc(F)cc5F)cc4)c(C(N)=O)c3N)C2)c1C)C(=O)[101CH2:1][101O:1]c1ccc2c(c1)CN(C(=O)C(NC(=O)C(C)NC)C(C)(C)C)C(C(=O)NC1CCCc3ccccc31)C2

> <Shape>
0.146

> <Color>
0.180

> <Negative vol penalty>
0.000

$$$$

  -OEChem-04042323013D

 81 89  0     1  0  0  0  0  0999 V2000
  -28.2624  -22.7042   18.7781 C   0  0  0  0  0  0  0  0  0  0  0  0
  -27.1620  -22.9740   19.5854 C   0  0  0  0  0  0  0  0  0  0  0  0
  -28.2191  -14.5013   21.0845 C   0  0  0  0  0  0  0  0  0  0  0  0
  -26.1166  -15.4165   20.3238 C   0  0  0  0  0  0  0  0  0  0  0  0
  -21.8332  -22.8017   23.6264 C   0  0  0  0  0  0  0  0  0  0  0  0
  -22.4695  -23.3615   25.8889 C   0  0  0  0  0  0  0  0  0  0  0  0
  -29.4211  -23.4697   18.9023 C   0  0  0  0  0  0  0  0  0  0  0  0
  -27.2201  -24.0088   20.5183 C   0  0  0  0  0  0  0  0  0  0  0  0
  -23.0446  -26.8742   20.5033 C   0  0  0  0  0  0  0  0  0  0  0  0
  -23.1245  -22.3364   23.3784 C   0  0  0  0  0  0  0  0  0  0  0  0
  -23.7608  -22.8961   25.6409 C   0  0  0  0  0  0  0  0  0  0  0  0
  -27.6996  -13.2120   20.9696 C   0  0  0  0  0  0  0  0  0  0  0  0
  -25.5970  -14.1271   20.2088 C   0  0  0  0  0  0  0  0  0  0  0  0
  -21.9199  -26.3639   21.1502 C   0  0  0  0  0  0  0  0  0  0  0  0
  -24.3357  -11.7569   22.2637 C   0  0  0  0  0  0  0  0  0  0  0  0
  -23.0535  -11.5281   22.7627 C   0  0  0  0  0  0  0  0  0  0  0  0
  -22.4091  -27.7378   23.0717 C   0  0  0  0  0  0  0  0  0  0  0  0
  -22.3147  -10.8650   20.5600 C   0  0  0  0  0  0  0  0  0  0  0  0
  -27.4276  -15.6036   20.7617 C   0  0  0  0  0  0  0  0  0  0  0  0
  -21.5057  -23.3144   24.8817 C   0  0  0  0  0  0  0  0  0  0  0  0
  -28.6418  -17.6709   19.8901 C   0  0  0  0  0  0  0  0  0  0  0  0
  -29.4900  -24.5207   19.8304 C   0  0  0  0  0  0  0  0  0  0  0  0
  -23.8675  -27.8136   21.1411 C   0  0  0  0  0  0  0  0  0  0  0  0
  -28.3812  -24.7882   20.6559 C   0  0  0  0  0  0  0  0  0  0  0  0
  -23.5422  -28.2604   22.4298 C   0  0  0  0  0  0  0  0  0  0  0  0
  -24.0884  -22.3836   24.3856 C   0  0  0  0  0  0  0  0  0  0  0  0
  -26.3885  -13.0248   20.5317 C   0  0  0  0  0  0  0  0  0  0  0  0
  -21.6036  -26.7935   22.4356 C   0  0  0  0  0  0  0  0  0  0  0  0
  -24.6075  -11.5399   20.9129 C   0  0  0  0  0  0  0  0  0  0  0  0
  -22.0429  -11.0821   21.9109 C   0  0  0  0  0  0  0  0  0  0  0  0
  -23.5970  -11.0939   20.0611 C   0  0  0  0  0  0  0  0  0  0  0  0
  -27.9636  -16.9357   20.8808 C   0  0  0  0  0  0  0  0  0  0  0  0
  -28.9423  -18.8667   20.4954 C   0  0  0  0  0  0  0  0  0  0  0  0
  -20.1479  -23.8030   25.1437 C   0  0  0  0  0  0  0  0  0  0  0  0
  -28.9706  -17.3056   18.5432 C   0  0  0  0  0  0  0  0  0  0  0  0
  -19.7091  -25.0634   24.9598 C   0  0  0  0  0  0  0  0  0  0  0  0
  -26.9099  -27.8732   22.0598 C   0  0  0  0  0  0  0  0  0  0  0  0
  -26.2271  -30.9621   22.7773 C   0  0  0  0  0  0  0  0  0  0  0  0
  -23.8694  -33.3005   23.5648 C   0  0  0  0  0  0  0  0  0  0  0  0
  -26.4736  -21.8841   25.0237 C   0  0  0  0  0  0  0  0  0  0  0  0
  -30.7805  -25.2901   19.9613 C   0  0  0  0  0  0  0  0  0  0  0  0
  -25.0622  -28.3743   20.4195 C   0  0  0  0  0  0  0  0  0  0  0  0
  -24.3818  -29.2824   23.1502 C   0  0  0  0  0  0  0  0  0  0  0  0
  -30.6292  -26.6098   20.7136 C   0  0  0  0  0  0  0  0  0  0  0  0
  -29.8455  -20.7626   24.7993 C   0  0  0  0  0  0  0  0  0  0  0  0
  -29.8134  -26.4081   21.9866 C   0  0  0  0  0  0  0  0  0  0  0  0
  -29.8084  -19.7253   23.6747 C   0  0  0  0  0  0  0  0  0  0  0  0
  -28.5781  -20.7210   25.6512 C   0  0  0  0  0  0  0  0  0  0  0  0
  -27.2839  -19.7867   23.7747 C   0  0  0  0  0  0  0  0  0  0  0  0
  -28.3969  -25.9183   21.6623 C   0  0  1  0  0  0  0  0  0  0  0  0
  -26.1176  -28.9429   21.3630 C   0  0  1  0  0  0  0  0  0  0  0  0
  -28.5111  -19.8345   22.8498 C   0  0  2  0  0  0  0  0  0  0  0  0
  -18.2752  -25.4134   25.2632 C   0  0  0  0  0  0  0  0  0  0  0  0
  -23.6192  -35.7322   24.1320 C   0  0  0  0  0  0  0  0  0  0  0  0
  -27.2913  -30.4145   25.5840 C   0  0  0  0  0  0  0  0  0  0  0  0
  -26.1630  -32.5155   26.3463 C   0  0  0  0  0  0  0  0  0  0  0  0
  -27.9655  -32.6238   24.6253 C   0  0  0  0  0  0  0  0  0  0  0  0
  -22.1502  -33.7929   21.2067 C   0  0  0  0  0  0  0  0  0  0  0  0
  -20.5604  -26.2156   24.4932 C   0  0  0  0  0  0  0  0  0  1  0  0
  -25.7038  -31.6865   23.9941 C   0  0  1  0  0  0  0  0  0  0  0  0
  -23.6117  -34.6940   23.0207 C   0  0  2  0  0  0  0  0  0  0  0  0
  -26.7660  -31.7894   25.1249 C   0  0  0  0  0  0  0  0  0  0  0  0
  -27.8406  -17.6081   22.0283 N   0  0  0  0  0  0  0  0  0  0  0  0
  -28.4456  -18.7783   21.7625 N   0  0  0  0  0  0  0  0  0  0  0  0
  -25.5431  -29.7961   22.4052 N   0  0  0  0  0  0  0  0  0  0  0  0
  -27.3897  -20.8339   24.8028 N   0  0  0  0  0  0  0  0  0  0  0  0
  -29.5805  -19.9745   20.0620 N   0  0  0  0  0  0  0  0  0  0  0  0
  -28.5870  -16.0390   18.0819 N   0  0  0  0  0  0  0  0  0  0  0  0
  -25.3997  -21.9090   24.1346 N   0  0  0  0  0  0  0  0  0  0  0  0
  -27.5750  -27.0173   21.2028 N   0  0  0  0  0  0  0  0  0  0  0  0
  -25.2084  -32.9745   23.5207 N   0  0  0  0  0  0  0  0  0  0  0  0
  -22.2885  -34.7468   22.3372 N   0  3  0  0  0  0  0  0  0  0  0  0
  -29.6007  -18.0732   17.7769 O   0  0  0  0  0  0  0  0  0  0  0  0
  -26.9185  -27.8287   23.2844 O   0  0  0  0  0  0  0  0  0  0  0  0
  -27.2022  -31.4180   22.1749 O   0  0  0  0  0  0  0  0  0  0  0  0
  -22.9730  -32.5752   23.9902 O   0  0  0  0  0  0  0  0  0  0  0  0
  -26.6447  -22.7171   25.9175 O   0  0  0  0  0  0  0  0  0  0  0  0
  -25.8812  -11.7668   20.4192 O   0  0  0  0  0  0  0  0  0  0  0  0
  -20.5067  -26.2966   23.0695 O   0  0  0  0  0  0  0  0  0  1  0  0
  -20.8120  -10.8609   22.3905 F   0  0  0  0  0  0  0  0  0  0  0  0
  -23.8523  -10.8825   18.7626 F   0  0  0  0  0  0  0  0  0  0  0  0
  1  2  1  0  0  0  0
  1  7  2  0  0  0  0
  2  8  2  0  0  0  0
  3 12  2  0  0  0  0
  3 19  1  0  0  0  0
  4 13  1  0  0  0  0
  4 19  2  0  0  0  0
  5 10  2  0  0  0  0
  5 20  1  0  0  0  0
  6 11  1  0  0  0  0
  6 20  2  0  0  0  0
  7 22  1  0  0  0  0
  8 24  1  0  0  0  0
  9 14  2  0  0  0  0
  9 23  1  0  0  0  0
 10 26  1  0  0  0  0
 11 26  2  0  0  0  0
 12 27  1  0  0  0  0
 13 27  2  0  0  0  0
 14 28  1  0  0  0  0
 15 16  2  0  0  0  0
 15 29  1  0  0  0  0
 16 30  1  0  0  0  0
 17 25  1  0  0  0  0
 17 28  2  0  0  0  0
 18 30  2  0  0  0  0
 18 31  1  0  0  0  0
 19 32  1  0  0  0  0
 20 34  1  0  0  0  0
 21 32  1  0  0  0  0
 21 33  2  0  0  0  0
 21 35  1  0  0  0  0
 22 24  2  0  0  0  0
 22 41  1  0  0  0  0
 23 25  2  0  0  0  0
 23 42  1  0  0  0  0
 24 50  1  0  0  0  0
 25 43  1  0  0  0  0
 26 69  1  0  0  0  0
 27 78  1  0  0  0  0
 28 79  1  0  0  0  0
 29 31  2  0  0  0  0
 29 78  1  0  0  0  0
 30 80  1  0  0  0  0
 31 81  1  0  0  0  0
 32 63  2  0  0  0  0
 33 64  1  0  0  0  0
 33 67  1  0  0  0  0
 34 36  2  0  0  0  0
 35 68  1  0  0  0  0
 35 73  2  0  0  0  0
 36 53  1  0  0  0  0
 36 59  1  0  0  0  0
 37 51  1  0  0  0  0
 37 70  1  0  0  0  0
 37 74  2  0  0  0  0
 38 60  1  0  0  0  0
 38 65  1  0  0  0  0
 38 75  2  0  0  0  0
 39 61  1  0  0  0  0
 39 71  1  0  0  0  0
 39 76  2  0  0  0  0
 40 66  1  0  0  0  0
 40 69  1  0  0  0  0
 40 77  2  0  0  0  0
 41 44  1  0  0  0  0
 42 51  1  0  0  0  0
 43 65  1  0  0  0  0
 44 46  1  0  0  0  0
 45 47  1  0  0  0  0
 45 48  1  0  0  0  0
 46 50  1  0  0  0  0
 47 52  1  0  0  0  0
 48 66  1  0  0  0  0
 49 52  1  0  0  0  0
 49 66  1  0  0  0  0
 50 70  1  0  0  0  0
 51 65  1  0  0  0  0
 52 64  1  0  0  0  0
 54 61  1  0  0  0  0
 55 62  1  0  0  0  0
 56 62  1  0  0  0  0
 57 62  1  0  0  0  0
 58 72  1  0  0  0  0
 59 79  1  0  0  0  0
 60 62  1  0  0  0  0
 60 71  1  0  0  0  0
 61 72  1  0  0  0  0
 63 64  1  0  0  0  0
M  CHG  1  72   1
M  ISO  4  40 100  59 101  69 100  79 101
M  END
> <Batch ID>
0059

> <Smiles>
CNC(C)C(=O)NC(C(=O)N1Cc2cc([101O:1][101CH2:1]C(C)=Cc3ccc([100NH:0][100C:0](=O)N4CCCC(n5nc(-c6ccc(Oc7ccc(F)cc7F)cc6)c(C(N)=O)c5N)C4)cc3)ccc2CC1C(=O)NC1CCCc2ccccc21)C(C)(C)C

> <Shape>
0.251

> <Color>
0.065

> <Negative vol penalty>
0.000

$$$$

  -OEChem-04042323013D

 84 92  0     1  0  0  0  0  0999 V2000
  -25.9060  -38.3963   22.2655 C   0  0  0  0  0  0  0  0  0  0  0  0
  -26.5229  -37.4932   21.4058 C   0  0  0  0  0  0  0  0  0  0  0  0
  -22.5762  -12.7242   22.7448 C   0  0  0  0  0  0  0  0  0  0  0  0
  -22.0163  -14.3495   21.0472 C   0  0  0  0  0  0  0  0  0  0  0  0
  -25.3715  -37.9525   23.4744 C   0  0  0  0  0  0  0  0  0  0  0  0
  -26.6067  -36.1458   21.7549 C   0  0  0  0  0  0  0  0  0  0  0  0
  -26.5970  -29.6086   18.8256 C   0  0  0  0  0  0  0  0  0  0  0  0
  -29.5454  -19.8077   19.2504 C   0  0  0  0  0  0  0  0  0  0  0  0
  -21.3543  -12.9608   23.3744 C   0  0  0  0  0  0  0  0  0  0  0  0
  -20.7943  -14.5861   21.6768 C   0  0  0  0  0  0  0  0  0  0  0  0
  -27.3450  -28.4321   18.8147 C   0  0  0  0  0  0  0  0  0  0  0  0
  -18.1201  -12.0701   22.9507 C   0  0  0  0  0  0  0  0  0  0  0  0
  -17.3843  -10.9636   23.3747 C   0  0  0  0  0  0  0  0  0  0  0  0
  -29.5381  -21.1223   18.7843 C   0  0  0  0  0  0  0  0  0  0  0  0
  -26.3161  -27.7658   20.8924 C   0  0  0  0  0  0  0  0  0  0  0  0
  -27.6400  -20.6135   17.3788 C   0  0  0  0  0  0  0  0  0  0  0  0
  -17.4901  -11.7656   25.6513 C   0  0  0  0  0  0  0  0  0  0  0  0
  -22.9073  -13.4186   21.5812 C   0  0  0  0  0  0  0  0  0  0  0  0
  -24.4404  -12.2229   19.9296 C   0  0  0  0  0  0  0  0  0  0  0  0
  -25.4401  -36.5973   23.8341 C   0  0  0  0  0  0  0  0  0  0  0  0
  -25.7094  -29.8780   19.8773 C   0  0  0  0  0  0  0  0  0  0  0  0
  -26.0738  -35.6836   22.9703 C   0  0  0  0  0  0  0  0  0  0  0  0
  -25.5561  -28.9453   20.9130 C   0  0  0  0  0  0  0  0  0  0  0  0
  -27.6473  -19.2989   17.8449 C   0  0  0  0  0  0  0  0  0  0  0  0
  -28.6000  -18.8959   18.7807 C   0  0  0  0  0  0  0  0  0  0  0  0
  -20.4633  -13.8918   22.8404 C   0  0  0  0  0  0  0  0  0  0  0  0
  -27.2067  -27.5118   19.8497 C   0  0  0  0  0  0  0  0  0  0  0  0
  -18.5410  -13.0244   23.8770 C   0  0  0  0  0  0  0  0  0  0  0  0
  -17.0693  -10.8113   24.7249 C   0  0  0  0  0  0  0  0  0  0  0  0
  -18.2260  -12.8721   25.2272 C   0  0  0  0  0  0  0  0  0  0  0  0
  -28.5854  -21.5253   17.8486 C   0  0  0  0  0  0  0  0  0  0  0  0
  -24.1697  -13.1750   20.9307 C   0  0  0  0  0  0  0  0  0  0  0  0
  -25.7744  -12.3901   19.6486 C   0  0  0  0  0  0  0  0  0  0  0  0
  -23.5643  -11.2725   19.3093 C   0  0  0  0  0  0  0  0  0  0  0  0
  -25.4825  -32.1425   22.0964 C   0  0  0  0  0  0  0  0  0  0  0  0
  -22.6843  -30.6496   22.7775 C   0  0  0  0  0  0  0  0  0  0  0  0
  -20.8206  -27.7932   22.6582 C   0  0  0  0  0  0  0  0  0  0  0  0
  -29.5120  -17.0202   20.1936 C   0  0  0  0  0  0  0  0  0  0  0  0
  -24.8900  -36.1728   25.1727 C   0  0  0  0  0  0  0  0  0  0  0  0
  -24.8901  -31.1393   19.8606 C   0  0  0  0  0  0  0  0  0  0  0  0
  -24.6019  -29.1779   22.0548 C   0  0  0  0  0  0  0  0  0  0  0  0
  -24.6881  -34.6649   25.2977 C   0  0  0  0  0  0  0  0  0  0  0  0
  -29.8793  -13.8017   21.6712 C   0  0  0  0  0  0  0  0  0  0  0  0
  -25.9163  -33.9177   24.7876 C   0  0  0  0  0  0  0  0  0  0  0  0
  -28.4829  -13.1867   21.5524 C   0  0  0  0  0  0  0  0  0  0  0  0
  -29.8162  -15.3003   21.9611 C   0  0  0  0  0  0  0  0  0  0  0  0
  -27.5939  -15.4637   20.9105 C   0  0  0  0  0  0  0  0  0  0  0  0
  -26.1623  -34.2099   23.3025 C   0  0  1  0  0  0  0  0  0  0  0  0
  -24.3961  -31.5493   21.2446 C   0  0  1  0  0  0  0  0  0  0  0  0
  -27.6061  -13.9682   20.5544 C   0  0  2  0  0  0  0  0  0  0  0  0
  -26.6234  -18.3434   17.3238 C   0  0  0  0  0  0  0  0  0  0  0  0
  -18.5857  -26.8698   23.3290 C   0  0  0  0  0  0  0  0  0  0  0  0
  -23.6329  -30.4629   25.6715 C   0  0  0  0  0  0  0  0  0  0  0  0
  -21.8570  -28.7435   26.0694 C   0  0  0  0  0  0  0  0  0  0  0  0
  -21.2196  -31.0608   25.4012 C   0  0  0  0  0  0  0  0  0  0  0  0
  -20.0854  -27.2182   19.8497 C   0  0  0  0  0  0  0  0  0  0  0  0
  -27.8935  -23.9589   19.8146 C   0  0  0  0  0  0  0  0  0  0  0  0
  -27.3533  -25.2194   20.4655 C   0  0  0  0  0  0  0  0  0  1  0  0
  -22.2689  -29.5221   23.6914 C   0  0  1  0  0  0  0  0  0  0  0  0
  -19.3871  -27.5431   22.2257 C   0  0  2  0  0  0  0  0  0  0  0  0
  -22.2641  -29.9436   25.1880 C   0  0  0  0  0  0  0  0  0  0  0  0
  -25.2453  -13.8936   21.2633 N   0  0  0  0  0  0  0  0  0  0  0  0
  -26.2049  -13.3928   20.4667 N   0  0  0  0  0  0  0  0  0  0  0  0
  -23.8277  -30.4288   21.9967 N   0  0  0  0  0  0  0  0  0  0  0  0
  -28.9720  -15.9755   20.9731 N   0  0  0  0  0  0  0  0  0  0  0  0
  -26.6094  -11.7757   18.7839 N   0  0  0  0  0  0  0  0  0  0  0  0
  -22.2237  -11.2346   19.7162 N   0  0  0  0  0  0  0  0  0  0  0  0
  -28.6252  -17.5647   19.2653 N   0  0  0  0  0  0  0  0  0  0  0  0
  -25.2468  -33.4492   22.4793 N   0  0  0  0  0  0  0  0  0  0  0  0
  -20.9788  -29.0517   23.1989 N   0  0  0  0  0  0  0  0  0  0  0  0
  -27.5464  -23.9527   18.3749 N   0  0  0  0  0  0  0  0  0  0  0  0
  -19.3550  -26.6674   21.0203 N   0  3  0  0  0  0  0  0  0  0  0  0
  -23.9625  -10.4691   18.4320 O   0  0  0  0  0  0  0  0  0  0  0  0
  -26.4612  -31.4645   22.3861 O   0  0  0  0  0  0  0  0  0  0  0  0
  -22.0147  -31.6853   22.7519 O   0  0  0  0  0  0  0  0  0  0  0  0
  -21.7102  -26.9546   22.5326 O   0  0  0  0  0  0  0  0  0  0  0  0
  -30.6836  -17.3853   20.3200 O   0  0  0  0  0  0  0  0  0  0  0  0
  -29.9187  -23.7235   17.4012 O   0  0  0  0  0  0  0  0  0  0  0  0
  -27.9317  -23.1771   15.9598 O   0  0  0  0  0  0  0  0  0  0  0  0
  -19.2707  -14.1228   23.4543 O   0  0  0  0  0  0  0  0  0  0  0  0
  -27.9361  -26.3630   19.8419 O   0  0  0  0  0  0  0  0  0  1  0  0
  -16.3614   -9.7494   25.1317 F   0  0  0  0  0  0  0  0  0  0  0  0
  -18.6265  -13.7861   26.1216 F   0  0  0  0  0  0  0  0  0  0  0  0
  -28.5768  -23.1916   17.2587 S   0  0  0  0  0  0  0  0  0  0  0  0
  1  2  1  0  0  0  0
  1  5  2  0  0  0  0
  2  6  2  0  0  0  0
  3  9  2  0  0  0  0
  3 18  1  0  0  0  0
  4 10  1  0  0  0  0
  4 18  2  0  0  0  0
  5 20  1  0  0  0  0
  6 22  1  0  0  0  0
  7 11  2  0  0  0  0
  7 21  1  0  0  0  0
  8 14  2  0  0  0  0
  8 25  1  0  0  0  0
  9 26  1  0  0  0  0
 10 26  2  0  0  0  0
 11 27  1  0  0  0  0
 12 13  2  0  0  0  0
 12 28  1  0  0  0  0
 13 29  1  0  0  0  0
 14 31  1  0  0  0  0
 15 23  1  0  0  0  0
 15 27  2  0  0  0  0
 16 24  1  0  0  0  0
 16 31  2  0  0  0  0
 17 29  2  0  0  0  0
 17 30  1  0  0  0  0
 18 32  1  0  0  0  0
 19 32  1  0  0  0  0
 19 33  2  0  0  0  0
 19 34  1  0  0  0  0
 20 22  2  0  0  0  0
 20 39  1  0  0  0  0
 21 23  2  0  0  0  0
 21 40  1  0  0  0  0
 22 48  1  0  0  0  0
 23 41  1  0  0  0  0
 24 25  2  0  0  0  0
 24 51  1  0  0  0  0
 25 68  1  0  0  0  0
 26 80  1  0  0  0  0
 27 81  1  0  0  0  0
 28 30  2  0  0  0  0
 28 80  1  0  0  0  0
 29 82  1  0  0  0  0
 30 83  1  0  0  0  0
 31 84  1  0  0  0  0
 32 62  2  0  0  0  0
 33 63  1  0  0  0  0
 33 66  1  0  0  0  0
 34 67  1  0  0  0  0
 34 73  2  0  0  0  0
 35 49  1  0  0  0  0
 35 69  1  0  0  0  0
 35 74  2  0  0  0  0
 36 59  1  0  0  0  0
 36 64  1  0  0  0  0
 36 75  2  0  0  0  0
 37 60  1  0  0  0  0
 37 70  1  0  0  0  0
 37 76  2  0  0  0  0
 38 65  1  0  0  0  0
 38 68  1  0  0  0  0
 38 77  2  0  0  0  0
 39 42  1  0  0  0  0
 40 49  1  0  0  0  0
 41 64  1  0  0  0  0
 42 44  1  0  0  0  0
 43 45  1  0  0  0  0
 43 46  1  0  0  0  0
 44 48  1  0  0  0  0
 45 50  1  0  0  0  0
 46 65  1  0  0  0  0
 47 50  1  0  0  0  0
 47 65  1  0  0  0  0
 48 69  1  0  0  0  0
 49 64  1  0  0  0  0
 50 63  1  0  0  0  0
 52 60  1  0  0  0  0
 53 61  1  0  0  0  0
 54 61  1  0  0  0  0
 55 61  1  0  0  0  0
 56 72  1  0  0  0  0
 57 58  1  0  0  0  0
 57 71  1  0  0  0  0
 58 81  1  0  0  0  0
 59 61  1  0  0  0  0
 59 70  1  0  0  0  0
 60 72  1  0  0  0  0
 62 63  1  0  0  0  0
 71 84  1  0  0  0  0
 78 84  2  0  0  0  0
 79 84  2  0  0  0  0
M  CHG  1  72   1
M  ISO  4  38 100  58 101  68 100  81 101
M  END
> <Batch ID>
0059

> <Smiles>
CNC(C)C(=O)NC(C(=O)N1Cc2cc([101O:1][101CH2:1]CNS(=O)(=O)c3ccc([100NH:0][100C:0](=O)N4CCCC(n5nc(-c6ccc(Oc7ccc(F)cc7F)cc6)c(C(N)=O)c5N)C4)c(C)c3)ccc2CC1C(=O)NC1CCCc2ccccc21)C(C)(C)C

> <Shape>
0.307

> <Color>
0.085

> <Negative vol penalty>
0.000

$$$$

  -OEChem-04042323013D

 87 96  0     1  0  0  0  0  0999 V2000
  -20.3606  -30.7834   23.3088 C   0  0  0  0  0  0  0  0  0  0  0  0
  -21.6335  -30.2542   23.1216 C   0  0  0  0  0  0  0  0  0  0  0  0
  -25.2455  -13.8241   22.1627 C   0  0  0  0  0  0  0  0  0  0  0  0
  -24.1457  -15.0185   20.3736 C   0  0  0  0  0  0  0  0  0  0  0  0
  -19.2414  -29.9591   23.2006 C   0  0  0  0  0  0  0  0  0  0  0  0
  -21.7880  -28.9000   22.8269 C   0  0  0  0  0  0  0  0  0  0  0  0
  -25.1094  -28.0913   19.0908 C   0  0  0  0  0  0  0  0  0  0  0  0
  -31.2134  -23.4168   18.9276 C   0  0  0  0  0  0  0  0  0  0  0  0
  -30.0243  -22.8230   19.3506 C   0  0  0  0  0  0  0  0  0  0  0  0
  -24.2726  -12.8270   22.0952 C   0  0  0  0  0  0  0  0  0  0  0  0
  -23.1727  -14.0213   20.3060 C   0  0  0  0  0  0  0  0  0  0  0  0
  -26.4632  -28.1678   19.4148 C   0  0  0  0  0  0  0  0  0  0  0  0
  -23.5716  -10.1589   20.1399 C   0  0  0  0  0  0  0  0  0  0  0  0
  -24.0004   -8.8319   20.1677 C   0  0  0  0  0  0  0  0  0  0  0  0
  -26.5660  -25.7603   19.5279 C   0  0  0  0  0  0  0  0  0  0  0  0
  -30.2542  -23.8959   21.5030 C   0  0  0  0  0  0  0  0  0  0  0  0
  -22.7100   -8.4570   22.1756 C   0  0  0  0  0  0  0  0  0  0  0  0
  -25.1821  -14.9199   21.3019 C   0  0  0  0  0  0  0  0  0  0  0  0
  -27.4004  -16.0040   20.6606 C   0  0  0  0  0  0  0  0  0  0  0  0
  -19.3816  -28.5962   22.8949 C   0  0  0  0  0  0  0  0  0  0  0  0
  -24.4700  -26.8470   18.9935 C   0  0  0  0  0  0  0  0  0  0  0  0
  -20.6696  -28.0564   22.7158 C   0  0  0  0  0  0  0  0  0  0  0  0
  -25.2046  -25.6706   19.2000 C   0  0  0  0  0  0  0  0  0  0  0  0
  -31.9231  -24.2501   19.7924 C   0  0  0  0  0  0  0  0  0  0  0  0
  -31.4434  -24.4896   21.0801 C   0  0  0  0  0  0  0  0  0  0  0  0
  -29.5446  -23.0626   20.6383 C   0  0  0  0  0  0  0  0  0  0  0  0
  -23.2362  -12.9255   21.1669 C   0  0  0  0  0  0  0  0  0  0  0  0
  -27.1911  -27.0023   19.6362 C   0  0  0  0  0  0  0  0  0  0  0  0
  -22.7121  -10.6350   21.1300 C   0  0  0  0  0  0  0  0  0  0  0  0
  -23.5696   -7.9809   21.1856 C   0  0  0  0  0  0  0  0  0  0  0  0
  -22.2813   -9.7841   22.1478 C   0  0  0  0  0  0  0  0  0  0  0  0
  -26.1865  -15.9506   21.3715 C   0  0  0  0  0  0  0  0  0  0  0  0
  -27.9908  -17.1723   21.0765 C   0  0  0  0  0  0  0  0  0  0  0  0
  -33.4223  -27.5670   21.7516 C   0  0  0  0  0  0  0  0  0  0  0  0
  -27.9456  -15.0801   19.7093 C   0  0  0  0  0  0  0  0  0  0  0  0
  -22.0722  -25.4312   20.5263 C   0  0  0  0  0  0  0  0  0  0  0  0
  -22.4890  -23.1458   18.2624 C   0  0  0  0  0  0  0  0  0  0  0  0
  -24.5666  -21.6446   16.0091 C   0  0  0  0  0  0  0  0  0  0  0  0
  -27.7212  -22.5948   22.3124 C   0  0  0  0  0  0  0  0  0  0  0  0
  -18.1451  -27.7347   22.8348 C   0  0  0  0  0  0  0  0  0  0  0  0
  -23.0153  -26.7804   18.6169 C   0  0  0  0  0  0  0  0  0  0  0  0
  -24.5699  -24.3094   19.0878 C   0  0  0  0  0  0  0  0  0  0  0  0
  -33.1462  -28.8701   21.0403 C   0  0  0  0  0  0  0  0  0  0  0  0
  -18.3727  -26.3894   22.1502 C   0  0  0  0  0  0  0  0  0  0  0  0
  -32.0758  -28.4916   20.0214 C   0  0  0  0  0  0  0  0  0  0  0  0
  -26.7910  -20.3002   24.8710 C   0  0  0  0  0  0  0  0  0  0  0  0
  -19.6466  -25.7332   22.6728 C   0  0  0  0  0  0  0  0  0  0  0  0
  -26.6506  -18.9684   24.1302 C   0  0  0  0  0  0  0  0  0  0  0  0
  -26.3080  -21.4750   24.0223 C   0  0  0  0  0  0  0  0  0  0  0  0
  -26.7705  -20.2332   21.9455 C   0  0  0  0  0  0  0  0  0  0  0  0
  -20.8766  -26.5977   22.3704 C   0  0  1  0  0  0  0  0  0  0  0  0
  -22.3450  -25.4801   19.0495 C   0  0  1  0  0  0  0  0  0  0  0  0
  -27.3048  -19.0276   22.7359 C   0  0  2  0  0  0  0  0  0  0  0  0
  -31.3120  -27.3519   20.6879 C   0  0  2  0  0  0  0  0  0  0  0  0
  -33.1941  -24.8739   19.3173 C   0  0  0  0  0  0  0  0  0  0  0  0
  -24.6356  -19.7791   14.3321 C   0  0  0  0  0  0  0  0  0  0  0  0
  -22.7239  -21.1186   20.5306 C   0  0  0  0  0  0  0  0  0  0  0  0
  -23.7167  -19.5058   18.8930 C   0  0  0  0  0  0  0  0  0  0  0  0
  -21.3873  -20.3366   18.5669 C   0  0  0  0  0  0  0  0  0  0  0  0
  -25.1104  -23.5135   13.7797 C   0  0  0  0  0  0  0  0  0  0  0  0
  -32.1890  -25.3845   22.0274 C   0  0  0  0  0  0  0  0  0  0  0  0
  -30.1437  -27.8558   21.5286 C   0  0  0  0  0  0  0  0  0  0  0  0
  -28.9471  -28.2306   20.6676 C   0  0  0  0  0  0  0  0  0  1  0  0
  -23.3305  -21.8980   18.1451 C   0  0  1  0  0  0  0  0  0  0  0  0
  -24.3652  -21.2590   14.5548 C   0  0  2  0  0  0  0  0  0  0  0  0
  -22.8014  -20.7403   19.0380 C   0  0  0  0  0  0  0  0  0  0  0  0
  -26.0146  -17.0013   22.1780 N   0  0  0  0  0  0  0  0  0  0  0  0
  -27.1284  -17.7260   21.9764 N   0  0  0  0  0  0  0  0  0  0  0  0
  -32.3390  -26.7259   21.5014 N   0  0  0  0  0  0  0  0  0  0  0  0
  -23.1435  -24.2968   18.7234 N   0  0  0  0  0  0  0  0  0  0  0  0
  -26.9736  -21.4690   22.7178 N   0  0  0  0  0  0  0  0  0  0  0  0
  -29.1583  -17.7698   20.7566 N   0  0  0  0  0  0  0  0  0  0  0  0
  -27.2080  -13.9303   19.3962 N   0  0  0  0  0  0  0  0  0  0  0  0
  -28.3357  -22.4612   21.0677 N   0  0  0  0  0  0  0  0  0  0  0  0
  -21.2655  -26.4557   20.9837 N   0  0  0  0  0  0  0  0  0  0  0  0
  -23.3889  -21.5771   16.7232 N   0  0  0  0  0  0  0  0  0  0  0  0
  -25.2833  -22.0414   13.6796 N   0  3  0  0  0  0  0  0  0  0  0  0
  -34.4087  -27.3460   22.4384 O   0  0  0  0  0  0  0  0  0  0  0  0
  -29.0616  -15.2605   19.1657 O   0  0  0  0  0  0  0  0  0  0  0  0
  -22.5565  -24.5298   21.2006 O   0  0  0  0  0  0  0  0  0  0  0  0
  -21.2966  -23.1027   17.9494 O   0  0  0  0  0  0  0  0  0  0  0  0
  -25.6600  -21.9693   16.4669 O   0  0  0  0  0  0  0  0  0  0  0  0
  -27.8322  -23.5925   23.0294 O   0  0  0  0  0  0  0  0  0  0  0  0
  -22.2867  -11.9525   21.1005 O   0  0  0  0  0  0  0  0  0  0  0  0
  -28.5126  -27.0742   19.9532 O   0  0  0  0  0  0  0  0  0  1  0  0
  -23.9802   -6.7062   21.2113 F   0  0  0  0  0  0  0  0  0  0  0  0
  -21.4546  -10.2355   23.1010 F   0  0  0  0  0  0  0  0  0  0  0  0
  1  2  1  0  0  0  0
  1  5  2  0  0  0  0
  2  6  2  0  0  0  0
  3 10  2  0  0  0  0
  3 18  1  0  0  0  0
  4 11  1  0  0  0  0
  4 18  2  0  0  0  0
  5 20  1  0  0  0  0
  6 22  1  0  0  0  0
  7 12  2  0  0  0  0
  7 21  1  0  0  0  0
  8  9  2  0  0  0  0
  8 24  1  0  0  0  0
  9 26  1  0  0  0  0
 10 27  1  0  0  0  0
 11 27  2  0  0  0  0
 12 28  1  0  0  0  0
 13 14  2  0  0  0  0
 13 29  1  0  0  0  0
 14 30  1  0  0  0  0
 15 23  1  0  0  0  0
 15 28  2  0  0  0  0
 16 25  1  0  0  0  0
 16 26  2  0  0  0  0
 17 30  2  0  0  0  0
 17 31  1  0  0  0  0
 18 32  1  0  0  0  0
 19 32  1  0  0  0  0
 19 33  2  0  0  0  0
 19 35  1  0  0  0  0
 20 22  2  0  0  0  0
 20 40  1  0  0  0  0
 21 23  2  0  0  0  0
 21 41  1  0  0  0  0
 22 51  1  0  0  0  0
 23 42  1  0  0  0  0
 24 25  2  0  0  0  0
 24 55  1  0  0  0  0
 25 61  1  0  0  0  0
 26 74  1  0  0  0  0
 27 84  1  0  0  0  0
 28 85  1  0  0  0  0
 29 31  2  0  0  0  0
 29 84  1  0  0  0  0
 30 86  1  0  0  0  0
 31 87  1  0  0  0  0
 32 67  2  0  0  0  0
 33 68  1  0  0  0  0
 33 72  1  0  0  0  0
 34 43  1  0  0  0  0
 34 69  1  0  0  0  0
 34 78  2  0  0  0  0
 35 73  1  0  0  0  0
 35 79  2  0  0  0  0
 36 52  1  0  0  0  0
 36 75  1  0  0  0  0
 36 80  2  0  0  0  0
 37 64  1  0  0  0  0
 37 70  1  0  0  0  0
 37 81  2  0  0  0  0
 38 65  1  0  0  0  0
 38 76  1  0  0  0  0
 38 82  2  0  0  0  0
 39 71  1  0  0  0  0
 39 74  1  0  0  0  0
 39 83  2  0  0  0  0
 40 44  1  0  0  0  0
 41 52  1  0  0  0  0
 42 70  1  0  0  0  0
 43 45  1  0  0  0  0
 44 47  1  0  0  0  0
 45 54  1  0  0  0  0
 46 48  1  0  0  0  0
 46 49  1  0  0  0  0
 47 51  1  0  0  0  0
 48 53  1  0  0  0  0
 49 71  1  0  0  0  0
 50 53  1  0  0  0  0
 50 71  1  0  0  0  0
 51 75  1  0  0  0  0
 52 70  1  0  0  0  0
 53 68  1  0  0  0  0
 54 62  1  0  0  0  0
 54 69  1  0  0  0  0
 56 65  1  0  0  0  0
 57 66  1  0  0  0  0
 58 66  1  0  0  0  0
 59 66  1  0  0  0  0
 60 77  1  0  0  0  0
 61 69  1  0  0  0  0
 62 63  1  0  0  0  0
 63 85  1  0  0  0  0
 64 66  1  0  0  0  0
 64 76  1  0  0  0  0
 65 77  1  0  0  0  0
 67 68  1  0  0  0  0
M  CHG  1  77   1
M  ISO  4  39 100  63 101  74 100  85 101
M  END
> <Batch ID>
0059

> <Smiles>
CNC(C)C(=O)NC(C(=O)N1Cc2cc([101O:1][101CH2:1]CC3CCC(=O)N3Cc3cc([100NH:0][100C:0](=O)N4CCCC(n5nc(-c6ccc(Oc7ccc(F)cc7F)cc6)c(C(N)=O)c5N)C4)ccc3C)ccc2CC1C(=O)NC1CCCc2ccccc21)C(C)(C)C

> <Shape>
0.221

> <Color>
0.055

> <Negative vol penalty>
0.000

$$$$

  -OEChem-04042323013D

 86 95  0     1  0  0  0  0  0999 V2000
  -29.3340  -30.8040   26.8737 C   0  0  0  0  0  0  0  0  0  0  0  0
  -28.8213  -29.7985   26.0604 C   0  0  0  0  0  0  0  0  0  0  0  0
  -24.7213  -15.4488   23.7107 C   0  0  0  0  0  0  0  0  0  0  0  0
  -24.4655  -16.5310   21.5658 C   0  0  0  0  0  0  0  0  0  0  0  0
  -28.5503  -31.9140   27.1858 C   0  0  0  0  0  0  0  0  0  0  0  0
  -27.5241  -29.9020   25.5595 C   0  0  0  0  0  0  0  0  0  0  0  0
  -27.2350  -28.6944   20.6500 C   0  0  0  0  0  0  0  0  0  0  0  0
  -24.3273  -16.6238   24.3506 C   0  0  0  0  0  0  0  0  0  0  0  0
  -24.0714  -17.7061   22.2057 C   0  0  0  0  0  0  0  0  0  0  0  0
  -27.2441  -27.3383   20.3263 C   0  0  0  0  0  0  0  0  0  0  0  0
  -25.5521  -20.2756   23.8293 C   0  0  0  0  0  0  0  0  0  0  0  0
  -26.1105  -21.4741   23.3850 C   0  0  0  0  0  0  0  0  0  0  0  0
  -24.8455  -27.3884   20.0752 C   0  0  0  0  0  0  0  0  0  0  0  0
  -30.6482  -20.6923   19.6449 C   0  0  0  0  0  0  0  0  0  0  0  0
  -31.4570  -18.4357   19.9459 C   0  0  0  0  0  0  0  0  0  0  0  0
  -29.2162  -18.8166   19.1269 C   0  0  0  0  0  0  0  0  0  0  0  0
  -23.9059  -22.3001   22.8423 C   0  0  0  0  0  0  0  0  0  0  0  0
  -24.7904  -15.4023   22.3182 C   0  0  0  0  0  0  0  0  0  0  0  0
  -24.5715  -12.9302   21.7280 C   0  0  0  0  0  0  0  0  0  0  0  0
  -27.2462  -32.0358   26.6807 C   0  0  0  0  0  0  0  0  0  0  0  0
  -26.0279  -29.4063   20.6995 C   0  0  0  0  0  0  0  0  0  0  0  0
  -26.7217  -31.0141   25.8663 C   0  0  0  0  0  0  0  0  0  0  0  0
  -24.8240  -28.7540   20.3973 C   0  0  0  0  0  0  0  0  0  0  0  0
  -31.6647  -19.8131   20.0183 C   0  0  0  0  0  0  0  0  0  0  0  0
  -29.4239  -20.1940   19.1993 C   0  0  0  0  0  0  0  0  0  0  0  0
  -30.2327  -17.9374   19.5003 C   0  0  0  0  0  0  0  0  0  0  0  0
  -24.0023  -17.7525   23.5981 C   0  0  0  0  0  0  0  0  0  0  0  0
  -26.0489  -26.6844   20.0416 C   0  0  0  0  0  0  0  0  0  0  0  0
  -24.1705  -20.0893   23.7800 C   0  0  0  0  0  0  0  0  0  0  0  0
  -25.2874  -22.4863   22.8915 C   0  0  0  0  0  0  0  0  0  0  0  0
  -23.3475  -21.1016   23.2866 C   0  0  0  0  0  0  0  0  0  0  0  0
  -25.1979  -14.1889   21.6566 C   0  0  0  0  0  0  0  0  0  0  0  0
  -25.3388  -12.1191   20.9281 C   0  0  0  0  0  0  0  0  0  0  0  0
  -27.4327  -20.7465   17.8282 C   0  0  0  0  0  0  0  0  0  0  0  0
  -23.4007  -12.5300   22.4524 C   0  0  0  0  0  0  0  0  0  0  0  0
  -24.4325  -30.9620   22.9663 C   0  0  0  0  0  0  0  0  0  0  0  0
  -22.5039  -31.7930   20.4940 C   0  0  0  0  0  0  0  0  0  0  0  0
  -21.3265  -31.0795   17.3713 C   0  0  0  0  0  0  0  0  0  0  0  0
  -28.8687  -15.8667   19.0092 C   0  0  0  0  0  0  0  0  0  0  0  0
  -26.4201  -33.2315   27.0841 C   0  0  0  0  0  0  0  0  0  0  0  0
  -26.0379  -30.8749   21.0243 C   0  0  0  0  0  0  0  0  0  0  0  0
  -23.5033  -29.4778   20.4167 C   0  0  0  0  0  0  0  0  0  0  0  0
  -26.2001  -21.6239   17.7169 C   0  0  0  0  0  0  0  0  0  0  0  0
  -25.1887  -33.4448   26.2076 C   0  0  0  0  0  0  0  0  0  0  0  0
  -26.4516  -23.0911   17.9870 C   0  0  0  0  0  0  0  0  0  0  0  0
  -29.9809  -12.2224   19.5993 C   0  0  0  0  0  0  0  0  0  0  0  0
  -24.4448  -32.1289   26.0028 C   0  0  0  0  0  0  0  0  0  0  0  0
  -28.6570  -11.9059   20.2836 C   0  0  0  0  0  0  0  0  0  0  0  0
  -30.1773  -13.7327   19.4998 C   0  0  0  0  0  0  0  0  0  0  0  0
  -28.4457  -22.4855   19.3288 C   0  0  0  0  0  0  0  0  0  0  0  0
  -27.8719  -13.6357   18.5468 C   0  0  0  0  0  0  0  0  0  0  0  0
  -25.3278  -31.1021   25.2835 C   0  0  1  0  0  0  0  0  0  0  0  0
  -24.6969  -31.3802   21.5475 C   0  0  1  0  0  0  0  0  0  0  0  0
  -27.1134  -23.2335   19.3477 C   0  0  1  0  0  0  0  0  0  0  0  0
  -27.4641  -12.5014   19.5093 C   0  0  2  0  0  0  0  0  0  0  0  0
  -32.9733  -20.3464   20.4961 C   0  0  0  0  0  0  0  0  0  0  0  0
  -19.7304  -31.9221   15.6277 C   0  0  0  0  0  0  0  0  0  0  0  0
  -20.1588  -30.7251   22.1281 C   0  0  0  0  0  0  0  0  0  0  0  0
  -18.7942  -30.7082   20.0290 C   0  0  0  0  0  0  0  0  0  0  0  0
  -19.6958  -32.8603   20.9111 C   0  0  0  0  0  0  0  0  0  0  0  0
  -23.4986  -31.4500   15.3956 C   0  0  0  0  0  0  0  0  0  0  0  0
  -27.3215  -24.7037   19.7051 C   0  0  0  0  0  0  0  0  0  1  0  0
  -21.2760  -31.1971   19.8488 C   0  0  1  0  0  0  0  0  0  0  0  0
  -21.1643  -31.9441   16.1341 C   0  0  2  0  0  0  0  0  0  0  0  0
  -20.0057  -31.3583   20.7307 C   0  0  0  0  0  0  0  0  0  0  0  0
  -26.2799  -14.1828   20.8735 N   0  0  0  0  0  0  0  0  0  0  0  0
  -26.3394  -12.9103   20.4454 N   0  0  0  0  0  0  0  0  0  0  0  0
  -28.3694  -21.1068   18.8122 N   0  0  0  0  0  0  0  0  0  0  0  0
  -23.5645  -30.9114   20.7461 N   0  0  0  0  0  0  0  0  0  0  0  0
  -28.9763  -14.4542   19.0537 N   0  0  0  0  0  0  0  0  0  0  0  0
  -25.2485  -10.8133   20.5977 N   0  0  0  0  0  0  0  0  0  0  0  0
  -22.1546  -12.6372   21.8200 N   0  0  0  0  0  0  0  0  0  0  0  0
  -30.0210  -16.5374   19.4280 N   0  0  0  0  0  0  0  0  0  0  0  0
  -25.3884  -31.3917   23.8669 N   0  0  0  0  0  0  0  0  0  0  0  0
  -21.1695  -31.8109   18.5296 N   0  0  0  0  0  0  0  0  0  0  0  0
  -22.0556  -31.4590   15.0427 N   0  3  0  0  0  0  0  0  0  0  0  0
  -27.5049  -19.7532   17.0994 O   0  0  0  0  0  0  0  0  0  0  0  0
  -23.4563  -12.1059   23.6316 O   0  0  0  0  0  0  0  0  0  0  0  0
  -23.4344  -30.2998   23.2250 O   0  0  0  0  0  0  0  0  0  0  0  0
  -22.5240  -32.9979   20.7579 O   0  0  0  0  0  0  0  0  0  0  0  0
  -21.5646  -29.8751   17.3157 O   0  0  0  0  0  0  0  0  0  0  0  0
  -27.8389  -16.4262   18.6268 O   0  0  0  0  0  0  0  0  0  0  0  0
  -23.6176  -18.8992   24.2222 O   0  0  0  0  0  0  0  0  0  0  0  0
  -26.0549  -25.3607   19.7260 O   0  0  0  0  0  0  0  0  0  1  0  0
  -25.8237  -23.6378   22.4664 F   0  0  0  0  0  0  0  0  0  0  0  0
  -22.0194  -20.9289   23.2379 F   0  0  0  0  0  0  0  0  0  0  0  0
  1  2  1  0  0  0  0
  1  5  2  0  0  0  0
  2  6  2  0  0  0  0
  3  8  2  0  0  0  0
  3 18  1  0  0  0  0
  4  9  1  0  0  0  0
  4 18  2  0  0  0  0
  5 20  1  0  0  0  0
  6 22  1  0  0  0  0
  7 10  2  0  0  0  0
  7 21  1  0  0  0  0
  8 27  1  0  0  0  0
  9 27  2  0  0  0  0
 10 28  1  0  0  0  0
 11 12  2  0  0  0  0
 11 29  1  0  0  0  0
 12 30  1  0  0  0  0
 13 23  1  0  0  0  0
 13 28  2  0  0  0  0
 14 24  2  0  0  0  0
 14 25  1  0  0  0  0
 15 24  1  0  0  0  0
 15 26  2  0  0  0  0
 16 25  2  0  0  0  0
 16 26  1  0  0  0  0
 17 30  2  0  0  0  0
 17 31  1  0  0  0  0
 18 32  1  0  0  0  0
 19 32  1  0  0  0  0
 19 33  2  0  0  0  0
 19 35  1  0  0  0  0
 20 22  2  0  0  0  0
 20 40  1  0  0  0  0
 21 23  2  0  0  0  0
 21 41  1  0  0  0  0
 22 52  1  0  0  0  0
 23 42  1  0  0  0  0
 24 56  1  0  0  0  0
 25 68  1  0  0  0  0
 26 73  1  0  0  0  0
 27 83  1  0  0  0  0
 28 84  1  0  0  0  0
 29 31  2  0  0  0  0
 29 83  1  0  0  0  0
 30 85  1  0  0  0  0
 31 86  1  0  0  0  0
 32 66  2  0  0  0  0
 33 67  1  0  0  0  0
 33 71  1  0  0  0  0
 34 43  1  0  0  0  0
 34 68  1  0  0  0  0
 34 77  2  0  0  0  0
 35 72  1  0  0  0  0
 35 78  2  0  0  0  0
 36 53  1  0  0  0  0
 36 74  1  0  0  0  0
 36 79  2  0  0  0  0
 37 63  1  0  0  0  0
 37 69  1  0  0  0  0
 37 80  2  0  0  0  0
 38 64  1  0  0  0  0
 38 75  1  0  0  0  0
 38 81  2  0  0  0  0
 39 70  1  0  0  0  0
 39 73  1  0  0  0  0
 39 82  2  0  0  0  0
 40 44  1  0  0  0  0
 41 53  1  0  0  0  0
 42 69  1  0  0  0  0
 43 45  1  0  0  0  0
 44 47  1  0  0  0  0
 45 54  1  0  0  0  0
 46 48  1  0  0  0  0
 46 49  1  0  0  0  0
 47 52  1  0  0  0  0
 48 55  1  0  0  0  0
 49 70  1  0  0  0  0
 50 54  1  0  0  0  0
 50 68  1  0  0  0  0
 51 55  1  0  0  0  0
 51 70  1  0  0  0  0
 52 74  1  0  0  0  0
 53 69  1  0  0  0  0
 54 62  1  0  0  0  0
 55 67  1  0  0  0  0
 57 64  1  0  0  0  0
 58 65  1  0  0  0  0
 59 65  1  0  0  0  0
 60 65  1  0  0  0  0
 61 76  1  0  0  0  0
 62 84  1  0  0  0  0
 63 65  1  0  0  0  0
 63 75  1  0  0  0  0
 64 76  1  0  0  0  0
 66 67  1  0  0  0  0
M  CHG  1  76   1
M  ISO  4  39 100  62 101  73 100  84 101
M  END
> <Batch ID>
0059

> <Smiles>
CNC(C)C(=O)NC(C(=O)N1Cc2cc([101O:1][101CH2:1]C3CCC(=O)N(c4cc(C)cc([100NH:0][100C:0](=O)N5CCCC(n6nc(-c7ccc(Oc8ccc(F)cc8F)cc7)c(C(N)=O)c6N)C5)c4)C3)ccc2CC1C(=O)NC1CCCc2ccccc21)C(C)(C)C

> <Shape>
0.243

> <Color>
0.092

> <Negative vol penalty>
0.000

$$$$

  -OEChem-04042323013D

 88 97  0     1  0  0  0  0  0999 V2000
  -16.8876  -26.9710   22.9797 C   0  0  0  0  0  0  0  0  0  0  0  0
  -18.0529  -26.2279   22.8199 C   0  0  0  0  0  0  0  0  0  0  0  0
  -21.6883  -13.1582   22.8534 C   0  0  0  0  0  0  0  0  0  0  0  0
  -21.6843  -15.0462   21.3459 C   0  0  0  0  0  0  0  0  0  0  0  0
  -16.8632  -28.3152   22.6102 C   0  0  0  0  0  0  0  0  0  0  0  0
  -19.1941  -26.8285   22.2895 C   0  0  0  0  0  0  0  0  0  0  0  0
  -25.0124  -25.6458   23.7913 C   0  0  0  0  0  0  0  0  0  0  0  0
  -20.3887  -13.4725   23.2505 C   0  0  0  0  0  0  0  0  0  0  0  0
  -20.3847  -15.3605   21.7430 C   0  0  0  0  0  0  0  0  0  0  0  0
  -25.9922  -24.8528   23.1956 C   0  0  0  0  0  0  0  0  0  0  0  0
  -17.2528  -13.0796   22.0485 C   0  0  0  0  0  0  0  0  0  0  0  0
  -16.3326  -12.0354   22.1404 C   0  0  0  0  0  0  0  0  0  0  0  0
  -26.8693  -26.7955   22.0661 C   0  0  0  0  0  0  0  0  0  0  0  0
  -27.1494  -18.6945   16.9043 C   0  0  0  0  0  0  0  0  0  0  0  0
  -28.8355  -19.8278   18.2119 C   0  0  0  0  0  0  0  0  0  0  0  0
  -16.0172  -12.5197   24.4862 C   0  0  0  0  0  0  0  0  0  0  0  0
  -22.3361  -13.9450   21.9011 C   0  0  0  0  0  0  0  0  0  0  0  0
  -24.1197  -12.4259   20.8916 C   0  0  0  0  0  0  0  0  0  0  0  0
  -18.0076  -28.9350   22.0841 C   0  0  0  0  0  0  0  0  0  0  0  0
  -24.9468  -27.0200   23.5198 C   0  0  0  0  0  0  0  0  0  0  0  0
  -19.1846  -28.1819   21.9115 C   0  0  0  0  0  0  0  0  0  0  0  0
  -25.8893  -27.6042   22.6616 C   0  0  0  0  0  0  0  0  0  0  0  0
  -27.1106  -19.7725   16.0200 C   0  0  0  0  0  0  0  0  0  0  0  0
  -28.7967  -20.9059   17.3276 C   0  0  0  0  0  0  0  0  0  0  0  0
  -27.9342  -20.8782   16.2316 C   0  0  0  0  0  0  0  0  0  0  0  0
  -28.0119  -18.7222   18.0003 C   0  0  0  0  0  0  0  0  0  0  0  0
  -19.7368  -14.5737   22.6954 C   0  0  0  0  0  0  0  0  0  0  0  0
  -26.9191  -25.4271   22.3306 C   0  0  0  0  0  0  0  0  0  0  0  0
  -17.5553  -13.8438   23.1755 C   0  0  0  0  0  0  0  0  0  0  0  0
  -15.7147  -11.7555   23.3592 C   0  0  0  0  0  0  0  0  0  0  0  0
  -16.9375  -13.5639   24.3944 C   0  0  0  0  0  0  0  0  0  0  0  0
  -23.6789  -13.6211   21.4908 C   0  0  0  0  0  0  0  0  0  0  0  0
  -25.4665  -12.6148   20.6991 C   0  0  0  0  0  0  0  0  0  0  0  0
  -31.2627  -22.2693   19.4680 C   0  0  0  0  0  0  0  0  0  0  0  0
  -23.3781  -11.2502   20.5404 C   0  0  0  0  0  0  0  0  0  0  0  0
  -22.7880  -28.9458   22.2029 C   0  0  0  0  0  0  0  0  0  0  0  0
  -24.8671  -31.2614   23.1179 C   0  0  0  0  0  0  0  0  0  0  0  0
  -28.0676  -32.1263   23.9277 C   0  0  0  0  0  0  0  0  0  0  0  0
  -28.8503  -17.4946   20.0341 C   0  0  0  0  0  0  0  0  0  0  0  0
  -17.9191  -30.3782   21.6550 C   0  0  0  0  0  0  0  0  0  0  0  0
  -23.9003  -27.8664   24.1912 C   0  0  0  0  0  0  0  0  0  0  0  0
  -25.8744  -29.0784   22.3532 C   0  0  0  0  0  0  0  0  0  0  0  0
  -31.4526  -22.4030   20.9663 C   0  0  0  0  0  0  0  0  0  0  0  0
  -19.2807  -31.0371   21.4496 C   0  0  0  0  0  0  0  0  0  0  0  0
  -30.3551  -23.1722   21.6751 C   0  0  0  0  0  0  0  0  0  0  0  0
  -29.2153  -14.9729   22.5211 C   0  0  0  0  0  0  0  0  0  0  0  0
  -20.1956  -30.1291   20.6340 C   0  0  0  0  0  0  0  0  0  0  0  0
  -27.8793  -14.2275   22.4804 C   0  0  0  0  0  0  0  0  0  0  0  0
  -29.0353  -16.4725   22.2915 C   0  0  0  0  0  0  0  0  0  0  0  0
  -28.8044  -22.7122   19.7992 C   0  0  0  0  0  0  0  0  0  0  0  0
  -26.9492  -16.0841   21.0399 C   0  0  0  0  0  0  0  0  0  0  0  0
  -20.4502  -28.8042   21.3628 C   0  0  1  0  0  0  0  0  0  0  0  0
  -23.6096  -29.1631   23.4420 C   0  0  1  0  0  0  0  0  0  0  0  0
  -29.0033  -22.5765   21.3056 C   0  0  2  0  0  0  0  0  0  0  0  0
  -27.0865  -14.5614   21.2015 C   0  0  2  0  0  0  0  0  0  0  0  0
  -26.1778  -19.7185   14.8546 C   0  0  0  0  0  0  0  0  0  0  0  0
  -27.8929  -22.0339   15.2830 C   0  0  0  0  0  0  0  0  0  0  0  0
  -29.4660  -34.1005   24.5946 C   0  0  0  0  0  0  0  0  0  0  0  0
  -24.8347  -32.2558   20.2335 C   0  0  0  0  0  0  0  0  0  0  0  0
  -26.9067  -33.5683   20.7360 C   0  0  0  0  0  0  0  0  0  0  0  0
  -24.7908  -34.0638   21.9608 C   0  0  0  0  0  0  0  0  0  0  0  0
  -28.7949  -30.8845   26.5138 C   0  0  0  0  0  0  0  0  0  0  0  0
  -29.6935  -22.0837   17.5780 C   0  0  0  0  0  0  0  0  0  0  0  0
  -27.8722  -23.2643   22.0663 C   0  0  0  0  0  0  0  0  0  1  0  0
  -26.0580  -31.9399   22.4851 C   0  0  1  0  0  0  0  0  0  0  0  0
  -28.6318  -32.9280   25.0868 C   0  0  2  0  0  0  0  0  0  0  0  0
  -25.6469  -32.9288   21.3579 C   0  0  0  0  0  0  0  0  0  0  0  0
  -24.6656  -14.5038   21.6675 N   0  0  0  0  0  0  0  0  0  0  0  0
  -25.7398  -13.8628   21.1764 N   0  0  0  0  0  0  0  0  0  0  0  0
  -29.9510  -22.2806   18.9984 N   0  0  0  0  0  0  0  0  0  0  0  0
  -24.8279  -29.8627   23.0293 N   0  0  0  0  0  0  0  0  0  0  0  0
  -28.2794  -16.7125   21.0603 N   0  0  0  0  0  0  0  0  0  0  0  0
  -26.4317  -11.8333   20.1699 N   0  0  0  0  0  0  0  0  0  0  0  0
  -22.0026  -11.2232   20.8077 N   0  0  0  0  0  0  0  0  0  0  0  0
  -28.0523  -17.6268   18.8982 N   0  0  0  0  0  0  0  0  0  0  0  0
  -21.4236  -28.9868   22.4181 N   0  0  0  0  0  0  0  0  0  0  0  0
  -26.8051  -32.5552   23.5767 N   0  0  0  0  0  0  0  0  0  0  0  0
  -29.4937  -32.0646   25.9428 N   0  3  0  0  0  0  0  0  0  0  0  0
  -32.2517  -22.0792   18.7548 O   0  0  0  0  0  0  0  0  0  0  0  0
  -23.9223  -10.2467   20.0204 O   0  0  0  0  0  0  0  0  0  0  0  0
  -23.3503  -28.7566   21.1306 O   0  0  0  0  0  0  0  0  0  0  0  0
  -24.0071  -31.9468   23.6768 O   0  0  0  0  0  0  0  0  0  0  0  0
  -28.6867  -31.2136   23.3852 O   0  0  0  0  0  0  0  0  0  0  0  0
  -29.9764  -17.9865   20.1432 O   0  0  0  0  0  0  0  0  0  0  0  0
  -18.4686  -14.8806   23.0825 O   0  0  0  0  0  0  0  0  0  0  0  0
  -27.8761  -24.6552   21.7474 O   0  0  0  0  0  0  0  0  0  1  0  0
  -14.8299  -10.7537   23.4469 F   0  0  0  0  0  0  0  0  0  0  0  0
  -17.2232  -14.2954   25.4802 F   0  0  0  0  0  0  0  0  0  0  0  0
  1  2  1  0  0  0  0
  1  5  2  0  0  0  0
  2  6  2  0  0  0  0
  3  8  2  0  0  0  0
  3 17  1  0  0  0  0
  4  9  1  0  0  0  0
  4 17  2  0  0  0  0
  5 19  1  0  0  0  0
  6 21  1  0  0  0  0
  7 10  2  0  0  0  0
  7 20  1  0  0  0  0
  8 27  1  0  0  0  0
  9 27  2  0  0  0  0
 10 28  1  0  0  0  0
 11 12  2  0  0  0  0
 11 29  1  0  0  0  0
 12 30  1  0  0  0  0
 13 22  1  0  0  0  0
 13 28  2  0  0  0  0
 14 23  2  0  0  0  0
 14 26  1  0  0  0  0
 15 24  1  0  0  0  0
 15 26  2  0  0  0  0
 16 30  2  0  0  0  0
 16 31  1  0  0  0  0
 17 32  1  0  0  0  0
 18 32  1  0  0  0  0
 18 33  2  0  0  0  0
 18 35  1  0  0  0  0
 19 21  2  0  0  0  0
 19 40  1  0  0  0  0
 20 22  2  0  0  0  0
 20 41  1  0  0  0  0
 21 52  1  0  0  0  0
 22 42  1  0  0  0  0
 23 25  1  0  0  0  0
 23 56  1  0  0  0  0
 24 25  2  0  0  0  0
 24 63  1  0  0  0  0
 25 57  1  0  0  0  0
 26 75  1  0  0  0  0
 27 85  1  0  0  0  0
 28 86  1  0  0  0  0
 29 31  2  0  0  0  0
 29 85  1  0  0  0  0
 30 87  1  0  0  0  0
 31 88  1  0  0  0  0
 32 68  2  0  0  0  0
 33 69  1  0  0  0  0
 33 73  1  0  0  0  0
 34 43  1  0  0  0  0
 34 70  1  0  0  0  0
 34 79  2  0  0  0  0
 35 74  1  0  0  0  0
 35 80  2  0  0  0  0
 36 53  1  0  0  0  0
 36 76  1  0  0  0  0
 36 81  2  0  0  0  0
 37 65  1  0  0  0  0
 37 71  1  0  0  0  0
 37 82  2  0  0  0  0
 38 66  1  0  0  0  0
 38 77  1  0  0  0  0
 38 83  2  0  0  0  0
 39 72  1  0  0  0  0
 39 75  1  0  0  0  0
 39 84  2  0  0  0  0
 40 44  1  0  0  0  0
 41 53  1  0  0  0  0
 42 71  1  0  0  0  0
 43 45  1  0  0  0  0
 44 47  1  0  0  0  0
 45 54  1  0  0  0  0
 46 48  1  0  0  0  0
 46 49  1  0  0  0  0
 47 52  1  0  0  0  0
 48 55  1  0  0  0  0
 49 72  1  0  0  0  0
 50 54  1  0  0  0  0
 50 70  1  0  0  0  0
 51 55  1  0  0  0  0
 51 72  1  0  0  0  0
 52 76  1  0  0  0  0
 53 71  1  0  0  0  0
 54 64  1  0  0  0  0
 55 69  1  0  0  0  0
 58 66  1  0  0  0  0
 59 67  1  0  0  0  0
 60 67  1  0  0  0  0
 61 67  1  0  0  0  0
 62 78  1  0  0  0  0
 63 70  1  0  0  0  0
 64 86  1  0  0  0  0
 65 67  1  0  0  0  0
 65 77  1  0  0  0  0
 66 78  1  0  0  0  0
 68 69  1  0  0  0  0
M  CHG  1  78   1
M  ISO  4  39 100  64 101  75 100  86 101
M  END
> <Batch ID>
0059

> <Smiles>
CNC(C)C(=O)NC(C(=O)N1Cc2cc([101O:1][101CH2:1]C3CCC(=O)N(Cc4cc([100NH:0][100C:0](=O)N5CCCC(n6nc(-c7ccc(Oc8ccc(F)cc8F)cc7)c(C(N)=O)c6N)C5)cc(C)c4C)C3)ccc2CC1C(=O)NC1CCCc2ccccc21)C(C)(C)C

> <Shape>
0.239

> <Color>
0.071

> <Negative vol penalty>
0.000

$$$$

  -OEChem-04042323013D

 83 91  0     1  0  0  0  0  0999 V2000
  -20.7070  -33.9165   15.3762 C   0  0  0  0  0  0  0  0  0  0  0  0
  -21.5300  -32.7999   15.4822 C   0  0  0  0  0  0  0  0  0  0  0  0
  -32.2564  -18.5006   21.1899 C   0  0  0  0  0  0  0  0  0  0  0  0
  -22.9327  -11.5986   21.5332 C   0  0  0  0  0  0  0  0  0  0  0  0
  -22.9220  -13.9949   21.2250 C   0  0  0  0  0  0  0  0  0  0  0  0
  -20.9190  -35.0184   16.2037 C   0  0  0  0  0  0  0  0  0  0  0  0
  -22.5662  -32.7849   16.4151 C   0  0  0  0  0  0  0  0  0  0  0  0
  -24.6134  -27.9492   19.5664 C   0  0  0  0  0  0  0  0  0  0  0  0
  -31.4568  -19.6085   20.9094 C   0  0  0  0  0  0  0  0  0  0  0  0
  -31.8228  -17.2214   20.8414 C   0  0  0  0  0  0  0  0  0  0  0  0
  -21.9161  -11.7160   22.4810 C   0  0  0  0  0  0  0  0  0  0  0  0
  -21.9053  -14.1122   22.1727 C   0  0  0  0  0  0  0  0  0  0  0  0
  -25.6987  -27.0954   19.3741 C   0  0  0  0  0  0  0  0  0  0  0  0
  -18.5582  -13.6644   22.3011 C   0  0  0  0  0  0  0  0  0  0  0  0
  -17.4842  -14.5009   21.9971 C   0  0  0  0  0  0  0  0  0  0  0  0
  -27.0050  -28.4198   20.9098 C   0  0  0  0  0  0  0  0  0  0  0  0
  -29.7899  -18.1581   19.9321 C   0  0  0  0  0  0  0  0  0  0  0  0
  -17.9817  -15.8461   23.9414 C   0  0  0  0  0  0  0  0  0  0  0  0
  -23.4357  -12.7381   20.9052 C   0  0  0  0  0  0  0  0  0  0  0  0
  -24.3382  -12.4385   18.5380 C   0  0  0  0  0  0  0  0  0  0  0  0
  -21.9523  -35.0131   17.1539 C   0  0  0  0  0  0  0  0  0  0  0  0
  -24.7194  -29.0528   20.4249 C   0  0  0  0  0  0  0  0  0  0  0  0
  -22.7931  -33.8883   17.2552 C   0  0  0  0  0  0  0  0  0  0  0  0
  -25.9188  -29.2846   21.1133 C   0  0  0  0  0  0  0  0  0  0  0  0
  -30.2236  -19.4373   20.2805 C   0  0  0  0  0  0  0  0  0  0  0  0
  -30.5896  -17.0501   20.2126 C   0  0  0  0  0  0  0  0  0  0  0  0
  -21.4024  -12.9727   22.8007 C   0  0  0  0  0  0  0  0  0  0  0  0
  -26.8956  -27.3323   20.0436 C   0  0  0  0  0  0  0  0  0  0  0  0
  -19.3439  -13.9186   23.4253 C   0  0  0  0  0  0  0  0  0  0  0  0
  -17.1960  -15.5918   22.8172 C   0  0  0  0  0  0  0  0  0  0  0  0
  -19.0557  -15.0095   24.2454 C   0  0  0  0  0  0  0  0  0  0  0  0
  -24.4863  -12.6176   19.9265 C   0  0  0  0  0  0  0  0  0  0  0  0
  -25.6245  -12.3836   18.0598 C   0  0  0  0  0  0  0  0  0  0  0  0
  -23.1445  -12.3315   17.7510 C   0  0  0  0  0  0  0  0  0  0  0  0
  -24.5009  -32.2035   20.0655 C   0  0  0  0  0  0  0  0  0  0  0  0
  -24.7528  -32.1982   23.2995 C   0  0  0  0  0  0  0  0  0  0  0  0
  -29.6888  -21.8983   20.2713 C   0  0  0  0  0  0  0  0  0  0  0  0
  -25.8009  -30.5901   26.1213 C   0  0  0  0  0  0  0  0  0  0  0  0
  -30.8213  -14.5459   20.0656 C   0  0  0  0  0  0  0  0  0  0  0  0
  -22.1724  -36.2463   17.9938 C   0  0  0  0  0  0  0  0  0  0  0  0
  -23.5311  -29.9490   20.6421 C   0  0  0  0  0  0  0  0  0  0  0  0
  -26.0777  -30.4439   22.0615 C   0  0  0  0  0  0  0  0  0  0  0  0
  -23.0573  -36.0025   19.2136 C   0  0  0  0  0  0  0  0  0  0  0  0
  -30.0581  -11.1378   19.3733 C   0  0  0  0  0  0  0  0  0  0  0  0
  -24.2963  -35.2029   18.8230 C   0  0  0  0  0  0  0  0  0  0  0  0
  -28.5294  -11.1154   19.3042 C   0  0  0  0  0  0  0  0  0  0  0  0
  -30.5634  -12.1035   20.4438 C   0  0  0  0  0  0  0  0  0  0  0  0
  -28.5053  -13.4474   20.2779 C   0  0  0  0  0  0  0  0  0  0  0  0
  -23.9122  -33.8244   18.2719 C   0  0  1  0  0  0  0  0  0  0  0  0
  -23.9139  -31.3378   21.1442 C   0  0  1  0  0  0  0  0  0  0  0  0
  -27.9505  -12.5375   19.1698 C   0  0  2  0  0  0  0  0  0  0  0  0
  -25.9023  -30.8514   28.6150 C   0  0  0  0  0  0  0  0  0  0  0  0
  -27.0700  -34.1602   22.9972 C   0  0  0  0  0  0  0  0  0  0  0  0
  -27.7210  -33.6473   25.3597 C   0  0  0  0  0  0  0  0  0  0  0  0
  -25.5021  -34.6789   24.8753 C   0  0  0  0  0  0  0  0  0  0  0  0
  -24.1313  -28.1857   26.5575 C   0  0  0  0  0  0  0  0  0  0  0  0
  -28.5472  -22.7873   19.7981 C   0  0  0  0  0  0  0  0  0  0  0  0
  -28.7992  -24.2651   20.0766 C   0  0  0  0  0  0  0  0  0  0  0  0
  -27.6675  -25.1371   19.5526 C   0  0  0  0  0  0  0  0  0  1  0  0
  -25.8969  -32.2530   24.2828 C   0  0  1  0  0  0  0  0  0  0  0  0
  -25.1024  -30.3110   27.4399 C   0  0  2  0  0  0  0  0  0  0  0  0
  -26.5454  -33.6640   24.3595 C   0  0  0  0  0  0  0  0  0  0  0  0
  -25.7658  -12.6726   20.3057 N   0  0  0  0  0  0  0  0  0  0  0  0
  -26.4334  -12.5272   19.1485 N   0  0  0  0  0  0  0  0  0  0  0  0
  -24.8892  -31.2953   22.2356 N   0  0  0  0  0  0  0  0  0  0  0  0
  -29.9763  -13.4312   20.2504 N   0  0  0  0  0  0  0  0  0  0  0  0
  -26.1313  -12.2269   16.8184 N   0  0  0  0  0  0  0  0  0  0  0  0
  -21.9058  -12.4089   18.4020 N   0  0  0  0  0  0  0  0  0  0  0  0
  -29.4131  -20.5619   19.9958 N   0  0  0  0  0  0  0  0  0  0  0  0
  -30.1497  -15.7505   19.8588 N   0  0  0  0  0  0  0  0  0  0  0  0
  -23.5640  -32.9271   19.3527 N   0  0  0  0  0  0  0  0  0  0  0  0
  -25.3670  -31.7691   25.5531 N   0  0  0  0  0  0  0  0  0  0  0  0
  -24.9212  -28.8440   27.6297 N   0  3  0  0  0  0  0  0  0  0  0  0
  -23.1756  -12.1555   16.5094 O   0  0  0  0  0  0  0  0  0  0  0  0
  -25.7142  -32.2153   19.8936 O   0  0  0  0  0  0  0  0  0  0  0  0
  -23.7709  -32.9245   23.4731 O   0  0  0  0  0  0  0  0  0  0  0  0
  -30.6885  -22.3562   20.8147 O   0  0  0  0  0  0  0  0  0  0  0  0
  -26.6493  -29.8392   25.6449 O   0  0  0  0  0  0  0  0  0  0  0  0
  -32.0500  -14.4353   20.0618 O   0  0  0  0  0  0  0  0  0  0  0  0
  -20.4102  -13.0876   23.7254 O   0  0  0  0  0  0  0  0  0  0  0  0
  -27.9567  -26.5009   19.8572 O   0  0  0  0  0  0  0  0  0  1  0  0
  -16.1657  -16.3960   22.5243 F   0  0  0  0  0  0  0  0  0  0  0  0
  -19.8076  -15.2595   25.3261 F   0  0  0  0  0  0  0  0  0  0  0  0
  1  2  1  0  0  0  0
  1  6  2  0  0  0  0
  2  7  2  0  0  0  0
  3  9  2  0  0  0  0
  3 10  1  0  0  0  0
  4 11  2  0  0  0  0
  4 19  1  0  0  0  0
  5 12  1  0  0  0  0
  5 19  2  0  0  0  0
  6 21  1  0  0  0  0
  7 23  1  0  0  0  0
  8 13  2  0  0  0  0
  8 22  1  0  0  0  0
  9 25  1  0  0  0  0
 10 26  2  0  0  0  0
 11 27  1  0  0  0  0
 12 27  2  0  0  0  0
 13 28  1  0  0  0  0
 14 15  2  0  0  0  0
 14 29  1  0  0  0  0
 15 30  1  0  0  0  0
 16 24  1  0  0  0  0
 16 28  2  0  0  0  0
 17 25  2  0  0  0  0
 17 26  1  0  0  0  0
 18 30  2  0  0  0  0
 18 31  1  0  0  0  0
 19 32  1  0  0  0  0
 20 32  1  0  0  0  0
 20 33  2  0  0  0  0
 20 34  1  0  0  0  0
 21 23  2  0  0  0  0
 21 40  1  0  0  0  0
 22 24  2  0  0  0  0
 22 41  1  0  0  0  0
 23 49  1  0  0  0  0
 24 42  1  0  0  0  0
 25 69  1  0  0  0  0
 26 70  1  0  0  0  0
 27 80  1  0  0  0  0
 28 81  1  0  0  0  0
 29 31  2  0  0  0  0
 29 80  1  0  0  0  0
 30 82  1  0  0  0  0
 31 83  1  0  0  0  0
 32 63  2  0  0  0  0
 33 64  1  0  0  0  0
 33 67  1  0  0  0  0
 34 68  1  0  0  0  0
 34 74  2  0  0  0  0
 35 50  1  0  0  0  0
 35 71  1  0  0  0  0
 35 75  2  0  0  0  0
 36 60  1  0  0  0  0
 36 65  1  0  0  0  0
 36 76  2  0  0  0  0
 37 57  1  0  0  0  0
 37 69  1  0  0  0  0
 37 77  2  0  0  0  0
 38 61  1  0  0  0  0
 38 72  1  0  0  0  0
 38 78  2  0  0  0  0
 39 66  1  0  0  0  0
 39 70  1  0  0  0  0
 39 79  2  0  0  0  0
 40 43  1  0  0  0  0
 41 50  1  0  0  0  0
 42 65  1  0  0  0  0
 43 45  1  0  0  0  0
 44 46  1  0  0  0  0
 44 47  1  0  0  0  0
 45 49  1  0  0  0  0
 46 51  1  0  0  0  0
 47 66  1  0  0  0  0
 48 51  1  0  0  0  0
 48 66  1  0  0  0  0
 49 71  1  0  0  0  0
 50 65  1  0  0  0  0
 51 64  1  0  0  0  0
 52 61  1  0  0  0  0
 53 62  1  0  0  0  0
 54 62  1  0  0  0  0
 55 62  1  0  0  0  0
 56 73  1  0  0  0  0
 57 58  1  0  0  0  0
 58 59  1  0  0  0  0
 59 81  1  0  0  0  0
 60 62  1  0  0  0  0
 60 72  1  0  0  0  0
 61 73  1  0  0  0  0
 63 64  1  0  0  0  0
M  CHG  1  73   1
M  ISO  4  39 100  59 101  70 100  81 101
M  END
> <Batch ID>
0059

> <Smiles>
CNC(C)C(=O)NC(C(=O)N1Cc2cc([101O:1][101CH2:1]CCC(=O)Nc3cccc([100NH:0][100C:0](=O)N4CCCC(n5nc(-c6ccc(Oc7ccc(F)cc7F)cc6)c(C(N)=O)c5N)C4)c3)ccc2CC1C(=O)NC1CCCc2ccccc21)C(C)(C)C

> <Shape>
0.275

> <Color>
0.101

> <Negative vol penalty>
0.000

$$$$

  -OEChem-04042323013D

 83 91  0     1  0  0  0  0  0999 V2000
  -24.3099   -7.0298   23.6888 C   0  0  0  0  0  0  0  0  0  0  0  0
  -25.4919   -7.7631   23.6623 C   0  0  0  0  0  0  0  0  0  0  0  0
  -24.4935  -31.5225   22.9922 C   0  0  0  0  0  0  0  0  0  0  0  0
  -25.3747  -31.4001   20.7460 C   0  0  0  0  0  0  0  0  0  0  0  0
  -23.2493   -7.3890   22.8581 C   0  0  0  0  0  0  0  0  0  0  0  0
  -25.6143   -8.8555   22.8043 C   0  0  0  0  0  0  0  0  0  0  0  0
  -28.7335  -15.2894   22.3676 C   0  0  0  0  0  0  0  0  0  0  0  0
  -27.5841  -24.3169   17.4133 C   0  0  0  0  0  0  0  0  0  0  0  0
  -25.1655  -32.7286   23.1901 C   0  0  0  0  0  0  0  0  0  0  0  0
  -26.0467  -32.6063   20.9438 C   0  0  0  0  0  0  0  0  0  0  0  0
  -29.5489  -16.0357   21.5179 C   0  0  0  0  0  0  0  0  0  0  0  0
  -24.7424  -35.9803   22.3651 C   0  0  0  0  0  0  0  0  0  0  0  0
  -28.5782  -23.9447   16.5085 C   0  0  0  0  0  0  0  0  0  0  0  0
  -24.0396  -37.0221   22.9703 C   0  0  0  0  0  0  0  0  0  0  0  0
  -27.6224  -16.6117   20.1852 C   0  0  0  0  0  0  0  0  0  0  0  0
  -28.3072  -22.5758   18.9241 C   0  0  0  0  0  0  0  0  0  0  0  0
  -25.6535  -37.0665   24.7677 C   0  0  0  0  0  0  0  0  0  0  0  0
  -24.5982  -30.8581   21.7701 C   0  0  0  0  0  0  0  0  0  0  0  0
  -22.6012  -29.4368   21.0632 C   0  0  0  0  0  0  0  0  0  0  0  0
  -23.3553   -8.4922   21.9965 C   0  0  0  0  0  0  0  0  0  0  0  0
  -27.3558  -15.1896   22.1259 C   0  0  0  0  0  0  0  0  0  0  0  0
  -24.5546   -9.2290   21.9604 C   0  0  0  0  0  0  0  0  0  0  0  0
  -26.7913  -15.8657   21.0349 C   0  0  0  0  0  0  0  0  0  0  0  0
  -27.4486  -23.6325   18.6211 C   0  0  0  0  0  0  0  0  0  0  0  0
  -29.3014  -22.2035   18.0192 C   0  0  0  0  0  0  0  0  0  0  0  0
  -25.9420  -33.2706   22.1659 C   0  0  0  0  0  0  0  0  0  0  0  0
  -28.9938  -16.6946   20.4248 C   0  0  0  0  0  0  0  0  0  0  0  0
  -25.9007  -35.4815   22.9612 C   0  0  0  0  0  0  0  0  0  0  0  0
  -24.4952  -37.5653   24.1716 C   0  0  0  0  0  0  0  0  0  0  0  0
  -29.4368  -22.8880   16.8114 C   0  0  0  0  0  0  0  0  0  0  0  0
  -26.3563  -36.0247   24.1625 C   0  0  0  0  0  0  0  0  0  0  0  0
  -23.9047  -29.6118   21.5653 C   0  0  0  0  0  0  0  0  0  0  0  0
  -22.4133  -28.0763   21.0627 C   0  0  0  0  0  0  0  0  0  0  0  0
  -21.6457  -30.4165   20.6355 C   0  0  0  0  0  0  0  0  0  0  0  0
  -25.3593  -12.8028   21.4776 C   0  0  0  0  0  0  0  0  0  0  0  0
  -23.1107  -15.1233   21.7628 C   0  0  0  0  0  0  0  0  0  0  0  0
  -30.1763  -20.3471   19.4795 C   0  0  0  0  0  0  0  0  0  0  0  0
  -22.3428  -18.4458   21.6281 C   0  0  0  0  0  0  0  0  0  0  0  0
  -26.1684  -23.4367   20.7819 C   0  0  0  0  0  0  0  0  0  0  0  0
  -22.1991   -8.8134   21.0829 C   0  0  0  0  0  0  0  0  0  0  0  0
  -26.4859  -14.4026   23.0673 C   0  0  0  0  0  0  0  0  0  0  0  0
  -25.3149  -15.8070   20.7433 C   0  0  0  0  0  0  0  0  0  0  0  0
  -22.2741  -10.2112   20.4740 C   0  0  0  0  0  0  0  0  0  0  0  0
  -23.7966  -24.1040   23.3523 C   0  0  0  0  0  0  0  0  0  0  0  0
  -23.6753  -10.4850   19.9368 C   0  0  0  0  0  0  0  0  0  0  0  0
  -23.4320  -25.5746   23.1362 C   0  0  0  0  0  0  0  0  0  0  0  0
  -25.2732  -23.8377   23.0651 C   0  0  0  0  0  0  0  0  0  0  0  0
  -25.3778  -25.7656   21.5349 C   0  0  0  0  0  0  0  0  0  0  0  0
  -24.7167  -10.4354   21.0613 C   0  0  1  0  0  0  0  0  0  0  0  0
  -25.1754  -13.9489   22.4317 C   0  0  1  0  0  0  0  0  0  0  0  0
  -23.8861  -26.0699   21.7491 C   0  0  2  0  0  0  0  0  0  0  0  0
  -20.4144  -20.0333   21.8693 C   0  0  0  0  0  0  0  0  0  0  0  0
  -22.0921  -14.3008   19.0067 C   0  0  0  0  0  0  0  0  0  0  0  0
  -20.8426  -16.4676   18.8987 C   0  0  0  0  0  0  0  0  0  0  0  0
  -20.2978  -14.8030   20.6749 C   0  0  0  0  0  0  0  0  0  0  0  0
  -23.6259  -19.8420   23.9004 C   0  0  0  0  0  0  0  0  0  0  0  0
  -31.2821  -19.3003   19.4070 C   0  0  0  0  0  0  0  0  0  0  0  0
  -30.9481  -18.0247   20.1654 C   0  0  0  0  0  0  0  0  0  1  0  0
  -22.4608  -16.1043   20.8171 C   0  0  1  0  0  0  0  0  0  0  0  0
  -21.5669  -19.3397   22.5786 C   0  0  2  0  0  0  0  0  0  0  0  0
  -21.4515  -15.4186   19.8535 C   0  0  0  0  0  0  0  0  0  0  0  0
  -24.5025  -28.4549   21.8623 N   0  0  0  0  0  0  0  0  0  0  0  0
  -23.5704  -27.5399   21.5460 N   0  0  0  0  0  0  0  0  0  0  0  0
  -24.5070  -15.0195   21.6891 N   0  0  0  0  0  0  0  0  0  0  0  0
  -25.6301  -24.3296   21.7326 N   0  0  0  0  0  0  0  0  0  0  0  0
  -21.3727  -27.2983   20.6961 N   0  0  0  0  0  0  0  0  0  0  0  0
  -22.0016  -31.7705   20.7021 N   0  0  0  0  0  0  0  0  0  0  0  0
  -30.1715  -21.1313   18.3290 N   0  0  0  0  0  0  0  0  0  0  0  0
  -26.4385  -24.0107   19.5401 N   0  0  0  0  0  0  0  0  0  0  0  0
  -24.6793  -11.6554   21.8389 N   0  0  0  0  0  0  0  0  0  0  0  0
  -21.8757  -17.1487   21.6509 N   0  0  0  0  0  0  0  0  0  0  0  0
  -22.4612  -20.3837   23.1540 N   0  3  0  0  0  0  0  0  0  0  0  0
  -20.5040  -30.1015   20.2223 O   0  0  0  0  0  0  0  0  0  0  0  0
  -26.0646  -12.9491   20.4862 O   0  0  0  0  0  0  0  0  0  0  0  0
  -22.4060  -14.4782   22.5432 O   0  0  0  0  0  0  0  0  0  0  0  0
  -29.4256  -20.4379   20.4451 O   0  0  0  0  0  0  0  0  0  0  0  0
  -23.2682  -18.8579   20.9320 O   0  0  0  0  0  0  0  0  0  0  0  0
  -26.3491  -22.2442   21.0412 O   0  0  0  0  0  0  0  0  0  0  0  0
  -26.5977  -34.4477   22.3586 O   0  0  0  0  0  0  0  0  0  0  0  0
  -29.7874  -17.4231   19.5934 O   0  0  0  0  0  0  0  0  0  1  0  0
  -23.8211  -38.5668   24.7519 F   0  0  0  0  0  0  0  0  0  0  0  0
  -30.3883  -22.5391   15.9339 F   0  0  0  0  0  0  0  0  0  0  0  0
  -27.4690  -35.5505   24.7392 F   0  0  0  0  0  0  0  0  0  0  0  0
  1  2  1  0  0  0  0
  1  5  2  0  0  0  0
  2  6  2  0  0  0  0
  3  9  2  0  0  0  0
  3 18  1  0  0  0  0
  4 10  1  0  0  0  0
  4 18  2  0  0  0  0
  5 20  1  0  0  0  0
  6 22  1  0  0  0  0
  7 11  2  0  0  0  0
  7 21  1  0  0  0  0
  8 13  2  0  0  0  0
  8 24  1  0  0  0  0
  9 26  1  0  0  0  0
 10 26  2  0  0  0  0
 11 27  1  0  0  0  0
 12 14  2  0  0  0  0
 12 28  1  0  0  0  0
 13 30  1  0  0  0  0
 14 29  1  0  0  0  0
 15 23  1  0  0  0  0
 15 27  2  0  0  0  0
 16 24  2  0  0  0  0
 16 25  1  0  0  0  0
 17 29  2  0  0  0  0
 17 31  1  0  0  0  0
 18 32  1  0  0  0  0
 19 32  1  0  0  0  0
 19 33  2  0  0  0  0
 19 34  1  0  0  0  0
 20 22  2  0  0  0  0
 20 40  1  0  0  0  0
 21 23  2  0  0  0  0
 21 41  1  0  0  0  0
 22 49  1  0  0  0  0
 23 42  1  0  0  0  0
 24 69  1  0  0  0  0
 25 30  2  0  0  0  0
 25 68  1  0  0  0  0
 26 79  1  0  0  0  0
 27 80  1  0  0  0  0
 28 31  2  0  0  0  0
 28 79  1  0  0  0  0
 29 81  1  0  0  0  0
 30 82  1  0  0  0  0
 31 83  1  0  0  0  0
 32 62  2  0  0  0  0
 33 63  1  0  0  0  0
 33 66  1  0  0  0  0
 34 67  1  0  0  0  0
 34 73  2  0  0  0  0
 35 50  1  0  0  0  0
 35 70  1  0  0  0  0
 35 74  2  0  0  0  0
 36 59  1  0  0  0  0
 36 64  1  0  0  0  0
 36 75  2  0  0  0  0
 37 57  1  0  0  0  0
 37 68  1  0  0  0  0
 37 76  2  0  0  0  0
 38 60  1  0  0  0  0
 38 71  1  0  0  0  0
 38 77  2  0  0  0  0
 39 65  1  0  0  0  0
 39 69  1  0  0  0  0
 39 78  2  0  0  0  0
 40 43  1  0  0  0  0
 41 50  1  0  0  0  0
 42 64  1  0  0  0  0
 43 45  1  0  0  0  0
 44 46  1  0  0  0  0
 44 47  1  0  0  0  0
 45 49  1  0  0  0  0
 46 51  1  0  0  0  0
 47 65  1  0  0  0  0
 48 51  1  0  0  0  0
 48 65  1  0  0  0  0
 49 70  1  0  0  0  0
 50 64  1  0  0  0  0
 51 63  1  0  0  0  0
 52 60  1  0  0  0  0
 53 61  1  0  0  0  0
 54 61  1  0  0  0  0
 55 61  1  0  0  0  0
 56 72  1  0  0  0  0
 57 58  1  0  0  0  0
 58 80  1  0  0  0  0
 59 61  1  0  0  0  0
 59 71  1  0  0  0  0
 60 72  1  0  0  0  0
 62 63  1  0  0  0  0
M  CHG  1  72   1
M  ISO  4  39 100  58 101  69 100  80 101
M  END
> <Batch ID>
0059

> <Smiles>
CNC(C)C(=O)NC(C(=O)N1Cc2cc([101O:1][101CH2:1]CC(=O)Nc3cc([100NH:0][100C:0](=O)N4CCCC(n5nc(-c6ccc(Oc7ccc(F)cc7F)cc6)c(C(N)=O)c5N)C4)ccc3F)ccc2CC1C(=O)NC1CCCc2ccccc21)C(C)(C)C

> <Shape>
0.234

> <Color>
0.061

> <Negative vol penalty>
0.000

$$$$

  -OEChem-04042323013D

 86 95  0     1  0  0  0  0  0999 V2000
  -23.5051   -8.1129   22.3926 C   0  0  0  0  0  0  0  0  0  0  0  0
  -24.3635   -9.2072   22.3577 C   0  0  0  0  0  0  0  0  0  0  0  0
  -22.9099  -30.8954   23.6644 C   0  0  0  0  0  0  0  0  0  0  0  0
  -22.6995  -31.8827   21.4694 C   0  0  0  0  0  0  0  0  0  0  0  0
  -22.2285   -8.2119   21.8407 C   0  0  0  0  0  0  0  0  0  0  0  0
  -23.9462  -10.4008   21.7698 C   0  0  0  0  0  0  0  0  0  0  0  0
  -25.4196  -16.0805   23.5234 C   0  0  0  0  0  0  0  0  0  0  0  0
  -21.5204  -30.8455   23.7752 C   0  0  0  0  0  0  0  0  0  0  0  0
  -21.3099  -31.8327   21.5801 C   0  0  0  0  0  0  0  0  0  0  0  0
  -26.3715  -16.9879   23.0605 C   0  0  0  0  0  0  0  0  0  0  0  0
  -19.0000  -28.8946   22.6462 C   0  0  0  0  0  0  0  0  0  0  0  0
  -18.4302  -27.7173   23.1309 C   0  0  0  0  0  0  0  0  0  0  0  0
  -24.6904  -18.0427   21.6893 C   0  0  0  0  0  0  0  0  0  0  0  0
  -31.4254  -22.8653   18.1622 C   0  0  0  0  0  0  0  0  0  0  0  0
  -31.3899  -25.1862   17.4922 C   0  0  0  0  0  0  0  0  0  0  0  0
  -29.8938  -24.4049   19.2209 C   0  0  0  0  0  0  0  0  0  0  0  0
  -17.4578  -28.9452   24.9704 C   0  0  0  0  0  0  0  0  0  0  0  0
  -23.4995  -31.4140   22.5115 C   0  0  0  0  0  0  0  0  0  0  0  0
  -25.8303  -32.1545   23.2372 C   0  0  0  0  0  0  0  0  0  0  0  0
  -21.7919   -9.4103   21.2543 C   0  0  0  0  0  0  0  0  0  0  0  0
  -24.0962  -16.1407   23.0637 C   0  0  0  0  0  0  0  0  0  0  0  0
  -22.6631  -10.5155   21.2083 C   0  0  0  0  0  0  0  0  0  0  0  0
  -23.7230  -17.1366   22.1499 C   0  0  0  0  0  0  0  0  0  0  0  0
  -31.9122  -23.8993   17.3627 C   0  0  0  0  0  0  0  0  0  0  0  0
  -30.4161  -23.1180   19.0913 C   0  0  0  0  0  0  0  0  0  0  0  0
  -30.3807  -25.4390   18.4213 C   0  0  0  0  0  0  0  0  0  0  0  0
  -20.7204  -31.3141   22.7331 C   0  0  0  0  0  0  0  0  0  0  0  0
  -26.0077  -17.9674   22.1411 C   0  0  0  0  0  0  0  0  0  0  0  0
  -18.7987  -30.0972   23.3236 C   0  0  0  0  0  0  0  0  0  0  0  0
  -17.6591  -27.7426   24.2930 C   0  0  0  0  0  0  0  0  0  0  0  0
  -18.0276  -30.1225   24.4857 C   0  0  0  0  0  0  0  0  0  0  0  0
  -24.9348  -31.4664   22.3967 C   0  0  0  0  0  0  0  0  0  0  0  0
  -27.0699  -31.8904   22.7078 C   0  0  0  0  0  0  0  0  0  0  0  0
  -29.4137  -22.3038   21.2094 C   0  0  0  0  0  0  0  0  0  0  0  0
  -25.5653  -32.9602   24.3932 C   0  0  0  0  0  0  0  0  0  0  0  0
  -22.1886  -14.1715   21.4553 C   0  0  0  0  0  0  0  0  0  0  0  0
  -19.9618  -16.4464   22.0785 C   0  0  0  0  0  0  0  0  0  0  0  0
  -19.2799  -19.7076   22.8177 C   0  0  0  0  0  0  0  0  0  0  0  0
  -28.8441  -27.1773   19.4223 C   0  0  0  0  0  0  0  0  0  0  0  0
  -20.4204   -9.4548   20.6286 C   0  0  0  0  0  0  0  0  0  0  0  0
  -23.0752  -15.1713   23.5931 C   0  0  0  0  0  0  0  0  0  0  0  0
  -22.3107  -17.2565   21.6406 C   0  0  0  0  0  0  0  0  0  0  0  0
  -28.6254  -21.1846   21.8660 C   0  0  0  0  0  0  0  0  0  0  0  0
  -19.9198  -10.8714   20.3583 C   0  0  0  0  0  0  0  0  0  0  0  0
  -28.4595  -30.7955   18.2039 C   0  0  0  0  0  0  0  0  0  0  0  0
  -21.0100  -11.7048   19.6922 C   0  0  0  0  0  0  0  0  0  0  0  0
  -28.2387  -31.4923   19.5445 C   0  0  0  0  0  0  0  0  0  0  0  0
  -29.1935  -19.6302   20.0461 C   0  0  0  0  0  0  0  0  0  0  0  0
  -29.1903  -29.4675   18.3568 C   0  0  0  0  0  0  0  0  0  0  0  0
  -30.1325  -20.6668   19.4497 C   0  0  0  0  0  0  0  0  0  0  0  0
  -27.4866  -29.1279   20.1562 C   0  0  0  0  0  0  0  0  0  0  0  0
  -22.2379  -11.8350   20.6015 C   0  0  1  0  0  0  0  0  0  0  0  0
  -21.8747  -15.0029   22.6669 C   0  0  1  0  0  0  0  0  0  0  0  0
  -29.1464  -19.7907   21.5569 C   0  0  2  0  0  0  0  0  0  0  0  0
  -27.8912  -30.5134   20.6835 C   0  0  2  0  0  0  0  0  0  0  0  0
  -32.9906  -23.6282   16.3683 C   0  0  0  0  0  0  0  0  0  0  0  0
  -17.3640  -21.2750   23.2302 C   0  0  0  0  0  0  0  0  0  0  0  0
  -19.3795  -16.5190   19.0842 C   0  0  0  0  0  0  0  0  0  0  0  0
  -18.1989  -18.6984   19.4374 C   0  0  0  0  0  0  0  0  0  0  0  0
  -17.3520  -16.6294   20.5442 C   0  0  0  0  0  0  0  0  0  0  0  0
  -20.2093  -20.3062   25.5630 C   0  0  0  0  0  0  0  0  0  0  0  0
  -28.2621  -18.7227   22.1949 C   0  0  0  0  0  0  0  0  0  1  0  0
  -19.4863  -17.6970   21.3792 C   0  0  1  0  0  0  0  0  0  0  0  0
  -18.3780  -20.3358   23.8648 C   0  0  2  0  0  0  0  0  0  0  0  0
  -18.6313  -17.3828   20.1192 C   0  0  0  0  0  0  0  0  0  0  0  0
  -25.5529  -30.8144   21.4083 N   0  0  0  0  0  0  0  0  0  0  0  0
  -26.8500  -31.0916   21.6244 N   0  0  0  0  0  0  0  0  0  0  0  0
  -29.9112  -22.0446   19.9207 N   0  0  0  0  0  0  0  0  0  0  0  0
  -21.3502  -16.2816   22.1832 N   0  0  0  0  0  0  0  0  0  0  0  0
  -28.5375  -28.5553   19.3070 N   0  0  0  0  0  0  0  0  0  0  0  0
  -28.3155  -32.2659   23.0680 N   0  0  0  0  0  0  0  0  0  0  0  0
  -25.3482  -34.3333   24.2150 N   0  0  0  0  0  0  0  0  0  0  0  0
  -29.8489  -26.7463   18.5521 N   0  0  0  0  0  0  0  0  0  0  0  0
  -21.9973  -12.8153   21.6385 N   0  0  0  0  0  0  0  0  0  0  0  0
  -18.7937  -18.4908   22.3885 N   0  0  0  0  0  0  0  0  0  0  0  0
  -19.1868  -21.1117   24.8470 N   0  3  0  0  0  0  0  0  0  0  0  0
  -29.5155  -23.3742   21.8150 O   0  0  0  0  0  0  0  0  0  0  0  0
  -25.5387  -32.4797   25.5516 O   0  0  0  0  0  0  0  0  0  0  0  0
  -22.5743  -14.7201   20.4296 O   0  0  0  0  0  0  0  0  0  0  0  0
  -19.1318  -15.6489   22.5220 O   0  0  0  0  0  0  0  0  0  0  0  0
  -20.3105  -20.2446   22.4176 O   0  0  0  0  0  0  0  0  0  0  0  0
  -28.2686  -26.4514   20.2358 O   0  0  0  0  0  0  0  0  0  0  0  0
  -19.3644  -31.2653   22.8407 O   0  0  0  0  0  0  0  0  0  0  0  0
  -26.9350  -18.8538   21.6871 O   0  0  0  0  0  0  0  0  0  1  0  0
  -17.1107  -26.6122   24.7575 F   0  0  0  0  0  0  0  0  0  0  0  0
  -17.8297  -31.2751   25.1401 F   0  0  0  0  0  0  0  0  0  0  0  0
  1  2  1  0  0  0  0
  1  5  2  0  0  0  0
  2  6  2  0  0  0  0
  3  8  2  0  0  0  0
  3 18  1  0  0  0  0
  4  9  1  0  0  0  0
  4 18  2  0  0  0  0
  5 20  1  0  0  0  0
  6 22  1  0  0  0  0
  7 10  2  0  0  0  0
  7 21  1  0  0  0  0
  8 27  1  0  0  0  0
  9 27  2  0  0  0  0
 10 28  1  0  0  0  0
 11 12  2  0  0  0  0
 11 29  1  0  0  0  0
 12 30  1  0  0  0  0
 13 23  1  0  0  0  0
 13 28  2  0  0  0  0
 14 24  2  0  0  0  0
 14 25  1  0  0  0  0
 15 24  1  0  0  0  0
 15 26  2  0  0  0  0
 16 25  2  0  0  0  0
 16 26  1  0  0  0  0
 17 30  2  0  0  0  0
 17 31  1  0  0  0  0
 18 32  1  0  0  0  0
 19 32  1  0  0  0  0
 19 33  2  0  0  0  0
 19 35  1  0  0  0  0
 20 22  2  0  0  0  0
 20 40  1  0  0  0  0
 21 23  2  0  0  0  0
 21 41  1  0  0  0  0
 22 52  1  0  0  0  0
 23 42  1  0  0  0  0
 24 56  1  0  0  0  0
 25 68  1  0  0  0  0
 26 73  1  0  0  0  0
 27 83  1  0  0  0  0
 28 84  1  0  0  0  0
 29 31  2  0  0  0  0
 29 83  1  0  0  0  0
 30 85  1  0  0  0  0
 31 86  1  0  0  0  0
 32 66  2  0  0  0  0
 33 67  1  0  0  0  0
 33 71  1  0  0  0  0
 34 43  1  0  0  0  0
 34 68  1  0  0  0  0
 34 77  2  0  0  0  0
 35 72  1  0  0  0  0
 35 78  2  0  0  0  0
 36 53  1  0  0  0  0
 36 74  1  0  0  0  0
 36 79  2  0  0  0  0
 37 63  1  0  0  0  0
 37 69  1  0  0  0  0
 37 80  2  0  0  0  0
 38 64  1  0  0  0  0
 38 75  1  0  0  0  0
 38 81  2  0  0  0  0
 39 70  1  0  0  0  0
 39 73  1  0  0  0  0
 39 82  2  0  0  0  0
 40 44  1  0  0  0  0
 41 53  1  0  0  0  0
 42 69  1  0  0  0  0
 43 54  1  0  0  0  0
 44 46  1  0  0  0  0
 45 47  1  0  0  0  0
 45 49  1  0  0  0  0
 46 52  1  0  0  0  0
 47 55  1  0  0  0  0
 48 50  1  0  0  0  0
 48 54  1  0  0  0  0
 49 70  1  0  0  0  0
 50 68  1  0  0  0  0
 51 55  1  0  0  0  0
 51 70  1  0  0  0  0
 52 74  1  0  0  0  0
 53 69  1  0  0  0  0
 54 62  1  0  0  0  0
 55 67  1  0  0  0  0
 57 64  1  0  0  0  0
 58 65  1  0  0  0  0
 59 65  1  0  0  0  0
 60 65  1  0  0  0  0
 61 76  1  0  0  0  0
 62 84  1  0  0  0  0
 63 65  1  0  0  0  0
 63 75  1  0  0  0  0
 64 76  1  0  0  0  0
 66 67  1  0  0  0  0
M  CHG  1  76   1
M  ISO  4  39 100  62 101  73 100  84 101
M  END
> <Batch ID>
0059

> <Smiles>
CNC(C)C(=O)NC(C(=O)N1Cc2cc([101O:1][101CH2:1]C3CCN(c4cc(C)cc([100NH:0][100C:0](=O)N5CCCC(n6nc(-c7ccc(Oc8ccc(F)cc8F)cc7)c(C(N)=O)c6N)C5)c4)C(=O)C3)ccc2CC1C(=O)NC1CCCc2ccccc21)C(C)(C)C

> <Shape>
0.242

> <Color>
0.092

> <Negative vol penalty>
0.000

$$$$

  -OEChem-04042323013D

 92101  0     1  0  0  0  0  0999 V2000
  -21.6720  -22.3068   18.6275 C   0  0  0  0  0  0  0  0  0  0  0  0
  -22.4428  -21.9172   19.7182 C   0  0  0  0  0  0  0  0  0  0  0  0
  -23.0511   -9.8846   19.9592 C   0  0  0  0  0  0  0  0  0  0  0  0
  -23.8110   -9.9007   22.2526 C   0  0  0  0  0  0  0  0  0  0  0  0
  -22.2723  -22.9475   17.5445 C   0  0  0  0  0  0  0  0  0  0  0  0
  -23.8146  -22.1673   19.7260 C   0  0  0  0  0  0  0  0  0  0  0  0
  -29.1796  -23.7285   24.2088 C   0  0  0  0  0  0  0  0  0  0  0  0
  -22.2901   -8.7450   20.2193 C   0  0  0  0  0  0  0  0  0  0  0  0
  -23.0499   -8.7611   22.5127 C   0  0  0  0  0  0  0  0  0  0  0  0
  -30.4563  -23.2884   24.5552 C   0  0  0  0  0  0  0  0  0  0  0  0
  -19.8101   -8.0171   23.1217 C   0  0  0  0  0  0  0  0  0  0  0  0
  -19.0526   -7.9989   24.2928 C   0  0  0  0  0  0  0  0  0  0  0  0
  -31.3714  -24.4731   22.6636 C   0  0  0  0  0  0  0  0  0  0  0  0
  -30.7112  -19.7859   21.4255 C   0  0  0  0  0  0  0  0  0  0  0  0
  -29.6140  -17.8271   22.3177 C   0  0  0  0  0  0  0  0  0  0  0  0
  -31.2423  -17.5987   20.5475 C   0  0  0  0  0  0  0  0  0  0  0  0
  -20.2648   -6.0497   25.0467 C   0  0  0  0  0  0  0  0  0  0  0  0
  -23.8116  -10.4625   20.9758 C   0  0  0  0  0  0  0  0  0  0  0  0
  -24.1912  -12.9810   20.8334 C   0  0  0  0  0  0  0  0  0  0  0  0
  -23.6505  -23.2142   17.5432 C   0  0  0  0  0  0  0  0  0  0  0  0
  -28.9874  -24.5366   23.0790 C   0  0  0  0  0  0  0  0  0  0  0  0
  -24.4341  -22.8110   18.6413 C   0  0  0  0  0  0  0  0  0  0  0  0
  -30.0915  -24.9242   22.3065 C   0  0  0  0  0  0  0  0  0  0  0  0
  -29.8027  -19.2091   22.3130 C   0  0  0  0  0  0  0  0  0  0  0  0
  -31.4310  -18.9807   20.5428 C   0  0  0  0  0  0  0  0  0  0  0  0
  -30.3338  -17.0218   21.4350 C   0  0  0  0  0  0  0  0  0  0  0  0
  -22.2894   -8.1833   21.4960 C   0  0  0  0  0  0  0  0  0  0  0  0
  -31.5521  -23.6583   23.7810 C   0  0  0  0  0  0  0  0  0  0  0  0
  -20.7949   -7.0515   22.9131 C   0  0  0  0  0  0  0  0  0  0  0  0
  -19.2800   -7.0153   25.2553 C   0  0  0  0  0  0  0  0  0  0  0  0
  -21.0223   -6.0679   23.8756 C   0  0  0  0  0  0  0  0  0  0  0  0
  -24.5984  -11.6393   20.7076 C   0  0  0  0  0  0  0  0  0  0  0  0
  -25.2945  -13.7108   20.4636 C   0  0  0  0  0  0  0  0  0  0  0  0
  -34.6356  -22.3817   20.9401 C   0  0  0  0  0  0  0  0  0  0  0  0
  -34.9161  -22.1606   22.2410 C   0  0  0  0  0  0  0  0  0  0  0  0
  -33.6143  -21.6957   20.0973 C   0  0  0  0  0  0  0  0  0  0  0  0
  -33.9749  -19.8741   22.5366 C   0  0  0  0  0  0  0  0  0  0  0  0
  -35.7189  -24.4018   22.5987 C   0  0  0  0  0  0  0  0  0  0  0  0
  -35.8246  -23.0994   22.8819 C   0  0  0  0  0  0  0  0  0  0  0  0
  -22.9286  -13.5195   21.2474 C   0  0  0  0  0  0  0  0  0  0  0  0
  -27.3847  -24.2337   20.3508 C   0  0  0  0  0  0  0  0  0  0  0  0
  -28.2937  -27.3186   19.9267 C   0  0  0  0  0  0  0  0  0  0  0  0
  -30.4953  -29.8183   20.6687 C   0  0  0  0  0  0  0  0  0  0  0  0
  -30.7757  -14.6760   20.6299 C   0  0  0  0  0  0  0  0  0  0  0  0
  -24.2624  -23.8670   16.3291 C   0  0  0  0  0  0  0  0  0  0  0  0
  -27.6072  -25.0250   22.7341 C   0  0  0  0  0  0  0  0  0  0  0  0
  -29.9413  -25.8071   21.0955 C   0  0  0  0  0  0  0  0  0  0  0  0
  -34.3629  -19.5671   21.1127 C   0  0  0  0  0  0  0  0  0  0  0  0
  -25.6590  -24.4304   16.5792 C   0  0  0  0  0  0  0  0  0  0  0  0
  -29.6254  -12.2581   18.2830 C   0  0  0  0  0  0  0  0  0  0  0  0
  -26.5189  -23.4143   17.3241 C   0  0  0  0  0  0  0  0  0  0  0  0
  -28.1815  -11.9920   18.7150 C   0  0  0  0  0  0  0  0  0  0  0  0
  -30.5437  -12.4839   19.4828 C   0  0  0  0  0  0  0  0  0  0  0  0
  -28.6478  -13.2491   20.8572 C   0  0  0  0  0  0  0  0  0  0  0  0
  -25.9210  -23.0868   18.6976 C   0  0  1  0  0  0  0  0  0  0  0  0
  -27.4627  -25.4212   21.2680 C   0  0  1  0  0  0  0  0  0  0  0  0
  -27.6725  -13.0800   19.6808 C   0  0  2  0  0  0  0  0  0  0  0  0
  -29.0331  -20.0702   23.2566 C   0  0  0  0  0  0  0  0  0  0  0  0
  -31.0021  -32.2184   20.1394 C   0  0  0  0  0  0  0  0  0  0  0  0
  -29.4399  -26.4786   17.2266 C   0  0  0  0  0  0  0  0  0  0  0  0
  -30.7308  -28.6234   17.1858 C   0  0  0  0  0  0  0  0  0  0  0  0
  -28.2369  -28.6710   17.2127 C   0  0  0  0  0  0  0  0  0  0  0  0
  -30.1352  -30.6374   23.4897 C   0  0  0  0  0  0  0  0  0  0  0  0
  -32.4089  -19.6017   19.5877 C   0  0  0  0  0  0  0  0  0  0  0  0
  -34.2435  -21.3405   24.4739 C   0  0  0  0  0  0  0  0  0  0  0  0
  -32.8965  -21.9699   24.7799 C   0  0  0  0  0  0  0  0  0  1  0  0
  -29.4865  -28.0062   19.3076 C   0  0  1  0  0  0  0  0  0  0  0  0
  -30.2776  -31.2644   21.0762 C   0  0  2  0  0  0  0  0  0  0  0  0
  -29.4765  -27.9265   17.7548 C   0  0  0  0  0  0  0  0  0  0  0  0
  -25.8617  -11.5209   20.2904 N   0  0  0  0  0  0  0  0  0  0  0  0
  -26.2578  -12.7975   20.1507 N   0  0  0  0  0  0  0  0  0  0  0  0
  -34.3738  -21.1301   23.0273 N   0  0  0  0  0  0  0  0  0  0  0  0
  -33.4588  -20.3336   20.2821 N   0  0  0  0  0  0  0  0  0  0  0  0
  -28.5709  -26.2537   20.7956 N   0  0  0  0  0  0  0  0  0  0  0  0
  -30.0002  -13.5308   20.3508 N   0  0  0  0  0  0  0  0  0  0  0  0
  -25.5248  -15.0383   20.3788 N   0  0  0  0  0  0  0  0  0  0  0  0
  -21.9031  -12.6286   21.5926 N   0  0  0  0  0  0  0  0  0  0  0  0
  -30.1422  -15.6179   21.4399 N   0  0  0  0  0  0  0  0  0  0  0  0
  -26.2037  -24.1497   19.6383 N   0  0  0  0  0  0  0  0  0  0  0  0
  -29.4936  -29.3659   19.8361 N   0  0  0  0  0  0  0  0  0  0  0  0
  -30.7793  -31.4936   22.4606 N   0  3  0  0  0  0  0  0  0  0  0  0
  -32.9836  -22.3734   19.2852 O   0  0  0  0  0  0  0  0  0  0  0  0
  -33.3857  -19.0171   23.2001 O   0  0  0  0  0  0  0  0  0  0  0  0
  -22.7108  -14.7540   21.2938 O   0  0  0  0  0  0  0  0  0  0  0  0
  -28.3270  -23.4524   20.2926 O   0  0  0  0  0  0  0  0  0  0  0  0
  -27.1580  -27.7164   19.6551 O   0  0  0  0  0  0  0  0  0  0  0  0
  -31.4597  -29.1575   21.0478 O   0  0  0  0  0  0  0  0  0  0  0  0
  -31.9072  -14.8237   20.1610 O   0  0  0  0  0  0  0  0  0  0  0  0
  -21.5467   -7.0714   21.7503 O   0  0  0  0  0  0  0  0  0  0  0  0
  -32.7993  -23.2295   24.1165 O   0  0  0  0  0  0  0  0  0  1  0  0
  -18.5535   -6.9989   26.3806 F   0  0  0  0  0  0  0  0  0  0  0  0
  -21.9679   -5.1384   23.6813 F   0  0  0  0  0  0  0  0  0  0  0  0
  1  2  1  0  0  0  0
  1  5  2  0  0  0  0
  2  6  2  0  0  0  0
  3  8  2  0  0  0  0
  3 18  1  0  0  0  0
  4  9  1  0  0  0  0
  4 18  2  0  0  0  0
  5 20  1  0  0  0  0
  6 22  1  0  0  0  0
  7 10  2  0  0  0  0
  7 21  1  0  0  0  0
  8 27  1  0  0  0  0
  9 27  2  0  0  0  0
 10 28  1  0  0  0  0
 11 12  2  0  0  0  0
 11 29  1  0  0  0  0
 12 30  1  0  0  0  0
 13 23  1  0  0  0  0
 13 28  2  0  0  0  0
 14 24  2  0  0  0  0
 14 25  1  0  0  0  0
 15 24  1  0  0  0  0
 15 26  2  0  0  0  0
 16 25  2  0  0  0  0
 16 26  1  0  0  0  0
 17 30  2  0  0  0  0
 17 31  1  0  0  0  0
 18 32  1  0  0  0  0
 19 32  1  0  0  0  0
 19 33  2  0  0  0  0
 19 40  1  0  0  0  0
 20 22  2  0  0  0  0
 20 45  1  0  0  0  0
 21 23  2  0  0  0  0
 21 46  1  0  0  0  0
 22 55  1  0  0  0  0
 23 47  1  0  0  0  0
 24 58  1  0  0  0  0
 25 64  1  0  0  0  0
 26 78  1  0  0  0  0
 27 89  1  0  0  0  0
 28 90  1  0  0  0  0
 29 31  2  0  0  0  0
 29 89  1  0  0  0  0
 30 91  1  0  0  0  0
 31 92  1  0  0  0  0
 32 70  2  0  0  0  0
 33 71  1  0  0  0  0
 33 76  1  0  0  0  0
 34 35  2  0  0  0  0
 34 36  1  0  0  0  0
 35 39  1  0  0  0  0
 35 72  1  0  0  0  0
 36 73  1  0  0  0  0
 36 82  2  0  0  0  0
 37 48  1  0  0  0  0
 37 72  1  0  0  0  0
 37 83  2  0  0  0  0
 38 39  2  0  0  0  0
 40 77  1  0  0  0  0
 40 84  2  0  0  0  0
 41 56  1  0  0  0  0
 41 79  1  0  0  0  0
 41 85  2  0  0  0  0
 42 67  1  0  0  0  0
 42 74  1  0  0  0  0
 42 86  2  0  0  0  0
 43 68  1  0  0  0  0
 43 80  1  0  0  0  0
 43 87  2  0  0  0  0
 44 75  1  0  0  0  0
 44 78  1  0  0  0  0
 44 88  2  0  0  0  0
 45 49  1  0  0  0  0
 46 56  1  0  0  0  0
 47 74  1  0  0  0  0
 48 73  1  0  0  0  0
 49 51  1  0  0  0  0
 50 52  1  0  0  0  0
 50 53  1  0  0  0  0
 51 55  1  0  0  0  0
 52 57  1  0  0  0  0
 53 75  1  0  0  0  0
 54 57  1  0  0  0  0
 54 75  1  0  0  0  0
 55 79  1  0  0  0  0
 56 74  1  0  0  0  0
 57 71  1  0  0  0  0
 59 68  1  0  0  0  0
 60 69  1  0  0  0  0
 61 69  1  0  0  0  0
 62 69  1  0  0  0  0
 63 81  1  0  0  0  0
 64 73  1  0  0  0  0
 65 66  1  0  0  0  0
 65 72  1  0  0  0  0
 66 90  1  0  0  0  0
 67 69  1  0  0  0  0
 67 80  1  0  0  0  0
 68 81  1  0  0  0  0
 70 71  1  0  0  0  0
M  CHG  1  81   1
M  ISO  4  44 100  66 101  78 100  90 101
M  END
> <Batch ID>
0059

> <Smiles>
C=CC1=CC(=O)N(Cc2cc(C)cc([100NH:0][100C:0](=O)N3CCCC(n4nc(-c5ccc(Oc6ccc(F)cc6F)cc5)c(C(N)=O)c4N)C3)c2)CC(=O)N1C[101CH2:1][101O:1]c1ccc2c(c1)CN(C(=O)C(NC(=O)C(C)NC)C(C)(C)C)C(C(=O)NC1CCCc3ccccc31)C2

> <Shape>
0.213

> <Color>
0.186

> <Negative vol penalty>
0.000

$$$$

  -OEChem-04042323013D

 86 94  0     1  0  0  0  0  0999 V2000
  -21.4929  -29.8794   25.6250 C   0  0  0  0  0  0  0  0  0  0  0  0
  -22.4253  -29.0561   25.0019 C   0  0  0  0  0  0  0  0  0  0  0  0
  -32.2633  -18.4918   23.2368 C   0  0  0  0  0  0  0  0  0  0  0  0
  -23.1470   -9.8928   19.8477 C   0  0  0  0  0  0  0  0  0  0  0  0
  -23.7843   -9.8630   22.1779 C   0  0  0  0  0  0  0  0  0  0  0  0
  -20.1822  -29.9286   25.1524 C   0  0  0  0  0  0  0  0  0  0  0  0
  -22.0471  -28.2807   23.9064 C   0  0  0  0  0  0  0  0  0  0  0  0
  -25.4298  -28.4558   20.1419 C   0  0  0  0  0  0  0  0  0  0  0  0
  -31.4485  -19.4436   22.6239 C   0  0  0  0  0  0  0  0  0  0  0  0
  -31.9818  -17.1336   23.0893 C   0  0  0  0  0  0  0  0  0  0  0  0
  -22.3754   -8.7475   20.0440 C   0  0  0  0  0  0  0  0  0  0  0  0
  -23.0127   -8.7177   22.3743 C   0  0  0  0  0  0  0  0  0  0  0  0
  -26.5806  -27.6816   20.2835 C   0  0  0  0  0  0  0  0  0  0  0  0
  -19.7467   -7.9586   22.7957 C   0  0  0  0  0  0  0  0  0  0  0  0
  -18.9283   -7.9160   23.9243 C   0  0  0  0  0  0  0  0  0  0  0  0
  -25.6191  -26.0002   18.8456 C   0  0  0  0  0  0  0  0  0  0  0  0
  -20.1027   -5.9530   24.7018 C   0  0  0  0  0  0  0  0  0  0  0  0
  -23.8514  -10.4505   20.9146 C   0  0  0  0  0  0  0  0  0  0  0  0
  -24.2331  -12.9718   20.8434 C   0  0  0  0  0  0  0  0  0  0  0  0
  -19.7901  -29.1607   24.0446 C   0  0  0  0  0  0  0  0  0  0  0  0
  -24.3588  -28.0022   19.3586 C   0  0  0  0  0  0  0  0  0  0  0  0
  -20.7295  -28.3187   23.4193 C   0  0  0  0  0  0  0  0  0  0  0  0
  -24.4568  -26.7716   18.6936 C   0  0  0  0  0  0  0  0  0  0  0  0
  -30.0703  -17.6791   21.7161 C   0  0  0  0  0  0  0  0  0  0  0  0
  -30.3519  -19.0373   21.8636 C   0  0  0  0  0  0  0  0  0  0  0  0
  -30.8852  -16.7273   22.3289 C   0  0  0  0  0  0  0  0  0  0  0  0
  -22.3083   -8.1599   21.3073 C   0  0  0  0  0  0  0  0  0  0  0  0
  -26.6743  -26.4523   19.6376 C   0  0  0  0  0  0  0  0  0  0  0  0
  -20.7431   -6.9983   22.6200 C   0  0  0  0  0  0  0  0  0  0  0  0
  -19.1063   -6.9132   24.8775 C   0  0  0  0  0  0  0  0  0  0  0  0
  -20.9211   -5.9956   23.5731 C   0  0  0  0  0  0  0  0  0  0  0  0
  -24.6491  -11.6333   20.7123 C   0  0  0  0  0  0  0  0  0  0  0  0
  -25.3530  -13.7099   20.5474 C   0  0  0  0  0  0  0  0  0  0  0  0
  -29.7706  -14.9553   24.4003 C   0  0  0  0  0  0  0  0  0  0  0  0
  -30.3511  -14.5039   23.2863 C   0  0  0  0  0  0  0  0  0  0  0  0
  -22.9493  -13.5007   21.2008 C   0  0  0  0  0  0  0  0  0  0  0  0
  -21.3165  -27.2750   19.9238 C   0  0  0  0  0  0  0  0  0  0  0  0
  -21.1993  -26.9553   16.6979 C   0  0  0  0  0  0  0  0  0  0  0  0
  -29.6898  -21.4029   21.3086 C   0  0  0  0  0  0  0  0  0  0  0  0
  -22.8723  -26.3672   13.7821 C   0  0  0  0  0  0  0  0  0  0  0  0
  -30.7683  -14.7057   20.9176 C   0  0  0  0  0  0  0  0  0  0  0  0
  -18.3501  -29.2113   23.5992 C   0  0  0  0  0  0  0  0  0  0  0  0
  -23.1352  -28.8614   19.1944 C   0  0  0  0  0  0  0  0  0  0  0  0
  -23.3432  -26.2488   17.8248 C   0  0  0  0  0  0  0  0  0  0  0  0
  -18.1247  -28.6421   22.2008 C   0  0  0  0  0  0  0  0  0  0  0  0
  -29.7835  -12.3330   18.5534 C   0  0  0  0  0  0  0  0  0  0  0  0
  -18.8495  -27.3091   22.0439 C   0  0  0  0  0  0  0  0  0  0  0  0
  -28.3271  -12.0381   18.9112 C   0  0  0  0  0  0  0  0  0  0  0  0
  -30.6342  -12.4895   19.8086 C   0  0  0  0  0  0  0  0  0  0  0  0
  -28.6780  -13.2570   21.1155 C   0  0  0  0  0  0  0  0  0  0  0  0
  -20.3638  -27.4813   22.2130 C   0  0  1  0  0  0  0  0  0  0  0  0
  -21.8978  -28.0674   18.7871 C   0  0  1  0  0  0  0  0  0  0  0  0
  -27.7707  -13.0972   19.8790 C   0  0  2  0  0  0  0  0  0  0  0  0
  -28.8925  -17.2428   20.9005 C   0  0  0  0  0  0  0  0  0  0  0  0
  -22.5014  -26.1296   11.3116 C   0  0  0  0  0  0  0  0  0  0  0  0
  -20.0476  -24.1649   17.1416 C   0  0  0  0  0  0  0  0  0  0  0  0
  -20.5869  -23.6385   14.7540 C   0  0  0  0  0  0  0  0  0  0  0  0
  -18.9673  -25.4575   15.2933 C   0  0  0  0  0  0  0  0  0  0  0  0
  -24.6317  -28.6694   13.1791 C   0  0  0  0  0  0  0  0  0  0  0  0
  -28.5940  -22.0933   20.5085 C   0  0  0  0  0  0  0  0  0  0  0  0
  -28.7142  -23.6130   20.5376 C   0  0  0  0  0  0  0  0  0  0  0  0
  -27.6374  -24.2785   19.6930 C   0  0  0  0  0  0  0  0  0  1  0  0
  -21.4311  -25.8231   15.7266 C   0  0  1  0  0  0  0  0  0  0  0  0
  -22.8471  -27.0839   12.4441 C   0  0  2  0  0  0  0  0  0  0  0  0
  -20.2786  -24.7797   15.7467 C   0  0  0  0  0  0  0  0  0  0  0  0
  -25.9329  -11.5244   20.3603 N   0  0  0  0  0  0  0  0  0  0  0  0
  -26.3333  -12.8039   20.2676 N   0  0  0  0  0  0  0  0  0  0  0  0
  -22.1648  -27.1226   17.7007 N   0  0  0  0  0  0  0  0  0  0  0  0
  -30.0703  -13.5004   20.7039 N   0  0  0  0  0  0  0  0  0  0  0  0
  -25.5849  -15.0390   20.5017 N   0  0  0  0  0  0  0  0  0  0  0  0
  -21.9087  -12.6021   21.4731 N   0  0  0  0  0  0  0  0  0  0  0  0
  -29.5380  -20.0203   21.2521 N   0  0  0  0  0  0  0  0  0  0  0  0
  -20.9461  -28.0414   21.0123 N   0  0  0  0  0  0  0  0  0  0  0  0
  -21.6545  -26.4417   14.4244 N   0  0  0  0  0  0  0  0  0  0  0  0
  -30.6112  -15.3117   22.1912 N   0  0  0  0  0  0  0  0  0  0  0  0
  -24.1771  -27.6918   12.1570 N   0  3  0  0  0  0  0  0  0  0  0  0
  -22.7269  -14.7338   21.2604 O   0  0  0  0  0  0  0  0  0  0  0  0
  -21.2105  -26.0586   19.8203 O   0  0  0  0  0  0  0  0  0  0  0  0
  -20.2021  -27.6696   16.5672 O   0  0  0  0  0  0  0  0  0  0  0  0
  -30.5594  -22.0334   21.9007 O   0  0  0  0  0  0  0  0  0  0  0  0
  -23.8713  -25.7951   14.2125 O   0  0  0  0  0  0  0  0  0  0  0  0
  -31.4971  -15.1992   20.0472 O   0  0  0  0  0  0  0  0  0  0  0  0
  -21.5553   -7.0424   21.4993 O   0  0  0  0  0  0  0  0  0  0  0  0
  -27.7961  -25.6943   19.7746 O   0  0  0  0  0  0  0  0  0  1  0  0
  -18.3213   -6.8734   25.9621 F   0  0  0  0  0  0  0  0  0  0  0  0
  -21.8774   -5.0710   23.4104 F   0  0  0  0  0  0  0  0  0  0  0  0
  1  2  1  0  0  0  0
  1  6  2  0  0  0  0
  2  7  2  0  0  0  0
  3  9  1  0  0  0  0
  3 10  2  0  0  0  0
  4 11  2  0  0  0  0
  4 18  1  0  0  0  0
  5 12  1  0  0  0  0
  5 18  2  0  0  0  0
  6 20  1  0  0  0  0
  7 22  1  0  0  0  0
  8 13  2  0  0  0  0
  8 21  1  0  0  0  0
  9 25  2  0  0  0  0
 10 26  1  0  0  0  0
 11 27  1  0  0  0  0
 12 27  2  0  0  0  0
 13 28  1  0  0  0  0
 14 15  2  0  0  0  0
 14 29  1  0  0  0  0
 15 30  1  0  0  0  0
 16 23  1  0  0  0  0
 16 28  2  0  0  0  0
 17 30  2  0  0  0  0
 17 31  1  0  0  0  0
 18 32  1  0  0  0  0
 19 32  1  0  0  0  0
 19 33  2  0  0  0  0
 19 36  1  0  0  0  0
 20 22  2  0  0  0  0
 20 42  1  0  0  0  0
 21 23  2  0  0  0  0
 21 43  1  0  0  0  0
 22 51  1  0  0  0  0
 23 44  1  0  0  0  0
 24 25  1  0  0  0  0
 24 26  2  0  0  0  0
 24 54  1  0  0  0  0
 25 72  1  0  0  0  0
 26 75  1  0  0  0  0
 27 83  1  0  0  0  0
 28 84  1  0  0  0  0
 29 31  2  0  0  0  0
 29 83  1  0  0  0  0
 30 85  1  0  0  0  0
 31 86  1  0  0  0  0
 32 66  2  0  0  0  0
 33 67  1  0  0  0  0
 33 70  1  0  0  0  0
 34 35  2  0  0  0  0
 35 75  1  0  0  0  0
 36 71  1  0  0  0  0
 36 77  2  0  0  0  0
 37 52  1  0  0  0  0
 37 73  1  0  0  0  0
 37 78  2  0  0  0  0
 38 63  1  0  0  0  0
 38 68  1  0  0  0  0
 38 79  2  0  0  0  0
 39 60  1  0  0  0  0
 39 72  1  0  0  0  0
 39 80  2  0  0  0  0
 40 64  1  0  0  0  0
 40 74  1  0  0  0  0
 40 81  2  0  0  0  0
 41 69  1  0  0  0  0
 41 75  1  0  0  0  0
 41 82  2  0  0  0  0
 42 45  1  0  0  0  0
 43 52  1  0  0  0  0
 44 68  1  0  0  0  0
 45 47  1  0  0  0  0
 46 48  1  0  0  0  0
 46 49  1  0  0  0  0
 47 51  1  0  0  0  0
 48 53  1  0  0  0  0
 49 69  1  0  0  0  0
 50 53  1  0  0  0  0
 50 69  1  0  0  0  0
 51 73  1  0  0  0  0
 52 68  1  0  0  0  0
 53 67  1  0  0  0  0
 55 64  1  0  0  0  0
 56 65  1  0  0  0  0
 57 65  1  0  0  0  0
 58 65  1  0  0  0  0
 59 76  1  0  0  0  0
 60 61  1  0  0  0  0
 61 62  1  0  0  0  0
 62 84  1  0  0  0  0
 63 65  1  0  0  0  0
 63 74  1  0  0  0  0
 64 76  1  0  0  0  0
 66 67  1  0  0  0  0
M  CHG  1  76   1
M  ISO  4  41 100  62 101  75 100  84 101
M  END
> <Batch ID>
0059

> <Smiles>
C=C[100N:0](c1cccc(NC(=O)CC[101CH2:1][101O:1]c2ccc3c(c2)CN(C(=O)C(NC(=O)C(C)NC)C(C)(C)C)C(C(=O)NC2CCCc4ccccc42)C3)c1C)[100C:0](=O)N1CCCC(n2nc(-c3ccc(Oc4ccc(F)cc4F)cc3)c(C(N)=O)c2N)C1

> <Shape>
0.311

> <Color>
0.213

> <Negative vol penalty>
0.000

$$$$

  -OEChem-04042323013D

 87 95  0     1  0  0  0  0  0999 V2000
  -14.1817  -28.0037   22.8545 C   0  0  0  0  0  0  0  0  0  0  0  0
  -14.9167  -27.4352   21.8192 C   0  0  0  0  0  0  0  0  0  0  0  0
  -29.5131  -23.6942   20.5286 C   0  0  0  0  0  0  0  0  0  0  0  0
  -26.7949  -12.4747   21.7214 C   0  0  0  0  0  0  0  0  0  0  0  0
  -26.2193  -13.8899   19.8498 C   0  0  0  0  0  0  0  0  0  0  0  0
  -28.9478  -23.7211   19.2538 C   0  0  0  0  0  0  0  0  0  0  0  0
  -14.8013  -28.8712   23.7531 C   0  0  0  0  0  0  0  0  0  0  0  0
  -16.2716  -27.7347   21.6811 C   0  0  0  0  0  0  0  0  0  0  0  0
  -20.6910  -23.9780   19.7161 C   0  0  0  0  0  0  0  0  0  0  0  0
  -29.9989  -22.4955   21.0510 C   0  0  0  0  0  0  0  0  0  0  0  0
  -25.4860  -11.9944   21.7608 C   0  0  0  0  0  0  0  0  0  0  0  0
  -24.9104  -13.4096   19.8892 C   0  0  0  0  0  0  0  0  0  0  0  0
  -21.3061  -23.8219   18.4747 C   0  0  0  0  0  0  0  0  0  0  0  0
  -23.6028   -9.7540   20.0675 C   0  0  0  0  0  0  0  0  0  0  0  0
  -23.4212   -8.3782   20.2085 C   0  0  0  0  0  0  0  0  0  0  0  0
  -29.3538  -21.3506   19.0237 C   0  0  0  0  0  0  0  0  0  0  0  0
  -23.1019  -25.2652   19.1897 C   0  0  0  0  0  0  0  0  0  0  0  0
  -22.2056   -8.7493   22.2632 C   0  0  0  0  0  0  0  0  0  0  0  0
  -27.1616  -13.4226   20.7659 C   0  0  0  0  0  0  0  0  0  0  0  0
  -28.8681  -22.5493   18.5013 C   0  0  0  0  0  0  0  0  0  0  0  0
  -29.5922  -13.3896   19.9923 C   0  0  0  0  0  0  0  0  0  0  0  0
  -16.1667  -29.1740   23.6318 C   0  0  0  0  0  0  0  0  0  0  0  0
  -21.2722  -24.7890   20.7014 C   0  0  0  0  0  0  0  0  0  0  0  0
  -16.9097  -28.6082   22.5781 C   0  0  0  0  0  0  0  0  0  0  0  0
  -22.4935  -25.4279   20.4437 C   0  0  0  0  0  0  0  0  0  0  0  0
  -29.9192  -21.3237   20.2985 C   0  0  0  0  0  0  0  0  0  0  0  0
  -24.5437  -12.4618   20.8447 C   0  0  0  0  0  0  0  0  0  0  0  0
  -22.5103  -24.4678   18.2103 C   0  0  0  0  0  0  0  0  0  0  0  0
  -23.0859  -10.6274   21.0244 C   0  0  0  0  0  0  0  0  0  0  0  0
  -22.7225   -7.8759   21.3063 C   0  0  0  0  0  0  0  0  0  0  0  0
  -22.3873  -10.1251   22.1222 C   0  0  0  0  0  0  0  0  0  0  0  0
  -28.5134  -13.9196   20.7251 C   0  0  0  0  0  0  0  0  0  0  0  0
  -30.6486  -14.2152   20.2906 C   0  0  0  0  0  0  0  0  0  0  0  0
  -28.2657  -22.5795   17.1436 C   0  0  0  0  0  0  0  0  0  0  0  0
  -29.6356  -12.2526   19.1198 C   0  0  0  0  0  0  0  0  0  0  0  0
  -20.3953  -27.4304   22.2370 C   0  0  0  0  0  0  0  0  0  0  0  0
  -27.0131  -25.0205   14.9526 C   0  0  0  0  0  0  0  0  0  0  0  0
  -23.1086  -26.8811   23.9277 C   0  0  0  0  0  0  0  0  0  0  0  0
  -26.2016  -25.4446   24.0558 C   0  0  0  0  0  0  0  0  0  0  0  0
  -31.0038  -19.9064   22.0765 C   0  0  0  0  0  0  0  0  0  0  0  0
  -16.7816  -30.1543   24.5990 C   0  0  0  0  0  0  0  0  0  0  0  0
  -20.6096  -24.9258   22.0448 C   0  0  0  0  0  0  0  0  0  0  0  0
  -23.1689  -26.2934   21.4749 C   0  0  0  0  0  0  0  0  0  0  0  0
  -18.3079  -30.1268   24.6064 C   0  0  0  0  0  0  0  0  0  0  0  0
  -32.3136  -17.0588   23.7656 C   0  0  0  0  0  0  0  0  0  0  0  0
  -18.8488  -30.1324   23.1801 C   0  0  0  0  0  0  0  0  0  0  0  0
  -31.5904  -15.8820   23.1067 C   0  0  0  0  0  0  0  0  0  0  0  0
  -31.4020  -18.2762   23.9093 C   0  0  0  0  0  0  0  0  0  0  0  0
  -30.0195  -17.5310   22.0112 C   0  0  0  0  0  0  0  0  0  0  0  0
  -18.3871  -28.8893   22.4101 C   0  0  1  0  0  0  0  0  0  0  0  0
  -21.0301  -26.1872   22.7928 C   0  0  1  0  0  0  0  0  0  0  0  0
  -30.9164  -16.3028   21.7860 C   0  0  2  0  0  0  0  0  0  0  0  0
  -27.1229  -25.0400   13.4485 C   0  0  0  0  0  0  0  0  0  0  0  0
  -28.2000  -25.2011   25.5540 C   0  0  0  0  0  0  0  0  0  0  0  0
  -24.7040  -22.0951   15.9515 C   0  0  0  0  0  0  0  0  0  0  0  0
  -23.9519  -29.7372   23.2630 C   0  0  0  0  0  0  0  0  0  0  0  0
  -26.2851  -29.1315   23.9394 C   0  0  0  0  0  0  0  0  0  0  0  0
  -24.4366  -29.0260   25.6111 C   0  0  0  0  0  0  0  0  0  0  0  0
  -25.9126  -22.5009   24.1564 C   0  0  0  0  0  0  0  0  0  0  0  0
  -24.5365  -24.4027   16.9670 C   0  0  0  0  0  0  0  0  0  1  0  0
  -26.6337  -23.7173   15.6611 C   0  0  2  0  0  0  0  0  0  0  0  0
  -24.5570  -27.2820   23.7847 C   0  0  1  0  0  0  0  0  0  0  0  0
  -26.8746  -24.5954   25.1190 C   0  0  2  0  0  0  0  0  0  0  0  0
  -25.1036  -23.5699   15.8054 C   0  0  1  0  0  0  0  0  0  0  0  0
  -24.7942  -28.7795   24.1292 C   0  0  0  0  0  0  0  0  0  0  0  0
  -28.8532  -14.9983   21.4357 N   0  0  0  0  0  0  0  0  0  0  0  0
  -30.1575  -15.1528   21.1508 N   0  0  0  0  0  0  0  0  0  0  0  0
  -22.4786  -26.4009   22.7708 N   0  0  0  0  0  0  0  0  0  0  0  0
  -30.8022  -18.6191   22.6179 N   0  0  0  0  0  0  0  0  0  0  0  0
  -31.9403  -14.2233   19.8985 N   0  0  0  0  0  0  0  0  0  0  0  0
  -28.4600  -11.5150   18.9246 N   0  0  0  0  0  0  0  0  0  0  0  0
  -30.4130  -20.1062   20.8293 N   0  0  0  0  0  0  0  0  0  0  0  0
  -27.3232  -23.5737   16.9173 N   0  0  0  0  0  0  0  0  0  0  0  0
  -19.1696  -27.7352   22.7977 N   0  0  0  0  0  0  0  0  0  0  0  0
  -25.3214  -26.3511   24.6078 N   0  0  0  0  0  0  0  0  0  0  0  0
  -27.1333  -23.2231   24.5987 N   0  3  0  0  0  0  0  0  0  0  0  0
  -28.6049  -21.7359   16.3178 O   0  0  0  0  0  0  0  0  0  0  0  0
  -30.6897  -11.8916   18.5436 O   0  0  0  0  0  0  0  0  0  0  0  0
  -20.9752  -28.0669   21.3650 O   0  0  0  0  0  0  0  0  0  0  0  0
  -27.1872  -26.0588   15.5964 O   0  0  0  0  0  0  0  0  0  0  0  0
  -22.5586  -26.9833   25.0271 O   0  0  0  0  0  0  0  0  0  0  0  0
  -26.4363  -25.3191   22.8559 O   0  0  0  0  0  0  0  0  0  0  0  0
  -31.6755  -20.7591   22.6628 O   0  0  0  0  0  0  0  0  0  0  0  0
  -23.2665  -11.9931   20.8826 O   0  0  0  0  0  0  0  0  0  0  0  0
  -23.1124  -24.3176   16.9993 O   0  0  0  0  0  0  0  0  0  1  0  0
  -22.5468   -6.5548   21.4407 F   0  0  0  0  0  0  0  0  0  0  0  0
  -21.8874  -10.9593   23.0442 F   0  0  0  0  0  0  0  0  0  0  0  0
  1  2  1  0  0  0  0
  1  7  2  0  0  0  0
  2  8  2  0  0  0  0
  3  6  2  0  0  0  0
  3 10  1  0  0  0  0
  4 11  2  0  0  0  0
  4 19  1  0  0  0  0
  5 12  1  0  0  0  0
  5 19  2  0  0  0  0
  6 20  1  0  0  0  0
  7 22  1  0  0  0  0
  8 24  1  0  0  0  0
  9 13  2  0  0  0  0
  9 23  1  0  0  0  0
 10 26  2  0  0  0  0
 11 27  1  0  0  0  0
 12 27  2  0  0  0  0
 13 28  1  0  0  0  0
 14 15  2  0  0  0  0
 14 29  1  0  0  0  0
 15 30  1  0  0  0  0
 16 20  2  0  0  0  0
 16 26  1  0  0  0  0
 17 25  1  0  0  0  0
 17 28  2  0  0  0  0
 18 30  2  0  0  0  0
 18 31  1  0  0  0  0
 19 32  1  0  0  0  0
 20 34  1  0  0  0  0
 21 32  1  0  0  0  0
 21 33  2  0  0  0  0
 21 35  1  0  0  0  0
 22 24  2  0  0  0  0
 22 41  1  0  0  0  0
 23 25  2  0  0  0  0
 23 42  1  0  0  0  0
 24 50  1  0  0  0  0
 25 43  1  0  0  0  0
 26 72  1  0  0  0  0
 27 84  1  0  0  0  0
 28 85  1  0  0  0  0
 29 31  2  0  0  0  0
 29 84  1  0  0  0  0
 30 86  1  0  0  0  0
 31 87  1  0  0  0  0
 32 66  2  0  0  0  0
 33 67  1  0  0  0  0
 33 70  1  0  0  0  0
 34 73  1  0  0  0  0
 34 77  2  0  0  0  0
 35 71  1  0  0  0  0
 35 78  2  0  0  0  0
 36 51  1  0  0  0  0
 36 74  1  0  0  0  0
 36 79  2  0  0  0  0
 37 53  1  0  0  0  0
 37 61  1  0  0  0  0
 37 80  2  0  0  0  0
 38 62  1  0  0  0  0
 38 68  1  0  0  0  0
 38 81  2  0  0  0  0
 39 63  1  0  0  0  0
 39 75  1  0  0  0  0
 39 82  2  0  0  0  0
 40 69  1  0  0  0  0
 40 72  1  0  0  0  0
 40 83  2  0  0  0  0
 41 44  1  0  0  0  0
 42 51  1  0  0  0  0
 43 68  1  0  0  0  0
 44 46  1  0  0  0  0
 45 47  1  0  0  0  0
 45 48  1  0  0  0  0
 46 50  1  0  0  0  0
 47 52  1  0  0  0  0
 48 69  1  0  0  0  0
 49 52  1  0  0  0  0
 49 69  1  0  0  0  0
 50 74  1  0  0  0  0
 51 68  1  0  0  0  0
 52 67  1  0  0  0  0
 54 63  1  0  0  0  0
 55 64  1  0  0  0  0
 56 65  1  0  0  0  0
 57 65  1  0  0  0  0
 58 65  1  0  0  0  0
 59 76  1  0  0  0  0
 60 64  1  0  0  0  0
 60 85  1  0  0  0  0
 61 64  1  0  0  0  0
 61 73  1  0  0  0  0
 62 65  1  0  0  0  0
 62 75  1  0  0  0  0
 63 76  1  0  0  0  0
 66 67  1  0  0  0  0
M  CHG  1  76   1
M  ISO  4  40 100  60 101  72 100  85 101
M  END
> <Batch ID>
0059

> <Smiles>
CNC(C)C(=O)NC(C(=O)N1Cc2cc([101O:1][101CH2:1]C(C)C(NC(=O)c3cccc([100NH:0][100C:0](=O)N4CCCC(n5nc(-c6ccc(Oc7ccc(F)cc7F)cc6)c(C(N)=O)c5N)C4)c3)C(C)=O)ccc2CC1C(=O)NC1CCCc2ccccc21)C(C)(C)C

> <Shape>
0.249

> <Color>
0.060

> <Negative vol penalty>
0.000

$$$$

  -OEChem-04042323013D

 91100  0     1  0  0  0  0  0999 V2000
  -21.6774  -37.2171   22.6139 C   0  0  0  0  0  0  0  0  0  0  0  0
  -21.7765  -36.4211   21.4784 C   0  0  0  0  0  0  0  0  0  0  0  0
  -23.5165   -9.5507   21.0913 C   0  0  0  0  0  0  0  0  0  0  0  0
  -25.5851   -9.7488   22.3235 C   0  0  0  0  0  0  0  0  0  0  0  0
  -22.4249  -36.9039   23.7473 C   0  0  0  0  0  0  0  0  0  0  0  0
  -22.6138  -35.3049   21.4798 C   0  0  0  0  0  0  0  0  0  0  0  0
  -26.2641  -28.8442   18.6238 C   0  0  0  0  0  0  0  0  0  0  0  0
  -23.4756   -8.1865   21.3793 C   0  0  0  0  0  0  0  0  0  0  0  0
  -25.5442   -8.3846   22.6116 C   0  0  0  0  0  0  0  0  0  0  0  0
  -27.3550  -28.0006   18.8288 C   0  0  0  0  0  0  0  0  0  0  0  0
  -22.6297   -6.2171   23.9944 C   0  0  0  0  0  0  0  0  0  0  0  0
  -21.4130   -5.6794   24.4141 C   0  0  0  0  0  0  0  0  0  0  0  0
  -26.6129  -27.6001   21.0889 C   0  0  0  0  0  0  0  0  0  0  0  0
  -28.3595  -20.2328   21.1307 C   0  0  0  0  0  0  0  0  0  0  0  0
  -26.6788  -19.6216   22.7551 C   0  0  0  0  0  0  0  0  0  0  0  0
  -21.4196   -4.1836   22.5168 C   0  0  0  0  0  0  0  0  0  0  0  0
  -24.5713  -10.3318   21.5634 C   0  0  0  0  0  0  0  0  0  0  0  0
  -23.6582  -12.7133   21.6150 C   0  0  0  0  0  0  0  0  0  0  0  0
  -23.2810  -35.7904   23.7575 C   0  0  0  0  0  0  0  0  0  0  0  0
  -25.3438  -29.0810   19.6550 C   0  0  0  0  0  0  0  0  0  0  0  0
  -23.3581  -34.9586   22.6220 C   0  0  0  0  0  0  0  0  0  0  0  0
  -25.5097  -28.4451   20.8936 C   0  0  0  0  0  0  0  0  0  0  0  0
  -27.4543  -21.9058   22.6201 C   0  0  0  0  0  0  0  0  0  0  0  0
  -28.3162  -21.5518   21.5821 C   0  0  0  0  0  0  0  0  0  0  0  0
  -27.5407  -19.2677   21.7171 C   0  0  0  0  0  0  0  0  0  0  0  0
  -24.4894   -7.6035   22.1395 C   0  0  0  0  0  0  0  0  0  0  0  0
  -27.5312  -27.3807   20.0624 C   0  0  0  0  0  0  0  0  0  0  0  0
  -23.2413   -5.7381   22.8358 C   0  0  0  0  0  0  0  0  0  0  0  0
  -20.8080   -4.6626   23.6753 C   0  0  0  0  0  0  0  0  0  0  0  0
  -22.6363   -4.7213   22.0971 C   0  0  0  0  0  0  0  0  0  0  0  0
  -26.6355  -20.9406   23.2066 C   0  0  0  0  0  0  0  0  0  0  0  0
  -24.6145  -11.7409   21.2657 C   0  0  0  0  0  0  0  0  0  0  0  0
  -24.1594  -13.8862   21.1057 C   0  0  0  0  0  0  0  0  0  0  0  0
  -31.1798  -21.7733   19.7461 C   0  0  0  0  0  0  0  0  0  0  0  0
  -28.6603  -23.6733   20.3136 C   0  0  0  0  0  0  0  0  0  0  0  0
  -22.4271  -12.5691   22.3356 C   0  0  0  0  0  0  0  0  0  0  0  0
  -24.4039  -31.6479   21.2770 C   0  0  0  0  0  0  0  0  0  0  0  0
  -22.2506  -29.5786   22.5433 C   0  0  0  0  0  0  0  0  0  0  0  0
  -22.2551  -26.1706   23.7275 C   0  0  0  0  0  0  0  0  0  0  0  0
  -28.3835  -17.4091   20.2400 C   0  0  0  0  0  0  0  0  0  0  0  0
  -24.0610  -35.4931   25.0139 C   0  0  0  0  0  0  0  0  0  0  0  0
  -24.1575  -29.9726   19.4093 C   0  0  0  0  0  0  0  0  0  0  0  0
  -24.5389  -28.6503   22.0267 C   0  0  0  0  0  0  0  0  0  0  0  0
  -30.6228  -22.3276   21.0357 C   0  0  0  0  0  0  0  0  0  0  0  0
  -25.2443  -34.5615   24.7724 C   0  0  0  0  0  0  0  0  0  0  0  0
  -28.0176  -14.7187   17.9367 C   0  0  0  0  0  0  0  0  0  0  0  0
  -24.7944  -33.3451   23.9772 C   0  0  0  0  0  0  0  0  0  0  0  0
  -27.0210  -13.7842   18.6262 C   0  0  0  0  0  0  0  0  0  0  0  0
  -28.9667  -15.3743   18.9383 C   0  0  0  0  0  0  0  0  0  0  0  0
  -30.2548  -23.7630   18.3877 C   0  0  0  0  0  0  0  0  0  0  0  0
  -27.3134  -15.1260   20.7477 C   0  0  0  0  0  0  0  0  0  0  0  0
  -24.2855  -33.7572   22.5901 C   0  0  1  0  0  0  0  0  0  0  0  0
  -29.7119  -24.5244   19.5998 C   0  0  1  0  0  0  0  0  0  0  0  0
  -23.5654  -30.5464   20.6929 C   0  0  1  0  0  0  0  0  0  0  0  0
  -26.2945  -14.4922   19.7866 C   0  0  2  0  0  0  0  0  0  0  0  0
  -27.4161  -23.3255   23.0961 C   0  0  0  0  0  0  0  0  0  0  0  0
  -30.5789  -21.0768   16.6427 C   0  0  0  0  0  0  0  0  0  0  0  0
  -20.4013  -24.4837   23.8506 C   0  0  0  0  0  0  0  0  0  0  0  0
  -21.9033  -30.5980   25.3981 C   0  0  0  0  0  0  0  0  0  0  0  0
  -21.4408  -28.2424   26.1088 C   0  0  0  0  0  0  0  0  0  0  0  0
  -19.9261  -29.3722   24.4804 C   0  0  0  0  0  0  0  0  0  0  0  0
  -23.7970  -24.1898   22.1597 C   0  0  0  0  0  0  0  0  0  0  0  0
  -29.0956  -25.8507   19.1311 C   0  0  0  0  0  0  0  0  0  1  0  0
  -31.5566  -21.9626   17.3371 C   0  0  0  0  0  0  0  0  0  0  0  0
  -22.2316  -28.6513   23.7343 C   0  0  1  0  0  0  0  0  0  0  0  0
  -21.6024  -24.9749   23.0576 C   0  0  2  0  0  0  0  0  0  0  0  0
  -21.3997  -29.2226   24.9171 C   0  0  0  0  0  0  0  0  0  0  0  0
  -25.6450  -12.2518   20.5867 N   0  0  0  0  0  0  0  0  0  0  0  0
  -25.3392  -13.5579   20.5053 N   0  0  0  0  0  0  0  0  0  0  0  0
  -29.1760  -22.5350   20.9600 N   0  0  0  0  0  0  0  0  0  0  0  0
  -30.9938  -22.5022   18.5736 N   0  0  0  0  0  0  0  0  0  0  0  0
  -23.3985  -29.5360   21.7394 N   0  0  0  0  0  0  0  0  0  0  0  0
  -28.2079  -16.0288   20.0063 N   0  0  0  0  0  0  0  0  0  0  0  0
  -23.7015  -15.1561   21.1172 N   0  0  0  0  0  0  0  0  0  0  0  0
  -22.0631  -11.2934   22.7878 N   0  0  0  0  0  0  0  0  0  0  0  0
  -27.5850  -17.9276   21.2589 N   0  0  0  0  0  0  0  0  0  0  0  0
  -23.6774  -32.6112   21.9507 N   0  0  0  0  0  0  0  0  0  0  0  0
  -21.7606  -27.3619   23.2403 N   0  0  0  0  0  0  0  0  0  0  0  0
  -22.5763  -23.8533   22.9368 N   0  3  0  0  0  0  0  0  0  0  0  0
  -31.8554  -20.7391   19.8042 O   0  0  0  0  0  0  0  0  0  0  0  0
  -27.4679  -23.9674   20.2182 O   0  0  0  0  0  0  0  0  0  0  0  0
  -21.6642  -13.5398   22.5572 O   0  0  0  0  0  0  0  0  0  0  0  0
  -25.6201  -31.6248   21.1289 O   0  0  0  0  0  0  0  0  0  0  0  0
  -21.2794  -30.3087   22.3298 O   0  0  0  0  0  0  0  0  0  0  0  0
  -23.1149  -26.0589   24.5987 O   0  0  0  0  0  0  0  0  0  0  0  0
  -29.1633  -18.0873   19.5662 O   0  0  0  0  0  0  0  0  0  0  0  0
  -24.4496   -6.2724   22.4209 O   0  0  0  0  0  0  0  0  0  0  0  0
  -28.5955  -26.5574   20.2654 O   0  0  0  0  0  0  0  0  0  1  0  0
  -19.6403   -4.1453   24.0793 F   0  0  0  0  0  0  0  0  0  0  0  0
  -23.2197   -4.2562   20.9839 F   0  0  0  0  0  0  0  0  0  0  0  0
  -25.5578  -21.3370   24.4960 Cl  0  0  0  0  0  0  0  0  0  0  0  0
  1  2  1  0  0  0  0
  1  5  2  0  0  0  0
  2  6  2  0  0  0  0
  3  8  2  0  0  0  0
  3 17  1  0  0  0  0
  4  9  1  0  0  0  0
  4 17  2  0  0  0  0
  5 19  1  0  0  0  0
  6 21  1  0  0  0  0
  7 10  2  0  0  0  0
  7 20  1  0  0  0  0
  8 26  1  0  0  0  0
  9 26  2  0  0  0  0
 10 27  1  0  0  0  0
 11 12  2  0  0  0  0
 11 28  1  0  0  0  0
 12 29  1  0  0  0  0
 13 22  1  0  0  0  0
 13 27  2  0  0  0  0
 14 24  1  0  0  0  0
 14 25  2  0  0  0  0
 15 25  1  0  0  0  0
 15 31  2  0  0  0  0
 16 29  2  0  0  0  0
 16 30  1  0  0  0  0
 17 32  1  0  0  0  0
 18 32  1  0  0  0  0
 18 33  2  0  0  0  0
 18 36  1  0  0  0  0
 19 21  2  0  0  0  0
 19 41  1  0  0  0  0
 20 22  2  0  0  0  0
 20 42  1  0  0  0  0
 21 52  1  0  0  0  0
 22 43  1  0  0  0  0
 23 24  2  0  0  0  0
 23 31  1  0  0  0  0
 23 56  1  0  0  0  0
 24 70  1  0  0  0  0
 25 76  1  0  0  0  0
 26 87  1  0  0  0  0
 27 88  1  0  0  0  0
 28 30  2  0  0  0  0
 28 87  1  0  0  0  0
 29 89  1  0  0  0  0
 30 90  1  0  0  0  0
 31 91  1  0  0  0  0
 32 68  2  0  0  0  0
 33 69  1  0  0  0  0
 33 74  1  0  0  0  0
 34 44  1  0  0  0  0
 34 71  1  0  0  0  0
 34 80  2  0  0  0  0
 35 53  1  0  0  0  0
 35 70  1  0  0  0  0
 35 81  2  0  0  0  0
 36 75  1  0  0  0  0
 36 82  2  0  0  0  0
 37 54  1  0  0  0  0
 37 77  1  0  0  0  0
 37 83  2  0  0  0  0
 38 65  1  0  0  0  0
 38 72  1  0  0  0  0
 38 84  2  0  0  0  0
 39 66  1  0  0  0  0
 39 78  1  0  0  0  0
 39 85  2  0  0  0  0
 40 73  1  0  0  0  0
 40 76  1  0  0  0  0
 40 86  2  0  0  0  0
 41 45  1  0  0  0  0
 42 54  1  0  0  0  0
 43 72  1  0  0  0  0
 44 70  1  0  0  0  0
 45 47  1  0  0  0  0
 46 48  1  0  0  0  0
 46 49  1  0  0  0  0
 47 52  1  0  0  0  0
 48 55  1  0  0  0  0
 49 73  1  0  0  0  0
 50 53  1  0  0  0  0
 50 71  1  0  0  0  0
 51 55  1  0  0  0  0
 51 73  1  0  0  0  0
 52 77  1  0  0  0  0
 53 63  1  0  0  0  0
 54 72  1  0  0  0  0
 55 69  1  0  0  0  0
 57 64  1  0  0  0  0
 58 66  1  0  0  0  0
 59 67  1  0  0  0  0
 60 67  1  0  0  0  0
 61 67  1  0  0  0  0
 62 79  1  0  0  0  0
 63 88  1  0  0  0  0
 64 71  1  0  0  0  0
 65 67  1  0  0  0  0
 65 78  1  0  0  0  0
 66 79  1  0  0  0  0
 68 69  1  0  0  0  0
M  CHG  1  79   1
M  ISO  4  40 100  63 101  76 100  88 101
M  END
> <Batch ID>
0059

> <Smiles>
CCN1CC([101CH2:1][101O:1]c2ccc3c(c2)CN(C(=O)C(NC(=O)C(C)NC)C(C)(C)C)C(C(=O)NC2CCCc4ccccc42)C3)C(=O)N(c2cc([100NH:0][100C:0](=O)N3CCCC(n4nc(-c5ccc(Oc6ccc(F)cc6F)cc5)c(C(N)=O)c4N)C3)cc(Cl)c2C)CC1=O

> <Shape>
0.317

> <Color>
0.090

> <Negative vol penalty>
0.000

$$$$

  -OEChem-04042323013D

 90 98  0     1  0  0  0  0  0999 V2000
  -23.7056  -10.3850   18.3011 C   0  0  0  0  0  0  0  0  0  0  0  0
  -23.1945  -11.6230   17.9248 C   0  0  0  0  0  0  0  0  0  0  0  0
  -30.1564  -28.2183   19.0737 C   0  0  0  0  0  0  0  0  0  0  0  0
  -29.5271  -26.5423   20.6961 C   0  0  0  0  0  0  0  0  0  0  0  0
  -24.5447  -10.2865   19.4103 C   0  0  0  0  0  0  0  0  0  0  0  0
  -23.5213  -12.7631   18.6581 C   0  0  0  0  0  0  0  0  0  0  0  0
  -24.3345  -18.4307   16.4848 C   0  0  0  0  0  0  0  0  0  0  0  0
  -31.4950  -27.8529   19.2154 C   0  0  0  0  0  0  0  0  0  0  0  0
  -30.8657  -26.1769   20.8378 C   0  0  0  0  0  0  0  0  0  0  0  0
  -23.4974  -19.5444   16.4327 C   0  0  0  0  0  0  0  0  0  0  0  0
  -33.5325  -25.3851   18.1237 C   0  0  0  0  0  0  0  0  0  0  0  0
  -34.2895  -25.2331   16.9621 C   0  0  0  0  0  0  0  0  0  0  0  0
  -19.5433  -28.8576   23.5430 C   0  0  0  0  0  0  0  0  0  0  0  0
  -19.8746  -27.2223   21.7956 C   0  0  0  0  0  0  0  0  0  0  0  0
  -24.4899  -20.3779   18.4673 C   0  0  0  0  0  0  0  0  0  0  0  0
  -35.7974  -26.9627   17.7184 C   0  0  0  0  0  0  0  0  0  0  0  0
  -29.1724  -27.5630   19.8140 C   0  0  0  0  0  0  0  0  0  0  0  0
  -18.3956  -28.1820   23.9576 C   0  0  0  0  0  0  0  0  0  0  0  0
  -18.7269  -26.5467   22.2103 C   0  0  0  0  0  0  0  0  0  0  0  0
  -26.8549  -27.4105   18.7588 C   0  0  0  0  0  0  0  0  0  0  0  0
  -24.8897  -11.4274   20.1518 C   0  0  0  0  0  0  0  0  0  0  0  0
  -25.2495  -18.2765   17.5361 C   0  0  0  0  0  0  0  0  0  0  0  0
  -24.3648  -12.6796   19.7790 C   0  0  0  0  0  0  0  0  0  0  0  0
  -25.3392  -19.2626   18.5290 C   0  0  0  0  0  0  0  0  0  0  0  0
  -17.9874  -27.0266   23.2913 C   0  0  0  0  0  0  0  0  0  0  0  0
  -20.2828  -28.3778   22.4619 C   0  0  0  0  0  0  0  0  0  0  0  0
  -31.8497  -26.8322   20.0975 C   0  0  0  0  0  0  0  0  0  0  0  0
  -23.5730  -20.5168   17.4256 C   0  0  0  0  0  0  0  0  0  0  0  0
  -33.9079  -26.3260   19.0827 C   0  0  0  0  0  0  0  0  0  0  0  0
  -35.4219  -26.0219   16.7594 C   0  0  0  0  0  0  0  0  0  0  0  0
  -35.0404  -27.1147   18.8800 C   0  0  0  0  0  0  0  0  0  0  0  0
  -27.7895  -27.9404   19.6685 C   0  0  0  0  0  0  0  0  0  0  0  0
  -25.6944  -28.0974   19.0195 C   0  0  0  0  0  0  0  0  0  0  0  0
  -17.6430  -28.7075   25.0893 C   0  0  0  0  0  0  0  0  0  0  0  0
  -18.3177  -25.3201   21.4801 C   0  0  0  0  0  0  0  0  0  0  0  0
  -27.0209  -26.3886   17.7669 C   0  0  0  0  0  0  0  0  0  0  0  0
  -25.6712  -16.1352   19.8471 C   0  0  0  0  0  0  0  0  0  0  0  0
  -28.3510  -17.8677   20.4294 C   0  0  0  0  0  0  0  0  0  0  0  0
  -20.2835  -22.1377   18.8857 C   0  0  0  0  0  0  0  0  0  0  0  0
  -29.9864  -20.8515   20.1653 C   0  0  0  0  0  0  0  0  0  0  0  0
  -21.9912  -30.2246   22.5922 C   0  0  0  0  0  0  0  0  0  0  0  0
  -25.7622  -11.2642   21.3712 C   0  0  0  0  0  0  0  0  0  0  0  0
  -26.1641  -17.0827   17.5634 C   0  0  0  0  0  0  0  0  0  0  0  0
  -26.3187  -19.1543   19.6680 C   0  0  0  0  0  0  0  0  0  0  0  0
  -26.3608  -12.5762   21.8718 C   0  0  0  0  0  0  0  0  0  0  0  0
  -24.8635  -32.1995   21.8663 C   0  0  0  0  0  0  0  0  0  0  0  0
  -25.2924  -13.6635   21.9278 C   0  0  0  0  0  0  0  0  0  0  0  0
  -25.8039  -31.2239   21.1550 C   0  0  0  0  0  0  0  0  0  0  0  0
  -24.0774  -31.5165   22.9841 C   0  0  0  0  0  0  0  0  0  0  0  0
  -24.2919  -29.3294   21.8705 C   0  0  0  0  0  0  0  0  0  0  0  0
  -24.7162  -13.9429   20.5344 C   0  0  1  0  0  0  0  0  0  0  0  0
  -26.7006  -16.7728   18.9575 C   0  0  1  0  0  0  0  0  0  0  0  0
  -25.0576  -29.9566   20.6940 C   0  0  2  0  0  0  0  0  0  0  0  0
  -16.7552  -26.3021   23.7360 C   0  0  0  0  0  0  0  0  0  0  0  0
  -18.3582  -28.8175   26.4031 C   0  0  0  0  0  0  0  0  0  0  0  0
  -32.1487  -21.9729   20.7686 C   0  0  0  0  0  0  0  0  0  0  0  0
  -27.4166  -18.1068   23.3242 C   0  0  0  0  0  0  0  0  0  0  0  0
  -29.0572  -19.9737   23.6265 C   0  0  0  0  0  0  0  0  0  0  0  0
  -29.8665  -17.6855   23.0502 C   0  0  0  0  0  0  0  0  0  0  0  0
  -30.6498  -21.3585   17.3260 C   0  0  0  0  0  0  0  0  0  0  0  0
  -20.4816  -22.3878   17.3993 C   0  0  0  0  0  0  0  0  0  0  0  0
  -21.4795  -21.4315   16.7648 C   0  0  0  0  0  0  0  0  0  1  0  0
  -18.9898  -23.0115   20.8316 C   0  0  0  0  0  0  0  0  0  0  0  0
  -28.6858  -19.0627   21.2891 C   0  0  1  0  0  0  0  0  0  0  0  0
  -31.3922  -21.1923   19.7050 C   0  0  2  0  0  0  0  0  0  0  0  0
  -28.7366  -18.7085   22.8022 C   0  0  0  0  0  0  0  0  0  0  0  0
  -27.2678  -28.8908   20.4487 N   0  0  0  0  0  0  0  0  0  0  0  0
  -25.9929  -28.9636   20.0299 N   0  0  0  0  0  0  0  0  0  0  0  0
  -27.1871  -17.9655   19.6539 N   0  0  0  0  0  0  0  0  0  0  0  0
  -23.3933  -30.3268   22.4726 N   0  0  0  0  0  0  0  0  0  0  0  0
  -24.4580  -28.0391   18.4807 N   0  0  0  0  0  0  0  0  0  0  0  0
  -28.2793  -25.7865   17.6320 N   0  0  0  0  0  0  0  0  0  0  0  0
  -21.4485  -29.0644   22.0408 N   0  0  0  0  0  0  0  0  0  0  0  0
  -19.2394  -24.2851   21.4776 N   0  0  0  0  0  0  0  0  0  0  0  0
  -25.6311  -14.7565   19.7629 N   0  0  0  0  0  0  0  0  0  0  0  0
  -19.3683  -23.0258   19.4332 N   0  0  0  0  0  0  0  0  0  0  0  0
  -29.9312  -19.6093   20.7612 N   0  0  0  0  0  0  0  0  0  0  0  0
  -31.3456  -22.0144   18.4629 N   0  3  0  0  0  0  0  0  0  0  0  0
  -16.4648  -29.0623   25.0470 O   0  0  0  0  0  0  0  0  0  0  0  0
  -17.2110  -25.2803   20.9495 O   0  0  0  0  0  0  0  0  0  0  0  0
  -26.0854  -26.0318   17.0112 O   0  0  0  0  0  0  0  0  0  0  0  0
  -24.9665  -16.8417   20.5584 O   0  0  0  0  0  0  0  0  0  0  0  0
  -29.0987  -16.8867   20.4400 O   0  0  0  0  0  0  0  0  0  0  0  0
  -20.8692  -21.2537   19.5046 O   0  0  0  0  0  0  0  0  0  0  0  0
  -29.0333  -21.6127   20.0148 O   0  0  0  0  0  0  0  0  0  0  0  0
  -21.3182  -31.1144   23.1188 O   0  0  0  0  0  0  0  0  0  0  0  0
  -33.1558  -26.4752   20.2359 O   0  0  0  0  0  0  0  0  0  0  0  0
  -22.7566  -21.6045   17.3776 O   0  0  0  0  0  0  0  0  0  1  0  0
  -36.1496  -25.8747   15.6445 F   0  0  0  0  0  0  0  0  0  0  0  0
  -35.4067  -28.0194   19.7983 F   0  0  0  0  0  0  0  0  0  0  0  0
  1  2  1  0  0  0  0
  1  5  2  0  0  0  0
  2  6  2  0  0  0  0
  3  8  2  0  0  0  0
  3 17  1  0  0  0  0
  4  9  1  0  0  0  0
  4 17  2  0  0  0  0
  5 21  1  0  0  0  0
  6 23  1  0  0  0  0
  7 10  2  0  0  0  0
  7 22  1  0  0  0  0
  8 27  1  0  0  0  0
  9 27  2  0  0  0  0
 10 28  1  0  0  0  0
 11 12  2  0  0  0  0
 11 29  1  0  0  0  0
 12 30  1  0  0  0  0
 13 18  2  0  0  0  0
 13 26  1  0  0  0  0
 14 19  1  0  0  0  0
 14 26  2  0  0  0  0
 15 24  1  0  0  0  0
 15 28  2  0  0  0  0
 16 30  2  0  0  0  0
 16 31  1  0  0  0  0
 17 32  1  0  0  0  0
 18 25  1  0  0  0  0
 18 34  1  0  0  0  0
 19 25  2  0  0  0  0
 19 35  1  0  0  0  0
 20 32  1  0  0  0  0
 20 33  2  0  0  0  0
 20 36  1  0  0  0  0
 21 23  2  0  0  0  0
 21 42  1  0  0  0  0
 22 24  2  0  0  0  0
 22 43  1  0  0  0  0
 23 51  1  0  0  0  0
 24 44  1  0  0  0  0
 25 54  1  0  0  0  0
 26 73  1  0  0  0  0
 27 87  1  0  0  0  0
 28 88  1  0  0  0  0
 29 31  2  0  0  0  0
 29 87  1  0  0  0  0
 30 89  1  0  0  0  0
 31 90  1  0  0  0  0
 32 67  2  0  0  0  0
 33 68  1  0  0  0  0
 33 71  1  0  0  0  0
 34 55  1  0  0  0  0
 34 79  2  0  0  0  0
 35 74  1  0  0  0  0
 35 80  2  0  0  0  0
 36 72  1  0  0  0  0
 36 81  2  0  0  0  0
 37 52  1  0  0  0  0
 37 75  1  0  0  0  0
 37 82  2  0  0  0  0
 38 64  1  0  0  0  0
 38 69  1  0  0  0  0
 38 83  2  0  0  0  0
 39 61  1  0  0  0  0
 39 76  1  0  0  0  0
 39 84  2  0  0  0  0
 40 65  1  0  0  0  0
 40 77  1  0  0  0  0
 40 85  2  0  0  0  0
 41 70  1  0  0  0  0
 41 73  1  0  0  0  0
 41 86  2  0  0  0  0
 42 45  1  0  0  0  0
 43 52  1  0  0  0  0
 44 69  1  0  0  0  0
 45 47  1  0  0  0  0
 46 48  1  0  0  0  0
 46 49  1  0  0  0  0
 47 51  1  0  0  0  0
 48 53  1  0  0  0  0
 49 70  1  0  0  0  0
 50 53  1  0  0  0  0
 50 70  1  0  0  0  0
 51 75  1  0  0  0  0
 52 69  1  0  0  0  0
 53 68  1  0  0  0  0
 56 65  1  0  0  0  0
 57 66  1  0  0  0  0
 58 66  1  0  0  0  0
 59 66  1  0  0  0  0
 60 78  1  0  0  0  0
 61 62  1  0  0  0  0
 62 88  1  0  0  0  0
 63 74  1  0  0  0  0
 63 76  1  0  0  0  0
 64 66  1  0  0  0  0
 64 77  1  0  0  0  0
 65 78  1  0  0  0  0
 67 68  1  0  0  0  0
M  CHG  1  78   1
M  ISO  4  41 100  62 101  73 100  88 101
M  END
> <Batch ID>
0059

> <Smiles>
CNC(C)C(=O)NC(C(=O)N1Cc2cc([101O:1][101CH2:1]CC(=O)NCNC(=O)c3cc([100NH:0][100C:0](=O)N4CCCC(n5nc(-c6ccc(Oc7ccc(F)cc7F)cc6)c(C(N)=O)c5N)C4)cc(C(C)=O)c3C)ccc2CC1C(=O)NC1CCCc2ccccc21)C(C)(C)C

> <Shape>
0.232

> <Color>
0.080

> <Negative vol penalty>
0.000

$$$$

  -OEChem-04042323013D

 85 93  0     1  0  0  0  0  0999 V2000
  -22.3298   -8.3536   21.8645 C   0  0  0  0  0  0  0  0  0  0  0  0
  -22.7884   -9.3982   22.6606 C   0  0  0  0  0  0  0  0  0  0  0  0
  -23.9969  -28.8708   19.6156 C   0  0  0  0  0  0  0  0  0  0  0  0
  -24.1418  -28.1169   21.9063 C   0  0  0  0  0  0  0  0  0  0  0  0
  -22.5861   -8.3586   20.4940 C   0  0  0  0  0  0  0  0  0  0  0  0
  -23.5047  -10.4480   22.0868 C   0  0  0  0  0  0  0  0  0  0  0  0
  -21.9744  -14.9805   23.7481 C   0  0  0  0  0  0  0  0  0  0  0  0
  -22.6669  -29.2379   19.8204 C   0  0  0  0  0  0  0  0  0  0  0  0
  -22.8118  -28.4840   22.1113 C   0  0  0  0  0  0  0  0  0  0  0  0
  -22.4155  -15.3785   25.0094 C   0  0  0  0  0  0  0  0  0  0  0  0
  -19.7474  -27.2330   21.4217 C   0  0  0  0  0  0  0  0  0  0  0  0
  -18.9235  -26.3330   22.0974 C   0  0  0  0  0  0  0  0  0  0  0  0
  -24.1165  -16.7427   23.9775 C   0  0  0  0  0  0  0  0  0  0  0  0
  -28.3432  -19.1922   24.5786 C   0  0  0  0  0  0  0  0  0  0  0  0
  -28.6998  -19.8177   22.2724 C   0  0  0  0  0  0  0  0  0  0  0  0
  -28.4429  -21.5260   23.9615 C   0  0  0  0  0  0  0  0  0  0  0  0
  -18.5224  -27.9874   23.8119 C   0  0  0  0  0  0  0  0  0  0  0  0
  -24.7343  -28.3103   20.6585 C   0  0  0  0  0  0  0  0  0  0  0  0
  -27.2504  -28.7305   20.6386 C   0  0  0  0  0  0  0  0  0  0  0  0
  -23.2976   -9.4139   19.9016 C   0  0  0  0  0  0  0  0  0  0  0  0
  -22.6092  -15.4529   22.5904 C   0  0  0  0  0  0  0  0  0  0  0  0
  -23.7720  -10.4665   20.7073 C   0  0  0  0  0  0  0  0  0  0  0  0
  -23.6800  -16.3512   22.7027 C   0  0  0  0  0  0  0  0  0  0  0  0
  -28.5477  -18.8313   23.2468 C   0  0  0  0  0  0  0  0  0  0  0  0
  -28.2908  -20.5396   24.9359 C   0  0  0  0  0  0  0  0  0  0  0  0
  -28.6474  -21.1651   22.6297 C   0  0  0  0  0  0  0  0  0  0  0  0
  -22.0744  -29.0445   21.0683 C   0  0  0  0  0  0  0  0  0  0  0  0
  -23.4885  -16.2574   25.1243 C   0  0  0  0  0  0  0  0  0  0  0  0
  -19.9590  -28.5102   21.9411 C   0  0  0  0  0  0  0  0  0  0  0  0
  -18.3109  -26.7102   23.2925 C   0  0  0  0  0  0  0  0  0  0  0  0
  -19.3464  -28.8874   23.1361 C   0  0  0  0  0  0  0  0  0  0  0  0
  -26.1081  -27.9303   20.4473 C   0  0  0  0  0  0  0  0  0  0  0  0
  -28.3022  -27.9130   20.3039 C   0  0  0  0  0  0  0  0  0  0  0  0
  -27.3518  -30.0910   21.0795 C   0  0  0  0  0  0  0  0  0  0  0  0
  -24.2011  -14.1005   20.1944 C   0  0  0  0  0  0  0  0  0  0  0  0
  -24.1630  -17.1103   18.9853 C   0  0  0  0  0  0  0  0  0  0  0  0
  -26.3363  -19.8946   27.8089 C   0  0  0  0  0  0  0  0  0  0  0  0
  -23.9277  -20.4644   19.5694 C   0  0  0  0  0  0  0  0  0  0  0  0
  -29.0122  -21.9801   20.2741 C   0  0  0  0  0  0  0  0  0  0  0  0
  -23.5912   -9.3519   18.4235 C   0  0  0  0  0  0  0  0  0  0  0  0
  -22.1043  -15.0350   21.2365 C   0  0  0  0  0  0  0  0  0  0  0  0
  -24.3825  -16.9031   21.4901 C   0  0  0  0  0  0  0  0  0  0  0  0
  -24.0336  -10.6886   17.8338 C   0  0  0  0  0  0  0  0  0  0  0  0
  -29.4053  -24.1856   17.5068 C   0  0  0  0  0  0  0  0  0  0  0  0
  -25.0899  -11.3399   18.7209 C   0  0  0  0  0  0  0  0  0  0  0  0
  -28.7137  -25.4711   17.9666 C   0  0  0  0  0  0  0  0  0  0  0  0
  -28.6765  -22.9395   18.0065 C   0  0  0  0  0  0  0  0  0  0  0  0
  -27.7412  -24.1869   19.9139 C   0  0  0  0  0  0  0  0  0  0  0  0
  -24.5311  -11.6355   20.1179 C   0  0  1  0  0  0  0  0  0  0  0  0
  -23.1533  -15.1760   20.1379 C   0  0  1  0  0  0  0  0  0  0  0  0
  -28.4755  -25.4692   19.4893 C   0  0  2  0  0  0  0  0  0  0  0  0
  -28.6036  -17.3907   22.8649 C   0  0  0  0  0  0  0  0  0  0  0  0
  -23.9684  -22.6775   18.3869 C   0  0  0  0  0  0  0  0  0  0  0  0
  -27.1939  -16.9011   18.7033 C   0  0  0  0  0  0  0  0  0  0  0  0
  -27.2711  -19.3895   18.4382 C   0  0  0  0  0  0  0  0  0  0  0  0
  -26.0399  -17.9973   16.7743 C   0  0  0  0  0  0  0  0  0  0  0  0
  -21.1783  -21.1164   20.4495 C   0  0  0  0  0  0  0  0  0  0  0  0
  -28.0708  -20.9279   26.3694 C   0  0  0  0  0  0  0  0  0  0  0  0
  -24.8341  -19.8876   28.0296 C   0  0  0  0  0  0  0  0  0  0  0  0
  -24.2241  -18.5028   27.8446 C   0  0  0  0  0  0  0  0  0  0  0  0
  -24.5041  -17.9456   26.4565 C   0  0  0  0  0  0  0  0  0  1  0  0
  -25.0676  -18.3146   19.0864 C   0  0  1  0  0  0  0  0  0  0  0  0
  -23.0945  -21.5464   18.9062 C   0  0  2  0  0  0  0  0  0  0  0  0
  -26.3813  -18.1389   18.2736 C   0  0  0  0  0  0  0  0  0  0  0  0
  -26.4060  -26.6991   20.0238 N   0  0  0  0  0  0  0  0  0  0  0  0
  -27.7475  -26.7195   19.9461 N   0  0  0  0  0  0  0  0  0  0  0  0
  -23.8559  -16.4597   20.1887 N   0  0  0  0  0  0  0  0  0  0  0  0
  -28.4902  -23.0056   19.4577 N   0  0  0  0  0  0  0  0  0  0  0  0
  -29.6382  -28.1059   20.2837 N   0  0  0  0  0  0  0  0  0  0  0  0
  -26.1722  -30.7851   21.3817 N   0  0  0  0  0  0  0  0  0  0  0  0
  -28.8020  -22.1671   21.6399 N   0  0  0  0  0  0  0  0  0  0  0  0
  -23.6973  -12.8181   20.0890 N   0  0  0  0  0  0  0  0  0  0  0  0
  -26.6970  -20.7450   26.7740 N   0  0  0  0  0  0  0  0  0  0  0  0
  -24.2643  -19.4636   18.6827 N   0  0  0  0  0  0  0  0  0  0  0  0
  -22.1170  -22.1152   19.8767 N   0  3  0  0  0  0  0  0  0  0  0  0
  -28.4546  -30.6792   21.1861 O   0  0  0  0  0  0  0  0  0  0  0  0
  -25.3796  -14.4112   20.3227 O   0  0  0  0  0  0  0  0  0  0  0  0
  -23.7384  -16.7640   17.8801 O   0  0  0  0  0  0  0  0  0  0  0  0
  -27.1193  -19.2235   28.4757 O   0  0  0  0  0  0  0  0  0  0  0  0
  -24.2509  -20.5051   20.7544 O   0  0  0  0  0  0  0  0  0  0  0  0
  -29.6260  -21.0213   19.7988 O   0  0  0  0  0  0  0  0  0  0  0  0
  -20.7767  -29.4029   21.2686 O   0  0  0  0  0  0  0  0  0  0  0  0
  -23.9214  -16.6470   26.3543 O   0  0  0  0  0  0  0  0  0  1  0  0
  -17.5184  -25.8463   23.9405 F   0  0  0  0  0  0  0  0  0  0  0  0
  -19.5449  -30.1134   23.6394 F   0  0  0  0  0  0  0  0  0  0  0  0
  1  2  1  0  0  0  0
  1  5  2  0  0  0  0
  2  6  2  0  0  0  0
  3  8  2  0  0  0  0
  3 18  1  0  0  0  0
  4  9  1  0  0  0  0
  4 18  2  0  0  0  0
  5 20  1  0  0  0  0
  6 22  1  0  0  0  0
  7 10  2  0  0  0  0
  7 21  1  0  0  0  0
  8 27  1  0  0  0  0
  9 27  2  0  0  0  0
 10 28  1  0  0  0  0
 11 12  2  0  0  0  0
 11 29  1  0  0  0  0
 12 30  1  0  0  0  0
 13 23  1  0  0  0  0
 13 28  2  0  0  0  0
 14 24  2  0  0  0  0
 14 25  1  0  0  0  0
 15 24  1  0  0  0  0
 15 26  2  0  0  0  0
 16 25  2  0  0  0  0
 16 26  1  0  0  0  0
 17 30  2  0  0  0  0
 17 31  1  0  0  0  0
 18 32  1  0  0  0  0
 19 32  1  0  0  0  0
 19 33  2  0  0  0  0
 19 34  1  0  0  0  0
 20 22  2  0  0  0  0
 20 40  1  0  0  0  0
 21 23  2  0  0  0  0
 21 41  1  0  0  0  0
 22 49  1  0  0  0  0
 23 42  1  0  0  0  0
 24 52  1  0  0  0  0
 25 58  1  0  0  0  0
 26 71  1  0  0  0  0
 27 82  1  0  0  0  0
 28 83  1  0  0  0  0
 29 31  2  0  0  0  0
 29 82  1  0  0  0  0
 30 84  1  0  0  0  0
 31 85  1  0  0  0  0
 32 65  2  0  0  0  0
 33 66  1  0  0  0  0
 33 69  1  0  0  0  0
 34 70  1  0  0  0  0
 34 76  2  0  0  0  0
 35 50  1  0  0  0  0
 35 72  1  0  0  0  0
 35 77  2  0  0  0  0
 36 62  1  0  0  0  0
 36 67  1  0  0  0  0
 36 78  2  0  0  0  0
 37 59  1  0  0  0  0
 37 73  1  0  0  0  0
 37 79  2  0  0  0  0
 38 63  1  0  0  0  0
 38 74  1  0  0  0  0
 38 80  2  0  0  0  0
 39 68  1  0  0  0  0
 39 71  1  0  0  0  0
 39 81  2  0  0  0  0
 40 43  1  0  0  0  0
 41 50  1  0  0  0  0
 42 67  1  0  0  0  0
 43 45  1  0  0  0  0
 44 46  1  0  0  0  0
 44 47  1  0  0  0  0
 45 49  1  0  0  0  0
 46 51  1  0  0  0  0
 47 68  1  0  0  0  0
 48 51  1  0  0  0  0
 48 68  1  0  0  0  0
 49 72  1  0  0  0  0
 50 67  1  0  0  0  0
 51 66  1  0  0  0  0
 53 63  1  0  0  0  0
 54 64  1  0  0  0  0
 55 64  1  0  0  0  0
 56 64  1  0  0  0  0
 57 75  1  0  0  0  0
 58 73  1  0  0  0  0
 59 60  1  0  0  0  0
 60 61  1  0  0  0  0
 61 83  1  0  0  0  0
 62 64  1  0  0  0  0
 62 74  1  0  0  0  0
 63 75  1  0  0  0  0
 65 66  1  0  0  0  0
M  CHG  1  75   1
M  ISO  4  39 100  61 101  71 100  83 101
M  END
> <Batch ID>
0059

> <Smiles>
CNC(C)C(=O)NC(C(=O)N1Cc2cc([101O:1][101CH2:1]CCC(=O)NCc3cc(C)cc([100NH:0][100C:0](=O)N4CCCC(n5nc(-c6ccc(Oc7ccc(F)cc7F)cc6)c(C(N)=O)c5N)C4)c3)ccc2CC1C(=O)NC1CCCc2ccccc21)C(C)(C)C

> <Shape>
0.225

> <Color>
0.064

> <Negative vol penalty>
0.000

$$$$

  -OEChem-04042323013D

 89 98  0     1  0  0  0  0  0999 V2000
  -30.8786  -34.8545   16.5068 C   0  0  0  0  0  0  0  0  0  0  0  0
  -30.3684  -33.5603   16.4878 C   0  0  0  0  0  0  0  0  0  0  0  0
  -30.9015  -19.2337   19.9116 C   0  0  0  0  0  0  0  0  0  0  0  0
  -22.8146   -9.8290   20.1759 C   0  0  0  0  0  0  0  0  0  0  0  0
  -24.1927   -9.6075   22.1479 C   0  0  0  0  0  0  0  0  0  0  0  0
  -31.1090  -35.4939   17.7242 C   0  0  0  0  0  0  0  0  0  0  0  0
  -30.0892  -32.9045   17.6863 C   0  0  0  0  0  0  0  0  0  0  0  0
  -25.5317  -28.9532   18.7458 C   0  0  0  0  0  0  0  0  0  0  0  0
  -30.0195  -20.1312   20.5134 C   0  0  0  0  0  0  0  0  0  0  0  0
  -30.7891  -17.8672   20.1684 C   0  0  0  0  0  0  0  0  0  0  0  0
  -22.1018   -8.6886   20.5459 C   0  0  0  0  0  0  0  0  0  0  0  0
  -23.4798   -8.4671   22.5180 C   0  0  0  0  0  0  0  0  0  0  0  0
  -25.4852  -27.5601   18.7718 C   0  0  0  0  0  0  0  0  0  0  0  0
  -20.5120   -7.7473   23.9651 C   0  0  0  0  0  0  0  0  0  0  0  0
  -20.1173   -7.6358   25.2983 C   0  0  0  0  0  0  0  0  0  0  0  0
  -25.7627  -27.6016   21.1677 C   0  0  0  0  0  0  0  0  0  0  0  0
  -21.3933   -5.5946   25.5053 C   0  0  0  0  0  0  0  0  0  0  0  0
  -23.8601  -10.2884   20.9768 C   0  0  0  0  0  0  0  0  0  0  0  0
  -24.0875  -12.7652   20.4098 C   0  0  0  0  0  0  0  0  0  0  0  0
  -30.8234  -34.8491   18.9380 C   0  0  0  0  0  0  0  0  0  0  0  0
  -25.7053  -29.6819   19.9312 C   0  0  0  0  0  0  0  0  0  0  0  0
  -30.3172  -33.5354   18.9210 C   0  0  0  0  0  0  0  0  0  0  0  0
  -25.8086  -29.0041   21.1543 C   0  0  0  0  0  0  0  0  0  0  0  0
  -29.0252  -19.6623   21.3720 C   0  0  0  0  0  0  0  0  0  0  0  0
  -28.9129  -18.2959   21.6288 C   0  0  0  0  0  0  0  0  0  0  0  0
  -29.7949  -17.3983   21.0269 C   0  0  0  0  0  0  0  0  0  0  0  0
  -22.4344   -8.0076   21.7170 C   0  0  0  0  0  0  0  0  0  0  0  0
  -25.6036  -26.8839   19.9826 C   0  0  0  0  0  0  0  0  0  0  0  0
  -21.3473   -6.7824   23.4020 C   0  0  0  0  0  0  0  0  0  0  0  0
  -20.5580   -6.5595   26.0684 C   0  0  0  0  0  0  0  0  0  0  0  0
  -21.7879   -5.7061   24.1721 C   0  0  0  0  0  0  0  0  0  0  0  0
  -24.5972  -11.4661   20.5948 C   0  0  0  0  0  0  0  0  0  0  0  0
  -25.1815  -13.5160   20.0549 C   0  0  0  0  0  0  0  0  0  0  0  0
  -26.7173  -21.3718   20.1432 C   0  0  0  0  0  0  0  0  0  0  0  0
  -26.6827  -18.5188   17.8314 C   0  0  0  0  0  0  0  0  0  0  0  0
  -26.6946  -20.6643   19.0036 C   0  0  0  0  0  0  0  0  0  0  0  0
  -26.7054  -19.2238   18.9681 C   0  0  0  0  0  0  0  0  0  0  0  0
  -22.7451  -13.2500   20.5467 C   0  0  0  0  0  0  0  0  0  0  0  0
  -27.9186  -31.6801   21.0323 C   0  0  0  0  0  0  0  0  0  0  0  0
  -25.8174  -32.0429   23.4768 C   0  0  0  0  0  0  0  0  0  0  0  0
  -23.2311  -30.7507   25.2900 C   0  0  0  0  0  0  0  0  0  0  0  0
  -30.5041  -14.9975   20.7457 C   0  0  0  0  0  0  0  0  0  0  0  0
  -31.1335  -35.5631   20.2298 C   0  0  0  0  0  0  0  0  0  0  0  0
  -25.7266  -31.1853   19.8894 C   0  0  0  0  0  0  0  0  0  0  0  0
  -25.9761  -29.7405   22.4574 C   0  0  0  0  0  0  0  0  0  0  0  0
  -26.7060  -22.8762   20.1766 C   0  0  0  0  0  0  0  0  0  0  0  0
  -30.4591  -34.9381   21.4483 C   0  0  0  0  0  0  0  0  0  0  0  0
  -29.8696  -12.1036   18.7708 C   0  0  0  0  0  0  0  0  0  0  0  0
  -30.6353  -33.4229   21.4374 C   0  0  0  0  0  0  0  0  0  0  0  0
  -28.3994  -11.7867   19.0541 C   0  0  0  0  0  0  0  0  0  0  0  0
  -25.6610  -22.6648   22.4616 C   0  0  0  0  0  0  0  0  0  0  0  0
  -30.5875  -12.6239   20.0149 C   0  0  0  0  0  0  0  0  0  0  0  0
  -28.4657  -13.4437   20.9611 C   0  0  0  0  0  0  0  0  0  0  0  0
  -25.6222  -21.1474   22.2958 C   0  0  0  0  0  0  0  0  0  0  0  0
  -29.9785  -32.8001   20.1996 C   0  0  1  0  0  0  0  0  0  0  0  0
  -26.4228  -31.8069   21.0962 C   0  0  1  0  0  0  0  0  0  0  0  0
  -25.5967  -23.3826   21.1063 C   0  0  1  0  0  0  0  0  0  0  0  0
  -27.6845  -12.9779   19.7216 C   0  0  2  0  0  0  0  0  0  0  0  0
  -27.8443  -17.7975   22.5506 C   0  0  0  0  0  0  0  0  0  0  0  0
  -21.7509  -31.2622   27.2508 C   0  0  0  0  0  0  0  0  0  0  0  0
  -28.1034  -31.3577   25.3780 C   0  0  0  0  0  0  0  0  0  0  0  0
  -26.4005  -30.9527   27.1681 C   0  0  0  0  0  0  0  0  0  0  0  0
  -26.6249  -33.2201   26.1527 C   0  0  0  0  0  0  0  0  0  0  0  0
  -20.7928  -30.6881   23.6137 C   0  0  0  0  0  0  0  0  0  0  0  0
  -28.0898  -20.6493   22.0059 C   0  0  0  0  0  0  0  0  0  0  0  0
  -25.6868  -24.8964   21.2859 C   0  0  0  0  0  0  0  0  0  1  0  0
  -25.5871  -31.3534   24.7998 C   0  0  1  0  0  0  0  0  0  0  0  0
  -21.9153  -31.3582   25.7420 C   0  0  2  0  0  0  0  0  0  0  0  0
  -26.6778  -31.7067   25.8501 C   0  0  0  0  0  0  0  0  0  0  0  0
  -25.9126  -11.3922   20.3754 N   0  0  0  0  0  0  0  0  0  0  0  0
  -26.2387  -12.6544   20.0487 N   0  0  0  0  0  0  0  0  0  0  0  0
  -25.9974  -31.2096   22.3637 N   0  0  0  0  0  0  0  0  0  0  0  0
  -29.8554  -13.7542   20.5906 N   0  0  0  0  0  0  0  0  0  0  0  0
  -25.3326  -14.8225   19.7505 N   0  0  0  0  0  0  0  0  0  0  0  0
  -22.3317  -13.7282   21.7976 N   0  0  0  0  0  0  0  0  0  0  0  0
  -29.6987  -16.0063   21.2731 N   0  0  0  0  0  0  0  0  0  0  0  0
  -28.5440  -32.7218   20.3741 N   0  0  0  0  0  0  0  0  0  0  0  0
  -24.2298  -31.6980   25.2089 N   0  0  0  0  0  0  0  0  0  0  0  0
  -26.7190  -20.6431   21.3874 N   0  3  2  0  0  0  0  0  0  0  0  0
  -20.7710  -30.6527   25.0987 N   0  3  0  0  0  0  0  0  0  0  0  0
  -21.9311  -13.2436   19.5923 O   0  0  0  0  0  0  0  0  0  0  0  0
  -28.4651  -30.7097   21.5437 O   0  0  0  0  0  0  0  0  0  0  0  0
  -25.8298  -33.2756   23.4313 O   0  0  0  0  0  0  0  0  0  0  0  0
  -23.3609  -29.5548   25.0379 O   0  0  0  0  0  0  0  0  0  0  0  0
  -31.6792  -15.1629   20.4083 O   0  0  0  0  0  0  0  0  0  0  0  0
  -21.7388   -6.8949   22.0785 O   0  0  0  0  0  0  0  0  0  0  0  0
  -25.5592  -25.5241   20.0108 O   0  0  0  0  0  0  0  0  0  1  0  0
  -20.1801   -6.4534   27.3491 F   0  0  0  0  0  0  0  0  0  0  0  0
  -22.5915   -4.7767   23.6370 F   0  0  0  0  0  0  0  0  0  0  0  0
  1  2  1  0  0  0  0
  1  6  2  0  0  0  0
  2  7  2  0  0  0  0
  3  9  2  0  0  0  0
  3 10  1  0  0  0  0
  4 11  2  0  0  0  0
  4 18  1  0  0  0  0
  5 12  1  0  0  0  0
  5 18  2  0  0  0  0
  6 20  1  0  0  0  0
  7 22  1  0  0  0  0
  8 13  2  0  0  0  0
  8 21  1  0  0  0  0
  9 24  1  0  0  0  0
 10 26  2  0  0  0  0
 11 27  1  0  0  0  0
 12 27  2  0  0  0  0
 13 28  1  0  0  0  0
 14 15  2  0  0  0  0
 14 29  1  0  0  0  0
 15 30  1  0  0  0  0
 16 23  1  0  0  0  0
 16 28  2  0  0  0  0
 17 30  2  0  0  0  0
 17 31  1  0  0  0  0
 18 32  1  0  0  0  0
 19 32  1  0  0  0  0
 19 33  2  0  0  0  0
 19 38  1  0  0  0  0
 20 22  2  0  0  0  0
 20 43  1  0  0  0  0
 21 23  2  0  0  0  0
 21 44  1  0  0  0  0
 22 55  1  0  0  0  0
 23 45  1  0  0  0  0
 24 25  2  0  0  0  0
 24 65  1  0  0  0  0
 25 26  1  0  0  0  0
 25 59  1  0  0  0  0
 26 76  1  0  0  0  0
 27 86  1  0  0  0  0
 28 87  1  0  0  0  0
 29 31  2  0  0  0  0
 29 86  1  0  0  0  0
 30 88  1  0  0  0  0
 31 89  1  0  0  0  0
 32 70  2  0  0  0  0
 33 71  1  0  0  0  0
 33 74  1  0  0  0  0
 34 36  2  0  0  0  0
 34 46  1  0  0  0  0
 34 79  1  0  0  0  0
 35 37  2  0  0  0  0
 36 37  1  0  0  0  0
 38 75  1  0  0  0  0
 38 81  2  0  0  0  0
 39 56  1  0  0  0  0
 39 77  1  0  0  0  0
 39 82  2  0  0  0  0
 40 67  1  0  0  0  0
 40 72  1  0  0  0  0
 40 83  2  0  0  0  0
 41 68  1  0  0  0  0
 41 78  1  0  0  0  0
 41 84  2  0  0  0  0
 42 73  1  0  0  0  0
 42 76  1  0  0  0  0
 42 85  2  0  0  0  0
 43 47  1  0  0  0  0
 44 56  1  0  0  0  0
 45 72  1  0  0  0  0
 46 57  1  0  0  0  0
 47 49  1  0  0  0  0
 48 50  1  0  0  0  0
 48 52  1  0  0  0  0
 49 55  1  0  0  0  0
 50 58  1  0  0  0  0
 51 54  1  0  0  0  0
 51 57  1  0  0  0  0
 52 73  1  0  0  0  0
 53 58  1  0  0  0  0
 53 73  1  0  0  0  0
 54 79  1  0  0  0  0
 55 77  1  0  0  0  0
 56 72  1  0  0  0  0
 57 66  1  0  0  0  0
 58 71  1  0  0  0  0
 60 68  1  0  0  0  0
 61 69  1  0  0  0  0
 62 69  1  0  0  0  0
 63 69  1  0  0  0  0
 64 80  1  0  0  0  0
 65 79  1  0  0  0  0
 66 87  1  0  0  0  0
 67 69  1  0  0  0  0
 67 78  1  0  0  0  0
 68 80  1  0  0  0  0
 70 71  1  0  0  0  0
M  CHG  2  79   1  80   1
M  ISO  4  42 100  66 101  76 100  87 101
M  END
> <Batch ID>
0059

> <Smiles>
C=CC=C1CC([101CH2:1][101O:1]c2ccc3c(c2)CN(C(=O)C(NC(=O)C(C)NC)C(C)(C)C)C(C(=O)NC2CCCc4ccccc42)C3)CCN1Cc1cccc([100NH:0][100C:0](=O)N2CCCC(n3nc(-c4ccc(Oc5ccc(F)cc5F)cc4)c(C(N)=O)c3N)C2)c1C

> <Shape>
0.323

> <Color>
0.161

> <Negative vol penalty>
0.000

$$$$

  -OEChem-04042323013D

 85 93  0     1  0  0  0  0  0999 V2000
  -29.3854  -23.6344   17.7267 C   0  0  0  0  0  0  0  0  0  0  0  0
  -28.2260  -23.7105   18.4919 C   0  0  0  0  0  0  0  0  0  0  0  0
  -28.3664  -14.6035   20.6878 C   0  0  0  0  0  0  0  0  0  0  0  0
  -26.1708  -15.6083   20.7714 C   0  0  0  0  0  0  0  0  0  0  0  0
  -30.4685  -24.4618   18.0203 C   0  0  0  0  0  0  0  0  0  0  0  0
  -28.1495  -24.6133   19.5518 C   0  0  0  0  0  0  0  0  0  0  0  0
  -23.7572  -27.1319   19.6455 C   0  0  0  0  0  0  0  0  0  0  0  0
  -27.7843  -13.3406   20.5785 C   0  0  0  0  0  0  0  0  0  0  0  0
  -25.5887  -14.3454   20.6620 C   0  0  0  0  0  0  0  0  0  0  0  0
  -22.6466  -26.4567   20.1499 C   0  0  0  0  0  0  0  0  0  0  0  0
  -24.9525  -11.7118   22.6845 C   0  0  0  0  0  0  0  0  0  0  0  0
  -23.8884  -11.4129   23.5352 C   0  0  0  0  0  0  0  0  0  0  0  0
  -23.6156  -22.8019   27.6003 C   0  0  0  0  0  0  0  0  0  0  0  0
  -22.9198  -27.5954   22.2589 C   0  0  0  0  0  0  0  0  0  0  0  0
  -25.9715  -22.2769   27.4934 C   0  0  0  0  0  0  0  0  0  0  0  0
  -22.4582  -11.0564   21.6209 C   0  0  0  0  0  0  0  0  0  0  0  0
  -27.5597  -15.7373   20.7843 C   0  0  0  0  0  0  0  0  0  0  0  0
  -23.4806  -22.4707   26.2522 C   0  0  0  0  0  0  0  0  0  0  0  0
  -28.5166  -17.9083   19.8469 C   0  0  0  0  0  0  0  0  0  0  0  0
  -30.4017  -25.3820   19.0783 C   0  0  0  0  0  0  0  0  0  0  0  0
  -24.4651  -28.0374   20.4488 C   0  0  0  0  0  0  0  0  0  0  0  0
  -29.2333  -25.4528   19.8607 C   0  0  0  0  0  0  0  0  0  0  0  0
  -24.0374  -28.2828   21.7615 C   0  0  0  0  0  0  0  0  0  0  0  0
  -24.5910  -22.0425   25.5246 C   0  0  0  0  0  0  0  0  0  0  0  0
  -25.8365  -21.9456   26.1452 C   0  0  0  0  0  0  0  0  0  0  0  0
  -26.3955  -13.2116   20.5655 C   0  0  0  0  0  0  0  0  0  0  0  0
  -22.2295  -26.6862   21.4578 C   0  0  0  0  0  0  0  0  0  0  0  0
  -24.7695  -11.6832   21.3019 C   0  0  0  0  0  0  0  0  0  0  0  0
  -22.6412  -11.0851   23.0035 C   0  0  0  0  0  0  0  0  0  0  0  0
  -24.8611  -22.7051   28.2210 C   0  0  0  0  0  0  0  0  0  0  0  0
  -23.5223  -11.3554   20.7702 C   0  0  0  0  0  0  0  0  0  0  0  0
  -28.1603  -17.0421   20.8978 C   0  0  0  0  0  0  0  0  0  0  0  0
  -29.0439  -19.0105   20.4742 C   0  0  0  0  0  0  0  0  0  0  0  0
  -22.1408  -22.5839   25.6203 C   0  0  0  0  0  0  0  0  0  0  0  0
  -28.3826  -17.7324   18.4302 C   0  0  0  0  0  0  0  0  0  0  0  0
  -27.4403  -28.2035   21.5553 C   0  0  0  0  0  0  0  0  0  0  0  0
  -26.4672  -31.1089   22.6203 C   0  0  0  0  0  0  0  0  0  0  0  0
  -23.8860  -33.1370   23.5535 C   0  0  0  0  0  0  0  0  0  0  0  0
  -28.2778  -21.3702   25.9101 C   0  0  0  0  0  0  0  0  0  0  0  0
  -31.6154  -26.2223   19.3873 C   0  0  0  0  0  0  0  0  0  0  0  0
  -25.6449  -28.7777   19.8811 C   0  0  0  0  0  0  0  0  0  0  0  0
  -24.7508  -29.2602   22.6583 C   0  0  0  0  0  0  0  0  0  0  0  0
  -31.3164  -27.4148   20.2921 C   0  0  0  0  0  0  0  0  0  0  0  0
  -31.3519  -20.3001   24.4672 C   0  0  0  0  0  0  0  0  0  0  0  0
  -30.4552  -26.9844   21.4753 C   0  0  0  0  0  0  0  0  0  0  0  0
  -30.9147  -19.4270   23.2888 C   0  0  0  0  0  0  0  0  0  0  0  0
  -30.4223  -20.1382   25.6686 C   0  0  0  0  0  0  0  0  0  0  0  0
  -28.5591  -19.4667   24.2034 C   0  0  0  0  0  0  0  0  0  0  0  0
  -29.1029  -26.4367   21.0031 C   0  0  1  0  0  0  0  0  0  0  0  0
  -26.5991  -29.2936   20.9539 C   0  0  1  0  0  0  0  0  0  0  0  0
  -29.4276  -19.6447   22.9474 C   0  0  2  0  0  0  0  0  0  0  0  0
  -24.4447  -21.6868   24.0777 C   0  0  0  0  0  0  0  0  0  0  0  0
  -23.4059  -35.4456   24.4120 C   0  0  0  0  0  0  0  0  0  0  0  0
  -27.4262  -30.2743   25.3940 C   0  0  0  0  0  0  0  0  0  0  0  0
  -26.0895  -32.1638   26.3484 C   0  0  0  0  0  0  0  0  0  0  0  0
  -27.9636  -32.6360   24.7713 C   0  0  0  0  0  0  0  0  0  0  0  0
  -22.2566  -33.8080   21.1758 C   0  0  0  0  0  0  0  0  0  0  0  0
  -20.3241  -24.4952   23.6061 C   0  0  0  0  0  0  0  0  0  0  0  0
  -20.2636  -24.1133   25.0790 C   0  0  0  0  0  0  0  0  0  0  0  0
  -21.1325  -25.7623   23.3549 C   0  0  0  0  0  0  0  0  0  1  0  0
  -25.8233  -31.6233   23.8851 C   0  0  1  0  0  0  0  0  0  0  0  0
  -23.5422  -34.5672   23.1782 C   0  0  2  0  0  0  0  0  0  0  0  0
  -26.8132  -31.6544   25.0837 C   0  0  0  0  0  0  0  0  0  0  0  0
  -28.4381  -17.5502   22.1015 N   0  0  0  0  0  0  0  0  0  0  0  0
  -28.9746  -18.7476   21.8107 N   0  0  0  0  0  0  0  0  0  0  0  0
  -25.9026  -29.9546   22.0594 N   0  0  0  0  0  0  0  0  0  0  0  0
  -29.0309  -20.3631   25.2705 N   0  0  0  0  0  0  0  0  0  0  0  0
  -29.5557  -20.1693   20.0074 N   0  0  0  0  0  0  0  0  0  0  0  0
  -27.8197  -16.5400   17.9553 N   0  0  0  0  0  0  0  0  0  0  0  0
  -26.9781  -21.5139   25.4255 N   0  0  0  0  0  0  0  0  0  0  0  0
  -21.5643  -23.8491   25.6291 N   0  0  0  0  0  0  0  0  0  0  0  0
  -28.2176  -27.5219   20.6384 N   0  0  0  0  0  0  0  0  0  0  0  0
  -25.2480  -32.9217   23.5513 N   0  0  0  0  0  0  0  0  0  0  0  0
  -22.2564  -34.6105   22.4260 N   0  3  0  0  0  0  0  0  0  0  0  0
  -21.6116  -21.5795   25.1517 O   0  0  0  0  0  0  0  0  0  0  0  0
  -28.7663  -18.5999   17.6093 O   0  0  0  0  0  0  0  0  0  0  0  0
  -27.3890  -27.9970   22.7622 O   0  0  0  0  0  0  0  0  0  0  0  0
  -27.4311  -31.7132   22.1434 O   0  0  0  0  0  0  0  0  0  0  0  0
  -23.0320  -32.2960   23.8254 O   0  0  0  0  0  0  0  0  0  0  0  0
  -28.7596  -22.0732   26.8022 O   0  0  0  0  0  0  0  0  0  0  0  0
  -25.8272  -11.9795   20.4586 O   0  0  0  0  0  0  0  0  0  0  0  0
  -21.1462  -26.0279   21.9529 O   0  0  0  0  0  0  0  0  0  1  0  0
  -21.6198  -10.7965   23.8206 F   0  0  0  0  0  0  0  0  0  0  0  0
  -24.9911  -23.0246   29.5154 F   0  0  0  0  0  0  0  0  0  0  0  0
  -23.3407  -11.3251   19.4428 F   0  0  0  0  0  0  0  0  0  0  0  0
  1  2  1  0  0  0  0
  1  5  2  0  0  0  0
  2  6  2  0  0  0  0
  3  8  2  0  0  0  0
  3 17  1  0  0  0  0
  4  9  1  0  0  0  0
  4 17  2  0  0  0  0
  5 20  1  0  0  0  0
  6 22  1  0  0  0  0
  7 10  2  0  0  0  0
  7 21  1  0  0  0  0
  8 26  1  0  0  0  0
  9 26  2  0  0  0  0
 10 27  1  0  0  0  0
 11 12  2  0  0  0  0
 11 28  1  0  0  0  0
 12 29  1  0  0  0  0
 13 18  1  0  0  0  0
 13 30  2  0  0  0  0
 14 23  1  0  0  0  0
 14 27  2  0  0  0  0
 15 25  2  0  0  0  0
 15 30  1  0  0  0  0
 16 29  2  0  0  0  0
 16 31  1  0  0  0  0
 17 32  1  0  0  0  0
 18 24  2  0  0  0  0
 18 34  1  0  0  0  0
 19 32  1  0  0  0  0
 19 33  2  0  0  0  0
 19 35  1  0  0  0  0
 20 22  2  0  0  0  0
 20 40  1  0  0  0  0
 21 23  2  0  0  0  0
 21 41  1  0  0  0  0
 22 49  1  0  0  0  0
 23 42  1  0  0  0  0
 24 25  1  0  0  0  0
 24 52  1  0  0  0  0
 25 70  1  0  0  0  0
 26 81  1  0  0  0  0
 27 82  1  0  0  0  0
 28 31  2  0  0  0  0
 28 81  1  0  0  0  0
 29 83  1  0  0  0  0
 30 84  1  0  0  0  0
 31 85  1  0  0  0  0
 32 64  2  0  0  0  0
 33 65  1  0  0  0  0
 33 68  1  0  0  0  0
 34 71  1  0  0  0  0
 34 75  2  0  0  0  0
 35 69  1  0  0  0  0
 35 76  2  0  0  0  0
 36 50  1  0  0  0  0
 36 72  1  0  0  0  0
 36 77  2  0  0  0  0
 37 61  1  0  0  0  0
 37 66  1  0  0  0  0
 37 78  2  0  0  0  0
 38 62  1  0  0  0  0
 38 73  1  0  0  0  0
 38 79  2  0  0  0  0
 39 67  1  0  0  0  0
 39 70  1  0  0  0  0
 39 80  2  0  0  0  0
 40 43  1  0  0  0  0
 41 50  1  0  0  0  0
 42 66  1  0  0  0  0
 43 45  1  0  0  0  0
 44 46  1  0  0  0  0
 44 47  1  0  0  0  0
 45 49  1  0  0  0  0
 46 51  1  0  0  0  0
 47 67  1  0  0  0  0
 48 51  1  0  0  0  0
 48 67  1  0  0  0  0
 49 72  1  0  0  0  0
 50 66  1  0  0  0  0
 51 65  1  0  0  0  0
 53 62  1  0  0  0  0
 54 63  1  0  0  0  0
 55 63  1  0  0  0  0
 56 63  1  0  0  0  0
 57 74  1  0  0  0  0
 58 59  1  0  0  0  0
 58 60  1  0  0  0  0
 59 71  1  0  0  0  0
 60 82  1  0  0  0  0
 61 63  1  0  0  0  0
 61 73  1  0  0  0  0
 62 74  1  0  0  0  0
 64 65  1  0  0  0  0
M  CHG  1  74   1
M  ISO  4  39 100  60 101  70 100  82 101
M  END
> <Batch ID>
0059

> <Smiles>
CNC(C)C(=O)NC(C(=O)N1Cc2cc([101O:1][101CH2:1]CCNC(=O)c3cc(F)cc([100NH:0][100C:0](=O)N4CCCC(n5nc(-c6ccc(Oc7ccc(F)cc7F)cc6)c(C(N)=O)c5N)C4)c3C)ccc2CC1C(=O)NC1CCCc2ccccc21)C(C)(C)C

> <Shape>
0.267

> <Color>
0.073

> <Negative vol penalty>
0.000

$$$$

  -OEChem-04042323013D

 85 93  0     1  0  0  0  0  0999 V2000
  -28.4802  -11.7271   20.1226 C   0  0  0  0  0  0  0  0  0  0  0  0
  -28.8928  -12.9890   19.7070 C   0  0  0  0  0  0  0  0  0  0  0  0
  -25.3082  -30.9920   22.0669 C   0  0  0  0  0  0  0  0  0  0  0  0
  -16.6893  -21.7737   19.4227 C   0  0  0  0  0  0  0  0  0  0  0  0
  -16.9446  -23.3435   17.6040 C   0  0  0  0  0  0  0  0  0  0  0  0
  -27.1497  -11.5127   20.4802 C   0  0  0  0  0  0  0  0  0  0  0  0
  -27.9749  -14.0371   19.6477 C   0  0  0  0  0  0  0  0  0  0  0  0
  -29.0565  -19.9493   20.8231 C   0  0  0  0  0  0  0  0  0  0  0  0
  -26.2336  -30.5606   21.1165 C   0  0  0  0  0  0  0  0  0  0  0  0
  -24.0549  -30.3849   22.1458 C   0  0  0  0  0  0  0  0  0  0  0  0
  -15.5951  -21.2008   18.7747 C   0  0  0  0  0  0  0  0  0  0  0  0
  -15.8504  -22.7705   16.9559 C   0  0  0  0  0  0  0  0  0  0  0  0
  -29.3113  -21.0395   19.9922 C   0  0  0  0  0  0  0  0  0  0  0  0
  -15.0586  -19.0345   16.2345 C   0  0  0  0  0  0  0  0  0  0  0  0
  -14.9926  -17.6422   16.1817 C   0  0  0  0  0  0  0  0  0  0  0  0
  -26.9759  -21.6385   20.0721 C   0  0  0  0  0  0  0  0  0  0  0  0
  -24.6522  -28.9151   20.3238 C   0  0  0  0  0  0  0  0  0  0  0  0
  -12.8924  -17.6966   17.3747 C   0  0  0  0  0  0  0  0  0  0  0  0
  -17.3641  -22.8451   18.8374 C   0  0  0  0  0  0  0  0  0  0  0  0
  -19.8469  -23.0698   19.3786 C   0  0  0  0  0  0  0  0  0  0  0  0
  -26.2171  -12.5609   20.4344 C   0  0  0  0  0  0  0  0  0  0  0  0
  -27.7554  -19.6888   21.2766 C   0  0  0  0  0  0  0  0  0  0  0  0
  -26.6304  -13.8361   20.0037 C   0  0  0  0  0  0  0  0  0  0  0  0
  -26.7077  -20.5458   20.9107 C   0  0  0  0  0  0  0  0  0  0  0  0
  -25.9055  -29.5222   20.2449 C   0  0  0  0  0  0  0  0  0  0  0  0
  -23.7268  -29.3465   21.2742 C   0  0  0  0  0  0  0  0  0  0  0  0
  -15.1757  -21.6991   17.5412 C   0  0  0  0  0  0  0  0  0  0  0  0
  -28.2705  -21.8826   19.6142 C   0  0  0  0  0  0  0  0  0  0  0  0
  -14.0415  -19.7578   16.8575 C   0  0  0  0  0  0  0  0  0  0  0  0
  -13.9095  -16.9733   16.7517 C   0  0  0  0  0  0  0  0  0  0  0  0
  -12.9584  -19.0889   17.4275 C   0  0  0  0  0  0  0  0  0  0  0  0
  -18.4941  -23.4378   19.5066 C   0  0  0  0  0  0  0  0  0  0  0  0
  -20.5172  -23.9298   20.2138 C   0  0  0  0  0  0  0  0  0  0  0  0
  -20.4441  -22.0425   18.5764 C   0  0  0  0  0  0  0  0  0  0  0  0
  -25.6999  -17.2882   20.9364 C   0  0  0  0  0  0  0  0  0  0  0  0
  -23.9475  -19.0017   23.0613 C   0  0  0  0  0  0  0  0  0  0  0  0
  -28.5705  -27.2160   19.1107 C   0  0  0  0  0  0  0  0  0  0  0  0
  -23.2435  -22.0352   24.4574 C   0  0  0  0  0  0  0  0  0  0  0  0
  -21.4209  -29.0366   22.2402 C   0  0  0  0  0  0  0  0  0  0  0  0
  -24.7796  -12.2695   20.7853 C   0  0  0  0  0  0  0  0  0  0  0  0
  -27.5018  -18.5241   22.1940 C   0  0  0  0  0  0  0  0  0  0  0  0
  -25.2966  -20.3215   21.3870 C   0  0  0  0  0  0  0  0  0  0  0  0
  -23.9516  -13.5237   21.0530 C   0  0  0  0  0  0  0  0  0  0  0  0
  -18.7778  -27.1547   23.7061 C   0  0  0  0  0  0  0  0  0  0  0  0
  -24.1997  -14.5685   19.9696 C   0  0  0  0  0  0  0  0  0  0  0  0
  -18.5796  -25.9896   22.7337 C   0  0  0  0  0  0  0  0  0  0  0  0
  -19.1204  -28.4516   22.9751 C   0  0  0  0  0  0  0  0  0  0  0  0
  -20.0560  -27.1948   21.0740 C   0  0  0  0  0  0  0  0  0  0  0  0
  -25.6698  -15.0042   19.9498 C   0  0  1  0  0  0  0  0  0  0  0  0
  -26.0495  -18.0570   22.1791 C   0  0  1  0  0  0  0  0  0  0  0  0
  -19.7730  -25.8525   21.7680 C   0  0  2  0  0  0  0  0  0  0  0  0
  -26.3983  -29.2170   17.7840 C   0  0  0  0  0  0  0  0  0  0  0  0
  -21.7363  -23.1269   26.1408 C   0  0  0  0  0  0  0  0  0  0  0  0
  -21.6322  -18.8558   21.0794 C   0  0  0  0  0  0  0  0  0  0  0  0
  -20.5245  -20.7112   22.3437 C   0  0  0  0  0  0  0  0  0  0  0  0
  -20.9792  -18.5334   23.4719 C   0  0  0  0  0  0  0  0  0  0  0  0
  -25.5346  -22.9074   26.1154 C   0  0  0  0  0  0  0  0  0  0  0  0
  -28.7366  -25.7516   19.4756 C   0  0  0  0  0  0  0  0  0  0  0  0
  -29.6919  -25.0218   18.5382 C   0  0  0  0  0  0  0  0  0  0  0  0
  -29.8084  -23.5461   18.8909 C   0  0  0  0  0  0  0  0  0  1  0  0
  -26.9099  -29.0545   19.2139 C   0  0  2  0  0  0  0  0  0  0  0  0
  -22.9050  -20.0886   22.9572 C   0  0  1  0  0  0  0  0  0  0  0  0
  -23.0853  -22.4658   25.9044 C   0  0  2  0  0  0  0  0  0  0  0  0
  -21.5364  -19.5506   22.4523 C   0  0  0  0  0  0  0  0  0  0  0  0
  -18.3140  -24.4524   20.3564 N   0  0  0  0  0  0  0  0  0  0  0  0
  -19.5623  -24.7292   20.7700 N   0  0  0  0  0  0  0  0  0  0  0  0
  -25.0981  -19.1658   22.2772 N   0  0  0  0  0  0  0  0  0  0  0  0
  -20.2627  -28.2466   22.0818 N   0  0  0  0  0  0  0  0  0  0  0  0
  -21.8243  -24.0725   20.5195 N   0  0  0  0  0  0  0  0  0  0  0  0
  -19.6100  -21.2499   17.7762 N   0  0  0  0  0  0  0  0  0  0  0  0
  -22.4538  -28.7295   21.3551 N   0  0  0  0  0  0  0  0  0  0  0  0
  -25.9371  -15.9301   21.0295 N   0  0  0  0  0  0  0  0  0  0  0  0
  -27.3136  -27.6898   19.4570 N   0  0  0  0  0  0  0  0  0  0  0  0
  -22.8493  -20.7276   24.2675 N   0  0  0  0  0  0  0  0  0  0  0  0
  -24.1550  -23.4344   26.2766 N   0  3  0  0  0  0  0  0  0  0  0  0
  -21.6791  -21.8228   18.5818 O   0  0  0  0  0  0  0  0  0  0  0  0
  -25.2469  -17.8830   19.9654 O   0  0  0  0  0  0  0  0  0  0  0  0
  -23.7514  -18.0460   23.8162 O   0  0  0  0  0  0  0  0  0  0  0  0
  -29.4526  -27.8823   18.5758 O   0  0  0  0  0  0  0  0  0  0  0  0
  -23.6703  -22.7851   23.5821 O   0  0  0  0  0  0  0  0  0  0  0  0
  -21.5015  -29.9021   23.1158 O   0  0  0  0  0  0  0  0  0  0  0  0
  -14.1081  -21.1401   16.9084 O   0  0  0  0  0  0  0  0  0  0  0  0
  -28.5163  -22.9470   18.8028 O   0  0  0  0  0  0  0  0  0  1  0  0
  -13.8454  -15.6363   16.6996 F   0  0  0  0  0  0  0  0  0  0  0  0
  -11.9777  -19.7784   18.0264 F   0  0  0  0  0  0  0  0  0  0  0  0
  1  2  1  0  0  0  0
  1  6  2  0  0  0  0
  2  7  2  0  0  0  0
  3  9  2  0  0  0  0
  3 10  1  0  0  0  0
  4 11  2  0  0  0  0
  4 19  1  0  0  0  0
  5 12  1  0  0  0  0
  5 19  2  0  0  0  0
  6 21  1  0  0  0  0
  7 23  1  0  0  0  0
  8 13  2  0  0  0  0
  8 22  1  0  0  0  0
  9 25  1  0  0  0  0
 10 26  2  0  0  0  0
 11 27  1  0  0  0  0
 12 27  2  0  0  0  0
 13 28  1  0  0  0  0
 14 15  2  0  0  0  0
 14 29  1  0  0  0  0
 15 30  1  0  0  0  0
 16 24  1  0  0  0  0
 16 28  2  0  0  0  0
 17 25  2  0  0  0  0
 17 26  1  0  0  0  0
 18 30  2  0  0  0  0
 18 31  1  0  0  0  0
 19 32  1  0  0  0  0
 20 32  1  0  0  0  0
 20 33  2  0  0  0  0
 20 34  1  0  0  0  0
 21 23  2  0  0  0  0
 21 40  1  0  0  0  0
 22 24  2  0  0  0  0
 22 41  1  0  0  0  0
 23 49  1  0  0  0  0
 24 42  1  0  0  0  0
 25 61  1  0  0  0  0
 26 71  1  0  0  0  0
 27 82  1  0  0  0  0
 28 83  1  0  0  0  0
 29 31  2  0  0  0  0
 29 82  1  0  0  0  0
 30 84  1  0  0  0  0
 31 85  1  0  0  0  0
 32 65  2  0  0  0  0
 33 66  1  0  0  0  0
 33 69  1  0  0  0  0
 34 70  1  0  0  0  0
 34 76  2  0  0  0  0
 35 50  1  0  0  0  0
 35 72  1  0  0  0  0
 35 77  2  0  0  0  0
 36 62  1  0  0  0  0
 36 67  1  0  0  0  0
 36 78  2  0  0  0  0
 37 58  1  0  0  0  0
 37 73  1  0  0  0  0
 37 79  2  0  0  0  0
 38 63  1  0  0  0  0
 38 74  1  0  0  0  0
 38 80  2  0  0  0  0
 39 68  1  0  0  0  0
 39 71  1  0  0  0  0
 39 81  2  0  0  0  0
 40 43  1  0  0  0  0
 41 50  1  0  0  0  0
 42 67  1  0  0  0  0
 43 45  1  0  0  0  0
 44 46  1  0  0  0  0
 44 47  1  0  0  0  0
 45 49  1  0  0  0  0
 46 51  1  0  0  0  0
 47 68  1  0  0  0  0
 48 51  1  0  0  0  0
 48 68  1  0  0  0  0
 49 72  1  0  0  0  0
 50 67  1  0  0  0  0
 51 66  1  0  0  0  0
 52 61  1  0  0  0  0
 53 63  1  0  0  0  0
 54 64  1  0  0  0  0
 55 64  1  0  0  0  0
 56 64  1  0  0  0  0
 57 75  1  0  0  0  0
 58 59  1  0  0  0  0
 59 60  1  0  0  0  0
 60 83  1  0  0  0  0
 61 73  1  0  0  0  0
 62 64  1  0  0  0  0
 62 74  1  0  0  0  0
 63 75  1  0  0  0  0
 65 66  1  0  0  0  0
M  CHG  1  75   1
M  ISO  4  39 100  60 101  71 100  83 101
M  END
> <Batch ID>
0059

> <Smiles>
CNC(C)C(=O)NC(C(=O)N1Cc2cc([101O:1][101CH2:1]CCC(=O)NC(C)c3cccc([100NH:0][100C:0](=O)N4CCCC(n5nc(-c6ccc(Oc7ccc(F)cc7F)cc6)c(C(N)=O)c5N)C4)c3)ccc2CC1C(=O)NC1CCCc2ccccc21)C(C)(C)C

> <Shape>
0.204

> <Color>
0.062

> <Negative vol penalty>
0.000

$$$$

  -OEChem-04042323013D

 86 94  0     1  0  0  0  0  0999 V2000
  -17.6747  -25.2085   25.1413 C   0  0  0  0  0  0  0  0  0  0  0  0
  -19.0329  -24.9075   25.1390 C   0  0  0  0  0  0  0  0  0  0  0  0
  -30.8527  -19.4413   21.0824 C   0  0  0  0  0  0  0  0  0  0  0  0
  -23.3246   -9.6878   19.9085 C   0  0  0  0  0  0  0  0  0  0  0  0
  -23.5512  -10.0267   22.2899 C   0  0  0  0  0  0  0  0  0  0  0  0
  -29.9199  -20.2959   21.6699 C   0  0  0  0  0  0  0  0  0  0  0  0
  -17.2112  -26.3390   24.4697 C   0  0  0  0  0  0  0  0  0  0  0  0
  -19.9284  -25.7363   24.4640 C   0  0  0  0  0  0  0  0  0  0  0  0
  -24.0927  -26.7134   27.1749 C   0  0  0  0  0  0  0  0  0  0  0  0
  -30.7286  -18.0606   21.2379 C   0  0  0  0  0  0  0  0  0  0  0  0
  -22.5914   -8.5247   20.1438 C   0  0  0  0  0  0  0  0  0  0  0  0
  -22.8180   -8.8637   22.5252 C   0  0  0  0  0  0  0  0  0  0  0  0
  -25.0662  -25.7168   27.2280 C   0  0  0  0  0  0  0  0  0  0  0  0
  -23.3618   -5.5269   22.4947 C   0  0  0  0  0  0  0  0  0  0  0  0
  -23.8425   -4.6419   23.4597 C   0  0  0  0  0  0  0  0  0  0  0  0
  -26.3397  -26.8794   25.5411 C   0  0  0  0  0  0  0  0  0  0  0  0
  -21.7967   -4.9032   24.7182 C   0  0  0  0  0  0  0  0  0  0  0  0
  -23.8045  -10.4388   20.9816 C   0  0  0  0  0  0  0  0  0  0  0  0
  -28.8631  -19.7700   22.4129 C   0  0  0  0  0  0  0  0  0  0  0  0
  -24.0610  -12.9482   20.6009 C   0  0  0  0  0  0  0  0  0  0  0  0
  -18.1026  -27.1874   23.7943 C   0  0  0  0  0  0  0  0  0  0  0  0
  -24.2302  -27.7967   26.2952 C   0  0  0  0  0  0  0  0  0  0  0  0
  -19.4762  -26.8785   23.7816 C   0  0  0  0  0  0  0  0  0  0  0  0
  -25.3677  -27.8898   25.4806 C   0  0  0  0  0  0  0  0  0  0  0  0
  -28.7389  -18.3893   22.5684 C   0  0  0  0  0  0  0  0  0  0  0  0
  -29.6717  -17.5347   21.9809 C   0  0  0  0  0  0  0  0  0  0  0  0
  -22.3381   -8.1127   21.4521 C   0  0  0  0  0  0  0  0  0  0  0  0
  -26.1885  -25.7982   26.4089 C   0  0  0  0  0  0  0  0  0  0  0  0
  -22.0986   -6.1001   22.6414 C   0  0  0  0  0  0  0  0  0  0  0  0
  -23.0599   -4.3300   24.5715 C   0  0  0  0  0  0  0  0  0  0  0  0
  -21.3161   -5.7882   23.7532 C   0  0  0  0  0  0  0  0  0  0  0  0
  -24.5624  -11.6400   20.7392 C   0  0  0  0  0  0  0  0  0  0  0  0
  -25.1751  -13.7220   20.3857 C   0  0  0  0  0  0  0  0  0  0  0  0
  -27.8856  -20.7063   23.0251 C   0  0  0  0  0  0  0  0  0  0  0  0
  -22.7090  -13.4215   20.6618 C   0  0  0  0  0  0  0  0  0  0  0  0
  -22.5649  -28.9061   23.8255 C   0  0  0  0  0  0  0  0  0  0  0  0
  -24.6987  -31.3443   23.9817 C   0  0  0  0  0  0  0  0  0  0  0  0
  -27.7850  -32.4361   24.9460 C   0  0  0  0  0  0  0  0  0  0  0  0
  -30.4162  -15.1587   21.5981 C   0  0  0  0  0  0  0  0  0  0  0  0
  -17.5490  -28.3720   23.0427 C   0  0  0  0  0  0  0  0  0  0  0  0
  -23.1842  -28.8772   26.2692 C   0  0  0  0  0  0  0  0  0  0  0  0
  -25.5726  -29.0428   24.5335 C   0  0  0  0  0  0  0  0  0  0  0  0
  -18.6089  -29.4041   22.6664 C   0  0  0  0  0  0  0  0  0  0  0  0
  -29.9596  -12.4029   19.3903 C   0  0  0  0  0  0  0  0  0  0  0  0
  -19.8334  -28.7183   22.0689 C   0  0  0  0  0  0  0  0  0  0  0  0
  -28.4735  -12.0664   19.5330 C   0  0  0  0  0  0  0  0  0  0  0  0
  -30.5725  -12.8394   20.7198 C   0  0  0  0  0  0  0  0  0  0  0  0
  -28.3769  -13.5922   21.5454 C   0  0  0  0  0  0  0  0  0  0  0  0
  -20.4818  -27.7667   23.0816 C   0  0  1  0  0  0  0  0  0  0  0  0
  -23.1764  -29.6700   24.9658 C   0  0  1  0  0  0  0  0  0  0  0  0
  -27.7001  -13.2096   20.2190 C   0  0  2  0  0  0  0  0  0  0  0  0
  -27.6043  -17.8262   23.3665 C   0  0  0  0  0  0  0  0  0  0  0  0
  -29.2578  -34.4674   24.9039 C   0  0  0  0  0  0  0  0  0  0  0  0
  -25.2828  -30.8566   21.0268 C   0  0  0  0  0  0  0  0  0  0  0  0
  -27.3690  -32.2161   21.2865 C   0  0  0  0  0  0  0  0  0  0  0  0
  -25.1408  -33.2670   21.6782 C   0  0  0  0  0  0  0  0  0  0  0  0
  -29.0673  -22.6333   26.6750 C   0  0  0  0  0  0  0  0  0  0  0  0
  -27.1190  -21.0530   26.6031 C   0  0  0  0  0  0  0  0  0  0  0  0
  -27.9049  -32.5531   27.9008 C   0  0  0  0  0  0  0  0  0  0  0  0
  -27.5802  -22.5768   24.6264 C   0  0  0  0  0  0  0  0  0  0  0  0
  -26.7072  -23.5105   26.8004 C   0  0  0  0  0  0  0  0  0  1  0  0
  -26.0504  -31.6229   23.3698 C   0  0  1  0  0  0  0  0  0  0  0  0
  -28.2243  -33.6811   25.6953 C   0  0  2  0  0  0  0  0  0  0  0  0
  -25.9562  -31.9678   21.8567 C   0  0  0  0  0  0  0  0  0  0  0  0
  -27.6258  -22.4400   26.1671 C   0  0  0  0  0  0  0  0  0  0  0  0
  -25.8916  -11.5822   20.6215 N   0  0  0  0  0  0  0  0  0  0  0  0
  -26.2349  -12.8637   20.4069 N   0  0  0  0  0  0  0  0  0  0  0  0
  -24.5188  -30.0709   24.5400 N   0  0  0  0  0  0  0  0  0  0  0  0
  -29.7897  -13.9279   21.3089 N   0  0  0  0  0  0  0  0  0  0  0  0
  -25.3419  -15.0460   20.1821 N   0  0  0  0  0  0  0  0  0  0  0  0
  -21.6853  -12.4920   20.8907 N   0  0  0  0  0  0  0  0  0  0  0  0
  -29.5649  -16.1292   22.1253 N   0  0  0  0  0  0  0  0  0  0  0  0
  -28.4030  -21.6221   23.9330 N   0  0  0  0  0  0  0  0  0  0  0  0
  -21.2596  -28.5114   24.0486 N   0  0  0  0  0  0  0  0  0  0  0  0
  -26.6594  -32.6689   24.1843 N   0  0  0  0  0  0  0  0  0  0  0  0
  -28.8208  -33.3111   27.0099 N   0  3  0  0  0  0  0  0  0  0  0  0
  -26.6982  -20.6155   22.7242 O   0  0  0  0  0  0  0  0  0  0  0  0
  -22.4157  -14.6305   20.5010 O   0  0  0  0  0  0  0  0  0  0  0  0
  -23.2278  -28.6921   22.8173 O   0  0  0  0  0  0  0  0  0  0  0  0
  -23.8367  -32.2266   23.9711 O   0  0  0  0  0  0  0  0  0  0  0  0
  -28.3828  -31.3652   25.0254 O   0  0  0  0  0  0  0  0  0  0  0  0
  -31.6134  -15.3473   21.3678 O   0  0  0  0  0  0  0  0  0  0  0  0
  -21.6225   -6.9779   21.6820 O   0  0  0  0  0  0  0  0  0  0  0  0
  -27.1400  -24.8266   26.4583 O   0  0  0  0  0  0  0  0  0  1  0  0
  -23.5210   -3.4789   25.4974 F   0  0  0  0  0  0  0  0  0  0  0  0
  -20.1013   -6.3349   23.8990 F   0  0  0  0  0  0  0  0  0  0  0  0
  1  2  1  0  0  0  0
  1  7  2  0  0  0  0
  2  8  2  0  0  0  0
  3  6  2  0  0  0  0
  3 10  1  0  0  0  0
  4 11  2  0  0  0  0
  4 18  1  0  0  0  0
  5 12  1  0  0  0  0
  5 18  2  0  0  0  0
  6 19  1  0  0  0  0
  7 21  1  0  0  0  0
  8 23  1  0  0  0  0
  9 13  2  0  0  0  0
  9 22  1  0  0  0  0
 10 26  2  0  0  0  0
 11 27  1  0  0  0  0
 12 27  2  0  0  0  0
 13 28  1  0  0  0  0
 14 15  2  0  0  0  0
 14 29  1  0  0  0  0
 15 30  1  0  0  0  0
 16 24  1  0  0  0  0
 16 28  2  0  0  0  0
 17 30  2  0  0  0  0
 17 31  1  0  0  0  0
 18 32  1  0  0  0  0
 19 25  2  0  0  0  0
 19 34  1  0  0  0  0
 20 32  1  0  0  0  0
 20 33  2  0  0  0  0
 20 35  1  0  0  0  0
 21 23  2  0  0  0  0
 21 40  1  0  0  0  0
 22 24  2  0  0  0  0
 22 41  1  0  0  0  0
 23 49  1  0  0  0  0
 24 42  1  0  0  0  0
 25 26  1  0  0  0  0
 25 52  1  0  0  0  0
 26 72  1  0  0  0  0
 27 83  1  0  0  0  0
 28 84  1  0  0  0  0
 29 31  2  0  0  0  0
 29 83  1  0  0  0  0
 30 85  1  0  0  0  0
 31 86  1  0  0  0  0
 32 66  2  0  0  0  0
 33 67  1  0  0  0  0
 33 70  1  0  0  0  0
 34 73  1  0  0  0  0
 34 77  2  0  0  0  0
 35 71  1  0  0  0  0
 35 78  2  0  0  0  0
 36 50  1  0  0  0  0
 36 74  1  0  0  0  0
 36 79  2  0  0  0  0
 37 62  1  0  0  0  0
 37 68  1  0  0  0  0
 37 80  2  0  0  0  0
 38 63  1  0  0  0  0
 38 75  1  0  0  0  0
 38 81  2  0  0  0  0
 39 69  1  0  0  0  0
 39 72  1  0  0  0  0
 39 82  2  0  0  0  0
 40 43  1  0  0  0  0
 41 50  1  0  0  0  0
 42 68  1  0  0  0  0
 43 45  1  0  0  0  0
 44 46  1  0  0  0  0
 44 47  1  0  0  0  0
 45 49  1  0  0  0  0
 46 51  1  0  0  0  0
 47 69  1  0  0  0  0
 48 51  1  0  0  0  0
 48 69  1  0  0  0  0
 49 74  1  0  0  0  0
 50 68  1  0  0  0  0
 51 67  1  0  0  0  0
 53 63  1  0  0  0  0
 54 64  1  0  0  0  0
 55 64  1  0  0  0  0
 56 64  1  0  0  0  0
 57 65  1  0  0  0  0
 58 65  1  0  0  0  0
 59 76  1  0  0  0  0
 60 65  1  0  0  0  0
 60 73  1  0  0  0  0
 61 65  1  0  0  0  0
 61 84  1  0  0  0  0
 62 64  1  0  0  0  0
 62 75  1  0  0  0  0
 63 76  1  0  0  0  0
 66 67  1  0  0  0  0
M  CHG  1  76   1
M  ISO  4  39 100  61 101  72 100  84 101
M  END
> <Batch ID>
0059

> <Smiles>
CNC(C)C(=O)NC(C(=O)N1Cc2cc([101O:1][101CH2:1]C(C)(C)CNC(=O)c3cccc([100NH:0][100C:0](=O)N4CCCC(n5nc(-c6ccc(Oc7ccc(F)cc7F)cc6)c(C(N)=O)c5N)C4)c3C)ccc2CC1C(=O)NC1CCCc2ccccc21)C(C)(C)C

> <Shape>
0.305

> <Color>
0.219

> <Negative vol penalty>
0.000

$$$$

  -OEChem-04042323013D

 83 91  0     1  0  0  0  0  0999 V2000
  -19.3256  -33.6305   23.2613 C   0  0  0  0  0  0  0  0  0  0  0  0
  -20.6343  -33.4517   22.8246 C   0  0  0  0  0  0  0  0  0  0  0  0
  -30.2014  -23.1551   15.2003 C   0  0  0  0  0  0  0  0  0  0  0  0
  -25.7645  -14.2565   21.4468 C   0  0  0  0  0  0  0  0  0  0  0  0
  -25.3735  -14.8840   19.1467 C   0  0  0  0  0  0  0  0  0  0  0  0
  -30.4261  -24.5149   15.4145 C   0  0  0  0  0  0  0  0  0  0  0  0
  -18.6547  -32.5857   23.8955 C   0  0  0  0  0  0  0  0  0  0  0  0
  -21.2733  -32.2283   23.0229 C   0  0  0  0  0  0  0  0  0  0  0  0
  -25.3348  -29.5506   19.3026 C   0  0  0  0  0  0  0  0  0  0  0  0
  -29.6397  -22.3735   16.2099 C   0  0  0  0  0  0  0  0  0  0  0  0
  -24.7004  -13.3571   21.3824 C   0  0  0  0  0  0  0  0  0  0  0  0
  -24.3093  -13.9844   19.0822 C   0  0  0  0  0  0  0  0  0  0  0  0
  -26.7279  -29.4976   19.3175 C   0  0  0  0  0  0  0  0  0  0  0  0
  -24.1310  -10.2553   20.1625 C   0  0  0  0  0  0  0  0  0  0  0  0
  -24.3251   -8.9821   20.6979 C   0  0  0  0  0  0  0  0  0  0  0  0
  -29.5274  -24.3116   17.6479 C   0  0  0  0  0  0  0  0  0  0  0  0
  -26.6288  -27.3671   20.4446 C   0  0  0  0  0  0  0  0  0  0  0  0
  -22.5104   -9.3572   22.2481 C   0  0  0  0  0  0  0  0  0  0  0  0
  -26.1010  -15.0200   20.3289 C   0  0  0  0  0  0  0  0  0  0  0  0
  -30.0891  -25.0932   16.6383 C   0  0  0  0  0  0  0  0  0  0  0  0
  -28.5508  -15.6920   20.0948 C   0  0  0  0  0  0  0  0  0  0  0  0
  -19.2825  -31.3457   24.0930 C   0  0  0  0  0  0  0  0  0  0  0  0
  -24.5770  -28.5157   19.8693 C   0  0  0  0  0  0  0  0  0  0  0  0
  -20.6106  -31.1664   23.6615 C   0  0  0  0  0  0  0  0  0  0  0  0
  -25.2262  -27.4081   20.4333 C   0  0  0  0  0  0  0  0  0  0  0  0
  -29.3028  -22.9517   17.4337 C   0  0  0  0  0  0  0  0  0  0  0  0
  -23.9728  -13.2210   20.2001 C   0  0  0  0  0  0  0  0  0  0  0  0
  -27.3751  -28.4072   19.8912 C   0  0  0  0  0  0  0  0  0  0  0  0
  -23.1266  -11.0796   20.6699 C   0  0  0  0  0  0  0  0  0  0  0  0
  -23.5148   -8.5330   21.7407 C   0  0  0  0  0  0  0  0  0  0  0  0
  -22.3163  -10.6306   21.7127 C   0  0  0  0  0  0  0  0  0  0  0  0
  -27.1998  -15.9498   20.3950 C   0  0  0  0  0  0  0  0  0  0  0  0
  -29.1857  -16.8902   20.3128 C   0  0  0  0  0  0  0  0  0  0  0  0
  -30.3289  -26.5417   16.8650 C   0  0  0  0  0  0  0  0  0  0  0  0
  -29.1759  -14.4779   19.6578 C   0  0  0  0  0  0  0  0  0  0  0  0
  -22.4921  -28.3118   22.2599 C   0  0  0  0  0  0  0  0  0  0  0  0
  -22.1412  -25.2737   21.1785 C   0  0  0  0  0  0  0  0  0  0  0  0
  -23.4715  -22.6333   19.4742 C   0  0  0  0  0  0  0  0  0  0  0  0
  -28.3401  -22.5741   19.7309 C   0  0  0  0  0  0  0  0  0  0  0  0
  -18.5331  -30.2612   24.8258 C   0  0  0  0  0  0  0  0  0  0  0  0
  -23.0748  -28.5751   19.8213 C   0  0  0  0  0  0  0  0  0  0  0  0
  -24.4584  -26.2615   21.0367 C   0  0  0  0  0  0  0  0  0  0  0  0
  -19.1526  -28.8757   24.6623 C   0  0  0  0  0  0  0  0  0  0  0  0
  -28.1316  -20.9719   22.9037 C   0  0  0  0  0  0  0  0  0  0  0  0
  -20.6617  -28.9371   24.8754 C   0  0  0  0  0  0  0  0  0  0  0  0
  -28.0022  -19.4879   22.5526 C   0  0  0  0  0  0  0  0  0  0  0  0
  -27.3828  -21.8573   21.9092 C   0  0  0  0  0  0  0  0  0  0  0  0
  -27.5939  -20.1482   20.1475 C   0  0  0  0  0  0  0  0  0  0  0  0
  -21.3291  -29.8460   23.8362 C   0  0  1  0  0  0  0  0  0  0  0  0
  -22.4083  -27.7094   20.8860 C   0  0  1  0  0  0  0  0  0  0  0  0
  -28.3856  -19.2207   21.0839 C   0  0  2  0  0  0  0  0  0  0  0  0
  -22.9637  -20.2729   18.7902 C   0  0  0  0  0  0  0  0  0  0  0  0
  -31.6640  -28.3555   19.7850 C   0  0  0  0  0  0  0  0  0  0  0  0
  -22.7192  -24.3282   24.0214 C   0  0  0  0  0  0  0  0  0  0  0  0
  -23.1373  -22.0380   23.1001 C   0  0  0  0  0  0  0  0  0  0  0  0
  -20.8857  -23.0848   22.8609 C   0  0  0  0  0  0  0  0  0  0  0  0
  -23.6407  -23.3076   16.5974 C   0  0  0  0  0  0  0  0  0  0  0  0
  -29.4235  -29.0002   18.8383 C   0  0  0  0  0  0  0  0  0  1  0  0
  -22.8098  -23.9517   21.4687 C   0  0  1  0  0  0  0  0  0  0  0  0
  -22.8940  -21.7389   18.3920 C   0  0  2  0  0  0  0  0  0  0  0  0
  -30.7522  -28.2974   18.5663 C   0  0  2  0  0  0  0  0  0  0  0  0
  -22.4028  -23.3730   22.8532 C   0  0  0  0  0  0  0  0  0  0  0  0
  -26.9880  -17.2126   20.7750 N   0  0  0  0  0  0  0  0  0  0  0  0
  -28.2143  -17.7590   20.7150 N   0  0  0  0  0  0  0  0  0  0  0  0
  -22.9916  -26.3690   20.9711 N   0  0  0  0  0  0  0  0  0  0  0  0
  -27.8005  -21.5513   20.5392 N   0  0  0  0  0  0  0  0  0  0  0  0
  -30.4746  -17.2749   20.1978 N   0  0  0  0  0  0  0  0  0  0  0  0
  -28.3766  -13.3398   19.4840 N   0  0  0  0  0  0  0  0  0  0  0  0
  -28.7319  -22.1576   18.4590 N   0  0  0  0  0  0  0  0  0  0  0  0
  -30.5309  -26.9217   18.1823 N   0  0  0  0  0  0  0  0  0  0  0  0
  -21.4462  -29.1611   22.5666 N   0  0  0  0  0  0  0  0  0  0  0  0
  -22.4971  -23.0800   20.3414 N   0  0  0  0  0  0  0  0  0  0  0  0
  -23.6461  -21.9161   17.1176 N   0  3  0  0  0  0  0  0  0  0  0  0
  -30.3161  -27.3093   15.9062 O   0  0  0  0  0  0  0  0  0  0  0  0
  -30.4095  -14.4002   19.4440 O   0  0  0  0  0  0  0  0  0  0  0  0
  -23.4351  -28.0260   22.9884 O   0  0  0  0  0  0  0  0  0  0  0  0
  -20.9099  -25.3310   21.1304 O   0  0  0  0  0  0  0  0  0  0  0  0
  -24.6680  -22.9052   19.5454 O   0  0  0  0  0  0  0  0  0  0  0  0
  -28.4719  -23.7282   20.1465 O   0  0  0  0  0  0  0  0  0  0  0  0
  -22.9346  -12.3432   20.1368 O   0  0  0  0  0  0  0  0  0  0  0  0
  -28.7348  -28.3532   19.9076 O   0  0  0  0  0  0  0  0  0  1  0  0
  -23.7004   -7.3097   22.2537 F   0  0  0  0  0  0  0  0  0  0  0  0
  -21.3490  -11.4174   22.2036 F   0  0  0  0  0  0  0  0  0  0  0  0
  1  2  1  0  0  0  0
  1  7  2  0  0  0  0
  2  8  2  0  0  0  0
  3  6  2  0  0  0  0
  3 10  1  0  0  0  0
  4 11  2  0  0  0  0
  4 19  1  0  0  0  0
  5 12  1  0  0  0  0
  5 19  2  0  0  0  0
  6 20  1  0  0  0  0
  7 22  1  0  0  0  0
  8 24  1  0  0  0  0
  9 13  2  0  0  0  0
  9 23  1  0  0  0  0
 10 26  2  0  0  0  0
 11 27  1  0  0  0  0
 12 27  2  0  0  0  0
 13 28  1  0  0  0  0
 14 15  2  0  0  0  0
 14 29  1  0  0  0  0
 15 30  1  0  0  0  0
 16 20  2  0  0  0  0
 16 26  1  0  0  0  0
 17 25  1  0  0  0  0
 17 28  2  0  0  0  0
 18 30  2  0  0  0  0
 18 31  1  0  0  0  0
 19 32  1  0  0  0  0
 20 34  1  0  0  0  0
 21 32  1  0  0  0  0
 21 33  2  0  0  0  0
 21 35  1  0  0  0  0
 22 24  2  0  0  0  0
 22 40  1  0  0  0  0
 23 25  2  0  0  0  0
 23 41  1  0  0  0  0
 24 49  1  0  0  0  0
 25 42  1  0  0  0  0
 26 69  1  0  0  0  0
 27 80  1  0  0  0  0
 28 81  1  0  0  0  0
 29 31  2  0  0  0  0
 29 80  1  0  0  0  0
 30 82  1  0  0  0  0
 31 83  1  0  0  0  0
 32 63  2  0  0  0  0
 33 64  1  0  0  0  0
 33 67  1  0  0  0  0
 34 70  1  0  0  0  0
 34 74  2  0  0  0  0
 35 68  1  0  0  0  0
 35 75  2  0  0  0  0
 36 50  1  0  0  0  0
 36 71  1  0  0  0  0
 36 76  2  0  0  0  0
 37 59  1  0  0  0  0
 37 65  1  0  0  0  0
 37 77  2  0  0  0  0
 38 60  1  0  0  0  0
 38 72  1  0  0  0  0
 38 78  2  0  0  0  0
 39 66  1  0  0  0  0
 39 69  1  0  0  0  0
 39 79  2  0  0  0  0
 40 43  1  0  0  0  0
 41 50  1  0  0  0  0
 42 65  1  0  0  0  0
 43 45  1  0  0  0  0
 44 46  1  0  0  0  0
 44 47  1  0  0  0  0
 45 49  1  0  0  0  0
 46 51  1  0  0  0  0
 47 66  1  0  0  0  0
 48 51  1  0  0  0  0
 48 66  1  0  0  0  0
 49 71  1  0  0  0  0
 50 65  1  0  0  0  0
 51 64  1  0  0  0  0
 52 60  1  0  0  0  0
 53 61  1  0  0  0  0
 54 62  1  0  0  0  0
 55 62  1  0  0  0  0
 56 62  1  0  0  0  0
 57 73  1  0  0  0  0
 58 61  1  0  0  0  0
 58 81  1  0  0  0  0
 59 62  1  0  0  0  0
 59 72  1  0  0  0  0
 60 73  1  0  0  0  0
 61 70  1  0  0  0  0
 63 64  1  0  0  0  0
M  CHG  1  73   1
M  ISO  4  39 100  58 101  69 100  81 101
M  END
> <Batch ID>
0059

> <Smiles>
CNC(C)C(=O)NC(C(=O)N1Cc2cc([101O:1][101CH2:1]C(C)NC(=O)c3cccc([100NH:0][100C:0](=O)N4CCCC(n5nc(-c6ccc(Oc7ccc(F)cc7F)cc6)c(C(N)=O)c5N)C4)c3)ccc2CC1C(=O)NC1CCCc2ccccc21)C(C)(C)C

> <Shape>
0.239

> <Color>
0.080

> <Negative vol penalty>
0.000

$$$$

  -OEChem-04042323013D

 83 91  0     1  0  0  0  0  0999 V2000
  -26.5283  -20.6319   25.8346 C   0  0  0  0  0  0  0  0  0  0  0  0
  -16.3814  -27.7081   27.8156 C   0  0  0  0  0  0  0  0  0  0  0  0
  -17.5689  -27.1932   27.3056 C   0  0  0  0  0  0  0  0  0  0  0  0
  -32.6527  -17.4893   23.4568 C   0  0  0  0  0  0  0  0  0  0  0  0
  -23.0753   -9.8686   19.9402 C   0  0  0  0  0  0  0  0  0  0  0  0
  -23.8349   -9.8745   22.2337 C   0  0  0  0  0  0  0  0  0  0  0  0
  -15.6975  -27.0198   28.8168 C   0  0  0  0  0  0  0  0  0  0  0  0
  -18.0738  -25.9900   27.7974 C   0  0  0  0  0  0  0  0  0  0  0  0
  -21.1090  -21.7075   24.6424 C   0  0  0  0  0  0  0  0  0  0  0  0
  -31.8550  -18.3559   24.2040 C   0  0  0  0  0  0  0  0  0  0  0  0
  -32.0645  -16.6057   22.5517 C   0  0  0  0  0  0  0  0  0  0  0  0
  -22.3310   -8.7156   20.1897 C   0  0  0  0  0  0  0  0  0  0  0  0
  -23.0906   -8.7215   22.4832 C   0  0  0  0  0  0  0  0  0  0  0  0
  -22.4683  -21.4274   24.5095 C   0  0  0  0  0  0  0  0  0  0  0  0
  -19.8621   -7.9247   23.0851 C   0  0  0  0  0  0  0  0  0  0  0  0
  -19.1050   -7.8846   24.2559 C   0  0  0  0  0  0  0  0  0  0  0  0
  -22.2887  -19.7622   26.2456 C   0  0  0  0  0  0  0  0  0  0  0  0
  -29.8810  -17.4553   23.1413 C   0  0  0  0  0  0  0  0  0  0  0  0
  -20.3457   -5.9464   24.9918 C   0  0  0  0  0  0  0  0  0  0  0  0
  -23.8273  -10.4480   20.9622 C   0  0  0  0  0  0  0  0  0  0  0  0
  -24.1700  -12.9731   20.8431 C   0  0  0  0  0  0  0  0  0  0  0  0
  -16.1893  -25.8027   29.3143 C   0  0  0  0  0  0  0  0  0  0  0  0
  -20.3304  -21.0235   25.5870 C   0  0  0  0  0  0  0  0  0  0  0  0
  -17.3966  -25.2854   28.8071 C   0  0  0  0  0  0  0  0  0  0  0  0
  -20.9192  -20.0336   26.3867 C   0  0  0  0  0  0  0  0  0  0  0  0
  -30.4692  -18.3389   24.0463 C   0  0  0  0  0  0  0  0  0  0  0  0
  -30.6787  -16.5887   22.3940 C   0  0  0  0  0  0  0  0  0  0  0  0
  -22.3386   -8.1421   21.4612 C   0  0  0  0  0  0  0  0  0  0  0  0
  -23.0590  -20.4567   25.3132 C   0  0  0  0  0  0  0  0  0  0  0  0
  -20.8609   -6.9756   22.8676 C   0  0  0  0  0  0  0  0  0  0  0  0
  -19.3468   -6.8955   25.2093 C   0  0  0  0  0  0  0  0  0  0  0  0
  -21.1027   -5.9865   23.8209 C   0  0  0  0  0  0  0  0  0  0  0  0
  -24.5968  -11.6387   20.7050 C   0  0  0  0  0  0  0  0  0  0  0  0
  -25.2625  -13.7223   20.4802 C   0  0  0  0  0  0  0  0  0  0  0  0
  -27.7975  -20.3745   25.7183 C   0  0  0  0  0  0  0  0  0  0  0  0
  -25.2662  -20.8912   25.9536 C   0  0  0  0  0  0  0  0  0  1  0  0
  -22.8997  -13.4892   21.2621 C   0  0  0  0  0  0  0  0  0  0  0  0
  -28.2772  -19.3311   24.7705 C   0  0  0  0  0  0  0  0  0  0  0  0
  -18.6535  -21.8734   28.1501 C   0  0  0  0  0  0  0  0  0  0  0  0
  -17.7546  -18.7568   28.1139 C   0  0  0  0  0  0  0  0  0  0  0  0
  -18.4496  -15.5519   27.1695 C   0  0  0  0  0  0  0  0  0  0  0  0
  -30.7290  -14.7659   20.6558 C   0  0  0  0  0  0  0  0  0  0  0  0
  -15.4397  -25.1186   30.4300 C   0  0  0  0  0  0  0  0  0  0  0  0
  -18.8598  -21.3185   25.6995 C   0  0  0  0  0  0  0  0  0  0  0  0
  -20.1228  -19.2567   27.4018 C   0  0  0  0  0  0  0  0  0  0  0  0
  -15.8464  -23.6614   30.6331 C   0  0  0  0  0  0  0  0  0  0  0  0
  -29.6140  -12.3533   18.2866 C   0  0  0  0  0  0  0  0  0  0  0  0
  -17.3658  -23.5269   30.6381 C   0  0  0  0  0  0  0  0  0  0  0  0
  -28.1742  -12.0621   18.7159 C   0  0  0  0  0  0  0  0  0  0  0  0
  -30.5291  -12.5814   19.4884 C   0  0  0  0  0  0  0  0  0  0  0  0
  -28.6222  -13.3060   20.8697 C   0  0  0  0  0  0  0  0  0  0  0  0
  -17.9634  -23.9706   29.2974 C   0  0  1  0  0  0  0  0  0  0  0  0
  -18.2726  -20.9227   27.0507 C   0  0  1  0  0  0  0  0  0  0  0  0
  -27.6495  -13.1335   19.6917 C   0  0  2  0  0  0  0  0  0  0  0  0
  -17.5465  -13.2152   27.3163 C   0  0  0  0  0  0  0  0  0  0  0  0
  -18.6650  -18.5903   31.0214 C   0  0  0  0  0  0  0  0  0  0  0  0
  -18.6384  -16.0954   30.8140 C   0  0  0  0  0  0  0  0  0  0  0  0
  -16.5264  -17.3916   30.5276 C   0  0  0  0  0  0  0  0  0  0  0  0
  -18.2311  -15.3272   24.2266 C   0  0  0  0  0  0  0  0  0  0  0  0
  -18.2912  -17.4823   28.7195 C   0  0  1  0  0  0  0  0  0  0  0  0
  -17.5966  -14.4934   26.4939 C   0  0  2  0  0  0  0  0  0  0  0  0
  -18.0459  -17.4057   30.2530 C   0  0  0  0  0  0  0  0  0  0  0  0
  -25.8617  -11.5426   20.2868 N   0  0  0  0  0  0  0  0  0  0  0  0
  -26.2391  -12.8261   20.1589 N   0  0  0  0  0  0  0  0  0  0  0  0
  -18.6899  -19.5859   27.4786 N   0  0  0  0  0  0  0  0  0  0  0  0
  -29.9704  -13.6121   20.3661 N   0  0  0  0  0  0  0  0  0  0  0  0
  -25.4734  -15.0537   20.4077 N   0  0  0  0  0  0  0  0  0  0  0  0
  -21.8874  -12.5803   21.5989 N   0  0  0  0  0  0  0  0  0  0  0  0
  -29.6599  -19.2196   24.8050 N   0  0  0  0  0  0  0  0  0  0  0  0
  -30.0819  -15.6909   21.4745 N   0  0  0  0  0  0  0  0  0  0  0  0
  -17.7857  -22.9385   28.2985 N   0  0  0  0  0  0  0  0  0  0  0  0
  -17.6928  -16.3876   27.9633 N   0  0  0  0  0  0  0  0  0  0  0  0
  -18.1473  -14.1654   25.1485 N   0  3  0  0  0  0  0  0  0  0  0  0
  -22.6639  -14.7199   21.3198 O   0  0  0  0  0  0  0  0  0  0  0  0
  -27.4851  -18.6966   24.0833 O   0  0  0  0  0  0  0  0  0  0  0  0
  -19.6593  -21.6559   28.8154 O   0  0  0  0  0  0  0  0  0  0  0  0
  -16.5488  -19.0041   28.1952 O   0  0  0  0  0  0  0  0  0  0  0  0
  -19.6662  -15.6273   27.0119 O   0  0  0  0  0  0  0  0  0  0  0  0
  -31.8582  -14.9344   20.1884 O   0  0  0  0  0  0  0  0  0  0  0  0
  -21.6122   -7.0172   21.7050 O   0  0  0  0  0  0  0  0  0  0  0  0
  -24.3857  -20.1818   25.1860 O   0  0  0  0  0  0  0  0  0  1  0  0
  -18.6207   -6.8581   26.3343 F   0  0  0  0  0  0  0  0  0  0  0  0
  -22.0617   -5.0727   23.6181 F   0  0  0  0  0  0  0  0  0  0  0  0
  1 35  2  0  0  0  0
  1 36  2  0  0  0  0
  2  3  1  0  0  0  0
  2  7  2  0  0  0  0
  3  8  2  0  0  0  0
  4 10  2  0  0  0  0
  4 11  1  0  0  0  0
  5 12  2  0  0  0  0
  5 20  1  0  0  0  0
  6 13  1  0  0  0  0
  6 20  2  0  0  0  0
  7 22  1  0  0  0  0
  8 24  1  0  0  0  0
  9 14  2  0  0  0  0
  9 23  1  0  0  0  0
 10 26  1  0  0  0  0
 11 27  2  0  0  0  0
 12 28  1  0  0  0  0
 13 28  2  0  0  0  0
 14 29  1  0  0  0  0
 15 16  2  0  0  0  0
 15 30  1  0  0  0  0
 16 31  1  0  0  0  0
 17 25  1  0  0  0  0
 17 29  2  0  0  0  0
 18 26  2  0  0  0  0
 18 27  1  0  0  0  0
 19 31  2  0  0  0  0
 19 32  1  0  0  0  0
 20 33  1  0  0  0  0
 21 33  1  0  0  0  0
 21 34  2  0  0  0  0
 21 37  1  0  0  0  0
 22 24  2  0  0  0  0
 22 43  1  0  0  0  0
 23 25  2  0  0  0  0
 23 44  1  0  0  0  0
 24 52  1  0  0  0  0
 25 45  1  0  0  0  0
 26 69  1  0  0  0  0
 27 70  1  0  0  0  0
 28 80  1  0  0  0  0
 29 81  1  0  0  0  0
 30 32  2  0  0  0  0
 30 80  1  0  0  0  0
 31 82  1  0  0  0  0
 32 83  1  0  0  0  0
 33 63  2  0  0  0  0
 34 64  1  0  0  0  0
 34 67  1  0  0  0  0
 35 38  1  0  0  0  0
 36 81  1  0  0  0  0
 37 68  1  0  0  0  0
 37 74  2  0  0  0  0
 38 69  1  0  0  0  0
 38 75  2  0  0  0  0
 39 53  1  0  0  0  0
 39 71  1  0  0  0  0
 39 76  2  0  0  0  0
 40 60  1  0  0  0  0
 40 65  1  0  0  0  0
 40 77  2  0  0  0  0
 41 61  1  0  0  0  0
 41 72  1  0  0  0  0
 41 78  2  0  0  0  0
 42 66  1  0  0  0  0
 42 70  1  0  0  0  0
 42 79  2  0  0  0  0
 43 46  1  0  0  0  0
 44 53  1  0  0  0  0
 45 65  1  0  0  0  0
 46 48  1  0  0  0  0
 47 49  1  0  0  0  0
 47 50  1  0  0  0  0
 48 52  1  0  0  0  0
 49 54  1  0  0  0  0
 50 66  1  0  0  0  0
 51 54  1  0  0  0  0
 51 66  1  0  0  0  0
 52 71  1  0  0  0  0
 53 65  1  0  0  0  0
 54 64  1  0  0  0  0
 55 61  1  0  0  0  0
 56 62  1  0  0  0  0
 57 62  1  0  0  0  0
 58 62  1  0  0  0  0
 59 73  1  0  0  0  0
 60 62  1  0  0  0  0
 60 72  1  0  0  0  0
 61 73  1  0  0  0  0
 63 64  1  0  0  0  0
M  CHG  1  73   1
M  ISO  4  36 101  42 100  70 100  81 101
M  END
> <Batch ID>
0059

> <Smiles>
CNC(C)C(=O)NC(C(=O)N1Cc2cc([101O:1][101CH:1]=C=CC(=O)Nc3cccc([100NH:0][100C:0](=O)N4CCCC(n5nc(-c6ccc(Oc7ccc(F)cc7F)cc6)c(C(N)=O)c5N)C4)c3)ccc2CC1C(=O)NC1CCCc2ccccc21)C(C)(C)C

> <Shape>
0.166

> <Color>
0.192

> <Negative vol penalty>
0.000

$$$$

  -OEChem-04042323013D

 83 91  0     1  0  0  0  0  0999 V2000
  -36.7877  -11.1660   18.1663 C   0  0  0  0  0  0  0  0  0  0  0  0
  -36.2101  -11.0261   19.4242 C   0  0  0  0  0  0  0  0  0  0  0  0
  -23.1924   -9.8188   19.9313 C   0  0  0  0  0  0  0  0  0  0  0  0
  -23.5663  -10.0015   22.3112 C   0  0  0  0  0  0  0  0  0  0  0  0
  -33.3769  -11.8018   25.1300 C   0  0  0  0  0  0  0  0  0  0  0  0
  -36.1502  -10.6368   17.0450 C   0  0  0  0  0  0  0  0  0  0  0  0
  -34.9939  -10.3579   19.5612 C   0  0  0  0  0  0  0  0  0  0  0  0
  -34.9846   -7.1195   23.4545 C   0  0  0  0  0  0  0  0  0  0  0  0
  -32.6518  -12.1117   23.9795 C   0  0  0  0  0  0  0  0  0  0  0  0
  -22.4261   -8.6721   20.1397 C   0  0  0  0  0  0  0  0  0  0  0  0
  -22.8000   -8.8548   22.5196 C   0  0  0  0  0  0  0  0  0  0  0  0
  -34.8241   -7.6582   24.7304 C   0  0  0  0  0  0  0  0  0  0  0  0
  -21.2416   -5.7714   23.6485 C   0  0  0  0  0  0  0  0  0  0  0  0
  -21.7368   -4.8126   24.5322 C   0  0  0  0  0  0  0  0  0  0  0  0
  -32.4923   -7.0413   24.6910 C   0  0  0  0  0  0  0  0  0  0  0  0
  -30.6888  -12.5214   25.3270 C   0  0  0  0  0  0  0  0  0  0  0  0
  -23.6980   -4.5480   23.1463 C   0  0  0  0  0  0  0  0  0  0  0  0
  -23.7626  -10.4835   21.0170 C   0  0  0  0  0  0  0  0  0  0  0  0
  -32.7580  -11.8517   26.3791 C   0  0  0  0  0  0  0  0  0  0  0  0
  -24.1008  -13.0001   20.7716 C   0  0  0  0  0  0  0  0  0  0  0  0
  -34.9304   -9.9533   17.1696 C   0  0  0  0  0  0  0  0  0  0  0  0
  -33.8958   -6.5465   22.7817 C   0  0  0  0  0  0  0  0  0  0  0  0
  -34.3388   -9.8202   18.4403 C   0  0  0  0  0  0  0  0  0  0  0  0
  -32.6422   -6.4938   23.4077 C   0  0  0  0  0  0  0  0  0  0  0  0
  -31.4140  -12.2115   26.4776 C   0  0  0  0  0  0  0  0  0  0  0  0
  -31.3077  -12.4715   24.0780 C   0  0  0  0  0  0  0  0  0  0  0  0
  -22.2299   -8.1901   21.4338 C   0  0  0  0  0  0  0  0  0  0  0  0
  -33.5772   -7.6218   25.3476 C   0  0  0  0  0  0  0  0  0  0  0  0
  -21.9746   -6.1185   22.5136 C   0  0  0  0  0  0  0  0  0  0  0  0
  -22.9650   -4.2009   24.2812 C   0  0  0  0  0  0  0  0  0  0  0  0
  -23.2028   -5.5069   22.2626 C   0  0  0  0  0  0  0  0  0  0  0  0
  -24.5547  -11.6678   20.8023 C   0  0  0  0  0  0  0  0  0  0  0  0
  -25.2322  -13.7429   20.5376 C   0  0  0  0  0  0  0  0  0  0  0  0
  -33.5581  -11.5144   27.5933 C   0  0  0  0  0  0  0  0  0  0  0  0
  -22.7751  -13.5197   20.9395 C   0  0  0  0  0  0  0  0  0  0  0  0
  -32.3443   -7.1772   20.0802 C   0  0  0  0  0  0  0  0  0  0  0  0
  -30.7950   -4.4150   20.7819 C   0  0  0  0  0  0  0  0  0  0  0  0
  -29.8187   -2.1625   23.1524 C   0  0  0  0  0  0  0  0  0  0  0  0
  -31.0351  -12.7853   21.5933 C   0  0  0  0  0  0  0  0  0  0  0  0
  -34.2554   -9.4397   15.9225 C   0  0  0  0  0  0  0  0  0  0  0  0
  -34.0916   -5.9458   21.4167 C   0  0  0  0  0  0  0  0  0  0  0  0
  -31.4462   -5.8715   22.7363 C   0  0  0  0  0  0  0  0  0  0  0  0
  -33.1549   -8.4194   16.2018 C   0  0  0  0  0  0  0  0  0  0  0  0
  -29.5280  -13.4635   18.4396 C   0  0  0  0  0  0  0  0  0  0  0  0
  -32.2477   -8.9071   17.3270 C   0  0  0  0  0  0  0  0  0  0  0  0
  -28.0396  -13.2071   18.6864 C   0  0  0  0  0  0  0  0  0  0  0  0
  -30.4081  -12.4795   19.2083 C   0  0  0  0  0  0  0  0  0  0  0  0
  -28.6454  -12.1390   20.8953 C   0  0  0  0  0  0  0  0  0  0  0  0
  -33.0328   -9.0803   18.6328 C   0  0  1  0  0  0  0  0  0  0  0  0
  -32.7969   -5.8483   20.6156 C   0  0  1  0  0  0  0  0  0  0  0  0
  -27.7204  -13.1465   20.1931 C   0  0  2  0  0  0  0  0  0  0  0  0
  -30.7267  -12.2715   27.8027 C   0  0  0  0  0  0  0  0  0  0  0  0
  -28.5315   -0.0260   23.4281 C   0  0  0  0  0  0  0  0  0  0  0  0
  -28.1778   -5.9588   20.5045 C   0  0  0  0  0  0  0  0  0  0  0  0
  -27.0251   -4.0809   21.6932 C   0  0  0  0  0  0  0  0  0  0  0  0
  -28.1480   -3.6667   19.5046 C   0  0  0  0  0  0  0  0  0  0  0  0
  -32.1946   -0.7279   24.1801 C   0  0  0  0  0  0  0  0  0  0  0  0
  -33.1093  -10.3502   28.4636 C   0  0  0  0  0  0  0  0  0  0  0  0
  -34.1790   -9.2657   28.5742 C   0  0  0  0  0  0  0  0  0  0  0  0
  -34.5704   -8.7207   27.2083 C   0  0  0  0  0  0  0  0  0  1  0  0
  -29.5578   -4.0530   21.5674 C   0  0  1  0  0  0  0  0  0  0  0  0
  -29.9001   -0.6473   23.1964 C   0  0  2  0  0  0  0  0  0  0  0  0
  -28.2491   -4.4534   20.8296 C   0  0  0  0  0  0  0  0  0  0  0  0
  -25.8716  -11.5670   20.6036 N   0  0  0  0  0  0  0  0  0  0  0  0
  -26.2550  -12.8454   20.4457 N   0  0  0  0  0  0  0  0  0  0  0  0
  -31.6868   -5.3033   21.3996 N   0  0  0  0  0  0  0  0  0  0  0  0
  -30.0518  -12.4792   20.6288 N   0  0  0  0  0  0  0  0  0  0  0  0
  -25.4419  -15.0697   20.4035 N   0  0  0  0  0  0  0  0  0  0  0  0
  -21.7283  -12.6173   21.1725 N   0  0  0  0  0  0  0  0  0  0  0  0
  -30.5719  -12.7861   22.9086 N   0  0  0  0  0  0  0  0  0  0  0  0
  -33.2657   -7.7954   19.2567 N   0  0  0  0  0  0  0  0  0  0  0  0
  -29.6647   -2.6285   21.8639 N   0  0  0  0  0  0  0  0  0  0  0  0
  -30.8073   -0.2089   24.2945 N   0  3  0  0  0  0  0  0  0  0  0  0
  -34.5553  -12.1816   27.8590 O   0  0  0  0  0  0  0  0  0  0  0  0
  -22.5236  -14.7465   20.8683 O   0  0  0  0  0  0  0  0  0  0  0  0
  -31.2401   -7.6090   20.3900 O   0  0  0  0  0  0  0  0  0  0  0  0
  -30.9676   -3.9220   19.6643 O   0  0  0  0  0  0  0  0  0  0  0  0
  -29.8813   -2.8624   24.1608 O   0  0  0  0  0  0  0  0  0  0  0  0
  -32.1956  -13.0555   21.2738 O   0  0  0  0  0  0  0  0  0  0  0  0
  -21.4821   -7.0712   21.6376 O   0  0  0  0  0  0  0  0  0  0  0  0
  -33.4176   -8.1474   26.5927 O   0  0  0  0  0  0  0  0  0  1  0  0
  -23.4410   -3.2812   25.1308 F   0  0  0  0  0  0  0  0  0  0  0  0
  -23.9121   -5.8370   21.1746 F   0  0  0  0  0  0  0  0  0  0  0  0
  1  2  1  0  0  0  0
  1  6  2  0  0  0  0
  2  7  2  0  0  0  0
  3 10  2  0  0  0  0
  3 18  1  0  0  0  0
  4 11  1  0  0  0  0
  4 18  2  0  0  0  0
  5  9  2  0  0  0  0
  5 19  1  0  0  0  0
  6 21  1  0  0  0  0
  7 23  1  0  0  0  0
  8 12  2  0  0  0  0
  8 22  1  0  0  0  0
  9 26  1  0  0  0  0
 10 27  1  0  0  0  0
 11 27  2  0  0  0  0
 12 28  1  0  0  0  0
 13 14  2  0  0  0  0
 13 29  1  0  0  0  0
 14 30  1  0  0  0  0
 15 24  1  0  0  0  0
 15 28  2  0  0  0  0
 16 25  1  0  0  0  0
 16 26  2  0  0  0  0
 17 30  2  0  0  0  0
 17 31  1  0  0  0  0
 18 32  1  0  0  0  0
 19 25  2  0  0  0  0
 19 34  1  0  0  0  0
 20 32  1  0  0  0  0
 20 33  2  0  0  0  0
 20 35  1  0  0  0  0
 21 23  2  0  0  0  0
 21 40  1  0  0  0  0
 22 24  2  0  0  0  0
 22 41  1  0  0  0  0
 23 49  1  0  0  0  0
 24 42  1  0  0  0  0
 25 52  1  0  0  0  0
 26 70  1  0  0  0  0
 27 80  1  0  0  0  0
 28 81  1  0  0  0  0
 29 31  2  0  0  0  0
 29 80  1  0  0  0  0
 30 82  1  0  0  0  0
 31 83  1  0  0  0  0
 32 64  2  0  0  0  0
 33 65  1  0  0  0  0
 33 68  1  0  0  0  0
 34 58  1  0  0  0  0
 34 74  2  0  0  0  0
 35 69  1  0  0  0  0
 35 75  2  0  0  0  0
 36 50  1  0  0  0  0
 36 71  1  0  0  0  0
 36 76  2  0  0  0  0
 37 61  1  0  0  0  0
 37 66  1  0  0  0  0
 37 77  2  0  0  0  0
 38 62  1  0  0  0  0
 38 72  1  0  0  0  0
 38 78  2  0  0  0  0
 39 67  1  0  0  0  0
 39 70  1  0  0  0  0
 39 79  2  0  0  0  0
 40 43  1  0  0  0  0
 41 50  1  0  0  0  0
 42 66  1  0  0  0  0
 43 45  1  0  0  0  0
 44 46  1  0  0  0  0
 44 47  1  0  0  0  0
 45 49  1  0  0  0  0
 46 51  1  0  0  0  0
 47 67  1  0  0  0  0
 48 51  1  0  0  0  0
 48 67  1  0  0  0  0
 49 71  1  0  0  0  0
 50 66  1  0  0  0  0
 51 65  1  0  0  0  0
 53 62  1  0  0  0  0
 54 63  1  0  0  0  0
 55 63  1  0  0  0  0
 56 63  1  0  0  0  0
 57 73  1  0  0  0  0
 58 59  1  0  0  0  0
 59 60  1  0  0  0  0
 60 81  1  0  0  0  0
 61 63  1  0  0  0  0
 61 72  1  0  0  0  0
 62 73  1  0  0  0  0
 64 65  1  0  0  0  0
M  CHG  1  73   1
M  ISO  4  39 100  60 101  70 100  81 101
M  END
> <Batch ID>
0059

> <Smiles>
CNC(C)C(=O)NC(C(=O)N1Cc2cc([101O:1][101CH2:1]CCC(=O)c3ccc([100NH:0][100C:0](=O)N4CCCC(n5nc(-c6ccc(Oc7ccc(F)cc7F)cc6)c(C(N)=O)c5N)C4)cc3C)ccc2CC1C(=O)NC1CCCc2ccccc21)C(C)(C)C

> <Shape>
0.138

> <Color>
0.186

> <Negative vol penalty>
0.000

$$$$

  -OEChem-04042323013D

 84 92  0     1  0  0  0  0  0999 V2000
  -32.3272  -31.9863   20.6102 C   0  0  0  0  0  0  0  0  0  0  0  0
  -31.4634  -31.0569   20.0396 C   0  0  0  0  0  0  0  0  0  0  0  0
  -28.5155  -23.9016   21.4532 C   0  0  0  0  0  0  0  0  0  0  0  0
  -26.6519  -12.4532   21.8011 C   0  0  0  0  0  0  0  0  0  0  0  0
  -25.9441  -13.9534   20.0446 C   0  0  0  0  0  0  0  0  0  0  0  0
  -27.9252  -24.0001   20.1933 C   0  0  0  0  0  0  0  0  0  0  0  0
  -32.1159  -32.4217   21.9177 C   0  0  0  0  0  0  0  0  0  0  0  0
  -30.3884  -30.5616   20.7767 C   0  0  0  0  0  0  0  0  0  0  0  0
  -26.0911  -30.4363   18.1003 C   0  0  0  0  0  0  0  0  0  0  0  0
  -29.0928  -22.6990   21.8608 C   0  0  0  0  0  0  0  0  0  0  0  0
  -25.3836  -11.8729   21.8166 C   0  0  0  0  0  0  0  0  0  0  0  0
  -24.6758  -13.3731   20.0600 C   0  0  0  0  0  0  0  0  0  0  0  0
  -25.9385  -29.3918   17.1895 C   0  0  0  0  0  0  0  0  0  0  0  0
  -23.6501   -9.6252   19.9793 C   0  0  0  0  0  0  0  0  0  0  0  0
  -23.5747   -8.2331   20.0197 C   0  0  0  0  0  0  0  0  0  0  0  0
  -24.5504  -28.2191   18.7761 C   0  0  0  0  0  0  0  0  0  0  0  0
  -22.3646   -8.3593   22.1071 C   0  0  0  0  0  0  0  0  0  0  0  0
  -26.9322  -13.4935   20.9151 C   0  0  0  0  0  0  0  0  0  0  0  0
  -27.9120  -22.8960   19.3410 C   0  0  0  0  0  0  0  0  0  0  0  0
  -29.3469  -13.7025   20.1194 C   0  0  0  0  0  0  0  0  0  0  0  0
  -31.0322  -31.9387   22.6679 C   0  0  0  0  0  0  0  0  0  0  0  0
  -25.4824  -30.3749   19.3622 C   0  0  0  0  0  0  0  0  0  0  0  0
  -30.1632  -30.9899   22.0960 C   0  0  0  0  0  0  0  0  0  0  0  0
  -24.6947  -29.2652   19.7001 C   0  0  0  0  0  0  0  0  0  0  0  0
  -28.4892  -21.6933   19.7487 C   0  0  0  0  0  0  0  0  0  0  0  0
  -29.0796  -21.5948   21.0086 C   0  0  0  0  0  0  0  0  0  0  0  0
  -24.3956  -12.3328   20.9461 C   0  0  0  0  0  0  0  0  0  0  0  0
  -25.1704  -28.2817   17.5284 C   0  0  0  0  0  0  0  0  0  0  0  0
  -23.0829  -10.3845   21.0027 C   0  0  0  0  0  0  0  0  0  0  0  0
  -22.9319   -7.6001   21.0836 C   0  0  0  0  0  0  0  0  0  0  0  0
  -22.4401   -9.7515   22.0666 C   0  0  0  0  0  0  0  0  0  0  0  0
  -28.2420  -14.0937   20.8990 C   0  0  0  0  0  0  0  0  0  0  0  0
  -30.3422  -14.5822   20.4685 C   0  0  0  0  0  0  0  0  0  0  0  0
  -27.2809  -23.0249   18.0122 C   0  0  0  0  0  0  0  0  0  0  0  0
  -29.4631  -12.6389   19.1649 C   0  0  0  0  0  0  0  0  0  0  0  0
  -26.5351  -30.3422   22.3612 C   0  0  0  0  0  0  0  0  0  0  0  0
  -23.3729  -30.5229   23.0616 C   0  0  0  0  0  0  0  0  0  0  0  0
  -20.1520  -29.9636   22.0821 C   0  0  0  0  0  0  0  0  0  0  0  0
  -30.2936  -20.1381   22.6671 C   0  0  0  0  0  0  0  0  0  0  0  0
  -30.8719  -32.4032   24.0938 C   0  0  0  0  0  0  0  0  0  0  0  0
  -25.6348  -31.5219   20.3232 C   0  0  0  0  0  0  0  0  0  0  0  0
  -24.0037  -29.1600   21.0342 C   0  0  0  0  0  0  0  0  0  0  0  0
  -29.4922  -32.1112   24.6781 C   0  0  0  0  0  0  0  0  0  0  0  0
  -31.8387  -17.2830   24.1291 C   0  0  0  0  0  0  0  0  0  0  0  0
  -29.0735  -30.6776   24.3678 C   0  0  0  0  0  0  0  0  0  0  0  0
  -31.1967  -16.1057   23.3915 C   0  0  0  0  0  0  0  0  0  0  0  0
  -30.8401  -18.4135   24.3706 C   0  0  0  0  0  0  0  0  0  0  0  0
  -29.4902  -17.7058   22.4351 C   0  0  0  0  0  0  0  0  0  0  0  0
  -28.9714  -30.4479   22.8550 C   0  0  1  0  0  0  0  0  0  0  0  0
  -25.3919  -31.1213   21.7750 C   0  0  1  0  0  0  0  0  0  0  0  0
  -30.4738  -16.5693   22.1117 C   0  0  2  0  0  0  0  0  0  0  0  0
  -28.4705  -20.5097   18.8325 C   0  0  0  0  0  0  0  0  0  0  0  0
  -17.7838  -30.1778   22.8839 C   0  0  0  0  0  0  0  0  0  0  0  0
  -23.7521  -28.0656   24.8302 C   0  0  0  0  0  0  0  0  0  0  0  0
  -21.2662  -27.7681   24.8301 C   0  0  0  0  0  0  0  0  0  0  0  0
  -22.2735  -29.8326   25.8026 C   0  0  0  0  0  0  0  0  0  0  0  0
  -19.4558  -31.8264   19.8902 C   0  0  0  0  0  0  0  0  0  0  0  0
  -25.3871  -24.9311   16.1974 C   0  0  0  0  0  0  0  0  0  0  0  0
  -25.2471  -23.5025   16.6962 C   0  0  0  0  0  0  0  0  0  0  0  0
  -24.8331  -25.9532   17.1819 C   0  0  0  0  0  0  0  0  0  1  0  0
  -22.2703  -29.5183   23.2940 C   0  0  1  0  0  0  0  0  0  0  0  0
  -18.9184  -30.8474   22.1243 C   0  0  2  0  0  0  0  0  0  0  0  0
  -22.4050  -28.7970   24.6647 C   0  0  0  0  0  0  0  0  0  0  0  0
  -28.5098  -15.1404   21.6843 N   0  0  0  0  0  0  0  0  0  0  0  0
  -29.7944  -15.4143   21.4000 N   0  0  0  0  0  0  0  0  0  0  0  0
  -24.1882  -30.3043   21.9421 N   0  0  0  0  0  0  0  0  0  0  0  0
  -30.1975  -18.8032   23.1136 N   0  0  0  0  0  0  0  0  0  0  0  0
  -31.6238  -14.7173   20.0665 N   0  0  0  0  0  0  0  0  0  0  0  0
  -28.0368  -22.8133   16.9348 N   0  0  0  0  0  0  0  0  0  0  0  0
  -28.3436  -11.8301   18.9262 N   0  0  0  0  0  0  0  0  0  0  0  0
  -29.6714  -20.3830   21.4433 N   0  0  0  0  0  0  0  0  0  0  0  0
  -27.7429  -31.0132   22.3397 N   0  0  0  0  0  0  0  0  0  0  0  0
  -21.0155  -30.2420   23.1204 N   0  0  0  0  0  0  0  0  0  0  0  0
  -25.9829  -23.3497   17.9515 N   0  3  0  0  0  0  0  0  0  0  0  0
  -18.4472  -31.1455   20.7423 N   0  3  0  0  0  0  0  0  0  0  0  0
  -30.5329  -12.4023   18.5541 O   0  0  0  0  0  0  0  0  0  0  0  0
  -26.3358  -29.2162   22.8019 O   0  0  0  0  0  0  0  0  0  0  0  0
  -23.5015  -31.4707   23.8406 O   0  0  0  0  0  0  0  0  0  0  0  0
  -20.3299  -29.1091   21.2168 O   0  0  0  0  0  0  0  0  0  0  0  0
  -30.9076  -20.9945   23.3087 O   0  0  0  0  0  0  0  0  0  0  0  0
  -23.1579  -11.7666   20.9607 O   0  0  0  0  0  0  0  0  0  0  0  0
  -25.0204  -27.2606   16.6415 O   0  0  0  0  0  0  0  0  0  1  0  0
  -22.8582   -6.2632   21.1216 F   0  0  0  0  0  0  0  0  0  0  0  0
  -21.8922  -10.4757   23.0522 F   0  0  0  0  0  0  0  0  0  0  0  0
  1  2  1  0  0  0  0
  1  7  2  0  0  0  0
  2  8  2  0  0  0  0
  3  6  2  0  0  0  0
  3 10  1  0  0  0  0
  4 11  2  0  0  0  0
  4 18  1  0  0  0  0
  5 12  1  0  0  0  0
  5 18  2  0  0  0  0
  6 19  1  0  0  0  0
  7 21  1  0  0  0  0
  8 23  1  0  0  0  0
  9 13  2  0  0  0  0
  9 22  1  0  0  0  0
 10 26  2  0  0  0  0
 11 27  1  0  0  0  0
 12 27  2  0  0  0  0
 13 28  1  0  0  0  0
 14 15  2  0  0  0  0
 14 29  1  0  0  0  0
 15 30  1  0  0  0  0
 16 24  1  0  0  0  0
 16 28  2  0  0  0  0
 17 30  2  0  0  0  0
 17 31  1  0  0  0  0
 18 32  1  0  0  0  0
 19 25  2  0  0  0  0
 19 34  1  0  0  0  0
 20 32  1  0  0  0  0
 20 33  2  0  0  0  0
 20 35  1  0  0  0  0
 21 23  2  0  0  0  0
 21 40  1  0  0  0  0
 22 24  2  0  0  0  0
 22 41  1  0  0  0  0
 23 49  1  0  0  0  0
 24 42  1  0  0  0  0
 25 26  1  0  0  0  0
 25 52  1  0  0  0  0
 26 71  1  0  0  0  0
 27 81  1  0  0  0  0
 28 82  1  0  0  0  0
 29 31  2  0  0  0  0
 29 81  1  0  0  0  0
 30 83  1  0  0  0  0
 31 84  1  0  0  0  0
 32 64  2  0  0  0  0
 33 65  1  0  0  0  0
 33 68  1  0  0  0  0
 34 69  1  0  0  0  0
 34 74  2  0  0  0  0
 35 70  1  0  0  0  0
 35 76  2  0  0  0  0
 36 50  1  0  0  0  0
 36 72  1  0  0  0  0
 36 77  2  0  0  0  0
 37 61  1  0  0  0  0
 37 66  1  0  0  0  0
 37 78  2  0  0  0  0
 38 62  1  0  0  0  0
 38 73  1  0  0  0  0
 38 79  2  0  0  0  0
 39 67  1  0  0  0  0
 39 71  1  0  0  0  0
 39 80  2  0  0  0  0
 40 43  1  0  0  0  0
 41 50  1  0  0  0  0
 42 66  1  0  0  0  0
 43 45  1  0  0  0  0
 44 46  1  0  0  0  0
 44 47  1  0  0  0  0
 45 49  1  0  0  0  0
 46 51  1  0  0  0  0
 47 67  1  0  0  0  0
 48 51  1  0  0  0  0
 48 67  1  0  0  0  0
 49 72  1  0  0  0  0
 50 66  1  0  0  0  0
 51 65  1  0  0  0  0
 53 62  1  0  0  0  0
 54 63  1  0  0  0  0
 55 63  1  0  0  0  0
 56 63  1  0  0  0  0
 57 75  1  0  0  0  0
 58 59  1  0  0  0  0
 58 60  1  0  0  0  0
 59 74  1  0  0  0  0
 60 82  1  0  0  0  0
 61 63  1  0  0  0  0
 61 73  1  0  0  0  0
 62 75  1  0  0  0  0
 64 65  1  0  0  0  0
M  CHG  2  74   1  75   1
M  ISO  4  39 100  60 101  71 100  82 101
M  END
> <Batch ID>
0059

> <Smiles>
CNC(C)C(=O)NC(C(=O)N1Cc2cc([101O:1][101CH2:1]CCNC(=N)c3cccc([100NH:0][100C:0](=O)N4CCCC(n5nc(-c6ccc(Oc7ccc(F)cc7F)cc6)c(C(N)=O)c5N)C4)c3C)ccc2CC1C(=O)NC1CCCc2ccccc21)C(C)(C)C

> <Shape>
0.262

> <Color>
0.082

> <Negative vol penalty>
0.000

$$$$

  -OEChem-04042323013D

 84 92  0     1  0  0  0  0  0999 V2000
  -25.4985  -32.8169   22.4416 C   0  0  0  0  0  0  0  0  0  0  0  0
  -25.6042  -31.4390   22.6024 C   0  0  0  0  0  0  0  0  0  0  0  0
  -32.2875  -17.8933   23.4663 C   0  0  0  0  0  0  0  0  0  0  0  0
  -23.1899   -9.7030   19.9562 C   0  0  0  0  0  0  0  0  0  0  0  0
  -23.8373   -9.8674   22.2780 C   0  0  0  0  0  0  0  0  0  0  0  0
  -24.2789  -33.4527   22.6697 C   0  0  0  0  0  0  0  0  0  0  0  0
  -24.4904  -30.6963   22.9926 C   0  0  0  0  0  0  0  0  0  0  0  0
  -23.9410  -26.4513   20.2866 C   0  0  0  0  0  0  0  0  0  0  0  0
  -31.4222  -18.7666   24.1251 C   0  0  0  0  0  0  0  0  0  0  0  0
  -31.7780  -16.9374   22.5874 C   0  0  0  0  0  0  0  0  0  0  0  0
  -22.4791   -8.5362   20.2369 C   0  0  0  0  0  0  0  0  0  0  0  0
  -23.1265   -8.7005   22.5588 C   0  0  0  0  0  0  0  0  0  0  0  0
  -24.7646  -25.3755   20.6155 C   0  0  0  0  0  0  0  0  0  0  0  0
  -19.9057   -7.8066   23.0563 C   0  0  0  0  0  0  0  0  0  0  0  0
  -19.0951   -7.8005   24.1915 C   0  0  0  0  0  0  0  0  0  0  0  0
  -22.9543  -24.3776   21.8590 C   0  0  0  0  0  0  0  0  0  0  0  0
  -29.5377  -17.7282   23.0262 C   0  0  0  0  0  0  0  0  0  0  0  0
  -20.3722   -5.9587   25.0936 C   0  0  0  0  0  0  0  0  0  0  0  0
  -23.8690  -10.3686   20.9767 C   0  0  0  0  0  0  0  0  0  0  0  0
  -24.1201  -12.8951   20.7288 C   0  0  0  0  0  0  0  0  0  0  0  0
  -23.1471  -32.7161   23.0535 C   0  0  0  0  0  0  0  0  0  0  0  0
  -22.6190  -26.5037   20.7513 C   0  0  0  0  0  0  0  0  0  0  0  0
  -23.2548  -31.3230   23.2274 C   0  0  0  0  0  0  0  0  0  0  0  0
  -22.1152  -25.4539   21.5325 C   0  0  0  0  0  0  0  0  0  0  0  0
  -30.0472  -18.6841   23.9051 C   0  0  0  0  0  0  0  0  0  0  0  0
  -30.4031  -16.8549   22.3674 C   0  0  0  0  0  0  0  0  0  0  0  0
  -22.4474   -8.0349   21.5382 C   0  0  0  0  0  0  0  0  0  0  0  0
  -24.2722  -24.3398   21.4042 C   0  0  0  0  0  0  0  0  0  0  0  0
  -20.9495   -6.8886   22.9398 C   0  0  0  0  0  0  0  0  0  0  0  0
  -19.3284   -6.8766   25.2101 C   0  0  0  0  0  0  0  0  0  0  0  0
  -21.1827   -5.9647   23.9584 C   0  0  0  0  0  0  0  0  0  0  0  0
  -24.6038  -11.5737   20.6872 C   0  0  0  0  0  0  0  0  0  0  0  0
  -25.1992  -13.6672   20.3741 C   0  0  0  0  0  0  0  0  0  0  0  0
  -22.8122  -13.3812   21.0586 C   0  0  0  0  0  0  0  0  0  0  0  0
  -20.9769  -28.4765   22.6262 C   0  0  0  0  0  0  0  0  0  0  0  0
  -18.4756  -26.6107   21.7405 C   0  0  0  0  0  0  0  0  0  0  0  0
  -27.7823  -19.6266   24.4749 C   0  0  0  0  0  0  0  0  0  0  0  0
  -17.3781  -23.5902   20.5920 C   0  0  0  0  0  0  0  0  0  0  0  0
  -30.6069  -14.9421   20.7407 C   0  0  0  0  0  0  0  0  0  0  0  0
  -21.8620  -33.4537   23.3346 C   0  0  0  0  0  0  0  0  0  0  0  0
  -21.7353  -27.6580   20.3655 C   0  0  0  0  0  0  0  0  0  0  0  0
  -20.6971  -25.4526   22.0396 C   0  0  0  0  0  0  0  0  0  0  0  0
  -20.6361  -32.5452   23.3820 C   0  0  0  0  0  0  0  0  0  0  0  0
  -29.7007  -12.3581   18.4650 C   0  0  0  0  0  0  0  0  0  0  0  0
  -20.9211  -31.3077   24.2271 C   0  0  0  0  0  0  0  0  0  0  0  0
  -28.2541  -12.0324   18.8437 C   0  0  0  0  0  0  0  0  0  0  0  0
  -30.5474  -12.6898   19.6926 C   0  0  0  0  0  0  0  0  0  0  0  0
  -28.5498  -13.4112   20.9409 C   0  0  0  0  0  0  0  0  0  0  0  0
  -22.0630  -30.4797   23.6255 C   0  0  1  0  0  0  0  0  0  0  0  0
  -20.5629  -27.8583   21.3208 C   0  0  1  0  0  0  0  0  0  0  0  0
  -27.6423  -13.1339   19.7313 C   0  0  2  0  0  0  0  0  0  0  0  0
  -15.2763  -22.3520   20.0033 C   0  0  0  0  0  0  0  0  0  0  0  0
  -17.8756  -26.2236   24.7070 C   0  0  0  0  0  0  0  0  0  0  0  0
  -16.4227  -24.2808   24.0883 C   0  0  0  0  0  0  0  0  0  0  0  0
  -15.8575  -26.5688   23.2709 C   0  0  0  0  0  0  0  0  0  0  0  0
  -18.2339  -23.2399   17.7807 C   0  0  0  0  0  0  0  0  0  0  0  0
  -27.2264  -20.7317   25.3647 C   0  0  0  0  0  0  0  0  0  0  0  0
  -25.9339  -21.3565   24.8408 C   0  0  0  0  0  0  0  0  0  0  0  0
  -26.1293  -22.0557   23.4949 C   0  0  0  0  0  0  0  0  0  0  0  0
  -24.8236  -22.6396   22.9730 C   0  0  0  0  0  0  0  0  0  1  0  0
  -17.8382  -25.3518   22.2771 C   0  0  1  0  0  0  0  0  0  0  0  0
  -16.4068  -23.2265   19.4836 C   0  0  2  0  0  0  0  0  0  0  0  0
  -17.0259  -25.6069   23.5781 C   0  0  0  0  0  0  0  0  0  0  0  0
  -25.8902  -11.5065   20.3338 N   0  0  0  0  0  0  0  0  0  0  0  0
  -26.2238  -12.7953   20.1500 N   0  0  0  0  0  0  0  0  0  0  0  0
  -19.8741  -26.6063   21.6407 N   0  0  0  0  0  0  0  0  0  0  0  0
  -29.9079  -13.7439   20.4831 N   0  0  0  0  0  0  0  0  0  0  0  0
  -25.3622  -15.0001   20.2351 N   0  0  0  0  0  0  0  0  0  0  0  0
  -21.8204  -12.4516   21.4002 N   0  0  0  0  0  0  0  0  0  0  0  0
  -29.1698  -19.5708   24.5735 N   0  0  0  0  0  0  0  0  0  0  0  0
  -29.8861  -15.8838   21.4743 N   0  0  0  0  0  0  0  0  0  0  0  0
  -21.5879  -29.7091   22.4963 N   0  0  0  0  0  0  0  0  0  0  0  0
  -17.0527  -24.7932   21.1820 N   0  0  0  0  0  0  0  0  0  0  0  0
  -17.1121  -22.4873   18.3987 N   0  3  0  0  0  0  0  0  0  0  0  0
  -22.5268  -14.6025   21.0348 O   0  0  0  0  0  0  0  0  0  0  0  0
  -20.7570  -27.8800   23.6739 O   0  0  0  0  0  0  0  0  0  0  0  0
  -17.7586  -27.5602   21.4151 O   0  0  0  0  0  0  0  0  0  0  0  0
  -27.0549  -18.9023   23.8037 O   0  0  0  0  0  0  0  0  0  0  0  0
  -18.3283  -22.8765   20.9058 O   0  0  0  0  0  0  0  0  0  0  0  0
  -31.7501  -15.1305   20.3168 O   0  0  0  0  0  0  0  0  0  0  0  0
  -21.7538   -6.8964   21.8125 O   0  0  0  0  0  0  0  0  0  0  0  0
  -25.0741  -23.2889   21.7272 O   0  0  0  0  0  0  0  0  0  1  0  0
  -18.5509   -6.8720   26.3008 F   0  0  0  0  0  0  0  0  0  0  0  0
  -22.1847   -5.0812   23.8526 F   0  0  0  0  0  0  0  0  0  0  0  0
  1  2  1  0  0  0  0
  1  6  2  0  0  0  0
  2  7  2  0  0  0  0
  3  9  2  0  0  0  0
  3 10  1  0  0  0  0
  4 11  2  0  0  0  0
  4 19  1  0  0  0  0
  5 12  1  0  0  0  0
  5 19  2  0  0  0  0
  6 21  1  0  0  0  0
  7 23  1  0  0  0  0
  8 13  2  0  0  0  0
  8 22  1  0  0  0  0
  9 25  1  0  0  0  0
 10 26  2  0  0  0  0
 11 27  1  0  0  0  0
 12 27  2  0  0  0  0
 13 28  1  0  0  0  0
 14 15  2  0  0  0  0
 14 29  1  0  0  0  0
 15 30  1  0  0  0  0
 16 24  1  0  0  0  0
 16 28  2  0  0  0  0
 17 25  2  0  0  0  0
 17 26  1  0  0  0  0
 18 30  2  0  0  0  0
 18 31  1  0  0  0  0
 19 32  1  0  0  0  0
 20 32  1  0  0  0  0
 20 33  2  0  0  0  0
 20 34  1  0  0  0  0
 21 23  2  0  0  0  0
 21 40  1  0  0  0  0
 22 24  2  0  0  0  0
 22 41  1  0  0  0  0
 23 49  1  0  0  0  0
 24 42  1  0  0  0  0
 25 70  1  0  0  0  0
 26 71  1  0  0  0  0
 27 81  1  0  0  0  0
 28 82  1  0  0  0  0
 29 31  2  0  0  0  0
 29 81  1  0  0  0  0
 30 83  1  0  0  0  0
 31 84  1  0  0  0  0
 32 64  2  0  0  0  0
 33 65  1  0  0  0  0
 33 68  1  0  0  0  0
 34 69  1  0  0  0  0
 34 75  2  0  0  0  0
 35 50  1  0  0  0  0
 35 72  1  0  0  0  0
 35 76  2  0  0  0  0
 36 61  1  0  0  0  0
 36 66  1  0  0  0  0
 36 77  2  0  0  0  0
 37 57  1  0  0  0  0
 37 70  1  0  0  0  0
 37 78  2  0  0  0  0
 38 62  1  0  0  0  0
 38 73  1  0  0  0  0
 38 79  2  0  0  0  0
 39 67  1  0  0  0  0
 39 71  1  0  0  0  0
 39 80  2  0  0  0  0
 40 43  1  0  0  0  0
 41 50  1  0  0  0  0
 42 66  1  0  0  0  0
 43 45  1  0  0  0  0
 44 46  1  0  0  0  0
 44 47  1  0  0  0  0
 45 49  1  0  0  0  0
 46 51  1  0  0  0  0
 47 67  1  0  0  0  0
 48 51  1  0  0  0  0
 48 67  1  0  0  0  0
 49 72  1  0  0  0  0
 50 66  1  0  0  0  0
 51 65  1  0  0  0  0
 52 62  1  0  0  0  0
 53 63  1  0  0  0  0
 54 63  1  0  0  0  0
 55 63  1  0  0  0  0
 56 74  1  0  0  0  0
 57 58  1  0  0  0  0
 58 59  1  0  0  0  0
 59 60  1  0  0  0  0
 60 82  1  0  0  0  0
 61 63  1  0  0  0  0
 61 73  1  0  0  0  0
 62 74  1  0  0  0  0
 64 65  1  0  0  0  0
M  CHG  1  74   1
M  ISO  4  39 100  60 101  71 100  82 101
M  END
> <Batch ID>
0059

> <Smiles>
CNC(C)C(=O)NC(C(=O)N1Cc2cc([101O:1][101CH2:1]CCCC(=O)Nc3cccc([100NH:0][100C:0](=O)N4CCCC(n5nc(-c6ccc(Oc7ccc(F)cc7F)cc6)c(C(N)=O)c5N)C4)c3)ccc2CC1C(=O)NC1CCCc2ccccc21)C(C)(C)C

> <Shape>
0.276

> <Color>
0.206

> <Negative vol penalty>
0.000

$$$$

  -OEChem-04042323013D

 84 92  0     1  0  0  0  0  0999 V2000
  -17.6546  -25.9337   23.1325 C   0  0  0  0  0  0  0  0  0  0  0  0
  -18.8535  -25.6612   22.4815 C   0  0  0  0  0  0  0  0  0  0  0  0
  -28.8576  -21.4553   13.4594 C   0  0  0  0  0  0  0  0  0  0  0  0
  -29.3058  -13.7191   20.9485 C   0  0  0  0  0  0  0  0  0  0  0  0
  -29.2934  -13.8507   18.5361 C   0  0  0  0  0  0  0  0  0  0  0  0
  -17.2269  -27.2525   23.2801 C   0  0  0  0  0  0  0  0  0  0  0  0
  -19.6250  -26.7075   21.9768 C   0  0  0  0  0  0  0  0  0  0  0  0
  -25.7376  -26.9842   21.7227 C   0  0  0  0  0  0  0  0  0  0  0  0
  -28.1041  -22.6290   13.4422 C   0  0  0  0  0  0  0  0  0  0  0  0
  -29.4098  -20.9984   14.6561 C   0  0  0  0  0  0  0  0  0  0  0  0
  -28.4447  -12.6233   20.8932 C   0  0  0  0  0  0  0  0  0  0  0  0
  -28.4322  -12.7548   18.4808 C   0  0  0  0  0  0  0  0  0  0  0  0
  -26.6460  -26.7343   20.6950 C   0  0  0  0  0  0  0  0  0  0  0  0
  -28.6682   -9.3089   20.2625 C   0  0  0  0  0  0  0  0  0  0  0  0
  -28.9607   -8.2130   21.0743 C   0  0  0  0  0  0  0  0  0  0  0  0
  -26.6993  -29.0898   20.1774 C   0  0  0  0  0  0  0  0  0  0  0  0
  -28.4551  -22.8891   15.8184 C   0  0  0  0  0  0  0  0  0  0  0  0
  -26.8306   -8.4677   22.1856 C   0  0  0  0  0  0  0  0  0  0  0  0
  -29.7302  -14.3329   19.7700 C   0  0  0  0  0  0  0  0  0  0  0  0
  -32.0268  -15.4423   19.8177 C   0  0  0  0  0  0  0  0  0  0  0  0
  -17.9983  -28.3160   22.7855 C   0  0  0  0  0  0  0  0  0  0  0  0
  -25.2942  -28.2896   21.9788 C   0  0  0  0  0  0  0  0  0  0  0  0
  -19.2066  -28.0416   22.1168 C   0  0  0  0  0  0  0  0  0  0  0  0
  -25.7873  -29.3540   21.2106 C   0  0  0  0  0  0  0  0  0  0  0  0
  -27.9028  -23.3459   14.6217 C   0  0  0  0  0  0  0  0  0  0  0  0
  -29.2085  -21.7153   15.8356 C   0  0  0  0  0  0  0  0  0  0  0  0
  -28.0079  -12.1411   19.6594 C   0  0  0  0  0  0  0  0  0  0  0  0
  -27.1247  -27.7867   19.9203 C   0  0  0  0  0  0  0  0  0  0  0  0
  -27.4570   -9.9843   20.4123 C   0  0  0  0  0  0  0  0  0  0  0  0
  -28.0419   -7.7923   22.0358 C   0  0  0  0  0  0  0  0  0  0  0  0
  -26.5382   -9.5636   21.3738 C   0  0  0  0  0  0  0  0  0  0  0  0
  -30.6193  -15.4653   19.8265 C   0  0  0  0  0  0  0  0  0  0  0  0
  -32.3923  -16.7644   19.8871 C   0  0  0  0  0  0  0  0  0  0  0  0
  -32.9237  -14.3256   19.7526 C   0  0  0  0  0  0  0  0  0  0  0  0
  -22.4741  -29.7546   21.9110 C   0  0  0  0  0  0  0  0  0  0  0  0
  -24.1688  -32.2317   23.1413 C   0  0  0  0  0  0  0  0  0  0  0  0
  -27.5120  -26.4976   16.1974 C   0  0  0  0  0  0  0  0  0  0  0  0
  -27.1934  -33.7648   23.5269 C   0  0  0  0  0  0  0  0  0  0  0  0
  -29.6652  -21.8418   18.3098 C   0  0  0  0  0  0  0  0  0  0  0  0
  -17.4717  -29.7222   22.9273 C   0  0  0  0  0  0  0  0  0  0  0  0
  -24.3346  -28.5460   23.1084 C   0  0  0  0  0  0  0  0  0  0  0  0
  -25.3581  -30.7763   21.4582 C   0  0  0  0  0  0  0  0  0  0  0  0
  -18.5315  -30.7959   22.6941 C   0  0  0  0  0  0  0  0  0  0  0  0
  -30.8681  -20.9886   21.5505 C   0  0  0  0  0  0  0  0  0  0  0  0
  -19.3395  -30.4845   21.4383 C   0  0  0  0  0  0  0  0  0  0  0  0
  -31.0747  -19.4742   21.4735 C   0  0  0  0  0  0  0  0  0  0  0  0
  -29.6385  -21.4342   20.7610 C   0  0  0  0  0  0  0  0  0  0  0  0
  -29.8064  -19.4670   19.2875 C   0  0  0  0  0  0  0  0  0  0  0  0
  -20.0834  -29.1509   21.5775 C   0  0  1  0  0  0  0  0  0  0  0  0
  -23.5573  -29.8489   22.9480 C   0  0  1  0  0  0  0  0  0  0  0  0
  -31.0701  -18.9783   20.0141 C   0  0  2  0  0  0  0  0  0  0  0  0
  -28.2569  -35.7945   24.5499 C   0  0  0  0  0  0  0  0  0  0  0  0
  -23.0649  -33.9497   20.8741 C   0  0  0  0  0  0  0  0  0  0  0  0
  -24.8512  -35.6318   21.3724 C   0  0  0  0  0  0  0  0  0  0  0  0
  -23.1389  -35.0841   23.1017 C   0  0  0  0  0  0  0  0  0  0  0  0
  -29.0284  -26.0901   14.2467 C   0  0  0  0  0  0  0  0  0  0  0  0
  -28.9090  -32.1200   25.2905 C   0  0  0  0  0  0  0  0  0  0  0  0
  -27.0917  -24.6092   14.6027 C   0  0  0  0  0  0  0  0  0  0  0  0
  -28.4202  -27.6726   16.5449 C   0  0  0  0  0  0  0  0  0  0  0  0
  -27.9747  -28.4247   17.7927 C   0  0  0  0  0  0  0  0  0  1  0  0
  -24.9389  -33.3932   22.5607 C   0  0  1  0  0  0  0  0  0  0  0  0
  -27.8853  -34.3338   24.7525 C   0  0  2  0  0  0  0  0  0  0  0  0
  -24.0053  -34.4878   21.9711 C   0  0  0  0  0  0  0  0  0  0  0  0
  -30.1243  -16.7039   19.8961 N   0  0  0  0  0  0  0  0  0  0  0  0
  -31.2269  -17.4715   19.9319 N   0  0  0  0  0  0  0  0  0  0  0  0
  -24.4135  -30.9750   22.5699 N   0  0  0  0  0  0  0  0  0  0  0  0
  -29.7054  -20.9315   19.3871 N   0  0  0  0  0  0  0  0  0  0  0  0
  -33.5937  -17.3795   19.9138 N   0  0  0  0  0  0  0  0  0  0  0  0
  -32.3805  -13.0353   19.6858 N   0  0  0  0  0  0  0  0  0  0  0  0
  -29.7691  -21.2506   17.0511 N   0  0  0  0  0  0  0  0  0  0  0  0
  -21.2608  -29.3127   22.4033 N   0  0  0  0  0  0  0  0  0  0  0  0
  -25.8216  -33.8683   23.6206 N   0  0  0  0  0  0  0  0  0  0  0  0
  -27.8642  -25.7619   15.0603 N   0  0  0  0  0  0  0  0  0  0  0  0
  -29.1298  -33.5687   25.0467 N   0  3  0  0  0  0  0  0  0  0  0  0
  -34.1700  -14.4668   19.7702 O   0  0  0  0  0  0  0  0  0  0  0  0
  -22.7203  -30.0614   20.7504 O   0  0  0  0  0  0  0  0  0  0  0  0
  -23.3846  -32.4311   24.0723 O   0  0  0  0  0  0  0  0  0  0  0  0
  -26.5309  -26.2346   16.8978 O   0  0  0  0  0  0  0  0  0  0  0  0
  -27.8085  -33.2805   22.5795 O   0  0  0  0  0  0  0  0  0  0  0  0
  -29.5748  -23.0587   18.4915 O   0  0  0  0  0  0  0  0  0  0  0  0
  -27.1677  -11.0716   19.6050 O   0  0  0  0  0  0  0  0  0  0  0  0
  -28.0109  -27.5455   18.9161 O   0  0  0  0  0  0  0  0  0  1  0  0
  -28.3222   -6.7390   22.8143 F   0  0  0  0  0  0  0  0  0  0  0  0
  -25.3723  -10.2077   21.5215 F   0  0  0  0  0  0  0  0  0  0  0  0
  1  2  1  0  0  0  0
  1  6  2  0  0  0  0
  2  7  2  0  0  0  0
  3  9  2  0  0  0  0
  3 10  1  0  0  0  0
  4 11  2  0  0  0  0
  4 19  1  0  0  0  0
  5 12  1  0  0  0  0
  5 19  2  0  0  0  0
  6 21  1  0  0  0  0
  7 23  1  0  0  0  0
  8 13  2  0  0  0  0
  8 22  1  0  0  0  0
  9 25  1  0  0  0  0
 10 26  2  0  0  0  0
 11 27  1  0  0  0  0
 12 27  2  0  0  0  0
 13 28  1  0  0  0  0
 14 15  2  0  0  0  0
 14 29  1  0  0  0  0
 15 30  1  0  0  0  0
 16 24  1  0  0  0  0
 16 28  2  0  0  0  0
 17 25  2  0  0  0  0
 17 26  1  0  0  0  0
 18 30  2  0  0  0  0
 18 31  1  0  0  0  0
 19 32  1  0  0  0  0
 20 32  1  0  0  0  0
 20 33  2  0  0  0  0
 20 34  1  0  0  0  0
 21 23  2  0  0  0  0
 21 40  1  0  0  0  0
 22 24  2  0  0  0  0
 22 41  1  0  0  0  0
 23 49  1  0  0  0  0
 24 42  1  0  0  0  0
 25 58  1  0  0  0  0
 26 70  1  0  0  0  0
 27 81  1  0  0  0  0
 28 82  1  0  0  0  0
 29 31  2  0  0  0  0
 29 81  1  0  0  0  0
 30 83  1  0  0  0  0
 31 84  1  0  0  0  0
 32 64  2  0  0  0  0
 33 65  1  0  0  0  0
 33 68  1  0  0  0  0
 34 69  1  0  0  0  0
 34 75  2  0  0  0  0
 35 50  1  0  0  0  0
 35 71  1  0  0  0  0
 35 76  2  0  0  0  0
 36 61  1  0  0  0  0
 36 66  1  0  0  0  0
 36 77  2  0  0  0  0
 37 59  1  0  0  0  0
 37 73  1  0  0  0  0
 37 78  2  0  0  0  0
 38 62  1  0  0  0  0
 38 72  1  0  0  0  0
 38 79  2  0  0  0  0
 39 67  1  0  0  0  0
 39 70  1  0  0  0  0
 39 80  2  0  0  0  0
 40 43  1  0  0  0  0
 41 50  1  0  0  0  0
 42 66  1  0  0  0  0
 43 45  1  0  0  0  0
 44 46  1  0  0  0  0
 44 47  1  0  0  0  0
 45 49  1  0  0  0  0
 46 51  1  0  0  0  0
 47 67  1  0  0  0  0
 48 51  1  0  0  0  0
 48 67  1  0  0  0  0
 49 71  1  0  0  0  0
 50 66  1  0  0  0  0
 51 65  1  0  0  0  0
 52 62  1  0  0  0  0
 53 63  1  0  0  0  0
 54 63  1  0  0  0  0
 55 63  1  0  0  0  0
 56 73  1  0  0  0  0
 57 74  1  0  0  0  0
 58 73  1  0  0  0  0
 59 60  1  0  0  0  0
 60 82  1  0  0  0  0
 61 63  1  0  0  0  0
 61 72  1  0  0  0  0
 62 74  1  0  0  0  0
 64 65  1  0  0  0  0
M  CHG  1  74   1
M  ISO  4  39 100  60 101  70 100  82 101
M  END
> <Batch ID>
0059

> <Smiles>
CNC(C)C(=O)NC(C(=O)N1Cc2cc([101O:1][101CH2:1]CC(=O)N(C)Cc3cccc([100NH:0][100C:0](=O)N4CCCC(n5nc(-c6ccc(Oc7ccc(F)cc7F)cc6)c(C(N)=O)c5N)C4)c3)ccc2CC1C(=O)NC1CCCc2ccccc21)C(C)(C)C

> <Shape>
0.252

> <Color>
0.110

> <Negative vol penalty>
0.000

$$$$

  -OEChem-04042323013D

 85 93  0     1  0  0  0  0  0999 V2000
  -33.7675  -19.1249   23.5049 C   0  0  0  0  0  0  0  0  0  0  0  0
  -32.7185  -19.6500   24.2527 C   0  0  0  0  0  0  0  0  0  0  0  0
  -29.4698  -26.7907   21.1257 C   0  0  0  0  0  0  0  0  0  0  0  0
  -27.6898  -25.2088   20.7176 C   0  0  0  0  0  0  0  0  0  0  0  0
  -33.5515  -18.7277   22.1860 C   0  0  0  0  0  0  0  0  0  0  0  0
  -31.4530  -19.7792   23.6816 C   0  0  0  0  0  0  0  0  0  0  0  0
  -24.5018  -19.4897   25.3886 C   0  0  0  0  0  0  0  0  0  0  0  0
  -18.2919  -28.1896   23.9168 C   0  0  0  0  0  0  0  0  0  0  0  0
  -19.4169  -28.8991   23.4966 C   0  0  0  0  0  0  0  0  0  0  0  0
  -30.2699  -25.7620   21.6230 C   0  0  0  0  0  0  0  0  0  0  0  0
  -28.4900  -24.1801   21.2147 C   0  0  0  0  0  0  0  0  0  0  0  0
  -23.3319  -20.2390   25.2718 C   0  0  0  0  0  0  0  0  0  0  0  0
  -32.9116  -23.4924   22.6647 C   0  0  0  0  0  0  0  0  0  0  0  0
  -34.2400  -23.4421   22.2422 C   0  0  0  0  0  0  0  0  0  0  0  0
  -23.0571  -19.4462   23.0101 C   0  0  0  0  0  0  0  0  0  0  0  0
  -19.8817  -27.1892   21.8542 C   0  0  0  0  0  0  0  0  0  0  0  0
  -33.5031  -23.2109   19.9530 C   0  0  0  0  0  0  0  0  0  0  0  0
  -28.1797  -26.5141   20.6731 C   0  0  0  0  0  0  0  0  0  0  0  0
  -27.2660  -28.0176   18.8259 C   0  0  0  0  0  0  0  0  0  0  0  0
  -32.2804  -18.8431   21.6016 C   0  0  0  0  0  0  0  0  0  0  0  0
  -24.9648  -18.7202   24.3116 C   0  0  0  0  0  0  0  0  0  0  0  0
  -31.2200  -19.3844   22.3533 C   0  0  0  0  0  0  0  0  0  0  0  0
  -24.2318  -18.6860   23.1167 C   0  0  0  0  0  0  0  0  0  0  0  0
  -17.9618  -26.9799   23.3058 C   0  0  0  0  0  0  0  0  0  0  0  0
  -20.2118  -28.3989   22.4652 C   0  0  0  0  0  0  0  0  0  0  0  0
  -29.7801  -24.4568   21.6674 C   0  0  0  0  0  0  0  0  0  0  0  0
  -22.6109  -20.2196   24.0815 C   0  0  0  0  0  0  0  0  0  0  0  0
  -31.8790  -23.4018   21.7314 C   0  0  0  0  0  0  0  0  0  0  0  0
  -34.5357  -23.3013   20.8864 C   0  0  0  0  0  0  0  0  0  0  0  0
  -32.1747  -23.2611   20.3755 C   0  0  0  0  0  0  0  0  0  0  0  0
  -18.7567  -26.4797   22.2745 C   0  0  0  0  0  0  0  0  0  0  0  0
  -27.3524  -27.5763   20.1599 C   0  0  0  0  0  0  0  0  0  0  0  0
  -26.3488  -29.0393   18.8610 C   0  0  0  0  0  0  0  0  0  0  0  0
  -27.9532  -27.5460   17.6593 C   0  0  0  0  0  0  0  0  0  0  0  0
  -27.5885  -18.7226   22.5172 C   0  0  0  0  0  0  0  0  0  0  0  0
  -26.2772  -16.0240   21.2841 C   0  0  0  0  0  0  0  0  0  0  0  0
  -23.4700  -14.1753   20.6936 C   0  0  0  0  0  0  0  0  0  0  0  0
  -21.8209  -30.3359   22.5382 C   0  0  0  0  0  0  0  0  0  0  0  0
  -32.1064  -18.4443   20.1575 C   0  0  0  0  0  0  0  0  0  0  0  0
  -26.2142  -17.8965   24.4627 C   0  0  0  0  0  0  0  0  0  0  0  0
  -24.6752  -17.8602   21.9377 C   0  0  0  0  0  0  0  0  0  0  0  0
  -30.6472  -18.2662   19.7463 C   0  0  0  0  0  0  0  0  0  0  0  0
  -24.6116  -32.4135   21.7818 C   0  0  0  0  0  0  0  0  0  0  0  0
  -29.8052  -19.4360   20.2458 C   0  0  0  0  0  0  0  0  0  0  0  0
  -25.6210  -31.4502   21.1531 C   0  0  0  0  0  0  0  0  0  0  0  0
  -23.8270  -31.7534   22.9142 C   0  0  0  0  0  0  0  0  0  0  0  0
  -24.1845  -29.5224   21.9323 C   0  0  0  0  0  0  0  0  0  0  0  0
  -29.8271  -19.5173   21.7769 C   0  0  1  0  0  0  0  0  0  0  0  0
  -26.8688  -17.5535   23.1280 C   0  0  1  0  0  0  0  0  0  0  0  0
  -24.9534  -30.1226   20.7439 C   0  0  2  0  0  0  0  0  0  0  0  0
  -16.7503  -26.2455   23.7792 C   0  0  0  0  0  0  0  0  0  0  0  0
  -22.7098  -12.0322   19.6323 C   0  0  0  0  0  0  0  0  0  0  0  0
  -26.5919  -17.2827   18.5226 C   0  0  0  0  0  0  0  0  0  0  0  0
  -24.9940  -15.5709   17.6369 C   0  0  0  0  0  0  0  0  0  0  0  0
  -27.1651  -14.8509   18.6320 C   0  0  0  0  0  0  0  0  0  0  0  0
  -22.4179  -13.1424   23.2597 C   0  0  0  0  0  0  0  0  0  0  0  0
  -20.0528  -22.8297   24.4353 C   0  0  0  0  0  0  0  0  0  0  0  0
  -19.8886  -23.2056   22.9692 C   0  0  0  0  0  0  0  0  0  0  0  0
  -21.3866  -22.1531   24.7284 C   0  0  0  0  0  0  0  0  0  1  0  0
  -25.3346  -15.7171   20.1456 C   0  0  1  0  0  0  0  0  0  0  0  0
  -23.1667  -12.7048   20.9174 C   0  0  2  0  0  0  0  0  0  0  0  0
  -26.0138  -15.8726   18.7556 C   0  0  0  0  0  0  0  0  0  0  0  0
  -26.5540  -28.2618   20.9825 N   0  0  0  0  0  0  0  0  0  0  0  0
  -25.9571  -29.1441   20.1632 N   0  0  0  0  0  0  0  0  0  0  0  0
  -25.9065  -17.0770   22.1325 N   0  0  0  0  0  0  0  0  0  0  0  0
  -23.2191  -30.5036   22.4520 N   0  0  0  0  0  0  0  0  0  0  0  0
  -25.8472  -29.8494   17.9046 N   0  0  0  0  0  0  0  0  0  0  0  0
  -28.8618  -26.4882   17.8009 N   0  0  0  0  0  0  0  0  0  0  0  0
  -21.3540  -29.1206   22.0384 N   0  0  0  0  0  0  0  0  0  0  0  0
  -28.9453  -18.5222   22.3486 N   0  0  0  0  0  0  0  0  0  0  0  0
  -24.8020  -14.3839   20.4046 N   0  0  0  0  0  0  0  0  0  0  0  0
  -18.5695  -23.8350   22.7439 N   0  0  0  0  0  0  0  0  0  0  0  0
  -22.0924  -12.5470   21.9381 N   0  3  0  0  0  0  0  0  0  0  0  0
  -27.7794  -28.0586   16.5276 O   0  0  0  0  0  0  0  0  0  0  0  0
  -26.9592  -19.7310   22.2195 O   0  0  0  0  0  0  0  0  0  0  0  0
  -27.3010  -15.3494   21.4202 O   0  0  0  0  0  0  0  0  0  0  0  0
  -22.6105  -15.0509   20.7641 O   0  0  0  0  0  0  0  0  0  0  0  0
  -21.0884  -31.2174   22.9949 O   0  0  0  0  0  0  0  0  0  0  0  0
  -16.9691  -24.9915   21.0912 O   0  0  0  0  0  0  0  0  0  0  0  0
  -19.3932  -24.7205   20.4791 O   0  0  0  0  0  0  0  0  0  0  0  0
  -30.5607  -23.4527   22.1523 O   0  0  0  0  0  0  0  0  0  0  0  0
  -21.4691  -20.9506   23.9645 O   0  0  0  0  0  0  0  0  0  1  0  0
  -35.8114  -23.2546   20.4806 F   0  0  0  0  0  0  0  0  0  0  0  0
  -31.1869  -23.1748   19.4740 F   0  0  0  0  0  0  0  0  0  0  0  0
  -18.3666  -24.9509   21.4774 S   0  0  0  0  0  0  0  0  0  0  0  0
  1  2  1  0  0  0  0
  1  5  2  0  0  0  0
  2  6  2  0  0  0  0
  3 10  2  0  0  0  0
  3 18  1  0  0  0  0
  4 11  1  0  0  0  0
  4 18  2  0  0  0  0
  5 20  1  0  0  0  0
  6 22  1  0  0  0  0
  7 12  2  0  0  0  0
  7 21  1  0  0  0  0
  8  9  2  0  0  0  0
  8 24  1  0  0  0  0
  9 25  1  0  0  0  0
 10 26  1  0  0  0  0
 11 26  2  0  0  0  0
 12 27  1  0  0  0  0
 13 14  2  0  0  0  0
 13 28  1  0  0  0  0
 14 29  1  0  0  0  0
 15 23  1  0  0  0  0
 15 27  2  0  0  0  0
 16 25  2  0  0  0  0
 16 31  1  0  0  0  0
 17 29  2  0  0  0  0
 17 30  1  0  0  0  0
 18 32  1  0  0  0  0
 19 32  1  0  0  0  0
 19 33  2  0  0  0  0
 19 34  1  0  0  0  0
 20 22  2  0  0  0  0
 20 39  1  0  0  0  0
 21 23  2  0  0  0  0
 21 40  1  0  0  0  0
 22 48  1  0  0  0  0
 23 41  1  0  0  0  0
 24 31  2  0  0  0  0
 24 51  1  0  0  0  0
 25 69  1  0  0  0  0
 26 81  1  0  0  0  0
 27 82  1  0  0  0  0
 28 30  2  0  0  0  0
 28 81  1  0  0  0  0
 29 83  1  0  0  0  0
 30 84  1  0  0  0  0
 31 85  1  0  0  0  0
 32 63  2  0  0  0  0
 33 64  1  0  0  0  0
 33 67  1  0  0  0  0
 34 68  1  0  0  0  0
 34 74  2  0  0  0  0
 35 49  1  0  0  0  0
 35 70  1  0  0  0  0
 35 75  2  0  0  0  0
 36 60  1  0  0  0  0
 36 65  1  0  0  0  0
 36 76  2  0  0  0  0
 37 61  1  0  0  0  0
 37 71  1  0  0  0  0
 37 77  2  0  0  0  0
 38 66  1  0  0  0  0
 38 69  1  0  0  0  0
 38 78  2  0  0  0  0
 39 42  1  0  0  0  0
 40 49  1  0  0  0  0
 41 65  1  0  0  0  0
 42 44  1  0  0  0  0
 43 45  1  0  0  0  0
 43 46  1  0  0  0  0
 44 48  1  0  0  0  0
 45 50  1  0  0  0  0
 46 66  1  0  0  0  0
 47 50  1  0  0  0  0
 47 66  1  0  0  0  0
 48 70  1  0  0  0  0
 49 65  1  0  0  0  0
 50 64  1  0  0  0  0
 52 61  1  0  0  0  0
 53 62  1  0  0  0  0
 54 62  1  0  0  0  0
 55 62  1  0  0  0  0
 56 73  1  0  0  0  0
 57 58  1  0  0  0  0
 57 59  1  0  0  0  0
 58 72  1  0  0  0  0
 59 82  1  0  0  0  0
 60 62  1  0  0  0  0
 60 71  1  0  0  0  0
 61 73  1  0  0  0  0
 63 64  1  0  0  0  0
 72 85  1  0  0  0  0
 79 85  2  0  0  0  0
 80 85  2  0  0  0  0
M  CHG  1  73   1
M  ISO  4  38 100  59 101  69 100  82 101
M  END
> <Batch ID>
0059

> <Smiles>
CNC(C)C(=O)NC(C(=O)N1Cc2cc([101O:1][101CH2:1]CCNS(=O)(=O)c3cc([100NH:0][100C:0](=O)N4CCCC(n5nc(-c6ccc(Oc7ccc(F)cc7F)cc6)c(C(N)=O)c5N)C4)ccc3C)ccc2CC1C(=O)NC1CCCc2ccccc21)C(C)(C)C

> <Shape>
0.198

> <Color>
0.087

> <Negative vol penalty>
0.000

$$$$

  -OEChem-04042323013D

 85 93  0     1  0  0  0  0  0999 V2000
  -30.6792  -34.8100   21.9529 C   0  0  0  0  0  0  0  0  0  0  0  0
  -30.8816  -33.4885   21.5681 C   0  0  0  0  0  0  0  0  0  0  0  0
  -29.3613  -13.1902   20.2526 C   0  0  0  0  0  0  0  0  0  0  0  0
  -28.1862  -12.4530   20.3988 C   0  0  0  0  0  0  0  0  0  0  0  0
  -22.7088  -21.4784   25.2156 C   0  0  0  0  0  0  0  0  0  0  0  0
  -25.0298  -21.4200   24.5476 C   0  0  0  0  0  0  0  0  0  0  0  0
  -29.5561  -35.1515   22.7053 C   0  0  0  0  0  0  0  0  0  0  0  0
  -29.9616  -32.5075   21.9364 C   0  0  0  0  0  0  0  0  0  0  0  0
  -28.3176  -27.5917   18.6749 C   0  0  0  0  0  0  0  0  0  0  0  0
  -29.3044  -14.5801   20.1494 C   0  0  0  0  0  0  0  0  0  0  0  0
  -26.9542  -13.1057   20.4416 C   0  0  0  0  0  0  0  0  0  0  0  0
  -23.0741  -22.0480   26.4353 C   0  0  0  0  0  0  0  0  0  0  0  0
  -25.3952  -21.9897   25.7673 C   0  0  0  0  0  0  0  0  0  0  0  0
  -28.7184  -26.2573   18.7229 C   0  0  0  0  0  0  0  0  0  0  0  0
  -25.8239  -20.9726   28.9630 C   0  0  0  0  0  0  0  0  0  0  0  0
  -26.9118  -20.4181   29.6372 C   0  0  0  0  0  0  0  0  0  0  0  0
  -26.8177  -25.7427   20.1163 C   0  0  0  0  0  0  0  0  0  0  0  0
  -28.0626  -22.5395   29.5250 C   0  0  0  0  0  0  0  0  0  0  0  0
  -23.6866  -21.1643   24.2718 C   0  0  0  0  0  0  0  0  0  0  0  0
  -22.9844  -21.2516   21.8209 C   0  0  0  0  0  0  0  0  0  0  0  0
  -28.6169  -34.1759   23.0748 C   0  0  0  0  0  0  0  0  0  0  0  0
  -27.1678  -28.0145   19.3574 C   0  0  0  0  0  0  0  0  0  0  0  0
  -28.8256  -32.8361   22.6956 C   0  0  0  0  0  0  0  0  0  0  0  0
  -26.4030  -27.0826   20.0733 C   0  0  0  0  0  0  0  0  0  0  0  0
  -28.0724  -15.2328   20.1922 C   0  0  0  0  0  0  0  0  0  0  0  0
  -26.8973  -14.4956   20.3383 C   0  0  0  0  0  0  0  0  0  0  0  0
  -24.4173  -22.3037   26.7111 C   0  0  0  0  0  0  0  0  0  0  0  0
  -27.9701  -25.3331   19.4460 C   0  0  0  0  0  0  0  0  0  0  0  0
  -25.8553  -22.3105   28.5697 C   0  0  0  0  0  0  0  0  0  0  0  0
  -28.0311  -21.2016   29.9183 C   0  0  0  0  0  0  0  0  0  0  0  0
  -26.9746  -23.0940   28.8507 C   0  0  0  0  0  0  0  0  0  0  0  0
  -23.3099  -20.5753   23.0119 C   0  0  0  0  0  0  0  0  0  0  0  0
  -22.7019  -20.2505   20.9239 C   0  0  0  0  0  0  0  0  0  0  0  0
  -29.5640  -19.9132   19.7146 C   0  0  0  0  0  0  0  0  0  0  0  0
  -28.6700  -18.9250   19.8602 C   0  0  0  0  0  0  0  0  0  0  0  0
  -29.1822  -21.3071   19.6352 C   0  0  0  0  0  0  0  0  0  0  0  0
  -30.0713  -22.3020   19.4894 C   0  0  0  0  0  0  0  0  0  0  0  0
  -22.9413  -22.6588   21.5496 C   0  0  0  0  0  0  0  0  0  0  0  0
  -29.1223  -17.5029   19.9353 C   0  0  0  0  0  0  0  0  0  0  0  0
  -26.5856  -30.0661   21.7144 C   0  0  0  0  0  0  0  0  0  0  0  0
  -23.4917  -29.3701   21.0325 C   0  0  0  0  0  0  0  0  0  0  0  0
  -21.2397  -27.1715   19.7128 C   0  0  0  0  0  0  0  0  0  0  0  0
  -24.3854  -14.5310   20.5260 C   0  0  0  0  0  0  0  0  0  0  0  0
  -27.4429  -34.5850   23.9286 C   0  0  0  0  0  0  0  0  0  0  0  0
  -26.7341  -29.4523   19.2737 C   0  0  0  0  0  0  0  0  0  0  0  0
  -25.1494  -27.4816   20.8067 C   0  0  0  0  0  0  0  0  0  0  0  0
  -26.3217  -33.5494   23.9592 C   0  0  0  0  0  0  0  0  0  0  0  0
  -21.0495  -15.7602   20.7214 C   0  0  0  0  0  0  0  0  0  0  0  0
  -26.8908  -32.1532   24.1909 C   0  0  0  0  0  0  0  0  0  0  0  0
  -21.2214  -17.1980   21.2167 C   0  0  0  0  0  0  0  0  0  0  0  0
  -22.0629  -14.8143   21.3632 C   0  0  0  0  0  0  0  0  0  0  0  0
  -23.6371  -16.6715   21.7401 C   0  0  0  0  0  0  0  0  0  0  0  0
  -27.8374  -31.7477   23.0547 C   0  0  1  0  0  0  0  0  0  0  0  0
  -25.8312  -29.8723   20.4295 C   0  0  1  0  0  0  0  0  0  0  0  0
  -22.6805  -17.6730   21.0727 C   0  0  2  0  0  0  0  0  0  0  0  0
  -18.7784  -26.8626   19.3333 C   0  0  0  0  0  0  0  0  0  0  0  0
  -23.1239  -28.6930   23.9848 C   0  0  0  0  0  0  0  0  0  0  0  0
  -20.9991  -27.5158   23.3785 C   0  0  0  0  0  0  0  0  0  0  0  0
  -21.2288  -29.9646   22.9623 C   0  0  0  0  0  0  0  0  0  0  0  0
  -21.5893  -27.0533   16.7763 C   0  0  0  0  0  0  0  0  0  0  0  0
  -29.7585  -23.7662   19.3982 C   0  0  0  0  0  0  0  0  0  1  0  0
  -22.4994  -28.3353   21.5053 C   0  0  1  0  0  0  0  0  0  0  0  0
  -20.0862  -27.3697   18.7459 C   0  0  2  0  0  0  0  0  0  0  0  0
  -21.9874  -28.6197   22.9456 C   0  0  0  0  0  0  0  0  0  0  0  0
  -23.2409  -19.2474   22.8862 N   0  0  0  0  0  0  0  0  0  0  0  0
  -22.8686  -19.0811   21.6057 N   0  0  0  0  0  0  0  0  0  0  0  0
  -24.7701  -28.9001   20.6999 N   0  0  0  0  0  0  0  0  0  0  0  0
  -23.4232  -15.3264   21.1834 N   0  0  0  0  0  0  0  0  0  0  0  0
  -22.3296  -20.2653   19.6264 N   0  0  0  0  0  0  0  0  0  0  0  0
  -23.2606  -23.5487   22.5841 N   0  0  0  0  0  0  0  0  0  0  0  0
  -28.0406  -16.6450   20.0854 N   0  0  0  0  0  0  0  0  0  0  0  0
  -25.6340  -15.1356   20.3845 N   0  0  0  0  0  0  0  0  0  0  0  0
  -27.0825  -31.3438   21.8878 N   0  0  0  0  0  0  0  0  0  0  0  0
  -21.4473  -28.2873   20.4958 N   0  0  0  0  0  0  0  0  0  0  0  0
  -20.3451  -26.6379   17.4738 N   0  3  0  0  0  0  0  0  0  0  0  0
  -22.6129  -23.1139   20.4278 O   0  0  0  0  0  0  0  0  0  0  0  0
  -30.3096  -17.2081   19.8650 O   0  0  0  0  0  0  0  0  0  0  0  0
  -26.7066  -29.1265   22.4917 O   0  0  0  0  0  0  0  0  0  0  0  0
  -23.1431  -30.5507   20.9541 O   0  0  0  0  0  0  0  0  0  0  0  0
  -21.8889  -26.1295   19.7704 O   0  0  0  0  0  0  0  0  0  0  0  0
  -24.1135  -13.4078   20.0943 O   0  0  0  0  0  0  0  0  0  0  0  0
  -24.7741  -22.8598   27.9011 O   0  0  0  0  0  0  0  0  0  0  0  0
  -28.3595  -24.0301   19.4951 O   0  0  0  0  0  0  0  0  0  1  0  0
  -29.0751  -20.6694   30.5671 F   0  0  0  0  0  0  0  0  0  0  0  0
  -27.0102  -24.3803   28.4764 F   0  0  0  0  0  0  0  0  0  0  0  0
  1  2  1  0  0  0  0
  1  7  2  0  0  0  0
  2  8  2  0  0  0  0
  3  4  1  0  0  0  0
  3 10  2  0  0  0  0
  4 11  2  0  0  0  0
  5 12  2  0  0  0  0
  5 19  1  0  0  0  0
  6 13  1  0  0  0  0
  6 19  2  0  0  0  0
  7 21  1  0  0  0  0
  8 23  1  0  0  0  0
  9 14  2  0  0  0  0
  9 22  1  0  0  0  0
 10 25  1  0  0  0  0
 11 26  1  0  0  0  0
 12 27  1  0  0  0  0
 13 27  2  0  0  0  0
 14 28  1  0  0  0  0
 15 16  2  0  0  0  0
 15 29  1  0  0  0  0
 16 30  1  0  0  0  0
 17 24  1  0  0  0  0
 17 28  2  0  0  0  0
 18 30  2  0  0  0  0
 18 31  1  0  0  0  0
 19 32  1  0  0  0  0
 20 32  1  0  0  0  0
 20 33  2  0  0  0  0
 20 38  1  0  0  0  0
 21 23  2  0  0  0  0
 21 44  1  0  0  0  0
 22 24  2  0  0  0  0
 22 45  1  0  0  0  0
 23 53  1  0  0  0  0
 24 46  1  0  0  0  0
 25 26  2  0  0  0  0
 25 71  1  0  0  0  0
 26 72  1  0  0  0  0
 27 82  1  0  0  0  0
 28 83  1  0  0  0  0
 29 31  2  0  0  0  0
 29 82  1  0  0  0  0
 30 84  1  0  0  0  0
 31 85  1  0  0  0  0
 32 65  2  0  0  0  0
 33 66  1  0  0  0  0
 33 69  1  0  0  0  0
 34 35  2  0  0  0  0
 34 36  1  0  0  0  0
 35 39  1  0  0  0  0
 36 37  2  0  0  0  0
 37 61  1  0  0  0  0
 38 70  1  0  0  0  0
 38 76  2  0  0  0  0
 39 71  1  0  0  0  0
 39 77  2  0  0  0  0
 40 54  1  0  0  0  0
 40 73  1  0  0  0  0
 40 78  2  0  0  0  0
 41 62  1  0  0  0  0
 41 67  1  0  0  0  0
 41 79  2  0  0  0  0
 42 63  1  0  0  0  0
 42 74  1  0  0  0  0
 42 80  2  0  0  0  0
 43 68  1  0  0  0  0
 43 72  1  0  0  0  0
 43 81  2  0  0  0  0
 44 47  1  0  0  0  0
 45 54  1  0  0  0  0
 46 67  1  0  0  0  0
 47 49  1  0  0  0  0
 48 50  1  0  0  0  0
 48 51  1  0  0  0  0
 49 53  1  0  0  0  0
 50 55  1  0  0  0  0
 51 68  1  0  0  0  0
 52 55  1  0  0  0  0
 52 68  1  0  0  0  0
 53 73  1  0  0  0  0
 54 67  1  0  0  0  0
 55 66  1  0  0  0  0
 56 63  1  0  0  0  0
 57 64  1  0  0  0  0
 58 64  1  0  0  0  0
 59 64  1  0  0  0  0
 60 75  1  0  0  0  0
 61 83  1  0  0  0  0
 62 64  1  0  0  0  0
 62 74  1  0  0  0  0
 63 75  1  0  0  0  0
 65 66  1  0  0  0  0
M  CHG  1  75   1
M  ISO  4  43 100  61 101  72 100  83 101
M  END
> <Batch ID>
0059

> <Smiles>
CNC(C)C(=O)NC(C(=O)N1Cc2cc([101O:1][101CH2:1]C=CC=CC(=O)Nc3ccccc3[100NH:0][100C:0](=O)N3CCCC(n4nc(-c5ccc(Oc6ccc(F)cc6F)cc5)c(C(N)=O)c4N)C3)ccc2CC1C(=O)NC1CCCc2ccccc21)C(C)(C)C

> <Shape>
0.211

> <Color>
0.056

> <Negative vol penalty>
0.000

$$$$

  -OEChem-04042323013D

 85 93  0     1  0  0  0  0  0999 V2000
  -21.8118  -29.3931   16.7313 C   0  0  0  0  0  0  0  0  0  0  0  0
  -22.2532  -28.3301   17.5128 C   0  0  0  0  0  0  0  0  0  0  0  0
  -23.0360   -9.8890   19.9248 C   0  0  0  0  0  0  0  0  0  0  0  0
  -23.8752   -9.7835   22.1879 C   0  0  0  0  0  0  0  0  0  0  0  0
  -21.7406  -30.6746   17.2758 C   0  0  0  0  0  0  0  0  0  0  0  0
  -22.6247  -28.5483   18.8390 C   0  0  0  0  0  0  0  0  0  0  0  0
  -20.7560  -25.0444   21.9816 C   0  0  0  0  0  0  0  0  0  0  0  0
  -31.4270  -18.4856   20.1906 C   0  0  0  0  0  0  0  0  0  0  0  0
  -31.1337  -19.5793   19.3763 C   0  0  0  0  0  0  0  0  0  0  0  0
  -22.3074   -8.7193   20.1405 C   0  0  0  0  0  0  0  0  0  0  0  0
  -23.1465   -8.6138   22.4036 C   0  0  0  0  0  0  0  0  0  0  0  0
  -21.3999  -23.8082   22.0121 C   0  0  0  0  0  0  0  0  0  0  0  0
  -23.4355   -5.3270   21.6660 C   0  0  0  0  0  0  0  0  0  0  0  0
  -24.0810   -4.2705   22.3085 C   0  0  0  0  0  0  0  0  0  0  0  0
  -22.5541  -24.4660   24.0257 C   0  0  0  0  0  0  0  0  0  0  0  0
  -29.2463  -18.6633   21.2152 C   0  0  0  0  0  0  0  0  0  0  0  0
  -22.4392   -4.3442   24.0793 C   0  0  0  0  0  0  0  0  0  0  0  0
  -23.8199  -10.4211   20.9486 C   0  0  0  0  0  0  0  0  0  0  0  0
  -24.1440  -12.9514   20.9472 C   0  0  0  0  0  0  0  0  0  0  0  0
  -22.1023  -30.9069   18.6122 C   0  0  0  0  0  0  0  0  0  0  0  0
  -21.0150  -26.0064   22.9684 C   0  0  0  0  0  0  0  0  0  0  0  0
  -22.5595  -29.8344   19.4015 C   0  0  0  0  0  0  0  0  0  0  0  0
  -21.9103  -25.7127   24.0068 C   0  0  0  0  0  0  0  0  0  0  0  0
  -30.4833  -18.0275   21.1101 C   0  0  0  0  0  0  0  0  0  0  0  0
  -29.8966  -20.2152   19.4815 C   0  0  0  0  0  0  0  0  0  0  0  0
  -28.9529  -19.7572   20.4009 C   0  0  0  0  0  0  0  0  0  0  0  0
  -22.3626   -8.0817   21.3799 C   0  0  0  0  0  0  0  0  0  0  0  0
  -22.3013  -23.5199   23.0327 C   0  0  0  0  0  0  0  0  0  0  0  0
  -22.2918   -5.8921   22.2302 C   0  0  0  0  0  0  0  0  0  0  0  0
  -23.5829   -3.7791   23.5151 C   0  0  0  0  0  0  0  0  0  0  0  0
  -21.7936   -5.4007   23.4369 C   0  0  0  0  0  0  0  0  0  0  0  0
  -24.5733  -11.6291   20.7262 C   0  0  0  0  0  0  0  0  0  0  0  0
  -25.2188  -13.7263   20.5856 C   0  0  0  0  0  0  0  0  0  0  0  0
  -25.4893  -20.9607   21.2055 C   0  0  0  0  0  0  0  0  0  0  0  0
  -24.3828  -20.8029   21.9450 C   0  0  0  0  0  0  0  0  0  0  0  0
  -22.8861  -13.4360   21.4358 C   0  0  0  0  0  0  0  0  0  0  0  0
  -26.6575  -20.0481   21.3848 C   0  0  0  0  0  0  0  0  0  0  0  0
  -22.2218  -28.9471   22.9724 C   0  0  0  0  0  0  0  0  0  0  0  0
  -21.3844  -28.8667   26.1053 C   0  0  0  0  0  0  0  0  0  0  0  0
  -20.7118  -26.9932   28.8773 C   0  0  0  0  0  0  0  0  0  0  0  0
  -30.7003  -14.7732   20.6371 C   0  0  0  0  0  0  0  0  0  0  0  0
  -22.0535  -32.3179   19.1427 C   0  0  0  0  0  0  0  0  0  0  0  0
  -20.2921  -27.3251   22.9361 C   0  0  0  0  0  0  0  0  0  0  0  0
  -22.2078  -26.7035   25.1014 C   0  0  0  0  0  0  0  0  0  0  0  0
  -22.1093  -32.3982   20.6661 C   0  0  0  0  0  0  0  0  0  0  0  0
  -29.4930  -12.5064   18.1711 C   0  0  0  0  0  0  0  0  0  0  0  0
  -23.2121  -31.4944   21.2082 C   0  0  0  0  0  0  0  0  0  0  0  0
  -28.0731  -12.1806   18.6377 C   0  0  0  0  0  0  0  0  0  0  0  0
  -30.4502  -12.6717   19.3495 C   0  0  0  0  0  0  0  0  0  0  0  0
  -28.5940  -13.3171   20.8367 C   0  0  0  0  0  0  0  0  0  0  0  0
  -22.9477  -30.0266   20.8515 C   0  0  1  0  0  0  0  0  0  0  0  0
  -21.0189  -28.4239   23.7053 C   0  0  1  0  0  0  0  0  0  0  0  0
  -27.5804  -13.1964   19.6859 C   0  0  2  0  0  0  0  0  0  0  0  0
  -29.6101  -21.3851   18.5970 C   0  0  0  0  0  0  0  0  0  0  0  0
  -20.0944  -27.2109   31.2998 C   0  0  0  0  0  0  0  0  0  0  0  0
  -24.2579  -29.6534   26.7644 C   0  0  0  0  0  0  0  0  0  0  0  0
  -23.8390  -28.9355   29.1260 C   0  0  0  0  0  0  0  0  0  0  0  0
  -22.5182  -30.8083   28.1408 C   0  0  0  0  0  0  0  0  0  0  0  0
  -18.1690  -25.5319   28.4803 C   0  0  0  0  0  0  0  0  0  0  0  0
  -30.7978  -16.8578   21.9802 C   0  0  0  0  0  0  0  0  0  0  0  0
  -23.1772  -21.6765   21.8118 C   0  0  0  0  0  0  0  0  0  1  0  0
  -22.0650  -28.4392   27.3832 C   0  0  1  0  0  0  0  0  0  0  0  0
  -19.5736  -27.0506   29.8800 C   0  0  2  0  0  0  0  0  0  0  0  0
  -23.1661  -29.4409   27.8320 C   0  0  0  0  0  0  0  0  0  0  0  0
  -25.8233  -11.5638   20.2602 N   0  0  0  0  0  0  0  0  0  0  0  0
  -26.1887  -12.8549   20.1853 N   0  0  0  0  0  0  0  0  0  0  0  0
  -21.4807  -27.9812   25.0225 N   0  0  0  0  0  0  0  0  0  0  0  0
  -29.9254  -13.6495   20.3058 N   0  0  0  0  0  0  0  0  0  0  0  0
  -25.4195  -15.0612   20.5742 N   0  0  0  0  0  0  0  0  0  0  0  0
  -21.8914  -12.5036   21.7604 N   0  0  0  0  0  0  0  0  0  0  0  0
  -27.6909  -20.3891   20.5220 N   0  0  0  0  0  0  0  0  0  0  0  0
  -21.9376  -29.4684   21.7246 N   0  0  0  0  0  0  0  0  0  0  0  0
  -21.0035  -28.2391   28.3638 N   0  0  0  0  0  0  0  0  0  0  0  0
  -30.1260  -15.6532   21.5461 N   0  0  0  0  0  0  0  0  0  0  0  0
  -18.7625  -25.8020   29.8151 N   0  3  0  0  0  0  0  0  0  0  0  0
  -22.6455  -14.6604   21.5646 O   0  0  0  0  0  0  0  0  0  0  0  0
  -26.6347  -19.1390   22.2060 O   0  0  0  0  0  0  0  0  0  0  0  0
  -23.3258  -28.8839   23.5005 O   0  0  0  0  0  0  0  0  0  0  0  0
  -20.7833  -29.9434   26.0712 O   0  0  0  0  0  0  0  0  0  0  0  0
  -21.2873  -25.9481   28.5820 O   0  0  0  0  0  0  0  0  0  0  0  0
  -31.8189  -14.9797   20.1542 O   0  0  0  0  0  0  0  0  0  0  0  0
  -21.6516   -6.9404   21.5908 O   0  0  0  0  0  0  0  0  0  0  0  0
  -22.9316  -22.3143   23.0645 O   0  0  0  0  0  0  0  0  0  1  0  0
  -24.2020   -2.7636   24.1312 F   0  0  0  0  0  0  0  0  0  0  0  0
  -20.6946   -5.9388   23.9832 F   0  0  0  0  0  0  0  0  0  0  0  0
  1  2  1  0  0  0  0
  1  5  2  0  0  0  0
  2  6  2  0  0  0  0
  3 10  2  0  0  0  0
  3 18  1  0  0  0  0
  4 11  1  0  0  0  0
  4 18  2  0  0  0  0
  5 20  1  0  0  0  0
  6 22  1  0  0  0  0
  7 12  2  0  0  0  0
  7 21  1  0  0  0  0
  8  9  2  0  0  0  0
  8 24  1  0  0  0  0
  9 25  1  0  0  0  0
 10 27  1  0  0  0  0
 11 27  2  0  0  0  0
 12 28  1  0  0  0  0
 13 14  2  0  0  0  0
 13 29  1  0  0  0  0
 14 30  1  0  0  0  0
 15 23  1  0  0  0  0
 15 28  2  0  0  0  0
 16 24  2  0  0  0  0
 16 26  1  0  0  0  0
 17 30  2  0  0  0  0
 17 31  1  0  0  0  0
 18 32  1  0  0  0  0
 19 32  1  0  0  0  0
 19 33  2  0  0  0  0
 19 36  1  0  0  0  0
 20 22  2  0  0  0  0
 20 42  1  0  0  0  0
 21 23  2  0  0  0  0
 21 43  1  0  0  0  0
 22 51  1  0  0  0  0
 23 44  1  0  0  0  0
 24 60  1  0  0  0  0
 25 26  2  0  0  0  0
 25 54  1  0  0  0  0
 26 71  1  0  0  0  0
 27 82  1  0  0  0  0
 28 83  1  0  0  0  0
 29 31  2  0  0  0  0
 29 82  1  0  0  0  0
 30 84  1  0  0  0  0
 31 85  1  0  0  0  0
 32 65  2  0  0  0  0
 33 66  1  0  0  0  0
 33 69  1  0  0  0  0
 34 35  2  0  0  0  0
 34 37  1  0  0  0  0
 35 61  1  0  0  0  0
 36 70  1  0  0  0  0
 36 76  2  0  0  0  0
 37 71  1  0  0  0  0
 37 77  2  0  0  0  0
 38 52  1  0  0  0  0
 38 72  1  0  0  0  0
 38 78  2  0  0  0  0
 39 62  1  0  0  0  0
 39 67  1  0  0  0  0
 39 79  2  0  0  0  0
 40 63  1  0  0  0  0
 40 73  1  0  0  0  0
 40 80  2  0  0  0  0
 41 68  1  0  0  0  0
 41 74  1  0  0  0  0
 41 81  2  0  0  0  0
 42 45  1  0  0  0  0
 43 52  1  0  0  0  0
 44 67  1  0  0  0  0
 45 47  1  0  0  0  0
 46 48  1  0  0  0  0
 46 49  1  0  0  0  0
 47 51  1  0  0  0  0
 48 53  1  0  0  0  0
 49 68  1  0  0  0  0
 50 53  1  0  0  0  0
 50 68  1  0  0  0  0
 51 72  1  0  0  0  0
 52 67  1  0  0  0  0
 53 66  1  0  0  0  0
 55 63  1  0  0  0  0
 56 64  1  0  0  0  0
 57 64  1  0  0  0  0
 58 64  1  0  0  0  0
 59 75  1  0  0  0  0
 60 74  1  0  0  0  0
 61 83  1  0  0  0  0
 62 64  1  0  0  0  0
 62 73  1  0  0  0  0
 63 75  1  0  0  0  0
 65 66  1  0  0  0  0
M  CHG  1  75   1
M  ISO  4  41 100  61 101  74 100  83 101
M  END
> <Batch ID>
0059

> <Smiles>
CNC(C)C(=O)NC(C(=O)N1Cc2cc([101O:1][101CH2:1]C=CC(=O)Nc3cc(C[100NH:0][100C:0](=O)N4CCCC(n5nc(-c6ccc(Oc7ccc(F)cc7F)cc6)c(C(N)=O)c5N)C4)ccc3C)ccc2CC1C(=O)NC1CCCc2ccccc21)C(C)(C)C

> <Shape>
0.277

> <Color>
0.228

> <Negative vol penalty>
0.000

$$$$

  -OEChem-04042323013D

 86 94  0     1  0  0  0  0  0999 V2000
  -30.2373  -31.3452   25.9962 C   0  0  0  0  0  0  0  0  0  0  0  0
  -30.0229  -30.6956   24.7848 C   0  0  0  0  0  0  0  0  0  0  0  0
  -26.2165  -12.8658   21.3430 C   0  0  0  0  0  0  0  0  0  0  0  0
  -26.1884  -13.1455   18.9434 C   0  0  0  0  0  0  0  0  0  0  0  0
  -29.2361  -31.3567   26.9665 C   0  0  0  0  0  0  0  0  0  0  0  0
  -28.8075  -30.0561   24.5434 C   0  0  0  0  0  0  0  0  0  0  0  0
  -26.9827  -31.0329   19.9216 C   0  0  0  0  0  0  0  0  0  0  0  0
  -28.4616  -20.6822   14.2718 C   0  0  0  0  0  0  0  0  0  0  0  0
  -28.8369  -19.9793   15.4167 C   0  0  0  0  0  0  0  0  0  0  0  0
  -25.0098  -12.1695   21.2761 C   0  0  0  0  0  0  0  0  0  0  0  0
  -24.9816  -12.4491   18.8765 C   0  0  0  0  0  0  0  0  0  0  0  0
  -27.5510  -30.3404   18.8533 C   0  0  0  0  0  0  0  0  0  0  0  0
  -23.9736   -9.0525   20.4739 C   0  0  0  0  0  0  0  0  0  0  0  0
  -23.8615   -7.8768   21.2160 C   0  0  0  0  0  0  0  0  0  0  0  0
  -25.6868  -28.8093   18.8620 C   0  0  0  0  0  0  0  0  0  0  0  0
  -28.6823  -22.0112   16.7147 C   0  0  0  0  0  0  0  0  0  0  0  0
  -22.0079   -8.8263   22.4405 C   0  0  0  0  0  0  0  0  0  0  0  0
  -26.8058  -13.3538   20.1767 C   0  0  0  0  0  0  0  0  0  0  0  0
  -29.3504  -13.5350   20.1670 C   0  0  0  0  0  0  0  0  0  0  0  0
  -28.0043  -30.7253   26.7331 C   0  0  0  0  0  0  0  0  0  0  0  0
  -25.7656  -30.6115   20.4762 C   0  0  0  0  0  0  0  0  0  0  0  0
  -27.7894  -30.0581   25.5120 C   0  0  0  0  0  0  0  0  0  0  0  0
  -25.1040  -29.4997   19.9357 C   0  0  0  0  0  0  0  0  0  0  0  0
  -28.1966  -22.0495   14.3483 C   0  0  0  0  0  0  0  0  0  0  0  0
  -28.9473  -20.6438   16.6381 C   0  0  0  0  0  0  0  0  0  0  0  0
  -28.3070  -22.7140   15.5698 C   0  0  0  0  0  0  0  0  0  0  0  0
  -24.3923  -11.9611   20.0428 C   0  0  0  0  0  0  0  0  0  0  0  0
  -26.9045  -29.2267   18.3252 C   0  0  0  0  0  0  0  0  0  0  0  0
  -23.1028  -10.1152   20.7152 C   0  0  0  0  0  0  0  0  0  0  0  0
  -22.8787   -7.7636   22.1992 C   0  0  0  0  0  0  0  0  0  0  0  0
  -22.1200  -10.0021   21.6985 C   0  0  0  0  0  0  0  0  0  0  0  0
  -28.0521  -14.0737   20.2453 C   0  0  0  0  0  0  0  0  0  0  0  0
  -30.1810  -14.6227   20.2832 C   0  0  0  0  0  0  0  0  0  0  0  0
  -27.7569  -26.3097   16.4939 C   0  0  0  0  0  0  0  0  0  0  0  0
  -27.7647  -27.2294   17.4641 C   0  0  0  0  0  0  0  0  0  1  0  0
  -29.7681  -12.1732   20.0039 C   0  0  0  0  0  0  0  0  0  0  0  0
  -28.1103  -24.8941   16.8062 C   0  0  0  0  0  0  0  0  0  0  0  0
  -24.8437  -29.5718   23.3350 C   0  0  0  0  0  0  0  0  0  0  0  0
  -21.8905  -29.7055   21.9996 C   0  0  0  0  0  0  0  0  0  0  0  0
  -26.3107  -23.0823   13.0287 C   0  0  0  0  0  0  0  0  0  0  0  0
  -19.9877  -29.6727   19.1668 C   0  0  0  0  0  0  0  0  0  0  0  0
  -29.4851  -20.4363   19.0905 C   0  0  0  0  0  0  0  0  0  0  0  0
  -26.9697  -30.7241   27.8305 C   0  0  0  0  0  0  0  0  0  0  0  0
  -25.1526  -31.3853   21.6111 C   0  0  0  0  0  0  0  0  0  0  0  0
  -23.7853  -29.0188   20.4819 C   0  0  0  0  0  0  0  0  0  0  0  0
  -25.5719  -30.3432   27.3495 C   0  0  0  0  0  0  0  0  0  0  0  0
  -30.3741  -18.9968   22.2233 C   0  0  0  0  0  0  0  0  0  0  0  0
  -25.6328  -29.1080   26.4566 C   0  0  0  0  0  0  0  0  0  0  0  0
  -30.0033  -17.5207   22.0623 C   0  0  0  0  0  0  0  0  0  0  0  0
  -29.3759  -19.9126   21.5171 C   0  0  0  0  0  0  0  0  0  0  0  0
  -28.7637  -18.1192   19.9428 C   0  0  0  0  0  0  0  0  0  0  0  0
  -26.4752  -29.3743   25.2032 C   0  0  1  0  0  0  0  0  0  0  0  0
  -24.1645  -30.5613   22.4310 C   0  0  1  0  0  0  0  0  0  0  0  0
  -29.7760  -17.1549   20.5824 C   0  0  2  0  0  0  0  0  0  0  0  0
  -17.6012  -29.7599   18.3957 C   0  0  0  0  0  0  0  0  0  0  0  0
  -21.5141  -26.7977   22.8438 C   0  0  0  0  0  0  0  0  0  0  0  0
  -19.5811  -26.6606   21.2586 C   0  0  0  0  0  0  0  0  0  0  0  0
  -19.5059  -28.2499   23.1798 C   0  0  0  0  0  0  0  0  0  0  0  0
  -20.4486  -32.1697   17.6465 C   0  0  0  0  0  0  0  0  0  0  0  0
  -27.7965  -22.7769   13.1059 C   0  0  0  0  0  0  0  0  0  0  0  0
  -21.0251  -28.7449   21.2204 C   0  0  1  0  0  0  0  0  0  0  0  0
  -18.8516  -30.5680   18.7061 C   0  0  2  0  0  0  0  0  0  0  0  0
  -20.4323  -27.6209   22.1164 C   0  0  0  0  0  0  0  0  0  0  0  0
  -28.0528  -15.4004   20.3994 N   0  0  0  0  0  0  0  0  0  0  0  0
  -29.3617  -15.7045   20.4190 N   0  0  0  0  0  0  0  0  0  0  0  0
  -23.2295  -29.8048   21.5957 N   0  0  0  0  0  0  0  0  0  0  0  0
  -29.2146  -19.5087   20.1187 N   0  0  0  0  0  0  0  0  0  0  0  0
  -31.5250  -14.7496   20.2815 N   0  0  0  0  0  0  0  0  0  0  0  0
  -28.7843  -11.1803   19.9005 N   0  0  0  0  0  0  0  0  0  0  0  0
  -26.0373  -24.1986   12.2667 N   0  0  0  0  0  0  0  0  0  0  0  0
  -28.0422  -24.1022   15.6677 N   0  0  0  0  0  0  0  0  0  0  0  0
  -29.3287  -19.9294   17.8008 N   0  0  0  0  0  0  0  0  0  0  0  0
  -25.7179  -30.1438   24.2394 N   0  0  0  0  0  0  0  0  0  0  0  0
  -20.0227  -29.5581   20.5404 N   0  0  0  0  0  0  0  0  0  0  0  0
  -19.2458  -31.3144   17.4778 N   0  3  0  0  0  0  0  0  0  0  0  0
  -30.9782  -11.8445   19.9678 O   0  0  0  0  0  0  0  0  0  0  0  0
  -28.4109  -24.5506   17.9434 O   0  0  0  0  0  0  0  0  0  0  0  0
  -24.5921  -28.3779   23.2214 O   0  0  0  0  0  0  0  0  0  0  0  0
  -21.3950  -30.3495   22.9277 O   0  0  0  0  0  0  0  0  0  0  0  0
  -25.4461  -22.4117   13.5858 O   0  0  0  0  0  0  0  0  0  0  0  0
  -20.7640  -29.1265   18.3860 O   0  0  0  0  0  0  0  0  0  0  0  0
  -29.8564  -21.5869   19.3357 O   0  0  0  0  0  0  0  0  0  0  0  0
  -23.2149  -11.2815   19.9771 O   0  0  0  0  0  0  0  0  0  0  0  0
  -27.4573  -28.5486   17.2829 O   0  0  0  0  0  0  0  0  0  1  0  0
  -22.7702   -6.6339   22.9107 F   0  0  0  0  0  0  0  0  0  0  0  0
  -21.2798  -11.0192   21.9340 F   0  0  0  0  0  0  0  0  0  0  0  0
  1  2  1  0  0  0  0
  1  5  2  0  0  0  0
  2  6  2  0  0  0  0
  3 10  2  0  0  0  0
  3 18  1  0  0  0  0
  4 11  1  0  0  0  0
  4 18  2  0  0  0  0
  5 20  1  0  0  0  0
  6 22  1  0  0  0  0
  7 12  2  0  0  0  0
  7 21  1  0  0  0  0
  8  9  2  0  0  0  0
  8 24  1  0  0  0  0
  9 25  1  0  0  0  0
 10 27  1  0  0  0  0
 11 27  2  0  0  0  0
 12 28  1  0  0  0  0
 13 14  2  0  0  0  0
 13 29  1  0  0  0  0
 14 30  1  0  0  0  0
 15 23  1  0  0  0  0
 15 28  2  0  0  0  0
 16 25  2  0  0  0  0
 16 26  1  0  0  0  0
 17 30  2  0  0  0  0
 17 31  1  0  0  0  0
 18 32  1  0  0  0  0
 19 32  1  0  0  0  0
 19 33  2  0  0  0  0
 19 36  1  0  0  0  0
 20 22  2  0  0  0  0
 20 43  1  0  0  0  0
 21 23  2  0  0  0  0
 21 44  1  0  0  0  0
 22 52  1  0  0  0  0
 23 45  1  0  0  0  0
 24 26  2  0  0  0  0
 24 60  1  0  0  0  0
 25 72  1  0  0  0  0
 26 71  1  0  0  0  0
 27 83  1  0  0  0  0
 28 84  1  0  0  0  0
 29 31  2  0  0  0  0
 29 83  1  0  0  0  0
 30 85  1  0  0  0  0
 31 86  1  0  0  0  0
 32 64  2  0  0  0  0
 33 65  1  0  0  0  0
 33 68  1  0  0  0  0
 34 35  2  0  0  0  0
 34 37  1  0  0  0  0
 35 84  1  0  0  0  0
 36 69  1  0  0  0  0
 36 76  2  0  0  0  0
 37 71  1  0  0  0  0
 37 77  2  0  0  0  0
 38 53  1  0  0  0  0
 38 73  1  0  0  0  0
 38 78  2  0  0  0  0
 39 61  1  0  0  0  0
 39 66  1  0  0  0  0
 39 79  2  0  0  0  0
 40 60  1  0  0  0  0
 40 70  1  0  0  0  0
 40 80  2  0  0  0  0
 41 62  1  0  0  0  0
 41 74  1  0  0  0  0
 41 81  2  0  0  0  0
 42 67  1  0  0  0  0
 42 72  1  0  0  0  0
 42 82  2  0  0  0  0
 43 46  1  0  0  0  0
 44 53  1  0  0  0  0
 45 66  1  0  0  0  0
 46 48  1  0  0  0  0
 47 49  1  0  0  0  0
 47 50  1  0  0  0  0
 48 52  1  0  0  0  0
 49 54  1  0  0  0  0
 50 67  1  0  0  0  0
 51 54  1  0  0  0  0
 51 67  1  0  0  0  0
 52 73  1  0  0  0  0
 53 66  1  0  0  0  0
 54 65  1  0  0  0  0
 55 62  1  0  0  0  0
 56 63  1  0  0  0  0
 57 63  1  0  0  0  0
 58 63  1  0  0  0  0
 59 75  1  0  0  0  0
 61 63  1  0  0  0  0
 61 74  1  0  0  0  0
 62 75  1  0  0  0  0
 64 65  1  0  0  0  0
M  CHG  1  75   1
M  ISO  4  35 101  42 100  72 100  84 101
M  END
> <Batch ID>
0059

> <Smiles>
CNC(C)C(=O)NC(C(=O)N1Cc2cc([101O:1][101CH:1]=CC(=O)Nc3cc([100NH:0][100C:0](=O)N4CCCC(n5nc(-c6ccc(Oc7ccc(F)cc7F)cc6)c(C(N)=O)c5N)C4)ccc3CC(N)=O)ccc2CC1C(=O)NC1CCCc2ccccc21)C(C)(C)C

> <Shape>
0.282

> <Color>
0.070

> <Negative vol penalty>
0.000

$$$$

  -OEChem-04042323013D

 84 92  0     1  0  0  0  0  0999 V2000
  -23.1715  -18.7593   23.8205 C   0  0  0  0  0  0  0  0  0  0  0  0
  -24.4848  -18.8571   24.2688 C   0  0  0  0  0  0  0  0  0  0  0  0
  -23.0734   -9.8699   19.9416 C   0  0  0  0  0  0  0  0  0  0  0  0
  -23.8314   -9.8779   22.2356 C   0  0  0  0  0  0  0  0  0  0  0  0
  -22.3349  -19.8736   23.8687 C   0  0  0  0  0  0  0  0  0  0  0  0
  -24.9627  -20.0697   24.7645 C   0  0  0  0  0  0  0  0  0  0  0  0
  -27.6245  -19.5086   29.0359 C   0  0  0  0  0  0  0  0  0  0  0  0
  -22.3284   -8.7175   20.1917 C   0  0  0  0  0  0  0  0  0  0  0  0
  -23.0863   -8.7256   22.4858 C   0  0  0  0  0  0  0  0  0  0  0  0
  -28.9355  -19.0502   28.9136 C   0  0  0  0  0  0  0  0  0  0  0  0
  -19.3782   -7.9245   21.6411 C   0  0  0  0  0  0  0  0  0  0  0  0
  -18.0717   -7.8790   21.1548 C   0  0  0  0  0  0  0  0  0  0  0  0
  -29.7415  -21.3120   29.1452 C   0  0  0  0  0  0  0  0  0  0  0  0
  -29.8804  -17.4567   23.1397 C   0  0  0  0  0  0  0  0  0  0  0  0
  -32.0640  -16.6054   22.5526 C   0  0  0  0  0  0  0  0  0  0  0  0
  -18.6309   -5.9345   19.8344 C   0  0  0  0  0  0  0  0  0  0  0  0
  -23.8250  -10.4501   20.9635 C   0  0  0  0  0  0  0  0  0  0  0  0
  -31.8540  -18.3572   24.2031 C   0  0  0  0  0  0  0  0  0  0  0  0
  -24.1690  -12.9748   20.8419 C   0  0  0  0  0  0  0  0  0  0  0  0
  -22.7998  -21.0979   24.3742 C   0  0  0  0  0  0  0  0  0  0  0  0
  -27.3612  -20.8758   29.2031 C   0  0  0  0  0  0  0  0  0  0  0  0
  -24.1319  -21.2018   24.8182 C   0  0  0  0  0  0  0  0  0  0  0  0
  -28.4264  -21.7849   29.2720 C   0  0  0  0  0  0  0  0  0  0  0  0
  -30.4683  -18.3407   24.0443 C   0  0  0  0  0  0  0  0  0  0  0  0
  -30.6783  -16.5889   22.3938 C   0  0  0  0  0  0  0  0  0  0  0  0
  -22.3348   -8.1454   21.4638 C   0  0  0  0  0  0  0  0  0  0  0  0
  -29.9941  -19.9523   28.9654 C   0  0  0  0  0  0  0  0  0  0  0  0
  -20.3112   -6.9750   21.2240 C   0  0  0  0  0  0  0  0  0  0  0  0
  -17.6981   -6.8840   20.2515 C   0  0  0  0  0  0  0  0  0  0  0  0
  -32.6519  -17.4896   23.4573 C   0  0  0  0  0  0  0  0  0  0  0  0
  -19.9375   -5.9800   20.3207 C   0  0  0  0  0  0  0  0  0  0  0  0
  -24.5953  -11.6401   20.7055 C   0  0  0  0  0  0  0  0  0  0  0  0
  -25.2621  -13.7231   20.4790 C   0  0  0  0  0  0  0  0  0  0  0  0
  -32.5022  -19.2895   25.1611 C   0  0  0  0  0  0  0  0  0  0  0  0
  -22.8986  -13.4920   21.2594 C   0  0  0  0  0  0  0  0  0  0  0  0
  -25.7957  -23.0796   27.5309 C   0  0  0  0  0  0  0  0  0  0  0  0
  -26.4216  -24.9295   30.1210 C   0  0  0  0  0  0  0  0  0  0  0  0
  -28.3867  -25.5297   32.8458 C   0  0  0  0  0  0  0  0  0  0  0  0
  -30.7290  -14.7643   20.6576 C   0  0  0  0  0  0  0  0  0  0  0  0
  -21.8725  -22.2873   24.3625 C   0  0  0  0  0  0  0  0  0  0  0  0
  -25.9428  -21.3510   29.3603 C   0  0  0  0  0  0  0  0  0  0  0  0
  -28.1982  -23.2604   29.4704 C   0  0  0  0  0  0  0  0  0  0  0  0
  -22.3443  -23.4362   25.2499 C   0  0  0  0  0  0  0  0  0  0  0  0
  -29.6146  -12.3497   18.2902 C   0  0  0  0  0  0  0  0  0  0  0  0
  -23.8266  -23.7141   25.0205 C   0  0  0  0  0  0  0  0  0  0  0  0
  -28.1743  -12.0596   18.7187 C   0  0  0  0  0  0  0  0  0  0  0  0
  -30.5289  -12.5786   19.4924 C   0  0  0  0  0  0  0  0  0  0  0  0
  -28.6213  -13.3057   20.8715 C   0  0  0  0  0  0  0  0  0  0  0  0
  -24.6797  -22.4933   25.3858 C   0  0  1  0  0  0  0  0  0  0  0  0
  -25.7645  -22.8255   29.0115 C   0  0  1  0  0  0  0  0  0  0  0  0
  -27.6494  -13.1324   19.6930 C   0  0  2  0  0  0  0  0  0  0  0  0
  -29.5901  -19.2593   24.8300 C   0  0  0  0  0  0  0  0  0  0  0  0
  -28.6744  -27.1369   34.7515 C   0  0  0  0  0  0  0  0  0  0  0  0
  -27.6424  -26.9719   28.2110 C   0  0  0  0  0  0  0  0  0  0  0  0
  -28.7336  -28.0609   30.1838 C   0  0  0  0  0  0  0  0  0  0  0  0
  -26.2456  -27.9561   30.0371 C   0  0  0  0  0  0  0  0  0  0  0  0
  -27.9505  -23.4032   34.8574 C   0  0  0  0  0  0  0  0  0  0  0  0
  -33.2652  -19.6050   27.5008 C   0  0  0  0  0  0  0  0  0  0  0  0
  -32.2208  -20.4021   28.2617 C   0  0  0  0  0  0  0  0  0  1  0  0
  -27.5479  -25.8465   30.5327 C   0  0  1  0  0  0  0  0  0  0  0  0
  -28.0382  -25.8344   34.2916 C   0  0  2  0  0  0  0  0  0  0  0  0
  -27.5469  -27.1813   29.7355 C   0  0  0  0  0  0  0  0  0  0  0  0
  -25.8604  -11.5429   20.2884 N   0  0  0  0  0  0  0  0  0  0  0  0
  -26.2385  -12.8261   20.1595 N   0  0  0  0  0  0  0  0  0  0  0  0
  -26.7932  -23.6768   29.6126 N   0  0  0  0  0  0  0  0  0  0  0  0
  -29.9700  -13.6105   20.3686 N   0  0  0  0  0  0  0  0  0  0  0  0
  -25.4737  -15.0544   20.4052 N   0  0  0  0  0  0  0  0  0  0  0  0
  -21.8856  -12.5839   21.5965 N   0  0  0  0  0  0  0  0  0  0  0  0
  -30.0817  -15.6905   21.4748 N   0  0  0  0  0  0  0  0  0  0  0  0
  -32.6757  -18.8127   26.4544 N   0  0  0  0  0  0  0  0  0  0  0  0
  -24.8290  -22.3924   26.8217 N   0  0  0  0  0  0  0  0  0  0  0  0
  -27.4311  -26.0133   31.9774 N   0  0  0  0  0  0  0  0  0  0  0  0
  -28.5155  -24.7384   35.1815 N   0  3  0  0  0  0  0  0  0  0  0  0
  -32.8255  -20.4117   24.7808 O   0  0  0  0  0  0  0  0  0  0  0  0
  -22.6633  -14.7229   21.3156 O   0  0  0  0  0  0  0  0  0  0  0  0
  -26.6336  -23.8436   27.0665 O   0  0  0  0  0  0  0  0  0  0  0  0
  -25.2549  -25.3079   30.2524 O   0  0  0  0  0  0  0  0  0  0  0  0
  -29.4066  -24.9266   32.5194 O   0  0  0  0  0  0  0  0  0  0  0  0
  -31.8586  -14.9318   20.1908 O   0  0  0  0  0  0  0  0  0  0  0  0
  -21.6077   -7.0211   21.7084 O   0  0  0  0  0  0  0  0  0  0  0  0
  -31.2746  -19.5076   28.8456 O   0  0  0  0  0  0  0  0  0  1  0  0
  -16.4430   -6.8395   19.7857 F   0  0  0  0  0  0  0  0  0  0  0  0
  -33.9848  -17.4955   23.6011 F   0  0  0  0  0  0  0  0  0  0  0  0
  -20.8290   -5.0644   19.9173 F   0  0  0  0  0  0  0  0  0  0  0  0
  1  2  1  0  0  0  0
  1  5  2  0  0  0  0
  2  6  2  0  0  0  0
  3  8  2  0  0  0  0
  3 17  1  0  0  0  0
  4  9  1  0  0  0  0
  4 17  2  0  0  0  0
  5 20  1  0  0  0  0
  6 22  1  0  0  0  0
  7 10  2  0  0  0  0
  7 21  1  0  0  0  0
  8 26  1  0  0  0  0
  9 26  2  0  0  0  0
 10 27  1  0  0  0  0
 11 12  2  0  0  0  0
 11 28  1  0  0  0  0
 12 29  1  0  0  0  0
 13 23  1  0  0  0  0
 13 27  2  0  0  0  0
 14 24  2  0  0  0  0
 14 25  1  0  0  0  0
 15 25  2  0  0  0  0
 15 30  1  0  0  0  0
 16 29  2  0  0  0  0
 16 31  1  0  0  0  0
 17 32  1  0  0  0  0
 18 24  1  0  0  0  0
 18 30  2  0  0  0  0
 18 34  1  0  0  0  0
 19 32  1  0  0  0  0
 19 33  2  0  0  0  0
 19 35  1  0  0  0  0
 20 22  2  0  0  0  0
 20 40  1  0  0  0  0
 21 23  2  0  0  0  0
 21 41  1  0  0  0  0
 22 49  1  0  0  0  0
 23 42  1  0  0  0  0
 24 52  1  0  0  0  0
 25 69  1  0  0  0  0
 26 80  1  0  0  0  0
 27 81  1  0  0  0  0
 28 31  2  0  0  0  0
 28 80  1  0  0  0  0
 29 82  1  0  0  0  0
 30 83  1  0  0  0  0
 31 84  1  0  0  0  0
 32 63  2  0  0  0  0
 33 64  1  0  0  0  0
 33 67  1  0  0  0  0
 34 70  1  0  0  0  0
 34 74  2  0  0  0  0
 35 68  1  0  0  0  0
 35 75  2  0  0  0  0
 36 50  1  0  0  0  0
 36 71  1  0  0  0  0
 36 76  2  0  0  0  0
 37 60  1  0  0  0  0
 37 65  1  0  0  0  0
 37 77  2  0  0  0  0
 38 61  1  0  0  0  0
 38 72  1  0  0  0  0
 38 78  2  0  0  0  0
 39 66  1  0  0  0  0
 39 69  1  0  0  0  0
 39 79  2  0  0  0  0
 40 43  1  0  0  0  0
 41 50  1  0  0  0  0
 42 65  1  0  0  0  0
 43 45  1  0  0  0  0
 44 46  1  0  0  0  0
 44 47  1  0  0  0  0
 45 49  1  0  0  0  0
 46 51  1  0  0  0  0
 47 66  1  0  0  0  0
 48 51  1  0  0  0  0
 48 66  1  0  0  0  0
 49 71  1  0  0  0  0
 50 65  1  0  0  0  0
 51 64  1  0  0  0  0
 53 61  1  0  0  0  0
 54 62  1  0  0  0  0
 55 62  1  0  0  0  0
 56 62  1  0  0  0  0
 57 73  1  0  0  0  0
 58 59  1  0  0  0  0
 58 70  1  0  0  0  0
 59 81  1  0  0  0  0
 60 62  1  0  0  0  0
 60 72  1  0  0  0  0
 61 73  1  0  0  0  0
 63 64  1  0  0  0  0
M  CHG  1  73   1
M  ISO  4  39 100  59 101  69 100  81 101
M  END
> <Batch ID>
0059

> <Smiles>
CNC(C)C(=O)NC(C(=O)N1Cc2cc([101O:1][101CH2:1]CNC(=O)c3c(C)cc([100NH:0][100C:0](=O)N4CCCC(n5nc(-c6ccc(Oc7ccc(F)cc7F)cc6)c(C(N)=O)c5N)C4)cc3F)ccc2CC1C(=O)NC1CCCc2ccccc21)C(C)(C)C

> <Shape>
0.146

> <Color>
0.191

> <Negative vol penalty>
0.000

$$$$

  -OEChem-04042323013D

 91 99  0     1  0  0  0  0  0999 V2000
  -30.8253  -35.0856   22.9423 C   0  0  0  0  0  0  0  0  0  0  0  0
  -30.6763  -33.7469   22.5943 C   0  0  0  0  0  0  0  0  0  0  0  0
  -23.0195   -9.9029   20.4838 C   0  0  0  0  0  0  0  0  0  0  0  0
  -23.7193  -10.3361   22.7553 C   0  0  0  0  0  0  0  0  0  0  0  0
  -29.8132  -35.7391   23.6441 C   0  0  0  0  0  0  0  0  0  0  0  0
  -29.5155  -33.0605   22.9491 C   0  0  0  0  0  0  0  0  0  0  0  0
  -26.7096  -28.6663   19.7361 C   0  0  0  0  0  0  0  0  0  0  0  0
  -22.2356   -8.8383   20.9283 C   0  0  0  0  0  0  0  0  0  0  0  0
  -22.9354   -9.2715   23.1999 C   0  0  0  0  0  0  0  0  0  0  0  0
  -26.7350  -27.2754   19.8283 C   0  0  0  0  0  0  0  0  0  0  0  0
  -19.6704   -8.6834   23.8438 C   0  0  0  0  0  0  0  0  0  0  0  0
  -18.8824   -8.8894   24.9762 C   0  0  0  0  0  0  0  0  0  0  0  0
  -24.7244  -27.3331   21.1600 C   0  0  0  0  0  0  0  0  0  0  0  0
  -29.9582  -17.8030   22.3665 C   0  0  0  0  0  0  0  0  0  0  0  0
  -32.1312  -16.8050   22.0218 C   0  0  0  0  0  0  0  0  0  0  0  0
  -20.0463   -7.1022   26.1113 C   0  0  0  0  0  0  0  0  0  0  0  0
  -23.7615  -10.6518   21.3973 C   0  0  0  0  0  0  0  0  0  0  0  0
  -24.1809  -13.0968   20.8026 C   0  0  0  0  0  0  0  0  0  0  0  0
  -28.6353  -35.0630   23.9992 C   0  0  0  0  0  0  0  0  0  0  0  0
  -25.6958  -29.4030   20.3653 C   0  0  0  0  0  0  0  0  0  0  0  0
  -28.4872  -33.7052   23.6575 C   0  0  0  0  0  0  0  0  0  0  0  0
  -24.6870  -28.7330   21.0721 C   0  0  0  0  0  0  0  0  0  0  0  0
  -30.5471  -18.8315   23.1019 C   0  0  0  0  0  0  0  0  0  0  0  0
  -31.9282  -18.8469   23.2972 C   0  0  0  0  0  0  0  0  0  0  0  0
  -30.7502  -16.7896   21.8265 C   0  0  0  0  0  0  0  0  0  0  0  0
  -32.7203  -17.8336   22.7571 C   0  0  0  0  0  0  0  0  0  0  0  0
  -22.1935   -8.5226   22.2864 C   0  0  0  0  0  0  0  0  0  0  0  0
  -25.7439  -26.6087   20.5428 C   0  0  0  0  0  0  0  0  0  0  0  0
  -20.6464   -7.6867   23.8452 C   0  0  0  0  0  0  0  0  0  0  0  0
  -19.0704   -8.0989   26.1099 C   0  0  0  0  0  0  0  0  0  0  0  0
  -20.8343   -6.8962   24.9789 C   0  0  0  0  0  0  0  0  0  0  0  0
  -24.5719  -11.7513   20.9386 C   0  0  0  0  0  0  0  0  0  0  0  0
  -25.3038  -13.7352   20.3358 C   0  0  0  0  0  0  0  0  0  0  0  0
  -22.9158  -13.7144   21.0742 C   0  0  0  0  0  0  0  0  0  0  0  0
  -25.6156  -31.6081   22.6533 C   0  0  0  0  0  0  0  0  0  0  0  0
  -26.6474  -23.0844   20.1730 C   0  0  0  0  0  0  0  0  0  0  0  0
  -22.4706  -31.7462   21.8705 C   0  0  0  0  0  0  0  0  0  0  0  0
  -19.7514  -30.1919   20.5151 C   0  0  0  0  0  0  0  0  0  0  0  0
  -30.7922  -14.6634   20.4761 C   0  0  0  0  0  0  0  0  0  0  0  0
  -27.5892  -35.7984   24.7989 C   0  0  0  0  0  0  0  0  0  0  0  0
  -25.6676  -30.9011   20.2339 C   0  0  0  0  0  0  0  0  0  0  0  0
  -23.5653  -29.4763   21.7487 C   0  0  0  0  0  0  0  0  0  0  0  0
  -26.2303  -35.1028   24.8097 C   0  0  0  0  0  0  0  0  0  0  0  0
  -29.6688  -11.8637   18.5849 C   0  0  0  0  0  0  0  0  0  0  0  0
  -26.3954  -33.6131   25.0933 C   0  0  0  0  0  0  0  0  0  0  0  0
  -28.2105  -11.6955   19.0174 C   0  0  0  0  0  0  0  0  0  0  0  0
  -30.5587  -12.2991   19.7477 C   0  0  0  0  0  0  0  0  0  0  0  0
  -28.6388  -13.3231   20.9028 C   0  0  0  0  0  0  0  0  0  0  0  0
  -27.2321  -32.9334   24.0027 C   0  0  1  0  0  0  0  0  0  0  0  0
  -24.8763  -31.5836   21.3454 C   0  0  1  0  0  0  0  0  0  0  0  0
  -27.6922  -12.9482   19.7508 C   0  0  2  0  0  0  0  0  0  0  0  0
  -32.5578  -19.9520   24.0855 C   0  0  0  0  0  0  0  0  0  0  0  0
  -25.7908  -22.3672   19.1571 C   0  0  0  0  0  0  0  0  0  0  0  0
  -17.3105  -30.5426   20.0499 C   0  0  0  0  0  0  0  0  0  0  0  0
  -21.8446  -31.2849   24.8209 C   0  0  0  0  0  0  0  0  0  0  0  0
  -19.5009  -30.7023   24.1607 C   0  0  0  0  0  0  0  0  0  0  0  0
  -20.3935  -32.9856   23.7000 C   0  0  0  0  0  0  0  0  0  0  0  0
  -20.1457  -29.8927   17.5973 C   0  0  0  0  0  0  0  0  0  0  0  0
  -35.0027  -19.9432   21.5296 C   0  0  0  0  0  0  0  0  0  0  0  0
  -29.6686  -19.9142   23.6746 C   0  0  0  0  0  0  0  0  0  0  0  0
  -26.8350  -24.5732   19.9752 C   0  0  0  0  0  0  0  0  0  1  0  0
  -29.2412  -20.9215   22.6041 C   0  0  0  0  0  0  0  0  0  0  0  0
  -28.3848  -22.0391   23.2066 C   0  0  0  0  0  0  0  0  0  0  0  0
  -27.9305  -23.0528   22.1624 C   0  0  0  0  0  0  0  0  0  0  0  0
  -21.2226  -31.0306   22.3280 C   0  0  1  0  0  0  0  0  0  0  0  0
  -18.7239  -30.6619   19.5014 C   0  0  2  0  0  0  0  0  0  0  0  0
  -20.7625  -31.4867   23.7414 C   0  0  0  0  0  0  0  0  0  0  0  0
  -25.8438  -11.5459   20.5864 N   0  0  0  0  0  0  0  0  0  0  0  0
  -27.1264  -22.3911   21.1487 N   0  0  0  0  0  0  0  0  0  0  0  0
  -26.2618  -12.7708   20.2245 N   0  0  0  0  0  0  0  0  0  0  0  0
  -23.5850  -30.9405   21.5967 N   0  0  0  0  0  0  0  0  0  0  0  0
  -30.0079  -13.4935   20.3916 N   0  0  0  0  0  0  0  0  0  0  0  0
  -25.5554  -15.0218   20.0137 N   0  0  0  0  0  0  0  0  0  0  0  0
  -21.8689  -12.9124   21.5488 N   0  0  0  0  0  0  0  0  0  0  0  0
  -30.1514  -15.7448   21.0799 N   0  0  0  0  0  0  0  0  0  0  0  0
  -34.1382  -17.8309   22.9440 N   0  0  0  0  0  0  0  0  0  0  0  0
  -26.4324  -32.7105   22.8173 N   0  0  0  0  0  0  0  0  0  0  0  0
  -20.2277  -31.2351   21.2808 N   0  0  0  0  0  0  0  0  0  0  0  0
  -18.8149  -29.8482   18.2562 N   0  3  0  0  0  0  0  0  0  0  0  0
  -22.7146  -14.9381   20.8854 O   0  0  0  0  0  0  0  0  0  0  0  0
  -25.4555  -30.6951   23.4549 O   0  0  0  0  0  0  0  0  0  0  0  0
  -22.4551  -32.9740   21.7532 O   0  0  0  0  0  0  0  0  0  0  0  0
  -20.0943  -29.0163   20.6200 O   0  0  0  0  0  0  0  0  0  0  0  0
  -31.9376  -14.7111   20.0203 O   0  0  0  0  0  0  0  0  0  0  0  0
  -36.5098  -17.8622   21.9368 O   0  0  0  0  0  0  0  0  0  0  0  0
  -34.5526  -17.6427   20.3664 O   0  0  0  0  0  0  0  0  0  0  0  0
  -21.4284   -7.4840   22.7205 O   0  0  0  0  0  0  0  0  0  0  0  0
  -25.7666  -25.2512   20.6349 O   0  0  0  0  0  0  0  0  0  1  0  0
  -18.3146   -8.2978   27.1977 F   0  0  0  0  0  0  0  0  0  0  0  0
  -21.7711   -5.9380   24.9866 F   0  0  0  0  0  0  0  0  0  0  0  0
  -35.1365  -18.1702   21.5838 S   0  0  0  0  0  0  0  0  0  0  0  0
  1  2  1  0  0  0  0
  1  5  2  0  0  0  0
  2  6  2  0  0  0  0
  3  8  2  0  0  0  0
  3 17  1  0  0  0  0
  4  9  1  0  0  0  0
  4 17  2  0  0  0  0
  5 19  1  0  0  0  0
  6 21  1  0  0  0  0
  7 10  2  0  0  0  0
  7 20  1  0  0  0  0
  8 27  1  0  0  0  0
  9 27  2  0  0  0  0
 10 28  1  0  0  0  0
 11 12  2  0  0  0  0
 11 29  1  0  0  0  0
 12 30  1  0  0  0  0
 13 22  1  0  0  0  0
 13 28  2  0  0  0  0
 14 23  1  0  0  0  0
 14 25  2  0  0  0  0
 15 25  1  0  0  0  0
 15 26  2  0  0  0  0
 16 30  2  0  0  0  0
 16 31  1  0  0  0  0
 17 32  1  0  0  0  0
 18 32  1  0  0  0  0
 18 33  2  0  0  0  0
 18 34  1  0  0  0  0
 19 21  2  0  0  0  0
 19 40  1  0  0  0  0
 20 22  2  0  0  0  0
 20 41  1  0  0  0  0
 21 49  1  0  0  0  0
 22 42  1  0  0  0  0
 23 24  2  0  0  0  0
 23 60  1  0  0  0  0
 24 26  1  0  0  0  0
 24 52  1  0  0  0  0
 25 75  1  0  0  0  0
 26 76  1  0  0  0  0
 27 87  1  0  0  0  0
 28 88  1  0  0  0  0
 29 31  2  0  0  0  0
 29 87  1  0  0  0  0
 30 89  1  0  0  0  0
 31 90  1  0  0  0  0
 32 68  2  0  0  0  0
 33 70  1  0  0  0  0
 33 73  1  0  0  0  0
 34 74  1  0  0  0  0
 34 80  2  0  0  0  0
 35 50  1  0  0  0  0
 35 77  1  0  0  0  0
 35 81  2  0  0  0  0
 36 53  1  0  0  0  0
 36 61  1  0  0  0  0
 36 69  2  0  0  0  0
 37 65  1  0  0  0  0
 37 71  1  0  0  0  0
 37 82  2  0  0  0  0
 38 66  1  0  0  0  0
 38 78  1  0  0  0  0
 38 83  2  0  0  0  0
 39 72  1  0  0  0  0
 39 75  1  0  0  0  0
 39 84  2  0  0  0  0
 40 43  1  0  0  0  0
 41 50  1  0  0  0  0
 42 71  1  0  0  0  0
 43 45  1  0  0  0  0
 44 46  1  0  0  0  0
 44 47  1  0  0  0  0
 45 49  1  0  0  0  0
 46 51  1  0  0  0  0
 47 72  1  0  0  0  0
 48 51  1  0  0  0  0
 48 72  1  0  0  0  0
 49 77  1  0  0  0  0
 50 71  1  0  0  0  0
 51 70  1  0  0  0  0
 54 66  1  0  0  0  0
 55 67  1  0  0  0  0
 56 67  1  0  0  0  0
 57 67  1  0  0  0  0
 58 79  1  0  0  0  0
 59 91  1  0  0  0  0
 60 62  1  0  0  0  0
 61 88  1  0  0  0  0
 62 63  1  0  0  0  0
 63 64  1  0  0  0  0
 64 69  1  0  0  0  0
 65 67  1  0  0  0  0
 65 78  1  0  0  0  0
 66 79  1  0  0  0  0
 68 70  1  0  0  0  0
 76 91  1  0  0  0  0
 85 91  2  0  0  0  0
 86 91  2  0  0  0  0
M  CHG  1  79   1
M  ISO  4  39 100  61 101  75 100  88 101
M  END
> <Batch ID>
0059

> <Smiles>
CNC(C)C(=O)NC(C(=O)N1Cc2cc([101O:1][101CH2:1]C(C)=NCCCCc3cc([100NH:0][100C:0](=O)N4CCCC(n5nc(-c6ccc(Oc7ccc(F)cc7F)cc6)c(C(N)=O)c5N)C4)cc(NS(C)(=O)=O)c3C)ccc2CC1C(=O)NC1CCCc2ccccc21)C(C)(C)C

> <Shape>
0.289

> <Color>
0.196

> <Negative vol penalty>
0.000

$$$$

  -OEChem-04042323013D

 84 92  0     1  0  0  0  0  0999 V2000
  -33.0622  -29.4957   12.1285 C   0  0  0  0  0  0  0  0  0  0  0  0
  -32.8411  -29.0280   13.4200 C   0  0  0  0  0  0  0  0  0  0  0  0
  -32.7272  -17.4555   23.2442 C   0  0  0  0  0  0  0  0  0  0  0  0
  -22.9616   -9.9263   20.0637 C   0  0  0  0  0  0  0  0  0  0  0  0
  -23.6716  -10.0752   22.3681 C   0  0  0  0  0  0  0  0  0  0  0  0
  -32.0822  -30.2495   11.4840 C   0  0  0  0  0  0  0  0  0  0  0  0
  -31.6403  -29.3150   14.0682 C   0  0  0  0  0  0  0  0  0  0  0  0
  -29.6882  -25.2765   16.4187 C   0  0  0  0  0  0  0  0  0  0  0  0
  -31.9450  -18.4017   23.9064 C   0  0  0  0  0  0  0  0  0  0  0  0
  -32.1276  -16.5277   22.3925 C   0  0  0  0  0  0  0  0  0  0  0  0
  -22.1714   -8.8208   20.3785 C   0  0  0  0  0  0  0  0  0  0  0  0
  -22.8814   -8.9698   22.6831 C   0  0  0  0  0  0  0  0  0  0  0  0
  -30.2536  -24.9162   17.6411 C   0  0  0  0  0  0  0  0  0  0  0  0
  -23.0643   -5.6079   22.3752 C   0  0  0  0  0  0  0  0  0  0  0  0
  -23.6269   -4.6174   23.1803 C   0  0  0  0  0  0  0  0  0  0  0  0
  -28.4363  -26.0045   18.7954 C   0  0  0  0  0  0  0  0  0  0  0  0
  -29.9636  -17.4923   22.8653 C   0  0  0  0  0  0  0  0  0  0  0  0
  -21.8964   -4.9740   24.8282 C   0  0  0  0  0  0  0  0  0  0  0  0
  -23.7118  -10.5535   21.0585 C   0  0  0  0  0  0  0  0  0  0  0  0
  -24.1469  -13.0498   20.7639 C   0  0  0  0  0  0  0  0  0  0  0  0
  -30.8649  -30.5376   12.1210 C   0  0  0  0  0  0  0  0  0  0  0  0
  -28.4963  -26.0141   16.3755 C   0  0  0  0  0  0  0  0  0  0  0  0
  -30.6437  -30.0745   13.4321 C   0  0  0  0  0  0  0  0  0  0  0  0
  -27.8565  -26.3706   17.5712 C   0  0  0  0  0  0  0  0  0  0  0  0
  -30.5632  -18.4201   23.7169 C   0  0  0  0  0  0  0  0  0  0  0  0
  -30.7458  -16.5461   22.2031 C   0  0  0  0  0  0  0  0  0  0  0  0
  -22.1313   -8.3426   21.6882 C   0  0  0  0  0  0  0  0  0  0  0  0
  -29.6292  -25.2827   18.8298 C   0  0  0  0  0  0  0  0  0  0  0  0
  -21.9179   -6.2815   22.7967 C   0  0  0  0  0  0  0  0  0  0  0  0
  -23.0429   -4.3004   24.4067 C   0  0  0  0  0  0  0  0  0  0  0  0
  -21.3339   -5.9646   24.0231 C   0  0  0  0  0  0  0  0  0  0  0  0
  -24.5287  -11.6951   20.7337 C   0  0  0  0  0  0  0  0  0  0  0  0
  -25.2730  -13.7326   20.3737 C   0  0  0  0  0  0  0  0  0  0  0  0
  -29.3456  -22.5749   22.3849 C   0  0  0  0  0  0  0  0  0  0  0  0
  -29.9047  -23.7501   22.0657 C   0  0  0  0  0  0  0  0  0  0  0  0
  -22.8871  -13.6383   21.1136 C   0  0  0  0  0  0  0  0  0  0  0  0
  -30.0192  -21.6573   23.3448 C   0  0  0  0  0  0  0  0  0  0  0  0
  -27.6675  -28.8742   15.2637 C   0  0  0  0  0  0  0  0  0  0  0  0
  -24.6836  -27.8927   16.0731 C   0  0  0  0  0  0  0  0  0  0  0  0
  -22.7219  -25.8641   17.9924 C   0  0  0  0  0  0  0  0  0  0  0  0
  -30.7683  -14.5996   20.6040 C   0  0  0  0  0  0  0  0  0  0  0  0
  -29.8547  -31.3962   11.4019 C   0  0  0  0  0  0  0  0  0  0  0  0
  -27.8852  -26.3718   15.0485 C   0  0  0  0  0  0  0  0  0  0  0  0
  -26.5648  -27.1451   17.5789 C   0  0  0  0  0  0  0  0  0  0  0  0
  -28.4588  -31.3390   12.0171 C   0  0  0  0  0  0  0  0  0  0  0  0
  -29.6188  -12.0584   18.3908 C   0  0  0  0  0  0  0  0  0  0  0  0
  -28.5371  -31.4879   13.5331 C   0  0  0  0  0  0  0  0  0  0  0  0
  -28.1607  -11.8488   18.8055 C   0  0  0  0  0  0  0  0  0  0  0  0
  -30.5155  -12.3431   19.5944 C   0  0  0  0  0  0  0  0  0  0  0  0
  -28.6066  -13.2320   20.8731 C   0  0  0  0  0  0  0  0  0  0  0  0
  -29.3440  -30.3439   14.1589 C   0  0  1  0  0  0  0  0  0  0  0  0
  -26.9399  -27.5665   15.1286 C   0  0  1  0  0  0  0  0  0  0  0  0
  -27.6537  -13.0064   19.6878 C   0  0  2  0  0  0  0  0  0  0  0  0
  -20.3179  -25.3151   18.4577 C   0  0  0  0  0  0  0  0  0  0  0  0
  -24.4118  -30.4651   17.6913 C   0  0  0  0  0  0  0  0  0  0  0  0
  -22.4500  -29.4398   18.8610 C   0  0  0  0  0  0  0  0  0  0  0  0
  -22.3692  -29.8256   16.3978 C   0  0  0  0  0  0  0  0  0  0  0  0
  -23.0757  -23.0553   17.1295 C   0  0  0  0  0  0  0  0  0  0  0  0
  -29.7217  -19.4388   24.4299 C   0  0  0  0  0  0  0  0  0  0  0  0
  -29.2835  -24.7220   21.1149 C   0  0  0  0  0  0  0  0  0  1  0  0
  -23.8304  -27.9778   17.3156 C   0  0  1  0  0  0  0  0  0  0  0  0
  -21.5501  -24.9667   17.6373 C   0  0  2  0  0  0  0  0  0  0  0  0
  -23.2907  -29.4142   17.5666 C   0  0  0  0  0  0  0  0  0  0  0  0
  -25.7980  -11.5254   20.3541 N   0  0  0  0  0  0  0  0  0  0  0  0
  -26.2236  -12.7824   20.1421 N   0  0  0  0  0  0  0  0  0  0  0  0
  -26.0100  -27.4769   16.2562 N   0  0  0  0  0  0  0  0  0  0  0  0
  -29.9753  -13.4541   20.3810 N   0  0  0  0  0  0  0  0  0  0  0  0
  -25.5328  -15.0471   20.2095 N   0  0  0  0  0  0  0  0  0  0  0  0
  -21.8361  -12.7916   21.4914 N   0  0  0  0  0  0  0  0  0  0  0  0
  -30.1372  -15.6039   21.3373 N   0  0  0  0  0  0  0  0  0  0  0  0
  -29.2896  -20.4980   23.5458 N   0  0  0  0  0  0  0  0  0  0  0  0
  -28.5436  -29.1401   14.2287 N   0  0  0  0  0  0  0  0  0  0  0  0
  -22.7899  -26.9661   17.1664 N   0  0  0  0  0  0  0  0  0  0  0  0
  -21.8954  -23.5393   17.8908 N   0  3  0  0  0  0  0  0  0  0  0  0
  -22.6942  -14.8772   21.0758 O   0  0  0  0  0  0  0  0  0  0  0  0
  -31.0925  -21.9287   23.8731 O   0  0  0  0  0  0  0  0  0  0  0  0
  -27.4490  -29.5898   16.2342 O   0  0  0  0  0  0  0  0  0  0  0  0
  -24.1893  -28.1775   14.9794 O   0  0  0  0  0  0  0  0  0  0  0  0
  -23.4971  -25.6145   18.9129 O   0  0  0  0  0  0  0  0  0  0  0  0
  -31.9125  -14.6947   20.1527 O   0  0  0  0  0  0  0  0  0  0  0  0
  -21.3602   -7.2641   21.9959 O   0  0  0  0  0  0  0  0  0  0  0  0
  -30.1793  -24.9330   20.0243 O   0  0  0  0  0  0  0  0  0  1  0  0
  -23.5823   -3.3482   25.1790 F   0  0  0  0  0  0  0  0  0  0  0  0
  -20.2318   -6.6074   24.4328 F   0  0  0  0  0  0  0  0  0  0  0  0
  1  2  1  0  0  0  0
  1  6  2  0  0  0  0
  2  7  2  0  0  0  0
  3  9  2  0  0  0  0
  3 10  1  0  0  0  0
  4 11  2  0  0  0  0
  4 19  1  0  0  0  0
  5 12  1  0  0  0  0
  5 19  2  0  0  0  0
  6 21  1  0  0  0  0
  7 23  1  0  0  0  0
  8 13  2  0  0  0  0
  8 22  1  0  0  0  0
  9 25  1  0  0  0  0
 10 26  2  0  0  0  0
 11 27  1  0  0  0  0
 12 27  2  0  0  0  0
 13 28  1  0  0  0  0
 14 15  2  0  0  0  0
 14 29  1  0  0  0  0
 15 30  1  0  0  0  0
 16 24  1  0  0  0  0
 16 28  2  0  0  0  0
 17 25  2  0  0  0  0
 17 26  1  0  0  0  0
 18 30  2  0  0  0  0
 18 31  1  0  0  0  0
 19 32  1  0  0  0  0
 20 32  1  0  0  0  0
 20 33  2  0  0  0  0
 20 36  1  0  0  0  0
 21 23  2  0  0  0  0
 21 42  1  0  0  0  0
 22 24  2  0  0  0  0
 22 43  1  0  0  0  0
 23 51  1  0  0  0  0
 24 44  1  0  0  0  0
 25 59  1  0  0  0  0
 26 70  1  0  0  0  0
 27 81  1  0  0  0  0
 28 82  1  0  0  0  0
 29 31  2  0  0  0  0
 29 81  1  0  0  0  0
 30 83  1  0  0  0  0
 31 84  1  0  0  0  0
 32 64  2  0  0  0  0
 33 65  1  0  0  0  0
 33 68  1  0  0  0  0
 34 35  2  0  0  0  0
 34 37  1  0  0  0  0
 35 60  1  0  0  0  0
 36 69  1  0  0  0  0
 36 75  2  0  0  0  0
 37 71  1  0  0  0  0
 37 76  2  0  0  0  0
 38 52  1  0  0  0  0
 38 72  1  0  0  0  0
 38 77  2  0  0  0  0
 39 61  1  0  0  0  0
 39 66  1  0  0  0  0
 39 78  2  0  0  0  0
 40 62  1  0  0  0  0
 40 73  1  0  0  0  0
 40 79  2  0  0  0  0
 41 67  1  0  0  0  0
 41 70  1  0  0  0  0
 41 80  2  0  0  0  0
 42 45  1  0  0  0  0
 43 52  1  0  0  0  0
 44 66  1  0  0  0  0
 45 47  1  0  0  0  0
 46 48  1  0  0  0  0
 46 49  1  0  0  0  0
 47 51  1  0  0  0  0
 48 53  1  0  0  0  0
 49 67  1  0  0  0  0
 50 53  1  0  0  0  0
 50 67  1  0  0  0  0
 51 72  1  0  0  0  0
 52 66  1  0  0  0  0
 53 65  1  0  0  0  0
 54 62  1  0  0  0  0
 55 63  1  0  0  0  0
 56 63  1  0  0  0  0
 57 63  1  0  0  0  0
 58 74  1  0  0  0  0
 59 71  1  0  0  0  0
 60 82  1  0  0  0  0
 61 63  1  0  0  0  0
 61 73  1  0  0  0  0
 62 74  1  0  0  0  0
 64 65  1  0  0  0  0
M  CHG  1  74   1
M  ISO  4  41 100  60 101  70 100  82 101
M  END
> <Batch ID>
0059

> <Smiles>
CNC(C)C(=O)NC(C(=O)N1Cc2cc([101O:1][101CH2:1]C=CC(=O)NCc3cccc([100NH:0][100C:0](=O)N4CCCC(n5nc(-c6ccc(Oc7ccc(F)cc7F)cc6)c(C(N)=O)c5N)C4)c3)ccc2CC1C(=O)NC1CCCc2ccccc21)C(C)(C)C

> <Shape>
0.218

> <Color>
0.204

> <Negative vol penalty>
0.000

$$$$

  -OEChem-04042323013D

 84 92  0     1  0  0  0  0  0999 V2000
  -17.1765  -26.8006   21.8019 C   0  0  0  0  0  0  0  0  0  0  0  0
  -18.4217  -26.1890   21.9058 C   0  0  0  0  0  0  0  0  0  0  0  0
  -23.3623   -9.1839   20.5607 C   0  0  0  0  0  0  0  0  0  0  0  0
  -23.1831  -10.8024   22.3454 C   0  0  0  0  0  0  0  0  0  0  0  0
  -30.8283  -19.5006   20.5744 C   0  0  0  0  0  0  0  0  0  0  0  0
  -17.0878  -28.1375   21.4161 C   0  0  0  0  0  0  0  0  0  0  0  0
  -19.5789  -26.9136   21.6228 C   0  0  0  0  0  0  0  0  0  0  0  0
  -25.0334  -26.3523   24.3503 C   0  0  0  0  0  0  0  0  0  0  0  0
  -30.6359  -18.1328   20.3803 C   0  0  0  0  0  0  0  0  0  0  0  0
  -22.5833   -8.2890   21.2940 C   0  0  0  0  0  0  0  0  0  0  0  0
  -22.4040   -9.9075   23.0788 C   0  0  0  0  0  0  0  0  0  0  0  0
  -26.1972  -25.6748   23.9895 C   0  0  0  0  0  0  0  0  0  0  0  0
  -23.0110   -6.1531   23.8785 C   0  0  0  0  0  0  0  0  0  0  0  0
  -23.4366   -4.8263   23.9427 C   0  0  0  0  0  0  0  0  0  0  0  0
  -27.0823  -27.7104   23.0451 C   0  0  0  0  0  0  0  0  0  0  0  0
  -28.3906  -18.5599   19.5970 C   0  0  0  0  0  0  0  0  0  0  0  0
  -21.3695   -4.1134   22.9151 C   0  0  0  0  0  0  0  0  0  0  0  0
  -23.6622  -10.4407   21.0864 C   0  0  0  0  0  0  0  0  0  0  0  0
  -29.8019  -20.3980   20.2799 C   0  0  0  0  0  0  0  0  0  0  0  0
  -24.0155  -12.3303   19.4094 C   0  0  0  0  0  0  0  0  0  0  0  0
  -18.2450  -28.8816   21.1376 C   0  0  0  0  0  0  0  0  0  0  0  0
  -24.8805  -27.7137   24.0510 C   0  0  0  0  0  0  0  0  0  0  0  0
  -19.5055  -28.2613   21.2316 C   0  0  0  0  0  0  0  0  0  0  0  0
  -25.9167  -28.4036   23.4054 C   0  0  0  0  0  0  0  0  0  0  0  0
  -28.5831  -19.9277   19.7912 C   0  0  0  0  0  0  0  0  0  0  0  0
  -29.4171  -17.6624   19.8916 C   0  0  0  0  0  0  0  0  0  0  0  0
  -22.1041   -8.6507   22.5531 C   0  0  0  0  0  0  0  0  0  0  0  0
  -27.2207  -26.3531   23.3342 C   0  0  0  0  0  0  0  0  0  0  0  0
  -21.7646   -6.4600   23.3327 C   0  0  0  0  0  0  0  0  0  0  0  0
  -22.6159   -3.8065   23.4610 C   0  0  0  0  0  0  0  0  0  0  0  0
  -20.9439   -5.4402   22.8510 C   0  0  0  0  0  0  0  0  0  0  0  0
  -24.4673  -11.3654   20.3296 C   0  0  0  0  0  0  0  0  0  0  0  0
  -25.1609  -12.9459   18.9673 C   0  0  0  0  0  0  0  0  0  0  0  0
  -30.0270  -21.8427   20.4921 C   0  0  0  0  0  0  0  0  0  0  0  0
  -22.6799  -12.6422   18.9918 C   0  0  0  0  0  0  0  0  0  0  0  0
  -22.8599  -29.4069   22.2749 C   0  0  0  0  0  0  0  0  0  0  0  0
  -24.4347  -31.9252   23.5790 C   0  0  0  0  0  0  0  0  0  0  0  0
  -29.2803  -23.8924   21.6802 C   0  0  0  0  0  0  0  0  0  0  0  0
  -27.2761  -33.1231   25.0411 C   0  0  0  0  0  0  0  0  0  0  0  0
  -30.1373  -15.2488   19.9345 C   0  0  0  0  0  0  0  0  0  0  0  0
  -18.0963  -30.3105   20.6784 C   0  0  0  0  0  0  0  0  0  0  0  0
  -23.6300  -28.4365   24.4707 C   0  0  0  0  0  0  0  0  0  0  0  0
  -25.8103  -29.8701   23.0793 C   0  0  0  0  0  0  0  0  0  0  0  0
  -19.3917  -31.1141   20.7590 C   0  0  0  0  0  0  0  0  0  0  0  0
  -30.0260  -11.7048   19.6101 C   0  0  0  0  0  0  0  0  0  0  0  0
  -20.5518  -30.3172   20.1711 C   0  0  0  0  0  0  0  0  0  0  0  0
  -28.5327  -11.3800   19.6926 C   0  0  0  0  0  0  0  0  0  0  0  0
  -30.4086  -12.8542   20.5408 C   0  0  0  0  0  0  0  0  0  0  0  0
  -28.1150  -13.7502   20.4638 C   0  0  0  0  0  0  0  0  0  0  0  0
  -20.7851  -29.0212   20.9569 C   0  0  1  0  0  0  0  0  0  0  0  0
  -23.3691  -29.7008   23.6577 C   0  0  1  0  0  0  0  0  0  0  0  0
  -27.6698  -12.6418   19.4959 C   0  0  2  0  0  0  0  0  0  0  0  0
  -27.4700  -20.8691   19.4659 C   0  0  0  0  0  0  0  0  0  0  0  0
  -28.2795  -35.2307   25.9624 C   0  0  0  0  0  0  0  0  0  0  0  0
  -24.9139  -32.9351   20.7399 C   0  0  0  0  0  0  0  0  0  0  0  0
  -26.6774  -34.4590   21.6543 C   0  0  0  0  0  0  0  0  0  0  0  0
  -24.3078  -34.7129   22.3911 C   0  0  0  0  0  0  0  0  0  0  0  0
  -27.5619  -31.9447   27.7409 C   0  0  0  0  0  0  0  0  0  0  0  0
  -28.2365  -24.3033   22.6843 C   0  0  0  0  0  0  0  0  0  1  0  0
  -25.6536  -32.7335   23.2053 C   0  0  1  0  0  0  0  0  0  0  0  0
  -27.4899  -33.9709   26.2821 C   0  0  2  0  0  0  0  0  0  0  0  0
  -25.3897  -33.6820   22.0019 C   0  0  0  0  0  0  0  0  0  0  0  0
  -25.7961  -11.3642   20.4648 N   0  0  0  0  0  0  0  0  0  0  0  0
  -26.1892  -12.3358   19.6236 N   0  0  0  0  0  0  0  0  0  0  0  0
  -24.5655  -30.5312   23.5046 N   0  0  0  0  0  0  0  0  0  0  0  0
  -29.5521  -14.0164   20.2943 N   0  0  0  0  0  0  0  0  0  0  0  0
  -25.3788  -13.9441   18.0849 N   0  0  0  0  0  0  0  0  0  0  0  0
  -21.6191  -11.9128   19.5458 N   0  0  0  0  0  0  0  0  0  0  0  0
  -29.2222  -16.2730   19.6934 N   0  0  0  0  0  0  0  0  0  0  0  0
  -29.2252  -22.4877   21.3506 N   0  0  0  0  0  0  0  0  0  0  0  0
  -21.4848  -29.2986   22.1930 N   0  0  0  0  0  0  0  0  0  0  0  0
  -26.0794  -33.4164   24.4222 N   0  0  0  0  0  0  0  0  0  0  0  0
  -31.0195  -22.4214   19.8167 N   0  3  0  0  0  0  0  0  0  0  0  0
  -28.2361  -33.1981   27.3151 N   0  3  0  0  0  0  0  0  0  0  0  0
  -22.4356  -13.5301   18.1400 O   0  0  0  0  0  0  0  0  0  0  0  0
  -23.6556  -29.2886   21.3505 O   0  0  0  0  0  0  0  0  0  0  0  0
  -23.4066  -32.5089   23.9310 O   0  0  0  0  0  0  0  0  0  0  0  0
  -30.1048  -24.6412   21.1760 O   0  0  0  0  0  0  0  0  0  0  0  0
  -28.0911  -32.2871   24.6570 O   0  0  0  0  0  0  0  0  0  0  0  0
  -31.3589  -15.3783   19.8201 O   0  0  0  0  0  0  0  0  0  0  0  0
  -21.3438   -7.7778   23.2689 O   0  0  0  0  0  0  0  0  0  0  0  0
  -28.3575  -25.6940   22.9804 O   0  0  0  0  0  0  0  0  0  1  0  0
  -23.0255   -2.5326   23.5214 F   0  0  0  0  0  0  0  0  0  0  0  0
  -19.7459   -5.7290   22.3244 F   0  0  0  0  0  0  0  0  0  0  0  0
  1  2  1  0  0  0  0
  1  6  2  0  0  0  0
  2  7  2  0  0  0  0
  3 10  2  0  0  0  0
  3 18  1  0  0  0  0
  4 11  1  0  0  0  0
  4 18  2  0  0  0  0
  5  9  2  0  0  0  0
  5 19  1  0  0  0  0
  6 21  1  0  0  0  0
  7 23  1  0  0  0  0
  8 12  2  0  0  0  0
  8 22  1  0  0  0  0
  9 26  1  0  0  0  0
 10 27  1  0  0  0  0
 11 27  2  0  0  0  0
 12 28  1  0  0  0  0
 13 14  2  0  0  0  0
 13 29  1  0  0  0  0
 14 30  1  0  0  0  0
 15 24  1  0  0  0  0
 15 28  2  0  0  0  0
 16 25  1  0  0  0  0
 16 26  2  0  0  0  0
 17 30  2  0  0  0  0
 17 31  1  0  0  0  0
 18 32  1  0  0  0  0
 19 25  2  0  0  0  0
 19 34  1  0  0  0  0
 20 32  1  0  0  0  0
 20 33  2  0  0  0  0
 20 35  1  0  0  0  0
 21 23  2  0  0  0  0
 21 41  1  0  0  0  0
 22 24  2  0  0  0  0
 22 42  1  0  0  0  0
 23 50  1  0  0  0  0
 24 43  1  0  0  0  0
 25 53  1  0  0  0  0
 26 69  1  0  0  0  0
 27 81  1  0  0  0  0
 28 82  1  0  0  0  0
 29 31  2  0  0  0  0
 29 81  1  0  0  0  0
 30 83  1  0  0  0  0
 31 84  1  0  0  0  0
 32 63  2  0  0  0  0
 33 64  1  0  0  0  0
 33 67  1  0  0  0  0
 34 70  1  0  0  0  0
 34 73  2  0  0  0  0
 35 68  1  0  0  0  0
 35 75  2  0  0  0  0
 36 51  1  0  0  0  0
 36 71  1  0  0  0  0
 36 76  2  0  0  0  0
 37 60  1  0  0  0  0
 37 65  1  0  0  0  0
 37 77  2  0  0  0  0
 38 59  1  0  0  0  0
 38 70  1  0  0  0  0
 38 78  2  0  0  0  0
 39 61  1  0  0  0  0
 39 72  1  0  0  0  0
 39 79  2  0  0  0  0
 40 66  1  0  0  0  0
 40 69  1  0  0  0  0
 40 80  2  0  0  0  0
 41 44  1  0  0  0  0
 42 51  1  0  0  0  0
 43 65  1  0  0  0  0
 44 46  1  0  0  0  0
 45 47  1  0  0  0  0
 45 48  1  0  0  0  0
 46 50  1  0  0  0  0
 47 52  1  0  0  0  0
 48 66  1  0  0  0  0
 49 52  1  0  0  0  0
 49 66  1  0  0  0  0
 50 71  1  0  0  0  0
 51 65  1  0  0  0  0
 52 64  1  0  0  0  0
 54 61  1  0  0  0  0
 55 62  1  0  0  0  0
 56 62  1  0  0  0  0
 57 62  1  0  0  0  0
 58 74  1  0  0  0  0
 59 82  1  0  0  0  0
 60 62  1  0  0  0  0
 60 72  1  0  0  0  0
 61 74  1  0  0  0  0
 63 64  1  0  0  0  0
M  CHG  2  73   1  74   1
M  ISO  4  40 100  59 101  69 100  82 101
M  END
> <Batch ID>
0059

> <Smiles>
CNC(C)C(=O)NC(C(=O)N1Cc2cc([101O:1][101CH2:1]C(=O)NC(=N)c3ccc([100NH:0][100C:0](=O)N4CCCC(n5nc(-c6ccc(Oc7ccc(F)cc7F)cc6)c(C(N)=O)c5N)C4)cc3C)ccc2CC1C(=O)NC1CCCc2ccccc21)C(C)(C)C

> <Shape>
0.315

> <Color>
0.125

> <Negative vol penalty>
0.000

$$$$

  -OEChem-04042323013D

 83 91  0     1  0  0  0  0  0999 V2000
  -17.0931  -25.1755   24.1719 C   0  0  0  0  0  0  0  0  0  0  0  0
  -18.2713  -24.6441   24.6867 C   0  0  0  0  0  0  0  0  0  0  0  0
  -32.5347  -17.6724   23.3888 C   0  0  0  0  0  0  0  0  0  0  0  0
  -22.9991   -9.9253   20.0389 C   0  0  0  0  0  0  0  0  0  0  0  0
  -23.6972  -10.0534   22.3482 C   0  0  0  0  0  0  0  0  0  0  0  0
  -17.1460  -26.1931   23.2203 C   0  0  0  0  0  0  0  0  0  0  0  0
  -19.5032  -25.1294   24.2493 C   0  0  0  0  0  0  0  0  0  0  0  0
  -24.6160  -25.7201   27.5684 C   0  0  0  0  0  0  0  0  0  0  0  0
  -31.7238  -18.5836   24.0653 C   0  0  0  0  0  0  0  0  0  0  0  0
  -31.9645  -16.7437   22.5182 C   0  0  0  0  0  0  0  0  0  0  0  0
  -22.2400   -8.7923   20.3312 C   0  0  0  0  0  0  0  0  0  0  0  0
  -22.9381   -8.9203   22.6406 C   0  0  0  0  0  0  0  0  0  0  0  0
  -25.7520  -24.9212   27.6913 C   0  0  0  0  0  0  0  0  0  0  0  0
  -23.2183   -5.5710   22.2738 C   0  0  0  0  0  0  0  0  0  0  0  0
  -23.8065   -4.5829   23.0632 C   0  0  0  0  0  0  0  0  0  0  0  0
  -26.8787  -26.2809   26.0479 C   0  0  0  0  0  0  0  0  0  0  0  0
  -29.7723  -17.6372   23.0007 C   0  0  0  0  0  0  0  0  0  0  0  0
  -22.0613   -4.8604   24.7108 C   0  0  0  0  0  0  0  0  0  0  0  0
  -23.7278  -10.5559   21.0474 C   0  0  0  0  0  0  0  0  0  0  0  0
  -24.0921  -13.0685   20.7988 C   0  0  0  0  0  0  0  0  0  0  0  0
  -18.3791  -26.6978   22.7782 C   0  0  0  0  0  0  0  0  0  0  0  0
  -24.5991  -26.8006   26.6747 C   0  0  0  0  0  0  0  0  0  0  0  0
  -19.5727  -26.1539   23.2899 C   0  0  0  0  0  0  0  0  0  0  0  0
  -25.7422  -27.0935   25.9173 C   0  0  0  0  0  0  0  0  0  0  0  0
  -30.3426  -18.5660   23.8713 C   0  0  0  0  0  0  0  0  0  0  0  0
  -30.5833  -16.7261   22.3242 C   0  0  0  0  0  0  0  0  0  0  0  0
  -22.2094   -8.2898   21.6320 C   0  0  0  0  0  0  0  0  0  0  0  0
  -26.8826  -25.1998   26.9290 C   0  0  0  0  0  0  0  0  0  0  0  0
  -22.0517   -6.2039   22.7029 C   0  0  0  0  0  0  0  0  0  0  0  0
  -23.2279   -4.2275   24.2817 C   0  0  0  0  0  0  0  0  0  0  0  0
  -21.4732   -5.8486   23.9213 C   0  0  0  0  0  0  0  0  0  0  0  0
  -24.5126  -11.7260   20.7459 C   0  0  0  0  0  0  0  0  0  0  0  0
  -25.1993  -13.7901   20.4250 C   0  0  0  0  0  0  0  0  0  0  0  0
  -28.7499  -21.2464   25.9621 C   0  0  0  0  0  0  0  0  0  0  0  0
  -28.9213  -22.2446   26.8398 C   0  0  0  0  0  0  0  0  0  0  0  0
  -22.8148  -13.6143   21.1542 C   0  0  0  0  0  0  0  0  0  0  0  0
  -29.9226  -20.4749   25.4528 C   0  0  0  0  0  0  0  0  0  0  0  0
  -22.8934  -27.5566   24.1012 C   0  0  0  0  0  0  0  0  0  0  0  0
  -24.5307  -30.3486   24.3158 C   0  0  0  0  0  0  0  0  0  0  0  0
  -27.3070  -32.0022   25.4134 C   0  0  0  0  0  0  0  0  0  0  0  0
  -30.6667  -14.8099   20.6909 C   0  0  0  0  0  0  0  0  0  0  0  0
  -18.3866  -27.7657   21.7132 C   0  0  0  0  0  0  0  0  0  0  0  0
  -23.3750  -27.6689   26.5734 C   0  0  0  0  0  0  0  0  0  0  0  0
  -25.7821  -28.2543   24.9584 C   0  0  0  0  0  0  0  0  0  0  0  0
  -19.7275  -28.4827   21.5790 C   0  0  0  0  0  0  0  0  0  0  0  0
  -29.5977  -12.2767   18.4287 C   0  0  0  0  0  0  0  0  0  0  0  0
  -20.8719  -27.4744   21.5539 C   0  0  0  0  0  0  0  0  0  0  0  0
  -28.1449  -12.0181   18.8342 C   0  0  0  0  0  0  0  0  0  0  0  0
  -30.4820  -12.5654   19.6405 C   0  0  0  0  0  0  0  0  0  0  0  0
  -28.5443  -13.3764   20.9277 C   0  0  0  0  0  0  0  0  0  0  0  0
  -20.9280  -26.6709   22.8588 C   0  0  1  0  0  0  0  0  0  0  0  0
  -23.2916  -28.4325   25.2553 C   0  0  1  0  0  0  0  0  0  0  0  0
  -27.6021  -13.1448   19.7351 C   0  0  2  0  0  0  0  0  0  0  0  0
  -28.3812  -34.2701   25.4046 C   0  0  0  0  0  0  0  0  0  0  0  0
  -25.3526  -29.9455   21.4051 C   0  0  0  0  0  0  0  0  0  0  0  0
  -27.1362  -31.6698   21.7427 C   0  0  0  0  0  0  0  0  0  0  0  0
  -24.7349  -32.2950   21.9988 C   0  0  0  0  0  0  0  0  0  0  0  0
  -27.2443  -32.1712   28.3674 C   0  0  0  0  0  0  0  0  0  0  0  0
  -27.7914  -23.0517   27.3931 C   0  0  0  0  0  0  0  0  0  1  0  0
  -25.8390  -30.8656   23.7679 C   0  0  1  0  0  0  0  0  0  0  0  0
  -27.4688  -33.3150   26.1583 C   0  0  2  0  0  0  0  0  0  0  0  0
  -25.7646  -31.1708   22.2452 C   0  0  0  0  0  0  0  0  0  0  0  0
  -25.7875  -11.5996   20.3681 N   0  0  0  0  0  0  0  0  0  0  0  0
  -26.1775  -12.8718   20.1801 N   0  0  0  0  0  0  0  0  0  0  0  0
  -24.5584  -29.0700   24.8902 N   0  0  0  0  0  0  0  0  0  0  0  0
  -29.9076  -13.6463   20.4446 N   0  0  0  0  0  0  0  0  0  0  0  0
  -25.4218  -15.1143   20.2850 N   0  0  0  0  0  0  0  0  0  0  0  0
  -21.7873  -12.7313   21.5130 N   0  0  0  0  0  0  0  0  0  0  0  0
  -29.5197  -19.4920   24.5583 N   0  0  0  0  0  0  0  0  0  0  0  0
  -30.0047  -15.7824   21.4396 N   0  0  0  0  0  0  0  0  0  0  0  0
  -21.5278  -27.4604   23.9130 N   0  0  0  0  0  0  0  0  0  0  0  0
  -26.2005  -32.0148   24.5907 N   0  0  0  0  0  0  0  0  0  0  0  0
  -28.0516  -33.0757   27.5089 N   0  3  0  0  0  0  0  0  0  0  0  0
  -22.5865  -14.8477   21.1377 O   0  0  0  0  0  0  0  0  0  0  0  0
  -31.0624  -20.7326   25.8214 O   0  0  0  0  0  0  0  0  0  0  0  0
  -23.7608  -27.0098   23.4303 O   0  0  0  0  0  0  0  0  0  0  0  0
  -23.5230  -31.0563   24.2433 O   0  0  0  0  0  0  0  0  0  0  0  0
  -28.0865  -31.0611   25.5450 O   0  0  0  0  0  0  0  0  0  0  0  0
  -31.8092  -14.9457   20.2456 O   0  0  0  0  0  0  0  0  0  0  0  0
  -21.4686   -7.1843   21.9176 O   0  0  0  0  0  0  0  0  0  0  0  0
  -27.9925  -24.4213   27.0466 O   0  0  0  0  0  0  0  0  0  1  0  0
  -23.7920   -3.2774   25.0389 F   0  0  0  0  0  0  0  0  0  0  0  0
  -20.3518   -6.4522   24.3383 F   0  0  0  0  0  0  0  0  0  0  0  0
  1  2  1  0  0  0  0
  1  6  2  0  0  0  0
  2  7  2  0  0  0  0
  3  9  2  0  0  0  0
  3 10  1  0  0  0  0
  4 11  2  0  0  0  0
  4 19  1  0  0  0  0
  5 12  1  0  0  0  0
  5 19  2  0  0  0  0
  6 21  1  0  0  0  0
  7 23  1  0  0  0  0
  8 13  2  0  0  0  0
  8 22  1  0  0  0  0
  9 25  1  0  0  0  0
 10 26  2  0  0  0  0
 11 27  1  0  0  0  0
 12 27  2  0  0  0  0
 13 28  1  0  0  0  0
 14 15  2  0  0  0  0
 14 29  1  0  0  0  0
 15 30  1  0  0  0  0
 16 24  1  0  0  0  0
 16 28  2  0  0  0  0
 17 25  2  0  0  0  0
 17 26  1  0  0  0  0
 18 30  2  0  0  0  0
 18 31  1  0  0  0  0
 19 32  1  0  0  0  0
 20 32  1  0  0  0  0
 20 33  2  0  0  0  0
 20 36  1  0  0  0  0
 21 23  2  0  0  0  0
 21 42  1  0  0  0  0
 22 24  2  0  0  0  0
 22 43  1  0  0  0  0
 23 51  1  0  0  0  0
 24 44  1  0  0  0  0
 25 69  1  0  0  0  0
 26 70  1  0  0  0  0
 27 80  1  0  0  0  0
 28 81  1  0  0  0  0
 29 31  2  0  0  0  0
 29 80  1  0  0  0  0
 30 82  1  0  0  0  0
 31 83  1  0  0  0  0
 32 63  2  0  0  0  0
 33 64  1  0  0  0  0
 33 67  1  0  0  0  0
 34 35  2  0  0  0  0
 34 37  1  0  0  0  0
 35 59  1  0  0  0  0
 36 68  1  0  0  0  0
 36 74  2  0  0  0  0
 37 69  1  0  0  0  0
 37 75  2  0  0  0  0
 38 52  1  0  0  0  0
 38 71  1  0  0  0  0
 38 76  2  0  0  0  0
 39 60  1  0  0  0  0
 39 65  1  0  0  0  0
 39 77  2  0  0  0  0
 40 61  1  0  0  0  0
 40 72  1  0  0  0  0
 40 78  2  0  0  0  0
 41 66  1  0  0  0  0
 41 70  1  0  0  0  0
 41 79  2  0  0  0  0
 42 45  1  0  0  0  0
 43 52  1  0  0  0  0
 44 65  1  0  0  0  0
 45 47  1  0  0  0  0
 46 48  1  0  0  0  0
 46 49  1  0  0  0  0
 47 51  1  0  0  0  0
 48 53  1  0  0  0  0
 49 66  1  0  0  0  0
 50 53  1  0  0  0  0
 50 66  1  0  0  0  0
 51 71  1  0  0  0  0
 52 65  1  0  0  0  0
 53 64  1  0  0  0  0
 54 61  1  0  0  0  0
 55 62  1  0  0  0  0
 56 62  1  0  0  0  0
 57 62  1  0  0  0  0
 58 73  1  0  0  0  0
 59 81  1  0  0  0  0
 60 62  1  0  0  0  0
 60 72  1  0  0  0  0
 61 73  1  0  0  0  0
 63 64  1  0  0  0  0
M  CHG  1  73   1
M  ISO  4  41 100  59 101  70 100  81 101
M  END
> <Batch ID>
0059

> <Smiles>
CNC(C)C(=O)NC(C(=O)N1Cc2cc([101O:1][101CH2:1]C=CC(=O)Nc3cccc([100NH:0][100C:0](=O)N4CCCC(n5nc(-c6ccc(Oc7ccc(F)cc7F)cc6)c(C(N)=O)c5N)C4)c3)ccc2CC1C(=O)NC1CCCc2ccccc21)C(C)(C)C

> <Shape>
0.309

> <Color>
0.222

> <Negative vol penalty>
0.000

$$$$

  -OEChem-04042323013D

 85 93  0     1  0  0  0  0  0999 V2000
  -39.0291  -28.7577   12.9699 C   0  0  0  0  0  0  0  0  0  0  0  0
  -38.3338  -28.1162   13.9899 C   0  0  0  0  0  0  0  0  0  0  0  0
  -32.8337  -17.6931   23.2962 C   0  0  0  0  0  0  0  0  0  0  0  0
  -23.0089   -9.8821   19.9832 C   0  0  0  0  0  0  0  0  0  0  0  0
  -23.7676   -9.9275   22.2765 C   0  0  0  0  0  0  0  0  0  0  0  0
  -39.4747  -30.0668   13.1478 C   0  0  0  0  0  0  0  0  0  0  0  0
  -38.0848  -28.7830   15.1890 C   0  0  0  0  0  0  0  0  0  0  0  0
  -33.3259  -28.1620   16.8053 C   0  0  0  0  0  0  0  0  0  0  0  0
  -31.9379  -16.6633   23.0086 C   0  0  0  0  0  0  0  0  0  0  0  0
  -32.8530  -18.8419   22.5054 C   0  0  0  0  0  0  0  0  0  0  0  0
  -22.2565   -8.7394   20.2547 C   0  0  0  0  0  0  0  0  0  0  0  0
  -23.0152   -8.7848   22.5481 C   0  0  0  0  0  0  0  0  0  0  0  0
  -33.0161  -26.9510   17.4228 C   0  0  0  0  0  0  0  0  0  0  0  0
  -23.2821   -5.4507   22.0547 C   0  0  0  0  0  0  0  0  0  0  0  0
  -23.8898   -4.4349   22.7925 C   0  0  0  0  0  0  0  0  0  0  0  0
  -33.2197  -28.0069   19.5821 C   0  0  0  0  0  0  0  0  0  0  0  0
  -22.1888   -4.6536   24.4943 C   0  0  0  0  0  0  0  0  0  0  0  0
  -23.7645  -10.4762   20.9941 C   0  0  0  0  0  0  0  0  0  0  0  0
  -24.1248  -12.9960   20.8259 C   0  0  0  0  0  0  0  0  0  0  0  0
  -39.2227  -30.7533   14.3461 C   0  0  0  0  0  0  0  0  0  0  0  0
  -33.5961  -29.3038   17.5731 C   0  0  0  0  0  0  0  0  0  0  0  0
  -38.5287  -30.1020   15.3836 C   0  0  0  0  0  0  0  0  0  0  0  0
  -33.5302  -29.2318   18.9719 C   0  0  0  0  0  0  0  0  0  0  0  0
  -31.0615  -16.7822   21.9300 C   0  0  0  0  0  0  0  0  0  0  0  0
  -31.0808  -17.9310   21.1390 C   0  0  0  0  0  0  0  0  0  0  0  0
  -31.9766  -18.9609   21.4267 C   0  0  0  0  0  0  0  0  0  0  0  0
  -22.2596   -8.1908   21.5371 C   0  0  0  0  0  0  0  0  0  0  0  0
  -32.9658  -26.8726   18.8114 C   0  0  0  0  0  0  0  0  0  0  0  0
  -22.1279   -6.0681   22.5366 C   0  0  0  0  0  0  0  0  0  0  0  0
  -23.3431   -4.0363   24.0123 C   0  0  0  0  0  0  0  0  0  0  0  0
  -21.5812   -5.6695   23.7564 C   0  0  0  0  0  0  0  0  0  0  0  0
  -24.5424  -11.6562   20.7140 C   0  0  0  0  0  0  0  0  0  0  0  0
  -25.2226  -13.7304   20.4490 C   0  0  0  0  0  0  0  0  0  0  0  0
  -32.5720  -22.2725   19.7621 C   0  0  0  0  0  0  0  0  0  0  0  0
  -33.2683  -23.4174   19.7432 C   0  0  0  0  0  0  0  0  0  0  0  0
  -22.8579  -13.5290   21.2340 C   0  0  0  0  0  0  0  0  0  0  0  0
  -32.8440  -21.2368   20.8028 C   0  0  0  0  0  0  0  0  0  0  0  0
  -36.1108  -31.2116   17.9478 C   0  0  0  0  0  0  0  0  0  0  0  0
  -30.7339  -14.6482   20.7195 C   0  0  0  0  0  0  0  0  0  0  0  0
  -34.0388  -32.9426   19.7459 C   0  0  0  0  0  0  0  0  0  0  0  0
  -31.1981  -33.0082   21.6361 C   0  0  0  0  0  0  0  0  0  0  0  0
  -39.7654  -32.1509   14.5099 C   0  0  0  0  0  0  0  0  0  0  0  0
  -33.9025  -30.6090   16.8912 C   0  0  0  0  0  0  0  0  0  0  0  0
  -33.7920  -30.4336   19.8411 C   0  0  0  0  0  0  0  0  0  0  0  0
  -39.1342  -32.9174   15.6694 C   0  0  0  0  0  0  0  0  0  0  0  0
  -29.5535  -12.3128   18.2715 C   0  0  0  0  0  0  0  0  0  0  0  0
  -39.0823  -32.0458   16.9202 C   0  0  0  0  0  0  0  0  0  0  0  0
  -28.1207  -12.0209   18.7153 C   0  0  0  0  0  0  0  0  0  0  0  0
  -30.4749  -12.5317   19.4675 C   0  0  0  0  0  0  0  0  0  0  0  0
  -28.5763  -13.3069   20.8516 C   0  0  0  0  0  0  0  0  0  0  0  0
  -38.2175  -30.8006   16.6895 C   0  0  1  0  0  0  0  0  0  0  0  0
  -34.6646  -31.5845   17.7829 C   0  0  1  0  0  0  0  0  0  0  0  0
  -27.6061  -13.1099   19.6733 C   0  0  2  0  0  0  0  0  0  0  0  0
  -30.1385  -18.0542   19.9829 C   0  0  0  0  0  0  0  0  0  0  0  0
  -29.7793  -34.5594   23.0066 C   0  0  0  0  0  0  0  0  0  0  0  0
  -36.0920  -32.8253   21.9999 C   0  0  0  0  0  0  0  0  0  0  0  0
  -34.2868  -33.5264   23.5868 C   0  0  0  0  0  0  0  0  0  0  0  0
  -34.9682  -35.0427   21.7269 C   0  0  0  0  0  0  0  0  0  0  0  0
  -28.8469  -32.5889   19.8882 C   0  0  0  0  0  0  0  0  0  0  0  0
  -33.0424  -24.4969   18.7342 C   0  0  0  0  0  0  0  0  0  1  0  0
  -30.1126  -15.6647   21.6440 C   0  0  2  0  0  0  0  0  0  0  0  0
  -33.6401  -32.9564   21.2018 C   0  0  1  0  0  0  0  0  0  0  0  0
  -30.0071  -33.9495   21.6322 C   0  0  2  0  0  0  0  0  0  0  0  0
  -34.7437  -33.5644   22.1128 C   0  0  0  0  0  0  0  0  0  0  0  0
  -25.8067  -11.5432   20.2985 N   0  0  0  0  0  0  0  0  0  0  0  0
  -26.1930  -12.8213   20.1458 N   0  0  0  0  0  0  0  0  0  0  0  0
  -34.0936  -31.6855   19.1275 N   0  0  0  0  0  0  0  0  0  0  0  0
  -29.9400  -13.5573   20.3648 N   0  0  0  0  0  0  0  0  0  0  0  0
  -25.4427  -15.0586   20.3506 N   0  0  0  0  0  0  0  0  0  0  0  0
  -21.8392  -12.6338   21.5880 N   0  0  0  0  0  0  0  0  0  0  0  0
  -32.0130  -20.1365   20.6373 N   0  0  0  0  0  0  0  0  0  0  0  0
  -36.8126  -31.1410   16.7596 N   0  0  0  0  0  0  0  0  0  0  0  0
  -32.3599  -33.6531   21.2679 N   0  0  0  0  0  0  0  0  0  0  0  0
  -28.7713  -33.2195   21.2312 N   0  3  0  0  0  0  0  0  0  0  0  0
  -22.6306  -14.7622   21.2676 O   0  0  0  0  0  0  0  0  0  0  0  0
  -33.7039  -21.4057   21.6592 O   0  0  0  0  0  0  0  0  0  0  0  0
  -36.5572  -31.0049   19.0702 O   0  0  0  0  0  0  0  0  0  0  0  0
  -31.8893  -14.8217   20.3232 O   0  0  0  0  0  0  0  0  0  0  0  0
  -34.2854  -34.0087   19.1763 O   0  0  0  0  0  0  0  0  0  0  0  0
  -31.1076  -31.8206   21.9393 O   0  0  0  0  0  0  0  0  0  0  0  0
  -21.5253   -7.0759   21.8025 O   0  0  0  0  0  0  0  0  0  0  0  0
  -32.6643  -25.6917   19.4167 O   0  0  0  0  0  0  0  0  0  1  0  0
  -23.9259   -3.0598   24.7201 F   0  0  0  0  0  0  0  0  0  0  0  0
  -20.4718   -6.2580   24.2241 F   0  0  0  0  0  0  0  0  0  0  0  0
  -28.9252  -16.0901   21.1107 F   0  0  0  0  0  0  0  0  0  0  0  0
  1  2  1  0  0  0  0
  1  6  2  0  0  0  0
  2  7  2  0  0  0  0
  3  9  1  0  0  0  0
  3 10  2  0  0  0  0
  4 11  2  0  0  0  0
  4 18  1  0  0  0  0
  5 12  1  0  0  0  0
  5 18  2  0  0  0  0
  6 20  1  0  0  0  0
  7 22  1  0  0  0  0
  8 13  2  0  0  0  0
  8 21  1  0  0  0  0
  9 24  2  0  0  0  0
 10 26  1  0  0  0  0
 11 27  1  0  0  0  0
 12 27  2  0  0  0  0
 13 28  1  0  0  0  0
 14 15  2  0  0  0  0
 14 29  1  0  0  0  0
 15 30  1  0  0  0  0
 16 23  1  0  0  0  0
 16 28  2  0  0  0  0
 17 30  2  0  0  0  0
 17 31  1  0  0  0  0
 18 32  1  0  0  0  0
 19 32  1  0  0  0  0
 19 33  2  0  0  0  0
 19 36  1  0  0  0  0
 20 22  2  0  0  0  0
 20 42  1  0  0  0  0
 21 23  2  0  0  0  0
 21 43  1  0  0  0  0
 22 51  1  0  0  0  0
 23 44  1  0  0  0  0
 24 25  1  0  0  0  0
 24 61  1  0  0  0  0
 25 26  2  0  0  0  0
 25 54  1  0  0  0  0
 26 71  1  0  0  0  0
 27 81  1  0  0  0  0
 28 82  1  0  0  0  0
 29 31  2  0  0  0  0
 29 81  1  0  0  0  0
 30 83  1  0  0  0  0
 31 84  1  0  0  0  0
 32 65  2  0  0  0  0
 33 66  1  0  0  0  0
 33 69  1  0  0  0  0
 34 35  2  0  0  0  0
 34 37  1  0  0  0  0
 35 60  1  0  0  0  0
 36 70  1  0  0  0  0
 36 75  2  0  0  0  0
 37 71  1  0  0  0  0
 37 76  2  0  0  0  0
 38 52  1  0  0  0  0
 38 72  1  0  0  0  0
 38 77  2  0  0  0  0
 39 61  1  0  0  0  0
 39 68  1  0  0  0  0
 39 78  2  0  0  0  0
 40 62  1  0  0  0  0
 40 67  1  0  0  0  0
 40 79  2  0  0  0  0
 41 63  1  0  0  0  0
 41 73  1  0  0  0  0
 41 80  2  0  0  0  0
 42 45  1  0  0  0  0
 43 52  1  0  0  0  0
 44 67  1  0  0  0  0
 45 47  1  0  0  0  0
 46 48  1  0  0  0  0
 46 49  1  0  0  0  0
 47 51  1  0  0  0  0
 48 53  1  0  0  0  0
 49 68  1  0  0  0  0
 50 53  1  0  0  0  0
 50 68  1  0  0  0  0
 51 72  1  0  0  0  0
 52 67  1  0  0  0  0
 53 66  1  0  0  0  0
 55 63  1  0  0  0  0
 56 64  1  0  0  0  0
 57 64  1  0  0  0  0
 58 64  1  0  0  0  0
 59 74  1  0  0  0  0
 60 82  1  0  0  0  0
 61 85  1  0  0  0  0
 62 64  1  0  0  0  0
 62 73  1  0  0  0  0
 63 74  1  0  0  0  0
 65 66  1  0  0  0  0
M  CHG  1  74   1
M  ISO  4  39 100  60 101  61 100  82 101
M  END
> <Batch ID>
0059

> <Smiles>
CNC(C)C(=O)NC(C(=O)N1Cc2cc([101O:1][101CH2:1]C=CC(=O)Nc3cccc([100CH:0](F)[100C:0](=O)N4CCCC(n5nc(-c6ccc(Oc7ccc(F)cc7F)cc6)c(C(N)=O)c5N)C4)c3C)ccc2CC1C(=O)NC1CCCc2ccccc21)C(C)(C)C

> <Shape>
0.188

> <Color>
0.201

> <Negative vol penalty>
0.000

$$$$

  -OEChem-04042323013D

 90 99  0     1  0  0  0  0  0999 V2000
  -23.7320  -32.9220   20.6080 C   0  0  0  0  0  0  0  0  0  0  0  0
  -23.9950  -31.5838   20.8829 C   0  0  0  0  0  0  0  0  0  0  0  0
  -23.0794   -9.8627   19.9384 C   0  0  0  0  0  0  0  0  0  0  0  0
  -23.8363   -9.8712   22.2328 C   0  0  0  0  0  0  0  0  0  0  0  0
  -24.7119  -33.8860   20.8412 C   0  0  0  0  0  0  0  0  0  0  0  0
  -25.2386  -31.2088   21.3902 C   0  0  0  0  0  0  0  0  0  0  0  0
  -26.3799  -26.7101   25.3859 C   0  0  0  0  0  0  0  0  0  0  0  0
  -22.3369   -8.7085   20.1876 C   0  0  0  0  0  0  0  0  0  0  0  0
  -23.0938   -8.7170   22.4820 C   0  0  0  0  0  0  0  0  0  0  0  0
  -26.8221  -25.3984   25.2203 C   0  0  0  0  0  0  0  0  0  0  0  0
  -19.8661   -7.9145   23.0806 C   0  0  0  0  0  0  0  0  0  0  0  0
  -19.1077   -7.8736   24.2505 C   0  0  0  0  0  0  0  0  0  0  0  0
  -31.8563  -17.3545   21.5672 C   0  0  0  0  0  0  0  0  0  0  0  0
  -29.0847  -26.1126   25.6558 C   0  0  0  0  0  0  0  0  0  0  0  0
  -28.2404  -20.4539   25.7368 C   0  0  0  0  0  0  0  0  0  0  0  0
  -29.7899  -17.7540   22.7535 C   0  0  0  0  0  0  0  0  0  0  0  0
  -20.3511   -5.9382   24.9889 C   0  0  0  0  0  0  0  0  0  0  0  0
  -23.8292  -10.4441   20.9610 C   0  0  0  0  0  0  0  0  0  0  0  0
  -32.3512  -18.5785   22.0170 C   0  0  0  0  0  0  0  0  0  0  0  0
  -24.1674  -12.9697   20.8410 C   0  0  0  0  0  0  0  0  0  0  0  0
  -25.9648  -33.5238   21.3607 C   0  0  0  0  0  0  0  0  0  0  0  0
  -27.2898  -27.7366   25.6774 C   0  0  0  0  0  0  0  0  0  0  0  0
  -26.2366  -32.1687   21.6293 C   0  0  0  0  0  0  0  0  0  0  0  0
  -28.6512  -27.4361   25.8271 C   0  0  0  0  0  0  0  0  0  0  0  0
  -28.2916  -21.4941   24.7764 C   0  0  0  0  0  0  0  0  0  0  0  0
  -31.5656  -19.3903   22.8351 C   0  0  0  0  0  0  0  0  0  0  0  0
  -30.2849  -18.9781   23.2033 C   0  0  0  0  0  0  0  0  0  0  0  0
  -30.5756  -16.9422   21.9354 C   0  0  0  0  0  0  0  0  0  0  0  0
  -22.3441   -8.1357   21.4594 C   0  0  0  0  0  0  0  0  0  0  0  0
  -28.1751  -25.0999   25.3524 C   0  0  0  0  0  0  0  0  0  0  0  0
  -20.8669   -6.9672   22.8647 C   0  0  0  0  0  0  0  0  0  0  0  0
  -19.3502   -6.8855   25.2047 C   0  0  0  0  0  0  0  0  0  0  0  0
  -21.1094   -5.9790   23.8189 C   0  0  0  0  0  0  0  0  0  0  0  0
  -24.5968  -11.6361   20.7040 C   0  0  0  0  0  0  0  0  0  0  0  0
  -25.2589  -13.7208   20.4789 C   0  0  0  0  0  0  0  0  0  0  0  0
  -28.9828  -19.4031   25.2451 C   0  0  0  0  0  0  0  0  0  0  0  0
  -29.0636  -21.0471   23.7268 C   0  0  0  0  0  0  0  0  0  0  0  0
  -33.9219  -19.6814   20.5006 C   0  0  0  0  0  0  0  0  0  0  0  0
  -33.6930  -18.9780   21.6115 C   0  0  0  0  0  0  0  0  0  0  0  0
  -22.8956  -13.4837   21.2582 C   0  0  0  0  0  0  0  0  0  0  0  0
  -28.2022  -30.4075   24.2154 C   0  0  0  0  0  0  0  0  0  0  0  0
  -29.8610  -30.8823   26.9622 C   0  0  0  0  0  0  0  0  0  0  0  0
  -31.3347  -29.5300   29.7274 C   0  0  0  0  0  0  0  0  0  0  0  0
  -30.7233  -14.7745   20.6604 C   0  0  0  0  0  0  0  0  0  0  0  0
  -27.0088  -34.5953   21.5517 C   0  0  0  0  0  0  0  0  0  0  0  0
  -26.7931  -29.1419   25.8794 C   0  0  0  0  0  0  0  0  0  0  0  0
  -29.6658  -28.4984   26.1595 C   0  0  0  0  0  0  0  0  0  0  0  0
  -28.1700  -34.1624   22.4429 C   0  0  0  0  0  0  0  0  0  0  0  0
  -29.6155  -12.3587   18.2911 C   0  0  0  0  0  0  0  0  0  0  0  0
  -28.6672  -32.7785   22.0373 C   0  0  0  0  0  0  0  0  0  0  0  0
  -28.1757  -12.0650   18.7189 C   0  0  0  0  0  0  0  0  0  0  0  0
  -30.5287  -12.5890   19.4939 C   0  0  0  0  0  0  0  0  0  0  0  0
  -28.6189  -13.3109   20.8726 C   0  0  0  0  0  0  0  0  0  0  0  0
  -27.5648  -31.7256   22.2036 C   0  0  1  0  0  0  0  0  0  0  0  0
  -27.8764  -30.1948   25.6667 C   0  0  1  0  0  0  0  0  0  0  0  0
  -27.6478  -13.1360   19.6936 C   0  0  2  0  0  0  0  0  0  0  0  0
  -32.0942  -20.7069   23.3196 C   0  0  0  0  0  0  0  0  0  0  0  0
  -35.3778  -17.1858   22.1911 C   0  0  0  0  0  0  0  0  0  0  0  0
  -32.6448  -30.1655   31.7712 C   0  0  0  0  0  0  0  0  0  0  0  0
  -32.3549  -31.2555   25.2444 C   0  0  0  0  0  0  0  0  0  0  0  0
  -33.7383  -30.9356   27.3065 C   0  0  0  0  0  0  0  0  0  0  0  0
  -32.1548  -32.8571   27.1547 C   0  0  0  0  0  0  0  0  0  0  0  0
  -29.2434  -28.4768   31.5375 C   0  0  0  0  0  0  0  0  0  0  0  0
  -27.6246  -22.8336   24.8868 C   0  0  0  0  0  0  0  0  0  1  0  0
  -34.7932  -18.5483   22.5456 C   0  0  0  0  0  0  0  0  0  0  0  0
  -31.2412  -30.5188   27.4541 C   0  0  1  0  0  0  0  0  0  0  0  0
  -31.2608  -29.9093   31.1954 C   0  0  2  0  0  0  0  0  0  0  0  0
  -32.3537  -31.3718   26.7818 C   0  0  0  0  0  0  0  0  0  0  0  0
  -25.8623  -11.5420   20.2874 N   0  0  0  0  0  0  0  0  0  0  0  0
  -29.4781  -19.7748   24.0225 N   0  0  0  0  0  0  0  0  0  0  0  0
  -26.2375  -12.8262   20.1593 N   0  0  0  0  0  0  0  0  0  0  0  0
  -29.1318  -29.8584   26.3412 N   0  0  0  0  0  0  0  0  0  0  0  0
  -29.9671  -13.6192   20.3704 N   0  0  0  0  0  0  0  0  0  0  0  0
  -25.4674  -15.0525   20.4060 N   0  0  0  0  0  0  0  0  0  0  0  0
  -21.8846  -12.5731   21.5943 N   0  0  0  0  0  0  0  0  0  0  0  0
  -30.0735  -15.6988   21.4778 N   0  0  0  0  0  0  0  0  0  0  0  0
  -27.4184  -31.3629   23.5970 N   0  0  0  0  0  0  0  0  0  0  0  0
  -31.1989  -30.6307   28.9081 N   0  0  0  0  0  0  0  0  0  0  0  0
  -30.6198  -28.8170   31.9810 N   0  3  0  0  0  0  0  0  0  0  0  0
  -22.6574  -14.7140   21.3150 O   0  0  0  0  0  0  0  0  0  0  0  0
  -29.0992  -29.7542   23.6954 O   0  0  0  0  0  0  0  0  0  0  0  0
  -29.4424  -32.0306   27.1294 O   0  0  0  0  0  0  0  0  0  0  0  0
  -31.5002  -28.3735   29.3457 O   0  0  0  0  0  0  0  0  0  0  0  0
  -31.8527  -14.9449   20.1942 O   0  0  0  0  0  0  0  0  0  0  0  0
  -29.2379  -18.2100   25.7687 O   0  0  0  0  0  0  0  0  0  0  0  0
  -29.4079  -21.6437   22.5911 O   0  0  0  0  0  0  0  0  0  0  0  0
  -21.6195   -7.0095   21.7030 O   0  0  0  0  0  0  0  0  0  0  0  0
  -28.6096  -23.8204   25.1906 O   0  0  0  0  0  0  0  0  0  1  0  0
  -18.6229   -6.8473   26.3288 F   0  0  0  0  0  0  0  0  0  0  0  0
  -22.0704   -5.0669   23.6176 F   0  0  0  0  0  0  0  0  0  0  0  0
  1  2  1  0  0  0  0
  1  5  2  0  0  0  0
  2  6  2  0  0  0  0
  3  8  2  0  0  0  0
  3 18  1  0  0  0  0
  4  9  1  0  0  0  0
  4 18  2  0  0  0  0
  5 21  1  0  0  0  0
  6 23  1  0  0  0  0
  7 10  2  0  0  0  0
  7 22  1  0  0  0  0
  8 29  1  0  0  0  0
  9 29  2  0  0  0  0
 10 30  1  0  0  0  0
 11 12  2  0  0  0  0
 11 31  1  0  0  0  0
 12 32  1  0  0  0  0
 13 19  1  0  0  0  0
 13 28  2  0  0  0  0
 14 24  1  0  0  0  0
 14 30  2  0  0  0  0
 15 25  1  0  0  0  0
 15 36  2  0  0  0  0
 16 27  2  0  0  0  0
 16 28  1  0  0  0  0
 17 32  2  0  0  0  0
 17 33  1  0  0  0  0
 18 34  1  0  0  0  0
 19 26  2  0  0  0  0
 19 39  1  0  0  0  0
 20 34  1  0  0  0  0
 20 35  2  0  0  0  0
 20 40  1  0  0  0  0
 21 23  2  0  0  0  0
 21 45  1  0  0  0  0
 22 24  2  0  0  0  0
 22 46  1  0  0  0  0
 23 54  1  0  0  0  0
 24 47  1  0  0  0  0
 25 37  2  0  0  0  0
 25 64  1  0  0  0  0
 26 27  1  0  0  0  0
 26 57  1  0  0  0  0
 27 70  1  0  0  0  0
 28 76  1  0  0  0  0
 29 87  1  0  0  0  0
 30 88  1  0  0  0  0
 31 33  2  0  0  0  0
 31 87  1  0  0  0  0
 32 89  1  0  0  0  0
 33 90  1  0  0  0  0
 34 69  2  0  0  0  0
 35 71  1  0  0  0  0
 35 74  1  0  0  0  0
 36 70  1  0  0  0  0
 36 85  1  0  0  0  0
 37 70  1  0  0  0  0
 37 86  1  0  0  0  0
 38 39  2  0  0  0  0
 39 65  1  0  0  0  0
 40 75  1  0  0  0  0
 40 80  2  0  0  0  0
 41 55  1  0  0  0  0
 41 77  1  0  0  0  0
 41 81  2  0  0  0  0
 42 66  1  0  0  0  0
 42 72  1  0  0  0  0
 42 82  2  0  0  0  0
 43 67  1  0  0  0  0
 43 78  1  0  0  0  0
 43 83  2  0  0  0  0
 44 73  1  0  0  0  0
 44 76  1  0  0  0  0
 44 84  2  0  0  0  0
 45 48  1  0  0  0  0
 46 55  1  0  0  0  0
 47 72  1  0  0  0  0
 48 50  1  0  0  0  0
 49 51  1  0  0  0  0
 49 52  1  0  0  0  0
 50 54  1  0  0  0  0
 51 56  1  0  0  0  0
 52 73  1  0  0  0  0
 53 56  1  0  0  0  0
 53 73  1  0  0  0  0
 54 77  1  0  0  0  0
 55 72  1  0  0  0  0
 56 71  1  0  0  0  0
 58 65  1  0  0  0  0
 59 67  1  0  0  0  0
 60 68  1  0  0  0  0
 61 68  1  0  0  0  0
 62 68  1  0  0  0  0
 63 79  1  0  0  0  0
 64 88  1  0  0  0  0
 66 68  1  0  0  0  0
 66 78  1  0  0  0  0
 67 79  1  0  0  0  0
 69 71  1  0  0  0  0
M  CHG  1  79   1
M  ISO  4  44 100  64 101  76 100  88 101
M  END
> <Batch ID>
0059

> <Smiles>
C=C(CC)c1cc([100NH:0][100C:0](=O)N2CCCC(n3nc(-c4ccc(Oc5ccc(F)cc5F)cc4)c(C(N)=O)c3N)C2)cc(N2C(=O)CC([101CH2:1][101O:1]c3ccc4c(c3)CN(C(=O)C(NC(=O)C(C)NC)C(C)(C)C)C(C(=O)NC3CCCc5ccccc53)C4)C2=O)c1C

> <Shape>
0.221

> <Color>
0.173

> <Negative vol penalty>
0.000

$$$$

  -OEChem-04042323013D

 86 95  0     1  0  0  0  0  0999 V2000
  -38.2834  -27.2273   32.4157 C   0  0  0  0  0  0  0  0  0  0  0  0
  -37.0590  -26.6067   32.1896 C   0  0  0  0  0  0  0  0  0  0  0  0
  -23.0740   -9.8687   19.9425 C   0  0  0  0  0  0  0  0  0  0  0  0
  -23.8309   -9.8789   22.2368 C   0  0  0  0  0  0  0  0  0  0  0  0
  -38.8553  -28.0211   31.4223 C   0  0  0  0  0  0  0  0  0  0  0  0
  -36.4051  -26.7806   30.9703 C   0  0  0  0  0  0  0  0  0  0  0  0
  -32.9845  -22.6552   28.0062 C   0  0  0  0  0  0  0  0  0  0  0  0
  -31.3232  -19.0780   20.6014 C   0  0  0  0  0  0  0  0  0  0  0  0
  -31.1539  -17.6935   20.5964 C   0  0  0  0  0  0  0  0  0  0  0  0
  -22.3289   -8.7166   20.1934 C   0  0  0  0  0  0  0  0  0  0  0  0
  -23.0858   -8.7267   22.4878 C   0  0  0  0  0  0  0  0  0  0  0  0
  -31.6062  -22.4591   27.9317 C   0  0  0  0  0  0  0  0  0  0  0  0
  -19.3782   -7.9246   21.6423 C   0  0  0  0  0  0  0  0  0  0  0  0
  -18.0719   -7.8785   21.1554 C   0  0  0  0  0  0  0  0  0  0  0  0
  -31.5441  -23.7190   25.8755 C   0  0  0  0  0  0  0  0  0  0  0  0
  -29.5208  -17.8868   22.3664 C   0  0  0  0  0  0  0  0  0  0  0  0
  -18.6319   -5.9328   19.8371 C   0  0  0  0  0  0  0  0  0  0  0  0
  -23.8250  -10.4499   20.9642 C   0  0  0  0  0  0  0  0  0  0  0  0
  -24.1689  -12.9746   20.8405 C   0  0  0  0  0  0  0  0  0  0  0  0
  -38.2127  -28.1970   30.1867 C   0  0  0  0  0  0  0  0  0  0  0  0
  -33.6525  -23.3951   27.0199 C   0  0  0  0  0  0  0  0  0  0  0  0
  -36.9683  -27.5786   29.9600 C   0  0  0  0  0  0  0  0  0  0  0  0
  -32.9314  -23.9209   25.9384 C   0  0  0  0  0  0  0  0  0  0  0  0
  -30.5914  -19.8669   21.4890 C   0  0  0  0  0  0  0  0  0  0  0  0
  -29.6902  -19.2713   22.3714 C   0  0  0  0  0  0  0  0  0  0  0  0
  -30.2527  -17.0979   21.4788 C   0  0  0  0  0  0  0  0  0  0  0  0
  -22.3348   -8.1456   21.4660 C   0  0  0  0  0  0  0  0  0  0  0  0
  -30.8853  -22.9935   26.8678 C   0  0  0  0  0  0  0  0  0  0  0  0
  -20.3114   -6.9748   21.2265 C   0  0  0  0  0  0  0  0  0  0  0  0
  -17.6987   -6.8826   20.2529 C   0  0  0  0  0  0  0  0  0  0  0  0
  -19.9382   -5.9789   20.3239 C   0  0  0  0  0  0  0  0  0  0  0  0
  -24.5953  -11.6398   20.7055 C   0  0  0  0  0  0  0  0  0  0  0  0
  -25.2621  -13.7227   20.4773 C   0  0  0  0  0  0  0  0  0  0  0  0
  -27.4901  -21.6099   24.1305 C   0  0  0  0  0  0  0  0  0  0  0  0
  -28.0423  -20.9489   25.1504 C   0  0  0  0  0  0  0  0  0  0  0  0
  -28.0558  -21.0487   22.8874 C   0  0  0  0  0  0  0  0  0  0  0  0
  -22.8983  -13.4921   21.2569 C   0  0  0  0  0  0  0  0  0  0  0  0
  -35.3446  -26.0858   26.9955 C   0  0  0  0  0  0  0  0  0  0  0  0
  -35.8783  -25.2634   23.9034 C   0  0  0  0  0  0  0  0  0  0  0  0
  -34.8445  -23.5433   21.1431 C   0  0  0  0  0  0  0  0  0  0  0  0
  -30.7288  -14.7645   20.6573 C   0  0  0  0  0  0  0  0  0  0  0  0
  -38.8471  -29.1026   29.1610 C   0  0  0  0  0  0  0  0  0  0  0  0
  -35.1436  -23.5749   27.1007 C   0  0  0  0  0  0  0  0  0  0  0  0
  -33.6043  -24.7056   24.8431 C   0  0  0  0  0  0  0  0  0  0  0  0
  -29.0083  -19.9063   24.7039 C   0  0  0  0  0  0  0  0  0  0  0  0
  -38.2694  -28.9328   27.7582 C   0  0  0  0  0  0  0  0  0  0  0  0
  -29.6156  -12.3476   18.2916 C   0  0  0  0  0  0  0  0  0  0  0  0
  -36.7451  -28.9072   27.8081 C   0  0  0  0  0  0  0  0  0  0  0  0
  -28.1752  -12.0578   18.7198 C   0  0  0  0  0  0  0  0  0  0  0  0
  -30.5294  -12.5777   19.4940 C   0  0  0  0  0  0  0  0  0  0  0  0
  -28.6212  -13.3058   20.8716 C   0  0  0  0  0  0  0  0  0  0  0  0
  -36.2402  -27.7230   28.6412 C   0  0  1  0  0  0  0  0  0  0  0  0
  -35.6436  -24.7815   26.3121 C   0  0  1  0  0  0  0  0  0  0  0  0
  -27.6498  -13.1314   19.6929 C   0  0  2  0  0  0  0  0  0  0  0  0
  -30.7932  -21.3474   21.4722 C   0  0  0  0  0  0  0  0  0  0  0  0
  -35.4674  -23.0945   18.7539 C   0  0  0  0  0  0  0  0  0  0  0  0
  -34.8745  -28.0371   23.1231 C   0  0  0  0  0  0  0  0  0  0  0  0
  -34.6188  -27.2076   20.7748 C   0  0  0  0  0  0  0  0  0  0  0  0
  -36.8734  -27.2523   21.8413 C   0  0  0  0  0  0  0  0  0  0  0  0
  -35.1170  -20.6383   21.6385 C   0  0  0  0  0  0  0  0  0  0  0  0
  -27.7733  -21.1728   26.6020 C   0  0  0  0  0  0  0  0  0  0  0  0
  -29.0202  -21.6033   27.3626 C   0  0  0  0  0  0  0  0  0  1  0  0
  -35.1817  -25.5294   22.5908 C   0  0  1  0  0  0  0  0  0  0  0  0
  -35.5880  -22.6208   20.1940 C   0  0  2  0  0  0  0  0  0  0  0  0
  -35.3738  -26.9935   22.1040 C   0  0  0  0  0  0  0  0  0  0  0  0
  -25.8607  -11.5423   20.2890 N   0  0  0  0  0  0  0  0  0  0  0  0
  -26.2387  -12.8254   20.1590 N   0  0  0  0  0  0  0  0  0  0  0  0
  -28.9524  -20.0405   23.2628 N   0  0  0  0  0  0  0  0  0  0  0  0
  -35.0629  -24.8596   24.9701 N   0  0  0  0  0  0  0  0  0  0  0  0
  -29.9701  -13.6104   20.3690 N   0  0  0  0  0  0  0  0  0  0  0  0
  -25.4736  -15.0538   20.4024 N   0  0  0  0  0  0  0  0  0  0  0  0
  -21.8853  -12.5842   21.5944 N   0  0  0  0  0  0  0  0  0  0  0  0
  -30.0811  -15.6913   21.4733 N   0  0  0  0  0  0  0  0  0  0  0  0
  -36.3251  -26.4959   27.8787 N   0  0  0  0  0  0  0  0  0  0  0  0
  -35.6704  -24.5204   21.6574 N   0  0  0  0  0  0  0  0  0  0  0  0
  -35.0406  -21.2375   20.2812 N   0  3  0  0  0  0  0  0  0  0  0  0
  -27.7568  -21.4350   21.7692 O   0  0  0  0  0  0  0  0  0  0  0  0
  -22.6629  -14.7229   21.3119 O   0  0  0  0  0  0  0  0  0  0  0  0
  -34.3023  -26.6772   26.7392 O   0  0  0  0  0  0  0  0  0  0  0  0
  -37.1019  -25.4016   23.9775 O   0  0  0  0  0  0  0  0  0  0  0  0
  -33.6496  -23.4126   21.3994 O   0  0  0  0  0  0  0  0  0  0  0  0
  -31.8586  -14.9316   20.1908 O   0  0  0  0  0  0  0  0  0  0  0  0
  -21.6077   -7.0214   21.7113 O   0  0  0  0  0  0  0  0  0  0  0  0
  -29.5398  -22.8042   26.7930 O   0  0  0  0  0  0  0  0  0  1  0  0
  -16.4438   -6.8376   19.7866 F   0  0  0  0  0  0  0  0  0  0  0  0
  -20.8300   -5.0630   19.9217 F   0  0  0  0  0  0  0  0  0  0  0  0
  1  2  1  0  0  0  0
  1  5  2  0  0  0  0
  2  6  2  0  0  0  0
  3 10  2  0  0  0  0
  3 18  1  0  0  0  0
  4 11  1  0  0  0  0
  4 18  2  0  0  0  0
  5 20  1  0  0  0  0
  6 22  1  0  0  0  0
  7 12  2  0  0  0  0
  7 21  1  0  0  0  0
  8  9  2  0  0  0  0
  8 24  1  0  0  0  0
  9 26  1  0  0  0  0
 10 27  1  0  0  0  0
 11 27  2  0  0  0  0
 12 28  1  0  0  0  0
 13 14  2  0  0  0  0
 13 29  1  0  0  0  0
 14 30  1  0  0  0  0
 15 23  1  0  0  0  0
 15 28  2  0  0  0  0
 16 25  1  0  0  0  0
 16 26  2  0  0  0  0
 17 30  2  0  0  0  0
 17 31  1  0  0  0  0
 18 32  1  0  0  0  0
 19 32  1  0  0  0  0
 19 33  2  0  0  0  0
 19 37  1  0  0  0  0
 20 22  2  0  0  0  0
 20 42  1  0  0  0  0
 21 23  2  0  0  0  0
 21 43  1  0  0  0  0
 22 52  1  0  0  0  0
 23 44  1  0  0  0  0
 24 25  2  0  0  0  0
 24 55  1  0  0  0  0
 25 68  1  0  0  0  0
 26 73  1  0  0  0  0
 27 83  1  0  0  0  0
 28 84  1  0  0  0  0
 29 31  2  0  0  0  0
 29 83  1  0  0  0  0
 30 85  1  0  0  0  0
 31 86  1  0  0  0  0
 32 66  2  0  0  0  0
 33 67  1  0  0  0  0
 33 71  1  0  0  0  0
 34 35  2  0  0  0  0
 34 36  1  0  0  0  0
 35 45  1  0  0  0  0
 35 61  1  0  0  0  0
 36 68  1  0  0  0  0
 36 77  2  0  0  0  0
 37 72  1  0  0  0  0
 37 78  2  0  0  0  0
 38 53  1  0  0  0  0
 38 74  1  0  0  0  0
 38 79  2  0  0  0  0
 39 63  1  0  0  0  0
 39 69  1  0  0  0  0
 39 80  2  0  0  0  0
 40 64  1  0  0  0  0
 40 75  1  0  0  0  0
 40 81  2  0  0  0  0
 41 70  1  0  0  0  0
 41 73  1  0  0  0  0
 41 82  2  0  0  0  0
 42 46  1  0  0  0  0
 43 53  1  0  0  0  0
 44 69  1  0  0  0  0
 45 68  1  0  0  0  0
 46 48  1  0  0  0  0
 47 49  1  0  0  0  0
 47 50  1  0  0  0  0
 48 52  1  0  0  0  0
 49 54  1  0  0  0  0
 50 70  1  0  0  0  0
 51 54  1  0  0  0  0
 51 70  1  0  0  0  0
 52 74  1  0  0  0  0
 53 69  1  0  0  0  0
 54 67  1  0  0  0  0
 56 64  1  0  0  0  0
 57 65  1  0  0  0  0
 58 65  1  0  0  0  0
 59 65  1  0  0  0  0
 60 76  1  0  0  0  0
 61 62  1  0  0  0  0
 62 84  1  0  0  0  0
 63 65  1  0  0  0  0
 63 75  1  0  0  0  0
 64 76  1  0  0  0  0
 66 67  1  0  0  0  0
M  CHG  1  76   1
M  ISO  4  41 100  62 101  73 100  84 101
M  END
> <Batch ID>
0059

> <Smiles>
CNC(C)C(=O)NC(C(=O)N1Cc2cc([101O:1][101CH2:1]C=C3CC(=O)N(c4cc([100NH:0][100C:0](=O)N5CCCC(n6nc(-c7ccc(Oc8ccc(F)cc8F)cc7)c(C(N)=O)c6N)C5)ccc4C)C3)ccc2CC1C(=O)NC1CCCc2ccccc21)C(C)(C)C

> <Shape>
0.160

> <Color>
0.191

> <Negative vol penalty>
0.000

$$$$

  -OEChem-04042323013D

 86 94  0     1  0  0  0  0  0999 V2000
  -23.9374   -8.0479   22.0090 C   0  0  0  0  0  0  0  0  0  0  0  0
  -24.6201   -9.0773   21.3689 C   0  0  0  0  0  0  0  0  0  0  0  0
  -21.9899  -28.3290   21.3501 C   0  0  0  0  0  0  0  0  0  0  0  0
  -22.9647  -27.3652   23.3396 C   0  0  0  0  0  0  0  0  0  0  0  0
  -22.5805   -8.1869   22.2979 C   0  0  0  0  0  0  0  0  0  0  0  0
  -23.9460  -10.2459   21.0164 C   0  0  0  0  0  0  0  0  0  0  0  0
  -26.5686  -14.4231   22.1645 C   0  0  0  0  0  0  0  0  0  0  0  0
  -20.7209  -28.2186   21.9184 C   0  0  0  0  0  0  0  0  0  0  0  0
  -21.6957  -27.2548   23.9079 C   0  0  0  0  0  0  0  0  0  0  0  0
  -27.6116  -14.7753   21.3090 C   0  0  0  0  0  0  0  0  0  0  0  0
  -18.8536  -29.8909   24.1876 C   0  0  0  0  0  0  0  0  0  0  0  0
  -17.9972  -30.9865   24.0792 C   0  0  0  0  0  0  0  0  0  0  0  0
  -26.1851  -16.4082   20.2518 C   0  0  0  0  0  0  0  0  0  0  0  0
  -29.3139  -22.2955   22.9501 C   0  0  0  0  0  0  0  0  0  0  0  0
  -29.5551  -21.0003   20.9249 C   0  0  0  0  0  0  0  0  0  0  0  0
  -16.4028  -29.6220   22.8821 C   0  0  0  0  0  0  0  0  0  0  0  0
  -23.1119  -27.9023   22.0607 C   0  0  0  0  0  0  0  0  0  0  0  0
  -25.3061  -29.1077   21.5706 C   0  0  0  0  0  0  0  0  0  0  0  0
  -21.8917   -9.3617   21.9574 C   0  0  0  0  0  0  0  0  0  0  0  0
  -25.3206  -15.0543   22.0627 C   0  0  0  0  0  0  0  0  0  0  0  0
  -22.5783  -10.4003   21.2999 C   0  0  0  0  0  0  0  0  0  0  0  0
  -25.1286  -16.0640   21.1089 C   0  0  0  0  0  0  0  0  0  0  0  0
  -29.7149  -21.1922   23.7034 C   0  0  0  0  0  0  0  0  0  0  0  0
  -30.0360  -19.9930   23.0675 C   0  0  0  0  0  0  0  0  0  0  0  0
  -29.2340  -22.1995   21.5608 C   0  0  0  0  0  0  0  0  0  0  0  0
  -29.9561  -19.8970   21.6782 C   0  0  0  0  0  0  0  0  0  0  0  0
  -20.5738  -27.6815   23.1972 C   0  0  0  0  0  0  0  0  0  0  0  0
  -27.4191  -15.7660   20.3506 C   0  0  0  0  0  0  0  0  0  0  0  0
  -18.4846  -28.6608   23.6431 C   0  0  0  0  0  0  0  0  0  0  0  0
  -16.7718  -30.8521   23.4265 C   0  0  0  0  0  0  0  0  0  0  0  0
  -17.2593  -28.5263   22.9904 C   0  0  0  0  0  0  0  0  0  0  0  0
  -24.4230  -28.0156   21.4740 C   0  0  0  0  0  0  0  0  0  0  0  0
  -26.4077  -28.7237   20.8458 C   0  0  0  0  0  0  0  0  0  0  0  0
  -25.1450  -30.3576   22.2545 C   0  0  0  0  0  0  0  0  0  0  0  0
  -22.3653  -14.0877   21.4025 C   0  0  0  0  0  0  0  0  0  0  0  0
  -21.6132  -17.1533   22.1499 C   0  0  0  0  0  0  0  0  0  0  0  0
  -30.2438  -18.4407   19.6434 C   0  0  0  0  0  0  0  0  0  0  0  0
  -22.6256  -20.4012   22.4209 C   0  0  0  0  0  0  0  0  0  0  0  0
  -28.6935  -23.3930   19.4091 C   0  0  0  0  0  0  0  0  0  0  0  0
  -20.4142   -9.4470   22.2478 C   0  0  0  0  0  0  0  0  0  0  0  0
  -24.2138  -14.6816   23.0107 C   0  0  0  0  0  0  0  0  0  0  0  0
  -23.8141  -16.7862   20.9721 C   0  0  0  0  0  0  0  0  0  0  0  0
  -19.8605  -10.8678   22.1771 C   0  0  0  0  0  0  0  0  0  0  0  0
  -27.6808  -25.9540   17.1523 C   0  0  0  0  0  0  0  0  0  0  0  0
  -20.3589  -11.5730   20.9197 C   0  0  0  0  0  0  0  0  0  0  0  0
  -26.8158  -26.8760   18.0147 C   0  0  0  0  0  0  0  0  0  0  0  0
  -27.4927  -24.4851   17.5275 C   0  0  0  0  0  0  0  0  0  0  0  0
  -26.8139  -25.1013   19.8141 C   0  0  0  0  0  0  0  0  0  0  0  0
  -21.8876  -11.6932   20.9238 C   0  0  1  0  0  0  0  0  0  0  0  0
  -22.8276  -15.0303   22.4774 C   0  0  1  0  0  0  0  0  0  0  0  0
  -27.0179  -26.5959   19.5168 C   0  0  2  0  0  0  0  0  0  0  0  0
  -30.4659  -18.8121   23.8808 C   0  0  0  0  0  0  0  0  0  0  0  0
  -21.7769  -22.6857   23.0194 C   0  0  0  0  0  0  0  0  0  0  0  0
  -20.2003  -17.3326   19.4515 C   0  0  0  0  0  0  0  0  0  0  0  0
  -20.2144  -19.8250   19.6881 C   0  0  0  0  0  0  0  0  0  0  0  0
  -18.9804  -18.4238   21.3424 C   0  0  0  0  0  0  0  0  0  0  0  0
  -24.5355  -20.6490   24.6681 C   0  0  0  0  0  0  0  0  0  0  0  0
  -30.6642  -17.0046   19.3521 C   0  0  0  0  0  0  0  0  0  0  0  0
  -29.7644  -15.9724   20.0145 C   0  0  0  0  0  0  0  0  0  1  0  0
  -29.7926  -21.3217   25.1898 C   0  0  0  0  0  0  0  0  0  0  0  0
  -21.5082  -18.4468   21.3786 C   0  0  1  0  0  0  0  0  0  0  0  0
  -22.4501  -21.4216   23.5310 C   0  0  2  0  0  0  0  0  0  0  0  0
  -20.2501  -18.4923   20.4662 C   0  0  0  0  0  0  0  0  0  0  0  0
  -24.9206  -27.0131   20.7451 N   0  0  0  0  0  0  0  0  0  0  0  0
  -26.1283  -27.4737   20.3771 N   0  0  0  0  0  0  0  0  0  0  0  0
  -22.7607  -16.3818   21.9179 N   0  0  0  0  0  0  0  0  0  0  0  0
  -27.7039  -24.2949   18.9642 N   0  0  0  0  0  0  0  0  0  0  0  0
  -27.5784  -29.3366   20.5700 N   0  0  0  0  0  0  0  0  0  0  0  0
  -23.9509  -30.5891   22.9508 N   0  0  0  0  0  0  0  0  0  0  0  0
  -30.2761  -18.6896   21.0129 N   0  0  0  0  0  0  0  0  0  0  0  0
  -28.8257  -23.3199   20.7953 N   0  0  0  0  0  0  0  0  0  0  0  0
  -22.3080  -12.7655   21.8001 N   0  0  0  0  0  0  0  0  0  0  0  0
  -21.5682  -19.5177   22.3675 N   0  0  0  0  0  0  0  0  0  0  0  0
  -23.7735  -21.7939   24.1063 N   0  3  0  0  0  0  0  0  0  0  0  0
  -26.0269  -31.2494   22.2346 O   0  0  0  0  0  0  0  0  0  0  0  0
  -22.0802  -14.5276   20.2949 O   0  0  0  0  0  0  0  0  0  0  0  0
  -20.7138  -16.8425   22.9347 O   0  0  0  0  0  0  0  0  0  0  0  0
  -29.9304  -19.2227   18.7520 O   0  0  0  0  0  0  0  0  0  0  0  0
  -23.6011  -20.3912   21.6734 O   0  0  0  0  0  0  0  0  0  0  0  0
  -29.3923  -22.7543   18.6180 O   0  0  0  0  0  0  0  0  0  0  0  0
  -19.3356  -27.5738   23.7522 O   0  0  0  0  0  0  0  0  0  0  0  0
  -28.4353  -16.1112   19.5139 O   0  0  0  0  0  0  0  0  0  1  0  0
  -15.9488  -31.9039   23.3239 F   0  0  0  0  0  0  0  0  0  0  0  0
  -16.8988  -27.3468   22.4664 F   0  0  0  0  0  0  0  0  0  0  0  0
  -28.9437  -20.4505   25.7936 F   0  0  0  0  0  0  0  0  0  0  0  0
  -29.4160  -22.5654   25.5840 F   0  0  0  0  0  0  0  0  0  0  0  0
  1  2  1  0  0  0  0
  1  5  2  0  0  0  0
  2  6  2  0  0  0  0
  3  8  2  0  0  0  0
  3 17  1  0  0  0  0
  4  9  1  0  0  0  0
  4 17  2  0  0  0  0
  5 19  1  0  0  0  0
  6 21  1  0  0  0  0
  7 10  2  0  0  0  0
  7 20  1  0  0  0  0
  8 27  1  0  0  0  0
  9 27  2  0  0  0  0
 10 28  1  0  0  0  0
 11 12  2  0  0  0  0
 11 29  1  0  0  0  0
 12 30  1  0  0  0  0
 13 22  1  0  0  0  0
 13 28  2  0  0  0  0
 14 23  2  0  0  0  0
 14 25  1  0  0  0  0
 15 25  2  0  0  0  0
 15 26  1  0  0  0  0
 16 30  2  0  0  0  0
 16 31  1  0  0  0  0
 17 32  1  0  0  0  0
 18 32  1  0  0  0  0
 18 33  2  0  0  0  0
 18 34  1  0  0  0  0
 19 21  2  0  0  0  0
 19 40  1  0  0  0  0
 20 22  2  0  0  0  0
 20 41  1  0  0  0  0
 21 49  1  0  0  0  0
 22 42  1  0  0  0  0
 23 24  1  0  0  0  0
 23 60  1  0  0  0  0
 24 26  2  0  0  0  0
 24 52  1  0  0  0  0
 25 71  1  0  0  0  0
 26 70  1  0  0  0  0
 27 81  1  0  0  0  0
 28 82  1  0  0  0  0
 29 31  2  0  0  0  0
 29 81  1  0  0  0  0
 30 83  1  0  0  0  0
 31 84  1  0  0  0  0
 32 64  2  0  0  0  0
 33 65  1  0  0  0  0
 33 68  1  0  0  0  0
 34 69  1  0  0  0  0
 34 75  2  0  0  0  0
 35 50  1  0  0  0  0
 35 72  1  0  0  0  0
 35 76  2  0  0  0  0
 36 61  1  0  0  0  0
 36 66  1  0  0  0  0
 36 77  2  0  0  0  0
 37 58  1  0  0  0  0
 37 70  1  0  0  0  0
 37 78  2  0  0  0  0
 38 62  1  0  0  0  0
 38 73  1  0  0  0  0
 38 79  2  0  0  0  0
 39 67  1  0  0  0  0
 39 71  1  0  0  0  0
 39 80  2  0  0  0  0
 40 43  1  0  0  0  0
 41 50  1  0  0  0  0
 42 66  1  0  0  0  0
 43 45  1  0  0  0  0
 44 46  1  0  0  0  0
 44 47  1  0  0  0  0
 45 49  1  0  0  0  0
 46 51  1  0  0  0  0
 47 67  1  0  0  0  0
 48 51  1  0  0  0  0
 48 67  1  0  0  0  0
 49 72  1  0  0  0  0
 50 66  1  0  0  0  0
 51 65  1  0  0  0  0
 53 62  1  0  0  0  0
 54 63  1  0  0  0  0
 55 63  1  0  0  0  0
 56 63  1  0  0  0  0
 57 74  1  0  0  0  0
 58 59  1  0  0  0  0
 59 82  1  0  0  0  0
 60 85  1  0  0  0  0
 60 86  1  0  0  0  0
 61 63  1  0  0  0  0
 61 73  1  0  0  0  0
 62 74  1  0  0  0  0
 64 65  1  0  0  0  0
M  CHG  1  74   1
M  ISO  4  39 100  59 101  71 100  82 101
M  END
> <Batch ID>
0059

> <Smiles>
CNC(C)C(=O)NC(C(=O)N1Cc2cc([101O:1][101CH2:1]CC(=O)Nc3cc([100NH:0][100C:0](=O)N4CCCC(n5nc(-c6ccc(Oc7ccc(F)cc7F)cc6)c(C(N)=O)c5N)C4)cc(C(F)F)c3C)ccc2CC1C(=O)NC1CCCc2ccccc21)C(C)(C)C

> <Shape>
0.245

> <Color>
0.087

> <Negative vol penalty>
0.000

$$$$

  -OEChem-04042323013D

 90 99  0     1  0  0  0  0  0999 V2000
  -24.8038  -35.2735   26.2826 C   0  0  0  0  0  0  0  0  0  0  0  0
  -25.6381  -34.3091   25.7265 C   0  0  0  0  0  0  0  0  0  0  0  0
  -22.8206  -14.1735   24.3962 C   0  0  0  0  0  0  0  0  0  0  0  0
  -22.9765  -16.2403   23.1548 C   0  0  0  0  0  0  0  0  0  0  0  0
  -23.4360  -35.0285   26.3964 C   0  0  0  0  0  0  0  0  0  0  0  0
  -25.1051  -33.0986   25.2847 C   0  0  0  0  0  0  0  0  0  0  0  0
  -26.9698  -29.7898   20.4805 C   0  0  0  0  0  0  0  0  0  0  0  0
  -21.8453  -14.7399   25.2168 C   0  0  0  0  0  0  0  0  0  0  0  0
  -22.0011  -16.8067   23.9754 C   0  0  0  0  0  0  0  0  0  0  0  0
  -27.7971  -28.6725   20.3754 C   0  0  0  0  0  0  0  0  0  0  0  0
  -21.7283  -16.8535   27.8518 C   0  0  0  0  0  0  0  0  0  0  0  0
  -21.8418  -16.6505   29.2272 C   0  0  0  0  0  0  0  0  0  0  0  0
  -29.0285  -21.0616   16.8814 C   0  0  0  0  0  0  0  0  0  0  0  0
  -27.8316  -19.0760   17.5609 C   0  0  0  0  0  0  0  0  0  0  0  0
  -25.8548  -27.2418   20.3760 C   0  0  0  0  0  0  0  0  0  0  0  0
  -30.0783  -19.4649   18.3598 C   0  0  0  0  0  0  0  0  0  0  0  0
  -19.6878  -15.5565   29.2435 C   0  0  0  0  0  0  0  0  0  0  0  0
  -23.3863  -14.9237   23.3652 C   0  0  0  0  0  0  0  0  0  0  0  0
  -27.8807  -20.2701   16.8416 C   0  0  0  0  0  0  0  0  0  0  0  0
  -24.2614  -13.2019   21.6987 C   0  0  0  0  0  0  0  0  0  0  0  0
  -22.8845  -33.8183   25.9470 C   0  0  0  0  0  0  0  0  0  0  0  0
  -25.5770  -29.6406   20.5452 C   0  0  0  0  0  0  0  0  0  0  0  0
  -23.7288  -32.8367   25.3938 C   0  0  0  0  0  0  0  0  0  0  0  0
  -25.0119  -28.3590   20.4793 C   0  0  0  0  0  0  0  0  0  0  0  0
  -30.1274  -20.6589   17.6405 C   0  0  0  0  0  0  0  0  0  0  0  0
  -28.9305  -18.6734   18.3200 C   0  0  0  0  0  0  0  0  0  0  0  0
  -21.4355  -16.0565   25.0064 C   0  0  0  0  0  0  0  0  0  0  0  0
  -27.2398  -27.3981   20.3260 C   0  0  0  0  0  0  0  0  0  0  0  0
  -20.5945  -16.4080   27.1723 C   0  0  0  0  0  0  0  0  0  0  0  0
  -20.8216  -16.0020   29.9230 C   0  0  0  0  0  0  0  0  0  0  0  0
  -19.5742  -15.7595   27.8682 C   0  0  0  0  0  0  0  0  0  0  0  0
  -24.3943  -14.3393   22.5175 C   0  0  0  0  0  0  0  0  0  0  0  0
  -25.4913  -13.0619   21.1033 C   0  0  0  0  0  0  0  0  0  0  0  0
  -31.2956  -23.9738   17.4112 C   0  0  0  0  0  0  0  0  0  0  0  0
  -26.7348  -20.6892   16.0498 C   0  0  0  0  0  0  0  0  0  0  0  0
  -23.1277  -12.3483   21.4944 C   0  0  0  0  0  0  0  0  0  0  0  0
  -26.0309  -21.8359   16.1985 C   0  0  0  0  0  0  0  0  0  0  0  0
  -23.3433  -30.3425   22.6950 C   0  0  0  0  0  0  0  0  0  0  0  0
  -21.3286  -29.3801   20.3419 C   0  0  0  0  0  0  0  0  0  0  0  0
  -20.8505  -27.5308   17.5138 C   0  0  0  0  0  0  0  0  0  0  0  0
  -29.8834  -16.9154   19.8522 C   0  0  0  0  0  0  0  0  0  0  0  0
  -21.4071  -33.5799   26.1342 C   0  0  0  0  0  0  0  0  0  0  0  0
  -24.6971  -30.8575   20.6315 C   0  0  0  0  0  0  0  0  0  0  0  0
  -23.5216  -28.1461   20.5247 C   0  0  0  0  0  0  0  0  0  0  0  0
  -31.0014  -25.2737   18.1335 C   0  0  0  0  0  0  0  0  0  0  0  0
  -20.8663  -32.4221   25.2992 C   0  0  0  0  0  0  0  0  0  0  0  0
  -30.1345  -13.9730   21.8413 C   0  0  0  0  0  0  0  0  0  0  0  0
  -21.7818  -31.2074   25.4145 C   0  0  0  0  0  0  0  0  0  0  0  0
  -28.6786  -13.6260   22.1609 C   0  0  0  0  0  0  0  0  0  0  0  0
  -29.7435  -24.0205   19.9323 C   0  0  0  0  0  0  0  0  0  0  0  0
  -30.3671  -15.4827   21.8242 C   0  0  0  0  0  0  0  0  0  0  0  0
  -30.8115  -22.9726   19.6236 C   0  0  0  0  0  0  0  0  0  0  0  0
  -28.0007  -15.8944   21.2766 C   0  0  0  0  0  0  0  0  0  0  0  0
  -23.1846  -31.5212   24.8805 C   0  0  1  0  0  0  0  0  0  0  0  0
  -23.3170  -30.5572   21.2081 C   0  0  1  0  0  0  0  0  0  0  0  0
  -29.6812  -25.1504   18.8932 C   0  0  1  0  0  0  0  0  0  0  0  0
  -27.7031  -14.3865   21.2412 C   0  0  2  0  0  0  0  0  0  0  0  0
  -24.8495  -22.1319   15.3138 C   0  0  0  0  0  0  0  0  0  0  0  0
  -26.3383  -22.9099   17.2060 C   0  0  0  0  0  0  0  0  0  0  0  0
  -19.0869  -26.9130   15.8389 C   0  0  0  0  0  0  0  0  0  0  0  0
  -20.0831  -27.4641   22.3638 C   0  0  0  0  0  0  0  0  0  0  0  0
  -19.0256  -26.2434   20.4508 C   0  0  0  0  0  0  0  0  0  0  0  0
  -18.4401  -28.6296   20.8817 C   0  0  0  0  0  0  0  0  0  0  0  0
  -22.3815  -28.7336   15.2848 C   0  0  0  0  0  0  0  0  0  0  0  0
  -31.3634  -21.5102   17.6832 C   0  0  0  0  0  0  0  0  0  0  0  0
  -29.2855  -26.4750   19.5394 C   0  0  0  0  0  0  0  0  0  1  0  0
  -20.7141  -28.0633   19.9329 C   0  0  1  0  0  0  0  0  0  0  0  0
  -20.2130  -27.8764   16.1801 C   0  0  2  0  0  0  0  0  0  0  0  0
  -19.5939  -27.6037   20.9084 C   0  0  0  0  0  0  0  0  0  0  0  0
  -25.6124  -14.8831   22.4510 N   0  0  0  0  0  0  0  0  0  0  0  0
  -26.2563  -14.0839   21.5833 N   0  0  0  0  0  0  0  0  0  0  0  0
  -31.0896  -22.8411   18.1989 N   0  0  0  0  0  0  0  0  0  0  0  0
  -22.7037  -29.3668   20.6156 N   0  0  0  0  0  0  0  0  0  0  0  0
  -29.4098  -16.1358   20.9287 N   0  0  0  0  0  0  0  0  0  0  0  0
  -25.9821  -12.1654   20.2214 N   0  0  0  0  0  0  0  0  0  0  0  0
  -21.9422  -12.6354   22.1847 N   0  0  0  0  0  0  0  0  0  0  0  0
  -28.8812  -17.4599   19.0499 N   0  0  0  0  0  0  0  0  0  0  0  0
  -23.1909  -31.5005   23.4335 N   0  0  0  0  0  0  0  0  0  0  0  0
  -20.2728  -28.2300   18.5524 N   0  0  0  0  0  0  0  0  0  0  0  0
  -21.2278  -27.8180   15.0903 N   0  3  0  0  0  0  0  0  0  0  0  0
  -31.6959  -23.9704   16.2483 O   0  0  0  0  0  0  0  0  0  0  0  0
  -23.1698  -11.3507   20.7351 O   0  0  0  0  0  0  0  0  0  0  0  0
  -23.4895  -29.2099   23.1395 O   0  0  0  0  0  0  0  0  0  0  0  0
  -20.6163  -30.3850   20.4090 O   0  0  0  0  0  0  0  0  0  0  0  0
  -21.7666  -26.7189   17.6237 O   0  0  0  0  0  0  0  0  0  0  0  0
  -31.0895  -17.0649   19.6406 O   0  0  0  0  0  0  0  0  0  0  0  0
  -20.4836  -16.6095   25.8068 O   0  0  0  0  0  0  0  0  0  0  0  0
  -28.0450  -26.3058   20.2241 O   0  0  0  0  0  0  0  0  0  1  0  0
  -20.9315  -15.8058   31.2435 F   0  0  0  0  0  0  0  0  0  0  0  0
  -18.4831  -15.3282   27.2207 F   0  0  0  0  0  0  0  0  0  0  0  0
  1  2  1  0  0  0  0
  1  5  2  0  0  0  0
  2  6  2  0  0  0  0
  3  8  2  0  0  0  0
  3 18  1  0  0  0  0
  4  9  1  0  0  0  0
  4 18  2  0  0  0  0
  5 21  1  0  0  0  0
  6 23  1  0  0  0  0
  7 10  2  0  0  0  0
  7 22  1  0  0  0  0
  8 27  1  0  0  0  0
  9 27  2  0  0  0  0
 10 28  1  0  0  0  0
 11 12  2  0  0  0  0
 11 29  1  0  0  0  0
 12 30  1  0  0  0  0
 13 19  2  0  0  0  0
 13 25  1  0  0  0  0
 14 19  1  0  0  0  0
 14 26  2  0  0  0  0
 15 24  1  0  0  0  0
 15 28  2  0  0  0  0
 16 25  2  0  0  0  0
 16 26  1  0  0  0  0
 17 30  2  0  0  0  0
 17 31  1  0  0  0  0
 18 32  1  0  0  0  0
 19 35  1  0  0  0  0
 20 32  1  0  0  0  0
 20 33  2  0  0  0  0
 20 36  1  0  0  0  0
 21 23  2  0  0  0  0
 21 42  1  0  0  0  0
 22 24  2  0  0  0  0
 22 43  1  0  0  0  0
 23 54  1  0  0  0  0
 24 44  1  0  0  0  0
 25 65  1  0  0  0  0
 26 77  1  0  0  0  0
 27 87  1  0  0  0  0
 28 88  1  0  0  0  0
 29 31  2  0  0  0  0
 29 87  1  0  0  0  0
 30 89  1  0  0  0  0
 31 90  1  0  0  0  0
 32 70  2  0  0  0  0
 33 71  1  0  0  0  0
 33 75  1  0  0  0  0
 34 45  1  0  0  0  0
 34 72  1  0  0  0  0
 34 81  2  0  0  0  0
 35 37  2  0  0  0  0
 36 76  1  0  0  0  0
 36 82  2  0  0  0  0
 37 58  1  0  0  0  0
 37 59  1  0  0  0  0
 38 55  1  0  0  0  0
 38 78  1  0  0  0  0
 38 83  2  0  0  0  0
 39 67  1  0  0  0  0
 39 73  1  0  0  0  0
 39 84  2  0  0  0  0
 40 68  1  0  0  0  0
 40 79  1  0  0  0  0
 40 85  2  0  0  0  0
 41 74  1  0  0  0  0
 41 77  1  0  0  0  0
 41 86  2  0  0  0  0
 42 46  1  0  0  0  0
 43 55  1  0  0  0  0
 44 73  1  0  0  0  0
 45 56  1  0  0  0  0
 46 48  1  0  0  0  0
 47 49  1  0  0  0  0
 47 51  1  0  0  0  0
 48 54  1  0  0  0  0
 49 57  1  0  0  0  0
 50 52  1  0  0  0  0
 50 56  1  0  0  0  0
 51 74  1  0  0  0  0
 52 72  1  0  0  0  0
 53 57  1  0  0  0  0
 53 74  1  0  0  0  0
 54 78  1  0  0  0  0
 55 73  1  0  0  0  0
 56 66  1  0  0  0  0
 57 71  1  0  0  0  0
 60 68  1  0  0  0  0
 61 69  1  0  0  0  0
 62 69  1  0  0  0  0
 63 69  1  0  0  0  0
 64 80  1  0  0  0  0
 65 72  1  0  0  0  0
 66 88  1  0  0  0  0
 67 69  1  0  0  0  0
 67 79  1  0  0  0  0
 68 80  1  0  0  0  0
 70 71  1  0  0  0  0
M  CHG  1  80   1
M  ISO  4  41 100  66 101  77 100  88 101
M  END
> <Batch ID>
0059

> <Smiles>
CNC(C)C(=O)NC(C(=O)N1Cc2cc([101O:1][101CH2:1]C3CCN(Cc4cc(C=C(C)C)cc([100NH:0][100C:0](=O)N5CCCC(n6nc(-c7ccc(Oc8ccc(F)cc8F)cc7)c(C(N)=O)c6N)C5)c4)C(=O)C3)ccc2CC1C(=O)NC1CCCc2ccccc21)C(C)(C)C

> <Shape>
0.235

> <Color>
0.091

> <Negative vol penalty>
0.000

$$$$

  -OEChem-04042323013D

 86 94  0     1  0  0  0  0  0999 V2000
  -34.7424  -25.4043   30.6158 C   0  0  0  0  0  0  0  0  0  0  0  0
  -35.1148  -24.6980   29.4766 C   0  0  0  0  0  0  0  0  0  0  0  0
  -23.0650   -9.8734   19.9346 C   0  0  0  0  0  0  0  0  0  0  0  0
  -23.8287   -9.8644   22.2267 C   0  0  0  0  0  0  0  0  0  0  0  0
  -33.4568  -25.9343   30.7169 C   0  0  0  0  0  0  0  0  0  0  0  0
  -34.2013  -24.5204   28.4381 C   0  0  0  0  0  0  0  0  0  0  0  0
  -35.4337  -24.3384   22.4419 C   0  0  0  0  0  0  0  0  0  0  0  0
  -30.3286  -18.9291   23.2298 C   0  0  0  0  0  0  0  0  0  0  0  0
  -29.8273  -17.7094   22.7752 C   0  0  0  0  0  0  0  0  0  0  0  0
  -22.3168   -8.7219   20.1794 C   0  0  0  0  0  0  0  0  0  0  0  0
  -23.0805   -8.7129   22.4715 C   0  0  0  0  0  0  0  0  0  0  0  0
  -35.6038  -23.2796   21.5510 C   0  0  0  0  0  0  0  0  0  0  0  0
  -19.8500   -7.9252   23.0750 C   0  0  0  0  0  0  0  0  0  0  0  0
  -19.0949   -7.8818   24.2469 C   0  0  0  0  0  0  0  0  0  0  0  0
  -31.8879  -17.3081   21.5795 C   0  0  0  0  0  0  0  0  0  0  0  0
  -33.2936  -23.4767   20.8852 C   0  0  0  0  0  0  0  0  0  0  0  0
  -20.3294   -5.9352   24.9705 C   0  0  0  0  0  0  0  0  0  0  0  0
  -23.8211  -10.4446   20.9583 C   0  0  0  0  0  0  0  0  0  0  0  0
  -32.3892  -18.5279   22.0341 C   0  0  0  0  0  0  0  0  0  0  0  0
  -24.1732  -12.9689   20.8518 C   0  0  0  0  0  0  0  0  0  0  0  0
  -32.5302  -25.7714   29.6750 C   0  0  0  0  0  0  0  0  0  0  0  0
  -34.1873  -24.9682   22.5693 C   0  0  0  0  0  0  0  0  0  0  0  0
  -32.9017  -25.0475   28.5258 C   0  0  0  0  0  0  0  0  0  0  0  0
  -33.1110  -24.5449   21.7766 C   0  0  0  0  0  0  0  0  0  0  0  0
  -31.6096  -19.3384   22.8592 C   0  0  0  0  0  0  0  0  0  0  0  0
  -30.6069  -16.8989   21.9501 C   0  0  0  0  0  0  0  0  0  0  0  0
  -22.3245   -8.1417   21.4478 C   0  0  0  0  0  0  0  0  0  0  0  0
  -34.5329  -22.8466   20.7746 C   0  0  0  0  0  0  0  0  0  0  0  0
  -20.8449   -6.9734   22.8507 C   0  0  0  0  0  0  0  0  0  0  0  0
  -19.3346   -6.8869   25.1947 C   0  0  0  0  0  0  0  0  0  0  0  0
  -21.0846   -5.9785   23.7985 C   0  0  0  0  0  0  0  0  0  0  0  0
  -24.5947  -11.6337   20.7059 C   0  0  0  0  0  0  0  0  0  0  0  0
  -25.2678  -13.7159   20.4909 C   0  0  0  0  0  0  0  0  0  0  0  0
  -33.7569  -18.9390   21.6247 C   0  0  0  0  0  0  0  0  0  0  0  0
  -22.9055  -13.4876   21.2757 C   0  0  0  0  0  0  0  0  0  0  0  0
  -32.0945  -25.3431   24.9322 C   0  0  0  0  0  0  0  0  0  0  0  0
  -30.5889  -27.2412   22.7753 C   0  0  0  0  0  0  0  0  0  0  0  0
  -30.0544  -28.0502   19.5031 C   0  0  0  0  0  0  0  0  0  0  0  0
  -30.7386  -14.7378   20.6622 C   0  0  0  0  0  0  0  0  0  0  0  0
  -31.1370  -26.3218   29.8498 C   0  0  0  0  0  0  0  0  0  0  0  0
  -34.0273  -26.1264   23.5155 C   0  0  0  0  0  0  0  0  0  0  0  0
  -31.7578  -25.2009   21.8610 C   0  0  0  0  0  0  0  0  0  0  0  0
  -30.3490  -26.4108   28.5454 C   0  0  0  0  0  0  0  0  0  0  0  0
  -29.6103  -12.3419   18.2824 C   0  0  0  0  0  0  0  0  0  0  0  0
  -30.4852  -25.1162   27.7501 C   0  0  0  0  0  0  0  0  0  0  0  0
  -28.1701  -12.0539   18.7127 C   0  0  0  0  0  0  0  0  0  0  0  0
  -30.5283  -12.5602   19.4838 C   0  0  0  0  0  0  0  0  0  0  0  0
  -28.6267  -13.2848   20.8722 C   0  0  0  0  0  0  0  0  0  0  0  0
  -31.9470  -24.8550   27.3675 C   0  0  1  0  0  0  0  0  0  0  0  0
  -32.5794  -26.3585   23.9364 C   0  0  1  0  0  0  0  0  0  0  0  0
  -27.6512  -13.1222   19.6951 C   0  0  2  0  0  0  0  0  0  0  0  0
  -32.1220  -20.6492   23.3603 C   0  0  0  0  0  0  0  0  0  0  0  0
  -35.9616  -16.9459   19.6009 C   0  0  0  0  0  0  0  0  0  0  0  0
  -28.7419  -29.6207   18.0512 C   0  0  0  0  0  0  0  0  0  0  0  0
  -28.0739  -25.5826   23.2587 C   0  0  0  0  0  0  0  0  0  0  0  0
  -27.1177  -26.5470   21.1554 C   0  0  0  0  0  0  0  0  0  0  0  0
  -27.6793  -28.0449   23.0695 C   0  0  0  0  0  0  0  0  0  0  0  0
  -35.1114  -19.4901   18.1726 C   0  0  0  0  0  0  0  0  0  0  0  0
  -32.5145  -29.2470   18.3741 C   0  0  0  0  0  0  0  0  0  0  0  0
  -36.2959  -18.3585   20.0688 C   0  0  0  0  0  0  0  0  0  0  0  0
  -35.6631  -20.8215   20.2481 C   0  0  0  0  0  0  0  0  0  1  0  0
  -29.5470  -27.0249   21.7045 C   0  0  1  0  0  0  0  0  0  0  0  0
  -30.0544  -29.3865   18.7829 C   0  0  2  0  0  0  0  0  0  0  0  0
  -28.1293  -26.7860   22.2966 C   0  0  0  0  0  0  0  0  0  0  0  0
  -35.2476  -19.4395   19.7055 C   0  0  1  0  0  0  0  0  0  0  0  0
  -25.8584  -11.5349   20.2850 N   0  0  0  0  0  0  0  0  0  0  0  0
  -26.2404  -12.8176   20.1632 N   0  0  0  0  0  0  0  0  0  0  0  0
  -31.6498  -26.3250   22.8055 N   0  0  0  0  0  0  0  0  0  0  0  0
  -29.9751  -13.5884   20.3678 N   0  0  0  0  0  0  0  0  0  0  0  0
  -25.4836  -15.0469   20.4249 N   0  0  0  0  0  0  0  0  0  0  0  0
  -21.8904  -12.5808   21.6096 N   0  0  0  0  0  0  0  0  0  0  0  0
  -30.0964  -15.6610   21.4869 N   0  0  0  0  0  0  0  0  0  0  0  0
  -33.9564  -19.0681   20.2649 N   0  0  0  0  0  0  0  0  0  0  0  0
  -32.3333  -25.6880   26.2489 N   0  0  0  0  0  0  0  0  0  0  0  0
  -29.6353  -28.1747   20.8108 N   0  0  0  0  0  0  0  0  0  0  0  0
  -31.1628  -29.4389   17.7882 N   0  3  0  0  0  0  0  0  0  0  0  0
  -34.6135  -19.1159   22.4869 O   0  0  0  0  0  0  0  0  0  0  0  0
  -22.6745  -14.7189   21.3403 O   0  0  0  0  0  0  0  0  0  0  0  0
  -31.5433  -24.3231   24.5355 O   0  0  0  0  0  0  0  0  0  0  0  0
  -30.4697  -28.1924   23.5516 O   0  0  0  0  0  0  0  0  0  0  0  0
  -30.3890  -27.0002   18.9589 O   0  0  0  0  0  0  0  0  0  0  0  0
  -31.8676  -14.9045   20.1937 O   0  0  0  0  0  0  0  0  0  0  0  0
  -21.5943   -7.0183   21.6871 O   0  0  0  0  0  0  0  0  0  0  0  0
  -34.6959  -21.8130   19.9046 O   0  0  0  0  0  0  0  0  0  1  0  0
  -18.6103   -6.8463   26.3207 F   0  0  0  0  0  0  0  0  0  0  0  0
  -22.0398   -5.0622   23.5891 F   0  0  0  0  0  0  0  0  0  0  0  0
  1  2  1  0  0  0  0
  1  5  2  0  0  0  0
  2  6  2  0  0  0  0
  3 10  2  0  0  0  0
  3 18  1  0  0  0  0
  4 11  1  0  0  0  0
  4 18  2  0  0  0  0
  5 21  1  0  0  0  0
  6 23  1  0  0  0  0
  7 12  2  0  0  0  0
  7 22  1  0  0  0  0
  8  9  2  0  0  0  0
  8 25  1  0  0  0  0
  9 26  1  0  0  0  0
 10 27  1  0  0  0  0
 11 27  2  0  0  0  0
 12 28  1  0  0  0  0
 13 14  2  0  0  0  0
 13 29  1  0  0  0  0
 14 30  1  0  0  0  0
 15 19  1  0  0  0  0
 15 26  2  0  0  0  0
 16 24  1  0  0  0  0
 16 28  2  0  0  0  0
 17 30  2  0  0  0  0
 17 31  1  0  0  0  0
 18 32  1  0  0  0  0
 19 25  2  0  0  0  0
 19 34  1  0  0  0  0
 20 32  1  0  0  0  0
 20 33  2  0  0  0  0
 20 35  1  0  0  0  0
 21 23  2  0  0  0  0
 21 40  1  0  0  0  0
 22 24  2  0  0  0  0
 22 41  1  0  0  0  0
 23 49  1  0  0  0  0
 24 42  1  0  0  0  0
 25 52  1  0  0  0  0
 26 72  1  0  0  0  0
 27 83  1  0  0  0  0
 28 84  1  0  0  0  0
 29 31  2  0  0  0  0
 29 83  1  0  0  0  0
 30 85  1  0  0  0  0
 31 86  1  0  0  0  0
 32 66  2  0  0  0  0
 33 67  1  0  0  0  0
 33 70  1  0  0  0  0
 34 73  1  0  0  0  0
 34 77  2  0  0  0  0
 35 71  1  0  0  0  0
 35 78  2  0  0  0  0
 36 50  1  0  0  0  0
 36 74  1  0  0  0  0
 36 79  2  0  0  0  0
 37 62  1  0  0  0  0
 37 68  1  0  0  0  0
 37 80  2  0  0  0  0
 38 63  1  0  0  0  0
 38 75  1  0  0  0  0
 38 81  2  0  0  0  0
 39 69  1  0  0  0  0
 39 72  1  0  0  0  0
 39 82  2  0  0  0  0
 40 43  1  0  0  0  0
 41 50  1  0  0  0  0
 42 68  1  0  0  0  0
 43 45  1  0  0  0  0
 44 46  1  0  0  0  0
 44 47  1  0  0  0  0
 45 49  1  0  0  0  0
 46 51  1  0  0  0  0
 47 69  1  0  0  0  0
 48 51  1  0  0  0  0
 48 69  1  0  0  0  0
 49 74  1  0  0  0  0
 50 68  1  0  0  0  0
 51 67  1  0  0  0  0
 53 60  1  0  0  0  0
 54 63  1  0  0  0  0
 55 64  1  0  0  0  0
 56 64  1  0  0  0  0
 57 64  1  0  0  0  0
 58 65  1  0  0  0  0
 59 76  1  0  0  0  0
 60 65  1  0  0  0  0
 61 65  1  0  0  0  0
 61 84  1  0  0  0  0
 62 64  1  0  0  0  0
 62 75  1  0  0  0  0
 63 76  1  0  0  0  0
 65 73  1  0  0  0  0
 66 67  1  0  0  0  0
M  CHG  1  76   1
M  ISO  4  39 100  61 101  72 100  84 101
M  END
> <Batch ID>
0059

> <Smiles>
CCC(C)(NC(=O)c1cc([100NH:0][100C:0](=O)N2CCCC(n3nc(-c4ccc(Oc5ccc(F)cc5F)cc4)c(C(N)=O)c3N)C2)ccc1C)[101CH2:1][101O:1]c1ccc2c(c1)CN(C(=O)C(NC(=O)C(C)NC)C(C)(C)C)C(C(=O)NC1CCCc3ccccc31)C2

> <Shape>
0.200

> <Color>
0.189

> <Negative vol penalty>
0.000

$$$$

  -OEChem-04042323013D

 85 94  0     1  0  0  0  0  0999 V2000
  -28.6186  -36.5938   23.7197 C   0  0  0  0  0  0  0  0  0  0  0  0
  -28.9542  -35.3732   23.1426 C   0  0  0  0  0  0  0  0  0  0  0  0
  -25.1994   -7.1387   20.4394 C   0  0  0  0  0  0  0  0  0  0  0  0
  -24.0934   -9.2241   19.9244 C   0  0  0  0  0  0  0  0  0  0  0  0
  -27.4981  -36.6893   24.5438 C   0  0  0  0  0  0  0  0  0  0  0  0
  -28.1699  -34.2472   23.3901 C   0  0  0  0  0  0  0  0  0  0  0  0
  -26.9584  -29.6764   19.4983 C   0  0  0  0  0  0  0  0  0  0  0  0
  -28.1896  -19.3675   19.3186 C   0  0  0  0  0  0  0  0  0  0  0  0
  -30.3411  -19.7426   20.3518 C   0  0  0  0  0  0  0  0  0  0  0  0
  -28.3155  -17.9984   19.5534 C   0  0  0  0  0  0  0  0  0  0  0  0
  -30.4670  -18.3734   20.5867 C   0  0  0  0  0  0  0  0  0  0  0  0
  -23.9938   -6.6144   20.9056 C   0  0  0  0  0  0  0  0  0  0  0  0
  -22.8878   -8.6998   20.3906 C   0  0  0  0  0  0  0  0  0  0  0  0
  -27.5114  -28.4061   19.3421 C   0  0  0  0  0  0  0  0  0  0  0  0
  -22.1038   -6.8197   23.7003 C   0  0  0  0  0  0  0  0  0  0  0  0
  -22.1261   -6.1178   24.9055 C   0  0  0  0  0  0  0  0  0  0  0  0
  -25.7455  -27.4772   20.6977 C   0  0  0  0  0  0  0  0  0  0  0  0
  -21.3053   -4.1477   23.7732 C   0  0  0  0  0  0  0  0  0  0  0  0
  -25.2492   -8.4436   19.9489 C   0  0  0  0  0  0  0  0  0  0  0  0
  -27.2840   -8.4940   18.4112 C   0  0  0  0  0  0  0  0  0  0  0  0
  -26.6942  -35.5661   24.7939 C   0  0  0  0  0  0  0  0  0  0  0  0
  -25.7990  -29.8584   20.2658 C   0  0  0  0  0  0  0  0  0  0  0  0
  -27.0383  -34.3275   24.2195 C   0  0  0  0  0  0  0  0  0  0  0  0
  -25.1784  -28.7504   20.8601 C   0  0  0  0  0  0  0  0  0  0  0  0
  -29.2025  -20.2397   19.7177 C   0  0  0  0  0  0  0  0  0  0  0  0
  -29.4541  -17.5013   20.1875 C   0  0  0  0  0  0  0  0  0  0  0  0
  -22.8380   -7.3949   20.8812 C   0  0  0  0  0  0  0  0  0  0  0  0
  -26.9066  -27.3067   19.9442 C   0  0  0  0  0  0  0  0  0  0  0  0
  -21.6822   -6.1856   22.5316 C   0  0  0  0  0  0  0  0  0  0  0  0
  -21.7269   -4.7818   24.9420 C   0  0  0  0  0  0  0  0  0  0  0  0
  -21.2829   -4.8496   22.5681 C   0  0  0  0  0  0  0  0  0  0  0  0
  -26.4944   -8.9859   19.4677 C   0  0  0  0  0  0  0  0  0  0  0  0
  -28.3532   -9.3542   18.3524 C   0  0  0  0  0  0  0  0  0  0  0  0
  -28.3456  -22.1373   18.3690 C   0  0  0  0  0  0  0  0  0  0  0  0
  -27.0702   -7.3610   17.5591 C   0  0  0  0  0  0  0  0  0  0  0  0
  -25.0898  -31.4743   22.9096 C   0  0  0  0  0  0  0  0  0  0  0  0
  -22.0690  -30.5152   22.2187 C   0  0  0  0  0  0  0  0  0  0  0  0
  -20.0281  -28.2697   20.6569 C   0  0  0  0  0  0  0  0  0  0  0  0
  -28.6752  -15.0993   20.0976 C   0  0  0  0  0  0  0  0  0  0  0  0
  -25.5198  -35.7077   25.7295 C   0  0  0  0  0  0  0  0  0  0  0  0
  -25.1999  -31.2313   20.4027 C   0  0  0  0  0  0  0  0  0  0  0  0
  -23.9209  -28.8895   21.6773 C   0  0  0  0  0  0  0  0  0  0  0  0
  -28.0009  -23.6159   18.3758 C   0  0  0  0  0  0  0  0  0  0  0  0
  -24.5272  -34.5513   25.6405 C   0  0  0  0  0  0  0  0  0  0  0  0
  -30.4333  -12.1110   21.7418 C   0  0  0  0  0  0  0  0  0  0  0  0
  -25.2623  -33.2147   25.6525 C   0  0  0  0  0  0  0  0  0  0  0  0
  -30.1459  -11.0393   20.6929 C   0  0  0  0  0  0  0  0  0  0  0  0
  -29.3887  -23.9961   20.3708 C   0  0  0  0  0  0  0  0  0  0  0  0
  -30.3687  -13.5184   21.1622 C   0  0  0  0  0  0  0  0  0  0  0  0
  -29.8953  -22.5643   20.2950 C   0  0  0  0  0  0  0  0  0  0  0  0
  -28.2285  -12.6546   20.1984 C   0  0  0  0  0  0  0  0  0  0  0  0
  -26.1982  -33.0890   24.4442 C   0  0  1  0  0  0  0  0  0  0  0  0
  -24.3067  -31.3737   21.6312 C   0  0  1  0  0  0  0  0  0  0  0  0
  -29.0797  -24.5048   18.9723 C   0  0  2  0  0  0  0  0  0  0  0  0
  -29.0384  -11.4470   19.7012 C   0  0  2  0  0  0  0  0  0  0  0  0
  -17.6042  -27.7244   20.3039 C   0  0  0  0  0  0  0  0  0  0  0  0
  -21.9119  -29.3914   25.0511 C   0  0  0  0  0  0  0  0  0  0  0  0
  -19.9115  -28.0649   24.3390 C   0  0  0  0  0  0  0  0  0  0  0  0
  -19.8401  -30.5576   24.2750 C   0  0  0  0  0  0  0  0  0  0  0  0
  -20.2593  -28.6074   17.7258 C   0  0  0  0  0  0  0  0  0  0  0  0
  -28.6299  -25.9630   19.0057 C   0  0  0  0  0  0  0  0  0  1  0  0
  -21.2238  -29.3129   22.5638 C   0  0  1  0  0  0  0  0  0  0  0  0
  -18.8181  -28.4619   19.7606 C   0  0  2  0  0  0  0  0  0  0  0  0
  -20.7466  -29.3290   24.0435 C   0  0  0  0  0  0  0  0  0  0  0  0
  -27.0174  -10.0740   20.0391 N   0  0  0  0  0  0  0  0  0  0  0  0
  -28.1472  -10.2730   19.3391 N   0  0  0  0  0  0  0  0  0  0  0  0
  -29.0722  -21.6605   19.4737 N   0  0  0  0  0  0  0  0  0  0  0  0
  -23.3770  -30.2532   21.7870 N   0  0  0  0  0  0  0  0  0  0  0  0
  -29.1009  -13.8019   20.4741 N   0  0  0  0  0  0  0  0  0  0  0  0
  -29.4402   -9.4066   17.5536 N   0  0  0  0  0  0  0  0  0  0  0  0
  -26.3535   -7.5459   16.3689 N   0  0  0  0  0  0  0  0  0  0  0  0
  -29.5823  -16.1101   20.4263 N   0  0  0  0  0  0  0  0  0  0  0  0
  -25.4440  -32.7653   23.2523 N   0  0  0  0  0  0  0  0  0  0  0  0
  -20.1407  -29.2814   21.5870 N   0  0  0  0  0  0  0  0  0  0  0  0
  -19.1029  -27.9522   18.3895 N   0  3  0  0  0  0  0  0  0  0  0  0
  -27.9217  -21.4472   17.4380 O   0  0  0  0  0  0  0  0  0  0  0  0
  -27.4877   -6.2151   17.8526 O   0  0  0  0  0  0  0  0  0  0  0  0
  -25.3519  -30.4563   23.5393 O   0  0  0  0  0  0  0  0  0  0  0  0
  -21.5842  -31.6448   22.3213 O   0  0  0  0  0  0  0  0  0  0  0  0
  -20.7945  -27.3153   20.5457 O   0  0  0  0  0  0  0  0  0  0  0  0
  -27.6017  -15.2871   19.5213 O   0  0  0  0  0  0  0  0  0  0  0  0
  -21.6614   -6.8836   21.3357 O   0  0  0  0  0  0  0  0  0  0  0  0
  -27.4447  -26.0658   19.7938 O   0  0  0  0  0  0  0  0  0  1  0  0
  -21.7498   -4.1075   26.0991 F   0  0  0  0  0  0  0  0  0  0  0  0
  -20.8780   -4.2348   21.4483 F   0  0  0  0  0  0  0  0  0  0  0  0
  1  2  1  0  0  0  0
  1  5  2  0  0  0  0
  2  6  2  0  0  0  0
  3 12  2  0  0  0  0
  3 19  1  0  0  0  0
  4 13  1  0  0  0  0
  4 19  2  0  0  0  0
  5 21  1  0  0  0  0
  6 23  1  0  0  0  0
  7 14  2  0  0  0  0
  7 22  1  0  0  0  0
  8 10  2  0  0  0  0
  8 25  1  0  0  0  0
  9 11  1  0  0  0  0
  9 25  2  0  0  0  0
 10 26  1  0  0  0  0
 11 26  2  0  0  0  0
 12 27  1  0  0  0  0
 13 27  2  0  0  0  0
 14 28  1  0  0  0  0
 15 16  2  0  0  0  0
 15 29  1  0  0  0  0
 16 30  1  0  0  0  0
 17 24  1  0  0  0  0
 17 28  2  0  0  0  0
 18 30  2  0  0  0  0
 18 31  1  0  0  0  0
 19 32  1  0  0  0  0
 20 32  1  0  0  0  0
 20 33  2  0  0  0  0
 20 35  1  0  0  0  0
 21 23  2  0  0  0  0
 21 40  1  0  0  0  0
 22 24  2  0  0  0  0
 22 41  1  0  0  0  0
 23 52  1  0  0  0  0
 24 42  1  0  0  0  0
 25 67  1  0  0  0  0
 26 72  1  0  0  0  0
 27 82  1  0  0  0  0
 28 83  1  0  0  0  0
 29 31  2  0  0  0  0
 29 82  1  0  0  0  0
 30 84  1  0  0  0  0
 31 85  1  0  0  0  0
 32 65  2  0  0  0  0
 33 66  1  0  0  0  0
 33 70  1  0  0  0  0
 34 43  1  0  0  0  0
 34 67  1  0  0  0  0
 34 76  2  0  0  0  0
 35 71  1  0  0  0  0
 35 77  2  0  0  0  0
 36 53  1  0  0  0  0
 36 73  1  0  0  0  0
 36 78  2  0  0  0  0
 37 62  1  0  0  0  0
 37 68  1  0  0  0  0
 37 79  2  0  0  0  0
 38 63  1  0  0  0  0
 38 74  1  0  0  0  0
 38 80  2  0  0  0  0
 39 69  1  0  0  0  0
 39 72  1  0  0  0  0
 39 81  2  0  0  0  0
 40 44  1  0  0  0  0
 41 53  1  0  0  0  0
 42 68  1  0  0  0  0
 43 54  1  0  0  0  0
 44 46  1  0  0  0  0
 45 47  1  0  0  0  0
 45 49  1  0  0  0  0
 46 52  1  0  0  0  0
 47 55  1  0  0  0  0
 48 50  1  0  0  0  0
 48 54  1  0  0  0  0
 49 69  1  0  0  0  0
 50 67  1  0  0  0  0
 51 55  1  0  0  0  0
 51 69  1  0  0  0  0
 52 73  1  0  0  0  0
 53 68  1  0  0  0  0
 54 61  1  0  0  0  0
 55 66  1  0  0  0  0
 56 63  1  0  0  0  0
 57 64  1  0  0  0  0
 58 64  1  0  0  0  0
 59 64  1  0  0  0  0
 60 75  1  0  0  0  0
 61 83  1  0  0  0  0
 62 64  1  0  0  0  0
 62 74  1  0  0  0  0
 63 75  1  0  0  0  0
 65 66  1  0  0  0  0
M  CHG  1  75   1
M  ISO  4  39 100  61 101  72 100  83 101
M  END
> <Batch ID>
0059

> <Smiles>
CNC(C)C(=O)NC(C(=O)N1Cc2cc([101O:1][101CH2:1]C3CCN(c4ccc([100NH:0][100C:0](=O)N5CCCC(n6nc(-c7ccc(Oc8ccc(F)cc8F)cc7)c(C(N)=O)c6N)C5)cc4)C(=O)C3)ccc2CC1C(=O)NC1CCCc2ccccc21)C(C)(C)C

> <Shape>
0.329

> <Color>
0.086

> <Negative vol penalty>
0.000

$$$$

  -OEChem-04042323013D

 90 99  0     1  0  0  0  0  0999 V2000
  -28.5498  -31.0034   26.7488 C   0  0  0  0  0  0  0  0  0  0  0  0
  -28.9585  -30.0113   25.8633 C   0  0  0  0  0  0  0  0  0  0  0  0
  -23.9892   -9.6026   19.7141 C   0  0  0  0  0  0  0  0  0  0  0  0
  -24.3275   -9.5362   22.1054 C   0  0  0  0  0  0  0  0  0  0  0  0
  -27.1905  -31.2432   26.9461 C   0  0  0  0  0  0  0  0  0  0  0  0
  -28.0080  -29.2576   25.1754 C   0  0  0  0  0  0  0  0  0  0  0  0
  -29.1454  -28.7046   20.2718 C   0  0  0  0  0  0  0  0  0  0  0  0
  -23.5748   -8.2710   19.7357 C   0  0  0  0  0  0  0  0  0  0  0  0
  -23.9130   -8.2045   22.1270 C   0  0  0  0  0  0  0  0  0  0  0  0
  -30.1187  -27.7609   19.9464 C   0  0  0  0  0  0  0  0  0  0  0  0
  -22.6000   -4.8953   22.8640 C   0  0  0  0  0  0  0  0  0  0  0  0
  -21.7057   -4.5098   23.8626 C   0  0  0  0  0  0  0  0  0  0  0  0
  -28.3879  -26.1934   19.3412 C   0  0  0  0  0  0  0  0  0  0  0  0
  -27.1691  -20.0909   24.0066 C   0  0  0  0  0  0  0  0  0  0  0  0
  -29.2822  -19.1555   22.4438 C   0  0  0  0  0  0  0  0  0  0  0  0
  -20.0981   -6.1164   23.0432 C   0  0  0  0  0  0  0  0  0  0  0  0
  -24.3657  -10.2352   20.8990 C   0  0  0  0  0  0  0  0  0  0  0  0
  -23.9876  -12.7550   21.0234 C   0  0  0  0  0  0  0  0  0  0  0  0
  -26.2231  -30.4987   26.2531 C   0  0  0  0  0  0  0  0  0  0  0  0
  -27.7836  -28.3955   20.1445 C   0  0  0  0  0  0  0  0  0  0  0  0
  -26.6346  -29.4868   25.3647 C   0  0  0  0  0  0  0  0  0  0  0  0
  -27.3993  -27.1358   19.6632 C   0  0  0  0  0  0  0  0  0  0  0  0
  -28.0037  -20.9947   23.3493 C   0  0  0  0  0  0  0  0  0  0  0  0
  -27.3910  -18.7194   23.8826 C   0  0  0  0  0  0  0  0  0  0  0  0
  -29.0602  -20.5271   22.5679 C   0  0  0  0  0  0  0  0  0  0  0  0
  -28.4475  -18.2517   23.1011 C   0  0  0  0  0  0  0  0  0  0  0  0
  -23.5367   -7.5719   20.9422 C   0  0  0  0  0  0  0  0  0  0  0  0
  -29.7400  -26.5041   19.4838 C   0  0  0  0  0  0  0  0  0  0  0  0
  -22.2434   -5.8914   21.9550 C   0  0  0  0  0  0  0  0  0  0  0  0
  -20.4548   -5.1203   23.9522 C   0  0  0  0  0  0  0  0  0  0  0  0
  -20.9925   -6.5020   22.0446 C   0  0  0  0  0  0  0  0  0  0  0  0
  -24.7944  -11.6107   20.8772 C   0  0  0  0  0  0  0  0  0  0  0  0
  -24.8648  -13.8078   20.9294 C   0  0  0  0  0  0  0  0  0  0  0  0
  -30.6800  -22.3870   22.5764 C   0  0  0  0  0  0  0  0  0  0  0  0
  -31.5225  -23.2834   22.0289 C   0  0  0  0  0  0  0  0  0  0  0  0
  -30.0713  -21.3748   20.4858 C   0  0  0  0  0  0  0  0  0  0  0  0
  -30.9379  -22.4063   19.8166 C   0  0  0  0  0  0  0  0  0  0  0  0
  -22.5720  -12.8572   21.2260 C   0  0  0  0  0  0  0  0  0  0  0  0
  -25.3301  -28.2002   22.1560 C   0  0  0  0  0  0  0  0  0  0  0  0
  -23.6323  -27.7542   19.4282 C   0  0  0  0  0  0  0  0  0  0  0  0
  -23.6046  -26.7667   16.1616 C   0  0  0  0  0  0  0  0  0  0  0  0
  -29.6989  -16.2503   22.2210 C   0  0  0  0  0  0  0  0  0  0  0  0
  -24.7651  -30.7622   26.5348 C   0  0  0  0  0  0  0  0  0  0  0  0
  -26.7464  -29.4338   20.4742 C   0  0  0  0  0  0  0  0  0  0  0  0
  -25.9509  -26.7613   19.4894 C   0  0  0  0  0  0  0  0  0  0  0  0
  -23.8258  -30.1728   25.4858 C   0  0  0  0  0  0  0  0  0  0  0  0
  -29.7250  -13.9302   19.5203 C   0  0  0  0  0  0  0  0  0  0  0  0
  -24.2181  -28.7338   25.1661 C   0  0  0  0  0  0  0  0  0  0  0  0
  -28.3782  -13.2140   19.6446 C   0  0  0  0  0  0  0  0  0  0  0  0
  -30.3261  -14.2490   20.8881 C   0  0  0  0  0  0  0  0  0  0  0  0
  -28.0916  -14.2641   21.9255 C   0  0  0  0  0  0  0  0  0  0  0  0
  -25.6341  -28.6650   24.5814 C   0  0  1  0  0  0  0  0  0  0  0  0
  -25.3809  -28.8336   20.7944 C   0  0  1  0  0  0  0  0  0  0  0  0
  -27.4162  -13.9800   20.5739 C   0  0  2  0  0  0  0  0  0  0  0  0
  -27.7427  -22.4583   23.5001 C   0  0  0  0  0  0  0  0  0  0  0  0
  -26.4812  -17.7741   24.5979 C   0  0  0  0  0  0  0  0  0  0  0  0
  -22.0613  -26.4780   14.2039 C   0  0  0  0  0  0  0  0  0  0  0  0
  -22.5115  -25.2120   20.6897 C   0  0  0  0  0  0  0  0  0  0  0  0
  -21.7630  -24.4945   18.4109 C   0  0  0  0  0  0  0  0  0  0  0  0
  -20.8376  -26.5759   19.4278 C   0  0  0  0  0  0  0  0  0  0  0  0
  -25.1167  -28.7213   14.5331 C   0  0  0  0  0  0  0  0  0  0  0  0
  -32.5352  -24.2536   19.9449 C   0  0  0  0  0  0  0  0  0  0  0  0
  -31.9189  -25.6398   19.8856 C   0  0  0  0  0  0  0  0  0  1  0  0
  -23.2280  -26.5554   18.6045 C   0  0  1  0  0  0  0  0  0  0  0  0
  -23.0229  -27.4149   14.9182 C   0  0  2  0  0  0  0  0  0  0  0  0
  -22.1124  -25.7155   19.2882 C   0  0  0  0  0  0  0  0  0  0  0  0
  -26.0849  -11.9083   20.7034 N   0  0  0  0  0  0  0  0  0  0  0  0
  -26.0956  -13.2517   20.7397 N   0  0  0  0  0  0  0  0  0  0  0  0
  -29.9391  -21.4507   21.8765 N   0  0  0  0  0  0  0  0  0  0  0  0
  -31.6537  -23.2911   20.6278 N   0  0  0  0  0  0  0  0  0  0  0  0
  -24.9741  -27.8085   19.8311 N   0  0  0  0  0  0  0  0  0  0  0  0
  -29.3598  -14.9788   21.7119 N   0  0  0  0  0  0  0  0  0  0  0  0
  -24.6955  -15.1457   20.9912 N   0  0  0  0  0  0  0  0  0  0  0  0
  -21.8204  -11.6765   21.2988 N   0  0  0  0  0  0  0  0  0  0  0  0
  -28.6891  -16.8624   22.9628 N   0  0  0  0  0  0  0  0  0  0  0  0
  -25.6267  -29.0664   23.1909 N   0  0  0  0  0  0  0  0  0  0  0  0
  -22.8674  -27.0681   17.2872 N   0  0  0  0  0  0  0  0  0  0  0  0
  -24.1111  -27.7843   13.9694 N   0  3  0  0  0  0  0  0  0  0  0  0
  -32.2127  -24.1522   22.6342 O   0  5  0  0  0  0  0  0  0  0  0  0
  -29.5944  -20.5336   19.7297 O   0  0  0  0  0  0  0  0  0  0  0  0
  -30.9516  -22.3752   18.5890 O   0  0  0  0  0  0  0  0  0  0  0  0
  -21.9883  -13.9634   21.3229 O   0  0  0  0  0  0  0  0  0  0  0  0
  -25.0417  -27.0137   22.2600 O   0  0  0  0  0  0  0  0  0  0  0  0
  -22.7902  -28.6143   19.6980 O   0  0  0  0  0  0  0  0  0  0  0  0
  -24.6100  -26.0603   16.1362 O   0  0  0  0  0  0  0  0  0  0  0  0
  -30.7938  -16.7704   21.9914 O   0  0  0  0  0  0  0  0  0  0  0  0
  -23.1321   -6.2725   20.9637 O   0  0  0  0  0  0  0  0  0  0  0  0
  -30.6879  -25.5808   19.1661 O   0  0  0  0  0  0  0  0  0  1  0  0
  -19.5955   -4.7489   24.9103 F   0  0  0  0  0  0  0  0  0  0  0  0
  -20.6438   -7.4587   21.1735 F   0  0  0  0  0  0  0  0  0  0  0  0
  1  2  1  0  0  0  0
  1  5  2  0  0  0  0
  2  6  2  0  0  0  0
  3  8  2  0  0  0  0
  3 17  1  0  0  0  0
  4  9  1  0  0  0  0
  4 17  2  0  0  0  0
  5 19  1  0  0  0  0
  6 21  1  0  0  0  0
  7 10  2  0  0  0  0
  7 20  1  0  0  0  0
  8 27  1  0  0  0  0
  9 27  2  0  0  0  0
 10 28  1  0  0  0  0
 11 12  2  0  0  0  0
 11 29  1  0  0  0  0
 12 30  1  0  0  0  0
 13 22  1  0  0  0  0
 13 28  2  0  0  0  0
 14 23  1  0  0  0  0
 14 24  2  0  0  0  0
 15 25  1  0  0  0  0
 15 26  2  0  0  0  0
 16 30  2  0  0  0  0
 16 31  1  0  0  0  0
 17 32  1  0  0  0  0
 18 32  1  0  0  0  0
 18 33  2  0  0  0  0
 18 38  1  0  0  0  0
 19 21  2  0  0  0  0
 19 43  1  0  0  0  0
 20 22  2  0  0  0  0
 20 44  1  0  0  0  0
 21 52  1  0  0  0  0
 22 45  1  0  0  0  0
 23 25  2  0  0  0  0
 23 55  1  0  0  0  0
 24 26  1  0  0  0  0
 24 56  1  0  0  0  0
 25 69  1  0  0  0  0
 26 75  1  0  0  0  0
 27 87  1  0  0  0  0
 28 88  1  0  0  0  0
 29 31  2  0  0  0  0
 29 87  1  0  0  0  0
 30 89  1  0  0  0  0
 31 90  1  0  0  0  0
 32 67  2  0  0  0  0
 33 68  1  0  0  0  0
 33 73  1  0  0  0  0
 34 35  2  0  0  0  0
 34 69  1  0  0  0  0
 35 70  1  0  0  0  0
 35 79  1  0  0  0  0
 36 37  1  0  0  0  0
 36 69  1  0  0  0  0
 36 80  2  0  0  0  0
 37 70  1  0  0  0  0
 37 81  2  0  0  0  0
 38 74  1  0  0  0  0
 38 82  2  0  0  0  0
 39 53  1  0  0  0  0
 39 76  1  0  0  0  0
 39 83  2  0  0  0  0
 40 64  1  0  0  0  0
 40 71  1  0  0  0  0
 40 84  2  0  0  0  0
 41 65  1  0  0  0  0
 41 77  1  0  0  0  0
 41 85  2  0  0  0  0
 42 72  1  0  0  0  0
 42 75  1  0  0  0  0
 42 86  2  0  0  0  0
 43 46  1  0  0  0  0
 44 53  1  0  0  0  0
 45 71  1  0  0  0  0
 46 48  1  0  0  0  0
 47 49  1  0  0  0  0
 47 50  1  0  0  0  0
 48 52  1  0  0  0  0
 49 54  1  0  0  0  0
 50 72  1  0  0  0  0
 51 54  1  0  0  0  0
 51 72  1  0  0  0  0
 52 76  1  0  0  0  0
 53 71  1  0  0  0  0
 54 68  1  0  0  0  0
 57 65  1  0  0  0  0
 58 66  1  0  0  0  0
 59 66  1  0  0  0  0
 60 66  1  0  0  0  0
 61 78  1  0  0  0  0
 62 63  1  0  0  0  0
 62 70  1  0  0  0  0
 63 88  1  0  0  0  0
 64 66  1  0  0  0  0
 64 77  1  0  0  0  0
 65 78  1  0  0  0  0
 67 68  1  0  0  0  0
M  CHG  2  78   1  79  -1
M  ISO  4  42 100  63 101  75 100  88 101
M  END
> <Batch ID>
0059

> <Smiles>
CNC(C)C(=O)NC(C(=O)N1Cc2cc([101O:1][101CH2:1]CN3C(=O)CN(c4cc([100NH:0][100C:0](=O)N5CCCC(n6nc(-c7ccc(Oc8ccc(F)cc8F)cc7)c(C(N)=O)c6N)C5)c(C)cc4C)C(=O)C3=O)ccc2CC1C(=O)NC1CCCc2ccccc21)C(C)(C)C

> <Shape>
0.291

> <Color>
0.137

> <Negative vol penalty>
0.000

$$$$

  -OEChem-04042323013D

 87 96  0     1  0  0  0  0  0999 V2000
  -29.8177  -17.3672   13.6767 C   0  0  0  0  0  0  0  0  0  0  0  0
  -28.4750  -17.4113   14.0382 C   0  0  0  0  0  0  0  0  0  0  0  0
  -23.6339  -11.9558   20.5121 C   0  0  0  0  0  0  0  0  0  0  0  0
  -24.8621  -13.8215   21.4327 C   0  0  0  0  0  0  0  0  0  0  0  0
  -30.7959  -17.7767   14.5818 C   0  0  0  0  0  0  0  0  0  0  0  0
  -28.1099  -17.8639   15.3056 C   0  0  0  0  0  0  0  0  0  0  0  0
  -23.2516  -23.6298   17.3498 C   0  0  0  0  0  0  0  0  0  0  0  0
  -21.0114  -22.9124   24.9408 C   0  0  0  0  0  0  0  0  0  0  0  0
  -22.0207  -21.9516   25.0017 C   0  0  0  0  0  0  0  0  0  0  0  0
  -24.8271  -11.2535   20.3435 C   0  0  0  0  0  0  0  0  0  0  0  0
  -26.0554  -13.1191   21.2641 C   0  0  0  0  0  0  0  0  0  0  0  0
  -22.5378  -24.7266   17.8330 C   0  0  0  0  0  0  0  0  0  0  0  0
  -28.1802  -12.3878   18.7380 C   0  0  0  0  0  0  0  0  0  0  0  0
  -29.2641  -13.0738   18.1903 C   0  0  0  0  0  0  0  0  0  0  0  0
  -23.9292  -24.7747   19.8103 C   0  0  0  0  0  0  0  0  0  0  0  0
  -20.4589  -22.1902   22.7024 C   0  0  0  0  0  0  0  0  0  0  0  0
  -30.5462  -12.6469   20.1930 C   0  0  0  0  0  0  0  0  0  0  0  0
  -23.6514  -13.2399   21.0567 C   0  0  0  0  0  0  0  0  0  0  0  0
  -21.3106  -13.5852   22.0101 C   0  0  0  0  0  0  0  0  0  0  0  0
  -30.4420  -18.2436   15.8575 C   0  0  0  0  0  0  0  0  0  0  0  0
  -24.3182  -23.1102   18.0887 C   0  0  0  0  0  0  0  0  0  0  0  0
  -29.0844  -18.2788   16.2291 C   0  0  0  0  0  0  0  0  0  0  0  0
  -24.6559  -23.6840   19.3255 C   0  0  0  0  0  0  0  0  0  0  0  0
  -20.2305  -23.0317   23.7911 C   0  0  0  0  0  0  0  0  0  0  0  0
  -22.2491  -21.1101   23.9130 C   0  0  0  0  0  0  0  0  0  0  0  0
  -21.4683  -21.2294   22.7633 C   0  0  0  0  0  0  0  0  0  0  0  0
  -26.0379  -11.8351   20.7195 C   0  0  0  0  0  0  0  0  0  0  0  0
  -22.8756  -25.2975   19.0603 C   0  0  0  0  0  0  0  0  0  0  0  0
  -28.2792  -11.8314   20.0133 C   0  0  0  0  0  0  0  0  0  0  0  0
  -30.4472  -13.2033   18.9178 C   0  0  0  0  0  0  0  0  0  0  0  0
  -29.4622  -11.9609   20.7407 C   0  0  0  0  0  0  0  0  0  0  0  0
  -22.4192  -13.9662   21.2306 C   0  0  0  0  0  0  0  0  0  0  0  0
  -20.4068  -14.6060   21.8439 C   0  0  0  0  0  0  0  0  0  0  0  0
  -19.1984  -25.2088   21.5452 C   0  0  0  0  0  0  0  0  0  0  0  0
  -21.1152  -12.4133   22.8127 C   0  0  0  0  0  0  0  0  0  0  0  0
  -27.0515  -20.5505   18.3171 C   0  0  0  0  0  0  0  0  0  0  0  0
  -28.2152  -23.1918   19.3561 C   0  0  0  0  0  0  0  0  0  0  0  0
  -29.2348  -26.3771   20.0280 C   0  0  0  0  0  0  0  0  0  0  0  0
  -20.9885  -20.3846   20.4390 C   0  0  0  0  0  0  0  0  0  0  0  0
  -31.5379  -18.6310   16.8185 C   0  0  0  0  0  0  0  0  0  0  0  0
  -25.0756  -21.8915   17.6360 C   0  0  0  0  0  0  0  0  0  0  0  0
  -25.7885  -23.0701   20.1022 C   0  0  0  0  0  0  0  0  0  0  0  0
  -19.5489  -26.4593   20.7599 C   0  0  0  0  0  0  0  0  0  0  0  0
  -31.0436  -19.4507   18.0077 C   0  0  0  0  0  0  0  0  0  0  0  0
  -19.0729  -17.9492   18.6851 C   0  0  0  0  0  0  0  0  0  0  0  0
  -29.7907  -18.8198   18.6070 C   0  0  0  0  0  0  0  0  0  0  0  0
  -19.6085  -16.6168   19.2142 C   0  0  0  0  0  0  0  0  0  0  0  0
  -20.5830  -27.4754   22.7644 C   0  0  0  0  0  0  0  0  0  0  0  0
  -20.1814  -18.9912   18.5464 C   0  0  0  0  0  0  0  0  0  0  0  0
  -20.4201  -26.1735   23.5287 C   0  0  0  0  0  0  0  0  0  0  0  0
  -21.5223  -17.8733   20.2847 C   0  0  0  0  0  0  0  0  0  0  0  0
  -28.6471  -18.7869   17.5858 C   0  0  1  0  0  0  0  0  0  0  0  0
  -26.5688  -21.9368   18.0067 C   0  0  1  0  0  0  0  0  0  0  0  0
  -20.7597  -27.2286   21.2714 C   0  0  1  0  0  0  0  0  0  0  0  0
  -20.4314  -16.8121   20.5028 C   0  0  2  0  0  0  0  0  0  0  0  0
  -23.3377  -20.0906   24.0059 C   0  0  0  0  0  0  0  0  0  0  0  0
  -31.2465  -27.6893   20.7552 C   0  0  0  0  0  0  0  0  0  0  0  0
  -27.8103  -22.2193   22.2187 C   0  0  0  0  0  0  0  0  0  0  0  0
  -29.1329  -24.1955   23.0019 C   0  0  0  0  0  0  0  0  0  0  0  0
  -30.2013  -22.4840   21.5349 C   0  0  0  0  0  0  0  0  0  0  0  0
  -29.2595  -27.9496   17.5209 C   0  0  0  0  0  0  0  0  0  0  0  0
  -19.1442  -24.0661   23.7265 C   0  0  0  0  0  0  0  0  0  0  0  0
  -22.0703  -26.5124   20.9400 C   0  0  0  0  0  0  0  0  0  1  0  0
  -28.4939  -24.0680   20.5511 C   0  0  1  0  0  0  0  0  0  0  0  0
  -30.4502  -27.1634   19.5710 C   0  0  2  0  0  0  0  0  0  0  0  0
  -28.8863  -23.2453   21.8107 C   0  0  0  0  0  0  0  0  0  0  0  0
  -22.2383  -15.1376   20.6148 N   0  0  0  0  0  0  0  0  0  0  0  0
  -21.0056  -15.5014   21.0072 N   0  0  0  0  0  0  0  0  0  0  0  0
  -19.5235  -25.2042   22.8997 N   0  0  0  0  0  0  0  0  0  0  0  0
  -26.8993  -22.7411   19.1953 N   0  0  0  0  0  0  0  0  0  0  0  0
  -20.9153  -19.1254   19.8067 N   0  0  0  0  0  0  0  0  0  0  0  0
  -19.1663  -14.8160   22.3331 N   0  0  0  0  0  0  0  0  0  0  0  0
  -21.5061  -12.4521   24.1581 N   0  0  0  0  0  0  0  0  0  0  0  0
  -21.6845  -20.3834   21.6474 N   0  0  0  0  0  0  0  0  0  0  0  0
  -28.0395  -20.0948   17.4652 N   0  0  0  0  0  0  0  0  0  0  0  0
  -29.5061  -25.0287   20.1257 N   0  0  0  0  0  0  0  0  0  0  0  0
  -30.0320  -28.3231   18.7336 N   0  3  0  0  0  0  0  0  0  0  0  0
  -18.5819  -24.3019   20.9789 O   0  0  0  0  0  0  0  0  0  0  0  0
  -20.6241  -11.3574   22.3464 O   0  0  0  0  0  0  0  0  0  0  0  0
  -26.5652  -19.9385   19.2609 O   0  0  0  0  0  0  0  0  0  0  0  0
  -29.1385  -22.9083   18.5877 O   0  0  0  0  0  0  0  0  0  0  0  0
  -28.1541  -26.9065   20.2773 O   0  0  0  0  0  0  0  0  0  0  0  0
  -20.4486  -21.3845   19.9585 O   0  0  0  0  0  0  0  0  0  0  0  0
  -27.2024  -11.1499   20.5553 O   0  0  0  0  0  0  0  0  0  0  0  0
  -22.1774  -26.3709   19.5240 O   0  0  0  0  0  0  0  0  0  1  0  0
  -31.4886  -13.8608   18.3911 F   0  0  0  0  0  0  0  0  0  0  0  0
  -29.5637  -11.4274   21.9659 F   0  0  0  0  0  0  0  0  0  0  0  0
  1  2  1  0  0  0  0
  1  5  2  0  0  0  0
  2  6  2  0  0  0  0
  3 10  2  0  0  0  0
  3 18  1  0  0  0  0
  4 11  1  0  0  0  0
  4 18  2  0  0  0  0
  5 20  1  0  0  0  0
  6 22  1  0  0  0  0
  7 12  2  0  0  0  0
  7 21  1  0  0  0  0
  8  9  2  0  0  0  0
  8 24  1  0  0  0  0
  9 25  1  0  0  0  0
 10 27  1  0  0  0  0
 11 27  2  0  0  0  0
 12 28  1  0  0  0  0
 13 14  2  0  0  0  0
 13 29  1  0  0  0  0
 14 30  1  0  0  0  0
 15 23  1  0  0  0  0
 15 28  2  0  0  0  0
 16 24  2  0  0  0  0
 16 26  1  0  0  0  0
 17 30  2  0  0  0  0
 17 31  1  0  0  0  0
 18 32  1  0  0  0  0
 19 32  1  0  0  0  0
 19 33  2  0  0  0  0
 19 35  1  0  0  0  0
 20 22  2  0  0  0  0
 20 40  1  0  0  0  0
 21 23  2  0  0  0  0
 21 41  1  0  0  0  0
 22 52  1  0  0  0  0
 23 42  1  0  0  0  0
 24 62  1  0  0  0  0
 25 26  2  0  0  0  0
 25 56  1  0  0  0  0
 26 74  1  0  0  0  0
 27 84  1  0  0  0  0
 28 85  1  0  0  0  0
 29 31  2  0  0  0  0
 29 84  1  0  0  0  0
 30 86  1  0  0  0  0
 31 87  1  0  0  0  0
 32 67  2  0  0  0  0
 33 68  1  0  0  0  0
 33 72  1  0  0  0  0
 34 43  1  0  0  0  0
 34 69  1  0  0  0  0
 34 78  2  0  0  0  0
 35 73  1  0  0  0  0
 35 79  2  0  0  0  0
 36 53  1  0  0  0  0
 36 75  1  0  0  0  0
 36 80  2  0  0  0  0
 37 64  1  0  0  0  0
 37 70  1  0  0  0  0
 37 81  2  0  0  0  0
 38 65  1  0  0  0  0
 38 76  1  0  0  0  0
 38 82  2  0  0  0  0
 39 71  1  0  0  0  0
 39 74  1  0  0  0  0
 39 83  2  0  0  0  0
 40 44  1  0  0  0  0
 41 53  1  0  0  0  0
 42 70  1  0  0  0  0
 43 54  1  0  0  0  0
 44 46  1  0  0  0  0
 45 47  1  0  0  0  0
 45 49  1  0  0  0  0
 46 52  1  0  0  0  0
 47 55  1  0  0  0  0
 48 50  1  0  0  0  0
 48 54  1  0  0  0  0
 49 71  1  0  0  0  0
 50 69  1  0  0  0  0
 51 55  1  0  0  0  0
 51 71  1  0  0  0  0
 52 75  1  0  0  0  0
 53 70  1  0  0  0  0
 54 63  1  0  0  0  0
 55 68  1  0  0  0  0
 57 65  1  0  0  0  0
 58 66  1  0  0  0  0
 59 66  1  0  0  0  0
 60 66  1  0  0  0  0
 61 77  1  0  0  0  0
 62 69  1  0  0  0  0
 63 85  1  0  0  0  0
 64 66  1  0  0  0  0
 64 76  1  0  0  0  0
 65 77  1  0  0  0  0
 67 68  1  0  0  0  0
M  CHG  1  77   1
M  ISO  4  39 100  63 101  74 100  85 101
M  END
> <Batch ID>
0059

> <Smiles>
CNC(C)C(=O)NC(C(=O)N1Cc2cc([101O:1][101CH2:1]C3CCN(Cc4ccc(C)c([100NH:0][100C:0](=O)N5CCCC(n6nc(-c7ccc(Oc8ccc(F)cc8F)cc7)c(C(N)=O)c6N)C5)c4)C(=O)C3)ccc2CC1C(=O)NC1CCCc2ccccc21)C(C)(C)C

> <Shape>
0.184

> <Color>
0.084

> <Negative vol penalty>
0.000

$$$$

  -OEChem-04042323013D

 83 91  0     1  0  0  0  0  0999 V2000
  -25.4279  -28.1041   16.4735 C   0  0  0  0  0  0  0  0  0  0  0  0
  -25.4004  -26.7948   16.9428 C   0  0  0  0  0  0  0  0  0  0  0  0
  -24.6179  -11.3095   21.1439 C   0  0  0  0  0  0  0  0  0  0  0  0
  -25.9125  -10.8521   20.8980 C   0  0  0  0  0  0  0  0  0  0  0  0
  -31.0889  -21.9871   21.2776 C   0  0  0  0  0  0  0  0  0  0  0  0
  -28.9252  -21.8295   20.2144 C   0  0  0  0  0  0  0  0  0  0  0  0
  -25.7190  -29.1507   17.3475 C   0  0  0  0  0  0  0  0  0  0  0  0
  -25.6651  -26.5312   18.2863 C   0  0  0  0  0  0  0  0  0  0  0  0
  -22.3938  -23.2313   20.2998 C   0  0  0  0  0  0  0  0  0  0  0  0
  -24.2892  -12.6415   20.8920 C   0  0  0  0  0  0  0  0  0  0  0  0
  -26.8784  -11.7267   20.4004 C   0  0  0  0  0  0  0  0  0  0  0  0
  -31.2510  -23.2712   20.7574 C   0  0  0  0  0  0  0  0  0  0  0  0
  -29.0872  -23.1136   19.6943 C   0  0  0  0  0  0  0  0  0  0  0  0
  -22.5870  -21.8825   20.0045 C   0  0  0  0  0  0  0  0  0  0  0  0
  -30.1763  -26.3985   21.4628 C   0  0  0  0  0  0  0  0  0  0  0  0
  -30.6567  -27.3890   22.3194 C   0  0  0  0  0  0  0  0  0  0  0  0
  -23.6494  -21.5717   22.1478 C   0  0  0  0  0  0  0  0  0  0  0  0
  -32.5576  -27.7237   20.8661 C   0  0  0  0  0  0  0  0  0  0  0  0
  -29.9260  -21.2663   21.0060 C   0  0  0  0  0  0  0  0  0  0  0  0
  -29.1776  -19.5886   22.7761 C   0  0  0  0  0  0  0  0  0  0  0  0
  -25.9780  -28.9007   18.7043 C   0  0  0  0  0  0  0  0  0  0  0  0
  -22.8375  -23.7637   21.5189 C   0  0  0  0  0  0  0  0  0  0  0  0
  -25.9613  -27.5753   19.1789 C   0  0  0  0  0  0  0  0  0  0  0  0
  -23.4584  -22.9270   22.4572 C   0  0  0  0  0  0  0  0  0  0  0  0
  -25.2552  -13.5161   20.3945 C   0  0  0  0  0  0  0  0  0  0  0  0
  -26.5498  -13.0588   20.1486 C   0  0  0  0  0  0  0  0  0  0  0  0
  -30.2502  -23.8344   19.9658 C   0  0  0  0  0  0  0  0  0  0  0  0
  -23.2174  -21.0531   20.9274 C   0  0  0  0  0  0  0  0  0  0  0  0
  -30.8866  -26.0705   20.3080 C   0  0  0  0  0  0  0  0  0  0  0  0
  -31.8473  -28.0517   22.0210 C   0  0  0  0  0  0  0  0  0  0  0  0
  -32.0772  -26.7331   20.0096 C   0  0  0  0  0  0  0  0  0  0  0  0
  -29.7583  -19.9396   21.5426 C   0  0  0  0  0  0  0  0  0  0  0  0
  -29.2572  -18.2180   22.8154 C   0  0  0  0  0  0  0  0  0  0  0  0
  -28.6163  -20.4266   23.7951 C   0  0  0  0  0  0  0  0  0  0  0  0
  -24.9352  -25.9991   22.3594 C   0  0  0  0  0  0  0  0  0  0  0  0
  -23.7576  -25.4355   25.3289 C   0  0  0  0  0  0  0  0  0  0  0  0
  -23.6554  -15.4605   20.3417 C   0  0  0  0  0  0  0  0  0  0  0  0
  -22.1867  -23.2844   27.4625 C   0  0  0  0  0  0  0  0  0  0  0  0
  -28.8749  -13.6116   19.3521 C   0  0  0  0  0  0  0  0  0  0  0  0
  -26.3343  -30.0599   19.6009 C   0  0  0  0  0  0  0  0  0  0  0  0
  -22.5976  -25.2149   21.8333 C   0  0  0  0  0  0  0  0  0  0  0  0
  -23.9350  -23.4450   23.7887 C   0  0  0  0  0  0  0  0  0  0  0  0
  -26.2348  -29.7324   21.0886 C   0  0  0  0  0  0  0  0  0  0  0  0
  -32.0177  -14.8199   20.5098 C   0  0  0  0  0  0  0  0  0  0  0  0
  -26.9075  -28.3963   21.3872 C   0  0  0  0  0  0  0  0  0  0  0  0
  -31.7004  -16.2292   21.0153 C   0  0  0  0  0  0  0  0  0  0  0  0
  -31.2060  -14.4680   19.2644 C   0  0  0  0  0  0  0  0  0  0  0  0
  -29.4377  -16.0603   19.9022 C   0  0  0  0  0  0  0  0  0  0  0  0
  -26.2187  -27.2515   20.6346 C   0  0  1  0  0  0  0  0  0  0  0  0
  -23.5502  -25.7623   22.8918 C   0  0  1  0  0  0  0  0  0  0  0  0
  -30.1834  -16.4358   21.1932 C   0  0  2  0  0  0  0  0  0  0  0  0
  -21.3963  -23.0910   29.8364 C   0  0  0  0  0  0  0  0  0  0  0  0
  -26.6319  -24.9806   26.2463 C   0  0  0  0  0  0  0  0  0  0  0  0
  -25.7269  -23.8878   28.3091 C   0  0  0  0  0  0  0  0  0  0  0  0
  -25.2205  -26.2861   27.8458 C   0  0  0  0  0  0  0  0  0  0  0  0
  -19.3696  -22.9492   26.6195 C   0  0  0  0  0  0  0  0  0  0  0  0
  -23.7030  -16.9305   19.9485 C   0  0  0  0  0  0  0  0  0  0  0  0
  -22.3643  -17.6341   20.1430 C   0  0  0  0  0  0  0  0  0  0  0  0
  -22.4491  -19.1116   19.7888 C   0  0  0  0  0  0  0  0  0  1  0  0
  -24.1052  -24.4928   26.4557 C   0  0  1  0  0  0  0  0  0  0  0  0
  -21.0216  -23.4823   28.4154 C   0  0  2  0  0  0  0  0  0  0  0  0
  -25.4140  -24.9022   27.1884 C   0  0  0  0  0  0  0  0  0  0  0  0
  -30.1761  -18.8776   20.8486 N   0  0  0  0  0  0  0  0  0  0  0  0
  -29.8576  -17.8459   21.6488 N   0  0  0  0  0  0  0  0  0  0  0  0
  -23.6831  -24.8724   24.0470 N   0  0  0  0  0  0  0  0  0  0  0  0
  -29.7782  -14.6841   19.5086 N   0  0  0  0  0  0  0  0  0  0  0  0
  -28.8715  -17.3069   23.7339 N   0  0  0  0  0  0  0  0  0  0  0  0
  -28.6150  -21.8137   23.5938 N   0  0  0  0  0  0  0  0  0  0  0  0
  -24.8975  -14.8628   20.1470 N   0  0  0  0  0  0  0  0  0  0  0  0
  -27.5484  -13.9278   19.6433 N   0  0  0  0  0  0  0  0  0  0  0  0
  -24.9863  -26.8808   21.2967 N   0  0  0  0  0  0  0  0  0  0  0  0
  -22.9299  -24.4369   27.3183 N   0  0  0  0  0  0  0  0  0  0  0  0
  -19.8585  -22.6530   27.9907 N   0  3  0  0  0  0  0  0  0  0  0  0
  -28.1452  -19.9604   24.8601 O   0  0  0  0  0  0  0  0  0  0  0  0
  -25.8871  -25.4255   22.8756 O   0  0  0  0  0  0  0  0  0  0  0  0
  -23.5524  -26.6260   25.5780 O   0  0  0  0  0  0  0  0  0  0  0  0
  -22.6326  -14.9325   20.7653 O   0  0  0  0  0  0  0  0  0  0  0  0
  -22.4168  -22.2136   26.9050 O   0  0  0  0  0  0  0  0  0  0  0  0
  -29.2544  -12.4877   19.0129 O   0  0  0  0  0  0  0  0  0  0  0  0
  -30.4079  -25.0874   19.4582 O   0  0  0  0  0  0  0  0  0  0  0  0
  -23.4078  -19.7363   20.6414 O   0  0  0  0  0  0  0  0  0  1  0  0
  -32.3078  -29.0039   22.8428 F   0  0  0  0  0  0  0  0  0  0  0  0
  -32.7632  -26.4232   18.9010 F   0  0  0  0  0  0  0  0  0  0  0  0
  1  2  1  0  0  0  0
  1  7  2  0  0  0  0
  2  8  2  0  0  0  0
  3  4  1  0  0  0  0
  3 10  2  0  0  0  0
  4 11  2  0  0  0  0
  5 12  2  0  0  0  0
  5 19  1  0  0  0  0
  6 13  1  0  0  0  0
  6 19  2  0  0  0  0
  7 21  1  0  0  0  0
  8 23  1  0  0  0  0
  9 14  2  0  0  0  0
  9 22  1  0  0  0  0
 10 25  1  0  0  0  0
 11 26  1  0  0  0  0
 12 27  1  0  0  0  0
 13 27  2  0  0  0  0
 14 28  1  0  0  0  0
 15 16  2  0  0  0  0
 15 29  1  0  0  0  0
 16 30  1  0  0  0  0
 17 24  1  0  0  0  0
 17 28  2  0  0  0  0
 18 30  2  0  0  0  0
 18 31  1  0  0  0  0
 19 32  1  0  0  0  0
 20 32  1  0  0  0  0
 20 33  2  0  0  0  0
 20 34  1  0  0  0  0
 21 23  2  0  0  0  0
 21 40  1  0  0  0  0
 22 24  2  0  0  0  0
 22 41  1  0  0  0  0
 23 49  1  0  0  0  0
 24 42  1  0  0  0  0
 25 26  2  0  0  0  0
 25 69  1  0  0  0  0
 26 70  1  0  0  0  0
 27 80  1  0  0  0  0
 28 81  1  0  0  0  0
 29 31  2  0  0  0  0
 29 80  1  0  0  0  0
 30 82  1  0  0  0  0
 31 83  1  0  0  0  0
 32 63  2  0  0  0  0
 33 64  1  0  0  0  0
 33 67  1  0  0  0  0
 34 68  1  0  0  0  0
 34 74  2  0  0  0  0
 35 50  1  0  0  0  0
 35 71  1  0  0  0  0
 35 75  2  0  0  0  0
 36 60  1  0  0  0  0
 36 65  1  0  0  0  0
 36 76  2  0  0  0  0
 37 57  1  0  0  0  0
 37 69  1  0  0  0  0
 37 77  2  0  0  0  0
 38 61  1  0  0  0  0
 38 72  1  0  0  0  0
 38 78  2  0  0  0  0
 39 66  1  0  0  0  0
 39 70  1  0  0  0  0
 39 79  2  0  0  0  0
 40 43  1  0  0  0  0
 41 50  1  0  0  0  0
 42 65  1  0  0  0  0
 43 45  1  0  0  0  0
 44 46  1  0  0  0  0
 44 47  1  0  0  0  0
 45 49  1  0  0  0  0
 46 51  1  0  0  0  0
 47 66  1  0  0  0  0
 48 51  1  0  0  0  0
 48 66  1  0  0  0  0
 49 71  1  0  0  0  0
 50 65  1  0  0  0  0
 51 64  1  0  0  0  0
 52 61  1  0  0  0  0
 53 62  1  0  0  0  0
 54 62  1  0  0  0  0
 55 62  1  0  0  0  0
 56 73  1  0  0  0  0
 57 58  1  0  0  0  0
 58 59  1  0  0  0  0
 59 81  1  0  0  0  0
 60 62  1  0  0  0  0
 60 72  1  0  0  0  0
 61 73  1  0  0  0  0
 63 64  1  0  0  0  0
M  CHG  1  73   1
M  ISO  4  39 100  59 101  70 100  81 101
M  END
> <Batch ID>
0059

> <Smiles>
CNC(C)C(=O)NC(C(=O)N1Cc2cc([101O:1][101CH2:1]CCC(=O)Nc3ccccc3[100NH:0][100C:0](=O)N3CCCC(n4nc(-c5ccc(Oc6ccc(F)cc6F)cc5)c(C(N)=O)c4N)C3)ccc2CC1C(=O)NC1CCCc2ccccc21)C(C)(C)C

> <Shape>
0.184

> <Color>
0.076

> <Negative vol penalty>
0.000

$$$$

  -OEChem-04042323013D

 85 93  0     1  0  0  0  0  0999 V2000
  -26.7453  -37.7437   22.2485 C   0  0  0  0  0  0  0  0  0  0  0  0
  -27.3634  -36.5888   21.7799 C   0  0  0  0  0  0  0  0  0  0  0  0
  -26.8664  -10.1560   20.7711 C   0  0  0  0  0  0  0  0  0  0  0  0
  -25.9223  -11.1970   18.8059 C   0  0  0  0  0  0  0  0  0  0  0  0
  -25.7560  -37.6556   23.2269 C   0  0  0  0  0  0  0  0  0  0  0  0
  -26.9932  -35.3451   22.2904 C   0  0  0  0  0  0  0  0  0  0  0  0
  -26.7670  -30.0355   19.2467 C   0  0  0  0  0  0  0  0  0  0  0  0
  -32.4244  -19.1744   15.2032 C   0  0  0  0  0  0  0  0  0  0  0  0
  -32.0127  -18.3530   16.2527 C   0  0  0  0  0  0  0  0  0  0  0  0
  -25.7756   -9.2892   20.8360 C   0  0  0  0  0  0  0  0  0  0  0  0
  -24.8314  -10.3301   18.8708 C   0  0  0  0  0  0  0  0  0  0  0  0
  -27.6562  -28.9652   19.1605 C   0  0  0  0  0  0  0  0  0  0  0  0
  -24.1472   -7.1243   18.0492 C   0  0  0  0  0  0  0  0  0  0  0  0
  -23.7249   -6.5265   16.8618 C   0  0  0  0  0  0  0  0  0  0  0  0
  -26.4313  -27.8159   20.8919 C   0  0  0  0  0  0  0  0  0  0  0  0
  -31.2704  -20.2959   17.4820 C   0  0  0  0  0  0  0  0  0  0  0  0
  -21.5532   -7.5541   17.1169 C   0  0  0  0  0  0  0  0  0  0  0  0
  -26.9398  -11.1100   19.7560 C   0  0  0  0  0  0  0  0  0  0  0  0
  -29.2758  -11.8007   18.9986 C   0  0  0  0  0  0  0  0  0  0  0  0
  -25.3667  -36.4094   23.7427 C   0  0  0  0  0  0  0  0  0  0  0  0
  -25.7078  -30.0088   20.1654 C   0  0  0  0  0  0  0  0  0  0  0  0
  -25.9986  -35.2403   23.2776 C   0  0  0  0  0  0  0  0  0  0  0  0
  -25.5285  -28.8861   20.9861 C   0  0  0  0  0  0  0  0  0  0  0  0
  -32.2592  -20.5565   15.2932 C   0  0  0  0  0  0  0  0  0  0  0  0
  -31.4356  -18.9137   17.3921 C   0  0  0  0  0  0  0  0  0  0  0  0
  -24.7581   -9.3762   19.8858 C   0  0  0  0  0  0  0  0  0  0  0  0
  -27.4901  -27.8564   19.9851 C   0  0  0  0  0  0  0  0  0  0  0  0
  -23.2725   -7.9369   18.7705 C   0  0  0  0  0  0  0  0  0  0  0  0
  -22.4279   -6.7414   16.3956 C   0  0  0  0  0  0  0  0  0  0  0  0
  -21.9756   -8.1519   18.3043 C   0  0  0  0  0  0  0  0  0  0  0  0
  -31.6822  -21.1172   16.4326 C   0  0  0  0  0  0  0  0  0  0  0  0
  -28.0661  -12.0060   19.6888 C   0  0  0  0  0  0  0  0  0  0  0  0
  -30.0092  -12.9352   19.2462 C   0  0  0  0  0  0  0  0  0  0  0  0
  -29.2258  -25.0991   18.5054 C   0  0  0  0  0  0  0  0  0  0  0  0
  -30.4448  -24.5797   18.2985 C   0  0  0  0  0  0  0  0  0  0  0  0
  -29.6986  -10.6842   18.2046 C   0  0  0  0  0  0  0  0  0  0  0  0
  -24.8647  -31.7767   22.6688 C   0  0  0  0  0  0  0  0  0  0  0  0
  -22.2170  -29.9036   22.6069 C   0  0  0  0  0  0  0  0  0  0  0  0
  -20.7812  -26.9461   21.6914 C   0  0  0  0  0  0  0  0  0  0  0  0
  -30.4265  -18.4724   19.6577 C   0  0  0  0  0  0  0  0  0  0  0  0
  -24.3258  -36.3682   24.8334 C   0  0  0  0  0  0  0  0  0  0  0  0
  -24.7416  -31.1598   20.2274 C   0  0  0  0  0  0  0  0  0  0  0  0
  -24.3957  -28.7994   21.9748 C   0  0  0  0  0  0  0  0  0  0  0  0
  -23.7276  -34.9810   25.0524 C   0  0  0  0  0  0  0  0  0  0  0  0
  -29.2196  -16.7205   22.5128 C   0  0  0  0  0  0  0  0  0  0  0  0
  -24.8292  -33.9274   25.1092 C   0  0  0  0  0  0  0  0  0  0  0  0
  -28.9114  -15.3209   21.9758 C   0  0  0  0  0  0  0  0  0  0  0  0
  -28.8867  -17.8060   21.4908 C   0  0  0  0  0  0  0  0  0  0  0  0
  -29.1855  -16.2197   19.6297 C   0  0  0  0  0  0  0  0  0  0  0  0
  -25.6070  -33.8709   23.7888 C   0  0  1  0  0  0  0  0  0  0  0  0
  -24.0015  -31.2476   21.5586 C   0  0  1  0  0  0  0  0  0  0  0  0
  -29.5652  -15.0887   20.5995 C   0  0  2  0  0  0  0  0  0  0  0  0
  -32.7103  -21.4076   14.1515 C   0  0  0  0  0  0  0  0  0  0  0  0
  -18.6128  -25.6887   21.8111 C   0  0  0  0  0  0  0  0  0  0  0  0
  -22.7492  -29.2703   25.5438 C   0  0  0  0  0  0  0  0  0  0  0  0
  -21.1750  -27.3342   25.3394 C   0  0  0  0  0  0  0  0  0  0  0  0
  -20.3439  -29.6586   24.9796 C   0  0  0  0  0  0  0  0  0  0  0  0
  -20.5455  -26.8412   18.7432 C   0  0  0  0  0  0  0  0  0  0  0  0
  -28.9585  -26.5633   18.6333 C   0  0  0  0  0  0  0  0  0  1  0  0
  -30.7043  -23.1185   18.1544 C   0  0  0  0  0  0  0  0  0  0  0  0
  -21.8240  -28.5870   23.2323 C   0  0  1  0  0  0  0  0  0  0  0  0
  -19.4715  -26.6371   20.9889 C   0  0  2  0  0  0  0  0  0  0  0  0
  -21.5456  -28.7147   24.7566 C   0  0  0  0  0  0  0  0  0  0  0  0
  -28.0293  -13.1787   20.3271 N   0  0  0  0  0  0  0  0  0  0  0  0
  -30.4124  -23.2378   15.4974 N   0  0  0  0  0  0  0  0  0  0  0  0
  -29.2250  -13.7205   20.0391 N   0  0  0  0  0  0  0  0  0  0  0  0
  -23.4811  -29.9528   22.0024 N   0  0  0  0  0  0  0  0  0  0  0  0
  -29.5439  -17.5220   20.2132 N   0  0  0  0  0  0  0  0  0  0  0  0
  -31.2421  -13.3278   18.8610 N   0  0  0  0  0  0  0  0  0  0  0  0
  -28.8215   -9.6016   18.0534 N   0  0  0  0  0  0  0  0  0  0  0  0
  -31.0169  -18.0785   18.4574 N   0  0  0  0  0  0  0  0  0  0  0  0
  -24.8491  -33.1535   22.7861 N   0  0  0  0  0  0  0  0  0  0  0  0
  -20.6924  -28.0889   22.4578 N   0  0  0  0  0  0  0  0  0  0  0  0
  -19.7307  -26.0070   19.6635 N   0  3  0  0  0  0  0  0  0  0  0  0
  -30.8274  -10.6407   17.6593 O   0  0  0  0  0  0  0  0  0  0  0  0
  -25.4967  -30.9938   23.3682 O   0  0  0  0  0  0  0  0  0  0  0  0
  -21.4285  -30.8514   22.6468 O   0  0  0  0  0  0  0  0  0  0  0  0
  -21.7818  -26.2419   21.5751 O   0  0  0  0  0  0  0  0  0  0  0  0
  -30.6635  -19.5444   20.2203 O   0  0  0  0  0  0  0  0  0  0  0  0
  -32.7887  -23.4484   16.6860 O   0  0  0  0  0  0  0  0  0  0  0  0
  -23.6936   -8.5303   19.9487 O   0  0  0  0  0  0  0  0  0  0  0  0
  -28.3570  -26.8106   19.9035 O   0  0  0  0  0  0  0  0  0  1  0  0
  -22.0230   -6.1686   15.2546 F   0  0  0  0  0  0  0  0  0  0  0  0
  -21.1311   -8.9325   18.9923 F   0  0  0  0  0  0  0  0  0  0  0  0
  -31.4557  -22.8717   16.5797 S   0  0  2  0  0  0  0  0  0  0  0  0
  1  2  1  0  0  0  0
  1  5  2  0  0  0  0
  2  6  2  0  0  0  0
  3 10  2  0  0  0  0
  3 18  1  0  0  0  0
  4 11  1  0  0  0  0
  4 18  2  0  0  0  0
  5 20  1  0  0  0  0
  6 22  1  0  0  0  0
  7 12  2  0  0  0  0
  7 21  1  0  0  0  0
  8  9  2  0  0  0  0
  8 24  1  0  0  0  0
  9 25  1  0  0  0  0
 10 26  1  0  0  0  0
 11 26  2  0  0  0  0
 12 27  1  0  0  0  0
 13 14  2  0  0  0  0
 13 28  1  0  0  0  0
 14 29  1  0  0  0  0
 15 23  1  0  0  0  0
 15 27  2  0  0  0  0
 16 25  2  0  0  0  0
 16 31  1  0  0  0  0
 17 29  2  0  0  0  0
 17 30  1  0  0  0  0
 18 32  1  0  0  0  0
 19 32  1  0  0  0  0
 19 33  2  0  0  0  0
 19 36  1  0  0  0  0
 20 22  2  0  0  0  0
 20 41  1  0  0  0  0
 21 23  2  0  0  0  0
 21 42  1  0  0  0  0
 22 50  1  0  0  0  0
 23 43  1  0  0  0  0
 24 31  2  0  0  0  0
 24 53  1  0  0  0  0
 25 71  1  0  0  0  0
 26 81  1  0  0  0  0
 27 82  1  0  0  0  0
 28 30  2  0  0  0  0
 28 81  1  0  0  0  0
 29 83  1  0  0  0  0
 30 84  1  0  0  0  0
 31 85  1  0  0  0  0
 32 64  2  0  0  0  0
 33 66  1  0  0  0  0
 33 69  1  0  0  0  0
 34 35  2  0  0  0  0
 34 59  1  0  0  0  0
 35 60  1  0  0  0  0
 36 70  1  0  0  0  0
 36 75  2  0  0  0  0
 37 51  1  0  0  0  0
 37 72  1  0  0  0  0
 37 76  2  0  0  0  0
 38 61  1  0  0  0  0
 38 67  1  0  0  0  0
 38 77  2  0  0  0  0
 39 62  1  0  0  0  0
 39 73  1  0  0  0  0
 39 78  2  0  0  0  0
 40 68  1  0  0  0  0
 40 71  1  0  0  0  0
 40 79  2  0  0  0  0
 41 44  1  0  0  0  0
 42 51  1  0  0  0  0
 43 67  1  0  0  0  0
 44 46  1  0  0  0  0
 45 47  1  0  0  0  0
 45 48  1  0  0  0  0
 46 50  1  0  0  0  0
 47 52  1  0  0  0  0
 48 68  1  0  0  0  0
 49 52  1  0  0  0  0
 49 68  1  0  0  0  0
 50 72  1  0  0  0  0
 51 67  1  0  0  0  0
 52 66  1  0  0  0  0
 54 62  1  0  0  0  0
 55 63  1  0  0  0  0
 56 63  1  0  0  0  0
 57 63  1  0  0  0  0
 58 74  1  0  0  0  0
 59 82  1  0  0  0  0
 60 85  1  0  0  0  0
 61 63  1  0  0  0  0
 61 73  1  0  0  0  0
 62 74  1  0  0  0  0
 64 66  1  0  0  0  0
 65 85  2  0  0  0  0
 80 85  2  0  0  0  0
M  CHG  1  74   1
M  ISO  4  40 100  59 101  71 100  82 101
M  END
> <Batch ID>
0059

> <Smiles>
CNC(C)C(=O)NC(C(=O)N1Cc2cc([101O:1][101CH2:1]C=CCS(=N)(=O)c3cc([100NH:0][100C:0](=O)N4CCCC(n5nc(-c6ccc(Oc7ccc(F)cc7F)cc6)c(C(N)=O)c5N)C4)ccc3C)ccc2CC1C(=O)NC1CCCc2ccccc21)C(C)(C)C

> <Shape>
0.291

> <Color>
0.072

> <Negative vol penalty>
0.000

$$$$

  -OEChem-04042323013D

 85 93  0     1  0  0  0  0  0999 V2000
  -26.7908  -34.2957   25.5316 C   0  0  0  0  0  0  0  0  0  0  0  0
  -27.2077  -33.1072   24.9408 C   0  0  0  0  0  0  0  0  0  0  0  0
  -26.4504  -11.6228   21.2376 C   0  0  0  0  0  0  0  0  0  0  0  0
  -25.6521  -13.2004   19.5911 C   0  0  0  0  0  0  0  0  0  0  0  0
  -25.4640  -34.4453   25.9331 C   0  0  0  0  0  0  0  0  0  0  0  0
  -26.2983  -32.0672   24.7521 C   0  0  0  0  0  0  0  0  0  0  0  0
  -26.6657  -29.9752   20.1550 C   0  0  0  0  0  0  0  0  0  0  0  0
  -25.1341  -11.2889   21.5559 C   0  0  0  0  0  0  0  0  0  0  0  0
  -24.3357  -12.8664   19.9094 C   0  0  0  0  0  0  0  0  0  0  0  0
  -27.7172  -29.0846   19.9429 C   0  0  0  0  0  0  0  0  0  0  0  0
  -21.9894   -9.7592   22.5487 C   0  0  0  0  0  0  0  0  0  0  0  0
  -21.6786   -8.4064   22.6862 C   0  0  0  0  0  0  0  0  0  0  0  0
  -26.2042  -27.2325   20.2590 C   0  0  0  0  0  0  0  0  0  0  0  0
  -29.4066  -20.3039   18.3204 C   0  0  0  0  0  0  0  0  0  0  0  0
  -30.6169  -21.2489   20.1857 C   0  0  0  0  0  0  0  0  0  0  0  0
  -22.3560   -8.0184   20.3997 C   0  0  0  0  0  0  0  0  0  0  0  0
  -26.7094  -12.5786   20.2551 C   0  0  0  0  0  0  0  0  0  0  0  0
  -29.3512  -22.6870   18.7137 C   0  0  0  0  0  0  0  0  0  0  0  0
  -28.8874  -12.3221   18.9520 C   0  0  0  0  0  0  0  0  0  0  0  0
  -24.5356  -33.4102   25.7405 C   0  0  0  0  0  0  0  0  0  0  0  0
  -25.3756  -29.5004   20.4319 C   0  0  0  0  0  0  0  0  0  0  0  0
  -24.9582  -32.2026   25.1527 C   0  0  0  0  0  0  0  0  0  0  0  0
  -25.1376  -28.1191   20.4716 C   0  0  0  0  0  0  0  0  0  0  0  0
  -28.9662  -21.5777   17.9609 C   0  0  0  0  0  0  0  0  0  0  0  0
  -30.2319  -20.1395   19.4329 C   0  0  0  0  0  0  0  0  0  0  0  0
  -24.0768  -11.9106   20.8918 C   0  0  0  0  0  0  0  0  0  0  0  0
  -27.4871  -27.7130   19.9978 C   0  0  0  0  0  0  0  0  0  0  0  0
  -22.4834  -10.2417   21.3367 C   0  0  0  0  0  0  0  0  0  0  0  0
  -21.8619   -7.5360   21.6117 C   0  0  0  0  0  0  0  0  0  0  0  0
  -30.1766  -22.5227   19.8261 C   0  0  0  0  0  0  0  0  0  0  0  0
  -22.6667   -9.3713   20.2623 C   0  0  0  0  0  0  0  0  0  0  0  0
  -28.0690  -12.9244   19.9262 C   0  0  0  0  0  0  0  0  0  0  0  0
  -30.0755  -13.0067   19.0306 C   0  0  0  0  0  0  0  0  0  0  0  0
  -28.8939  -24.0530   18.3503 C   0  0  0  0  0  0  0  0  0  0  0  0
  -28.5995  -11.2405   18.0560 C   0  0  0  0  0  0  0  0  0  0  0  0
  -23.3693  -29.7569   22.8839 C   0  0  0  0  0  0  0  0  0  0  0  0
  -21.3358  -28.2202   20.8775 C   0  0  0  0  0  0  0  0  0  0  0  0
  -20.9248  -26.1671   18.1826 C   0  0  0  0  0  0  0  0  0  0  0  0
  -31.5019  -18.5090   20.8733 C   0  0  0  0  0  0  0  0  0  0  0  0
  -23.1232  -33.6007   26.2339 C   0  0  0  0  0  0  0  0  0  0  0  0
  -24.2467  -30.4740   20.6319 C   0  0  0  0  0  0  0  0  0  0  0  0
  -23.7668  -27.5582   20.7452 C   0  0  0  0  0  0  0  0  0  0  0  0
  -22.1350  -32.5901   25.6573 C   0  0  0  0  0  0  0  0  0  0  0  0
  -32.7973  -15.4399   22.1300 C   0  0  0  0  0  0  0  0  0  0  0  0
  -22.7088  -31.1788   25.7342 C   0  0  0  0  0  0  0  0  0  0  0  0
  -31.8096  -14.3910   21.6137 C   0  0  0  0  0  0  0  0  0  0  0  0
  -32.0940  -16.7401   22.5151 C   0  0  0  0  0  0  0  0  0  0  0  0
  -30.2473  -16.2652   20.9551 C   0  0  0  0  0  0  0  0  0  0  0  0
  -23.9956  -31.0606   24.9085 C   0  0  1  0  0  0  0  0  0  0  0  0
  -23.0789  -29.8821   21.4151 C   0  0  1  0  0  0  0  0  0  0  0  0
  -30.9171  -14.9605   20.4936 C   0  0  2  0  0  0  0  0  0  0  0  0
  -28.0833  -21.7250   16.7646 C   0  0  0  0  0  0  0  0  0  0  0  0
  -19.1448  -25.0595   16.8033 C   0  0  0  0  0  0  0  0  0  0  0  0
  -30.8743  -27.3156   19.6967 C   0  0  0  0  0  0  0  0  0  0  0  0
  -20.8988  -26.1685   23.0933 C   0  0  0  0  0  0  0  0  0  0  0  0
  -19.9093  -24.6332   21.3810 C   0  0  0  0  0  0  0  0  0  0  0  0
  -18.8261  -26.8288   21.8593 C   0  0  0  0  0  0  0  0  0  0  0  0
  -21.7803  -27.5849   15.7297 C   0  0  0  0  0  0  0  0  0  0  0  0
  -29.6099  -26.3412   17.7117 C   0  0  0  0  0  0  0  0  0  0  0  0
  -21.0098  -26.7752   20.5862 C   0  0  1  0  0  0  0  0  0  0  0  0
  -20.0382  -26.2808   16.9556 C   0  0  2  0  0  0  0  0  0  0  0  0
  -29.5622  -27.2673   18.9248 C   0  0  1  0  0  0  0  0  0  1  0  0
  -20.1873  -26.1117   21.7267 C   0  0  0  0  0  0  0  0  0  0  0  0
  -28.6851  -13.9153   20.5762 N   0  0  0  0  0  0  0  0  0  0  0  0
  -29.9033  -13.9409   20.0093 N   0  0  0  0  0  0  0  0  0  0  0  0
  -22.6969  -28.5506   20.9403 N   0  0  0  0  0  0  0  0  0  0  0  0
  -31.2704  -17.2225   21.4043 N   0  0  0  0  0  0  0  0  0  0  0  0
  -31.2403  -12.8947   18.3575 N   0  0  0  0  0  0  0  0  0  0  0  0
  -27.3293  -10.6503   18.1075 N   0  0  0  0  0  0  0  0  0  0  0  0
  -30.6794  -18.8459   19.7987 N   0  0  0  0  0  0  0  0  0  0  0  0
  -29.8925  -24.9732   18.0568 N   0  0  0  0  0  0  0  0  0  0  0  0
  -23.6838  -30.9535   23.4993 N   0  0  0  0  0  0  0  0  0  0  0  0
  -20.3484  -26.7602   19.2859 N   0  0  0  0  0  0  0  0  0  0  0  0
  -20.8699  -26.4110   15.7259 N   0  3  0  0  0  0  0  0  0  0  0  0
  -27.6912  -24.3020   18.3468 O   0  0  0  0  0  0  0  0  0  0  0  0
  -29.4490  -10.7993   17.2453 O   0  0  0  0  0  0  0  0  0  0  0  0
  -23.3109  -28.6563   23.4197 O   0  0  0  0  0  0  0  0  0  0  0  0
  -20.4166  -29.0274   21.0363 O   0  0  0  0  0  0  0  0  0  0  0  0
  -22.0175  -25.6049   18.1650 O   0  0  0  0  0  0  0  0  0  0  0  0
  -32.3845  -19.2463   21.3200 O   0  0  0  0  0  0  0  0  0  0  0  0
  -22.7922  -11.5849   21.2021 O   0  0  0  0  0  0  0  0  0  0  0  0
  -28.5118  -26.8415   19.7918 O   0  0  0  0  0  0  0  0  0  1  0  0
  -21.5649   -6.2366   21.7444 F   0  0  0  0  0  0  0  0  0  0  0  0
  -30.5533  -23.5810   20.5579 F   0  0  0  0  0  0  0  0  0  0  0  0
  -23.1421   -9.8287   19.0958 F   0  0  0  0  0  0  0  0  0  0  0  0
  1  2  1  0  0  0  0
  1  5  2  0  0  0  0
  2  6  2  0  0  0  0
  3  8  2  0  0  0  0
  3 17  1  0  0  0  0
  4  9  1  0  0  0  0
  4 17  2  0  0  0  0
  5 20  1  0  0  0  0
  6 22  1  0  0  0  0
  7 10  2  0  0  0  0
  7 21  1  0  0  0  0
  8 26  1  0  0  0  0
  9 26  2  0  0  0  0
 10 27  1  0  0  0  0
 11 12  2  0  0  0  0
 11 28  1  0  0  0  0
 12 29  1  0  0  0  0
 13 23  1  0  0  0  0
 13 27  2  0  0  0  0
 14 24  2  0  0  0  0
 14 25  1  0  0  0  0
 15 25  2  0  0  0  0
 15 30  1  0  0  0  0
 16 29  2  0  0  0  0
 16 31  1  0  0  0  0
 17 32  1  0  0  0  0
 18 24  1  0  0  0  0
 18 30  2  0  0  0  0
 18 34  1  0  0  0  0
 19 32  1  0  0  0  0
 19 33  2  0  0  0  0
 19 35  1  0  0  0  0
 20 22  2  0  0  0  0
 20 40  1  0  0  0  0
 21 23  2  0  0  0  0
 21 41  1  0  0  0  0
 22 49  1  0  0  0  0
 23 42  1  0  0  0  0
 24 52  1  0  0  0  0
 25 70  1  0  0  0  0
 26 81  1  0  0  0  0
 27 82  1  0  0  0  0
 28 31  2  0  0  0  0
 28 81  1  0  0  0  0
 29 83  1  0  0  0  0
 30 84  1  0  0  0  0
 31 85  1  0  0  0  0
 32 64  2  0  0  0  0
 33 65  1  0  0  0  0
 33 68  1  0  0  0  0
 34 71  1  0  0  0  0
 34 75  2  0  0  0  0
 35 69  1  0  0  0  0
 35 76  2  0  0  0  0
 36 50  1  0  0  0  0
 36 72  1  0  0  0  0
 36 77  2  0  0  0  0
 37 60  1  0  0  0  0
 37 66  1  0  0  0  0
 37 78  2  0  0  0  0
 38 61  1  0  0  0  0
 38 73  1  0  0  0  0
 38 79  2  0  0  0  0
 39 67  1  0  0  0  0
 39 70  1  0  0  0  0
 39 80  2  0  0  0  0
 40 43  1  0  0  0  0
 41 50  1  0  0  0  0
 42 66  1  0  0  0  0
 43 45  1  0  0  0  0
 44 46  1  0  0  0  0
 44 47  1  0  0  0  0
 45 49  1  0  0  0  0
 46 51  1  0  0  0  0
 47 67  1  0  0  0  0
 48 51  1  0  0  0  0
 48 67  1  0  0  0  0
 49 72  1  0  0  0  0
 50 66  1  0  0  0  0
 51 65  1  0  0  0  0
 53 61  1  0  0  0  0
 54 62  1  0  0  0  0
 55 63  1  0  0  0  0
 56 63  1  0  0  0  0
 57 63  1  0  0  0  0
 58 74  1  0  0  0  0
 59 62  1  0  0  0  0
 59 71  1  0  0  0  0
 60 63  1  0  0  0  0
 60 73  1  0  0  0  0
 61 74  1  0  0  0  0
 62 82  1  0  0  0  0
 64 65  1  0  0  0  0
M  CHG  1  74   1
M  ISO  4  39 100  62 101  70 100  82 101
M  END
> <Batch ID>
0059

> <Smiles>
CNC(C)C(=O)NC(C(=O)N1Cc2cc([101O:1][101CH:1](C)CNC(=O)c3c(C)cc([100NH:0][100C:0](=O)N4CCCC(n5nc(-c6ccc(Oc7ccc(F)cc7F)cc6)c(C(N)=O)c5N)C4)cc3F)ccc2CC1C(=O)NC1CCCc2ccccc21)C(C)(C)C

> <Shape>
0.361

> <Color>
0.093

> <Negative vol penalty>
0.000

$$$$

  -OEChem-04042323013D

 91100  0     1  0  0  0  0  0999 V2000
  -28.6906  -37.5464   23.4255 C   0  0  0  0  0  0  0  0  0  0  0  0
  -29.1647  -36.3347   23.9178 C   0  0  0  0  0  0  0  0  0  0  0  0
  -24.0780  -15.1063   20.9330 C   0  0  0  0  0  0  0  0  0  0  0  0
  -25.8902  -13.6183   21.5149 C   0  0  0  0  0  0  0  0  0  0  0  0
  -27.3188  -37.7925   23.3858 C   0  0  0  0  0  0  0  0  0  0  0  0
  -28.2673  -35.3688   24.3717 C   0  0  0  0  0  0  0  0  0  0  0  0
  -28.1035  -28.7903   21.4411 C   0  0  0  0  0  0  0  0  0  0  0  0
  -28.4002  -20.2724   16.8719 C   0  0  0  0  0  0  0  0  0  0  0  0
  -28.9766  -19.2973   16.0580 C   0  0  0  0  0  0  0  0  0  0  0  0
  -23.1564  -14.1109   21.2576 C   0  0  0  0  0  0  0  0  0  0  0  0
  -24.9686  -12.6228   21.8394 C   0  0  0  0  0  0  0  0  0  0  0  0
  -28.1543  -27.4450   21.0754 C   0  0  0  0  0  0  0  0  0  0  0  0
  -23.0512  -10.3724   20.1994 C   0  0  0  0  0  0  0  0  0  0  0  0
  -23.3022   -9.0809   19.7361 C   0  0  0  0  0  0  0  0  0  0  0  0
  -26.2920  -26.9651   22.5416 C   0  0  0  0  0  0  0  0  0  0  0  0
  -26.2299  -19.2625   16.5450 C   0  0  0  0  0  0  0  0  0  0  0  0
  -23.3559   -8.2746   22.0129 C   0  0  0  0  0  0  0  0  0  0  0  0
  -25.4449  -14.8600   21.0616 C   0  0  0  0  0  0  0  0  0  0  0  0
  -26.5111  -17.1644   21.3083 C   0  0  0  0  0  0  0  0  0  0  0  0
  -26.4037  -36.8253   23.8305 C   0  0  0  0  0  0  0  0  0  0  0  0
  -27.1357  -29.2314   22.3479 C   0  0  0  0  0  0  0  0  0  0  0  0
  -26.8821  -35.6027   24.3392 C   0  0  0  0  0  0  0  0  0  0  0  0
  -26.2283  -28.3137   22.9022 C   0  0  0  0  0  0  0  0  0  0  0  0
  -26.8063  -18.2874   15.7310 C   0  0  0  0  0  0  0  0  0  0  0  0
  -27.0268  -20.2550   17.1155 C   0  0  0  0  0  0  0  0  0  0  0  0
  -28.1796  -18.3048   15.4875 C   0  0  0  0  0  0  0  0  0  0  0  0
  -23.6017  -12.8692   21.7108 C   0  0  0  0  0  0  0  0  0  0  0  0
  -27.2509  -26.5347   21.6245 C   0  0  0  0  0  0  0  0  0  0  0  0
  -22.9526  -10.6150   21.5694 C   0  0  0  0  0  0  0  0  0  0  0  0
  -23.4545   -8.0320   20.6428 C   0  0  0  0  0  0  0  0  0  0  0  0
  -23.1050   -9.5661   22.4762 C   0  0  0  0  0  0  0  0  0  0  0  0
  -26.3974  -15.8877   20.7260 C   0  0  0  0  0  0  0  0  0  0  0  0
  -27.5605  -17.7521   20.6450 C   0  0  0  0  0  0  0  0  0  0  0  0
  -25.2849  -21.0147   18.7358 C   0  0  0  0  0  0  0  0  0  0  0  0
  -27.9081  -22.8230   19.1945 C   0  0  0  0  0  0  0  0  0  0  0  0
  -25.7373  -17.7653   22.3551 C   0  0  0  0  0  0  0  0  0  0  0  0
  -25.6543  -32.1194   24.2296 C   0  0  0  0  0  0  0  0  0  0  0  0
  -23.3130  -30.3803   23.2788 C   0  0  0  0  0  0  0  0  0  0  0  0
  -21.3177  -28.8504   21.3864 C   0  0  0  0  0  0  0  0  0  0  0  0
  -28.1404  -24.4300   22.0579 C   0  0  0  0  0  0  0  0  0  1  0  0
  -29.8011  -16.4301   15.1037 C   0  0  0  0  0  0  0  0  0  0  0  0
  -24.9322  -37.1554   23.8120 C   0  0  0  0  0  0  0  0  0  0  0  0
  -27.0833  -30.6600   22.8173 C   0  0  0  0  0  0  0  0  0  0  0  0
  -25.2266  -28.8271   23.9001 C   0  0  0  0  0  0  0  0  0  0  0  0
  -24.9314  -22.1238   19.7049 C   0  0  0  0  0  0  0  0  0  0  0  0
  -27.0344  -22.5971   17.9811 C   0  0  0  0  0  0  0  0  0  0  0  0
  -24.0316  -35.9323   23.9637 C   0  0  0  0  0  0  0  0  0  0  0  0
  -31.6063  -16.7122   18.3216 C   0  0  0  0  0  0  0  0  0  0  0  0
  -24.5256  -35.0433   25.1007 C   0  0  0  0  0  0  0  0  0  0  0  0
  -30.4895  -16.5559   19.3520 C   0  0  0  0  0  0  0  0  0  0  0  0
  -25.9816  -22.2331   20.7983 C   0  0  0  0  0  0  0  0  0  0  0  0
  -31.2893  -15.9715   17.0260 C   0  0  0  0  0  0  0  0  0  0  0  0
  -28.8596  -16.2051   17.4541 C   0  0  0  0  0  0  0  0  0  0  0  0
  -25.9390  -34.5202   24.8177 C   0  0  1  0  0  0  0  0  0  0  0  0
  -25.6502  -31.1572   23.0783 C   0  0  1  0  0  0  0  0  0  0  0  0
  -29.1367  -16.9757   18.7536 C   0  0  1  0  0  0  0  0  0  0  0  0
  -25.9292  -17.2349   15.1346 C   0  0  0  0  0  0  0  0  0  0  0  0
  -19.4233  -27.8059   20.1145 C   0  0  0  0  0  0  0  0  0  0  0  0
  -23.1113  -29.1641   26.0688 C   0  0  0  0  0  0  0  0  0  0  0  0
  -20.9652  -28.0836   25.3655 C   0  0  0  0  0  0  0  0  0  0  0  0
  -21.1548  -30.5707   25.3997 C   0  0  0  0  0  0  0  0  0  0  0  0
  -28.5522  -17.3728   13.2108 C   0  0  0  0  0  0  0  0  0  0  0  0
  -20.9179  -31.2862   19.7535 C   0  0  0  0  0  0  0  0  0  0  0  0
  -28.1726  -22.9822   21.6228 C   0  0  0  0  0  0  0  0  0  0  0  0
  -22.3562  -29.2606   23.6018 C   0  0  1  0  0  0  0  0  0  0  0  0
  -20.0431  -29.1061   20.6025 C   0  0  2  0  0  0  0  0  0  0  0  0
  -21.9209  -29.2651   25.0944 C   0  0  0  0  0  0  0  0  0  0  0  0
  -27.3023  -15.6762   19.7666 N   0  0  0  0  0  0  0  0  0  0  0  0
  -27.9945  -16.8278   19.7408 N   0  0  0  0  0  0  0  0  0  0  0  0
  -26.4297  -21.2646   17.9619 N   0  0  0  0  0  0  0  0  0  0  0  0
  -27.3322  -22.7085   20.4589 N   0  0  0  0  0  0  0  0  0  0  0  0
  -24.6775  -30.1137   23.4443 N   0  0  0  0  0  0  0  0  0  0  0  0
  -29.9729  -16.3366   16.5001 N   0  0  0  0  0  0  0  0  0  0  0  0
  -28.1451  -18.9641   20.7529 N   0  0  0  0  0  0  0  0  0  0  0  0
  -26.1592  -17.5937   23.6806 N   0  0  0  0  0  0  0  0  0  0  0  0
  -25.8937  -33.4309   23.8660 N   0  0  0  0  0  0  0  0  0  0  0  0
  -21.2514  -29.3825   22.6568 N   0  0  0  0  0  0  0  0  0  0  0  0
  -28.7953  -17.3046   14.6501 N   0  0  0  0  0  0  0  0  0  0  0  0
  -20.3269  -29.9651   19.4182 N   0  3  0  0  0  0  0  0  0  0  0  0
  -24.6172  -19.9805   18.7579 O   0  0  0  0  0  0  0  0  0  0  0  0
  -29.0709  -23.2007   19.0087 O   0  0  0  0  0  0  0  0  0  0  0  0
  -24.6933  -18.4209   22.1231 O   0  0  0  0  0  0  0  0  0  0  0  0
  -25.4536  -31.7040   25.3649 O   0  0  0  0  0  0  0  0  0  0  0  0
  -22.8651  -31.4646   22.8955 O   0  0  0  0  0  0  0  0  0  0  0  0
  -22.2748  -28.2367   20.9199 O   0  0  0  0  0  0  0  0  0  0  0  0
  -28.7913  -24.8419   23.0129 O   0  0  0  0  0  0  0  0  0  0  0  0
  -30.4599  -15.7404   14.3157 O   0  0  0  0  0  0  0  0  0  0  0  0
  -22.7027  -11.8977   22.0278 O   0  0  0  0  0  0  0  0  0  0  0  0
  -27.3032  -25.2236   21.2596 O   0  0  0  0  0  0  0  0  0  1  0  0
  -23.6940   -6.7916   20.1978 F   0  0  0  0  0  0  0  0  0  0  0  0
  -23.0102   -9.7929   23.7936 F   0  0  0  0  0  0  0  0  0  0  0  0
  1  2  1  0  0  0  0
  1  5  2  0  0  0  0
  2  6  2  0  0  0  0
  3 10  2  0  0  0  0
  3 18  1  0  0  0  0
  4 11  1  0  0  0  0
  4 18  2  0  0  0  0
  5 20  1  0  0  0  0
  6 22  1  0  0  0  0
  7 12  2  0  0  0  0
  7 21  1  0  0  0  0
  8  9  2  0  0  0  0
  8 25  1  0  0  0  0
  9 26  1  0  0  0  0
 10 27  1  0  0  0  0
 11 27  2  0  0  0  0
 12 28  1  0  0  0  0
 13 14  2  0  0  0  0
 13 29  1  0  0  0  0
 14 30  1  0  0  0  0
 15 23  1  0  0  0  0
 15 28  2  0  0  0  0
 16 24  1  0  0  0  0
 16 25  2  0  0  0  0
 17 30  2  0  0  0  0
 17 31  1  0  0  0  0
 18 32  1  0  0  0  0
 19 32  1  0  0  0  0
 19 33  2  0  0  0  0
 19 36  1  0  0  0  0
 20 22  2  0  0  0  0
 20 42  1  0  0  0  0
 21 23  2  0  0  0  0
 21 43  1  0  0  0  0
 22 54  1  0  0  0  0
 23 44  1  0  0  0  0
 24 26  2  0  0  0  0
 24 57  1  0  0  0  0
 25 70  1  0  0  0  0
 26 78  1  0  0  0  0
 27 88  1  0  0  0  0
 28 89  1  0  0  0  0
 29 31  2  0  0  0  0
 29 88  1  0  0  0  0
 30 90  1  0  0  0  0
 31 91  1  0  0  0  0
 32 68  2  0  0  0  0
 33 69  1  0  0  0  0
 33 74  1  0  0  0  0
 34 45  1  0  0  0  0
 34 70  1  0  0  0  0
 34 80  2  0  0  0  0
 35 46  1  0  0  0  0
 35 71  1  0  0  0  0
 35 81  2  0  0  0  0
 36 75  1  0  0  0  0
 36 82  2  0  0  0  0
 37 55  1  0  0  0  0
 37 76  1  0  0  0  0
 37 83  2  0  0  0  0
 38 65  1  0  0  0  0
 38 72  1  0  0  0  0
 38 84  2  0  0  0  0
 39 66  1  0  0  0  0
 39 77  1  0  0  0  0
 39 85  2  0  0  0  0
 40 64  1  0  0  0  0
 40 86  2  0  0  0  0
 40 89  1  0  0  0  0
 41 73  1  0  0  0  0
 41 78  1  0  0  0  0
 41 87  2  0  0  0  0
 42 47  1  0  0  0  0
 43 55  1  0  0  0  0
 44 72  1  0  0  0  0
 45 51  1  0  0  0  0
 46 70  1  0  0  0  0
 47 49  1  0  0  0  0
 48 50  1  0  0  0  0
 48 52  1  0  0  0  0
 49 54  1  0  0  0  0
 50 56  1  0  0  0  0
 51 71  1  0  0  0  0
 52 73  1  0  0  0  0
 53 56  1  0  0  0  0
 53 73  1  0  0  0  0
 54 76  1  0  0  0  0
 55 72  1  0  0  0  0
 56 69  1  0  0  0  0
 58 66  1  0  0  0  0
 59 67  1  0  0  0  0
 60 67  1  0  0  0  0
 61 67  1  0  0  0  0
 62 78  1  0  0  0  0
 63 79  1  0  0  0  0
 64 71  1  0  0  0  0
 65 67  1  0  0  0  0
 65 77  1  0  0  0  0
 66 79  1  0  0  0  0
 68 69  1  0  0  0  0
M  CHG  1  79   1
M  ISO  4  40 101  41 100  78 100  89 101
M  END
> <Batch ID>
0059

> <Smiles>
CNC(C)C(=O)NC(C(=O)N1Cc2cc([101O:1][101C:1](=O)CN3CCC(=O)N(c4ccc([100N:0](C)[100C:0](=O)N5CCCC(n6nc(-c7ccc(Oc8ccc(F)cc8F)cc7)c(C(N)=O)c6N)C5)c(C)c4)CC3=O)ccc2CC1C(=O)NC1CCCc2ccccc21)C(C)(C)C

> <Shape>
0.236

> <Color>
0.072

> <Negative vol penalty>
0.000

$$$$

  -OEChem-04042323013D

 86 94  0     1  0  0  0  0  0999 V2000
  -18.2023  -25.1840   21.5436 C   0  0  0  0  0  0  0  0  0  0  0  0
  -19.4472  -24.6909   21.9213 C   0  0  0  0  0  0  0  0  0  0  0  0
  -23.5971   -9.8317   21.5714 C   0  0  0  0  0  0  0  0  0  0  0  0
  -24.1332  -10.9483   23.6458 C   0  0  0  0  0  0  0  0  0  0  0  0
  -18.1014  -26.4470   20.9619 C   0  0  0  0  0  0  0  0  0  0  0  0
  -20.5920  -25.4601   21.7164 C   0  0  0  0  0  0  0  0  0  0  0  0
  -25.5593  -25.6933   25.2909 C   0  0  0  0  0  0  0  0  0  0  0  0
  -28.8398  -19.1335   21.2622 C   0  0  0  0  0  0  0  0  0  0  0  0
  -29.1994  -20.4065   21.7046 C   0  0  0  0  0  0  0  0  0  0  0  0
  -23.0181   -8.7828   22.2856 C   0  0  0  0  0  0  0  0  0  0  0  0
  -23.5541   -9.8994   24.3600 C   0  0  0  0  0  0  0  0  0  0  0  0
  -26.8025  -25.0672   25.2112 C   0  0  0  0  0  0  0  0  0  0  0  0
  -24.0607   -6.0630   24.0003 C   0  0  0  0  0  0  0  0  0  0  0  0
  -24.3698   -4.7618   23.6042 C   0  0  0  0  0  0  0  0  0  0  0  0
  -27.7115  -27.0232   24.1308 C   0  0  0  0  0  0  0  0  0  0  0  0
  -31.1726  -18.5170   21.1398 C   0  0  0  0  0  0  0  0  0  0  0  0
  -22.0303   -4.3366   23.1758 C   0  0  0  0  0  0  0  0  0  0  0  0
  -24.1548  -10.9144   22.2515 C   0  0  0  0  0  0  0  0  0  0  0  0
  -24.1170  -13.1649   21.0509 C   0  0  0  0  0  0  0  0  0  0  0  0
  -19.2444  -27.2361   20.7585 C   0  0  0  0  0  0  0  0  0  0  0  0
  -25.3798  -26.9870   24.7805 C   0  0  0  0  0  0  0  0  0  0  0  0
  -20.5064  -26.7344   21.1301 C   0  0  0  0  0  0  0  0  0  0  0  0
  -26.4656  -27.6644   24.2076 C   0  0  0  0  0  0  0  0  0  0  0  0
  -31.5323  -19.7900   21.5822 C   0  0  0  0  0  0  0  0  0  0  0  0
  -29.8264  -18.1887   20.9798 C   0  0  0  0  0  0  0  0  0  0  0  0
  -30.5456  -20.7348   21.8646 C   0  0  0  0  0  0  0  0  0  0  0  0
  -22.9966   -8.8166   23.6799 C   0  0  0  0  0  0  0  0  0  0  0  0
  -27.8781  -25.7311   24.6285 C   0  0  0  0  0  0  0  0  0  0  0  0
  -22.7365   -6.5011   23.9843 C   0  0  0  0  0  0  0  0  0  0  0  0
  -23.3546   -3.8986   23.1919 C   0  0  0  0  0  0  0  0  0  0  0  0
  -21.7213   -5.6379   23.5720 C   0  0  0  0  0  0  0  0  0  0  0  0
  -24.7536  -11.9980   21.5143 C   0  0  0  0  0  0  0  0  0  0  0  0
  -25.1107  -13.8691   20.4160 C   0  0  0  0  0  0  0  0  0  0  0  0
  -22.7497  -13.5757   21.1826 C   0  0  0  0  0  0  0  0  0  0  0  0
  -23.5789  -28.2670   22.4953 C   0  0  0  0  0  0  0  0  0  0  0  0
  -24.7782  -31.0511   23.6497 C   0  0  0  0  0  0  0  0  0  0  0  0
  -30.0268  -23.0749   22.6382 C   0  0  0  0  0  0  0  0  0  0  0  0
  -27.2749  -32.6506   25.3392 C   0  0  0  0  0  0  0  0  0  0  0  0
  -30.3141  -15.8403   20.2093 C   0  0  0  0  0  0  0  0  0  0  0  0
  -19.0909  -28.5757   20.0827 C   0  0  0  0  0  0  0  0  0  0  0  0
  -24.0392  -27.6587   24.8983 C   0  0  0  0  0  0  0  0  0  0  0  0
  -26.3304  -29.0621   23.6630 C   0  0  0  0  0  0  0  0  0  0  0  0
  -20.3088  -29.4819   20.2431 C   0  0  0  0  0  0  0  0  0  0  0  0
  -29.8031  -12.4931   19.1084 C   0  0  0  0  0  0  0  0  0  0  0  0
  -21.5917  -28.7076   19.9578 C   0  0  0  0  0  0  0  0  0  0  0  0
  -28.3915  -12.1619   19.5981 C   0  0  0  0  0  0  0  0  0  0  0  0
  -30.5584  -13.3696   20.1059 C   0  0  0  0  0  0  0  0  0  0  0  0
  -28.4445  -14.2621   21.0028 C   0  0  0  0  0  0  0  0  0  0  0  0
  -21.7684  -27.5491   20.9468 C   0  0  1  0  0  0  0  0  0  0  0  0
  -23.8415  -28.7800   23.8829 C   0  0  1  0  0  0  0  0  0  0  0  0
  -27.6218  -13.4348   20.0016 C   0  0  2  0  0  0  0  0  0  0  0  0
  -27.9961  -34.9336   26.0912 C   0  0  0  0  0  0  0  0  0  0  0  0
  -25.6502  -31.7113   20.8012 C   0  0  0  0  0  0  0  0  0  0  0  0
  -27.1545  -33.4760   21.7451 C   0  0  0  0  0  0  0  0  0  0  0  0
  -24.6866  -33.6387   22.0704 C   0  0  0  0  0  0  0  0  0  0  0  0
  -27.1887  -31.8654   28.1914 C   0  0  0  0  0  0  0  0  0  0  0  0
  -30.8155  -24.3016   23.0822 C   0  0  0  0  0  0  0  0  0  0  0  0
  -29.9284  -25.4815   23.4496 C   0  0  0  0  0  0  0  0  0  1  0  0
  -25.9937  -31.8959   23.3535 C   0  0  1  0  0  0  0  0  0  0  0  0
  -27.2379  -33.6691   26.4643 C   0  0  2  0  0  0  0  0  0  0  0  0
  -32.9817  -20.1138   21.7467 C   0  0  0  0  0  0  0  0  0  0  0  0
  -25.8736  -32.6534   22.0010 C   0  0  0  0  0  0  0  0  0  0  0  0
  -26.0513  -11.9592   21.2004 N   0  0  0  0  0  0  0  0  0  0  0  0
  -26.2381  -13.1105   20.5329 N   0  0  0  0  0  0  0  0  0  0  0  0
  -24.9979  -29.6741   23.7958 N   0  0  0  0  0  0  0  0  0  0  0  0
  -29.7705  -14.5586   20.4383 N   0  0  0  0  0  0  0  0  0  0  0  0
  -25.1214  -15.0570   19.7747 N   0  0  0  0  0  0  0  0  0  0  0  0
  -21.8616  -12.7330   21.8649 N   0  0  0  0  0  0  0  0  0  0  0  0
  -30.8900  -22.0311   22.3160 N   0  0  0  0  0  0  0  0  0  0  0  0
  -29.4608  -16.8947   20.5330 N   0  0  0  0  0  0  0  0  0  0  0  0
  -22.2432  -28.0414   22.2222 N   0  0  0  0  0  0  0  0  0  0  0  0
  -26.1787  -32.7649   24.5106 N   0  0  0  0  0  0  0  0  0  0  0  0
  -27.8506  -33.1005   27.6981 N   0  3  0  0  0  0  0  0  0  0  0  0
  -22.3242  -14.6503   20.6951 O   0  0  0  0  0  0  0  0  0  0  0  0
  -24.5184  -28.0902   21.7286 O   0  0  0  0  0  0  0  0  0  0  0  0
  -23.6755  -31.5939   23.7548 O   0  0  0  0  0  0  0  0  0  0  0  0
  -28.8012  -23.0687   22.5910 O   0  0  0  0  0  0  0  0  0  0  0  0
  -28.1870  -31.8377   25.2064 O   0  0  0  0  0  0  0  0  0  0  0  0
  -31.4423  -15.9913   19.7336 O   0  0  0  0  0  0  0  0  0  0  0  0
  -22.4314   -7.7934   24.3772 O   0  0  0  0  0  0  0  0  0  0  0  0
  -29.0924  -25.1221   24.5488 O   0  0  0  0  0  0  0  0  0  1  0  0
  -23.6517   -2.6496   22.8100 F   0  0  0  0  0  0  0  0  0  0  0  0
  -20.4474   -6.0534   23.5534 F   0  0  0  0  0  0  0  0  0  0  0  0
  -33.8108  -19.0771   21.4294 F   0  0  0  0  0  0  0  0  0  0  0  0
  -33.3977  -21.1562   20.9701 F   0  0  0  0  0  0  0  0  0  0  0  0
  -33.2976  -20.4594   23.0276 F   0  0  0  0  0  0  0  0  0  0  0  0
  1  2  1  0  0  0  0
  1  5  2  0  0  0  0
  2  6  2  0  0  0  0
  3 10  2  0  0  0  0
  3 18  1  0  0  0  0
  4 11  1  0  0  0  0
  4 18  2  0  0  0  0
  5 20  1  0  0  0  0
  6 22  1  0  0  0  0
  7 12  2  0  0  0  0
  7 21  1  0  0  0  0
  8  9  2  0  0  0  0
  8 25  1  0  0  0  0
  9 26  1  0  0  0  0
 10 27  1  0  0  0  0
 11 27  2  0  0  0  0
 12 28  1  0  0  0  0
 13 14  2  0  0  0  0
 13 29  1  0  0  0  0
 14 30  1  0  0  0  0
 15 23  1  0  0  0  0
 15 28  2  0  0  0  0
 16 24  1  0  0  0  0
 16 25  2  0  0  0  0
 17 30  2  0  0  0  0
 17 31  1  0  0  0  0
 18 32  1  0  0  0  0
 19 32  1  0  0  0  0
 19 33  2  0  0  0  0
 19 34  1  0  0  0  0
 20 22  2  0  0  0  0
 20 40  1  0  0  0  0
 21 23  2  0  0  0  0
 21 41  1  0  0  0  0
 22 49  1  0  0  0  0
 23 42  1  0  0  0  0
 24 26  2  0  0  0  0
 24 61  1  0  0  0  0
 25 70  1  0  0  0  0
 26 69  1  0  0  0  0
 27 80  1  0  0  0  0
 28 81  1  0  0  0  0
 29 31  2  0  0  0  0
 29 80  1  0  0  0  0
 30 82  1  0  0  0  0
 31 83  1  0  0  0  0
 32 63  2  0  0  0  0
 33 64  1  0  0  0  0
 33 67  1  0  0  0  0
 34 68  1  0  0  0  0
 34 74  2  0  0  0  0
 35 50  1  0  0  0  0
 35 71  1  0  0  0  0
 35 75  2  0  0  0  0
 36 59  1  0  0  0  0
 36 65  1  0  0  0  0
 36 76  2  0  0  0  0
 37 57  1  0  0  0  0
 37 69  1  0  0  0  0
 37 77  2  0  0  0  0
 38 60  1  0  0  0  0
 38 72  1  0  0  0  0
 38 78  2  0  0  0  0
 39 66  1  0  0  0  0
 39 70  1  0  0  0  0
 39 79  2  0  0  0  0
 40 43  1  0  0  0  0
 41 50  1  0  0  0  0
 42 65  1  0  0  0  0
 43 45  1  0  0  0  0
 44 46  1  0  0  0  0
 44 47  1  0  0  0  0
 45 49  1  0  0  0  0
 46 51  1  0  0  0  0
 47 66  1  0  0  0  0
 48 51  1  0  0  0  0
 48 66  1  0  0  0  0
 49 71  1  0  0  0  0
 50 65  1  0  0  0  0
 51 64  1  0  0  0  0
 52 60  1  0  0  0  0
 53 62  1  0  0  0  0
 54 62  1  0  0  0  0
 55 62  1  0  0  0  0
 56 73  1  0  0  0  0
 57 58  1  0  0  0  0
 58 81  1  0  0  0  0
 59 62  1  0  0  0  0
 59 72  1  0  0  0  0
 60 73  1  0  0  0  0
 61 84  1  0  0  0  0
 61 85  1  0  0  0  0
 61 86  1  0  0  0  0
 63 64  1  0  0  0  0
M  CHG  1  73   1
M  ISO  4  39 100  58 101  70 100  81 101
M  END
> <Batch ID>
0059

> <Smiles>
CNC(C)C(=O)NC(C(=O)N1Cc2cc([101O:1][101CH2:1]CC(=O)Nc3ccc([100NH:0][100C:0](=O)N4CCCC(n5nc(-c6ccc(Oc7ccc(F)cc7F)cc6)c(C(N)=O)c5N)C4)cc3C(F)(F)F)ccc2CC1C(=O)NC1CCCc2ccccc21)C(C)(C)C

> <Shape>
0.276

> <Color>
0.133

> <Negative vol penalty>
0.000

$$$$

  -OEChem-04042323013D

 84 92  0     1  0  0  0  0  0999 V2000
  -17.3165  -25.3541   25.0010 C   0  0  0  0  0  0  0  0  0  0  0  0
  -18.6172  -25.0267   24.6318 C   0  0  0  0  0  0  0  0  0  0  0  0
  -23.5803  -10.0476   22.4072 C   0  0  0  0  0  0  0  0  0  0  0  0
  -24.2913  -11.6749   24.0454 C   0  0  0  0  0  0  0  0  0  0  0  0
  -16.8041  -26.6153   24.6996 C   0  0  0  0  0  0  0  0  0  0  0  0
  -19.4059  -25.9599   23.9599 C   0  0  0  0  0  0  0  0  0  0  0  0
  -24.1130  -26.2163   25.8100 C   0  0  0  0  0  0  0  0  0  0  0  0
  -31.7972  -19.2093   19.1315 C   0  0  0  0  0  0  0  0  0  0  0  0
  -31.3697  -17.8821   19.0944 C   0  0  0  0  0  0  0  0  0  0  0  0
  -23.0199   -9.2713   23.4216 C   0  0  0  0  0  0  0  0  0  0  0  0
  -23.7308  -10.8986   25.0597 C   0  0  0  0  0  0  0  0  0  0  0  0
  -25.0001  -25.2079   25.4357 C   0  0  0  0  0  0  0  0  0  0  0  0
  -24.0942   -7.0959   25.7749 C   0  0  0  0  0  0  0  0  0  0  0  0
  -24.3355   -5.7224   25.7472 C   0  0  0  0  0  0  0  0  0  0  0  0
  -25.9653  -26.6781   23.7846 C   0  0  0  0  0  0  0  0  0  0  0  0
  -29.0706  -18.6205   19.1707 C   0  0  0  0  0  0  0  0  0  0  0  0
  -21.9603   -5.3083   25.5915 C   0  0  0  0  0  0  0  0  0  0  0  0
  -24.2161  -11.2494   22.7191 C   0  0  0  0  0  0  0  0  0  0  0  0
  -24.1647  -13.0706   20.9336 C   0  0  0  0  0  0  0  0  0  0  0  0
  -17.5902  -27.5678   24.0323 C   0  0  0  0  0  0  0  0  0  0  0  0
  -24.1382  -27.4617   25.1658 C   0  0  0  0  0  0  0  0  0  0  0  0
  -18.9031  -27.2345   23.6481 C   0  0  0  0  0  0  0  0  0  0  0  0
  -25.0792  -27.7015   24.1543 C   0  0  0  0  0  0  0  0  0  0  0  0
  -30.8614  -20.2421   19.1882 C   0  0  0  0  0  0  0  0  0  0  0  0
  -29.4981  -19.9477   19.2078 C   0  0  0  0  0  0  0  0  0  0  0  0
  -30.0065  -17.5877   19.1139 C   0  0  0  0  0  0  0  0  0  0  0  0
  -23.0951   -9.6968   24.7478 C   0  0  0  0  0  0  0  0  0  0  0  0
  -25.9244  -25.4377   24.4209 C   0  0  0  0  0  0  0  0  0  0  0  0
  -22.7860   -7.5757   25.7110 C   0  0  0  0  0  0  0  0  0  0  0  0
  -23.2685   -4.8286   25.6554 C   0  0  0  0  0  0  0  0  0  0  0  0
  -21.7190   -6.6819   25.6193 C   0  0  0  0  0  0  0  0  0  0  0  0
  -24.7957  -12.0515   21.6718 C   0  0  0  0  0  0  0  0  0  0  0  0
  -25.1336  -13.5186   20.0693 C   0  0  0  0  0  0  0  0  0  0  0  0
  -27.5598  -23.0547   22.3018 C   0  0  0  0  0  0  0  0  0  0  0  0
  -26.7522  -24.0136   22.7604 C   0  0  0  0  0  0  0  0  0  1  0  0
  -22.8228  -13.5679   21.0213 C   0  0  0  0  0  0  0  0  0  0  0  0
  -27.4652  -22.6217   20.8825 C   0  0  0  0  0  0  0  0  0  0  0  0
  -22.0694  -29.1250   23.4174 C   0  0  0  0  0  0  0  0  0  0  0  0
  -24.3595  -31.4156   23.5926 C   0  0  0  0  0  0  0  0  0  0  0  0
  -27.6518  -32.1923   24.0450 C   0  0  0  0  0  0  0  0  0  0  0  0
  -30.3682  -15.0965   19.0147 C   0  0  0  0  0  0  0  0  0  0  0  0
  -16.9768  -28.9015   23.6862 C   0  0  0  0  0  0  0  0  0  0  0  0
  -23.1925  -28.5479   25.5995 C   0  0  0  0  0  0  0  0  0  0  0  0
  -25.1607  -29.0278   23.4453 C   0  0  0  0  0  0  0  0  0  0  0  0
  -18.0043  -29.9637   23.3039 C   0  0  0  0  0  0  0  0  0  0  0  0
  -29.6810  -11.6038   18.9398 C   0  0  0  0  0  0  0  0  0  0  0  0
  -19.0196  -29.3941   22.3183 C   0  0  0  0  0  0  0  0  0  0  0  0
  -28.2969  -11.4927   19.5832 C   0  0  0  0  0  0  0  0  0  0  0  0
  -30.5293  -12.6876   19.6028 C   0  0  0  0  0  0  0  0  0  0  0  0
  -28.5102  -13.8980   20.3289 C   0  0  0  0  0  0  0  0  0  0  0  0
  -19.7981  -28.2284   22.9401 C   0  0  1  0  0  0  0  0  0  0  0  0
  -22.9644  -29.6059   24.5243 C   0  0  1  0  0  0  0  0  0  0  0  0
  -27.5959  -12.8637   19.6523 C   0  0  2  0  0  0  0  0  0  0  0  0
  -31.3431  -21.6552   19.2279 C   0  0  0  0  0  0  0  0  0  0  0  0
  -29.2259  -34.1460   24.0954 C   0  0  0  0  0  0  0  0  0  0  0  0
  -24.2619  -31.5698   20.5469 C   0  0  0  0  0  0  0  0  0  0  0  0
  -26.4490  -32.7868   20.6079 C   0  0  0  0  0  0  0  0  0  0  0  0
  -24.4387  -33.7828   21.6983 C   0  0  0  0  0  0  0  0  0  0  0  0
  -28.4083  -31.6588   26.8561 C   0  0  0  0  0  0  0  0  0  0  0  0
  -28.4727  -21.0428   19.2666 C   0  0  0  0  0  0  0  0  0  0  0  0
  -25.5660  -31.7868   22.7646 C   0  0  1  0  0  0  0  0  0  0  0  0
  -28.3307  -33.2324   24.9179 C   0  0  2  0  0  0  0  0  0  0  0  0
  -25.1763  -32.4558   21.4163 C   0  0  0  0  0  0  0  0  0  0  0  0
  -26.0670  -11.8629   21.3082 N   0  0  0  0  0  0  0  0  0  0  0  0
  -26.2427  -12.7696   20.3319 N   0  0  0  0  0  0  0  0  0  0  0  0
  -24.2106  -30.0560   23.9009 N   0  0  0  0  0  0  0  0  0  0  0  0
  -29.8028  -13.9589   19.6286 N   0  0  0  0  0  0  0  0  0  0  0  0
  -25.1365  -14.4763   19.1178 N   0  0  0  0  0  0  0  0  0  0  0  0
  -21.9584  -12.9952   21.9642 N   0  0  0  0  0  0  0  0  0  0  0  0
  -29.5717  -16.2396   19.0743 N   0  0  0  0  0  0  0  0  0  0  0  0
  -28.3757  -21.6221   20.5857 N   0  0  0  0  0  0  0  0  0  0  0  0
  -20.8166  -28.7242   23.8407 N   0  0  0  0  0  0  0  0  0  0  0  0
  -26.4096  -32.6141   23.6203 N   0  0  0  0  0  0  0  0  0  0  0  0
  -29.1655  -32.5695   25.9593 N   0  3  0  0  0  0  0  0  0  0  0  0
  -22.3979  -14.4815   20.2741 O   0  0  0  0  0  0  0  0  0  0  0  0
  -26.6656  -23.1138   20.0928 O   0  0  0  0  0  0  0  0  0  0  0  0
  -22.4843  -29.1195   22.2643 O   0  0  0  0  0  0  0  0  0  0  0  0
  -23.5819  -32.3005   23.9587 O   0  0  0  0  0  0  0  0  0  0  0  0
  -28.1730  -31.1152   23.7646 O   0  0  0  0  0  0  0  0  0  0  0  0
  -31.4652  -15.0526   18.4521 O   0  0  0  0  0  0  0  0  0  0  0  0
  -22.5481   -8.9397   25.7378 O   0  0  0  0  0  0  0  0  0  0  0  0
  -26.7910  -24.4550   24.0532 O   0  0  0  0  0  0  0  0  0  1  0  0
  -23.5005   -3.5097   25.6273 F   0  0  0  0  0  0  0  0  0  0  0  0
  -20.4601   -7.1369   25.5564 F   0  0  0  0  0  0  0  0  0  0  0  0
  1  2  1  0  0  0  0
  1  5  2  0  0  0  0
  2  6  2  0  0  0  0
  3 10  2  0  0  0  0
  3 18  1  0  0  0  0
  4 11  1  0  0  0  0
  4 18  2  0  0  0  0
  5 20  1  0  0  0  0
  6 22  1  0  0  0  0
  7 12  2  0  0  0  0
  7 21  1  0  0  0  0
  8  9  2  0  0  0  0
  8 24  1  0  0  0  0
  9 26  1  0  0  0  0
 10 27  1  0  0  0  0
 11 27  2  0  0  0  0
 12 28  1  0  0  0  0
 13 14  2  0  0  0  0
 13 29  1  0  0  0  0
 14 30  1  0  0  0  0
 15 23  1  0  0  0  0
 15 28  2  0  0  0  0
 16 25  1  0  0  0  0
 16 26  2  0  0  0  0
 17 30  2  0  0  0  0
 17 31  1  0  0  0  0
 18 32  1  0  0  0  0
 19 32  1  0  0  0  0
 19 33  2  0  0  0  0
 19 36  1  0  0  0  0
 20 22  2  0  0  0  0
 20 42  1  0  0  0  0
 21 23  2  0  0  0  0
 21 43  1  0  0  0  0
 22 51  1  0  0  0  0
 23 44  1  0  0  0  0
 24 25  2  0  0  0  0
 24 54  1  0  0  0  0
 25 60  1  0  0  0  0
 26 70  1  0  0  0  0
 27 81  1  0  0  0  0
 28 82  1  0  0  0  0
 29 31  2  0  0  0  0
 29 81  1  0  0  0  0
 30 83  1  0  0  0  0
 31 84  1  0  0  0  0
 32 64  2  0  0  0  0
 33 65  1  0  0  0  0
 33 68  1  0  0  0  0
 34 35  2  0  0  0  0
 34 37  1  0  0  0  0
 35 82  1  0  0  0  0
 36 69  1  0  0  0  0
 36 75  2  0  0  0  0
 37 71  1  0  0  0  0
 37 76  2  0  0  0  0
 38 52  1  0  0  0  0
 38 72  1  0  0  0  0
 38 77  2  0  0  0  0
 39 61  1  0  0  0  0
 39 66  1  0  0  0  0
 39 78  2  0  0  0  0
 40 62  1  0  0  0  0
 40 73  1  0  0  0  0
 40 79  2  0  0  0  0
 41 67  1  0  0  0  0
 41 70  1  0  0  0  0
 41 80  2  0  0  0  0
 42 45  1  0  0  0  0
 43 52  1  0  0  0  0
 44 66  1  0  0  0  0
 45 47  1  0  0  0  0
 46 48  1  0  0  0  0
 46 49  1  0  0  0  0
 47 51  1  0  0  0  0
 48 53  1  0  0  0  0
 49 67  1  0  0  0  0
 50 53  1  0  0  0  0
 50 67  1  0  0  0  0
 51 72  1  0  0  0  0
 52 66  1  0  0  0  0
 53 65  1  0  0  0  0
 55 62  1  0  0  0  0
 56 63  1  0  0  0  0
 57 63  1  0  0  0  0
 58 63  1  0  0  0  0
 59 74  1  0  0  0  0
 60 71  1  0  0  0  0
 61 63  1  0  0  0  0
 61 73  1  0  0  0  0
 62 74  1  0  0  0  0
 64 65  1  0  0  0  0
M  CHG  1  74   1
M  ISO  4  35 101  41 100  70 100  82 101
M  END
> <Batch ID>
0059

> <Smiles>
CNC(C)C(=O)NC(C(=O)N1Cc2cc([101O:1][101CH:1]=CC(=O)NCc3cc([100NH:0][100C:0](=O)N4CCCC(n5nc(-c6ccc(Oc7ccc(F)cc7F)cc6)c(C(N)=O)c5N)C4)ccc3C)ccc2CC1C(=O)NC1CCCc2ccccc21)C(C)(C)C

> <Shape>
0.263

> <Color>
0.125

> <Negative vol penalty>
0.000

$$$$

  -OEChem-04042323013D

 83 91  0     1  0  0  0  0  0999 V2000
  -29.2125  -36.7050   20.1122 C   0  0  0  0  0  0  0  0  0  0  0  0
  -29.4058  -35.3490   19.8683 C   0  0  0  0  0  0  0  0  0  0  0  0
  -24.7935   -8.6728   21.6210 C   0  0  0  0  0  0  0  0  0  0  0  0
  -23.2442  -10.0124   20.3395 C   0  0  0  0  0  0  0  0  0  0  0  0
  -28.3896  -37.1131   21.1611 C   0  0  0  0  0  0  0  0  0  0  0  0
  -28.7771  -34.4004   20.6741 C   0  0  0  0  0  0  0  0  0  0  0  0
  -26.6281  -28.9358   18.9346 C   0  0  0  0  0  0  0  0  0  0  0  0
  -23.7439   -8.2275   22.4245 C   0  0  0  0  0  0  0  0  0  0  0  0
  -22.1946   -9.5671   21.1430 C   0  0  0  0  0  0  0  0  0  0  0  0
  -27.1573  -27.6488   19.0213 C   0  0  0  0  0  0  0  0  0  0  0  0
  -21.2456   -5.9575   22.2272 C   0  0  0  0  0  0  0  0  0  0  0  0
  -21.1856   -4.5949   22.5189 C   0  0  0  0  0  0  0  0  0  0  0  0
  -25.9198  -27.2837   21.0595 C   0  0  0  0  0  0  0  0  0  0  0  0
  -26.9783  -18.5687   18.7166 C   0  0  0  0  0  0  0  0  0  0  0  0
  -25.0817  -19.7332   17.7767 C   0  0  0  0  0  0  0  0  0  0  0  0
  -25.3001  -17.3452   17.4823 C   0  0  0  0  0  0  0  0  0  0  0  0
  -21.3566   -5.0922   24.8770 C   0  0  0  0  0  0  0  0  0  0  0  0
  -24.5437   -9.5653   20.5785 C   0  0  0  0  0  0  0  0  0  0  0  0
  -26.0992   -9.4356   18.5608 C   0  0  0  0  0  0  0  0  0  0  0  0
  -27.7429  -36.1690   21.9741 C   0  0  0  0  0  0  0  0  0  0  0  0
  -25.7477  -29.4110   19.9172 C   0  0  0  0  0  0  0  0  0  0  0  0
  -27.9459  -34.7963   21.7357 C   0  0  0  0  0  0  0  0  0  0  0  0
  -25.3788  -28.5761   20.9817 C   0  0  0  0  0  0  0  0  0  0  0  0
  -26.2734  -19.7529   18.5014 C   0  0  0  0  0  0  0  0  0  0  0  0
  -26.4918  -17.3648   18.2070 C   0  0  0  0  0  0  0  0  0  0  0  0
  -22.4444   -8.6746   22.1855 C   0  0  0  0  0  0  0  0  0  0  0  0
  -26.8055  -26.8236   20.0854 C   0  0  0  0  0  0  0  0  0  0  0  0
  -21.3612   -6.8876   23.2603 C   0  0  0  0  0  0  0  0  0  0  0  0
  -21.2411   -4.1622   23.8438 C   0  0  0  0  0  0  0  0  0  0  0  0
  -24.5950  -18.5293   17.2671 C   0  0  0  0  0  0  0  0  0  0  0  0
  -21.4167   -6.4549   24.5852 C   0  0  0  0  0  0  0  0  0  0  0  0
  -25.6276  -10.0261   19.7485 C   0  0  0  0  0  0  0  0  0  0  0  0
  -27.1317  -10.2479   18.1600 C   0  0  0  0  0  0  0  0  0  0  0  0
  -27.0229  -23.2679   19.5823 C   0  0  0  0  0  0  0  0  0  0  0  0
  -26.6348  -24.5472   19.5760 C   0  0  0  0  0  0  0  0  0  1  0  0
  -25.6445   -8.2582   17.8806 C   0  0  0  0  0  0  0  0  0  0  0  0
  -26.1937  -22.2344   18.8963 C   0  0  0  0  0  0  0  0  0  0  0  0
  -25.8059  -31.7972   22.0164 C   0  0  0  0  0  0  0  0  0  0  0  0
  -22.7572  -30.8494   22.5903 C   0  0  0  0  0  0  0  0  0  0  0  0
  -20.4296  -28.3559   22.4833 C   0  0  0  0  0  0  0  0  0  0  0  0
  -28.4057  -16.0061   19.1219 C   0  0  0  0  0  0  0  0  0  0  0  0
  -26.9005  -36.6582   23.1255 C   0  0  0  0  0  0  0  0  0  0  0  0
  -25.1647  -30.7921   19.7950 C   0  0  0  0  0  0  0  0  0  0  0  0
  -24.4216  -29.0315   22.0517 C   0  0  0  0  0  0  0  0  0  0  0  0
  -25.9732  -35.5897   23.6988 C   0  0  0  0  0  0  0  0  0  0  0  0
  -30.4631  -13.2094   19.9110 C   0  0  0  0  0  0  0  0  0  0  0  0
  -26.7292  -34.2808   23.9036 C   0  0  0  0  0  0  0  0  0  0  0  0
  -29.5008  -12.0212   19.8448 C   0  0  0  0  0  0  0  0  0  0  0  0
  -29.7884  -14.4544   20.4841 C   0  0  0  0  0  0  0  0  0  0  0  0
  -27.5751  -13.6554   19.7546 C   0  0  0  0  0  0  0  0  0  0  0  0
  -27.2615  -33.7370   22.5723 C   0  0  1  0  0  0  0  0  0  0  0  0
  -24.6785  -31.3555   21.1268 C   0  0  1  0  0  0  0  0  0  0  0  0
  -28.1913  -12.3961   19.1236 C   0  0  2  0  0  0  0  0  0  0  0  0
  -18.0352  -27.8703   23.0563 C   0  0  0  0  0  0  0  0  0  0  0  0
  -23.5049  -30.6581   25.5423 C   0  0  0  0  0  0  0  0  0  0  0  0
  -21.4363  -29.2956   25.9063 C   0  0  0  0  0  0  0  0  0  0  0  0
  -21.2518  -31.6487   25.0990 C   0  0  0  0  0  0  0  0  0  0  0  0
  -19.7532  -27.7658   19.6631 C   0  0  0  0  0  0  0  0  0  0  0  0
  -22.1028  -29.8617   23.5259 C   0  0  1  0  0  0  0  0  0  0  0  0
  -18.9992  -28.3343   21.9755 C   0  0  2  0  0  0  0  0  0  0  0  0
  -22.0935  -30.3578   24.9994 C   0  0  0  0  0  0  0  0  0  0  0  0
  -26.3051  -11.1283   20.0807 N   0  0  0  0  0  0  0  0  0  0  0  0
  -27.2129  -11.2367   19.0958 N   0  0  0  0  0  0  0  0  0  0  0  0
  -23.8834  -30.3924   21.8913 N   0  0  0  0  0  0  0  0  0  0  0  0
  -28.5571  -14.7511   19.7487 N   0  0  0  0  0  0  0  0  0  0  0  0
  -27.9691  -10.2054   17.1020 N   0  0  0  0  0  0  0  0  0  0  0  0
  -24.5722   -7.5417   18.4293 N   0  0  0  0  0  0  0  0  0  0  0  0
  -26.7672  -20.9758   19.0184 N   0  0  0  0  0  0  0  0  0  0  0  0
  -27.2078  -16.1617   18.4251 N   0  0  0  0  0  0  0  0  0  0  0  0
  -26.1963  -33.1082   21.8210 N   0  0  0  0  0  0  0  0  0  0  0  0
  -20.7777  -29.5954   22.9767 N   0  0  0  0  0  0  0  0  0  0  0  0
  -18.8771  -27.4136   20.8100 N   0  3  0  0  0  0  0  0  0  0  0  0
  -26.1841   -7.8444   16.8265 O   0  0  0  0  0  0  0  0  0  0  0  0
  -25.1538  -22.5335   18.3212 O   0  0  0  0  0  0  0  0  0  0  0  0
  -26.2851  -31.0074   22.8217 O   0  0  0  0  0  0  0  0  0  0  0  0
  -22.2822  -31.9823   22.4783 O   0  0  0  0  0  0  0  0  0  0  0  0
  -21.1634  -27.3705   22.4493 O   0  0  0  0  0  0  0  0  0  0  0  0
  -29.2863  -16.8684   19.1750 O   0  0  0  0  0  0  0  0  0  0  0  0
  -21.4199   -8.2401   22.9691 O   0  0  0  0  0  0  0  0  0  0  0  0
  -27.3211  -25.5673   20.1728 O   0  0  0  0  0  0  0  0  0  1  0  0
  -21.1818   -2.8536   24.1238 F   0  0  0  0  0  0  0  0  0  0  0  0
  -23.4511  -18.5103   16.5705 F   0  0  0  0  0  0  0  0  0  0  0  0
  -21.5265   -7.3437   25.5821 F   0  0  0  0  0  0  0  0  0  0  0  0
  1  2  1  0  0  0  0
  1  5  2  0  0  0  0
  2  6  2  0  0  0  0
  3  8  2  0  0  0  0
  3 18  1  0  0  0  0
  4  9  1  0  0  0  0
  4 18  2  0  0  0  0
  5 20  1  0  0  0  0
  6 22  1  0  0  0  0
  7 10  2  0  0  0  0
  7 21  1  0  0  0  0
  8 26  1  0  0  0  0
  9 26  2  0  0  0  0
 10 27  1  0  0  0  0
 11 12  2  0  0  0  0
 11 28  1  0  0  0  0
 12 29  1  0  0  0  0
 13 23  1  0  0  0  0
 13 27  2  0  0  0  0
 14 24  2  0  0  0  0
 14 25  1  0  0  0  0
 15 24  1  0  0  0  0
 15 30  2  0  0  0  0
 16 25  2  0  0  0  0
 16 30  1  0  0  0  0
 17 29  2  0  0  0  0
 17 31  1  0  0  0  0
 18 32  1  0  0  0  0
 19 32  1  0  0  0  0
 19 33  2  0  0  0  0
 19 36  1  0  0  0  0
 20 22  2  0  0  0  0
 20 42  1  0  0  0  0
 21 23  2  0  0  0  0
 21 43  1  0  0  0  0
 22 51  1  0  0  0  0
 23 44  1  0  0  0  0
 24 68  1  0  0  0  0
 25 69  1  0  0  0  0
 26 79  1  0  0  0  0
 27 80  1  0  0  0  0
 28 31  2  0  0  0  0
 28 79  1  0  0  0  0
 29 81  1  0  0  0  0
 30 82  1  0  0  0  0
 31 83  1  0  0  0  0
 32 62  2  0  0  0  0
 33 63  1  0  0  0  0
 33 66  1  0  0  0  0
 34 35  2  0  0  0  0
 34 37  1  0  0  0  0
 35 80  1  0  0  0  0
 36 67  1  0  0  0  0
 36 73  2  0  0  0  0
 37 68  1  0  0  0  0
 37 74  2  0  0  0  0
 38 52  1  0  0  0  0
 38 70  1  0  0  0  0
 38 75  2  0  0  0  0
 39 59  1  0  0  0  0
 39 64  1  0  0  0  0
 39 76  2  0  0  0  0
 40 60  1  0  0  0  0
 40 71  1  0  0  0  0
 40 77  2  0  0  0  0
 41 65  1  0  0  0  0
 41 69  1  0  0  0  0
 41 78  2  0  0  0  0
 42 45  1  0  0  0  0
 43 52  1  0  0  0  0
 44 64  1  0  0  0  0
 45 47  1  0  0  0  0
 46 48  1  0  0  0  0
 46 49  1  0  0  0  0
 47 51  1  0  0  0  0
 48 53  1  0  0  0  0
 49 65  1  0  0  0  0
 50 53  1  0  0  0  0
 50 65  1  0  0  0  0
 51 70  1  0  0  0  0
 52 64  1  0  0  0  0
 53 63  1  0  0  0  0
 54 60  1  0  0  0  0
 55 61  1  0  0  0  0
 56 61  1  0  0  0  0
 57 61  1  0  0  0  0
 58 72  1  0  0  0  0
 59 61  1  0  0  0  0
 59 71  1  0  0  0  0
 60 72  1  0  0  0  0
 62 63  1  0  0  0  0
M  CHG  1  72   1
M  ISO  4  35 101  41 100  69 100  80 101
M  END
> <Batch ID>
0059

> <Smiles>
CNC(C)C(=O)NC(C(=O)N1Cc2cc([101O:1][101CH:1]=CC(=O)Nc3cc(F)cc([100NH:0][100C:0](=O)N4CCCC(n5nc(-c6ccc(Oc7ccc(F)cc7F)cc6)c(C(N)=O)c5N)C4)c3)ccc2CC1C(=O)NC1CCCc2ccccc21)C(C)(C)C

> <Shape>
0.273

> <Color>
0.105

> <Negative vol penalty>
0.000

$$$$

  -OEChem-04042323013D

 87 96  0     1  0  0  0  0  0999 V2000
  -25.1114  -25.7387   11.4769 C   0  0  0  0  0  0  0  0  0  0  0  0
  -24.8631  -26.6148   12.5288 C   0  0  0  0  0  0  0  0  0  0  0  0
  -24.0785  -14.2345   22.2715 C   0  0  0  0  0  0  0  0  0  0  0  0
  -25.1603  -15.5127   20.5299 C   0  0  0  0  0  0  0  0  0  0  0  0
  -25.2698  -24.3765   11.7283 C   0  0  0  0  0  0  0  0  0  0  0  0
  -24.7720  -26.1288   13.8326 C   0  0  0  0  0  0  0  0  0  0  0  0
  -26.5793  -28.9625   18.9522 C   0  0  0  0  0  0  0  0  0  0  0  0
  -19.0166  -25.5110   22.9175 C   0  0  0  0  0  0  0  0  0  0  0  0
  -19.1013  -24.3310   22.1786 C   0  0  0  0  0  0  0  0  0  0  0  0
  -24.7398  -13.0852   21.8388 C   0  0  0  0  0  0  0  0  0  0  0  0
  -25.8217  -14.3634   20.0972 C   0  0  0  0  0  0  0  0  0  0  0  0
  -25.8854  -29.6975   19.9124 C   0  0  0  0  0  0  0  0  0  0  0  0
  -28.5019  -12.5315   21.0359 C   0  0  0  0  0  0  0  0  0  0  0  0
  -29.8625  -12.6382   20.7479 C   0  0  0  0  0  0  0  0  0  0  0  0
  -25.7056  -27.7224   21.2857 C   0  0  0  0  0  0  0  0  0  0  0  0
  -21.4264  -25.6844   22.9167 C   0  0  0  0  0  0  0  0  0  0  0  0
  -29.4350  -11.9483   18.4723 C   0  0  0  0  0  0  0  0  0  0  0  0
  -24.2886  -15.4483   21.6170 C   0  0  0  0  0  0  0  0  0  0  0  0
  -24.0525  -17.5643   23.0221 C   0  0  0  0  0  0  0  0  0  0  0  0
  -25.1902  -23.8750   13.0370 C   0  0  0  0  0  0  0  0  0  0  0  0
  -26.8325  -27.5970   19.1469 C   0  0  0  0  0  0  0  0  0  0  0  0
  -24.9282  -24.7584   14.1016 C   0  0  0  0  0  0  0  0  0  0  0  0
  -26.4052  -26.9729   20.3276 C   0  0  0  0  0  0  0  0  0  0  0  0
  -20.1792  -26.1878   23.2865 C   0  0  0  0  0  0  0  0  0  0  0  0
  -21.5111  -24.5044   22.1778 C   0  0  0  0  0  0  0  0  0  0  0  0
  -20.3485  -23.8276   21.8088 C   0  0  0  0  0  0  0  0  0  0  0  0
  -25.6115  -13.1496   20.7517 C   0  0  0  0  0  0  0  0  0  0  0  0
  -25.4459  -29.0769   21.0780 C   0  0  0  0  0  0  0  0  0  0  0  0
  -27.6078  -12.1331   20.0421 C   0  0  0  0  0  0  0  0  0  0  0  0
  -30.3290  -12.3466   19.4661 C   0  0  0  0  0  0  0  0  0  0  0  0
  -28.0743  -11.8415   18.7603 C   0  0  0  0  0  0  0  0  0  0  0  0
  -23.6053  -16.6358   22.0631 C   0  0  0  0  0  0  0  0  0  0  0  0
  -23.0503  -18.5013   23.0862 C   0  0  0  0  0  0  0  0  0  0  0  0
  -20.8587  -30.1791   21.5466 C   0  0  0  0  0  0  0  0  0  0  0  0
  -22.0277  -30.6277   22.0152 C   0  0  0  0  0  0  0  0  0  0  0  0
  -20.1811  -29.0080   22.1633 C   0  0  0  0  0  0  0  0  0  0  0  0
  -25.2653  -17.5785   23.7866 C   0  0  0  0  0  0  0  0  0  0  0  0
  -26.0196  -24.9259   17.6277 C   0  0  0  0  0  0  0  0  0  0  0  0
  -28.0315  -23.5561   19.7720 C   0  0  0  0  0  0  0  0  0  0  0  0
  -29.5750  -23.7200   22.8114 C   0  0  0  0  0  0  0  0  0  0  0  0
  -19.3446  -21.8463   20.6200 C   0  0  0  0  0  0  0  0  0  0  0  0
  -25.3213  -22.3882   13.2539 C   0  0  0  0  0  0  0  0  0  0  0  0
  -27.6057  -26.8244   18.1137 C   0  0  0  0  0  0  0  0  0  0  0  0
  -26.6693  -25.5142   20.5939 C   0  0  0  0  0  0  0  0  0  0  0  0
  -25.5826  -22.0056   14.7084 C   0  0  0  0  0  0  0  0  0  0  0  0
  -18.3746  -18.4614   21.1477 C   0  0  0  0  0  0  0  0  0  0  0  0
  -24.6346  -22.7579   15.6369 C   0  0  0  0  0  0  0  0  0  0  0  0
  -19.6857  -17.7611   21.5118 C   0  0  0  0  0  0  0  0  0  0  0  0
  -18.5838  -19.5414   20.0877 C   0  0  0  0  0  0  0  0  0  0  0  0
  -21.6703  -29.3732   24.1291 C   0  0  0  0  0  0  0  0  0  0  0  0
  -20.9337  -19.8293   20.7690 C   0  0  0  0  0  0  0  0  0  0  0  0
  -24.8470  -24.2729   15.5326 C   0  0  1  0  0  0  0  0  0  0  0  0
  -22.7012  -30.0495   23.2234 C   0  0  1  0  0  0  0  0  0  0  0  0
  -27.3587  -25.3206   18.1836 C   0  0  1  0  0  0  0  0  0  0  0  0
  -20.7841  -18.7776   21.8803 C   0  0  2  0  0  0  0  0  0  0  0  0
  -22.8606  -23.9867   21.7980 C   0  0  0  0  0  0  0  0  0  0  0  0
  -31.1304  -22.4341   24.3028 C   0  0  0  0  0  0  0  0  0  0  0  0
  -25.7549  -21.6636   20.5105 C   0  0  0  0  0  0  0  0  0  0  0  0
  -27.0145  -21.0725   22.5920 C   0  0  0  0  0  0  0  0  0  0  0  0
  -28.0035  -20.5800   20.3555 C   0  0  0  0  0  0  0  0  0  0  0  0
  -31.5903  -25.8870   22.7725 C   0  0  0  0  0  0  0  0  0  0  0  0
  -20.0879  -27.4566   24.0839 C   0  0  0  0  0  0  0  0  0  0  0  0
  -23.8112  -29.0854   22.8053 C   0  0  0  0  0  0  0  0  0  1  0  0
  -27.8830  -22.9747   21.1573 C   0  0  1  0  0  0  0  0  0  0  0  0
  -31.0196  -23.4970   23.2209 C   0  0  2  0  0  0  0  0  0  0  0  0
  -27.1571  -21.5997   21.1482 C   0  0  0  0  0  0  0  0  0  0  0  0
  -22.4119  -16.9539   21.5546 N   0  0  0  0  0  0  0  0  0  0  0  0
  -22.1006  -18.0928   22.1966 N   0  0  0  0  0  0  0  0  0  0  0  0
  -20.6909  -28.5822   23.3868 N   0  0  0  0  0  0  0  0  0  0  0  0
  -27.4237  -24.8000   19.5507 N   0  0  0  0  0  0  0  0  0  0  0  0
  -19.6355  -20.4703   20.5071 N   0  0  0  0  0  0  0  0  0  0  0  0
  -22.8976  -19.6266   23.8162 N   0  0  0  0  0  0  0  0  0  0  0  0
  -26.1867  -16.5395   23.5974 N   0  0  0  0  0  0  0  0  0  0  0  0
  -20.4134  -22.6275   21.0583 N   0  0  0  0  0  0  0  0  0  0  0  0
  -26.0275  -24.6697   16.2699 N   0  0  0  0  0  0  0  0  0  0  0  0
  -29.2239  -22.9387   21.7309 N   0  0  0  0  0  0  0  0  0  0  0  0
  -31.6114  -24.7616   23.7420 N   0  3  0  0  0  0  0  0  0  0  0  0
  -19.2376  -28.4912   21.5663 O   0  0  0  0  0  0  0  0  0  0  0  0
  -25.5170  -18.4770   24.6250 O   0  0  0  0  0  0  0  0  0  0  0  0
  -25.0514  -24.8574   18.3757 O   0  0  0  0  0  0  0  0  0  0  0  0
  -28.6696  -22.9329   18.9199 O   0  0  0  0  0  0  0  0  0  0  0  0
  -28.8311  -24.5058   23.3943 O   0  0  0  0  0  0  0  0  0  0  0  0
  -18.2219  -22.2946   20.3741 O   0  0  0  0  0  0  0  0  0  0  0  0
  -26.2572  -12.0283   20.3293 O   0  0  0  0  0  0  0  0  0  0  0  0
  -24.7678  -29.7918   22.0165 O   0  0  0  0  0  0  0  0  0  1  0  0
  -31.6355  -12.4507   19.1893 F   0  0  0  0  0  0  0  0  0  0  0  0
  -27.2200  -11.4595   17.8011 F   0  0  0  0  0  0  0  0  0  0  0  0
  1  2  1  0  0  0  0
  1  5  2  0  0  0  0
  2  6  2  0  0  0  0
  3 10  2  0  0  0  0
  3 18  1  0  0  0  0
  4 11  1  0  0  0  0
  4 18  2  0  0  0  0
  5 20  1  0  0  0  0
  6 22  1  0  0  0  0
  7 12  2  0  0  0  0
  7 21  1  0  0  0  0
  8  9  2  0  0  0  0
  8 24  1  0  0  0  0
  9 26  1  0  0  0  0
 10 27  1  0  0  0  0
 11 27  2  0  0  0  0
 12 28  1  0  0  0  0
 13 14  2  0  0  0  0
 13 29  1  0  0  0  0
 14 30  1  0  0  0  0
 15 23  1  0  0  0  0
 15 28  2  0  0  0  0
 16 24  2  0  0  0  0
 16 25  1  0  0  0  0
 17 30  2  0  0  0  0
 17 31  1  0  0  0  0
 18 32  1  0  0  0  0
 19 32  1  0  0  0  0
 19 33  2  0  0  0  0
 19 37  1  0  0  0  0
 20 22  2  0  0  0  0
 20 42  1  0  0  0  0
 21 23  2  0  0  0  0
 21 43  1  0  0  0  0
 22 52  1  0  0  0  0
 23 44  1  0  0  0  0
 24 62  1  0  0  0  0
 25 26  2  0  0  0  0
 25 56  1  0  0  0  0
 26 74  1  0  0  0  0
 27 84  1  0  0  0  0
 28 85  1  0  0  0  0
 29 31  2  0  0  0  0
 29 84  1  0  0  0  0
 30 86  1  0  0  0  0
 31 87  1  0  0  0  0
 32 67  2  0  0  0  0
 33 68  1  0  0  0  0
 33 72  1  0  0  0  0
 34 35  2  0  0  0  0
 34 36  1  0  0  0  0
 35 53  1  0  0  0  0
 36 69  1  0  0  0  0
 36 78  2  0  0  0  0
 37 73  1  0  0  0  0
 37 79  2  0  0  0  0
 38 54  1  0  0  0  0
 38 75  1  0  0  0  0
 38 80  2  0  0  0  0
 39 64  1  0  0  0  0
 39 70  1  0  0  0  0
 39 81  2  0  0  0  0
 40 65  1  0  0  0  0
 40 76  1  0  0  0  0
 40 82  2  0  0  0  0
 41 71  1  0  0  0  0
 41 74  1  0  0  0  0
 41 83  2  0  0  0  0
 42 45  1  0  0  0  0
 43 54  1  0  0  0  0
 44 70  1  0  0  0  0
 45 47  1  0  0  0  0
 46 48  1  0  0  0  0
 46 49  1  0  0  0  0
 47 52  1  0  0  0  0
 48 55  1  0  0  0  0
 49 71  1  0  0  0  0
 50 53  1  0  0  0  0
 50 69  1  0  0  0  0
 51 55  1  0  0  0  0
 51 71  1  0  0  0  0
 52 75  1  0  0  0  0
 53 63  1  0  0  0  0
 54 70  1  0  0  0  0
 55 68  1  0  0  0  0
 57 65  1  0  0  0  0
 58 66  1  0  0  0  0
 59 66  1  0  0  0  0
 60 66  1  0  0  0  0
 61 77  1  0  0  0  0
 62 69  1  0  0  0  0
 63 85  1  0  0  0  0
 64 66  1  0  0  0  0
 64 76  1  0  0  0  0
 65 77  1  0  0  0  0
 67 68  1  0  0  0  0
M  CHG  1  77   1
M  ISO  4  41 100  63 101  74 100  85 101
M  END
> <Batch ID>
0059

> <Smiles>
CNC(C)C(=O)NC(C(=O)N1Cc2cc([101O:1][101CH2:1]C3=CCC(=O)N(Cc4ccc([100NH:0][100C:0](=O)N5CCCC(n6nc(-c7ccc(Oc8ccc(F)cc8F)cc7)c(C(N)=O)c6N)C5)c(C)c4)C3)ccc2CC1C(=O)NC1CCCc2ccccc21)C(C)(C)C

> <Shape>
0.188

> <Color>
0.065

> <Negative vol penalty>
0.000

$$$$

  -OEChem-04042323013D

 86 94  0     1  0  0  0  0  0999 V2000
  -22.2297  -26.9168   19.8741 C   0  0  0  0  0  0  0  0  0  0  0  0
  -23.4203  -26.1972   19.8787 C   0  0  0  0  0  0  0  0  0  0  0  0
  -23.2796   -9.8347   19.9767 C   0  0  0  0  0  0  0  0  0  0  0  0
  -23.6924  -10.0656   22.3460 C   0  0  0  0  0  0  0  0  0  0  0  0
  -22.2201  -28.2491   20.2848 C   0  0  0  0  0  0  0  0  0  0  0  0
  -24.6024  -26.8100   20.2931 C   0  0  0  0  0  0  0  0  0  0  0  0
  -27.3196  -23.8835   23.4071 C   0  0  0  0  0  0  0  0  0  0  0  0
  -22.5352   -8.6802   20.2189 C   0  0  0  0  0  0  0  0  0  0  0  0
  -22.9479   -8.9111   22.5882 C   0  0  0  0  0  0  0  0  0  0  0  0
  -28.0635  -22.8563   22.8281 C   0  0  0  0  0  0  0  0  0  0  0  0
  -19.6865   -8.0482   22.7860 C   0  0  0  0  0  0  0  0  0  0  0  0
  -18.7663   -8.0802   23.8337 C   0  0  0  0  0  0  0  0  0  0  0  0
  -30.0486  -24.2190   22.9758 C   0  0  0  0  0  0  0  0  0  0  0  0
  -32.1902  -14.6768   23.5922 C   0  0  0  0  0  0  0  0  0  0  0  0
  -30.5967  -13.6661   25.1010 C   0  0  0  0  0  0  0  0  0  0  0  0
  -19.9321   -6.2601   24.9133 C   0  0  0  0  0  0  0  0  0  0  0  0
  -23.8583  -10.5273   21.0403 C   0  0  0  0  0  0  0  0  0  0  0  0
  -24.1527  -13.0440   20.7446 C   0  0  0  0  0  0  0  0  0  0  0  0
  -23.4009  -28.8757   20.7136 C   0  0  0  0  0  0  0  0  0  0  0  0
  -27.9335  -25.0922   23.7654 C   0  0  0  0  0  0  0  0  0  0  0  0
  -24.6088  -28.1524   20.7087 C   0  0  0  0  0  0  0  0  0  0  0  0
  -29.3107  -25.2589   23.5615 C   0  0  0  0  0  0  0  0  0  0  0  0
  -32.6720  -15.4707   24.6329 C   0  0  0  0  0  0  0  0  0  0  0  0
  -32.1163  -15.3623   25.9077 C   0  0  0  0  0  0  0  0  0  0  0  0
  -31.1524  -13.7745   23.8263 C   0  0  0  0  0  0  0  0  0  0  0  0
  -22.3693   -8.2184   21.5246 C   0  0  0  0  0  0  0  0  0  0  0  0
  -29.4276  -23.0250   22.6097 C   0  0  0  0  0  0  0  0  0  0  0  0
  -20.7296   -7.1221   22.8019 C   0  0  0  0  0  0  0  0  0  0  0  0
  -18.8891   -7.1862   24.8974 C   0  0  0  0  0  0  0  0  0  0  0  0
  -31.0786  -14.4600   26.1418 C   0  0  0  0  0  0  0  0  0  0  0  0
  -20.8524   -6.2281   23.8655 C   0  0  0  0  0  0  0  0  0  0  0  0
  -24.6278  -11.7196   20.7907 C   0  0  0  0  0  0  0  0  0  0  0  0
  -25.2680  -13.7998   20.4775 C   0  0  0  0  0  0  0  0  0  0  0  0
  -32.4405  -19.7873   23.3110 C   0  0  0  0  0  0  0  0  0  0  0  0
  -31.9687  -20.5083   22.2848 C   0  0  0  0  0  0  0  0  0  0  0  0
  -22.8221  -13.5461   20.9271 C   0  0  0  0  0  0  0  0  0  0  0  0
  -32.8640  -18.3746   23.1060 C   0  0  0  0  0  0  0  0  0  0  0  0
  -27.5959  -28.1273   22.8835 C   0  0  0  0  0  0  0  0  0  0  0  0
  -29.7214  -28.6527   25.2769 C   0  0  0  0  0  0  0  0  0  0  0  0
  -32.2155  -27.4266   27.2577 C   0  0  0  0  0  0  0  0  0  0  0  0
  -31.1028  -12.9505   21.4462 C   0  0  0  0  0  0  0  0  0  0  0  0
  -23.3497  -30.3317   21.1036 C   0  0  0  0  0  0  0  0  0  0  0  0
  -27.1222  -26.1804   24.4136 C   0  0  0  0  0  0  0  0  0  0  0  0
  -30.0213  -26.5297   23.9470 C   0  0  0  0  0  0  0  0  0  0  0  0
  -24.5766  -30.7968   21.8836 C   0  0  0  0  0  0  0  0  0  0  0  0
  -29.5301  -13.5490   18.3084 C   0  0  0  0  0  0  0  0  0  0  0  0
  -25.8547  -30.3069   21.2103 C   0  0  0  0  0  0  0  0  0  0  0  0
  -28.0505  -13.2742   18.5862 C   0  0  0  0  0  0  0  0  0  0  0  0
  -30.4389  -12.5925   19.0784 C   0  0  0  0  0  0  0  0  0  0  0  0
  -28.7117  -12.2551   20.8024 C   0  0  0  0  0  0  0  0  0  0  0  0
  -25.9071  -28.7748   21.1748 C   0  0  1  0  0  0  0  0  0  0  0  0
  -27.7513  -27.5625   24.2671 C   0  0  1  0  0  0  0  0  0  0  0  0
  -27.7588  -13.2356   20.0992 C   0  0  2  0  0  0  0  0  0  0  0  0
  -32.6188  -16.2025   27.0357 C   0  0  0  0  0  0  0  0  0  0  0  0
  -33.7843  -28.1038   29.0955 C   0  0  0  0  0  0  0  0  0  0  0  0
  -31.4365  -30.1612   23.2537 C   0  0  0  0  0  0  0  0  0  0  0  0
  -33.3563  -29.9797   24.8505 C   0  0  0  0  0  0  0  0  0  0  0  0
  -31.3015  -31.2309   25.5103 C   0  0  0  0  0  0  0  0  0  0  0  0
  -31.0934  -25.4141   29.1149 C   0  0  0  0  0  0  0  0  0  0  0  0
  -33.7899  -16.4343   24.3573 C   0  0  0  0  0  0  0  0  0  0  0  0
  -31.5306  -21.9315   22.4158 C   0  0  0  0  0  0  0  0  0  1  0  0
  -31.2268  -28.7072   25.3770 C   0  0  1  0  0  0  0  0  0  0  0  0
  -32.4337  -27.4914   28.7585 C   0  0  2  0  0  0  0  0  0  0  0  0
  -31.8168  -29.9964   24.7387 C   0  0  0  0  0  0  0  0  0  0  0  0
  -25.9425  -11.6356   20.5704 N   0  0  0  0  0  0  0  0  0  0  0  0
  -26.3029  -12.9166   20.3832 N   0  0  0  0  0  0  0  0  0  0  0  0
  -29.1836  -27.5667   24.5717 N   0  0  0  0  0  0  0  0  0  0  0  0
  -30.1077  -12.6121   20.5049 N   0  0  0  0  0  0  0  0  0  0  0  0
  -25.4545  -15.1271   20.3164 N   0  0  0  0  0  0  0  0  0  0  0  0
  -21.7939  -12.6320   21.1945 N   0  0  0  0  0  0  0  0  0  0  0  0
  -30.6629  -12.9677   22.7693 N   0  0  0  0  0  0  0  0  0  0  0  0
  -33.3207  -17.7996   24.2798 N   0  0  0  0  0  0  0  0  0  0  0  0
  -26.2830  -28.2518   22.4708 N   0  0  0  0  0  0  0  0  0  0  0  0
  -31.5483  -28.5390   26.7900 N   0  0  0  0  0  0  0  0  0  0  0  0
  -32.3767  -26.1246   29.3497 N   0  3  0  0  0  0  0  0  0  0  0  0
  -22.5502  -14.7675   20.8388 O   0  0  0  0  0  0  0  0  0  0  0  0
  -32.7998  -17.8193   22.0142 O   0  0  0  0  0  0  0  0  0  0  0  0
  -28.5932  -28.4294   22.2386 O   0  0  0  0  0  0  0  0  0  0  0  0
  -29.0474  -29.5370   25.8110 O   0  0  0  0  0  0  0  0  0  0  0  0
  -32.6018  -26.4852   26.5684 O   0  0  0  0  0  0  0  0  0  0  0  0
  -32.2532  -13.2327   21.1013 O   0  0  0  0  0  0  0  0  0  0  0  0
  -21.6428   -7.0921   21.7613 O   0  0  0  0  0  0  0  0  0  0  0  0
  -30.1560  -22.0243   22.0441 O   0  0  0  0  0  0  0  0  0  1  0  0
  -18.0062   -7.2181   25.9042 F   0  0  0  0  0  0  0  0  0  0  0  0
  -30.5394  -14.3464   27.3637 F   0  0  0  0  0  0  0  0  0  0  0  0
  -21.8530   -5.3369   23.8869 F   0  0  0  0  0  0  0  0  0  0  0  0
  1  2  1  0  0  0  0
  1  5  2  0  0  0  0
  2  6  2  0  0  0  0
  3  8  2  0  0  0  0
  3 17  1  0  0  0  0
  4  9  1  0  0  0  0
  4 17  2  0  0  0  0
  5 19  1  0  0  0  0
  6 21  1  0  0  0  0
  7 10  2  0  0  0  0
  7 20  1  0  0  0  0
  8 26  1  0  0  0  0
  9 26  2  0  0  0  0
 10 27  1  0  0  0  0
 11 12  2  0  0  0  0
 11 28  1  0  0  0  0
 12 29  1  0  0  0  0
 13 22  1  0  0  0  0
 13 27  2  0  0  0  0
 14 23  1  0  0  0  0
 14 25  2  0  0  0  0
 15 25  1  0  0  0  0
 15 30  2  0  0  0  0
 16 29  2  0  0  0  0
 16 31  1  0  0  0  0
 17 32  1  0  0  0  0
 18 32  1  0  0  0  0
 18 33  2  0  0  0  0
 18 36  1  0  0  0  0
 19 21  2  0  0  0  0
 19 42  1  0  0  0  0
 20 22  2  0  0  0  0
 20 43  1  0  0  0  0
 21 51  1  0  0  0  0
 22 44  1  0  0  0  0
 23 24  2  0  0  0  0
 23 60  1  0  0  0  0
 24 30  1  0  0  0  0
 24 54  1  0  0  0  0
 25 71  1  0  0  0  0
 26 82  1  0  0  0  0
 27 83  1  0  0  0  0
 28 31  2  0  0  0  0
 28 82  1  0  0  0  0
 29 84  1  0  0  0  0
 30 85  1  0  0  0  0
 31 86  1  0  0  0  0
 32 65  2  0  0  0  0
 33 66  1  0  0  0  0
 33 69  1  0  0  0  0
 34 35  2  0  0  0  0
 34 37  1  0  0  0  0
 35 61  1  0  0  0  0
 36 70  1  0  0  0  0
 36 76  2  0  0  0  0
 37 72  1  0  0  0  0
 37 77  2  0  0  0  0
 38 52  1  0  0  0  0
 38 73  1  0  0  0  0
 38 78  2  0  0  0  0
 39 62  1  0  0  0  0
 39 67  1  0  0  0  0
 39 79  2  0  0  0  0
 40 63  1  0  0  0  0
 40 74  1  0  0  0  0
 40 80  2  0  0  0  0
 41 68  1  0  0  0  0
 41 71  1  0  0  0  0
 41 81  2  0  0  0  0
 42 45  1  0  0  0  0
 43 52  1  0  0  0  0
 44 67  1  0  0  0  0
 45 47  1  0  0  0  0
 46 48  1  0  0  0  0
 46 49  1  0  0  0  0
 47 51  1  0  0  0  0
 48 53  1  0  0  0  0
 49 68  1  0  0  0  0
 50 53  1  0  0  0  0
 50 68  1  0  0  0  0
 51 73  1  0  0  0  0
 52 67  1  0  0  0  0
 53 66  1  0  0  0  0
 55 63  1  0  0  0  0
 56 64  1  0  0  0  0
 57 64  1  0  0  0  0
 58 64  1  0  0  0  0
 59 75  1  0  0  0  0
 60 72  1  0  0  0  0
 61 83  1  0  0  0  0
 62 64  1  0  0  0  0
 62 74  1  0  0  0  0
 63 75  1  0  0  0  0
 65 66  1  0  0  0  0
M  CHG  1  75   1
M  ISO  4  41 100  61 101  71 100  83 101
M  END
> <Batch ID>
0059

> <Smiles>
CNC(C)C(=O)NC(C(=O)N1Cc2cc([101O:1][101CH2:1]C=CC(=O)NCc3cc([100NH:0][100C:0](=O)N4CCCC(n5nc(-c6ccc(Oc7ccc(F)cc7F)cc6)c(C(N)=O)c5N)C4)cc(F)c3C)ccc2CC1C(=O)NC1CCCc2ccccc21)C(C)(C)C

> <Shape>
0.193

> <Color>
0.189

> <Negative vol penalty>
0.000

$$$$

  -OEChem-04042323013D

 86 94  0     1  0  0  0  0  0999 V2000
  -29.3411  -12.4446   18.9934 C   0  0  0  0  0  0  0  0  0  0  0  0
  -28.6550  -13.3102   18.1477 C   0  0  0  0  0  0  0  0  0  0  0  0
  -18.5386  -28.1405   23.8185 C   0  0  0  0  0  0  0  0  0  0  0  0
  -28.9864  -24.6501   20.1652 C   0  0  0  0  0  0  0  0  0  0  0  0
  -26.8547  -23.8021   19.4077 C   0  0  0  0  0  0  0  0  0  0  0  0
  -28.7270  -11.9717   20.1524 C   0  0  0  0  0  0  0  0  0  0  0  0
  -27.3539  -13.7027   18.4599 C   0  0  0  0  0  0  0  0  0  0  0  0
  -22.9009  -19.2783   17.8277 C   0  0  0  0  0  0  0  0  0  0  0  0
  -17.9092  -27.3001   22.9002 C   0  0  0  0  0  0  0  0  0  0  0  0
  -19.8273  -28.6102   23.5647 C   0  0  0  0  0  0  0  0  0  0  0  0
  -29.4580  -23.3443   20.2997 C   0  0  0  0  0  0  0  0  0  0  0  0
  -27.3263  -22.4963   19.5421 C   0  0  0  0  0  0  0  0  0  0  0  0
  -21.6209  -19.5879   17.3700 C   0  0  0  0  0  0  0  0  0  0  0  0
  -29.2951  -20.3696   17.8039 C   0  0  0  0  0  0  0  0  0  0  0  0
  -29.0296  -19.4762   16.7662 C   0  0  0  0  0  0  0  0  0  0  0  0
  -20.6896  -18.7701   19.4396 C   0  0  0  0  0  0  0  0  0  0  0  0
  -19.8572  -27.3988   21.4746 C   0  0  0  0  0  0  0  0  0  0  0  0
  -27.8219  -18.0532   18.3004 C   0  0  0  0  0  0  0  0  0  0  0  0
  -27.6847  -24.8790   19.7193 C   0  0  0  0  0  0  0  0  0  0  0  0
  -27.2762  -27.0473   18.4390 C   0  0  0  0  0  0  0  0  0  0  0  0
  -27.4212  -12.3662   20.4839 C   0  0  0  0  0  0  0  0  0  0  0  0
  -23.0843  -18.7012   19.0925 C   0  0  0  0  0  0  0  0  0  0  0  0
  -26.7212  -13.2336   19.6236 C   0  0  0  0  0  0  0  0  0  0  0  0
  -21.9731  -18.4565   19.9120 C   0  0  0  0  0  0  0  0  0  0  0  0
  -18.5685  -26.9292   21.7283 C   0  0  0  0  0  0  0  0  0  0  0  0
  -20.4866  -28.2393   22.3928 C   0  0  0  0  0  0  0  0  0  0  0  0
  -28.6280  -22.2674   19.9881 C   0  0  0  0  0  0  0  0  0  0  0  0
  -20.5148  -19.3312   18.1748 C   0  0  0  0  0  0  0  0  0  0  0  0
  -28.8242  -20.1048   19.0899 C   0  0  0  0  0  0  0  0  0  0  0  0
  -28.2929  -18.3180   17.0144 C   0  0  0  0  0  0  0  0  0  0  0  0
  -28.0875  -18.9466   19.3381 C   0  0  0  0  0  0  0  0  0  0  0  0
  -27.1967  -26.2276   19.5807 C   0  0  0  0  0  0  0  0  0  0  0  0
  -26.6735  -28.2222   18.8171 C   0  0  0  0  0  0  0  0  0  0  0  0
  -17.5568  -21.3105   17.6277 C   0  0  0  0  0  0  0  0  0  0  0  0
  -18.7670  -20.8757   18.0007 C   0  0  0  0  0  0  0  0  0  1  0  0
  -27.8439  -26.7714   17.1516 C   0  0  0  0  0  0  0  0  0  0  0  0
  -17.4715  -24.7349   18.8812 C   0  0  0  0  0  0  0  0  0  0  0  0
  -18.4435  -25.6232   19.6021 C   0  0  0  0  0  0  0  0  0  0  0  0
  -24.2728  -15.9500   20.1519 C   0  0  0  0  0  0  0  0  0  0  0  0
  -23.8367  -17.3283   23.0557 C   0  0  0  0  0  0  0  0  0  0  0  0
  -22.1806  -19.6352   24.9484 C   0  0  0  0  0  0  0  0  0  0  0  0
  -22.5619  -29.5576   22.9422 C   0  0  0  0  0  0  0  0  0  0  0  0
  -26.7818  -11.7914   21.7230 C   0  0  0  0  0  0  0  0  0  0  0  0
  -24.4737  -18.3978   19.5824 C   0  0  0  0  0  0  0  0  0  0  0  0
  -22.1179  -17.8569   21.2861 C   0  0  0  0  0  0  0  0  0  0  0  0
  -25.5371  -12.5512   22.1745 C   0  0  0  0  0  0  0  0  0  0  0  0
  -25.8374  -30.9282   22.6789 C   0  0  0  0  0  0  0  0  0  0  0  0
  -24.6191  -12.8253   20.9875 C   0  0  0  0  0  0  0  0  0  0  0  0
  -26.5632  -29.9562   21.7457 C   0  0  0  0  0  0  0  0  0  0  0  0
  -24.8669  -30.2030   23.6095 C   0  0  0  0  0  0  0  0  0  0  0  0
  -24.6297  -28.3494   22.0042 C   0  0  0  0  0  0  0  0  0  0  0  0
  -25.3176  -13.7017   19.9408 C   0  0  1  0  0  0  0  0  0  0  0  0
  -24.5023  -17.3381   20.6795 C   0  0  1  0  0  0  0  0  0  0  0  0
  -25.5704  -29.0402   21.0035 C   0  0  2  0  0  0  0  0  0  0  0  0
  -16.1489  -25.3430   18.5129 C   0  0  0  0  0  0  0  0  0  0  0  0
  -22.0133  -20.5020   27.2975 C   0  0  0  0  0  0  0  0  0  0  0  0
  -22.2494  -14.8482   23.8553 C   0  0  0  0  0  0  0  0  0  0  0  0
  -21.3319  -16.1447   25.7906 C   0  0  0  0  0  0  0  0  0  0  0  0
  -23.7845  -15.7201   25.6266 C   0  0  0  0  0  0  0  0  0  0  0  0
  -23.0095  -22.3551   24.1273 C   0  0  0  0  0  0  0  0  0  0  0  0
  -16.9703  -22.6620   17.9009 C   0  0  0  0  0  0  0  0  0  0  0  0
  -22.7064  -17.3814   24.0550 C   0  0  1  0  0  0  0  0  0  0  0  0
  -22.6800  -20.6696   25.9410 C   0  0  2  0  0  0  0  0  0  0  0  0
  -22.5148  -16.0331   24.8053 C   0  0  0  0  0  0  0  0  0  0  0  0
  -26.5914  -26.8307   20.6073 N   0  0  0  0  0  0  0  0  0  0  0  0
  -17.8825  -23.5449   18.6290 N   0  0  0  0  0  0  0  0  0  0  0  0
  -26.2851  -28.0419   20.1121 N   0  0  0  0  0  0  0  0  0  0  0  0
  -23.4963  -17.5719   21.7176 N   0  0  0  0  0  0  0  0  0  0  0  0
  -23.9546  -29.3578   22.8361 N   0  0  0  0  0  0  0  0  0  0  0  0
  -26.4433  -29.3815   18.1650 N   0  0  0  0  0  0  0  0  0  0  0  0
  -28.4228  -25.5140   16.9323 N   0  0  0  0  0  0  0  0  0  0  0  0
  -17.9296  -26.0776   20.7976 N   0  0  0  0  0  0  0  0  0  0  0  0
  -21.7957  -28.7168   22.1356 N   0  0  0  0  0  0  0  0  0  0  0  0
  -25.3289  -15.0850   20.3662 N   0  0  0  0  0  0  0  0  0  0  0  0
  -22.9862  -18.5164   24.9279 N   0  0  0  0  0  0  0  0  0  0  0  0
  -22.3943  -22.0451   25.4435 N   0  3  0  0  0  0  0  0  0  0  0  0
  -27.8526  -27.6207   16.2285 O   0  0  0  0  0  0  0  0  0  0  0  0
  -19.5130  -25.8290   19.0536 O   0  0  0  0  0  0  0  0  0  0  0  0
  -23.2154  -15.6832   19.5931 O   0  0  0  0  0  0  0  0  0  0  0  0
  -24.9807  -17.0869   23.4490 O   0  0  0  0  0  0  0  0  0  0  0  0
  -21.1742  -19.8015   24.2628 O   0  0  0  0  0  0  0  0  0  0  0  0
  -22.0852  -30.4299   23.6728 O   0  0  0  0  0  0  0  0  0  0  0  0
  -29.0880  -20.9931   20.1189 O   0  0  0  0  0  0  0  0  0  0  0  0
  -19.2642  -19.6318   17.7302 O   0  0  0  0  0  0  0  0  0  1  0  0
  -28.0366  -17.4609   16.0175 F   0  0  0  0  0  0  0  0  0  0  0  0
  -27.6314  -18.6874   20.5713 F   0  0  0  0  0  0  0  0  0  0  0  0
  1  2  1  0  0  0  0
  1  6  2  0  0  0  0
  2  7  2  0  0  0  0
  3  9  2  0  0  0  0
  3 10  1  0  0  0  0
  4 11  2  0  0  0  0
  4 19  1  0  0  0  0
  5 12  1  0  0  0  0
  5 19  2  0  0  0  0
  6 21  1  0  0  0  0
  7 23  1  0  0  0  0
  8 13  2  0  0  0  0
  8 22  1  0  0  0  0
  9 25  1  0  0  0  0
 10 26  2  0  0  0  0
 11 27  1  0  0  0  0
 12 27  2  0  0  0  0
 13 28  1  0  0  0  0
 14 15  2  0  0  0  0
 14 29  1  0  0  0  0
 15 30  1  0  0  0  0
 16 24  1  0  0  0  0
 16 28  2  0  0  0  0
 17 25  2  0  0  0  0
 17 26  1  0  0  0  0
 18 30  2  0  0  0  0
 18 31  1  0  0  0  0
 19 32  1  0  0  0  0
 20 32  1  0  0  0  0
 20 33  2  0  0  0  0
 20 36  1  0  0  0  0
 21 23  2  0  0  0  0
 21 43  1  0  0  0  0
 22 24  2  0  0  0  0
 22 44  1  0  0  0  0
 23 52  1  0  0  0  0
 24 45  1  0  0  0  0
 25 72  1  0  0  0  0
 26 73  1  0  0  0  0
 27 83  1  0  0  0  0
 28 84  1  0  0  0  0
 29 31  2  0  0  0  0
 29 83  1  0  0  0  0
 30 85  1  0  0  0  0
 31 86  1  0  0  0  0
 32 65  2  0  0  0  0
 33 67  1  0  0  0  0
 33 70  1  0  0  0  0
 34 35  2  0  0  0  0
 34 61  1  0  0  0  0
 35 84  1  0  0  0  0
 36 71  1  0  0  0  0
 36 77  2  0  0  0  0
 37 38  1  0  0  0  0
 37 55  1  0  0  0  0
 37 66  2  0  0  0  0
 38 72  1  0  0  0  0
 38 78  2  0  0  0  0
 39 53  1  0  0  0  0
 39 74  1  0  0  0  0
 39 79  2  0  0  0  0
 40 62  1  0  0  0  0
 40 68  1  0  0  0  0
 40 80  2  0  0  0  0
 41 63  1  0  0  0  0
 41 75  1  0  0  0  0
 41 81  2  0  0  0  0
 42 69  1  0  0  0  0
 42 73  1  0  0  0  0
 42 82  2  0  0  0  0
 43 46  1  0  0  0  0
 44 53  1  0  0  0  0
 45 68  1  0  0  0  0
 46 48  1  0  0  0  0
 47 49  1  0  0  0  0
 47 50  1  0  0  0  0
 48 52  1  0  0  0  0
 49 54  1  0  0  0  0
 50 69  1  0  0  0  0
 51 54  1  0  0  0  0
 51 69  1  0  0  0  0
 52 74  1  0  0  0  0
 53 68  1  0  0  0  0
 54 67  1  0  0  0  0
 56 63  1  0  0  0  0
 57 64  1  0  0  0  0
 58 64  1  0  0  0  0
 59 64  1  0  0  0  0
 60 76  1  0  0  0  0
 61 66  1  0  0  0  0
 62 64  1  0  0  0  0
 62 75  1  0  0  0  0
 63 76  1  0  0  0  0
 65 67  1  0  0  0  0
M  CHG  1  76   1
M  ISO  4  35 101  42 100  73 100  84 101
M  END
> <Batch ID>
0059

> <Smiles>
CNC(C)C(=O)NC(C(=O)N1Cc2cc([101O:1][101CH:1]=CCN=C(C)C(=O)Nc3cccc([100NH:0][100C:0](=O)N4CCCC(n5nc(-c6ccc(Oc7ccc(F)cc7F)cc6)c(C(N)=O)c5N)C4)c3)ccc2CC1C(=O)NC1CCCc2ccccc21)C(C)(C)C

> <Shape>
0.215

> <Color>
0.082

> <Negative vol penalty>
0.000

$$$$

  -OEChem-04042323013D

 91100  0     1  0  0  0  0  0999 V2000
  -25.4061  -35.3183   22.5164 C   0  0  0  0  0  0  0  0  0  0  0  0
  -26.0582  -34.0973   22.3771 C   0  0  0  0  0  0  0  0  0  0  0  0
  -23.8051  -10.5159   21.8207 C   0  0  0  0  0  0  0  0  0  0  0  0
  -22.3524  -10.3178   23.7411 C   0  0  0  0  0  0  0  0  0  0  0  0
  -24.1200  -35.3632   23.0528 C   0  0  0  0  0  0  0  0  0  0  0  0
  -25.4248  -32.9205   22.7752 C   0  0  0  0  0  0  0  0  0  0  0  0
  -25.9376  -29.1951   19.3835 C   0  0  0  0  0  0  0  0  0  0  0  0
  -23.3253   -9.3007   21.3323 C   0  0  0  0  0  0  0  0  0  0  0  0
  -21.8726   -9.1025   23.2526 C   0  0  0  0  0  0  0  0  0  0  0  0
  -27.1577  -28.5211   19.3576 C   0  0  0  0  0  0  0  0  0  0  0  0
  -22.9010   -5.8839   23.1359 C   0  0  0  0  0  0  0  0  0  0  0  0
  -22.7844   -4.8245   24.0356 C   0  0  0  0  0  0  0  0  0  0  0  0
  -27.3150  -22.3121   22.9687 C   0  0  0  0  0  0  0  0  0  0  0  0
  -25.1159  -21.4698   23.5083 C   0  0  0  0  0  0  0  0  0  0  0  0
  -26.1843  -26.7221   20.6364 C   0  0  0  0  0  0  0  0  0  0  0  0
  -26.8470  -19.9493   22.7812 C   0  0  0  0  0  0  0  0  0  0  0  0
  -20.4118   -4.7108   23.5945 C   0  0  0  0  0  0  0  0  0  0  0  0
  -23.3187  -11.0245   23.0251 C   0  0  0  0  0  0  0  0  0  0  0  0
  -26.0050  -22.5381   23.3909 C   0  0  0  0  0  0  0  0  0  0  0  0
  -25.1449  -12.5955   23.8644 C   0  0  0  0  0  0  0  0  0  0  0  0
  -23.4668  -34.1854   23.4487 C   0  0  0  0  0  0  0  0  0  0  0  0
  -24.8327  -28.6418   20.0465 C   0  0  0  0  0  0  0  0  0  0  0  0
  -24.1292  -32.9498   23.3186 C   0  0  0  0  0  0  0  0  0  0  0  0
  -24.9505  -27.3899   20.6670 C   0  0  0  0  0  0  0  0  0  0  0  0
  -27.7360  -21.0177   22.6638 C   0  0  0  0  0  0  0  0  0  0  0  0
  -25.5369  -20.1753   23.2034 C   0  0  0  0  0  0  0  0  0  0  0  0
  -22.3590   -8.5940   22.0483 C   0  0  0  0  0  0  0  0  0  0  0  0
  -27.2820  -27.2857   19.9866 C   0  0  0  0  0  0  0  0  0  0  0  0
  -21.7729   -6.3569   22.4654 C   0  0  0  0  0  0  0  0  0  0  0  0
  -21.5399   -4.2379   24.2649 C   0  0  0  0  0  0  0  0  0  0  0  0
  -20.5283   -5.7703   22.6947 C   0  0  0  0  0  0  0  0  0  0  0  0
  -23.8144  -12.2795   23.5304 C   0  0  0  0  0  0  0  0  0  0  0  0
  -25.0912  -13.8997   24.2918 C   0  0  0  0  0  0  0  0  0  0  0  0
  -29.0653  -20.2094   19.8437 C   0  0  0  0  0  0  0  0  0  0  0  0
  -29.7231  -22.5569   20.6690 C   0  0  0  0  0  0  0  0  0  0  0  0
  -24.6535  -24.1674   24.6296 C   0  0  0  0  0  0  0  0  0  0  0  0
  -25.5654  -23.8878   23.7084 C   0  0  0  0  0  0  0  0  0  0  0  0
  -26.3241  -11.7828   23.7945 C   0  0  0  0  0  0  0  0  0  0  0  0
  -23.0262  -29.5171   22.5110 C   0  0  0  0  0  0  0  0  0  0  0  0
  -21.2880  -26.9136   21.6609 C   0  0  0  0  0  0  0  0  0  0  0  0
  -21.9593  -23.5374   20.5800 C   0  0  0  0  0  0  0  0  0  0  0  0
  -23.2998  -19.1412   23.7255 C   0  0  0  0  0  0  0  0  0  0  0  0
  -22.0950  -34.2888   24.0671 C   0  0  0  0  0  0  0  0  0  0  0  0
  -23.5161  -29.3691   20.0424 C   0  0  0  0  0  0  0  0  0  0  0  0
  -23.7889  -26.7433   21.3749 C   0  0  0  0  0  0  0  0  0  0  0  0
  -29.6483  -20.3791   18.4512 C   0  0  0  0  0  0  0  0  0  0  0  0
  -21.3477  -32.9587   24.1173 C   0  0  0  0  0  0  0  0  0  0  0  0
  -30.9836  -21.1015   18.4103 C   0  0  0  0  0  0  0  0  0  0  0  0
  -21.1232  -16.8522   25.3687 C   0  0  0  0  0  0  0  0  0  0  0  0
  -22.2595  -31.8535   24.6407 C   0  0  0  0  0  0  0  0  0  0  0  0
  -30.8191  -22.6173   18.4051 C   0  0  0  0  0  0  0  0  0  0  0  0
  -21.7388  -15.4845   25.0644 C   0  0  0  0  0  0  0  0  0  0  0  0
  -21.2532  -17.8088   24.1846 C   0  0  0  0  0  0  0  0  0  0  0  0
  -23.2311  -16.5969   23.3548 C   0  0  0  0  0  0  0  0  0  0  0  0
  -23.4656  -31.6491   23.7160 C   0  0  1  0  0  0  0  0  0  0  0  0
  -29.6506  -23.1182   19.2548 C   0  0  2  0  0  0  0  0  0  0  0  0
  -22.5985  -28.9501   21.1869 C   0  0  1  0  0  0  0  0  0  0  0  0
  -23.1821  -15.6200   24.5409 C   0  0  2  0  0  0  0  0  0  0  0  0
  -20.5959  -21.9754   19.1663 C   0  0  0  0  0  0  0  0  0  0  0  0
  -20.2370  -25.8777   24.3315 C   0  0  0  0  0  0  0  0  0  0  0  0
  -20.2742  -23.5662   23.3703 C   0  0  0  0  0  0  0  0  0  0  0  0
  -18.8083  -25.3126   22.3582 C   0  0  0  0  0  0  0  0  0  0  0  0
  -24.1837  -23.1399   18.6686 C   0  0  0  0  0  0  0  0  0  0  0  0
  -29.1459  -20.7738   22.2087 C   0  0  0  0  0  0  0  0  0  0  0  0
  -29.6410  -24.6495   19.2705 C   0  0  0  0  0  0  0  0  0  0  0  0
  -28.4251  -25.2003   19.9997 C   0  0  0  0  0  0  0  0  0  1  0  0
  -21.3106  -25.4482   22.0230 C   0  0  1  0  0  0  0  0  0  0  0  0
  -21.7465  -22.9695   19.1883 C   0  0  2  0  0  0  0  0  0  0  0  0
  -20.1812  -25.0670   23.0213 C   0  0  0  0  0  0  0  0  0  0  0  0
  -22.9765  -13.3006   23.7288 N   0  0  0  0  0  0  0  0  0  0  0  0
  -23.7826  -14.2710   24.1921 N   0  0  0  0  0  0  0  0  0  0  0  0
  -29.3531  -21.1904   20.8234 N   0  0  0  0  0  0  0  0  0  0  0  0
  -22.5243  -27.4966   21.3487 N   0  0  0  0  0  0  0  0  0  0  0  0
  -22.6481  -17.8900   23.7458 N   0  0  0  0  0  0  0  0  0  0  0  0
  -26.0361  -14.7536   24.7396 N   0  0  0  0  0  0  0  0  0  0  0  0
  -26.2011  -10.4654   23.3322 N   0  0  0  0  0  0  0  0  0  0  0  0
  -24.6336  -19.0900   23.3216 N   0  0  0  0  0  0  0  0  0  0  0  0
  -23.0800  -30.8975   22.5409 N   0  0  0  0  0  0  0  0  0  0  0  0
  -21.2662  -24.7154   20.7623 N   0  0  0  0  0  0  0  0  0  0  0  0
  -22.9779  -22.2735   18.7191 N   0  3  0  0  0  0  0  0  0  0  0  0
  -28.3328  -19.2363   20.0583 O   0  0  0  0  0  0  0  0  0  0  0  0
  -30.0596  -23.2760   21.6144 O   0  0  0  0  0  0  0  0  0  0  0  0
  -27.4506  -12.2070   24.1474 O   0  0  0  0  0  0  0  0  0  0  0  0
  -23.2866  -28.7584   23.4374 O   0  0  0  0  0  0  0  0  0  0  0  0
  -20.2121  -27.5168   21.6482 O   0  0  0  0  0  0  0  0  0  0  0  0
  -22.6664  -22.9889   21.4223 O   0  0  0  0  0  0  0  0  0  0  0  0
  -22.7257  -20.1777   24.0691 O   0  0  0  0  0  0  0  0  0  0  0  0
  -21.8904   -7.4082   21.5719 O   0  0  0  0  0  0  0  0  0  0  0  0
  -28.4721  -26.6261   19.9634 O   0  0  0  0  0  0  0  0  0  1  0  0
  -21.4284   -3.2195   25.1279 F   0  0  0  0  0  0  0  0  0  0  0  0
  -19.4412   -6.2196   22.0527 F   0  0  0  0  0  0  0  0  0  0  0  0
  1  2  1  0  0  0  0
  1  5  2  0  0  0  0
  2  6  2  0  0  0  0
  3  8  2  0  0  0  0
  3 18  1  0  0  0  0
  4  9  1  0  0  0  0
  4 18  2  0  0  0  0
  5 21  1  0  0  0  0
  6 23  1  0  0  0  0
  7 10  2  0  0  0  0
  7 22  1  0  0  0  0
  8 27  1  0  0  0  0
  9 27  2  0  0  0  0
 10 28  1  0  0  0  0
 11 12  2  0  0  0  0
 11 29  1  0  0  0  0
 12 30  1  0  0  0  0
 13 19  1  0  0  0  0
 13 25  2  0  0  0  0
 14 19  2  0  0  0  0
 14 26  1  0  0  0  0
 15 24  1  0  0  0  0
 15 28  2  0  0  0  0
 16 25  1  0  0  0  0
 16 26  2  0  0  0  0
 17 30  2  0  0  0  0
 17 31  1  0  0  0  0
 18 32  1  0  0  0  0
 19 37  1  0  0  0  0
 20 32  1  0  0  0  0
 20 33  2  0  0  0  0
 20 38  1  0  0  0  0
 21 23  2  0  0  0  0
 21 43  1  0  0  0  0
 22 24  2  0  0  0  0
 22 44  1  0  0  0  0
 23 55  1  0  0  0  0
 24 45  1  0  0  0  0
 25 64  1  0  0  0  0
 26 77  1  0  0  0  0
 27 88  1  0  0  0  0
 28 89  1  0  0  0  0
 29 31  2  0  0  0  0
 29 88  1  0  0  0  0
 30 90  1  0  0  0  0
 31 91  1  0  0  0  0
 32 70  2  0  0  0  0
 33 71  1  0  0  0  0
 33 75  1  0  0  0  0
 34 46  1  0  0  0  0
 34 72  1  0  0  0  0
 34 81  2  0  0  0  0
 35 56  1  0  0  0  0
 35 72  1  0  0  0  0
 35 82  2  0  0  0  0
 36 37  2  0  0  0  0
 38 76  1  0  0  0  0
 38 83  2  0  0  0  0
 39 57  1  0  0  0  0
 39 78  1  0  0  0  0
 39 84  2  0  0  0  0
 40 67  1  0  0  0  0
 40 73  1  0  0  0  0
 40 85  2  0  0  0  0
 41 68  1  0  0  0  0
 41 79  1  0  0  0  0
 41 86  2  0  0  0  0
 42 74  1  0  0  0  0
 42 77  1  0  0  0  0
 42 87  2  0  0  0  0
 43 47  1  0  0  0  0
 44 57  1  0  0  0  0
 45 73  1  0  0  0  0
 46 48  1  0  0  0  0
 47 50  1  0  0  0  0
 48 51  1  0  0  0  0
 49 52  1  0  0  0  0
 49 53  1  0  0  0  0
 50 55  1  0  0  0  0
 51 56  1  0  0  0  0
 52 58  1  0  0  0  0
 53 74  1  0  0  0  0
 54 58  1  0  0  0  0
 54 74  1  0  0  0  0
 55 78  1  0  0  0  0
 56 65  1  0  0  0  0
 57 73  1  0  0  0  0
 58 71  1  0  0  0  0
 59 68  1  0  0  0  0
 60 69  1  0  0  0  0
 61 69  1  0  0  0  0
 62 69  1  0  0  0  0
 63 80  1  0  0  0  0
 64 72  1  0  0  0  0
 65 66  1  0  0  0  0
 66 89  1  0  0  0  0
 67 69  1  0  0  0  0
 67 79  1  0  0  0  0
 68 80  1  0  0  0  0
 70 71  1  0  0  0  0
M  CHG  1  80   1
M  ISO  4  42 100  66 101  77 100  89 101
M  END
> <Batch ID>
0059

> <Smiles>
C=Cc1cc(CN2C(=O)CCCC(C[101CH2:1][101O:1]c3ccc4c(c3)CN(C(=O)C(NC(=O)C(C)NC)C(C)(C)C)C(C(=O)NC3CCCc5ccccc53)C4)C2=O)cc([100NH:0][100C:0](=O)N2CCCC(n3nc(-c4ccc(Oc5ccc(F)cc5F)cc4)c(C(N)=O)c3N)C2)c1

> <Shape>
0.218

> <Color>
0.088

> <Negative vol penalty>
0.000

$$$$

  -OEChem-04042323013D

 83 91  0     1  0  0  0  0  0999 V2000
  -30.5118  -24.2716   19.0823 C   0  0  0  0  0  0  0  0  0  0  0  0
  -29.1277  -24.3833   18.9974 C   0  0  0  0  0  0  0  0  0  0  0  0
  -26.7070  -12.9095   20.5914 C   0  0  0  0  0  0  0  0  0  0  0  0
  -25.3380  -14.2227   19.0953 C   0  0  0  0  0  0  0  0  0  0  0  0
  -31.1935  -24.8602   20.1466 C   0  0  0  0  0  0  0  0  0  0  0  0
  -28.4244  -25.0827   19.9774 C   0  0  0  0  0  0  0  0  0  0  0  0
  -23.3870  -28.4733   19.1805 C   0  0  0  0  0  0  0  0  0  0  0  0
  -22.3844  -22.7814   20.4514 C   0  0  0  0  0  0  0  0  0  0  0  0
  -22.3243  -23.4308   22.7777 C   0  0  0  0  0  0  0  0  0  0  0  0
  -23.4989  -21.9815   20.7035 C   0  0  0  0  0  0  0  0  0  0  0  0
  -23.4389  -22.6309   23.0298 C   0  0  0  0  0  0  0  0  0  0  0  0
  -25.9264  -11.7860   20.3196 C   0  0  0  0  0  0  0  0  0  0  0  0
  -24.5574  -13.0992   18.8234 C   0  0  0  0  0  0  0  0  0  0  0  0
  -22.0337  -28.2036   19.3792 C   0  0  0  0  0  0  0  0  0  0  0  0
  -22.9243  -10.5520   21.2625 C   0  0  0  0  0  0  0  0  0  0  0  0
  -22.5279   -9.7626   22.3419 C   0  0  0  0  0  0  0  0  0  0  0  0
  -22.1564  -29.2258   21.5608 C   0  0  0  0  0  0  0  0  0  0  0  0
  -23.6759   -7.8679   21.3779 C   0  0  0  0  0  0  0  0  0  0  0  0
  -26.4128  -14.1279   19.9793 C   0  0  0  0  0  0  0  0  0  0  0  0
  -28.3728  -15.7093   19.5725 C   0  0  0  0  0  0  0  0  0  0  0  0
  -30.4991  -25.5754   21.1351 C   0  0  0  0  0  0  0  0  0  0  0  0
  -24.1391  -29.1126   20.1766 C   0  0  0  0  0  0  0  0  0  0  0  0
  -29.0973  -25.6802   21.0567 C   0  0  0  0  0  0  0  0  0  0  0  0
  -23.5185  -29.5048   21.3712 C   0  0  0  0  0  0  0  0  0  0  0  0
  -21.7971  -23.5061   21.4885 C   0  0  0  0  0  0  0  0  0  0  0  0
  -24.0261  -21.9062   21.9926 C   0  0  0  0  0  0  0  0  0  0  0  0
  -24.8516  -11.8808   19.4356 C   0  0  0  0  0  0  0  0  0  0  0  0
  -21.4188  -28.5772   20.5706 C   0  0  0  0  0  0  0  0  0  0  0  0
  -23.6964   -9.9994   20.2406 C   0  0  0  0  0  0  0  0  0  0  0  0
  -22.9037   -8.4206   22.3997 C   0  0  0  0  0  0  0  0  0  0  0  0
  -24.0722   -8.6573   20.2984 C   0  0  0  0  0  0  0  0  0  0  0  0
  -27.2185  -15.2890   20.2601 C   0  0  0  0  0  0  0  0  0  0  0  0
  -28.7610  -16.8556   20.2219 C   0  0  0  0  0  0  0  0  0  0  0  0
  -29.0347  -15.1166   18.4472 C   0  0  0  0  0  0  0  0  0  0  0  0
  -26.6667  -28.3213   21.9341 C   0  0  0  0  0  0  0  0  0  0  0  0
  -26.4526  -31.4021   22.9268 C   0  0  0  0  0  0  0  0  0  0  0  0
  -19.9612  -25.1014   22.1422 C   0  0  0  0  0  0  0  0  0  0  0  0
  -24.5121  -34.1734   23.3751 C   0  0  0  0  0  0  0  0  0  0  0  0
  -25.8055  -20.9077   23.4702 C   0  0  0  0  0  0  0  0  0  0  0  0
  -31.2745  -26.1540   22.2920 C   0  0  0  0  0  0  0  0  0  0  0  0
  -25.5916  -29.4204   19.9360 C   0  0  0  0  0  0  0  0  0  0  0  0
  -24.2768  -30.2119   22.4637 C   0  0  0  0  0  0  0  0  0  0  0  0
  -30.4935  -27.1965   23.0881 C   0  0  0  0  0  0  0  0  0  0  0  0
  -28.5977  -18.9633   24.5191 C   0  0  0  0  0  0  0  0  0  0  0  0
  -29.0832  -26.6960   23.3835 C   0  0  0  0  0  0  0  0  0  0  0  0
  -28.6697  -17.8421   23.4799 C   0  0  0  0  0  0  0  0  0  0  0  0
  -27.1542  -19.3400   24.8480 C   0  0  0  0  0  0  0  0  0  0  0  0
  -26.3886  -18.5418   22.6466 C   0  0  0  0  0  0  0  0  0  0  0  0
  -28.3015  -26.4519   22.0870 C   0  0  1  0  0  0  0  0  0  0  0  0
  -26.3826  -29.6157   21.2258 C   0  0  1  0  0  0  0  0  0  0  0  0
  -27.8231  -18.1724   22.2350 C   0  0  2  0  0  0  0  0  0  0  0  0
  -24.6083  -36.5264   24.2420 C   0  0  0  0  0  0  0  0  0  0  0  0
  -26.4199  -30.3462   25.7893 C   0  0  0  0  0  0  0  0  0  0  0  0
  -25.5731  -32.5826   26.5306 C   0  0  0  0  0  0  0  0  0  0  0  0
  -27.8131  -32.3950   25.4490 C   0  0  0  0  0  0  0  0  0  0  0  0
  -23.7844  -35.2986   20.7363 C   0  0  0  0  0  0  0  0  0  0  0  0
  -18.8095  -25.8166   21.4497 C   0  0  0  0  0  0  0  0  0  0  0  0
  -18.4737  -27.1548   22.0989 C   0  0  0  0  0  0  0  0  0  0  0  0
  -19.6737  -28.0905   22.1113 C   0  0  0  0  0  0  0  0  0  1  0  0
  -25.7305  -32.1181   24.0425 C   0  0  1  0  0  0  0  0  0  0  0  0
  -24.7407  -35.6314   23.0196 C   0  0  2  0  0  0  0  0  0  0  0  0
  -26.3701  -31.8454   25.4332 C   0  0  0  0  0  0  0  0  0  0  0  0
  -26.8947  -16.1020   21.2692 N   0  0  0  0  0  0  0  0  0  0  0  0
  -27.8514  -17.0446   21.2204 N   0  0  0  0  0  0  0  0  0  0  0  0
  -25.6961  -30.4848   22.1837 N   0  0  0  0  0  0  0  0  0  0  0  0
  -26.4146  -19.6439   23.6210 N   0  0  0  0  0  0  0  0  0  0  0  0
  -29.7885  -17.7101   20.0307 N   0  0  0  0  0  0  0  0  0  0  0  0
  -28.5026  -13.9400   17.9026 N   0  0  0  0  0  0  0  0  0  0  0  0
  -20.6665  -24.3181   21.2329 N   0  0  0  0  0  0  0  0  0  0  0  0
  -25.1583  -21.0937   22.2490 N   0  0  0  0  0  0  0  0  0  0  0  0
  -27.8370  -27.7057   21.5332 N   0  0  0  0  0  0  0  0  0  0  0  0
  -25.6947  -33.5274   23.6673 N   0  0  0  0  0  0  0  0  0  0  0  0
  -23.7490  -36.0778   22.0007 N   0  3  0  0  0  0  0  0  0  0  0  0
  -30.0769  -15.6067   17.9501 O   0  0  0  0  0  0  0  0  0  0  0  0
  -25.8828  -27.9122   22.7826 O   0  0  0  0  0  0  0  0  0  0  0  0
  -27.6422  -31.6528   22.7175 O   0  0  0  0  0  0  0  0  0  0  0  0
  -20.1856  -25.2368   23.3404 O   0  0  0  0  0  0  0  0  0  0  0  0
  -23.3956  -33.6598   23.3954 O   0  0  0  0  0  0  0  0  0  0  0  0
  -25.8777  -21.7717   24.3477 O   0  0  0  0  0  0  0  0  0  0  0  0
  -24.0898  -10.7846   19.1700 O   0  0  0  0  0  0  0  0  0  0  0  0
  -20.0982  -28.3146   20.7674 O   0  0  0  0  0  0  0  0  0  1  0  0
  -22.5243   -7.6631   23.4372 F   0  0  0  0  0  0  0  0  0  0  0  0
  -24.8150   -8.1211   19.3203 F   0  0  0  0  0  0  0  0  0  0  0  0
  1  2  1  0  0  0  0
  1  5  2  0  0  0  0
  2  6  2  0  0  0  0
  3 12  2  0  0  0  0
  3 19  1  0  0  0  0
  4 13  1  0  0  0  0
  4 19  2  0  0  0  0
  5 21  1  0  0  0  0
  6 23  1  0  0  0  0
  7 14  2  0  0  0  0
  7 22  1  0  0  0  0
  8 10  2  0  0  0  0
  8 25  1  0  0  0  0
  9 11  1  0  0  0  0
  9 25  2  0  0  0  0
 10 26  1  0  0  0  0
 11 26  2  0  0  0  0
 12 27  1  0  0  0  0
 13 27  2  0  0  0  0
 14 28  1  0  0  0  0
 15 16  2  0  0  0  0
 15 29  1  0  0  0  0
 16 30  1  0  0  0  0
 17 24  1  0  0  0  0
 17 28  2  0  0  0  0
 18 30  2  0  0  0  0
 18 31  1  0  0  0  0
 19 32  1  0  0  0  0
 20 32  1  0  0  0  0
 20 33  2  0  0  0  0
 20 34  1  0  0  0  0
 21 23  2  0  0  0  0
 21 40  1  0  0  0  0
 22 24  2  0  0  0  0
 22 41  1  0  0  0  0
 23 49  1  0  0  0  0
 24 42  1  0  0  0  0
 25 69  1  0  0  0  0
 26 70  1  0  0  0  0
 27 80  1  0  0  0  0
 28 81  1  0  0  0  0
 29 31  2  0  0  0  0
 29 80  1  0  0  0  0
 30 82  1  0  0  0  0
 31 83  1  0  0  0  0
 32 63  2  0  0  0  0
 33 64  1  0  0  0  0
 33 67  1  0  0  0  0
 34 68  1  0  0  0  0
 34 74  2  0  0  0  0
 35 50  1  0  0  0  0
 35 71  1  0  0  0  0
 35 75  2  0  0  0  0
 36 60  1  0  0  0  0
 36 65  1  0  0  0  0
 36 76  2  0  0  0  0
 37 57  1  0  0  0  0
 37 69  1  0  0  0  0
 37 77  2  0  0  0  0
 38 61  1  0  0  0  0
 38 72  1  0  0  0  0
 38 78  2  0  0  0  0
 39 66  1  0  0  0  0
 39 70  1  0  0  0  0
 39 79  2  0  0  0  0
 40 43  1  0  0  0  0
 41 50  1  0  0  0  0
 42 65  1  0  0  0  0
 43 45  1  0  0  0  0
 44 46  1  0  0  0  0
 44 47  1  0  0  0  0
 45 49  1  0  0  0  0
 46 51  1  0  0  0  0
 47 66  1  0  0  0  0
 48 51  1  0  0  0  0
 48 66  1  0  0  0  0
 49 71  1  0  0  0  0
 50 65  1  0  0  0  0
 51 64  1  0  0  0  0
 52 61  1  0  0  0  0
 53 62  1  0  0  0  0
 54 62  1  0  0  0  0
 55 62  1  0  0  0  0
 56 73  1  0  0  0  0
 57 58  1  0  0  0  0
 58 59  1  0  0  0  0
 59 81  1  0  0  0  0
 60 62  1  0  0  0  0
 60 72  1  0  0  0  0
 61 73  1  0  0  0  0
 63 64  1  0  0  0  0
M  CHG  1  73   1
M  ISO  4  39 100  59 101  70 100  81 101
M  END
> <Batch ID>
0059

> <Smiles>
CNC(C)C(=O)NC(C(=O)N1Cc2cc([101O:1][101CH2:1]CCC(=O)Nc3ccc([100NH:0][100C:0](=O)N4CCCC(n5nc(-c6ccc(Oc7ccc(F)cc7F)cc6)c(C(N)=O)c5N)C4)cc3)ccc2CC1C(=O)NC1CCCc2ccccc21)C(C)(C)C

> <Shape>
0.277

> <Color>
0.083

> <Negative vol penalty>
0.000

$$$$

  -OEChem-04042323013D

 83 91  0     1  0  0  0  0  0999 V2000
  -17.0931  -25.1755   24.1719 C   0  0  0  0  0  0  0  0  0  0  0  0
  -18.2713  -24.6441   24.6867 C   0  0  0  0  0  0  0  0  0  0  0  0
  -32.5347  -17.6724   23.3888 C   0  0  0  0  0  0  0  0  0  0  0  0
  -22.9991   -9.9253   20.0389 C   0  0  0  0  0  0  0  0  0  0  0  0
  -23.6972  -10.0534   22.3482 C   0  0  0  0  0  0  0  0  0  0  0  0
  -17.1460  -26.1931   23.2203 C   0  0  0  0  0  0  0  0  0  0  0  0
  -19.5032  -25.1294   24.2493 C   0  0  0  0  0  0  0  0  0  0  0  0
  -24.6160  -25.7201   27.5684 C   0  0  0  0  0  0  0  0  0  0  0  0
  -31.7238  -18.5836   24.0653 C   0  0  0  0  0  0  0  0  0  0  0  0
  -31.9645  -16.7437   22.5182 C   0  0  0  0  0  0  0  0  0  0  0  0
  -22.2400   -8.7923   20.3312 C   0  0  0  0  0  0  0  0  0  0  0  0
  -22.9381   -8.9203   22.6406 C   0  0  0  0  0  0  0  0  0  0  0  0
  -25.7520  -24.9212   27.6913 C   0  0  0  0  0  0  0  0  0  0  0  0
  -23.2183   -5.5710   22.2738 C   0  0  0  0  0  0  0  0  0  0  0  0
  -23.8065   -4.5829   23.0632 C   0  0  0  0  0  0  0  0  0  0  0  0
  -26.8787  -26.2809   26.0479 C   0  0  0  0  0  0  0  0  0  0  0  0
  -29.7723  -17.6372   23.0007 C   0  0  0  0  0  0  0  0  0  0  0  0
  -22.0613   -4.8604   24.7108 C   0  0  0  0  0  0  0  0  0  0  0  0
  -23.7278  -10.5559   21.0474 C   0  0  0  0  0  0  0  0  0  0  0  0
  -24.0921  -13.0685   20.7988 C   0  0  0  0  0  0  0  0  0  0  0  0
  -18.3791  -26.6978   22.7782 C   0  0  0  0  0  0  0  0  0  0  0  0
  -24.5991  -26.8006   26.6747 C   0  0  0  0  0  0  0  0  0  0  0  0
  -19.5727  -26.1539   23.2899 C   0  0  0  0  0  0  0  0  0  0  0  0
  -25.7422  -27.0935   25.9173 C   0  0  0  0  0  0  0  0  0  0  0  0
  -30.3426  -18.5660   23.8713 C   0  0  0  0  0  0  0  0  0  0  0  0
  -30.5833  -16.7261   22.3242 C   0  0  0  0  0  0  0  0  0  0  0  0
  -22.2094   -8.2898   21.6320 C   0  0  0  0  0  0  0  0  0  0  0  0
  -26.8826  -25.1998   26.9290 C   0  0  0  0  0  0  0  0  0  0  0  0
  -22.0517   -6.2039   22.7029 C   0  0  0  0  0  0  0  0  0  0  0  0
  -23.2279   -4.2275   24.2817 C   0  0  0  0  0  0  0  0  0  0  0  0
  -21.4732   -5.8486   23.9213 C   0  0  0  0  0  0  0  0  0  0  0  0
  -24.5126  -11.7260   20.7459 C   0  0  0  0  0  0  0  0  0  0  0  0
  -25.1993  -13.7901   20.4250 C   0  0  0  0  0  0  0  0  0  0  0  0
  -28.7499  -21.2464   25.9621 C   0  0  0  0  0  0  0  0  0  0  0  0
  -28.9213  -22.2446   26.8398 C   0  0  0  0  0  0  0  0  0  0  0  0
  -22.8148  -13.6143   21.1542 C   0  0  0  0  0  0  0  0  0  0  0  0
  -29.9226  -20.4749   25.4528 C   0  0  0  0  0  0  0  0  0  0  0  0
  -22.8934  -27.5566   24.1012 C   0  0  0  0  0  0  0  0  0  0  0  0
  -24.5307  -30.3486   24.3158 C   0  0  0  0  0  0  0  0  0  0  0  0
  -27.3070  -32.0022   25.4134 C   0  0  0  0  0  0  0  0  0  0  0  0
  -30.6667  -14.8099   20.6909 C   0  0  0  0  0  0  0  0  0  0  0  0
  -18.3866  -27.7657   21.7132 C   0  0  0  0  0  0  0  0  0  0  0  0
  -23.3750  -27.6689   26.5734 C   0  0  0  0  0  0  0  0  0  0  0  0
  -25.7821  -28.2543   24.9584 C   0  0  0  0  0  0  0  0  0  0  0  0
  -19.7275  -28.4827   21.5790 C   0  0  0  0  0  0  0  0  0  0  0  0
  -29.5977  -12.2767   18.4287 C   0  0  0  0  0  0  0  0  0  0  0  0
  -20.8719  -27.4744   21.5539 C   0  0  0  0  0  0  0  0  0  0  0  0
  -28.1449  -12.0181   18.8342 C   0  0  0  0  0  0  0  0  0  0  0  0
  -30.4820  -12.5654   19.6405 C   0  0  0  0  0  0  0  0  0  0  0  0
  -28.5443  -13.3764   20.9277 C   0  0  0  0  0  0  0  0  0  0  0  0
  -20.9280  -26.6709   22.8588 C   0  0  1  0  0  0  0  0  0  0  0  0
  -23.2916  -28.4325   25.2553 C   0  0  1  0  0  0  0  0  0  0  0  0
  -27.6021  -13.1448   19.7351 C   0  0  2  0  0  0  0  0  0  0  0  0
  -28.3812  -34.2701   25.4046 C   0  0  0  0  0  0  0  0  0  0  0  0
  -25.3526  -29.9455   21.4051 C   0  0  0  0  0  0  0  0  0  0  0  0
  -27.1362  -31.6698   21.7427 C   0  0  0  0  0  0  0  0  0  0  0  0
  -24.7349  -32.2950   21.9988 C   0  0  0  0  0  0  0  0  0  0  0  0
  -27.2443  -32.1712   28.3674 C   0  0  0  0  0  0  0  0  0  0  0  0
  -27.7914  -23.0517   27.3931 C   0  0  0  0  0  0  0  0  0  1  0  0
  -25.8390  -30.8656   23.7679 C   0  0  1  0  0  0  0  0  0  0  0  0
  -27.4688  -33.3150   26.1583 C   0  0  2  0  0  0  0  0  0  0  0  0
  -25.7646  -31.1708   22.2452 C   0  0  0  0  0  0  0  0  0  0  0  0
  -25.7875  -11.5996   20.3681 N   0  0  0  0  0  0  0  0  0  0  0  0
  -26.1775  -12.8718   20.1801 N   0  0  0  0  0  0  0  0  0  0  0  0
  -24.5584  -29.0700   24.8902 N   0  0  0  0  0  0  0  0  0  0  0  0
  -29.9076  -13.6463   20.4446 N   0  0  0  0  0  0  0  0  0  0  0  0
  -25.4218  -15.1143   20.2850 N   0  0  0  0  0  0  0  0  0  0  0  0
  -21.7873  -12.7313   21.5130 N   0  0  0  0  0  0  0  0  0  0  0  0
  -29.5197  -19.4920   24.5583 N   0  0  0  0  0  0  0  0  0  0  0  0
  -30.0047  -15.7824   21.4396 N   0  0  0  0  0  0  0  0  0  0  0  0
  -21.5278  -27.4604   23.9130 N   0  0  0  0  0  0  0  0  0  0  0  0
  -26.2005  -32.0148   24.5907 N   0  0  0  0  0  0  0  0  0  0  0  0
  -28.0516  -33.0757   27.5089 N   0  3  0  0  0  0  0  0  0  0  0  0
  -22.5865  -14.8477   21.1377 O   0  0  0  0  0  0  0  0  0  0  0  0
  -31.0624  -20.7326   25.8214 O   0  0  0  0  0  0  0  0  0  0  0  0
  -23.7608  -27.0098   23.4303 O   0  0  0  0  0  0  0  0  0  0  0  0
  -23.5230  -31.0563   24.2433 O   0  0  0  0  0  0  0  0  0  0  0  0
  -28.0865  -31.0611   25.5450 O   0  0  0  0  0  0  0  0  0  0  0  0
  -31.8092  -14.9457   20.2456 O   0  0  0  0  0  0  0  0  0  0  0  0
  -21.4686   -7.1843   21.9176 O   0  0  0  0  0  0  0  0  0  0  0  0
  -27.9925  -24.4213   27.0466 O   0  0  0  0  0  0  0  0  0  1  0  0
  -23.7920   -3.2774   25.0389 F   0  0  0  0  0  0  0  0  0  0  0  0
  -20.3518   -6.4522   24.3383 F   0  0  0  0  0  0  0  0  0  0  0  0
  1  2  1  0  0  0  0
  1  6  2  0  0  0  0
  2  7  2  0  0  0  0
  3  9  2  0  0  0  0
  3 10  1  0  0  0  0
  4 11  2  0  0  0  0
  4 19  1  0  0  0  0
  5 12  1  0  0  0  0
  5 19  2  0  0  0  0
  6 21  1  0  0  0  0
  7 23  1  0  0  0  0
  8 13  2  0  0  0  0
  8 22  1  0  0  0  0
  9 25  1  0  0  0  0
 10 26  2  0  0  0  0
 11 27  1  0  0  0  0
 12 27  2  0  0  0  0
 13 28  1  0  0  0  0
 14 15  2  0  0  0  0
 14 29  1  0  0  0  0
 15 30  1  0  0  0  0
 16 24  1  0  0  0  0
 16 28  2  0  0  0  0
 17 25  2  0  0  0  0
 17 26  1  0  0  0  0
 18 30  2  0  0  0  0
 18 31  1  0  0  0  0
 19 32  1  0  0  0  0
 20 32  1  0  0  0  0
 20 33  2  0  0  0  0
 20 36  1  0  0  0  0
 21 23  2  0  0  0  0
 21 42  1  0  0  0  0
 22 24  2  0  0  0  0
 22 43  1  0  0  0  0
 23 51  1  0  0  0  0
 24 44  1  0  0  0  0
 25 69  1  0  0  0  0
 26 70  1  0  0  0  0
 27 80  1  0  0  0  0
 28 81  1  0  0  0  0
 29 31  2  0  0  0  0
 29 80  1  0  0  0  0
 30 82  1  0  0  0  0
 31 83  1  0  0  0  0
 32 63  2  0  0  0  0
 33 64  1  0  0  0  0
 33 67  1  0  0  0  0
 34 35  2  0  0  0  0
 34 37  1  0  0  0  0
 35 59  1  0  0  0  0
 36 68  1  0  0  0  0
 36 74  2  0  0  0  0
 37 69  1  0  0  0  0
 37 75  2  0  0  0  0
 38 52  1  0  0  0  0
 38 71  1  0  0  0  0
 38 76  2  0  0  0  0
 39 60  1  0  0  0  0
 39 65  1  0  0  0  0
 39 77  2  0  0  0  0
 40 61  1  0  0  0  0
 40 72  1  0  0  0  0
 40 78  2  0  0  0  0
 41 66  1  0  0  0  0
 41 70  1  0  0  0  0
 41 79  2  0  0  0  0
 42 45  1  0  0  0  0
 43 52  1  0  0  0  0
 44 65  1  0  0  0  0
 45 47  1  0  0  0  0
 46 48  1  0  0  0  0
 46 49  1  0  0  0  0
 47 51  1  0  0  0  0
 48 53  1  0  0  0  0
 49 66  1  0  0  0  0
 50 53  1  0  0  0  0
 50 66  1  0  0  0  0
 51 71  1  0  0  0  0
 52 65  1  0  0  0  0
 53 64  1  0  0  0  0
 54 61  1  0  0  0  0
 55 62  1  0  0  0  0
 56 62  1  0  0  0  0
 57 62  1  0  0  0  0
 58 73  1  0  0  0  0
 59 81  1  0  0  0  0
 60 62  1  0  0  0  0
 60 72  1  0  0  0  0
 61 73  1  0  0  0  0
 63 64  1  0  0  0  0
M  CHG  1  73   1
M  ISO  4  41 100  59 101  70 100  81 101
M  END
> <Batch ID>
0059

> <Smiles>
CNC(C)C(=O)NC(C(=O)N1Cc2cc([101O:1][101CH2:1]C=CC(=O)Nc3cccc([100NH:0][100C:0](=O)N4CCCC(n5nc(-c6ccc(Oc7ccc(F)cc7F)cc6)c(C(N)=O)c5N)C4)c3)ccc2CC1C(=O)NC1CCCc2ccccc21)C(C)(C)C

> <Shape>
0.309

> <Color>
0.222

> <Negative vol penalty>
0.000

$$$$

  -OEChem-04042323013D

 85 93  0     1  0  0  0  0  0999 V2000
  -28.1860  -19.2988   18.9813 C   0  0  0  0  0  0  0  0  0  0  0  0
  -27.2911  -20.3631   18.9382 C   0  0  0  0  0  0  0  0  0  0  0  0
  -17.9177  -28.2026   22.8611 C   0  0  0  0  0  0  0  0  0  0  0  0
  -24.3347  -17.0232   22.7866 C   0  0  0  0  0  0  0  0  0  0  0  0
  -24.7227  -18.3170   20.7834 C   0  0  0  0  0  0  0  0  0  0  0  0
  -19.0530  -29.0079   22.9510 C   0  0  0  0  0  0  0  0  0  0  0  0
  -29.2032  -19.2830   19.9347 C   0  0  0  0  0  0  0  0  0  0  0  0
  -27.4122  -21.4118   19.8493 C   0  0  0  0  0  0  0  0  0  0  0  0
  -26.2098  -27.3300   18.8319 C   0  0  0  0  0  0  0  0  0  0  0  0
  -18.0517  -26.8238   22.6981 C   0  0  0  0  0  0  0  0  0  0  0  0
  -24.9931  -15.9360   22.2120 C   0  0  0  0  0  0  0  0  0  0  0  0
  -25.3811  -17.2298   20.2088 C   0  0  0  0  0  0  0  0  0  0  0  0
  -25.0999  -28.1241   19.1169 C   0  0  0  0  0  0  0  0  0  0  0  0
  -24.2975  -13.5053   19.9688 C   0  0  0  0  0  0  0  0  0  0  0  0
  -23.7049  -12.2490   20.0954 C   0  0  0  0  0  0  0  0  0  0  0  0
  -26.1669  -28.8770   21.1452 C   0  0  0  0  0  0  0  0  0  0  0  0
  -25.6620  -11.4434   21.2608 C   0  0  0  0  0  0  0  0  0  0  0  0
  -24.1995  -18.2137   22.0723 C   0  0  0  0  0  0  0  0  0  0  0  0
  -20.3224  -28.4344   22.8778 C   0  0  0  0  0  0  0  0  0  0  0  0
  -24.0899  -20.3647   23.4392 C   0  0  0  0  0  0  0  0  0  0  0  0
  -29.3427  -20.3367   20.8518 C   0  0  0  0  0  0  0  0  0  0  0  0
  -27.3039  -27.2950   19.7084 C   0  0  0  0  0  0  0  0  0  0  0  0
  -28.4314  -21.4094   20.8168 C   0  0  0  0  0  0  0  0  0  0  0  0
  -27.2906  -28.0836   20.8677 C   0  0  0  0  0  0  0  0  0  0  0  0
  -20.4565  -27.0555   22.7147 C   0  0  0  0  0  0  0  0  0  0  0  0
  -19.3211  -26.2503   22.6249 C   0  0  0  0  0  0  0  0  0  0  0  0
  -25.5163  -16.0393   20.9231 C   0  0  0  0  0  0  0  0  0  0  0  0
  -25.0771  -28.8955   20.2751 C   0  0  0  0  0  0  0  0  0  0  0  0
  -25.5724  -13.7307   20.4880 C   0  0  0  0  0  0  0  0  0  0  0  0
  -24.3871  -11.2180   20.7415 C   0  0  0  0  0  0  0  0  0  0  0  0
  -26.2546  -12.6997   21.1341 C   0  0  0  0  0  0  0  0  0  0  0  0
  -23.5190  -19.3369   22.6651 C   0  0  0  0  0  0  0  0  0  0  0  0
  -23.0326  -21.1805   23.7603 C   0  0  0  0  0  0  0  0  0  0  0  0
  -21.5120  -29.3187   22.9778 C   0  0  0  0  0  0  0  0  0  0  0  0
  -25.4541  -20.5643   23.8328 C   0  0  0  0  0  0  0  0  0  0  0  0
  -28.7119  -25.0390   21.4496 C   0  0  0  0  0  0  0  0  0  0  0  0
  -30.8608  -27.3928   22.0528 C   0  0  0  0  0  0  0  0  0  0  0  0
  -31.5240  -30.7361   22.2243 C   0  0  0  0  0  0  0  0  0  0  0  0
  -18.3947  -23.9230   22.3562 C   0  0  0  0  0  0  0  0  0  0  0  0
  -30.4291  -20.2525   21.8945 C   0  0  0  0  0  0  0  0  0  0  0  0
  -28.5048  -26.4537   19.3731 C   0  0  0  0  0  0  0  0  0  0  0  0
  -28.4483  -28.0970   21.8310 C   0  0  0  0  0  0  0  0  0  0  0  0
  -30.7172  -21.5841   22.5829 C   0  0  0  0  0  0  0  0  0  0  0  0
  -18.0492  -20.4839   23.2106 C   0  0  0  0  0  0  0  0  0  0  0  0
  -29.4157  -22.2645   22.9952 C   0  0  0  0  0  0  0  0  0  0  0  0
  -19.4884  -19.9635   23.2085 C   0  0  0  0  0  0  0  0  0  0  0  0
  -17.8186  -21.5183   22.1104 C   0  0  0  0  0  0  0  0  0  0  0  0
  -20.2083  -22.1172   22.0995 C   0  0  0  0  0  0  0  0  0  0  0  0
  -28.5453  -22.5775   21.7722 C   0  0  1  0  0  0  0  0  0  0  0  0
  -29.3464  -26.0997   20.5953 C   0  0  1  0  0  0  0  0  0  0  0  0
  -20.5062  -21.1207   23.2316 C   0  0  2  0  0  0  0  0  0  0  0  0
  -21.8196  -26.4413   22.6360 C   0  0  0  0  0  0  0  0  0  0  0  0
  -33.3590  -32.3543   22.7824 C   0  0  0  0  0  0  0  0  0  0  0  0
  -30.4292  -26.8535   25.0248 C   0  0  0  0  0  0  0  0  0  0  0  0
  -31.5102  -29.0588   25.5107 C   0  0  0  0  0  0  0  0  0  0  0  0
  -32.8094  -27.2588   24.3730 C   0  0  0  0  0  0  0  0  0  0  0  0
  -22.5342  -32.1706   20.7635 C   0  0  0  0  0  0  0  0  0  0  0  0
  -22.7621  -32.0330   23.2563 C   0  0  0  0  0  0  0  0  0  0  0  0
  -31.5016  -31.8818   19.4956 C   0  0  0  0  0  0  0  0  0  0  0  0
  -24.0386  -30.4360   21.7599 C   0  0  0  0  0  0  0  0  0  1  0  0
  -30.9967  -28.4745   23.0970 C   0  0  1  0  0  0  0  0  0  0  0  0
  -32.6732  -31.5643   21.6786 C   0  0  2  0  0  0  0  0  0  0  0  0
  -31.4136  -27.9099   24.4844 C   0  0  0  0  0  0  0  0  0  0  0  0
  -22.7301  -31.2226   21.9542 C   0  0  0  0  0  0  0  0  0  0  0  0
  -22.2012  -19.4839   22.5042 N   0  0  0  0  0  0  0  0  0  0  0  0
  -21.9353  -20.6136   23.1818 N   0  0  0  0  0  0  0  0  0  0  0  0
  -29.5969  -27.2529   21.4623 N   0  0  0  0  0  0  0  0  0  0  0  0
  -18.8171  -22.5862   22.1974 N   0  0  0  0  0  0  0  0  0  0  0  0
  -22.9438  -22.3202   24.4783 N   0  0  0  0  0  0  0  0  0  0  0  0
  -26.4130  -19.6308   23.4165 N   0  0  0  0  0  0  0  0  0  0  0  0
  -19.4336  -24.8475   22.4598 N   0  0  0  0  0  0  0  0  0  0  0  0
  -21.6115  -30.2958   22.0064 N   0  0  0  0  0  0  0  0  0  0  0  0
  -29.0438  -23.7486   21.0834 N   0  0  0  0  0  0  0  0  0  0  0  0
  -31.9249  -29.4572   22.5484 N   0  0  0  0  0  0  0  0  0  0  0  0
  -32.1780  -32.5242   20.6518 N   0  3  0  0  0  0  0  0  0  0  0  0
  -22.3276  -29.1280   23.8761 O   0  0  0  0  0  0  0  0  0  0  0  0
  -25.8094  -21.5326   24.5467 O   0  0  0  0  0  0  0  0  0  0  0  0
  -27.9767  -25.3670   22.3736 O   0  0  0  0  0  0  0  0  0  0  0  0
  -31.8420  -26.7022   21.7662 O   0  0  0  0  0  0  0  0  0  0  0  0
  -30.3854  -31.1803   22.3539 O   0  0  0  0  0  0  0  0  0  0  0  0
  -17.1999  -24.2223   22.4245 O   0  0  0  0  0  0  0  0  0  0  0  0
  -26.1590  -14.9787   20.3621 O   0  0  0  0  0  0  0  0  0  0  0  0
  -23.9947  -29.6710   20.5561 O   0  0  0  0  0  0  0  0  0  1  0  0
  -23.8173  -10.0120   20.8644 F   0  0  0  0  0  0  0  0  0  0  0  0
  -27.4791  -12.9106   21.6360 F   0  0  0  0  0  0  0  0  0  0  0  0
  1  2  1  0  0  0  0
  1  7  2  0  0  0  0
  2  8  2  0  0  0  0
  3  6  2  0  0  0  0
  3 10  1  0  0  0  0
  4 11  2  0  0  0  0
  4 18  1  0  0  0  0
  5 12  1  0  0  0  0
  5 18  2  0  0  0  0
  6 19  1  0  0  0  0
  7 21  1  0  0  0  0
  8 23  1  0  0  0  0
  9 13  2  0  0  0  0
  9 22  1  0  0  0  0
 10 26  2  0  0  0  0
 11 27  1  0  0  0  0
 12 27  2  0  0  0  0
 13 28  1  0  0  0  0
 14 15  2  0  0  0  0
 14 29  1  0  0  0  0
 15 30  1  0  0  0  0
 16 24  1  0  0  0  0
 16 28  2  0  0  0  0
 17 30  2  0  0  0  0
 17 31  1  0  0  0  0
 18 32  1  0  0  0  0
 19 25  2  0  0  0  0
 19 34  1  0  0  0  0
 20 32  1  0  0  0  0
 20 33  2  0  0  0  0
 20 35  1  0  0  0  0
 21 23  2  0  0  0  0
 21 40  1  0  0  0  0
 22 24  2  0  0  0  0
 22 41  1  0  0  0  0
 23 49  1  0  0  0  0
 24 42  1  0  0  0  0
 25 26  1  0  0  0  0
 25 52  1  0  0  0  0
 26 71  1  0  0  0  0
 27 82  1  0  0  0  0
 28 83  1  0  0  0  0
 29 31  2  0  0  0  0
 29 82  1  0  0  0  0
 30 84  1  0  0  0  0
 31 85  1  0  0  0  0
 32 65  2  0  0  0  0
 33 66  1  0  0  0  0
 33 69  1  0  0  0  0
 34 72  1  0  0  0  0
 34 76  2  0  0  0  0
 35 70  1  0  0  0  0
 35 77  2  0  0  0  0
 36 50  1  0  0  0  0
 36 73  1  0  0  0  0
 36 78  2  0  0  0  0
 37 61  1  0  0  0  0
 37 67  1  0  0  0  0
 37 79  2  0  0  0  0
 38 62  1  0  0  0  0
 38 74  1  0  0  0  0
 38 80  2  0  0  0  0
 39 68  1  0  0  0  0
 39 71  1  0  0  0  0
 39 81  2  0  0  0  0
 40 43  1  0  0  0  0
 41 50  1  0  0  0  0
 42 67  1  0  0  0  0
 43 45  1  0  0  0  0
 44 46  1  0  0  0  0
 44 47  1  0  0  0  0
 45 49  1  0  0  0  0
 46 51  1  0  0  0  0
 47 68  1  0  0  0  0
 48 51  1  0  0  0  0
 48 68  1  0  0  0  0
 49 73  1  0  0  0  0
 50 67  1  0  0  0  0
 51 66  1  0  0  0  0
 53 62  1  0  0  0  0
 54 63  1  0  0  0  0
 55 63  1  0  0  0  0
 56 63  1  0  0  0  0
 57 64  1  0  0  0  0
 58 64  1  0  0  0  0
 59 75  1  0  0  0  0
 60 64  1  0  0  0  0
 60 83  1  0  0  0  0
 61 63  1  0  0  0  0
 61 74  1  0  0  0  0
 62 75  1  0  0  0  0
 64 72  1  0  0  0  0
 65 66  1  0  0  0  0
M  CHG  1  75   1
M  ISO  4  39 100  60 101  71 100  83 101
M  END
> <Batch ID>
0059

> <Smiles>
CNC(C)C(=O)NC(C(=O)N1Cc2cc([101O:1][101CH2:1]C(C)(C)NC(=O)c3cccc([100NH:0][100C:0](=O)N4CCCC(n5nc(-c6ccc(Oc7ccc(F)cc7F)cc6)c(C(N)=O)c5N)C4)c3C)ccc2CC1C(=O)NC1CCCc2ccccc21)C(C)(C)C

> <Shape>
0.233

> <Color>
0.073

> <Negative vol penalty>
0.000

$$$$

  -OEChem-04042323013D

 88 96  0     1  0  0  0  0  0999 V2000
  -33.8855  -17.9124   14.4236 C   0  0  0  0  0  0  0  0  0  0  0  0
  -32.6851  -18.2803   15.0226 C   0  0  0  0  0  0  0  0  0  0  0  0
  -23.0740   -9.8697   19.9404 C   0  0  0  0  0  0  0  0  0  0  0  0
  -23.8387   -9.8729   22.2322 C   0  0  0  0  0  0  0  0  0  0  0  0
  -34.8658  -18.8737   14.1813 C   0  0  0  0  0  0  0  0  0  0  0  0
  -32.4646  -19.6098   15.3808 C   0  0  0  0  0  0  0  0  0  0  0  0
  -27.8494  -21.2341   14.0745 C   0  0  0  0  0  0  0  0  0  0  0  0
  -31.5069  -18.4289   20.0538 C   0  0  0  0  0  0  0  0  0  0  0  0
  -31.2466  -19.4825   19.1777 C   0  0  0  0  0  0  0  0  0  0  0  0
  -22.3313   -8.7157   20.1898 C   0  0  0  0  0  0  0  0  0  0  0  0
  -23.0960   -8.7189   22.4816 C   0  0  0  0  0  0  0  0  0  0  0  0
  -26.7845  -20.8463   14.8865 C   0  0  0  0  0  0  0  0  0  0  0  0
  -21.1154   -5.9783   23.8175 C   0  0  0  0  0  0  0  0  0  0  0  0
  -20.3616   -5.9322   24.9902 C   0  0  0  0  0  0  0  0  0  0  0  0
  -29.2955  -18.6672   20.9974 C   0  0  0  0  0  0  0  0  0  0  0  0
  -26.8325  -23.0018   15.9686 C   0  0  0  0  0  0  0  0  0  0  0  0
  -19.1144   -7.8701   24.2648 C   0  0  0  0  0  0  0  0  0  0  0  0
  -23.8277  -10.4483   20.9615 C   0  0  0  0  0  0  0  0  0  0  0  0
  -29.0353  -19.7209   20.1213 C   0  0  0  0  0  0  0  0  0  0  0  0
  -24.1679  -12.9738   20.8453 C   0  0  0  0  0  0  0  0  0  0  0  0
  -34.6534  -20.2174   14.5279 C   0  0  0  0  0  0  0  0  0  0  0  0
  -28.4220  -22.5069   14.2112 C   0  0  0  0  0  0  0  0  0  0  0  0
  -33.4435  -20.5898   15.1442 C   0  0  0  0  0  0  0  0  0  0  0  0
  -27.9030  -23.4042   15.1554 C   0  0  0  0  0  0  0  0  0  0  0  0
  -30.5313  -18.0211   20.9636 C   0  0  0  0  0  0  0  0  0  0  0  0
  -30.0108  -20.1286   19.2114 C   0  0  0  0  0  0  0  0  0  0  0  0
  -22.3422   -8.1403   21.4605 C   0  0  0  0  0  0  0  0  0  0  0  0
  -26.2777  -21.7292   15.8357 C   0  0  0  0  0  0  0  0  0  0  0  0
  -20.8687   -6.9704   22.8684 C   0  0  0  0  0  0  0  0  0  0  0  0
  -19.3611   -6.8781   25.2139 C   0  0  0  0  0  0  0  0  0  0  0  0
  -19.8682   -7.9162   23.0921 C   0  0  0  0  0  0  0  0  0  0  0  0
  -24.5956  -11.6401   20.7043 C   0  0  0  0  0  0  0  0  0  0  0  0
  -25.2589  -13.7246   20.4811 C   0  0  0  0  0  0  0  0  0  0  0  0
  -21.9414  -19.8038   18.5855 C   0  0  0  0  0  0  0  0  0  0  0  0
  -23.1170  -20.3963   18.3414 C   0  0  0  0  0  0  0  0  0  0  0  0
  -27.7210  -20.3920   20.1743 C   0  0  0  0  0  0  0  0  0  0  0  0
  -22.8981  -13.4882   21.2679 C   0  0  0  0  0  0  0  0  0  0  0  0
  -31.3035  -23.5982   14.9917 C   0  0  0  0  0  0  0  0  0  0  0  0
  -29.9970  -26.4663   14.2241 C   0  0  0  0  0  0  0  0  0  0  0  0
  -27.1846  -28.3661   13.8663 C   0  0  0  0  0  0  0  0  0  0  0  0
  -30.7425  -14.7463   20.6597 C   0  0  0  0  0  0  0  0  0  0  0  0
  -35.7614  -21.2125   14.2894 C   0  0  0  0  0  0  0  0  0  0  0  0
  -29.5528  -22.9195   13.3093 C   0  0  0  0  0  0  0  0  0  0  0  0
  -28.4690  -24.7893   15.3278 C   0  0  0  0  0  0  0  0  0  0  0  0
  -35.2999  -22.6659   14.3576 C   0  0  0  0  0  0  0  0  0  0  0  0
  -29.6011  -12.3655   18.2710 C   0  0  0  0  0  0  0  0  0  0  0  0
  -34.4227  -22.8904   15.5852 C   0  0  0  0  0  0  0  0  0  0  0  0
  -28.1648  -12.0702   18.7065 C   0  0  0  0  0  0  0  0  0  0  0  0
  -30.5207  -12.5846   19.4704 C   0  0  0  0  0  0  0  0  0  0  0  0
  -28.6215  -13.3122   20.8623 C   0  0  0  0  0  0  0  0  0  0  0  0
  -33.1573  -22.0263   15.5245 C   0  0  1  0  0  0  0  0  0  0  0  0
  -30.3936  -24.0542   13.8864 C   0  0  1  0  0  0  0  0  0  0  0  0
  -27.6449  -13.1392   19.6864 C   0  0  2  0  0  0  0  0  0  0  0  0
  -29.7563  -21.2547   18.2636 C   0  0  0  0  0  0  0  0  0  0  0  0
  -26.4370  -30.6844   13.2631 C   0  0  0  0  0  0  0  0  0  0  0  0
  -24.4911  -18.2485   18.6716 C   0  0  0  0  0  0  0  0  0  0  0  0
  -30.8831  -27.4635   16.9682 C   0  0  0  0  0  0  0  0  0  0  0  0
  -29.3198  -29.3995   16.6924 C   0  0  0  0  0  0  0  0  0  0  0  0
  -31.2207  -29.0976   15.1054 C   0  0  0  0  0  0  0  0  0  0  0  0
  -25.6269  -27.3858   11.5486 C   0  0  0  0  0  0  0  0  0  0  0  0
  -30.8098  -16.8947   21.9003 C   0  0  0  0  0  0  0  0  0  0  0  0
  -25.3891  -20.4987   19.3696 C   0  0  0  0  0  0  0  0  0  0  0  0
  -25.1299  -19.9650   16.9429 C   0  0  0  0  0  0  0  0  0  1  0  0
  -29.2395  -27.5322   14.9784 C   0  0  1  0  0  0  0  0  0  0  0  0
  -26.7238  -29.2828   12.7475 C   0  0  2  0  0  0  0  0  0  0  0  0
  -24.5018  -19.7576   18.3436 C   0  0  2  0  0  0  0  0  0  0  0  0
  -30.1562  -28.3465   15.9344 C   0  0  0  0  0  0  0  0  0  0  0  0
  -25.8596  -11.5457   20.2832 N   0  0  0  0  0  0  0  0  0  0  0  0
  -26.2356  -12.8297   20.1564 N   0  0  0  0  0  0  0  0  0  0  0  0
  -29.5781  -25.1437   14.4268 N   0  0  0  0  0  0  0  0  0  0  0  0
  -29.9714  -13.6113   20.3594 N   0  0  0  0  0  0  0  0  0  0  0  0
  -25.4684  -15.0563   20.4101 N   0  0  0  0  0  0  0  0  0  0  0  0
  -27.5826  -21.4389   20.9878 N   0  0  0  0  0  0  0  0  0  0  0  0
  -21.8874  -12.5779   21.6057 N   0  0  0  0  0  0  0  0  0  0  0  0
  -32.1913  -22.6077   14.6171 N   0  0  0  0  0  0  0  0  0  0  0  0
  -28.5592  -28.3394   13.9714 N   0  0  0  0  0  0  0  0  0  0  0  0
  -30.1446  -15.6733   21.5047 N   0  0  0  0  0  0  0  0  0  0  0  0
  -26.7350  -19.9159   19.4067 N   0  3  0  0  0  0  0  0  0  0  0  0
  -25.4819  -28.7497   12.1194 N   0  3  0  0  0  0  0  0  0  0  0  0
  -22.6613  -14.7186   21.3280 O   0  0  0  0  0  0  0  0  0  0  0  0
  -31.2083  -24.1082   16.1019 O   0  0  0  0  0  0  0  0  0  0  0  0
  -30.9216  -26.7956   13.4769 O   0  0  0  0  0  0  0  0  0  0  0  0
  -26.4031  -27.7395   14.5785 O   0  0  0  0  0  0  0  0  0  0  0  0
  -31.8774  -14.9232   20.2040 O   0  0  0  0  0  0  0  0  0  0  0  0
  -21.6174   -7.0144   21.7043 O   0  0  0  0  0  0  0  0  0  0  0  0
  -25.2388  -21.3530   16.6300 O   0  0  0  0  0  0  0  0  0  1  0  0
  -18.6363   -6.8327   26.3394 F   0  0  0  0  0  0  0  0  0  0  0  0
  -19.6259   -8.8709   22.1835 F   0  0  0  0  0  0  0  0  0  0  0  0
  1  2  1  0  0  0  0
  1  5  2  0  0  0  0
  2  6  2  0  0  0  0
  3 10  2  0  0  0  0
  3 18  1  0  0  0  0
  4 11  1  0  0  0  0
  4 18  2  0  0  0  0
  5 21  1  0  0  0  0
  6 23  1  0  0  0  0
  7 12  2  0  0  0  0
  7 22  1  0  0  0  0
  8  9  2  0  0  0  0
  8 25  1  0  0  0  0
  9 26  1  0  0  0  0
 10 27  1  0  0  0  0
 11 27  2  0  0  0  0
 12 28  1  0  0  0  0
 13 14  2  0  0  0  0
 13 29  1  0  0  0  0
 14 30  1  0  0  0  0
 15 19  1  0  0  0  0
 15 25  2  0  0  0  0
 16 24  1  0  0  0  0
 16 28  2  0  0  0  0
 17 30  2  0  0  0  0
 17 31  1  0  0  0  0
 18 32  1  0  0  0  0
 19 26  2  0  0  0  0
 19 36  1  0  0  0  0
 20 32  1  0  0  0  0
 20 33  2  0  0  0  0
 20 37  1  0  0  0  0
 21 23  2  0  0  0  0
 21 42  1  0  0  0  0
 22 24  2  0  0  0  0
 22 43  1  0  0  0  0
 23 51  1  0  0  0  0
 24 44  1  0  0  0  0
 25 61  1  0  0  0  0
 26 54  1  0  0  0  0
 27 85  1  0  0  0  0
 28 86  1  0  0  0  0
 29 31  2  0  0  0  0
 29 85  1  0  0  0  0
 30 87  1  0  0  0  0
 31 88  1  0  0  0  0
 32 68  2  0  0  0  0
 33 69  1  0  0  0  0
 33 72  1  0  0  0  0
 34 35  2  0  0  0  0
 35 66  1  0  0  0  0
 36 73  1  0  0  0  0
 36 78  2  0  0  0  0
 37 74  1  0  0  0  0
 37 80  2  0  0  0  0
 38 52  1  0  0  0  0
 38 75  1  0  0  0  0
 38 81  2  0  0  0  0
 39 64  1  0  0  0  0
 39 70  1  0  0  0  0
 39 82  2  0  0  0  0
 40 65  1  0  0  0  0
 40 76  1  0  0  0  0
 40 83  2  0  0  0  0
 41 71  1  0  0  0  0
 41 77  1  0  0  0  0
 41 84  2  0  0  0  0
 42 45  1  0  0  0  0
 43 52  1  0  0  0  0
 44 70  1  0  0  0  0
 45 47  1  0  0  0  0
 46 48  1  0  0  0  0
 46 49  1  0  0  0  0
 47 51  1  0  0  0  0
 48 53  1  0  0  0  0
 49 71  1  0  0  0  0
 50 53  1  0  0  0  0
 50 71  1  0  0  0  0
 51 75  1  0  0  0  0
 52 70  1  0  0  0  0
 53 69  1  0  0  0  0
 55 65  1  0  0  0  0
 56 66  1  0  0  0  0
 57 67  1  0  0  0  0
 58 67  1  0  0  0  0
 59 67  1  0  0  0  0
 60 79  1  0  0  0  0
 61 77  1  0  0  0  0
 62 66  1  0  0  0  0
 62 78  1  0  0  0  0
 63 66  1  0  0  0  0
 63 86  1  0  0  0  0
 64 67  1  0  0  0  0
 64 76  1  0  0  0  0
 65 79  1  0  0  0  0
 68 69  1  0  0  0  0
M  CHG  2  78   1  79   1
M  ISO  4  41 100  63 101  77 100  86 101
M  END
> <Batch ID>
0059

> <Smiles>
C=CC(C)(CNC(=N)c1cc(C[100NH:0][100C:0](=O)N2CCCC(n3nc(-c4ccc(Oc5ccc(F)cc5F)cc4)c(C(N)=O)c3N)C2)ccc1C)[101CH2:1][101O:1]c1ccc2c(c1)CN(C(=O)C(NC(=O)C(C)NC)C(C)(C)C)C(C(=O)NC1CCCc3ccccc31)C2

> <Shape>
0.197

> <Color>
0.180

> <Negative vol penalty>
0.000

$$$$

  -OEChem-04042323013D

 87 96  0     1  0  0  0  0  0999 V2000
  -15.5326  -21.3209   29.4184 C   0  0  0  0  0  0  0  0  0  0  0  0
  -16.6804  -21.5378   28.6629 C   0  0  0  0  0  0  0  0  0  0  0  0
  -31.3425  -19.0569   20.5815 C   0  0  0  0  0  0  0  0  0  0  0  0
  -23.0751   -9.8687   19.9408 C   0  0  0  0  0  0  0  0  0  0  0  0
  -23.8344   -9.8753   22.2343 C   0  0  0  0  0  0  0  0  0  0  0  0
  -15.5445  -21.5716   30.7899 C   0  0  0  0  0  0  0  0  0  0  0  0
  -17.8406  -22.0065   29.2783 C   0  0  0  0  0  0  0  0  0  0  0  0
  -21.9830  -19.5154   27.7682 C   0  0  0  0  0  0  0  0  0  0  0  0
  -30.6209  -19.8626   21.4622 C   0  0  0  0  0  0  0  0  0  0  0  0
  -31.1587  -17.6742   20.5913 C   0  0  0  0  0  0  0  0  0  0  0  0
  -22.3306   -8.7159   20.1905 C   0  0  0  0  0  0  0  0  0  0  0  0
  -23.0898   -8.7225   22.4841 C   0  0  0  0  0  0  0  0  0  0  0  0
  -22.5133  -19.8566   26.5248 C   0  0  0  0  0  0  0  0  0  0  0  0
  -19.8611   -7.9263   23.0857 C   0  0  0  0  0  0  0  0  0  0  0  0
  -19.1038   -7.8867   24.2564 C   0  0  0  0  0  0  0  0  0  0  0  0
  -24.1798  -21.2174   27.6158 C   0  0  0  0  0  0  0  0  0  0  0  0
  -20.3441   -5.9486   24.9932 C   0  0  0  0  0  0  0  0  0  0  0  0
  -23.8270  -10.4484   20.9627 C   0  0  0  0  0  0  0  0  0  0  0  0
  -24.1701  -12.9734   20.8427 C   0  0  0  0  0  0  0  0  0  0  0  0
  -16.7082  -22.0344   31.4241 C   0  0  0  0  0  0  0  0  0  0  0  0
  -22.5412  -20.0321   28.9462 C   0  0  0  0  0  0  0  0  0  0  0  0
  -17.8677  -22.2648   30.6593 C   0  0  0  0  0  0  0  0  0  0  0  0
  -23.6563  -20.8792   28.8730 C   0  0  0  0  0  0  0  0  0  0  0  0
  -29.7156  -19.2857   22.3528 C   0  0  0  0  0  0  0  0  0  0  0  0
  -29.5318  -17.9030   22.3627 C   0  0  0  0  0  0  0  0  0  0  0  0
  -30.2534  -17.0973   21.4819 C   0  0  0  0  0  0  0  0  0  0  0  0
  -22.3380   -8.1428   21.4622 C   0  0  0  0  0  0  0  0  0  0  0  0
  -23.6101  -20.7100   26.4483 C   0  0  0  0  0  0  0  0  0  0  0  0
  -20.8599   -6.9770   22.8687 C   0  0  0  0  0  0  0  0  0  0  0  0
  -19.3453   -6.8979   25.2102 C   0  0  0  0  0  0  0  0  0  0  0  0
  -21.1014   -5.9882   23.8225 C   0  0  0  0  0  0  0  0  0  0  0  0
  -24.5968  -11.6389   20.7052 C   0  0  0  0  0  0  0  0  0  0  0  0
  -25.2627  -13.7224   20.4798 C   0  0  0  0  0  0  0  0  0  0  0  0
  -24.9437  -20.5357   21.9229 C   0  0  0  0  0  0  0  0  0  0  0  0
  -25.1369  -20.2427   23.2170 C   0  0  0  0  0  0  0  0  0  0  0  0
  -26.5253  -19.9949   23.7266 C   0  0  0  0  0  0  0  0  0  0  0  0
  -22.8998  -13.4898   21.2613 C   0  0  0  0  0  0  0  0  0  0  0  0
  -21.4862  -21.8854   31.3034 C   0  0  0  0  0  0  0  0  0  0  0  0
  -24.3685  -21.1880   32.6181 C   0  0  0  0  0  0  0  0  0  0  0  0
  -27.6078  -20.2205   32.1516 C   0  0  0  0  0  0  0  0  0  0  0  0
  -30.7294  -14.7654   20.6560 C   0  0  0  0  0  0  0  0  0  0  0  0
  -16.6590  -22.3362   32.9009 C   0  0  0  0  0  0  0  0  0  0  0  0
  -21.9741  -19.6331   30.2810 C   0  0  0  0  0  0  0  0  0  0  0  0
  -24.3050  -21.4447   30.1090 C   0  0  0  0  0  0  0  0  0  0  0  0
  -26.0568  -20.7053   20.9448 C   0  0  0  0  0  0  0  0  0  0  0  0
  -18.0381  -22.4748   33.5406 C   0  0  0  0  0  0  0  0  0  0  0  0
  -29.6145  -12.3521   18.2874 C   0  0  0  0  0  0  0  0  0  0  0  0
  -18.9371  -23.3610   32.6843 C   0  0  0  0  0  0  0  0  0  0  0  0
  -28.1746  -12.0612   18.7166 C   0  0  0  0  0  0  0  0  0  0  0  0
  -27.3419  -21.1061   21.6471 C   0  0  0  0  0  0  0  0  0  0  0  0
  -30.5293  -12.5804   19.4893 C   0  0  0  0  0  0  0  0  0  0  0  0
  -28.6224  -13.3058   20.8701 C   0  0  0  0  0  0  0  0  0  0  0  0
  -19.1529  -22.7491   31.2948 C   0  0  1  0  0  0  0  0  0  0  0  0
  -22.3025  -20.6269   31.3909 C   0  0  1  0  0  0  0  0  0  0  0  0
  -27.6498  -13.1330   19.6920 C   0  0  2  0  0  0  0  0  0  0  0  0
  -28.5592  -17.2885   23.3200 C   0  0  0  0  0  0  0  0  0  0  0  0
  -29.7317  -19.7753   33.4119 C   0  0  0  0  0  0  0  0  0  0  0  0
  -24.8204  -24.1912   32.9129 C   0  0  0  0  0  0  0  0  0  0  0  0
  -27.2537  -23.7199   33.2664 C   0  0  0  0  0  0  0  0  0  0  0  0
  -25.5660  -22.8268   34.8717 C   0  0  0  0  0  0  0  0  0  0  0  0
  -27.6711  -17.3940   31.2766 C   0  0  0  0  0  0  0  0  0  0  0  0
  -28.9519  -20.1760   23.2900 C   0  0  0  0  0  0  0  0  0  0  0  0
  -24.0092  -20.0826   24.1893 C   0  0  0  0  0  0  0  0  0  1  0  0
  -25.7450  -21.8057   32.5658 C   0  0  1  0  0  0  0  0  0  0  0  0
  -28.4557  -19.1707   32.8470 C   0  0  2  0  0  0  0  0  0  0  0  0
  -25.8331  -23.1269   33.3806 C   0  0  0  0  0  0  0  0  0  0  0  0
  -25.8617  -11.5425   20.2872 N   0  0  0  0  0  0  0  0  0  0  0  0
  -26.2392  -12.8259   20.1590 N   0  0  0  0  0  0  0  0  0  0  0  0
  -27.5684  -20.3476   22.8721 N   0  0  0  0  0  0  0  0  0  0  0  0
  -23.7102  -21.0301   31.3903 N   0  0  0  0  0  0  0  0  0  0  0  0
  -29.9706  -13.6115   20.3666 N   0  0  0  0  0  0  0  0  0  0  0  0
  -25.4738  -15.0537   20.4068 N   0  0  0  0  0  0  0  0  0  0  0  0
  -21.8873  -12.5811   21.5983 N   0  0  0  0  0  0  0  0  0  0  0  0
  -30.0822  -15.6907   21.4742 N   0  0  0  0  0  0  0  0  0  0  0  0
  -20.1215  -21.6759   31.3600 N   0  0  0  0  0  0  0  0  0  0  0  0
  -26.6741  -20.7700   33.0045 N   0  0  0  0  0  0  0  0  0  0  0  0
  -28.8304  -18.0909   31.8908 N   0  3  0  0  0  0  0  0  0  0  0  0
  -26.6782  -19.5028   24.8448 O   0  0  0  0  0  0  0  0  0  0  0  0
  -22.6641  -14.7206   21.3186 O   0  0  0  0  0  0  0  0  0  0  0  0
  -22.0527  -22.9665   31.1942 O   0  0  0  0  0  0  0  0  0  0  0  0
  -23.8978  -20.8513   33.7075 O   0  0  0  0  0  0  0  0  0  0  0  0
  -27.7612  -20.5254   30.9709 O   0  0  0  0  0  0  0  0  0  0  0  0
  -31.8587  -14.9335   20.1887 O   0  0  0  0  0  0  0  0  0  0  0  0
  -21.6114   -7.0181   21.7063 O   0  0  0  0  0  0  0  0  0  0  0  0
  -24.1293  -21.0452   25.2359 O   0  0  0  0  0  0  0  0  0  1  0  0
  -18.6191   -6.8610   26.3350 F   0  0  0  0  0  0  0  0  0  0  0  0
  -22.0603   -5.0743   23.6201 F   0  0  0  0  0  0  0  0  0  0  0  0
  1  2  1  0  0  0  0
  1  6  2  0  0  0  0
  2  7  2  0  0  0  0
  3  9  2  0  0  0  0
  3 10  1  0  0  0  0
  4 11  2  0  0  0  0
  4 18  1  0  0  0  0
  5 12  1  0  0  0  0
  5 18  2  0  0  0  0
  6 20  1  0  0  0  0
  7 22  1  0  0  0  0
  8 13  2  0  0  0  0
  8 21  1  0  0  0  0
  9 24  1  0  0  0  0
 10 26  2  0  0  0  0
 11 27  1  0  0  0  0
 12 27  2  0  0  0  0
 13 28  1  0  0  0  0
 14 15  2  0  0  0  0
 14 29  1  0  0  0  0
 15 30  1  0  0  0  0
 16 23  1  0  0  0  0
 16 28  2  0  0  0  0
 17 30  2  0  0  0  0
 17 31  1  0  0  0  0
 18 32  1  0  0  0  0
 19 32  1  0  0  0  0
 19 33  2  0  0  0  0
 19 37  1  0  0  0  0
 20 22  2  0  0  0  0
 20 42  1  0  0  0  0
 21 23  2  0  0  0  0
 21 43  1  0  0  0  0
 22 53  1  0  0  0  0
 23 44  1  0  0  0  0
 24 25  2  0  0  0  0
 24 62  1  0  0  0  0
 25 26  1  0  0  0  0
 25 56  1  0  0  0  0
 26 74  1  0  0  0  0
 27 84  1  0  0  0  0
 28 85  1  0  0  0  0
 29 31  2  0  0  0  0
 29 84  1  0  0  0  0
 30 86  1  0  0  0  0
 31 87  1  0  0  0  0
 32 67  2  0  0  0  0
 33 68  1  0  0  0  0
 33 72  1  0  0  0  0
 34 35  2  0  0  0  0
 34 45  1  0  0  0  0
 35 36  1  0  0  0  0
 35 63  1  0  0  0  0
 36 69  1  0  0  0  0
 36 78  2  0  0  0  0
 37 73  1  0  0  0  0
 37 79  2  0  0  0  0
 38 54  1  0  0  0  0
 38 75  1  0  0  0  0
 38 80  2  0  0  0  0
 39 64  1  0  0  0  0
 39 70  1  0  0  0  0
 39 81  2  0  0  0  0
 40 65  1  0  0  0  0
 40 76  1  0  0  0  0
 40 82  2  0  0  0  0
 41 71  1  0  0  0  0
 41 74  1  0  0  0  0
 41 83  2  0  0  0  0
 42 46  1  0  0  0  0
 43 54  1  0  0  0  0
 44 70  1  0  0  0  0
 45 50  1  0  0  0  0
 46 48  1  0  0  0  0
 47 49  1  0  0  0  0
 47 51  1  0  0  0  0
 48 53  1  0  0  0  0
 49 55  1  0  0  0  0
 50 69  1  0  0  0  0
 51 71  1  0  0  0  0
 52 55  1  0  0  0  0
 52 71  1  0  0  0  0
 53 75  1  0  0  0  0
 54 70  1  0  0  0  0
 55 68  1  0  0  0  0
 57 65  1  0  0  0  0
 58 66  1  0  0  0  0
 59 66  1  0  0  0  0
 60 66  1  0  0  0  0
 61 77  1  0  0  0  0
 62 69  1  0  0  0  0
 63 85  1  0  0  0  0
 64 66  1  0  0  0  0
 64 76  1  0  0  0  0
 65 77  1  0  0  0  0
 67 68  1  0  0  0  0
M  CHG  1  77   1
M  ISO  4  41 100  63 101  74 100  85 101
M  END
> <Batch ID>
0059

> <Smiles>
CNC(C)C(=O)NC(C(=O)N1Cc2cc([101O:1][101CH2:1]C3=CCCN(Cc4cccc([100NH:0][100C:0](=O)N5CCCC(n6nc(-c7ccc(Oc8ccc(F)cc8F)cc7)c(C(N)=O)c6N)C5)c4C)C3=O)ccc2CC1C(=O)NC1CCCc2ccccc21)C(C)(C)C

> <Shape>
0.178

> <Color>
0.192

> <Negative vol penalty>
0.000

$$$$

  -OEChem-04042323013D

 89 98  0     1  0  0  0  0  0999 V2000
  -23.8856   -7.9112   21.4748 C   0  0  0  0  0  0  0  0  0  0  0  0
  -24.4943   -8.9857   20.8340 C   0  0  0  0  0  0  0  0  0  0  0  0
  -26.0561  -33.3264   22.9122 C   0  0  0  0  0  0  0  0  0  0  0  0
  -24.6539  -31.9197   24.2878 C   0  0  0  0  0  0  0  0  0  0  0  0
  -22.5853   -8.0372   21.9618 C   0  0  0  0  0  0  0  0  0  0  0  0
  -23.8025  -10.1864   20.6790 C   0  0  0  0  0  0  0  0  0  0  0  0
  -26.6466  -14.2251   21.7947 C   0  0  0  0  0  0  0  0  0  0  0  0
  -26.3808  -34.0955   24.0296 C   0  0  0  0  0  0  0  0  0  0  0  0
  -24.9786  -32.6888   25.4053 C   0  0  0  0  0  0  0  0  0  0  0  0
  -27.5678  -14.6402   20.8340 C   0  0  0  0  0  0  0  0  0  0  0  0
  -28.4504  -33.8683   26.6938 C   0  0  0  0  0  0  0  0  0  0  0  0
  -29.7900  -34.2106   26.8781 C   0  0  0  0  0  0  0  0  0  0  0  0
  -26.0429  -16.3710   20.1282 C   0  0  0  0  0  0  0  0  0  0  0  0
  -29.9994  -24.3456   19.1109 C   0  0  0  0  0  0  0  0  0  0  0  0
  -28.5901  -22.4100   18.7880 C   0  0  0  0  0  0  0  0  0  0  0  0
  -29.2061  -36.5526   26.7727 C   0  0  0  0  0  0  0  0  0  0  0  0
  -25.1926  -32.2385   23.0413 C   0  0  0  0  0  0  0  0  0  0  0  0
  -24.2250  -31.8826   20.7079 C   0  0  0  0  0  0  0  0  0  0  0  0
  -21.8807   -9.2432   21.8211 C   0  0  0  0  0  0  0  0  0  0  0  0
  -25.4101  -14.8741   21.9223 C   0  0  0  0  0  0  0  0  0  0  0  0
  -22.4910  -10.3282   21.1634 C   0  0  0  0  0  0  0  0  0  0  0  0
  -25.1088  -15.9639   21.0930 C   0  0  0  0  0  0  0  0  0  0  0  0
  -31.1069  -23.6093   18.6904 C   0  0  0  0  0  0  0  0  0  0  0  0
  -30.9561  -22.2734   18.3186 C   0  0  0  0  0  0  0  0  0  0  0  0
  -29.6976  -21.6737   18.3674 C   0  0  0  0  0  0  0  0  0  0  0  0
  -28.7409  -23.7459   19.1598 C   0  0  0  0  0  0  0  0  0  0  0  0
  -25.8421  -33.7767   25.2761 C   0  0  0  0  0  0  0  0  0  0  0  0
  -27.2649  -15.7114   19.9987 C   0  0  0  0  0  0  0  0  0  0  0  0
  -27.4886  -34.8682   26.5489 C   0  0  0  0  0  0  0  0  0  0  0  0
  -30.1678  -35.5527   26.9176 C   0  0  0  0  0  0  0  0  0  0  0  0
  -27.8665  -36.2103   26.5883 C   0  0  0  0  0  0  0  0  0  0  0  0
  -24.8563  -31.4440   21.8872 C   0  0  0  0  0  0  0  0  0  0  0  0
  -24.1335  -30.7557   19.9279 C   0  0  0  0  0  0  0  0  0  0  0  0
  -30.1987  -19.2621   18.6655 C   0  0  0  0  0  0  0  0  0  0  0  0
  -23.7627  -33.1916   20.3493 C   0  0  0  0  0  0  0  0  0  0  0  0
  -22.3720  -13.9949   21.6042 C   0  0  0  0  0  0  0  0  0  0  0  0
  -21.7959  -16.9915   22.7045 C   0  0  0  0  0  0  0  0  0  0  0  0
  -22.9042  -20.1946   23.1027 C   0  0  0  0  0  0  0  0  0  0  0  0
  -27.5816  -25.8300   19.9946 C   0  0  0  0  0  0  0  0  0  0  0  0
  -20.4600   -9.3166   22.3219 C   0  0  0  0  0  0  0  0  0  0  0  0
  -24.4382  -14.4313   22.9814 C   0  0  0  0  0  0  0  0  0  0  0  0
  -23.8035  -16.7071   21.2031 C   0  0  0  0  0  0  0  0  0  0  0  0
  -30.2085  -17.8992   17.9952 C   0  0  0  0  0  0  0  0  0  0  0  0
  -19.9319  -10.7432   22.4492 C   0  0  0  0  0  0  0  0  0  0  0  0
  -23.9131  -26.0649   21.0949 C   0  0  0  0  0  0  0  0  0  0  0  0
  -20.2655  -11.5495   21.1981 C   0  0  0  0  0  0  0  0  0  0  0  0
  -23.5887  -27.4715   20.5973 C   0  0  0  0  0  0  0  0  0  0  0  0
  -28.5925  -18.6551   16.2982 C   0  0  0  0  0  0  0  0  0  0  0  0
  -25.0862  -25.4440   20.3471 C   0  0  0  0  0  0  0  0  0  0  0  0
  -28.4532  -19.9896   17.0141 C   0  0  0  0  0  0  0  0  0  0  0  0
  -26.1263  -27.6675   20.8266 C   0  0  0  0  0  0  0  0  0  0  0  0
  -21.7822  -11.6549   20.9978 C   0  0  1  0  0  0  0  0  0  0  0  0
  -22.9990  -14.8371   22.6790 C   0  0  1  0  0  0  0  0  0  0  0  0
  -28.9267  -17.5312   17.2664 C   0  0  2  0  0  0  0  0  0  0  0  0
  -24.8458  -28.2950   20.2540 C   0  0  2  0  0  0  0  0  0  0  0  0
  -32.1479  -21.4880   17.8678 C   0  0  0  0  0  0  0  0  0  0  0  0
  -22.1952  -22.4267   24.0040 C   0  0  0  0  0  0  0  0  0  0  0  0
  -20.0258  -17.4153   20.2556 C   0  0  0  0  0  0  0  0  0  0  0  0
  -20.1252  -19.8779   20.6964 C   0  0  0  0  0  0  0  0  0  0  0  0
  -19.1037  -18.3507   22.3838 C   0  0  0  0  0  0  0  0  0  0  0  0
  -25.1126  -20.2306   25.0726 C   0  0  0  0  0  0  0  0  0  0  0  0
  -27.7862  -17.2223   18.2377 C   0  0  0  0  0  0  0  0  0  1  0  0
  -32.4434  -24.2756   18.6467 C   0  0  0  0  0  0  0  0  0  0  0  0
  -21.6120  -18.3475   22.0669 C   0  0  1  0  0  0  0  0  0  0  0  0
  -22.9062  -21.1172   24.3082 C   0  0  2  0  0  0  0  0  0  0  0  0
  -20.2405  -18.4828   21.3470 C   0  0  0  0  0  0  0  0  0  0  0  0
  -25.1452  -30.1402   21.8632 N   0  0  0  0  0  0  0  0  0  0  0  0
  -24.6935  -29.7498   20.6592 N   0  0  0  0  0  0  0  0  0  0  0  0
  -29.5183  -20.2879   17.9873 N   0  0  0  0  0  0  0  0  0  0  0  0
  -22.8835  -16.2324   22.2499 N   0  0  0  0  0  0  0  0  0  0  0  0
  -26.2922  -26.2845   20.3648 N   0  0  0  0  0  0  0  0  0  0  0  0
  -23.6295  -30.5371   18.6948 N   0  0  0  0  0  0  0  0  0  0  0  0
  -22.4476  -33.5486   20.6768 N   0  0  0  0  0  0  0  0  0  0  0  0
  -27.6155  -24.4935   19.5881 N   0  0  0  0  0  0  0  0  0  0  0  0
  -22.3427  -12.6440   21.8934 N   0  0  0  0  0  0  0  0  0  0  0  0
  -21.8313  -19.3287   23.1241 N   0  0  0  0  0  0  0  0  0  0  0  0
  -24.3043  -21.4265   24.7214 N   0  3  0  0  0  0  0  0  0  0  0  0
  -30.8292  -19.3943   19.7181 O   0  0  0  0  0  0  0  0  0  0  0  0
  -24.4889  -34.0142   19.7416 O   0  0  0  0  0  0  0  0  0  0  0  0
  -21.9451  -14.5311   20.5884 O   0  0  0  0  0  0  0  0  0  0  0  0
  -21.0078  -16.6225   23.5788 O   0  0  0  0  0  0  0  0  0  0  0  0
  -23.7660  -20.2401   22.2276 O   0  0  0  0  0  0  0  0  0  0  0  0
  -28.5644  -26.5737   20.0259 O   0  0  0  0  0  0  0  0  0  0  0  0
  -26.1590  -34.5268   26.3668 O   0  0  0  0  0  0  0  0  0  0  0  0
  -28.1620  -16.1181   19.0597 O   0  0  0  0  0  0  0  0  0  1  0  0
  -31.4540  -35.8813   27.0961 F   0  0  0  0  0  0  0  0  0  0  0  0
  -26.9469  -37.1753   26.4509 F   0  0  0  0  0  0  0  0  0  0  0  0
  -33.3180  -23.6545   19.4795 F   0  0  0  0  0  0  0  0  0  0  0  0
  -32.3527  -25.5626   19.0705 F   0  0  0  0  0  0  0  0  0  0  0  0
  1  2  1  0  0  0  0
  1  5  2  0  0  0  0
  2  6  2  0  0  0  0
  3  8  2  0  0  0  0
  3 17  1  0  0  0  0
  4  9  1  0  0  0  0
  4 17  2  0  0  0  0
  5 19  1  0  0  0  0
  6 21  1  0  0  0  0
  7 10  2  0  0  0  0
  7 20  1  0  0  0  0
  8 27  1  0  0  0  0
  9 27  2  0  0  0  0
 10 28  1  0  0  0  0
 11 12  2  0  0  0  0
 11 29  1  0  0  0  0
 12 30  1  0  0  0  0
 13 22  1  0  0  0  0
 13 28  2  0  0  0  0
 14 23  2  0  0  0  0
 14 26  1  0  0  0  0
 15 25  1  0  0  0  0
 15 26  2  0  0  0  0
 16 30  2  0  0  0  0
 16 31  1  0  0  0  0
 17 32  1  0  0  0  0
 18 32  1  0  0  0  0
 18 33  2  0  0  0  0
 18 35  1  0  0  0  0
 19 21  2  0  0  0  0
 19 40  1  0  0  0  0
 20 22  2  0  0  0  0
 20 41  1  0  0  0  0
 21 52  1  0  0  0  0
 22 42  1  0  0  0  0
 23 24  1  0  0  0  0
 23 63  1  0  0  0  0
 24 25  2  0  0  0  0
 24 56  1  0  0  0  0
 25 69  1  0  0  0  0
 26 74  1  0  0  0  0
 27 84  1  0  0  0  0
 28 85  1  0  0  0  0
 29 31  2  0  0  0  0
 29 84  1  0  0  0  0
 30 86  1  0  0  0  0
 31 87  1  0  0  0  0
 32 67  2  0  0  0  0
 33 68  1  0  0  0  0
 33 72  1  0  0  0  0
 34 43  1  0  0  0  0
 34 69  1  0  0  0  0
 34 78  2  0  0  0  0
 35 73  1  0  0  0  0
 35 79  2  0  0  0  0
 36 53  1  0  0  0  0
 36 75  1  0  0  0  0
 36 80  2  0  0  0  0
 37 64  1  0  0  0  0
 37 70  1  0  0  0  0
 37 81  2  0  0  0  0
 38 65  1  0  0  0  0
 38 76  1  0  0  0  0
 38 82  2  0  0  0  0
 39 71  1  0  0  0  0
 39 74  1  0  0  0  0
 39 83  2  0  0  0  0
 40 44  1  0  0  0  0
 41 53  1  0  0  0  0
 42 70  1  0  0  0  0
 43 54  1  0  0  0  0
 44 46  1  0  0  0  0
 45 47  1  0  0  0  0
 45 49  1  0  0  0  0
 46 52  1  0  0  0  0
 47 55  1  0  0  0  0
 48 50  1  0  0  0  0
 48 54  1  0  0  0  0
 49 71  1  0  0  0  0
 50 69  1  0  0  0  0
 51 55  1  0  0  0  0
 51 71  1  0  0  0  0
 52 75  1  0  0  0  0
 53 70  1  0  0  0  0
 54 62  1  0  0  0  0
 55 68  1  0  0  0  0
 57 65  1  0  0  0  0
 58 66  1  0  0  0  0
 59 66  1  0  0  0  0
 60 66  1  0  0  0  0
 61 77  1  0  0  0  0
 62 85  1  0  0  0  0
 63 88  1  0  0  0  0
 63 89  1  0  0  0  0
 64 66  1  0  0  0  0
 64 76  1  0  0  0  0
 65 77  1  0  0  0  0
 67 68  1  0  0  0  0
M  CHG  1  77   1
M  ISO  4  39 100  62 101  74 100  85 101
M  END
> <Batch ID>
0059

> <Smiles>
CNC(C)C(=O)NC(C(=O)N1Cc2cc([101O:1][101CH2:1]C3CCN(c4cc([100NH:0][100C:0](=O)N5CCCC(n6nc(-c7ccc(Oc8ccc(F)cc8F)cc7)c(C(N)=O)c6N)C5)cc(C(F)F)c4C)C(=O)C3)ccc2CC1C(=O)NC1CCCc2ccccc21)C(C)(C)C

> <Shape>
0.214

> <Color>
0.085

> <Negative vol penalty>
0.000

$$$$

  -OEChem-04042323013D

 85 93  0     1  0  0  0  0  0999 V2000
  -30.3386  -18.3511   16.0137 C   0  0  0  0  0  0  0  0  0  0  0  0
  -29.9567  -18.7092   17.3026 C   0  0  0  0  0  0  0  0  0  0  0  0
  -23.0741   -9.8641   19.9477 C   0  0  0  0  0  0  0  0  0  0  0  0
  -23.8314   -9.8812   22.2419 C   0  0  0  0  0  0  0  0  0  0  0  0
  -31.6139  -18.6730   15.5510 C   0  0  0  0  0  0  0  0  0  0  0  0
  -30.8504  -19.3884   18.1300 C   0  0  0  0  0  0  0  0  0  0  0  0
  -28.6817  -23.2621   20.5664 C   0  0  0  0  0  0  0  0  0  0  0  0
  -22.3294   -8.7125   20.2020 C   0  0  0  0  0  0  0  0  0  0  0  0
  -23.0866   -8.7295   22.4962 C   0  0  0  0  0  0  0  0  0  0  0  0
  -27.8968  -22.9564   21.6773 C   0  0  0  0  0  0  0  0  0  0  0  0
  -19.3791   -7.9239   21.6535 C   0  0  0  0  0  0  0  0  0  0  0  0
  -18.0728   -7.8761   21.1670 C   0  0  0  0  0  0  0  0  0  0  0  0
  -29.7296  -23.5513   23.1286 C   0  0  0  0  0  0  0  0  0  0  0  0
  -29.8771  -17.4651   23.1184 C   0  0  0  0  0  0  0  0  0  0  0  0
  -32.0616  -16.6133   22.5360 C   0  0  0  0  0  0  0  0  0  0  0  0
  -18.6330   -5.9268   19.8542 C   0  0  0  0  0  0  0  0  0  0  0  0
  -23.8252  -10.4484   20.9676 C   0  0  0  0  0  0  0  0  0  0  0  0
  -24.1684  -12.9729   20.8364 C   0  0  0  0  0  0  0  0  0  0  0  0
  -32.5202  -19.3650   16.3697 C   0  0  0  0  0  0  0  0  0  0  0  0
  -30.0023  -23.7051   20.7282 C   0  0  0  0  0  0  0  0  0  0  0  0
  -32.1394  -19.7186   17.6783 C   0  0  0  0  0  0  0  0  0  0  0  0
  -30.5283  -23.8645   22.0182 C   0  0  0  0  0  0  0  0  0  0  0  0
  -31.8493  -18.3715   24.1794 C   0  0  0  0  0  0  0  0  0  0  0  0
  -30.6760  -16.5951   22.3765 C   0  0  0  0  0  0  0  0  0  0  0  0
  -30.4637  -18.3533   24.0198 C   0  0  0  0  0  0  0  0  0  0  0  0
  -22.3356   -8.1452   21.4763 C   0  0  0  0  0  0  0  0  0  0  0  0
  -28.4216  -23.0982   22.9586 C   0  0  0  0  0  0  0  0  0  0  0  0
  -20.3125   -6.9732   21.2404 C   0  0  0  0  0  0  0  0  0  0  0  0
  -17.6997   -6.8776   20.2673 C   0  0  0  0  0  0  0  0  0  0  0  0
  -32.6483  -17.5015   23.4375 C   0  0  0  0  0  0  0  0  0  0  0  0
  -19.9394   -5.9746   20.3408 C   0  0  0  0  0  0  0  0  0  0  0  0
  -24.5952  -11.6378   20.7053 C   0  0  0  0  0  0  0  0  0  0  0  0
  -25.2613  -13.7201   20.4710 C   0  0  0  0  0  0  0  0  0  0  0  0
  -22.8977  -13.4912   21.2515 C   0  0  0  0  0  0  0  0  0  0  0  0
  -32.8584  -22.6046   19.8707 C   0  0  0  0  0  0  0  0  0  0  0  0
  -33.8783  -25.4437   21.0631 C   0  0  0  0  0  0  0  0  0  0  0  0
  -28.2489  -19.3293   24.7160 C   0  0  0  0  0  0  0  0  0  0  0  0
  -33.3129  -28.0765   23.1596 C   0  0  0  0  0  0  0  0  0  0  0  0
  -30.7278  -14.7639   20.6473 C   0  0  0  0  0  0  0  0  0  0  0  0
  -33.9042  -19.6492   15.8421 C   0  0  0  0  0  0  0  0  0  0  0  0
  -30.8272  -24.0564   19.5205 C   0  0  0  0  0  0  0  0  0  0  0  0
  -31.9336  -24.3559   22.2465 C   0  0  0  0  0  0  0  0  0  0  0  0
  -34.6603  -20.7003   16.6507 C   0  0  0  0  0  0  0  0  0  0  0  0
  -29.6150  -12.3398   18.2887 C   0  0  0  0  0  0  0  0  0  0  0  0
  -34.5356  -20.4164   18.1442 C   0  0  0  0  0  0  0  0  0  0  0  0
  -28.1747  -12.0509   18.7180 C   0  0  0  0  0  0  0  0  0  0  0  0
  -30.5288  -12.5737   19.4904 C   0  0  0  0  0  0  0  0  0  0  0  0
  -28.6206  -13.3053   20.8661 C   0  0  0  0  0  0  0  0  0  0  0  0
  -33.0718  -20.4778   18.5971 C   0  0  1  0  0  0  0  0  0  0  0  0
  -32.3284  -24.0082   19.7877 C   0  0  1  0  0  0  0  0  0  0  0  0
  -27.6491  -13.1272   19.6880 C   0  0  2  0  0  0  0  0  0  0  0  0
  -32.5016  -19.3126   25.1397 C   0  0  0  0  0  0  0  0  0  0  0  0
  -34.3436  -30.2252   23.9459 C   0  0  0  0  0  0  0  0  0  0  0  0
  -35.8214  -23.8692   22.8109 C   0  0  0  0  0  0  0  0  0  0  0  0
  -36.1203  -25.9246   24.2090 C   0  0  0  0  0  0  0  0  0  0  0  0
  -36.7759  -25.9492   21.8023 C   0  0  0  0  0  0  0  0  0  0  0  0
  -31.0421  -29.6752   22.1364 C   0  0  0  0  0  0  0  0  0  0  0  0
  -27.7585  -20.4007   25.6800 C   0  0  0  0  0  0  0  0  0  0  0  0
  -26.4717  -21.0697   25.2094 C   0  0  0  0  0  0  0  0  0  0  0  0
  -26.6645  -21.7882   23.8819 C   0  0  0  0  0  0  0  0  0  1  0  0
  -34.3241  -25.9357   22.4189 C   0  0  1  0  0  0  0  0  0  0  0  0
  -33.4046  -29.5760   22.9411 C   0  0  2  0  0  0  0  0  0  0  0  0
  -35.7345  -25.4085   22.8063 C   0  0  0  0  0  0  0  0  0  0  0  0
  -25.8604  -11.5394   20.2889 N   0  0  0  0  0  0  0  0  0  0  0  0
  -26.2381  -12.8222   20.1552 N   0  0  0  0  0  0  0  0  0  0  0  0
  -32.7026  -24.6803   21.0336 N   0  0  0  0  0  0  0  0  0  0  0  0
  -29.9693  -13.6088   20.3624 N   0  0  0  0  0  0  0  0  0  0  0  0
  -25.4725  -15.0512   20.3922 N   0  0  0  0  0  0  0  0  0  0  0  0
  -21.8849  -12.5841   21.5918 N   0  0  0  0  0  0  0  0  0  0  0  0
  -29.6365  -19.2284   24.7632 N   0  0  0  0  0  0  0  0  0  0  0  0
  -30.0800  -15.6930   21.4607 N   0  0  0  0  0  0  0  0  0  0  0  0
  -32.6417  -21.8531   18.7315 N   0  0  0  0  0  0  0  0  0  0  0  0
  -34.2197  -27.3903   22.3799 N   0  0  0  0  0  0  0  0  0  0  0  0
  -32.0600  -30.2031   23.0811 N   0  3  0  0  0  0  0  0  0  0  0  0
  -22.6620  -14.7222   21.3030 O   0  0  0  0  0  0  0  0  0  0  0  0
  -33.4235  -22.2316   20.8921 O   0  0  0  0  0  0  0  0  0  0  0  0
  -34.5446  -25.7324   20.0659 O   0  0  0  0  0  0  0  0  0  0  0  0
  -27.4778  -18.6779   24.0193 O   0  0  0  0  0  0  0  0  0  0  0  0
  -32.5189  -27.5654   23.9463 O   0  0  0  0  0  0  0  0  0  0  0  0
  -31.8575  -14.9299   20.1802 O   0  0  0  0  0  0  0  0  0  0  0  0
  -21.6088   -7.0216   21.7249 O   0  0  0  0  0  0  0  0  0  0  0  0
  -27.6578  -22.7998   24.0446 O   0  0  0  0  0  0  0  0  0  1  0  0
  -16.4448   -6.8308   19.8014 F   0  0  0  0  0  0  0  0  0  0  0  0
  -33.9806  -17.5098   23.5845 F   0  0  0  0  0  0  0  0  0  0  0  0
  -20.8314   -5.0578   19.9411 F   0  0  0  0  0  0  0  0  0  0  0  0
  1  2  1  0  0  0  0
  1  5  2  0  0  0  0
  2  6  2  0  0  0  0
  3  8  2  0  0  0  0
  3 17  1  0  0  0  0
  4  9  1  0  0  0  0
  4 17  2  0  0  0  0
  5 19  1  0  0  0  0
  6 21  1  0  0  0  0
  7 10  2  0  0  0  0
  7 20  1  0  0  0  0
  8 26  1  0  0  0  0
  9 26  2  0  0  0  0
 10 27  1  0  0  0  0
 11 12  2  0  0  0  0
 11 28  1  0  0  0  0
 12 29  1  0  0  0  0
 13 22  1  0  0  0  0
 13 27  2  0  0  0  0
 14 24  2  0  0  0  0
 14 25  1  0  0  0  0
 15 24  1  0  0  0  0
 15 30  2  0  0  0  0
 16 29  2  0  0  0  0
 16 31  1  0  0  0  0
 17 32  1  0  0  0  0
 18 32  1  0  0  0  0
 18 33  2  0  0  0  0
 18 34  1  0  0  0  0
 19 21  2  0  0  0  0
 19 40  1  0  0  0  0
 20 22  2  0  0  0  0
 20 41  1  0  0  0  0
 21 49  1  0  0  0  0
 22 42  1  0  0  0  0
 23 25  2  0  0  0  0
 23 30  1  0  0  0  0
 23 52  1  0  0  0  0
 24 71  1  0  0  0  0
 25 70  1  0  0  0  0
 26 81  1  0  0  0  0
 27 82  1  0  0  0  0
 28 31  2  0  0  0  0
 28 81  1  0  0  0  0
 29 83  1  0  0  0  0
 30 84  1  0  0  0  0
 31 85  1  0  0  0  0
 32 64  2  0  0  0  0
 33 65  1  0  0  0  0
 33 68  1  0  0  0  0
 34 69  1  0  0  0  0
 34 75  2  0  0  0  0
 35 50  1  0  0  0  0
 35 72  1  0  0  0  0
 35 76  2  0  0  0  0
 36 61  1  0  0  0  0
 36 66  1  0  0  0  0
 36 77  2  0  0  0  0
 37 58  1  0  0  0  0
 37 70  1  0  0  0  0
 37 78  2  0  0  0  0
 38 62  1  0  0  0  0
 38 73  1  0  0  0  0
 38 79  2  0  0  0  0
 39 67  1  0  0  0  0
 39 71  1  0  0  0  0
 39 80  2  0  0  0  0
 40 43  1  0  0  0  0
 41 50  1  0  0  0  0
 42 66  1  0  0  0  0
 43 45  1  0  0  0  0
 44 46  1  0  0  0  0
 44 47  1  0  0  0  0
 45 49  1  0  0  0  0
 46 51  1  0  0  0  0
 47 67  1  0  0  0  0
 48 51  1  0  0  0  0
 48 67  1  0  0  0  0
 49 72  1  0  0  0  0
 50 66  1  0  0  0  0
 51 65  1  0  0  0  0
 53 62  1  0  0  0  0
 54 63  1  0  0  0  0
 55 63  1  0  0  0  0
 56 63  1  0  0  0  0
 57 74  1  0  0  0  0
 58 59  1  0  0  0  0
 59 60  1  0  0  0  0
 60 82  1  0  0  0  0
 61 63  1  0  0  0  0
 61 73  1  0  0  0  0
 62 74  1  0  0  0  0
 64 65  1  0  0  0  0
M  CHG  1  74   1
M  ISO  4  39 100  60 101  71 100  82 101
M  END
> <Batch ID>
0059

> <Smiles>
CNC(C)C(=O)NC(C(=O)N1Cc2cc([101O:1][101CH2:1]CCC(=O)Nc3cc([100NH:0][100C:0](=O)N4CCCC(n5nc(-c6ccc(Oc7ccc(F)cc7F)cc6)c(C(N)=O)c5N)C4)cc(F)c3C)ccc2CC1C(=O)NC1CCCc2ccccc21)C(C)(C)C

> <Shape>
0.175

> <Color>
0.191

> <Negative vol penalty>
0.000

$$$$
